data_PCOD9487181
_publ_section_title
;
Structure prediction by ZEFSAII (Michael W. Deem and Ramdas Pophale) SiO2 
 PCOD9487181
Probable space group: C M M M
;
_chemical_formula_sum "Si O2"
_cell_formula_units_Z 80
_cell_length_a 23.080121
_cell_length_b 13.407350
_cell_length_c 14.475971
_cell_angle_alpha 90.000000
_cell_angle_beta 90.000000
_cell_angle_gamma 90.000000
_cell_volume 4479.491662
_symmetry_space_group_name_H-M "C M M M"
_symmetry_group_IT_number 65
_symmetry_cell_setting 'orthorhombic'
loop_
_space_group_symop_operation_xyz
x,y,z
-x,-y,z
x,-y,-z
-x,y,-z
-x,-y,-z
x,y,-z
-x,y,z
x,-y,z
1/2+x,1/2+y,z
1/2-x,1/2-y,z
1/2+x,1/2-y,-z
1/2-x,1/2+y,-z
1/2-x,1/2-y,-z
1/2+x,1/2+y,-z
1/2-x,1/2+y,z
1/2+x,1/2-y,z
loop_
_atom_site_type_symbol
_atom_site_label
_atom_site_fract_x
_atom_site_fract_y
_atom_site_fract_z
Si Si1 0.863413 0.621255 0.601747
Si Si2 0.328339 0.186484 0.892955
Si Si3 0.771391 0.879314 0.601910
Si Si4 0.066076 0.379582 0.219536
Si Si5 0.788687 0.115679 0.192441
O O1 0.885335 0.649721 0.500000
O O2 0.862659 0.500000 0.605116
O O3 0.796104 0.652393 0.608296
O O4 0.903098 0.655574 0.685719
O O5 0.391691 0.153378 0.862200
O O6 0.279664 0.130363 0.831286
O O7 0.319831 0.303563 0.871520
O O8 0.316924 0.165643 0.000000
O O9 0.793947 0.849271 0.500000
O O10 0.799513 0.855162 0.700440
O O11 0.770950 0.000000 0.600932
O O12 0.065222 0.500000 0.221509
O O13 0.000000 0.344724 0.211941
O O14 0.803722 0.000000 0.178149
#
# Coordination Sequence:
#
# PCOD9487181 Si02
#       5
#    16  16  16  16  16
#     4   8  13  24  44  70 100 132 162 193 235 290
#     4  11  23  35  49  73 100 127 169 216 252 291
#     4   8  13  24  46  73 101 132 160 189 233 291
#     4  10  20  34  52  73  99 132 166 203 251 301
#     4  10  19  34  54  74 101 133 163 199 247 298
#
# _framework density 17.859169000000001
#
# number of rings (size 3 to 8) (size 9 to 14) (size 15 to 20)
#    0.000    2.600    2.000    3.000    0.000    3.600 
#    0.000    6.000    0.000    0.600    0.000    1.400 
#    0.000    0.000    0.000    6.800    0.000    0.200 
#
# Total GULP energy -223035.867706 kJ/mol
# GULP energy per Si atom -5575.896693 kJ/mol
# Density = 1.781852 g / cm^3
# Si number density = 17.859169 Si / 1000 Ang^3
#
#
#
# Elastic Constant Matrix: (Units=GPa)
#
#
# Indices 1 2 3 4 5 6 
#
# 1 46.0242 -10.7376 0.1785 0.0000 0.0000 0.0000
# 2 -10.7376 47.7280 -6.4456 0.0000 0.0000 0.0000
# 3 0.1785 -6.4456 95.8160 0.0000 0.0000 0.0000
# 4 0.0000 0.0000 0.0000 22.4682 0.0000 0.0000
# 5 0.0000 0.0000 0.0000 0.0000 12.6833 0.0000
# 6 0.0000 0.0000 0.0000 0.0000 0.0000 12.5697
#
#
#
# Elastic Compliance Matrix: (Units=1/GPa)
#
#
# Indices 1 2 3 4 5 6 
#
# 1 0.022940 0.005202 0.000307 0.000000 0.000000 0.000000
# 2 0.005202 0.022324 0.001492 0.000000 0.000000 0.000000
# 3 0.000307 0.001492 0.010536 0.000000 0.000000 0.000000
# 4 0.000000 0.000000 0.000000 0.044507 0.000000 0.000000
# 5 0.000000 0.000000 0.000000 0.000000 0.078844 0.000000
# 6 0.000000 0.000000 0.000000 0.000000 0.000000 0.079556
#
#
# Mechanical properties :
#
#
# Convention : Reuss Voigt Hill
#
# Bulk Modulus (GPa) = 14.32577 17.28432 15.80504
# Shear Modulus (GPa) = 18.65859 23.31576 20.98718
#
# Velocity S-wave (km/s) = 3.23579 3.61714 3.43176
# Velocity P-wave (km/s) = 4.69035 5.20999 4.95698
#
# Compressibility (1/GPa) = 0.06980429
#
# Stress axis : x y z
#
# Youngs Moduli (GPa) = 43.59143 44.79484 94.90851
#
# Poissons Ratio (x) = -0.23304 -0.02916
# Poissons Ratio (y) = -0.22678 -0.14161
# Poissons Ratio (z) = -0.01339 -0.06684
#
# Static dielectric constant tensor:
#      x y z
#    x 1.589150 0.000000 0.000000 
#    y 0.000000 1.656290 0.000000 
#    z 0.000000 0.000000 1.641520 
# 
# From -- ./inp_files/40045.got.cif
#   From: 2010.05.17/outbox.cif.g08.bks.cpg/sg65_21_cif.got.tgz:40045.got - 2010.06.03 17:01:31.
