data_PCOD9487164
_publ_section_title
;
Structure prediction by ZEFSAII (Michael W. Deem and Ramdas Pophale) SiO2 
 PCOD9487164
Probable space group: C M M M
;
_chemical_formula_sum "Si O2"
_cell_formula_units_Z 96
_cell_length_a 14.536006
_cell_length_b 29.112286
_cell_length_c 11.452519
_cell_angle_alpha 90.000000
_cell_angle_beta 90.000000
_cell_angle_gamma 90.000000
_cell_volume 4846.435349
_symmetry_space_group_name_H-M "C M M M"
_symmetry_group_IT_number 65
_symmetry_cell_setting 'orthorhombic'
loop_
_space_group_symop_operation_xyz
x,y,z
-x,-y,z
x,-y,-z
-x,y,-z
-x,-y,-z
x,y,-z
-x,y,z
x,-y,z
1/2+x,1/2+y,z
1/2-x,1/2-y,z
1/2+x,1/2-y,-z
1/2-x,1/2+y,-z
1/2-x,1/2-y,-z
1/2+x,1/2+y,-z
1/2-x,1/2+y,z
1/2+x,1/2-y,z
loop_
_atom_site_type_symbol
_atom_site_label
_atom_site_fract_x
_atom_site_fract_y
_atom_site_fract_z
Si Si1 0.386640 0.816619 0.500000
Si Si2 0.258116 0.551481 0.000000
Si Si3 0.889495 0.151260 0.283234
Si Si4 0.387953 0.710870 0.500000
Si Si5 0.109588 0.051494 0.223107
Si Si6 0.853641 0.232128 0.129988
Si Si7 0.104332 0.322210 0.243750
Si Si8 0.112541 0.368167 0.000000
O O1 0.500000 0.818553 0.500000
O O2 0.358846 0.763272 0.500000
O O3 0.355917 0.834442 0.628421
O O4 0.325893 0.555692 0.110429
O O5 0.173679 0.586283 0.000000
O O6 0.219922 0.500000 0.000000
O O7 0.855866 0.182333 0.388896
O O8 0.866914 0.097569 0.294442
O O9 0.858240 0.179349 0.169125
O O10 0.000000 0.153537 0.281745
O O11 0.500000 0.711015 0.500000
O O12 0.000000 0.054091 0.193783
O O13 0.123863 0.000000 0.273958
O O14 0.750000 0.250000 0.127135
O O15 0.898032 0.267027 0.223380
O O16 0.893322 0.237759 0.000000
O O17 0.000000 0.339053 0.249041
O O18 0.139754 0.341956 0.120300
O O19 0.000000 0.373346 0.000000
#
# Coordination Sequence:
#
# PCOD9487164 Si02
#       8
#     8   8  16   8  16  16  16   8
#     4   9  16  30  52  73 102 143 187 227 267 317
#     4  10  21  37  61  82 109 142 171 226 285 335
#     4  10  20  33  52  73 101 139 182 227 270 325
#     4   9  16  30  49  72  98 137 186 224 260 311
#     4   9  19  35  55  81 108 138 179 226 281 339
#     4  11  23  32  45  71 104 143 177 223 272 333
#     4  10  19  34  53  74 104 144 185 226 268 320
#     4  10  22  36  57  84 113 148 184 224 274 336
#
# _framework density 19.808374000000001
#
# number of rings (size 3 to 8) (size 9 to 14) (size 15 to 20)
#    0.000    2.167    2.500    0.750    3.500    2.167 
#    0.000    2.083    0.000    2.500    0.000    1.750 
#    0.000    3.333    0.000    0.000    0.000    0.667 
#
# Total GULP energy -267436.254284 kJ/mol
# GULP energy per Si atom -5571.588631 kJ/mol
# Density = 1.976329 g / cm^3
# Si number density = 19.808374 Si / 1000 Ang^3
#
#
#
# Elastic Constant Matrix: (Units=GPa)
#
#
# Indices 1 2 3 4 5 6 
#
# 1 53.4020 5.7389 2.7273 0.0000 0.0000 0.0000
# 2 5.7389 104.0370 29.2796 0.0000 0.0000 0.0000
# 3 2.7273 29.2796 124.4848 0.0000 0.0000 0.0000
# 4 0.0000 0.0000 0.0000 27.7561 0.0000 0.0000
# 5 0.0000 0.0000 0.0000 0.0000 61.2336 0.0000
# 6 0.0000 0.0000 0.0000 0.0000 0.0000 28.4502
#
#
#
# Elastic Compliance Matrix: (Units=1/GPa)
#
#
# Indices 1 2 3 4 5 6 
#
# 1 0.018841 -0.000989 -0.000180 0.000000 0.000000 0.000000
# 2 -0.000989 0.010345 -0.002412 0.000000 0.000000 0.000000
# 3 -0.000180 -0.002412 0.008604 0.000000 0.000000 0.000000
# 4 0.000000 0.000000 0.000000 0.036028 0.000000 0.000000
# 5 0.000000 0.000000 0.000000 0.000000 0.016331 0.000000
# 6 0.000000 0.000000 0.000000 0.000000 0.000000 0.035149
#
#
# Mechanical properties :
#
#
# Convention : Reuss Voigt Hill
#
# Bulk Modulus (GPa) = 32.64780 39.71280 36.18030
# Shear Modulus (GPa) = 35.04592 39.76651 37.40622
#
# Velocity S-wave (km/s) = 4.21081 4.48544 4.35029
# Velocity P-wave (km/s) = 6.33710 6.84964 6.59835
#
# Compressibility (1/GPa) = 0.03062993
#
# Stress axis : x y z
#
# Youngs Moduli (GPa) = 53.07475 96.66318 116.22127
#
# Poissons Ratio (x) = 0.09556 0.02095
# Poissons Ratio (y) = 0.05247 0.28028
# Poissons Ratio (z) = 0.00957 0.23311
#
# Static dielectric constant tensor:
#      x y z
#    x 1.719360 0.000000 0.000000 
#    y 0.000000 1.695700 0.000000 
#    z 0.000000 0.000000 1.773560 
# 
# From -- ./inp_files/25525.got.cif
#   From: 2010.05.17/outbox.cif.g08.bks.cpg/sg65_13_cif.got.tgz:25525.got - 2010.06.03 17:01:31.
