data_PCOD9487669
_publ_section_title
;
Structure prediction by ZEFSAII (Michael W. Deem and Ramdas Pophale) SiO2 
 PCOD9487669
Probable space group: C M M M
;
_chemical_formula_sum "Si O2"
_cell_formula_units_Z 104
_cell_length_a 23.550655
_cell_length_b 30.961063
_cell_length_c 7.804579
_cell_angle_alpha 90.000000
_cell_angle_beta 90.000000
_cell_angle_gamma 90.000000
_cell_volume 5690.734636
_symmetry_space_group_name_H-M "C M M M"
_symmetry_group_IT_number 65
_symmetry_cell_setting 'orthorhombic'
loop_
_space_group_symop_operation_xyz
x,y,z
-x,-y,z
x,-y,-z
-x,y,-z
-x,-y,-z
x,y,-z
-x,y,z
x,-y,z
1/2+x,1/2+y,z
1/2-x,1/2-y,z
1/2+x,1/2-y,-z
1/2-x,1/2+y,-z
1/2-x,1/2-y,-z
1/2+x,1/2+y,-z
1/2-x,1/2+y,z
1/2+x,1/2-y,z
loop_
_atom_site_type_symbol
_atom_site_label
_atom_site_fract_x
_atom_site_fract_y
_atom_site_fract_z
Si Si1 0.834446 0.154488 0.200241
Si Si2 0.930880 0.000000 0.301438
Si Si3 0.833507 0.550972 0.500000
Si Si4 0.565761 0.878944 0.500000
Si Si5 0.186030 0.750524 0.302596
Si Si6 0.434431 0.593682 0.708448
Si Si7 0.274864 0.100665 0.800799
Si Si8 0.621858 0.831553 0.810273
O O1 0.833394 0.200163 0.293624
O O2 0.893500 0.130387 0.225478
O O3 0.784212 0.122221 0.257183
O O4 0.823843 0.163271 0.000000
O O5 0.914355 0.953717 0.227364
O O6 0.912366 0.000000 0.500000
O O7 0.000000 0.000000 0.302548
O O8 0.844856 0.500000 0.500000
O O9 0.890894 0.580254 0.500000
O O10 0.797591 0.565263 0.667867
O O11 0.500000 0.891798 0.500000
O O12 0.580814 0.849513 0.664405
O O13 0.190122 0.735728 0.500000
O O14 0.250000 0.750000 0.228696
O O15 0.143307 0.717286 0.214814
O O16 0.432759 0.592917 0.500000
O O17 0.500000 0.599810 0.758207
O O18 0.321370 0.139079 0.797291
O O19 0.270058 0.086114 0.000000
O O20 0.597618 0.837167 0.000000
#
# Coordination Sequence:
#
# PCOD9487669 Si02
#       8
#    16   8   8   8  16  16  16  16
#     4  11  22  34  51  79 113 150 188 231 284 341
#     4   7  12  28  53  73  89 121 173 225 269 312
#     4  10  22  39  63  89 115 156 195 232 296 355
#     4  10  22  41  62  88 121 152 195 247 289 346
#     4  11  21  32  57  88 115 146 187 239 286 339
#     4   9  18  34  54  75 102 139 185 236 283 326
#     4   9  20  36  56  84 119 151 184 232 288 347
#     4  10  19  36  60  86 117 153 190 233 291 345
#
# _framework density 18.275320000000001
#
# number of rings (size 3 to 8) (size 9 to 14) (size 15 to 20)
#    0.000    2.231    2.308    1.846    2.154    1.692 
#    1.385    1.154    0.000    3.231    0.000    4.308 
#    0.000    0.000    0.000    0.000    0.000    0.000 
#
# Total GULP energy -290060.591146 kJ/mol
# GULP energy per Si atom -5578.088291 kJ/mol
# Density = 1.823372 g / cm^3
# Si number density = 18.275320 Si / 1000 Ang^3
#
#
#
# Elastic Constant Matrix: (Units=GPa)
#
#
# Indices 1 2 3 4 5 6 
#
# 1 54.9071 38.3706 26.6585 0.0000 0.0000 0.0000
# 2 38.3706 117.1550 32.5819 0.0000 0.0000 0.0000
# 3 26.6585 32.5819 83.2283 0.0000 0.0000 0.0000
# 4 0.0000 0.0000 0.0000 -22.8560 0.0000 0.0000
# 5 0.0000 0.0000 0.0000 0.0000 12.0635 0.0000
# 6 0.0000 0.0000 0.0000 0.0000 0.0000 20.3451
#
#
#
# Elastic Compliance Matrix: (Units=1/GPa)
#
#
# Indices 1 2 3 4 5 6 
#
# 1 0.025711 -0.006880 -0.005542 0.000000 0.000000 0.000000
# 2 -0.006880 0.011419 -0.002267 0.000000 0.000000 0.000000
# 3 -0.005542 -0.002267 0.014678 0.000000 0.000000 0.000000
# 4 0.000000 0.000000 0.000000 -0.043752 0.000000 0.000000
# 5 0.000000 0.000000 0.000000 0.000000 0.082894 0.000000
# 6 0.000000 0.000000 0.000000 0.000000 0.000000 0.049152
#
#
# Mechanical properties :
#
#
# Convention : Reuss Voigt Hill
#
# Bulk Modulus (GPa) = 44.58129 50.05694 47.31911
# Shear Modulus (GPa) = 28.25555 12.42249 20.33902
#
# Velocity S-wave (km/s) = 3.93632 2.61001 3.33967
# Velocity P-wave (km/s) = 6.71615 6.04424 6.38903
#
# Compressibility (1/GPa) = 0.02243094
#
# Stress axis : x y z
#
# Youngs Moduli (GPa) = 38.89378 87.57087 68.13025
#
# Poissons Ratio (x) = 0.60245 0.37759
# Poissons Ratio (y) = 0.26757 0.15444
# Poissons Ratio (z) = 0.21556 0.19851
#
# Static dielectric constant tensor:
#      x y z
#    x 1.605630 0.000000 0.000000 
#    y 0.000000 1.611410 0.000000 
#    z 0.000000 0.000000 1.670860 
# 
# From -- ./inp_files/14834.got.cif
#   From: 2010.05.17/outbox.cif.g08.bks.cpg/sg65_8_cif.got.tgz:14834.got - 2010.06.03 17:01:31.
