data_PCOD9487656
_publ_section_title
;
Structure prediction by ZEFSAII (Michael W. Deem and Ramdas Pophale) SiO2 
 PCOD9487656
Probable space group: C M M M
;
_chemical_formula_sum "Si O2"
_cell_formula_units_Z 58
_cell_length_a 26.133500
_cell_length_b 14.867081
_cell_length_c 8.791305
_cell_angle_alpha 90.000000
_cell_angle_beta 90.000000
_cell_angle_gamma 90.000000
_cell_volume 3415.675721
_symmetry_space_group_name_H-M "C M M M"
_symmetry_group_IT_number 65
_symmetry_cell_setting 'orthorhombic'
loop_
_space_group_symop_operation_xyz
x,y,z
-x,-y,z
x,-y,-z
-x,y,-z
-x,-y,-z
x,y,-z
-x,y,z
x,-y,z
1/2+x,1/2+y,z
1/2-x,1/2-y,z
1/2+x,1/2-y,-z
1/2-x,1/2+y,-z
1/2-x,1/2-y,-z
1/2+x,1/2+y,-z
1/2-x,1/2+y,z
1/2+x,1/2-y,z
loop_
_atom_site_type_symbol
_atom_site_label
_atom_site_fract_x
_atom_site_fract_y
_atom_site_fract_z
Si Si1 0.000000 0.687787 0.332074
Si Si2 0.647513 0.000000 0.683363
Si Si3 0.767814 0.000000 0.315702
Si Si4 0.802384 0.804420 0.316534
Si Si5 0.607372 0.813636 0.180997
Si Si6 0.000000 0.500000 0.500000
O O1 0.051436 0.710702 0.243062
O O2 0.000000 0.580678 0.370172
O O3 0.000000 0.731492 0.500000
O O4 0.622376 0.910303 0.748355
O O5 0.641485 0.000000 0.500000
O O6 0.707688 0.000000 0.723494
O O7 0.793909 0.907341 0.266302
O O8 0.768990 0.000000 0.500000
O O9 0.809418 0.801785 0.500000
O O10 0.750000 0.750000 0.284414
O O11 0.849860 0.755995 0.238573
O O12 0.607595 0.819190 0.000000
#
# Coordination Sequence:
#
# PCOD9487656 Si02
#       6
#     8   8   8  16  16   2
#     4  10  21  39  59  80 105 152 197 233 274 336
#     4  11  20  35  57  81 112 157 197 234 275 336
#     4   9  18  34  57  84 112 147 199 245 274 319
#     4  10  19  36  59  84 111 153 200 238 277 335
#     4  12  24  36  54  85 121 152 187 237 295 345
#     4   8  20  36  62  84 104 142 198 240 268 330
#
# _framework density 16.980533999999999
#
# number of rings (size 3 to 8) (size 9 to 14) (size 15 to 20)
#    0.414    1.103    2.759    4.138    1.931    0.552 
#    0.000    2.759    0.000    0.828    0.000    5.793 
#    0.000    0.000    0.000    0.000    0.000    0.000 
#
# Total GULP energy -161652.266421 kJ/mol
# GULP energy per Si atom -5574.216083 kJ/mol
# Density = 1.694189 g / cm^3
# Si number density = 16.980534 Si / 1000 Ang^3
#
#
#
# Elastic Constant Matrix: (Units=GPa)
#
#
# Indices 1 2 3 4 5 6 
#
# 1 168.4969 73.7548 77.8162 0.0000 0.0000 0.0000
# 2 73.7548 117.5379 47.0311 0.0000 0.0000 0.0000
# 3 77.8162 47.0311 99.5243 0.0000 0.0000 0.0000
# 4 0.0000 0.0000 0.0000 16.6911 0.0000 0.0000
# 5 0.0000 0.0000 0.0000 0.0000 101.1240 0.0000
# 6 0.0000 0.0000 0.0000 0.0000 0.0000 -1.1977
#
#
#
# Elastic Compliance Matrix: (Units=1/GPa)
#
#
# Indices 1 2 3 4 5 6 
#
# 1 0.010718 -0.004158 -0.006415 0.000000 0.000000 0.000000
# 2 -0.004158 0.012105 -0.002469 0.000000 0.000000 0.000000
# 3 -0.006415 -0.002469 0.016230 0.000000 0.000000 0.000000
# 4 0.000000 0.000000 0.000000 0.059912 0.000000 0.000000
# 5 0.000000 0.000000 0.000000 0.000000 0.009889 0.000000
# 6 0.000000 0.000000 0.000000 0.000000 0.000000 -0.834926
#
#
# Mechanical properties :
#
#
# Convention : Reuss Voigt Hill
#
# Bulk Modulus (GPa) = 77.10998 86.97370 82.04184
# Shear Modulus (GPa) = -7.18738 35.78728 14.29995
#
# Velocity S-wave (km/s) = -2.05959 4.59578 2.90511
# Velocity P-wave (km/s) = 6.31296 8.91586 7.72483
#
# Compressibility (1/GPa) = 0.01296849
#
# Stress axis : x y z
#
# Youngs Moduli (GPa) = 93.30452 82.60857 61.61376
#
# Poissons Ratio (x) = 0.34353 0.39524
# Poissons Ratio (y) = 0.38801 0.15212
# Poissons Ratio (z) = 0.59853 0.20396
#
# Static dielectric constant tensor:
#      x y z
#    x 1.571990 0.000000 0.000000 
#    y 0.000000 1.556860 0.000000 
#    z 0.000000 0.000000 1.567700 
# 
# From -- ./inp_files/13314.got.cif
#   From: 2010.05.17/outbox.cif.g08.bks.cpg/sg65_7_cif.got.tgz:13314.got - 2010.06.03 17:01:31.
