data_PCOD9487333
_publ_section_title
;
Structure prediction by ZEFSAII (Michael W. Deem and Ramdas Pophale) SiO2 
 PCOD9487333
Probable space group: C M M M
;
_chemical_formula_sum "Si O2"
_cell_formula_units_Z 88
_cell_length_a 17.700632
_cell_length_b 20.949381
_cell_length_c 13.087719
_cell_angle_alpha 90.000000
_cell_angle_beta 90.000000
_cell_angle_gamma 90.000000
_cell_volume 4853.152410
_symmetry_space_group_name_H-M "C M M M"
_symmetry_group_IT_number 65
_symmetry_cell_setting 'orthorhombic'
loop_
_space_group_symop_operation_xyz
x,y,z
-x,-y,z
x,-y,-z
-x,y,-z
-x,-y,-z
x,y,-z
-x,y,z
x,-y,z
1/2+x,1/2+y,z
1/2-x,1/2-y,z
1/2+x,1/2-y,-z
1/2-x,1/2+y,-z
1/2-x,1/2-y,-z
1/2+x,1/2+y,-z
1/2-x,1/2+y,z
1/2+x,1/2-y,z
loop_
_atom_site_type_symbol
_atom_site_label
_atom_site_fract_x
_atom_site_fract_y
_atom_site_fract_z
Si Si1 0.000000 0.071809 0.376275
Si Si2 0.087892 0.405271 0.613975
Si Si3 0.842539 0.863864 0.620984
Si Si4 0.411807 0.763904 0.310904
Si Si5 0.681939 0.198810 0.882166
Si Si6 0.781471 0.572418 0.233337
O O1 0.077328 0.105541 0.347599
O O2 0.000000 0.070990 0.500000
O O3 0.000000 0.000000 0.337783
O O4 0.111756 0.424541 0.500000
O O5 0.093201 0.328489 0.623732
O O6 0.140856 0.430692 0.702659
O O7 0.000000 0.422229 0.627476
O O8 0.829715 0.872975 0.500000
O O9 0.855690 0.789499 0.645222
O O10 0.778792 0.898046 0.687036
O O11 0.500000 0.743629 0.312715
O O12 0.383288 0.781622 0.197509
O O13 0.750000 0.250000 0.869059
O O14 0.708794 0.127222 0.852202
O O15 0.657978 0.200855 0.000000
O O16 0.761711 0.500000 0.200781
#
# Coordination Sequence:
#
# PCOD9487333 Si02
#       6
#     8  16  16  16  16  16
#     4   9  18  30  44  68 107 155 194 221 255 307
#     4   9  19  34  53  78 111 149 187 228 275 327
#     4  11  20  31  51  80 116 156 192 224 265 323
#     4  10  19  34  56  84 111 142 185 232 283 334
#     4  10  21  40  62  81 103 136 182 236 291 340
#     4  11  23  37  55  83 114 147 188 232 279 333
#
# _framework density 18.132543999999999
#
# number of rings (size 3 to 8) (size 9 to 14) (size 15 to 20)
#    0.000    1.909    2.727    1.636    0.000    4.000 
#    0.000    3.636    0.000    0.000    0.000    5.091 
#    0.000    5.818    0.000    0.000    0.000    0.000 
#
# Total GULP energy -245468.174830 kJ/mol
# GULP energy per Si atom -5578.822155 kJ/mol
# Density = 1.809127 g / cm^3
# Si number density = 18.132544 Si / 1000 Ang^3
#
#
#
# Elastic Constant Matrix: (Units=GPa)
#
#
# Indices 1 2 3 4 5 6 
#
# 1 37.5427 7.0841 5.3764 0.0000 0.0000 0.0000
# 2 7.0841 107.7942 -0.4333 0.0000 0.0000 0.0000
# 3 5.3764 -0.4333 57.1809 0.0000 0.0000 0.0000
# 4 0.0000 0.0000 0.0000 2.7545 0.0000 0.0000
# 5 0.0000 0.0000 0.0000 0.0000 19.0698 0.0000
# 6 0.0000 0.0000 0.0000 0.0000 0.0000 13.1427
#
#
#
# Elastic Compliance Matrix: (Units=1/GPa)
#
#
# Indices 1 2 3 4 5 6 
#
# 1 0.027348 -0.001808 -0.002585 0.000000 0.000000 0.000000
# 2 -0.001808 0.009397 0.000241 0.000000 0.000000 0.000000
# 3 -0.002585 0.000241 0.017733 0.000000 0.000000 0.000000
# 4 0.000000 0.000000 0.000000 0.363038 0.000000 0.000000
# 5 0.000000 0.000000 0.000000 0.000000 0.052439 0.000000
# 6 0.000000 0.000000 0.000000 0.000000 0.000000 0.076088
#
#
# Mechanical properties :
#
#
# Convention : Reuss Voigt Hill
#
# Bulk Modulus (GPa) = 21.65694 25.17467 23.41580
# Shear Modulus (GPa) = 8.77598 19.69277 14.23438
#
# Velocity S-wave (km/s) = 2.20237 3.29910 2.80486
# Velocity P-wave (km/s) = 4.29381 5.33159 4.84059
#
# Compressibility (1/GPa) = 0.04617458
#
# Stress axis : x y z
#
# Youngs Moduli (GPa) = 36.56621 106.42029 56.39123
#
# Poissons Ratio (x) = 0.19237 0.14577
# Poissons Ratio (y) = 0.06610 -0.01360
# Poissons Ratio (z) = 0.09453 -0.02567
#
# Static dielectric constant tensor:
#      x y z
#    x 1.620340 0.000000 0.000000 
#    y 0.000000 1.677420 0.000000 
#    z 0.000000 0.000000 1.579820 
# 
# From -- ./inp_files/26784.got.cif
#   From: 2010.05.17/outbox.cif.g08.bks.cpg/sg65_14_cif.got.tgz:26784.got - 2010.06.03 17:01:31.
