data_PCOD9487689
_publ_section_title
;
Structure prediction by ZEFSAII (Michael W. Deem and Ramdas Pophale) SiO2 
 PCOD9487689
Probable space group: C M M M
;
_chemical_formula_sum "Si O2"
_cell_formula_units_Z 104
_cell_length_a 21.926629
_cell_length_b 27.460783
_cell_length_c 8.510576
_cell_angle_alpha 90.000000
_cell_angle_beta 90.000000
_cell_angle_gamma 90.000000
_cell_volume 5124.408454
_symmetry_space_group_name_H-M "C M M M"
_symmetry_group_IT_number 65
_symmetry_cell_setting 'orthorhombic'
loop_
_space_group_symop_operation_xyz
x,y,z
-x,-y,z
x,-y,-z
-x,y,-z
-x,-y,-z
x,y,-z
-x,y,z
x,-y,z
1/2+x,1/2+y,z
1/2-x,1/2-y,z
1/2+x,1/2-y,-z
1/2-x,1/2+y,-z
1/2-x,1/2-y,-z
1/2+x,1/2+y,-z
1/2-x,1/2+y,z
1/2+x,1/2-y,z
loop_
_atom_site_type_symbol
_atom_site_label
_atom_site_fract_x
_atom_site_fract_y
_atom_site_fract_z
Si Si1 0.064628 0.057407 0.808983
Si Si2 0.304085 0.441852 0.818767
Si Si3 0.090788 0.635413 0.815885
Si Si4 0.500000 0.943768 0.312895
Si Si5 0.933001 0.745334 0.808291
Si Si6 0.196517 0.209784 0.813245
Si Si7 0.778873 0.372270 0.321310
O O1 0.130000 0.077230 0.759480
O O2 0.000000 0.079319 0.756219
O O3 0.063177 0.000000 0.767646
O O4 0.065720 0.059444 0.000000
O O5 0.308286 0.500000 0.822831
O O6 0.249499 0.424813 0.711042
O O7 0.294370 0.425484 0.000000
O O8 0.069654 0.688659 0.757659
O O9 0.162922 0.634930 0.787831
O O10 0.057577 0.589276 0.739110
O O11 0.076874 0.633256 0.000000
O O12 0.500000 0.946463 0.500000
O O13 0.500000 0.000000 0.252550
O O14 0.870228 0.771848 0.758476
O O15 0.000000 0.765424 0.762621
O O16 0.930936 0.745463 0.000000
O O17 0.250000 0.250000 0.793846
O O18 0.224095 0.163677 0.725148
O O19 0.191865 0.199659 0.000000
O O20 0.797668 0.364841 0.500000
#
# Coordination Sequence:
#
# PCOD9487689 Si02
#       7
#    16  16  16   8  16  16  16
#     4   7  10  20  43  74 100 122 161 222 280 324
#     4   9  18  34  56  80 107 145 195 244 291 350
#     4  11  21  39  66  90 114 152 207 255 298 358
#     4  11  25  43  61  91 135 171 203 251 314 375
#     4   9  17  33  61  94 119 144 189 252 308 358
#     4  10  19  36  62  88 115 150 195 250 307 364
#     4  12  25  38  55  84 123 160 198 245 303 366
#
# _framework density 20.295024999999999
#
# number of rings (size 3 to 8) (size 9 to 14) (size 15 to 20)
#    0.000    2.231    2.308    3.462    0.000    1.846 
#    0.000    0.769    0.000    5.077    0.000    2.154 
#    0.000    0.000    0.000    0.000    0.000    0.000 
#
# Total GULP energy -289810.041059 kJ/mol
# GULP energy per Si atom -5573.270020 kJ/mol
# Density = 2.024883 g / cm^3
# Si number density = 20.295025 Si / 1000 Ang^3
#
#
#
# Elastic Constant Matrix: (Units=GPa)
#
#
# Indices 1 2 3 4 5 6 
#
# 1 134.9741 32.0405 4.3099 0.0000 0.0000 0.0000
# 2 32.0405 56.0945 10.5535 0.0000 0.0000 0.0000
# 3 4.3099 10.5535 20.2343 0.0000 0.0000 0.0000
# 4 0.0000 0.0000 0.0000 38.3205 0.0000 0.0000
# 5 0.0000 0.0000 0.0000 0.0000 14.0163 0.0000
# 6 0.0000 0.0000 0.0000 0.0000 0.0000 29.8424
#
#
#
# Elastic Compliance Matrix: (Units=1/GPa)
#
#
# Indices 1 2 3 4 5 6 
#
# 1 0.008583 -0.005054 0.000808 0.000000 0.000000 0.000000
# 2 -0.005054 0.022743 -0.010786 0.000000 0.000000 0.000000
# 3 0.000808 -0.010786 0.054874 0.000000 0.000000 0.000000
# 4 0.000000 0.000000 0.000000 0.026096 0.000000 0.000000
# 5 0.000000 0.000000 0.000000 0.000000 0.071346 0.000000
# 6 0.000000 0.000000 0.000000 0.000000 0.000000 0.033509
#
#
# Mechanical properties :
#
#
# Convention : Reuss Voigt Hill
#
# Bulk Modulus (GPa) = 17.81368 33.90119 25.85743
# Shear Modulus (GPa) = 18.80213 27.39575 23.09894
#
# Velocity S-wave (km/s) = 3.04705 3.67805 3.37732
# Velocity P-wave (km/s) = 4.60171 5.89728 5.28931
#
# Compressibility (1/GPa) = 0.05613663
#
# Stress axis : x y z
#
# Youngs Moduli (GPa) = 116.51118 43.96901 18.22346
#
# Poissons Ratio (x) = 0.22224 -0.01473
# Poissons Ratio (y) = 0.58890 0.19655
# Poissons Ratio (z) = -0.09415 0.47423
#
# Static dielectric constant tensor:
#      x y z
#    x 1.763370 0.000000 0.000000 
#    y 0.000000 1.756350 0.000000 
#    z 0.000000 0.000000 1.713790 
# 
# From -- ./inp_files/12402.got.cif
#   From: 2010.05.17/outbox.cif.g08.bks.cpg/sg65_7_cif.got.tgz:12402.got - 2010.06.03 17:01:31.
