data_PCOD9487822
_publ_section_title
;
Structure prediction by ZEFSAII (Michael W. Deem and Ramdas Pophale) SiO2 
 PCOD9487822
Probable space group: C M M M
;
_chemical_formula_sum "Si O2"
_cell_formula_units_Z 96
_cell_length_a 9.222029
_cell_length_b 27.780633
_cell_length_c 24.907713
_cell_angle_alpha 90.000000
_cell_angle_beta 90.000000
_cell_angle_gamma 90.000000
_cell_volume 6381.201722
_symmetry_space_group_name_H-M "C M M M"
_symmetry_group_IT_number 65
_symmetry_cell_setting 'orthorhombic'
loop_
_space_group_symop_operation_xyz
x,y,z
-x,-y,z
x,-y,-z
-x,y,-z
-x,-y,-z
x,y,-z
-x,y,z
x,-y,z
1/2+x,1/2+y,z
1/2-x,1/2-y,z
1/2+x,1/2-y,-z
1/2-x,1/2+y,-z
1/2-x,1/2-y,-z
1/2+x,1/2+y,-z
1/2-x,1/2+y,z
1/2+x,1/2-y,z
loop_
_atom_site_type_symbol
_atom_site_label
_atom_site_fract_x
_atom_site_fract_y
_atom_site_fract_z
Si Si1 0.825518 0.899681 0.280305
Si Si2 0.673179 0.944414 0.617911
Si Si3 0.173888 0.857899 0.560974
Si Si4 0.170449 0.558319 0.940989
Si Si5 0.827277 0.200417 0.665620
Si Si6 0.326398 0.443445 0.833356
O O1 0.743543 0.931622 0.324476
O O2 0.793597 0.844211 0.294947
O O3 0.784772 0.914917 0.220283
O O4 0.000000 0.906589 0.286540
O O5 0.500000 0.937382 0.619845
O O6 0.745302 0.907035 0.576743
O O7 0.702407 0.000000 0.604375
O O8 0.206263 0.843532 0.500000
O O9 0.214216 0.818726 0.606081
O O10 0.000000 0.865512 0.565825
O O11 0.182912 0.500000 0.941319
O O12 0.254280 0.574869 0.888206
O O13 0.000000 0.569564 0.936584
O O14 0.222369 0.574981 0.000000
O O15 0.750000 0.250000 0.678743
O O16 0.000000 0.207552 0.666313
O O17 0.500000 0.440917 0.838895
O O18 0.287974 0.500000 0.826032
#
# Coordination Sequence:
#
# PCOD9487822 Si02
#       6
#    16  16  16  16  16  16
#     4   9  18  32  47  63  86 115 146 178 212 256
#     4  10  20  31  44  65  91 116 142 175 213 248
#     4   9  19  35  51  66  85 111 143 173 204 252
#     4   8  14  24  36  52  80 118 152 178 207 243
#     4   9  18  32  49  67  86 108 135 171 215 261
#     4   9  16  25  40  62  85 112 147 182 210 237
#
# _framework density 15.044188
#
# number of rings (size 3 to 8) (size 9 to 14) (size 15 to 20)
#    0.000    3.000    0.000    2.500    0.000    6.667 
#    0.000    5.000    0.000    0.000    0.000    0.000 
#    0.000    0.667    0.000    1.500    0.000    2.667 
#
# Total GULP energy -267326.813506 kJ/mol
# GULP energy per Si atom -5569.308615 kJ/mol
# Density = 1.500995 g / cm^3
# Si number density = 15.044188 Si / 1000 Ang^3
#
#
#
# Elastic Constant Matrix: (Units=GPa)
#
#
# Indices 1 2 3 4 5 6 
#
# 1 13.8628 18.1171 21.8321 0.0000 0.0000 0.0000
# 2 18.1171 54.4756 23.0029 0.0000 0.0000 0.0000
# 3 21.8321 23.0029 116.4316 0.0000 0.0000 0.0000
# 4 0.0000 0.0000 0.0000 9.7772 0.0000 0.0000
# 5 0.0000 0.0000 0.0000 0.0000 11.0448 0.0000
# 6 0.0000 0.0000 0.0000 0.0000 0.0000 22.9240
#
#
#
# Elastic Compliance Matrix: (Units=1/GPa)
#
#
# Indices 1 2 3 4 5 6 
#
# 1 0.167985 -0.046441 -0.022324 0.000000 0.000000 0.000000
# 2 -0.046441 0.032867 0.002215 0.000000 0.000000 0.000000
# 3 -0.022324 0.002215 0.012337 0.000000 0.000000 0.000000
# 4 0.000000 0.000000 0.000000 0.102279 0.000000 0.000000
# 5 0.000000 0.000000 0.000000 0.000000 0.090540 0.000000
# 6 0.000000 0.000000 0.000000 0.000000 0.000000 0.043622
#
#
# Mechanical properties :
#
#
# Convention : Reuss Voigt Hill
#
# Bulk Modulus (GPa) = 12.48609 34.51934 23.50272
# Shear Modulus (GPa) = 8.20443 16.87039 12.53741
#
# Velocity S-wave (km/s) = 2.33782 3.35235 2.88995
# Velocity P-wave (km/s) = 3.95029 6.16275 5.17611
#
# Compressibility (1/GPa) = 0.08008911
#
# Stress axis : x y z
#
# Youngs Moduli (GPa) = 5.95290 30.42593 81.05642
#
# Poissons Ratio (x) = 1.41301 1.80948
# Poissons Ratio (y) = 0.27646 -0.17953
# Poissons Ratio (z) = 0.13289 -0.06739
#
# Static dielectric constant tensor:
#      x y z
#    x 1.502750 0.000000 0.000000 
#    y 0.000000 1.473990 0.000000 
#    z 0.000000 0.000000 1.510920 
# 
# From -- ./inp_files/68039.got.cif
#   From: 2010.05.17/outbox.cif.g08.bks.cpg/sg65_35_cif.got.tgz:68039.got - 2010.06.03 17:01:31.
