data_PCOD9487955
_publ_section_title
;
Structure prediction by ZEFSAII (Michael W. Deem and Ramdas Pophale) SiO2 
 PCOD9487955
Probable space group: C M M M
;
_chemical_formula_sum "Si O2"
_cell_formula_units_Z 80
_cell_length_a 14.027056
_cell_length_b 18.599415
_cell_length_c 14.198205
_cell_angle_alpha 90.000000
_cell_angle_beta 90.000000
_cell_angle_gamma 90.000000
_cell_volume 3704.241201
_symmetry_space_group_name_H-M "C M M M"
_symmetry_group_IT_number 65
_symmetry_cell_setting 'orthorhombic'
loop_
_space_group_symop_operation_xyz
x,y,z
-x,-y,z
x,-y,-z
-x,y,-z
-x,-y,-z
x,y,-z
-x,y,z
x,-y,z
1/2+x,1/2+y,z
1/2-x,1/2-y,z
1/2+x,1/2-y,-z
1/2-x,1/2+y,-z
1/2-x,1/2-y,-z
1/2+x,1/2+y,-z
1/2-x,1/2+y,z
1/2+x,1/2-y,z
loop_
_atom_site_type_symbol
_atom_site_label
_atom_site_fract_x
_atom_site_fract_y
_atom_site_fract_z
Si Si1 0.149529 0.291762 0.895539
Si Si2 0.617056 0.804081 0.607455
Si Si3 0.604714 0.684017 0.737546
Si Si4 0.883911 0.084258 0.896549
Si Si5 0.615993 0.917190 0.232339
O O1 0.250000 0.250000 0.896207
O O2 0.095708 0.247316 0.815404
O O3 0.150220 0.373315 0.859379
O O4 0.109531 0.287605 0.000000
O O5 0.646551 0.814254 0.500000
O O6 0.500000 0.801867 0.609423
O O7 0.649007 0.727021 0.650722
O O8 0.645084 0.869254 0.676842
O O9 0.500000 0.658287 0.707843
O O10 0.650646 0.621905 0.800861
O O11 0.000000 0.092968 0.896391
O O12 0.863884 0.000000 0.894273
O O13 0.851362 0.112676 0.000000
O O14 0.500000 0.917173 0.229871
O O15 0.647191 0.000000 0.236212
#
# Coordination Sequence:
#
# PCOD9487955 Si02
#       5
#    16  16  16  16  16
#     4  10  20  32  45  64  94 129 159 190 236 295
#     4   8  14  25  43  69  97 121 149 192 246 297
#     4   9  16  27  45  65  86 118 160 201 237 281
#     4   8  13  21  35  57  82 106 139 188 236 269
#     4   9  18  32  51  75  99 126 164 207 249 292
#
# _framework density 21.596867
#
# number of rings (size 3 to 8) (size 9 to 14) (size 15 to 20)
#    0.000    3.200    0.000    3.000    0.000    3.200 
#    0.000    4.000    0.000   11.400    0.000    4.200 
#    0.000    0.000    0.000    0.000    0.000    0.000 
#
# Total GULP energy -223018.572744 kJ/mol
# GULP energy per Si atom -5575.464319 kJ/mol
# Density = 2.154771 g / cm^3
# Si number density = 21.596867 Si / 1000 Ang^3
#
#
#
# Elastic Constant Matrix: (Units=GPa)
#
#
# Indices 1 2 3 4 5 6 
#
# 1 55.9684 -3.5257 1.1089 0.0000 0.0000 0.0000
# 2 -3.5257 140.7793 50.3671 0.0000 0.0000 0.0000
# 3 1.1089 50.3671 130.1006 0.0000 0.0000 0.0000
# 4 0.0000 0.0000 0.0000 28.3143 0.0000 0.0000
# 5 0.0000 0.0000 0.0000 0.0000 9.4098 0.0000
# 6 0.0000 0.0000 0.0000 0.0000 0.0000 14.4528
#
#
#
# Elastic Compliance Matrix: (Units=1/GPa)
#
#
# Indices 1 2 3 4 5 6 
#
# 1 0.017912 0.000584 -0.000379 0.000000 0.000000 0.000000
# 2 0.000584 0.008264 -0.003204 0.000000 0.000000 0.000000
# 3 -0.000379 -0.003204 0.008930 0.000000 0.000000 0.000000
# 4 0.000000 0.000000 0.000000 0.035318 0.000000 0.000000
# 5 0.000000 0.000000 0.000000 0.000000 0.106273 0.000000
# 6 0.000000 0.000000 0.000000 0.000000 0.000000 0.069191
#
#
# Mechanical properties :
#
#
# Convention : Reuss Voigt Hill
#
# Bulk Modulus (GPa) = 34.35508 46.97211 40.66359
# Shear Modulus (GPa) = 19.11400 29.02856 24.07128
#
# Velocity S-wave (km/s) = 2.97818 3.67019 3.34214
# Velocity P-wave (km/s) = 5.26954 6.30532 5.81056
#
# Compressibility (1/GPa) = 0.02910778
#
# Stress axis : x y z
#
# Youngs Moduli (GPa) = 55.83000 121.00069 111.98008
#
# Poissons Ratio (x) = -0.07068 0.04242
# Poissons Ratio (y) = -0.03261 0.35884
# Poissons Ratio (z) = 0.02115 0.38774
#
# Static dielectric constant tensor:
#      x y z
#    x 1.893680 0.000000 0.000000 
#    y 0.000000 1.802670 0.000000 
#    z 0.000000 0.000000 1.767510 
# 
# From -- ./inp_files/42341.got.cif
#   From: 2010.05.17/outbox.cif.g08.bks.cpg/sg65_22_cif.got.tgz:42341.got - 2010.06.03 17:01:31.
