data_PCOD9487107
_publ_section_title
;
Structure prediction by ZEFSAII (Michael W. Deem and Ramdas Pophale) SiO2 
 PCOD9487107
Probable space group: C M M M
;
_chemical_formula_sum "Si O2"
_cell_formula_units_Z 74
_cell_length_a 15.928074
_cell_length_b 28.209783
_cell_length_c 7.773988
_cell_angle_alpha 90.000000
_cell_angle_beta 90.000000
_cell_angle_gamma 90.000000
_cell_volume 3493.066680
_symmetry_space_group_name_H-M "C M M M"
_symmetry_group_IT_number 65
_symmetry_cell_setting 'orthorhombic'
loop_
_space_group_symop_operation_xyz
x,y,z
-x,-y,z
x,-y,-z
-x,y,-z
-x,-y,-z
x,y,-z
-x,y,z
x,-y,z
1/2+x,1/2+y,z
1/2-x,1/2-y,z
1/2+x,1/2-y,-z
1/2-x,1/2+y,-z
1/2-x,1/2-y,-z
1/2+x,1/2+y,-z
1/2-x,1/2+y,z
1/2+x,1/2-y,z
loop_
_atom_site_type_symbol
_atom_site_label
_atom_site_fract_x
_atom_site_fract_y
_atom_site_fract_z
Si Si1 0.000000 0.925699 0.191723
Si Si2 0.500000 0.500000 0.500000
Si Si3 0.000000 0.286130 0.708082
Si Si4 0.322668 0.373497 0.800195
Si Si5 0.824431 0.554997 0.789558
Si Si6 0.164110 0.767060 0.299625
Si Si7 0.500000 0.897647 0.206651
O O1 0.914372 0.896330 0.203660
O O2 0.000000 0.960129 0.349641
O O3 0.000000 0.947334 0.000000
O O4 0.918000 0.258281 0.774352
O O5 0.000000 0.282645 0.500000
O O6 0.000000 0.341817 0.750936
O O7 0.251790 0.410335 0.734719
O O8 0.332048 0.323517 0.707946
O O9 0.300932 0.363696 0.000000
O O10 0.814254 0.500000 0.734811
O O11 0.914196 0.576703 0.733517
O O12 0.823393 0.554439 0.000000
O O13 0.164986 0.752319 0.500000
O O14 0.250000 0.750000 0.215617
O O15 0.500000 0.901917 0.000000
#
# Coordination Sequence:
#
# PCOD9487107 Si02
#       7
#     8   2   8  16  16  16   8
#     4  10  24  42  62  92 126 157 202 253 302 362
#     4  12  26  40  68  90 116 170 202 248 308 362
#     4  10  21  36  55  76 107 147 178 223 296 346
#     4  10  21  37  58  84 117 153 191 244 300 351
#     4   9  18  33  55  82 114 150 186 231 288 341
#     4  10  21  36  55  80 111 149 194 240 289 355
#     4  10  19  33  57  87 110 140 194 240 274 342
#
# _framework density 21.184823000000002
#
# number of rings (size 3 to 8) (size 9 to 14) (size 15 to 20)
#    0.000    2.162    0.000    2.432    3.027    2.595 
#    0.000    0.000    0.000    2.595    0.000    0.000 
#    0.000    0.000    0.000    0.000    0.000    0.000 
#
# Total GULP energy -206232.147796 kJ/mol
# GULP energy per Si atom -5573.841832 kJ/mol
# Density = 2.113661 g / cm^3
# Si number density = 21.184823 Si / 1000 Ang^3
#
#
#
# Elastic Constant Matrix: (Units=GPa)
#
#
# Indices 1 2 3 4 5 6 
#
# 1 168.0020 70.8068 8.8347 0.0000 0.0000 0.0000
# 2 70.8068 131.1462 1.6640 0.0000 0.0000 0.0000
# 3 8.8347 1.6640 50.7210 0.0000 0.0000 0.0000
# 4 0.0000 0.0000 0.0000 -211.6441 0.0000 0.0000
# 5 0.0000 0.0000 0.0000 0.0000 -12.1998 0.0000
# 6 0.0000 0.0000 0.0000 0.0000 0.0000 33.6733
#
#
#
# Elastic Compliance Matrix: (Units=1/GPa)
#
#
# Indices 1 2 3 4 5 6 
#
# 1 0.007780 -0.004185 -0.001218 0.000000 0.000000 0.000000
# 2 -0.004185 0.009880 0.000405 0.000000 0.000000 0.000000
# 3 -0.001218 0.000405 0.019915 0.000000 0.000000 0.000000
# 4 0.000000 0.000000 0.000000 -0.004725 0.000000 0.000000
# 5 0.000000 0.000000 0.000000 0.000000 -0.081968 0.000000
# 6 0.000000 0.000000 0.000000 0.000000 0.000000 0.029697
#
#
# Mechanical properties :
#
#
# Convention : Reuss Voigt Hill
#
# Bulk Modulus (GPa) = 36.26081 56.94223 46.60152
# Shear Modulus (GPa) = -21482.17130 -20.12987 -10751.15059
#
# Velocity S-wave (km/s) = -100.80859 -3.08588 -71.31583
# Velocity P-wave (km/s) = 116.33003 3.77363 82.21446
#
# Compressibility (1/GPa) = 0.02757798
#
# Stress axis : x y z
#
# Youngs Moduli (GPa) = 128.53066 101.21933 50.21459
#
# Poissons Ratio (x) = 0.42362 0.06116
# Poissons Ratio (y) = 0.53792 -0.02033
# Poissons Ratio (z) = 0.15654 -0.04098
#
# Static dielectric constant tensor:
#      x y z
#    x 1.734200 0.000000 0.000000 
#    y 0.000000 1.666710 0.000000 
#    z 0.000000 0.000000 1.807690 
# 
# From -- ./inp_files/7462.got.cif
#   From: 2010.05.17/outbox.cif.g08.bks.cpg/sg65_4_cif.got.tgz:7462.got - 2010.06.03 17:01:31.
