data_PCOD9487589
_publ_section_title
;
Structure prediction by ZEFSAII (Michael W. Deem and Ramdas Pophale) SiO2 
 PCOD9487589
Probable space group: C M M M
;
_chemical_formula_sum "Si O2"
_cell_formula_units_Z 82
_cell_length_a 21.713816
_cell_length_b 18.648562
_cell_length_c 11.423337
_cell_angle_alpha 90.000000
_cell_angle_beta 90.000000
_cell_angle_gamma 90.000000
_cell_volume 4625.668346
_symmetry_space_group_name_H-M "C M M M"
_symmetry_group_IT_number 65
_symmetry_cell_setting 'orthorhombic'
loop_
_space_group_symop_operation_xyz
x,y,z
-x,-y,z
x,-y,-z
-x,y,-z
-x,-y,-z
x,y,-z
-x,y,z
x,-y,z
1/2+x,1/2+y,z
1/2-x,1/2-y,z
1/2+x,1/2-y,-z
1/2-x,1/2+y,-z
1/2-x,1/2-y,-z
1/2+x,1/2+y,-z
1/2-x,1/2+y,z
1/2+x,1/2-y,z
loop_
_atom_site_type_symbol
_atom_site_label
_atom_site_fract_x
_atom_site_fract_y
_atom_site_fract_z
Si Si1 0.718735 0.500000 0.140815
Si Si2 0.231139 0.369958 0.279407
Si Si3 0.911319 0.000000 0.727581
Si Si4 0.653835 0.919856 0.500000
Si Si5 0.566988 0.357331 0.131913
Si Si6 0.500000 0.500000 0.500000
Si Si7 0.654151 0.271539 0.282126
Si Si8 0.425787 0.777859 0.500000
O O1 0.755096 0.572400 0.178116
O O2 0.661204 0.500000 0.233541
O O3 0.704498 0.500000 0.000000
O O4 0.197465 0.408102 0.387596
O O5 0.294250 0.329964 0.317848
O O6 0.187011 0.302865 0.249641
O O7 0.932547 0.926773 0.787768
O O8 0.944649 0.000000 0.602143
O O9 0.601052 0.859043 0.500000
O O10 0.628433 0.000000 0.500000
O O11 0.500000 0.321971 0.140398
O O12 0.619090 0.303912 0.172431
O O13 0.576793 0.381986 0.000000
O O14 0.605363 0.258904 0.386360
O O15 0.500000 0.773664 0.500000
#
# Coordination Sequence:
#
# PCOD9487589 Si02
#       8
#     8  16   8   8  16   2  16   8
#     4  12  24  40  61  88 119 156 193 239 298 353
#     4  10  21  37  59  87 117 154 193 244 297 359
#     4  12  24  41  56  85 118 150 202 245 279 348
#     4  10  19  35  60  84 116 152 194 244 305 350
#     4  11  22  38  59  82 116 161 199 243 292 340
#     4  12  28  44  58  84 120 160 204 240 302 328
#     4  10  21  37  57  86 118 153 198 241 299 351
#     4  10  21  37  56  83 122 155 195 249 295 347
#
# _framework density 17.727169
#
# number of rings (size 3 to 8) (size 9 to 14) (size 15 to 20)
#    0.000    1.366    3.902    2.049    0.000    5.659 
#    1.756    1.951    0.000    0.000    0.000    0.000 
#    0.000    6.244    0.000    0.000    0.000    0.000 
#
# Total GULP energy -228243.287598 kJ/mol
# GULP energy per Si atom -5566.909454 kJ/mol
# Density = 1.768682 g / cm^3
# Si number density = 17.727169 Si / 1000 Ang^3
#
#
#
# Elastic Constant Matrix: (Units=GPa)
#
#
# Indices 1 2 3 4 5 6 
#
# 1 107.9768 33.8654 46.1241 0.0000 0.0000 0.0000
# 2 33.8654 87.2494 36.7766 0.0000 0.0000 0.0000
# 3 46.1241 36.7766 114.4013 0.0000 0.0000 0.0000
# 4 0.0000 0.0000 0.0000 46.0753 0.0000 0.0000
# 5 0.0000 0.0000 0.0000 0.0000 39.4954 0.0000
# 6 0.0000 0.0000 0.0000 0.0000 0.0000 15.8719
#
#
#
# Elastic Compliance Matrix: (Units=1/GPa)
#
#
# Indices 1 2 3 4 5 6 
#
# 1 0.011824 -0.002984 -0.003808 0.000000 0.000000 0.000000
# 2 -0.002984 0.014011 -0.003301 0.000000 0.000000 0.000000
# 3 -0.003808 -0.003301 0.011338 0.000000 0.000000 0.000000
# 4 0.000000 0.000000 0.000000 0.021704 0.000000 0.000000
# 5 0.000000 0.000000 0.000000 0.000000 0.025319 0.000000
# 6 0.000000 0.000000 0.000000 0.000000 0.000000 0.063005
#
#
# Mechanical properties :
#
#
# Convention : Reuss Voigt Hill
#
# Bulk Modulus (GPa) = 58.87056 60.35109 59.61082
# Shear Modulus (GPa) = 28.89370 33.14594 31.01982
#
# Velocity S-wave (km/s) = 4.04159 4.32879 4.18765
# Velocity P-wave (km/s) = 7.42029 7.68784 7.55525
#
# Compressibility (1/GPa) = 0.01698642
#
# Stress axis : x y z
#
# Youngs Moduli (GPa) = 84.57536 71.37177 88.20282
#
# Poissons Ratio (x) = 0.21300 0.33585
# Poissons Ratio (y) = 0.25240 0.29115
# Poissons Ratio (z) = 0.32204 0.23559
#
# Static dielectric constant tensor:
#      x y z
#    x 1.650070 0.000000 0.000000 
#    y 0.000000 1.604810 0.000000 
#    z 0.000000 0.000000 1.595160 
# 
# From -- ./inp_files/28652.got.cif
#   From: 2010.05.17/outbox.cif.g08.bks.cpg/sg65_15_cif.got.tgz:28652.got - 2010.06.03 17:01:31.
