data_PCOD9487155
_publ_section_title
;
Structure prediction by ZEFSAII (Michael W. Deem and Ramdas Pophale) SiO2 
 PCOD9487155
Probable space group: C M M M
;
_chemical_formula_sum "Si O2"
_cell_formula_units_Z 104
_cell_length_a 7.641438
_cell_length_b 29.300048
_cell_length_c 24.127398
_cell_angle_alpha 90.000000
_cell_angle_beta 90.000000
_cell_angle_gamma 90.000000
_cell_volume 5401.991716
_symmetry_space_group_name_H-M "C M M M"
_symmetry_group_IT_number 65
_symmetry_cell_setting 'orthorhombic'
loop_
_space_group_symop_operation_xyz
x,y,z
-x,-y,z
x,-y,-z
-x,y,-z
-x,-y,-z
x,y,-z
-x,y,z
x,-y,z
1/2+x,1/2+y,z
1/2-x,1/2-y,z
1/2+x,1/2-y,-z
1/2-x,1/2+y,-z
1/2-x,1/2-y,-z
1/2+x,1/2+y,-z
1/2-x,1/2+y,z
1/2+x,1/2-y,z
loop_
_atom_site_type_symbol
_atom_site_label
_atom_site_fract_x
_atom_site_fract_y
_atom_site_fract_z
Si Si1 0.291133 0.803511 0.780765
Si Si2 0.786021 0.051176 0.842970
Si Si3 0.294211 0.356229 0.892441
Si Si4 0.789461 0.303212 0.438222
Si Si5 0.707116 0.853188 0.329795
Si Si6 0.711029 0.449136 0.714803
Si Si7 0.211126 0.196472 0.000000
O O1 0.500000 0.809210 0.782381
O O2 0.250000 0.750000 0.779234
O O3 0.221305 0.826909 0.836381
O O4 0.221357 0.828300 0.725339
O O5 0.721735 0.093355 0.879517
O O6 0.732900 0.058471 0.778775
O O7 0.000000 0.051779 0.843237
O O8 0.732421 0.000000 0.859617
O O9 0.500000 0.362674 0.903666
O O10 0.221239 0.328732 0.944766
O O11 0.722392 0.314674 0.500000
O O12 0.750000 0.250000 0.427835
O O13 0.720965 0.333052 0.387102
O O14 0.000000 0.308217 0.440045
O O15 0.500000 0.843311 0.330158
O O16 0.730193 0.907080 0.322182
O O17 0.500000 0.449204 0.714946
O O18 0.769630 0.500000 0.698173
O O19 0.250000 0.250000 0.000000
O O20 0.000000 0.193439 0.000000
#
# Coordination Sequence:
#
# PCOD9487155 Si02
#       7
#    16  16  16  16  16  16   8
#     4  11  22  33  47  71 100 127 159 199 246 292
#     4   8  14  27  49  74  98 124 154 192 240 291
#     4  10  19  34  53  72  97 128 163 201 242 290
#     4   9  18  33  51  71  98 133 170 205 243 291
#     4  10  20  32  48  74 103 128 160 203 248 292
#     4   9  17  30  50  75 100 129 164 198 241 297
#     4  10  22  36  51  71  93 127 170 206 241 288
#
# _framework density 19.252158999999999
#
# number of rings (size 3 to 8) (size 9 to 14) (size 15 to 20)
#    0.000    2.462    1.538    2.308    0.000    3.385 
#    0.000    0.385    0.000    3.231    0.000    3.231 
#    0.000    1.846    0.000    0.000    0.000    0.000 
#
# Total GULP energy -290140.672699 kJ/mol
# GULP energy per Si atom -5579.628321 kJ/mol
# Density = 1.920834 g / cm^3
# Si number density = 19.252159 Si / 1000 Ang^3
#
#
#
# Elastic Constant Matrix: (Units=GPa)
#
#
# Indices 1 2 3 4 5 6 
#
# 1 33.8023 -10.5592 3.5571 0.0000 0.0000 0.0000
# 2 -10.5592 170.6438 112.2607 0.0000 0.0000 0.0000
# 3 3.5571 112.2607 165.6310 0.0000 0.0000 0.0000
# 4 0.0000 0.0000 0.0000 36.7375 0.0000 0.0000
# 5 0.0000 0.0000 0.0000 0.0000 27.7871 0.0000
# 6 0.0000 0.0000 0.0000 0.0000 0.0000 16.1141
#
#
#
# Elastic Compliance Matrix: (Units=1/GPa)
#
#
# Indices 1 2 3 4 5 6 
#
# 1 0.031302 0.004294 -0.003582 0.000000 0.000000 0.000000
# 2 0.004294 0.011165 -0.007659 0.000000 0.000000 0.000000
# 3 -0.003582 -0.007659 0.011306 0.000000 0.000000 0.000000
# 4 0.000000 0.000000 0.000000 0.027220 0.000000 0.000000
# 5 0.000000 0.000000 0.000000 0.000000 0.035988 0.000000
# 6 0.000000 0.000000 0.000000 0.000000 0.000000 0.062057
#
#
# Mechanical properties :
#
#
# Convention : Reuss Voigt Hill
#
# Bulk Modulus (GPa) = 25.07758 64.51050 44.79404
# Shear Modulus (GPa) = 24.24523 33.78230 29.01377
#
# Velocity S-wave (km/s) = 3.55258 4.19349 3.88627
# Velocity P-wave (km/s) = 5.46644 7.55170 6.59204
#
# Compressibility (1/GPa) = 0.03987626
#
# Stress axis : x y z
#
# Youngs Moduli (GPa) = 31.94685 89.56821 88.45026
#
# Poissons Ratio (x) = -0.38457 0.31686
# Poissons Ratio (y) = -0.13717 0.67747
# Poissons Ratio (z) = 0.11445 0.68604
#
# Static dielectric constant tensor:
#      x y z
#    x 1.725310 0.000000 0.000000 
#    y 0.000000 1.659430 0.000000 
#    z 0.000000 0.000000 1.672610 
# 
# From -- ./inp_files/60853.got.cif
#   From: 2010.05.17/outbox.cif.g08.bks.cpg/sg65_31_cif.got.tgz:60853.got - 2010.06.03 17:01:31.
