data_PCOD9487869
_publ_section_title
;
Structure prediction by ZEFSAII (Michael W. Deem and Ramdas Pophale) SiO2 
 PCOD9487869
Probable space group: C M M M
;
_chemical_formula_sum "Si O2"
_cell_formula_units_Z 72
_cell_length_a 9.272635
_cell_length_b 15.403837
_cell_length_c 26.063010
_cell_angle_alpha 90.000000
_cell_angle_beta 90.000000
_cell_angle_gamma 90.000000
_cell_volume 3722.688091
_symmetry_space_group_name_H-M "C M M M"
_symmetry_group_IT_number 65
_symmetry_cell_setting 'orthorhombic'
loop_
_space_group_symop_operation_xyz
x,y,z
-x,-y,z
x,-y,-z
-x,y,-z
-x,-y,-z
x,y,-z
-x,y,z
x,-y,z
1/2+x,1/2+y,z
1/2-x,1/2-y,z
1/2+x,1/2-y,-z
1/2-x,1/2+y,-z
1/2-x,1/2-y,-z
1/2+x,1/2+y,-z
1/2-x,1/2+y,z
1/2+x,1/2-y,z
loop_
_atom_site_type_symbol
_atom_site_label
_atom_site_fract_x
_atom_site_fract_y
_atom_site_fract_z
Si Si1 0.827225 0.842925 0.868741
Si Si2 0.839569 0.397555 0.345083
Si Si3 0.175795 0.000000 0.058964
Si Si4 0.167191 0.106166 0.557108
Si Si5 0.328317 0.342508 0.246333
O O1 0.750000 0.750000 0.874342
O O2 0.801855 0.878946 0.810924
O O3 0.000000 0.829834 0.873351
O O4 0.779510 0.913818 0.910238
O O5 0.854148 0.500000 0.354265
O O6 0.762588 0.361164 0.395778
O O7 0.742412 0.388804 0.294689
O O8 0.000000 0.360416 0.337012
O O9 0.000000 0.000000 0.059447
O O10 0.223232 0.000000 0.000000
O O11 0.216401 0.132383 0.500000
O O12 0.000000 0.131442 0.563650
O O13 0.169051 0.000000 0.557873
O O14 0.500000 0.335551 0.253079
O O15 0.250000 0.250000 0.245570
#
# Coordination Sequence:
#
# PCOD9487869 Si02
#       5
#    16  16   8  16  16
#     4   9  19  35  56  81 110 146 187 229 276 329
#     4  10  20  31  46  73 104 132 168 213 262 313
#     4   9  18  34  57  85 115 149 188 227 270 325
#     4   8  14  26  44  66  94 129 169 211 256 308
#     4  10  20  34  53  73 100 134 173 216 263 319
#
# _framework density 19.340862000000001
#
# number of rings (size 3 to 8) (size 9 to 14) (size 15 to 20)
#    0.000    2.778    0.000    2.000    1.556    3.111 
#    0.000    2.778    0.000    1.333    0.000    0.000 
#    0.000    0.000    0.000    0.000    0.000    0.000 
#
# Total GULP energy -200673.872876 kJ/mol
# GULP energy per Si atom -5574.274247 kJ/mol
# Density = 1.929684 g / cm^3
# Si number density = 19.340862 Si / 1000 Ang^3
#
#
#
# Elastic Constant Matrix: (Units=GPa)
#
#
# Indices 1 2 3 4 5 6 
#
# 1 85.1780 25.0497 84.2575 0.0000 0.0000 0.0000
# 2 25.0497 49.5890 54.5793 0.0000 0.0000 0.0000
# 3 84.2575 54.5793 192.1835 0.0000 0.0000 0.0000
# 4 0.0000 0.0000 0.0000 136.4260 0.0000 0.0000
# 5 0.0000 0.0000 0.0000 0.0000 32.2594 0.0000
# 6 0.0000 0.0000 0.0000 0.0000 0.0000 18.9972
#
#
#
# Elastic Compliance Matrix: (Units=1/GPa)
#
#
# Indices 1 2 3 4 5 6 
#
# 1 0.020747 -0.000682 -0.008902 0.000000 0.000000 0.000000
# 2 -0.000682 0.029358 -0.008038 0.000000 0.000000 0.000000
# 3 -0.008902 -0.008038 0.011389 0.000000 0.000000 0.000000
# 4 0.000000 0.000000 0.000000 0.007330 0.000000 0.000000
# 5 0.000000 0.000000 0.000000 0.000000 0.030999 0.000000
# 6 0.000000 0.000000 0.000000 0.000000 0.000000 0.052639
#
#
# Mechanical properties :
#
#
# Convention : Reuss Voigt Hill
#
# Bulk Modulus (GPa) = 38.09800 72.74707 55.42254
# Shear Modulus (GPa) = 25.45104 48.40745 36.92924
#
# Velocity S-wave (km/s) = 3.63150 5.00829 4.37440
# Velocity P-wave (km/s) = 6.10939 8.43438 7.36422
#
# Compressibility (1/GPa) = 0.02624810
#
# Stress axis : x y z
#
# Youngs Moduli (GPa) = 48.20087 34.06268 87.80370
#
# Poissons Ratio (x) = 0.02324 0.78163
# Poissons Ratio (y) = 0.03288 0.70580
# Poissons Ratio (z) = 0.42908 0.27381
#
# Static dielectric constant tensor:
#      x y z
#    x 1.665020 0.000000 0.000000 
#    y 0.000000 1.712740 0.000000 
#    z 0.000000 0.000000 1.696240 
# 
# From -- ./inp_files/70351.got.cif
#   From: 2010.05.17/outbox.cif.g08.bks.cpg/sg65_36_cif.got.tgz:70351.got - 2010.06.03 17:01:31.
