data_PCOD9487113
_publ_section_title
;
Structure prediction by ZEFSAII (Michael W. Deem and Ramdas Pophale) SiO2 
 PCOD9487113
Probable space group: C M M M
;
_chemical_formula_sum "Si O2"
_cell_formula_units_Z 88
_cell_length_a 24.343656
_cell_length_b 11.750163
_cell_length_c 14.760568
_cell_angle_alpha 90.000000
_cell_angle_beta 90.000000
_cell_angle_gamma 90.000000
_cell_volume 4222.141300
_symmetry_space_group_name_H-M "C M M M"
_symmetry_group_IT_number 65
_symmetry_cell_setting 'orthorhombic'
loop_
_space_group_symop_operation_xyz
x,y,z
-x,-y,z
x,-y,-z
-x,y,-z
-x,-y,-z
x,y,-z
-x,y,z
x,-y,z
1/2+x,1/2+y,z
1/2-x,1/2-y,z
1/2+x,1/2-y,-z
1/2-x,1/2+y,-z
1/2-x,1/2-y,-z
1/2+x,1/2+y,-z
1/2-x,1/2+y,z
1/2+x,1/2-y,z
loop_
_atom_site_type_symbol
_atom_site_label
_atom_site_fract_x
_atom_site_fract_y
_atom_site_fract_z
Si Si1 0.608590 0.789499 0.160954
Si Si2 0.270414 0.126900 0.151210
Si Si3 0.566485 0.364664 0.000000
Si Si4 0.233460 0.875263 0.636163
Si Si5 0.610189 0.622372 0.672158
Si Si6 0.500000 0.292942 0.400980
Si Si7 0.500000 0.878206 0.233284
O O1 0.663740 0.860182 0.145707
O O2 0.594559 0.696192 0.085426
O O3 0.615359 0.721734 0.254871
O O4 0.553972 0.863236 0.173120
O O5 0.250000 0.250000 0.112982
O O6 0.248887 0.126024 0.255892
O O7 0.254698 0.000000 0.114895
O O8 0.574983 0.500000 0.000000
O O9 0.500000 0.345405 0.000000
O O10 0.250000 0.750000 0.601855
O O11 0.168085 0.878732 0.622185
O O12 0.255381 0.000000 0.604219
O O13 0.604520 0.500000 0.720239
O O14 0.556493 0.638255 0.611298
O O15 0.500000 0.237891 0.500000
O O16 0.500000 0.211961 0.313904
O O17 0.500000 0.000000 0.278166
#
# Coordination Sequence:
#
# PCOD9487113 Si02
#       7
#    16  16   8  16  16   8   8
#     4  11  20  38  58  87 118 158 208 254 311 360
#     4  10  19  33  58  86 118 154 202 258 313 369
#     4  11  24  40  59  86 129 172 208 260 317 374
#     4   9  16  30  52  82 112 147 194 248 297 349
#     4  10  19  33  58  86 114 154 197 241 299 371
#     4  10  23  39  57  89 125 151 188 246 311 376
#     4  10  22  39  62  87 113 151 205 253 304 373
#
# _framework density 20.842504999999999
#
# number of rings (size 3 to 8) (size 9 to 14) (size 15 to 20)
#    0.000    1.909    4.545    1.364    0.000    1.636 
#    0.000    2.727    0.000    0.545    0.000    0.000 
#    0.000    0.000    0.000    0.000    0.000    0.000 
#
# Total GULP energy -245049.840555 kJ/mol
# GULP energy per Si atom -5569.314558 kJ/mol
# Density = 2.079507 g / cm^3
# Si number density = 20.842505 Si / 1000 Ang^3
#
#
#
# Elastic Constant Matrix: (Units=GPa)
#
#
# Indices 1 2 3 4 5 6 
#
# 1 136.4912 40.1666 11.1957 0.0000 0.0000 0.0000
# 2 40.1666 169.3452 6.5231 0.0000 0.0000 0.0000
# 3 11.1957 6.5231 48.6551 0.0000 0.0000 0.0000
# 4 0.0000 0.0000 0.0000 -93.8967 0.0000 0.0000
# 5 0.0000 0.0000 0.0000 0.0000 -166.4084 0.0000
# 6 0.0000 0.0000 0.0000 0.0000 0.0000 -1.5375
#
#
#
# Elastic Compliance Matrix: (Units=1/GPa)
#
#
# Indices 1 2 3 4 5 6 
#
# 1 0.007997 -0.001835 -0.001594 0.000000 0.000000 0.000000
# 2 -0.001835 0.006357 -0.000430 0.000000 0.000000 0.000000
# 3 -0.001594 -0.000430 0.020977 0.000000 0.000000 0.000000
# 4 0.000000 0.000000 0.000000 -0.010650 0.000000 0.000000
# 5 0.000000 0.000000 0.000000 0.000000 -0.006009 0.000000
# 6 0.000000 0.000000 0.000000 0.000000 0.000000 -0.650418
#
#
# Mechanical properties :
#
#
# Convention : Reuss Voigt Hill
#
# Bulk Modulus (GPa) = 36.21537 52.25139 44.23338
# Shear Modulus (GPa) = -8.13243 -32.59478 -20.36360
#
# Velocity S-wave (km/s) = -1.97745 -3.95886 -3.12913
# Velocity P-wave (km/s) = 3.49281 2.05604 2.86592
#
# Compressibility (1/GPa) = 0.02761259
#
# Stress axis : x y z
#
# Youngs Moduli (GPa) = 125.04090 157.30660 47.67056
#
# Poissons Ratio (x) = 0.28873 0.07599
# Poissons Ratio (y) = 0.22951 0.02049
# Poissons Ratio (z) = 0.19933 0.06763
#
# Static dielectric constant tensor:
#      x y z
#    x 1.749160 0.000000 0.000000 
#    y 0.000000 1.797380 0.000000 
#    z 0.000000 0.000000 1.764390 
# 
# From -- ./inp_files/45459.got.cif
#   From: 2010.05.17/outbox.cif.g08.bks.cpg/sg65_23_cif.got.tgz:45459.got - 2010.06.03 17:01:31.
