data_PCOD9487447
_publ_section_title
;
Structure prediction by ZEFSAII (Michael W. Deem and Ramdas Pophale) SiO2 
 PCOD9487447
Probable space group: C M M M
;
_chemical_formula_sum "Si O2"
_cell_formula_units_Z 100
_cell_length_a 28.901895
_cell_length_b 9.478211
_cell_length_c 20.500002
_cell_angle_alpha 90.000000
_cell_angle_beta 90.000000
_cell_angle_gamma 90.000000
_cell_volume 5615.734860
_symmetry_space_group_name_H-M "C M M M"
_symmetry_group_IT_number 65
_symmetry_cell_setting 'orthorhombic'
loop_
_space_group_symop_operation_xyz
x,y,z
-x,-y,z
x,-y,-z
-x,y,-z
-x,-y,-z
x,y,-z
-x,y,z
x,-y,z
1/2+x,1/2+y,z
1/2-x,1/2-y,z
1/2+x,1/2-y,-z
1/2-x,1/2+y,-z
1/2-x,1/2-y,-z
1/2+x,1/2+y,-z
1/2-x,1/2+y,z
1/2+x,1/2-y,z
loop_
_atom_site_type_symbol
_atom_site_label
_atom_site_fract_x
_atom_site_fract_y
_atom_site_fract_z
Si Si1 0.888460 0.828109 0.371806
Si Si2 0.447225 0.329503 0.500000
Si Si3 0.947659 0.500000 0.922316
Si Si4 0.110073 0.000000 0.000000
Si Si5 0.891608 0.226063 0.880943
Si Si6 0.702663 0.167164 0.336796
Si Si7 0.552028 0.664678 0.248850
Si Si8 0.703079 0.833564 0.820087
O O1 0.918691 0.792772 0.435303
O O2 0.839931 0.747054 0.370385
O O3 0.917215 0.778459 0.308116
O O4 0.881455 0.000000 0.369382
O O5 0.450194 0.500000 0.500000
O O6 0.500000 0.275408 0.500000
O O7 0.919255 0.364973 0.900868
O O8 0.000000 0.500000 0.895760
O O9 0.950724 0.500000 0.000000
O O10 0.109376 0.121551 0.941934
O O11 0.920115 0.171342 0.818443
O O12 0.840229 0.265962 0.857188
O O13 0.750000 0.250000 0.352218
O O14 0.695968 0.178628 0.258084
O O15 0.705213 0.000000 0.352286
O O16 0.500000 0.725254 0.243787
O O17 0.546831 0.500000 0.264954
O O18 0.750000 0.750000 0.836365
O O19 0.707172 0.000000 0.835504
#
# Coordination Sequence:
#
# PCOD9487447 Si02
#       8
#    16   8   8   4  16  16  16  16
#     4  10  19  34  59  89 120 160 197 249 293 348
#     4   9  18  34  58  89 126 163 204 243 292 351
#     4  11  24  42  63  83 114 160 200 242 303 366
#     4  12  28  38  63  86 118 166 190 246 301 366
#     4  12  22  43  59  86 120 155 197 247 301 358
#     4  10  20  36  58  91 122 152 196 246 299 356
#     4  10  20  34  57  88 117 152 200 248 293 345
#     4  10  22  38  65  91 117 154 199 251 306 364
#
# _framework density 17.807107999999999
#
# number of rings (size 3 to 8) (size 9 to 14) (size 15 to 20)
#    0.000    1.600    4.000    1.440    1.120    2.560 
#    0.000    2.800    1.760    1.920    0.000    0.000 
#    0.000    0.000    0.000    0.000    0.000    0.000 
#
# Total GULP energy -278365.637732 kJ/mol
# GULP energy per Si atom -5567.312755 kJ/mol
# Density = 1.776658 g / cm^3
# Si number density = 17.807108 Si / 1000 Ang^3
#
#
#
# Elastic Constant Matrix: (Units=GPa)
#
#
# Indices 1 2 3 4 5 6 
#
# 1 191.7826 73.1088 74.2381 0.0000 0.0000 0.0000
# 2 73.1088 100.6975 36.3785 0.0000 0.0000 0.0000
# 3 74.2381 36.3785 106.7135 0.0000 0.0000 0.0000
# 4 0.0000 0.0000 0.0000 -154.9114 0.0000 0.0000
# 5 0.0000 0.0000 0.0000 0.0000 14.7510 0.0000
# 6 0.0000 0.0000 0.0000 0.0000 0.0000 28.3375
#
#
#
# Elastic Compliance Matrix: (Units=1/GPa)
#
#
# Indices 1 2 3 4 5 6 
#
# 1 0.008752 -0.004738 -0.004473 0.000000 0.000000 0.000000
# 2 -0.004738 0.013891 -0.001439 0.000000 0.000000 0.000000
# 3 -0.004473 -0.001439 0.012974 0.000000 0.000000 0.000000
# 4 0.000000 0.000000 0.000000 -0.006455 0.000000 0.000000
# 5 0.000000 0.000000 0.000000 0.000000 0.067792 0.000000
# 6 0.000000 0.000000 0.000000 0.000000 0.000000 0.035289
#
#
# Mechanical properties :
#
#
# Convention : Reuss Voigt Hill
#
# Bulk Modulus (GPa) = 69.85687 85.18270 77.51978
# Shear Modulus (GPa) = 31.58261 -8.00004 11.79128
#
# Velocity S-wave (km/s) = 4.21598 -2.12188 2.57605
# Velocity P-wave (km/s) = 7.93815 6.47588 7.24401
#
# Compressibility (1/GPa) = 0.01431498
#
# Stress axis : x y z
#
# Youngs Moduli (GPa) = 114.25861 71.99097 77.08017
#
# Poissons Ratio (x) = 0.34110 0.34481
# Poissons Ratio (y) = 0.54137 0.11092
# Poissons Ratio (z) = 0.51112 0.10360
#
# Static dielectric constant tensor:
#      x y z
#    x 1.613560 0.000000 0.000000 
#    y 0.000000 1.579120 0.000000 
#    z 0.000000 0.000000 1.597040 
# 
# From -- ./inp_files/65986.got.cif
#   From: 2010.05.17/outbox.cif.g08.bks.cpg/sg65_33_cif.got.tgz:65986.got - 2010.06.03 17:01:31.
