data_PCOD9487592
_publ_section_title
;
Structure prediction by ZEFSAII (Michael W. Deem and Ramdas Pophale) SiO2 
 PCOD9487592
Probable space group: C M M M
;
_chemical_formula_sum "Si O2"
_cell_formula_units_Z 80
_cell_length_a 20.293484
_cell_length_b 16.224740
_cell_length_c 12.706570
_cell_angle_alpha 90.000000
_cell_angle_beta 90.000000
_cell_angle_gamma 90.000000
_cell_volume 4183.720785
_symmetry_space_group_name_H-M "C M M M"
_symmetry_group_IT_number 65
_symmetry_cell_setting 'orthorhombic'
loop_
_space_group_symop_operation_xyz
x,y,z
-x,-y,z
x,-y,-z
-x,y,-z
-x,-y,-z
x,y,-z
-x,y,z
x,-y,z
1/2+x,1/2+y,z
1/2-x,1/2-y,z
1/2+x,1/2-y,-z
1/2-x,1/2+y,-z
1/2-x,1/2-y,-z
1/2+x,1/2+y,-z
1/2-x,1/2+y,z
1/2+x,1/2-y,z
loop_
_atom_site_type_symbol
_atom_site_label
_atom_site_fract_x
_atom_site_fract_y
_atom_site_fract_z
Si Si1 0.764145 0.338262 0.694255
Si Si2 0.000000 0.776342 0.874881
Si Si3 0.500000 0.598998 0.302266
Si Si4 0.921835 0.500000 0.829157
Si Si5 0.859937 0.098781 0.617546
Si Si6 0.632859 0.176374 0.880268
Si Si7 0.343208 0.000000 0.619295
O O1 0.750000 0.250000 0.639447
O O2 0.690044 0.371753 0.706805
O O3 0.807745 0.317976 0.796991
O O4 0.800877 0.415723 0.638263
O O5 0.000000 0.860961 0.811964
O O6 0.932793 0.727030 0.847843
O O7 0.000000 0.786853 0.000000
O O8 0.500000 0.500000 0.298201
O O9 0.565941 0.626582 0.361379
O O10 0.890453 0.418472 0.878131
O O11 0.900198 0.500000 0.706612
O O12 0.000000 0.500000 0.842618
O O13 0.838381 0.124590 0.500000
O O14 0.859855 0.000000 0.618097
O O15 0.651139 0.199671 0.000000
O O16 0.366820 0.000000 0.500000
#
# Coordination Sequence:
#
# PCOD9487592 Si02
#       7
#    16   8   8   8  16  16   8
#     4  11  22  37  59  84 115 154 191 236 287 341
#     4  10  20  37  59  82 114 151 185 232 289 338
#     4  10  21  37  59  84 109 141 192 239 284 338
#     4  10  19  35  60  85 114 150 188 232 281 336
#     4  10  20  37  59  82 111 147 187 235 287 339
#     4  10  21  36  59  88 116 149 191 234 283 340
#     4  10  22  38  55  83 118 150 193 237 280 342
#
# _framework density 19.121735999999999
#
# number of rings (size 3 to 8) (size 9 to 14) (size 15 to 20)
#    0.000    1.800    2.000    2.400    0.000    4.000 
#    0.000    1.000    0.000    2.400    0.000    0.000 
#    0.000    0.000    0.000    0.000    0.000    0.000 
#
# Total GULP energy -222913.727854 kJ/mol
# GULP energy per Si atom -5572.843196 kJ/mol
# Density = 1.907821 g / cm^3
# Si number density = 19.121736 Si / 1000 Ang^3
#
#
#
# Elastic Constant Matrix: (Units=GPa)
#
#
# Indices 1 2 3 4 5 6 
#
# 1 127.6919 5.9440 51.4790 0.0000 0.0000 0.0000
# 2 5.9440 57.2989 17.1264 0.0000 0.0000 0.0000
# 3 51.4790 17.1264 87.8375 0.0000 0.0000 0.0000
# 4 0.0000 0.0000 0.0000 16.2576 0.0000 0.0000
# 5 0.0000 0.0000 0.0000 0.0000 17.0963 0.0000
# 6 0.0000 0.0000 0.0000 0.0000 0.0000 15.8568
#
#
#
# Elastic Compliance Matrix: (Units=1/GPa)
#
#
# Indices 1 2 3 4 5 6 
#
# 1 0.010287 0.000780 -0.006181 0.000000 0.000000 0.000000
# 2 0.000780 0.018592 -0.004082 0.000000 0.000000 0.000000
# 3 -0.006181 -0.004082 0.015803 0.000000 0.000000 0.000000
# 4 0.000000 0.000000 0.000000 0.061510 0.000000 0.000000
# 5 0.000000 0.000000 0.000000 0.000000 0.058492 0.000000
# 6 0.000000 0.000000 0.000000 0.000000 0.000000 0.063064
#
#
# Mechanical properties :
#
#
# Convention : Reuss Voigt Hill
#
# Bulk Modulus (GPa) = 38.88673 46.88077 42.88375
# Shear Modulus (GPa) = 19.58590 23.06073 21.32332
#
# Velocity S-wave (km/s) = 3.20390 3.47651 3.34299
# Velocity P-wave (km/s) = 5.83671 6.37849 6.11360
#
# Compressibility (1/GPa) = 0.02571571
#
# Stress axis : x y z
#
# Youngs Moduli (GPa) = 97.21103 53.78777 63.27859
#
# Poissons Ratio (x) = -0.04197 0.39113
# Poissons Ratio (y) = -0.07586 0.25832
# Poissons Ratio (z) = 0.60086 0.21958
#
# Static dielectric constant tensor:
#      x y z
#    x 1.678840 0.000000 0.000000 
#    y 0.000000 1.693410 0.000000 
#    z 0.000000 0.000000 1.665090 
# 
# From -- ./inp_files/28611.got.cif
#   From: 2010.05.17/outbox.cif.g08.bks.cpg/sg65_15_cif.got.tgz:28611.got - 2010.06.03 17:01:31.
