data_PCOD9487152
_publ_section_title
;
Structure prediction by ZEFSAII (Michael W. Deem and Ramdas Pophale) SiO2 
 PCOD9487152
Probable space group: C M M M
;
_chemical_formula_sum "Si O2"
_cell_formula_units_Z 104
_cell_length_a 20.564330
_cell_length_b 32.590468
_cell_length_c 9.230714
_cell_angle_alpha 90.000000
_cell_angle_beta 90.000000
_cell_angle_gamma 90.000000
_cell_volume 6186.435035
_symmetry_space_group_name_H-M "C M M M"
_symmetry_group_IT_number 65
_symmetry_cell_setting 'orthorhombic'
loop_
_space_group_symop_operation_xyz
x,y,z
-x,-y,z
x,-y,-z
-x,y,-z
-x,-y,-z
x,y,-z
-x,y,z
x,-y,z
1/2+x,1/2+y,z
1/2-x,1/2-y,z
1/2+x,1/2-y,-z
1/2-x,1/2+y,-z
1/2-x,1/2-y,-z
1/2+x,1/2+y,-z
1/2-x,1/2+y,z
1/2+x,1/2-y,z
loop_
_atom_site_type_symbol
_atom_site_label
_atom_site_fract_x
_atom_site_fract_y
_atom_site_fract_z
Si Si1 0.292665 0.953202 0.168817
Si Si2 0.075183 0.217823 0.826963
Si Si3 0.669663 0.655089 0.673600
Si Si4 0.423512 0.500000 0.661742
Si Si5 0.641660 0.571831 0.167951
Si Si6 0.925122 0.684735 0.827810
Si Si7 0.182747 0.630793 0.672912
O O1 0.214756 0.946545 0.172801
O O2 0.319600 0.915092 0.260483
O O3 0.307439 0.000000 0.216760
O O4 0.312585 0.949322 0.000000
O O5 0.129626 0.192673 0.741179
O O6 0.082782 0.266545 0.801479
O O7 0.000000 0.206809 0.788031
O O8 0.082127 0.210757 0.000000
O O9 0.662940 0.654620 0.500000
O O10 0.640766 0.614304 0.746491
O O11 0.746959 0.651660 0.707864
O O12 0.500000 0.500000 0.648005
O O13 0.393634 0.500000 0.500000
O O14 0.402469 0.539473 0.751032
O O15 0.624122 0.577559 0.000000
O O16 0.874038 0.658225 0.739496
O O17 0.000000 0.674169 0.792764
O O18 0.915760 0.678100 0.000000
O O19 0.178069 0.628340 0.500000
#
# Coordination Sequence:
#
# PCOD9487152 Si02
#       7
#    16  16  16   8  16  16  16
#     4   9  17  32  54  78 102 131 170 213 256 305
#     4   9  19  36  56  77 101 136 183 226 266 314
#     4  10  21  35  51  77 110 141 174 216 267 318
#     4  11  23  35  47  67  97 133 172 215 266 319
#     4  10  19  34  53  72  95 129 174 219 261 305
#     4   9  19  37  59  80 104 137 177 219 263 315
#     4  10  21  34  51  81 113 141 174 212 262 318
#
# _framework density 16.810974000000002
#
# number of rings (size 3 to 8) (size 9 to 14) (size 15 to 20)
#    0.000    2.385    0.769    2.538    0.000    5.846 
#    0.000    4.615    0.000    0.462    0.000    3.231 
#    0.000    0.000    0.000    0.000    0.000    0.000 
#
# Total GULP energy -289961.107129 kJ/mol
# GULP energy per Si atom -5576.175137 kJ/mol
# Density = 1.677271 g / cm^3
# Si number density = 16.810974 Si / 1000 Ang^3
#
#
#
# Elastic Constant Matrix: (Units=GPa)
#
#
# Indices 1 2 3 4 5 6 
#
# 1 90.7082 78.4185 70.0773 0.0000 0.0000 0.0000
# 2 78.4185 108.7317 70.6616 0.0000 0.0000 0.0000
# 3 70.0773 70.6616 85.7785 0.0000 0.0000 0.0000
# 4 0.0000 0.0000 0.0000 137.0308 0.0000 0.0000
# 5 0.0000 0.0000 0.0000 0.0000 28.4346 0.0000
# 6 0.0000 0.0000 0.0000 0.0000 0.0000 23.7310
#
#
#
# Elastic Compliance Matrix: (Units=1/GPa)
#
#
# Indices 1 2 3 4 5 6 
#
# 1 0.040025 -0.016392 -0.019196 0.000000 0.000000 0.000000
# 2 -0.016392 0.026506 -0.008444 0.000000 0.000000 0.000000
# 3 -0.019196 -0.008444 0.034295 0.000000 0.000000 0.000000
# 4 0.000000 0.000000 0.000000 0.007298 0.000000 0.000000
# 5 0.000000 0.000000 0.000000 0.000000 0.035168 0.000000
# 6 0.000000 0.000000 0.000000 0.000000 0.000000 0.042139
#
#
# Mechanical properties :
#
#
# Convention : Reuss Voigt Hill
#
# Bulk Modulus (GPa) = 78.34134 80.39258 79.36696
# Shear Modulus (GPa) = 18.00188 42.24334 30.12261
#
# Velocity S-wave (km/s) = 3.27592 5.01826 4.23761
# Velocity P-wave (km/s) = 7.81098 9.02788 8.44139
#
# Compressibility (1/GPa) = 0.01276465
#
# Stress axis : x y z
#
# Youngs Moduli (GPa) = 24.98433 37.72711 29.15837
#
# Poissons Ratio (x) = 0.61842 0.55971
# Poissons Ratio (y) = 0.40954 0.24620
# Poissons Ratio (z) = 0.47959 0.31855
#
# Static dielectric constant tensor:
#      x y z
#    x 1.553960 0.000000 0.000000 
#    y 0.000000 1.576440 0.000000 
#    z 0.000000 0.000000 1.561190 
# 
# From -- ./inp_files/12846.got.cif
#   From: 2010.05.17/outbox.cif.g08.bks.cpg/sg65_7_cif.got.tgz:12846.got - 2010.06.03 17:01:31.
