data_PCOD9487226
_publ_section_title
;
Structure prediction by ZEFSAII (Michael W. Deem and Ramdas Pophale) SiO2 
 PCOD9487226
Probable space group: C M M M
;
_chemical_formula_sum "Si O2"
_cell_formula_units_Z 88
_cell_length_a 26.353954
_cell_length_b 7.564994
_cell_length_c 21.549231
_cell_angle_alpha 90.000000
_cell_angle_beta 90.000000
_cell_angle_gamma 90.000000
_cell_volume 4296.216395
_symmetry_space_group_name_H-M "C M M M"
_symmetry_group_IT_number 65
_symmetry_cell_setting 'orthorhombic'
loop_
_space_group_symop_operation_xyz
x,y,z
-x,-y,z
x,-y,-z
-x,y,-z
-x,-y,-z
x,y,-z
-x,y,z
x,-y,z
1/2+x,1/2+y,z
1/2-x,1/2-y,z
1/2+x,1/2-y,-z
1/2-x,1/2+y,-z
1/2-x,1/2-y,-z
1/2+x,1/2+y,-z
1/2-x,1/2+y,z
1/2+x,1/2-y,z
loop_
_atom_site_type_symbol
_atom_site_label
_atom_site_fract_x
_atom_site_fract_y
_atom_site_fract_z
Si Si1 0.500000 0.785888 0.846919
Si Si2 0.000000 0.205043 0.702163
Si Si3 0.440914 0.217318 0.500000
Si Si4 0.398994 0.206086 0.369915
Si Si5 0.307229 0.788287 0.145619
Si Si6 0.404369 0.783631 0.929105
Si Si7 0.307594 0.212440 0.712879
O O1 0.500000 0.725510 0.776090
O O2 0.450293 0.728625 0.884645
O O3 0.500000 0.000000 0.845476
O O4 0.050845 0.284684 0.672636
O O5 0.000000 0.000000 0.685524
O O6 0.500000 0.270047 0.500000
O O7 0.413645 0.279404 0.437256
O O8 0.441183 0.000000 0.500000
O O9 0.351125 0.282520 0.332664
O O10 0.387079 0.000000 0.380519
O O11 0.250000 0.750000 0.124871
O O12 0.351216 0.723915 0.100333
O O13 0.313356 0.720215 0.216291
O O14 0.312348 0.000000 0.148502
O O15 0.404628 0.000000 0.929804
O O16 0.411044 0.726103 0.000000
O O17 0.250000 0.250000 0.692700
O O18 0.313334 0.000000 0.716022
#
# Coordination Sequence:
#
# PCOD9487226 Si02
#       7
#     8   8   8  16  16  16  16
#     4  10  19  34  55  75  98 131 169 207 254 312
#     4  12  24  34  50  79 109 135 168 217 268 307
#     4   9  16  30  55  82 104 132 174 220 255 296
#     4  10  19  35  57  79 104 138 178 213 254 310
#     4   9  17  30  47  70  98 128 164 206 251 294
#     4   9  17  30  51  77 100 124 163 213 256 299
#     4   9  18  32  52  75 102 137 174 214 256 301
#
# _framework density 20.483139000000001
#
# number of rings (size 3 to 8) (size 9 to 14) (size 15 to 20)
#    0.000    2.455    0.909    2.182    0.000    5.091 
#    0.000    5.909    0.000    2.182    0.000    0.000 
#    0.000    0.000    0.000    0.000    0.000    0.000 
#
# Total GULP energy -245679.084765 kJ/mol
# GULP energy per Si atom -5583.615563 kJ/mol
# Density = 2.043652 g / cm^3
# Si number density = 20.483139 Si / 1000 Ang^3
#
#
#
# Elastic Constant Matrix: (Units=GPa)
#
#
# Indices 1 2 3 4 5 6 
#
# 1 120.6421 -15.7984 80.1883 0.0000 0.0000 0.0000
# 2 -15.7984 45.8988 -9.9370 0.0000 0.0000 0.0000
# 3 80.1883 -9.9370 148.9409 0.0000 0.0000 0.0000
# 4 0.0000 0.0000 0.0000 -52.5754 0.0000 0.0000
# 5 0.0000 0.0000 0.0000 0.0000 -74.6547 0.0000
# 6 0.0000 0.0000 0.0000 0.0000 0.0000 16.0299
#
#
#
# Elastic Compliance Matrix: (Units=1/GPa)
#
#
# Indices 1 2 3 4 5 6 
#
# 1 0.013323 0.003077 -0.006968 0.000000 0.000000 0.000000
# 2 0.003077 0.022817 -0.000135 0.000000 0.000000 0.000000
# 3 -0.006968 -0.000135 0.010457 0.000000 0.000000 0.000000
# 4 0.000000 0.000000 0.000000 -0.019020 0.000000 0.000000
# 5 0.000000 0.000000 0.000000 0.000000 -0.013395 0.000000
# 6 0.000000 0.000000 0.000000 0.000000 0.000000 0.062383
#
#
# Mechanical properties :
#
#
# Convention : Reuss Voigt Hill
#
# Bulk Modulus (GPa) = 25.94231 47.15419 36.54825
# Shear Modulus (GPa) = 51.30090 -4.83811 23.23139
#
# Velocity S-wave (km/s) = 5.00997 -1.53855 3.37140
# Velocity P-wave (km/s) = 6.79405 4.46260 5.74778
#
# Compressibility (1/GPa) = 0.03854708
#
# Stress axis : x y z
#
# Youngs Moduli (GPa) = 75.05618 43.82663 95.63414
#
# Poissons Ratio (x) = -0.13487 0.66636
# Poissons Ratio (y) = -0.23098 0.01287
# Poissons Ratio (z) = 0.52298 0.00590
#
# Static dielectric constant tensor:
#      x y z
#    x 1.700300 0.000000 0.000000 
#    y 0.000000 1.782690 0.000000 
#    z 0.000000 0.000000 1.709700 
# 
# From -- ./inp_files/65206.got.cif
#   From: 2010.05.17/outbox.cif.g08.bks.cpg/sg65_33_cif.got.tgz:65206.got - 2010.06.03 17:01:31.
