data_PCOD9487848
_publ_section_title
;
Structure prediction by ZEFSAII (Michael W. Deem and Ramdas Pophale) SiO2 
 PCOD9487848
Probable space group: C M M M
;
_chemical_formula_sum "Si O2"
_cell_formula_units_Z 96
_cell_length_a 19.869037
_cell_length_b 31.033657
_cell_length_c 7.519188
_cell_angle_alpha 90.000000
_cell_angle_beta 90.000000
_cell_angle_gamma 90.000000
_cell_volume 4636.398085
_symmetry_space_group_name_H-M "C M M M"
_symmetry_group_IT_number 65
_symmetry_cell_setting 'orthorhombic'
loop_
_space_group_symop_operation_xyz
x,y,z
-x,-y,z
x,-y,-z
-x,y,-z
-x,-y,-z
x,y,-z
-x,y,z
x,-y,z
1/2+x,1/2+y,z
1/2-x,1/2-y,z
1/2+x,1/2-y,-z
1/2-x,1/2+y,-z
1/2-x,1/2-y,-z
1/2+x,1/2+y,-z
1/2-x,1/2+y,z
1/2+x,1/2-y,z
loop_
_atom_site_type_symbol
_atom_site_label
_atom_site_fract_x
_atom_site_fract_y
_atom_site_fract_z
Si Si1 0.424046 0.122570 0.710863
Si Si2 0.329195 0.451159 0.714250
Si Si3 0.671496 0.201569 0.786013
Si Si4 0.924454 0.127481 0.210658
Si Si5 0.677193 0.950397 0.282847
Si Si6 0.676420 0.299914 0.782445
O O1 0.429403 0.114960 0.500000
O O2 0.500000 0.123866 0.783262
O O3 0.384236 0.167264 0.732630
O O4 0.377278 0.083927 0.782137
O O5 0.327757 0.451861 0.500000
O O6 0.342858 0.500000 0.774999
O O7 0.384890 0.417103 0.768067
O O8 0.253459 0.439030 0.773707
O O9 0.659957 0.250922 0.728110
O O10 0.747143 0.189311 0.726166
O O11 0.672589 0.202087 0.000000
O O12 0.877296 0.165562 0.282930
O O13 0.000000 0.126269 0.284091
O O14 0.929880 0.135430 0.000000
O O15 0.677012 0.949622 0.500000
O O16 0.663637 0.000000 0.231067
O O17 0.676656 0.300484 0.000000
#
# Coordination Sequence:
#
# PCOD9487848 Si02
#       6
#    16  16  16  16  16  16
#     4  10  20  31  45  71 104 129 152 191 238 279
#     4   9  18  33  52  71  91 119 157 198 235 274
#     4   9  17  32  54  73  91 122 162 198 233 278
#     4  10  20  32  47  69  97 126 154 188 232 280
#     4   8  15  30  51  71  91 121 161 197 230 274
#     4   8  16  32  52  73  94 119 158 202 235 270
#
# _framework density 20.705729000000002
#
# number of rings (size 3 to 8) (size 9 to 14) (size 15 to 20)
#    0.000    3.000    0.000    3.000    0.000    2.333 
#    0.000    7.500    0.000    1.500    0.000    1.167 
#    0.000    0.000    0.000    0.000    0.000    0.000 
#
# Total GULP energy -267876.721114 kJ/mol
# GULP energy per Si atom -5580.765023 kJ/mol
# Density = 2.065860 g / cm^3
# Si number density = 20.705729 Si / 1000 Ang^3
#
#
#
# Elastic Constant Matrix: (Units=GPa)
#
#
# Indices 1 2 3 4 5 6 
#
# 1 209.8827 134.2592 5.4813 0.0000 0.0000 0.0000
# 2 134.2592 130.3987 -2.5546 0.0000 0.0000 0.0000
# 3 5.4813 -2.5546 51.4238 0.0000 0.0000 0.0000
# 4 0.0000 0.0000 0.0000 14.8072 0.0000 0.0000
# 5 0.0000 0.0000 0.0000 0.0000 -30.9519 0.0000
# 6 0.0000 0.0000 0.0000 0.0000 0.0000 -14.9800
#
#
#
# Elastic Compliance Matrix: (Units=1/GPa)
#
#
# Indices 1 2 3 4 5 6 
#
# 1 0.014211 -0.014676 -0.002244 0.000000 0.000000 0.000000
# 2 -0.014676 0.022832 0.002699 0.000000 0.000000 0.000000
# 3 -0.002244 0.002699 0.019819 0.000000 0.000000 0.000000
# 4 0.000000 0.000000 0.000000 0.067535 0.000000 0.000000
# 5 0.000000 0.000000 0.000000 0.000000 -0.032308 0.000000
# 6 0.000000 0.000000 0.000000 0.000000 0.000000 -0.066756
#
#
# Mechanical properties :
#
#
# Convention : Reuss Voigt Hill
#
# Bulk Modulus (GPa) = 35.18606 74.00856 54.59731
# Shear Modulus (GPa) = 79.05345 10.74303 44.89824
#
# Velocity S-wave (km/s) = 6.18566 2.28028 4.66166
# Velocity P-wave (km/s) = 8.24905 6.53862 7.44313
#
# Compressibility (1/GPa) = 0.02842035
#
# Stress axis : x y z
#
# Youngs Moduli (GPa) = 70.36796 43.79852 50.45539
#
# Poissons Ratio (x) = 0.64277 0.11321
# Poissons Ratio (y) = 1.03270 -0.13615
# Poissons Ratio (z) = 0.15789 -0.11819
#
# Static dielectric constant tensor:
#      x y z
#    x 1.726610 0.000000 0.000000 
#    y 0.000000 1.712520 0.000000 
#    z 0.000000 0.000000 1.837900 
# 
# From -- ./inp_files/12302.got.cif
#   From: 2010.05.17/outbox.cif.g08.bks.cpg/sg65_7_cif.got.tgz:12302.got - 2010.06.03 17:01:31.
