data_PCOD9487282
_publ_section_title
;
Structure prediction by ZEFSAII (Michael W. Deem and Ramdas Pophale) SiO2 
 PCOD9487282
Probable space group: C M M M
;
_chemical_formula_sum "Si O2"
_cell_formula_units_Z 104
_cell_length_a 28.059879
_cell_length_b 22.928494
_cell_length_c 7.751363
_cell_angle_alpha 90.000000
_cell_angle_beta 90.000000
_cell_angle_gamma 90.000000
_cell_volume 4987.000361
_symmetry_space_group_name_H-M "C M M M"
_symmetry_group_IT_number 65
_symmetry_cell_setting 'orthorhombic'
loop_
_space_group_symop_operation_xyz
x,y,z
-x,-y,z
x,-y,-z
-x,y,-z
-x,-y,-z
x,y,-z
-x,y,z
x,-y,z
1/2+x,1/2+y,z
1/2-x,1/2-y,z
1/2+x,1/2-y,-z
1/2-x,1/2+y,-z
1/2-x,1/2-y,-z
1/2+x,1/2+y,-z
1/2-x,1/2+y,z
1/2+x,1/2-y,z
loop_
_atom_site_type_symbol
_atom_site_label
_atom_site_fract_x
_atom_site_fract_y
_atom_site_fract_z
Si Si1 0.311360 0.066763 0.210979
Si Si2 0.054264 0.767615 0.794041
Si Si3 0.196963 0.772410 0.304661
Si Si4 0.205298 0.099659 0.194824
Si Si5 0.874771 0.673290 0.201431
Si Si6 0.898045 0.887738 0.697438
Si Si7 0.444094 0.500000 0.298150
O O1 0.256873 0.081347 0.267304
O O2 0.350080 0.114408 0.273329
O O3 0.322623 0.000000 0.256980
O O4 0.310251 0.070892 0.000000
O O5 0.079489 0.708295 0.724920
O O6 0.088625 0.823900 0.768877
O O7 0.000000 0.777096 0.729445
O O8 0.051293 0.760309 0.000000
O O9 0.178418 0.785619 0.500000
O O10 0.250000 0.750000 0.323446
O O11 0.202307 0.830429 0.195109
O O12 0.165839 0.722498 0.219038
O O13 0.156119 0.088438 0.292605
O O14 0.201850 0.076445 0.000000
O O15 0.884600 0.661261 0.000000
O O16 0.912986 0.882113 0.500000
O O17 0.927182 0.939800 0.783902
O O18 0.500000 0.500000 0.303479
O O19 0.426661 0.500000 0.500000
#
# Coordination Sequence:
#
# PCOD9487282 Si02
#       7
#    16  16  16  16  16  16   8
#     4   9  19  34  53  78 106 144 190 225 260 319
#     4  10  21  36  55  81 109 137 176 229 282 328
#     4  11  21  32  50  78 110 138 169 215 261 312
#     4  11  21  33  52  77 108 143 178 219 266 315
#     4  10  19  34  56  77 105 144 180 221 272 324
#     4  11  22  36  55  79 107 144 184 226 273 322
#     4   9  20  38  55  71  99 143 191 231 272 323
#
# _framework density 20.854220000000002
#
# number of rings (size 3 to 8) (size 9 to 14) (size 15 to 20)
#    0.000    1.769    3.077    1.846    1.077    1.538 
#    0.000    1.154    0.000    5.538    0.000    3.231 
#    0.000    0.000    0.000    2.769    0.000    3.077 
#
# Total GULP energy -289751.094685 kJ/mol
# GULP energy per Si atom -5572.136436 kJ/mol
# Density = 2.080675 g / cm^3
# Si number density = 20.854220 Si / 1000 Ang^3
#
#
#
# Elastic Constant Matrix: (Units=GPa)
#
#
# Indices 1 2 3 4 5 6 
#
# 1 97.4321 53.2806 2.3799 0.0000 0.0000 0.0000
# 2 53.2806 146.8717 1.8458 0.0000 0.0000 0.0000
# 3 2.3799 1.8458 39.3701 0.0000 0.0000 0.0000
# 4 0.0000 0.0000 0.0000 9.3697 0.0000 0.0000
# 5 0.0000 0.0000 0.0000 0.0000 13.1260 0.0000
# 6 0.0000 0.0000 0.0000 0.0000 0.0000 28.9651
#
#
#
# Elastic Compliance Matrix: (Units=1/GPa)
#
#
# Indices 1 2 3 4 5 6 
#
# 1 0.012816 -0.004642 -0.000557 0.000000 0.000000 0.000000
# 2 -0.004642 0.008494 -0.000118 0.000000 0.000000 0.000000
# 3 -0.000557 -0.000118 0.025439 0.000000 0.000000 0.000000
# 4 0.000000 0.000000 0.000000 0.106726 0.000000 0.000000
# 5 0.000000 0.000000 0.000000 0.000000 0.076185 0.000000
# 6 0.000000 0.000000 0.000000 0.000000 0.000000 0.034524
#
#
# Mechanical properties :
#
#
# Convention : Reuss Voigt Hill
#
# Bulk Modulus (GPa) = 27.68904 44.29851 35.99377
# Shear Modulus (GPa) = 17.43030 25.37001 21.40015
#
# Velocity S-wave (km/s) = 2.89419 3.49168 3.20688
# Velocity P-wave (km/s) = 4.94719 6.12730 5.56860
#
# Compressibility (1/GPa) = 0.03611537
#
# Stress axis : x y z
#
# Youngs Moduli (GPa) = 78.02917 117.72775 39.30948
#
# Poissons Ratio (x) = 0.54651 0.02190
# Poissons Ratio (y) = 0.36222 0.00462
# Poissons Ratio (z) = 0.04347 0.01385
#
# Static dielectric constant tensor:
#      x y z
#    x 1.846880 0.000000 0.000000 
#    y 0.000000 2.019430 0.000000 
#    z 0.000000 0.000000 1.799900 
# 
# From -- ./inp_files/18602.got.cif
#   From: 2010.05.17/outbox.cif.g08.bks.cpg/sg65_10_cif.got.tgz:18602.got - 2010.06.03 17:01:31.
