data_PCOD9487259
_publ_section_title
;
Structure prediction by ZEFSAII (Michael W. Deem and Ramdas Pophale) SiO2 
 PCOD9487259
Probable space group: C M M M
;
_chemical_formula_sum "Si O2"
_cell_formula_units_Z 104
_cell_length_a 24.411549
_cell_length_b 26.445865
_cell_length_c 8.561528
_cell_angle_alpha 90.000000
_cell_angle_beta 90.000000
_cell_angle_gamma 90.000000
_cell_volume 5527.190024
_symmetry_space_group_name_H-M "C M M M"
_symmetry_group_IT_number 65
_symmetry_cell_setting 'orthorhombic'
loop_
_space_group_symop_operation_xyz
x,y,z
-x,-y,z
x,-y,-z
-x,y,-z
-x,-y,-z
x,y,-z
-x,y,z
x,-y,z
1/2+x,1/2+y,z
1/2-x,1/2-y,z
1/2+x,1/2-y,-z
1/2-x,1/2+y,-z
1/2-x,1/2-y,-z
1/2+x,1/2+y,-z
1/2-x,1/2+y,z
1/2+x,1/2-y,z
loop_
_atom_site_type_symbol
_atom_site_label
_atom_site_fract_x
_atom_site_fract_y
_atom_site_fract_z
Si Si1 0.221471 0.394804 0.177885
Si Si2 0.209500 0.791922 0.820505
Si Si3 0.000000 0.319809 0.686024
Si Si4 0.934728 0.500000 0.820793
Si Si5 0.670559 0.557001 0.810228
Si Si6 0.391667 0.345313 0.315853
Si Si7 0.598153 0.110496 0.190684
Si Si8 0.500000 0.294489 0.184825
O O1 0.255111 0.342882 0.172159
O O2 0.266839 0.432722 0.247498
O O3 0.161327 0.383197 0.242226
O O4 0.211169 0.412947 0.000000
O O5 0.250000 0.750000 0.754263
O O6 0.155425 0.804520 0.725582
O O7 0.194711 0.777595 0.000000
O O8 0.053955 0.349558 0.747096
O O9 0.000000 0.321202 0.500000
O O10 0.000000 0.261568 0.740795
O O11 0.916761 0.553703 0.754126
O O12 0.000000 0.500000 0.824011
O O13 0.914009 0.500000 0.000000
O O14 0.653734 0.500000 0.770058
O O15 0.631233 0.601018 0.747118
O O16 0.671518 0.561543 0.000000
O O17 0.399439 0.348679 0.500000
O O18 0.446831 0.326027 0.236462
O O19 0.594536 0.113053 0.000000
O O20 0.500000 0.288098 0.000000
#
# Coordination Sequence:
#
# PCOD9487259 Si02
#       8
#    16  16   8   8  16  16  16   8
#     4   8  16  29  51  84 114 144 192 246 287 330
#     4   9  18  34  56  84 116 155 202 243 283 342
#     4  12  26  41  55  81 116 152 194 249 308 364
#     4   9  16  28  48  76 106 140 196 257 294 333
#     4   9  18  36  62  92 124 159 199 243 291 350
#     4  11  23  40  61  91 126 157 193 242 306 365
#     4  10  19  34  55  80 109 152 204 251 298 346
#     4  12  26  46  70  88 112 154 201 248 298 355
#
# _framework density 18.816071999999998
#
# number of rings (size 3 to 8) (size 9 to 14) (size 15 to 20)
#    0.000    2.231    0.769    3.692    3.231    0.615 
#    0.000    4.231    0.000    2.308    0.000    0.000 
#    0.000    0.000    0.000    0.000    0.000    0.000 
#
# Total GULP energy -289859.091662 kJ/mol
# GULP energy per Si atom -5574.213301 kJ/mol
# Density = 1.877325 g / cm^3
# Si number density = 18.816072 Si / 1000 Ang^3
#
#
#
# Elastic Constant Matrix: (Units=GPa)
#
#
# Indices 1 2 3 4 5 6 
#
# 1 141.2549 61.3090 34.6494 0.0000 0.0000 0.0000
# 2 61.3090 100.9513 27.6936 0.0000 0.0000 0.0000
# 3 34.6494 27.6936 61.7058 0.0000 0.0000 0.0000
# 4 0.0000 0.0000 0.0000 2.1735 0.0000 0.0000
# 5 0.0000 0.0000 0.0000 0.0000 -49.6988 0.0000
# 6 0.0000 0.0000 0.0000 0.0000 0.0000 6.6670
#
#
#
# Elastic Compliance Matrix: (Units=1/GPa)
#
#
# Indices 1 2 3 4 5 6 
#
# 1 0.010189 -0.005267 -0.003358 0.000000 0.000000 0.000000
# 2 -0.005267 0.014019 -0.003334 0.000000 0.000000 0.000000
# 3 -0.003358 -0.003334 0.019588 0.000000 0.000000 0.000000
# 4 0.000000 0.000000 0.000000 0.460089 0.000000 0.000000
# 5 0.000000 0.000000 0.000000 0.000000 -0.020121 0.000000
# 6 0.000000 0.000000 0.000000 0.000000 0.000000 0.149993
#
#
# Mechanical properties :
#
#
# Convention : Reuss Voigt Hill
#
# Bulk Modulus (GPa) = 50.30610 61.24622 55.77616
# Shear Modulus (GPa) = 7.52671 3.84567 5.68619
#
# Velocity S-wave (km/s) = 2.00221 1.43117 1.74027
# Velocity P-wave (km/s) = 5.66911 5.94572 5.80907
#
# Compressibility (1/GPa) = 0.01987830
#
# Stress axis : x y z
#
# Youngs Moduli (GPa) = 98.14528 71.33152 51.05230
#
# Poissons Ratio (x) = 0.37569 0.17141
# Poissons Ratio (y) = 0.51691 0.17022
# Poissons Ratio (z) = 0.32954 0.23784
#
# Static dielectric constant tensor:
#      x y z
#    x 1.653240 0.000000 0.000000 
#    y 0.000000 1.662480 0.000000 
#    z 0.000000 0.000000 1.658140 
# 
# From -- ./inp_files/12458.got.cif
#   From: 2010.05.17/outbox.cif.g08.bks.cpg/sg65_7_cif.got.tgz:12458.got - 2010.06.03 17:01:31.
