data_PCOD9487015
_publ_section_title
;
Structure prediction by ZEFSAII (Michael W. Deem and Ramdas Pophale) SiO2 
 PCOD9487015
Probable space group: C M M M
;
_chemical_formula_sum "Si O2"
_cell_formula_units_Z 88
_cell_length_a 8.285265
_cell_length_b 18.780630
_cell_length_c 29.499028
_cell_angle_alpha 90.000000
_cell_angle_beta 90.000000
_cell_angle_gamma 90.000000
_cell_volume 4590.122399
_symmetry_space_group_name_H-M "C M M M"
_symmetry_group_IT_number 65
_symmetry_cell_setting 'orthorhombic'
loop_
_space_group_symop_operation_xyz
x,y,z
-x,-y,z
x,-y,-z
-x,y,-z
-x,-y,-z
x,y,-z
-x,y,z
x,-y,z
1/2+x,1/2+y,z
1/2-x,1/2-y,z
1/2+x,1/2-y,-z
1/2-x,1/2+y,-z
1/2-x,1/2-y,-z
1/2+x,1/2+y,-z
1/2-x,1/2+y,z
1/2+x,1/2-y,z
loop_
_atom_site_type_symbol
_atom_site_label
_atom_site_fract_x
_atom_site_fract_y
_atom_site_fract_z
Si Si1 0.695103 0.668613 0.450067
Si Si2 0.195045 0.831627 0.000000
Si Si3 0.697364 0.417630 0.089270
Si Si4 0.194969 0.917845 0.637125
Si Si5 0.192759 0.582111 0.264490
Si Si6 0.692757 0.668804 0.822295
O O1 0.747413 0.641781 0.500000
O O2 0.500000 0.666411 0.449510
O O3 0.750000 0.750000 0.446362
O O4 0.753740 0.625121 0.406598
O O5 0.250000 0.750000 0.000000
O O6 0.249119 0.873887 0.955105
O O7 0.000000 0.832104 0.000000
O O8 0.500000 0.418097 0.089318
O O9 0.749254 0.500000 0.088236
O O10 0.751932 0.377078 0.134604
O O11 0.253193 0.891187 0.686000
O O12 0.000000 0.916213 0.637190
O O13 0.247101 0.000000 0.633389
O O14 0.252459 0.500000 0.259356
O O15 0.254092 0.630749 0.223894
O O16 0.000000 0.580699 0.263236
O O17 0.500000 0.668794 0.823899
O O18 0.750000 0.750000 0.824726
#
# Coordination Sequence:
#
# PCOD9487015 Si02
#       6
#    16   8  16  16  16  16
#     4   9  18  32  50  73 101 133 168 207 253 305
#     4  10  19  33  55  81 111 142 174 216 262 310
#     4   9  18  33  55  81 106 138 180 220 259 309
#     4   9  18  33  53  76 102 134 172 213 257 306
#     4  10  21  37  56  78 105 137 174 217 265 316
#     4  11  22  36  55  79 108 140 177 220 265 315
#
# _framework density 19.171600999999999
#
# number of rings (size 3 to 8) (size 9 to 14) (size 15 to 20)
#    0.000    2.364    0.000    2.455    0.000    4.727 
#    0.000    4.545    0.000    3.273    0.000    5.091 
#    0.000    0.000    0.000    0.000    0.000    0.000 
#
# Total GULP energy -245593.528793 kJ/mol
# GULP energy per Si atom -5581.671109 kJ/mol
# Density = 1.912797 g / cm^3
# Si number density = 19.171601 Si / 1000 Ang^3
#
#
#
# Elastic Constant Matrix: (Units=GPa)
#
#
# Indices 1 2 3 4 5 6 
#
# 1 14.9575 14.2258 24.3604 0.0000 0.0000 0.0000
# 2 14.2258 139.2760 124.4689 0.0000 0.0000 0.0000
# 3 24.3604 124.4689 236.5432 0.0000 0.0000 0.0000
# 4 0.0000 0.0000 0.0000 43.3902 0.0000 0.0000
# 5 0.0000 0.0000 0.0000 0.0000 8.2896 0.0000
# 6 0.0000 0.0000 0.0000 0.0000 0.0000 23.8613
#
#
#
# Elastic Compliance Matrix: (Units=1/GPa)
#
#
# Indices 1 2 3 4 5 6 
#
# 1 0.080503 -0.001536 -0.007483 0.000000 0.000000 0.000000
# 2 -0.001536 0.013583 -0.006989 0.000000 0.000000 0.000000
# 3 -0.007483 -0.006989 0.008676 0.000000 0.000000 0.000000
# 4 0.000000 0.000000 0.000000 0.023047 0.000000 0.000000
# 5 0.000000 0.000000 0.000000 0.000000 0.120634 0.000000
# 6 0.000000 0.000000 0.000000 0.000000 0.000000 0.041909
#
#
# Mechanical properties :
#
#
# Convention : Reuss Voigt Hill
#
# Bulk Modulus (GPa) = 14.13485 79.65410 46.89447
# Shear Modulus (GPa) = 14.53707 30.28966 22.41336
#
# Velocity S-wave (km/s) = 2.75664 3.97914 3.42291
# Velocity P-wave (km/s) = 4.18580 7.92146 6.33524
#
# Compressibility (1/GPa) = 0.07074714
#
# Stress axis : x y z
#
# Youngs Moduli (GPa) = 12.42189 73.62150 115.26208
#
# Poissons Ratio (x) = 0.11305 0.86246
# Poissons Ratio (y) = 0.01907 0.80559
# Poissons Ratio (z) = 0.09295 0.51456
#
# Static dielectric constant tensor:
#      x y z
#    x 1.668490 0.000000 0.000000 
#    y 0.000000 1.670640 0.000000 
#    z 0.000000 0.000000 1.665800 
# 
# From -- ./inp_files/76544.got.cif
#   From: 2010.05.17/outbox.cif.g08.bks.cpg/sg65_39_cif.got.tgz:76544.got - 2010.06.03 17:01:31.
