data_PCOD9487043
_publ_section_title
;
Structure prediction by ZEFSAII (Michael W. Deem and Ramdas Pophale) SiO2 
 PCOD9487043
Probable space group: C M M M
;
_chemical_formula_sum "Si O2"
_cell_formula_units_Z 64
_cell_length_a 18.906925
_cell_length_b 10.807671
_cell_length_c 16.946060
_cell_angle_alpha 90.000000
_cell_angle_beta 90.000000
_cell_angle_gamma 90.000000
_cell_volume 3462.754935
_symmetry_space_group_name_H-M "C M M M"
_symmetry_group_IT_number 65
_symmetry_cell_setting 'orthorhombic'
loop_
_space_group_symop_operation_xyz
x,y,z
-x,-y,z
x,-y,-z
-x,y,-z
-x,-y,-z
x,y,-z
-x,y,z
x,-y,z
1/2+x,1/2+y,z
1/2-x,1/2-y,z
1/2+x,1/2-y,-z
1/2-x,1/2+y,-z
1/2-x,1/2-y,-z
1/2+x,1/2+y,-z
1/2-x,1/2+y,z
1/2+x,1/2-y,z
loop_
_atom_site_type_symbol
_atom_site_label
_atom_site_fract_x
_atom_site_fract_y
_atom_site_fract_z
Si Si1 0.083587 0.251156 0.184426
Si Si2 0.414335 0.000000 0.910579
Si Si3 0.200705 0.134911 0.906963
Si Si4 0.688256 0.146916 0.500000
Si Si5 0.918366 0.645733 0.354801
O O1 0.103087 0.376261 0.136740
O O2 0.131112 0.146705 0.145696
O O3 0.096926 0.275647 0.276628
O O4 0.000000 0.229698 0.174423
O O5 0.500000 0.000000 0.915654
O O6 0.385876 0.000000 0.000000
O O7 0.250000 0.250000 0.885917
O O8 0.234450 0.000000 0.895253
O O9 0.183111 0.146358 0.000000
O O10 0.750000 0.250000 0.500000
O O11 0.637761 0.165117 0.576082
O O12 0.711044 0.000000 0.500000
O O13 0.915948 0.500000 0.332503
O O14 0.000000 0.669860 0.380068
#
# Coordination Sequence:
#
# PCOD9487043 Si02
#       5
#    16   8  16   8  16
#     4  10  19  33  55  84 114 143 183 233 283 333
#     4   9  16  26  46  79 113 143 176 219 270 319
#     4  10  23  40  56  77 109 151 194 236 284 337
#     4  10  21  37  59  85 113 148 184 230 282 338
#     4   9  17  33  57  85 114 145 186 232 276 332
#
# _framework density 18.482393999999999
#
# number of rings (size 3 to 8) (size 9 to 14) (size 15 to 20)
#    0.000    2.375    1.250    1.125    1.750    4.500 
#    0.000    5.000    0.000    3.000    0.000    0.000 
#    0.000    0.000    0.000    0.000    0.000    0.000 
#
# Total GULP energy -178530.940225 kJ/mol
# GULP energy per Si atom -5579.091882 kJ/mol
# Density = 1.844033 g / cm^3
# Si number density = 18.482394 Si / 1000 Ang^3
#
#
#
# Elastic Constant Matrix: (Units=GPa)
#
#
# Indices 1 2 3 4 5 6 
#
# 1 88.1917 57.1777 53.6656 0.0000 0.0000 0.0000
# 2 57.1777 102.9960 42.9655 0.0000 0.0000 0.0000
# 3 53.6656 42.9655 74.0387 0.0000 0.0000 0.0000
# 4 0.0000 0.0000 0.0000 21.2540 0.0000 0.0000
# 5 0.0000 0.0000 0.0000 0.0000 21.7946 0.0000
# 6 0.0000 0.0000 0.0000 0.0000 0.0000 33.9862
#
#
#
# Elastic Compliance Matrix: (Units=1/GPa)
#
#
# Indices 1 2 3 4 5 6 
#
# 1 0.024624 -0.008213 -0.013083 0.000000 0.000000 0.000000
# 2 -0.008213 0.015549 -0.003071 0.000000 0.000000 0.000000
# 3 -0.013083 -0.003071 0.024771 0.000000 0.000000 0.000000
# 4 0.000000 0.000000 0.000000 0.047050 0.000000 0.000000
# 5 0.000000 0.000000 0.000000 0.000000 0.045883 0.000000
# 6 0.000000 0.000000 0.000000 0.000000 0.000000 0.029424
#
#
# Mechanical properties :
#
#
# Convention : Reuss Voigt Hill
#
# Bulk Modulus (GPa) = 61.67922 63.64932 62.66427
# Shear Modulus (GPa) = 20.70930 22.83481 21.77205
#
# Velocity S-wave (km/s) = 3.35100 3.51877 3.43591
# Velocity P-wave (km/s) = 6.95820 7.14294 7.05117
#
# Compressibility (1/GPa) = 0.01621292
#
# Stress axis : x y z
#
# Youngs Moduli (GPa) = 40.61012 64.31195 40.36949
#
# Poissons Ratio (x) = 0.52817 0.52814
# Poissons Ratio (y) = 0.33351 0.12396
# Poissons Ratio (z) = 0.53129 0.19748
#
# Static dielectric constant tensor:
#      x y z
#    x 1.649610 0.000000 0.000000 
#    y 0.000000 1.650950 0.000000 
#    z 0.000000 0.000000 1.611190 
# 
# From -- ./inp_files/41918.got.cif
#   From: 2010.05.17/outbox.cif.g08.bks.cpg/sg65_21_cif.got.tgz:41918.got - 2010.06.03 17:01:31.
