data_PCOD9487132
_publ_section_title
;
Structure prediction by ZEFSAII (Michael W. Deem and Ramdas Pophale) SiO2 
 PCOD9487132
Probable space group: C M M M
;
_chemical_formula_sum "Si O2"
_cell_formula_units_Z 104
_cell_length_a 7.733149
_cell_length_b 24.648319
_cell_length_c 30.563674
_cell_angle_alpha 90.000000
_cell_angle_beta 90.000000
_cell_angle_gamma 90.000000
_cell_volume 5825.715110
_symmetry_space_group_name_H-M "C M M M"
_symmetry_group_IT_number 65
_symmetry_cell_setting 'orthorhombic'
loop_
_space_group_symop_operation_xyz
x,y,z
-x,-y,z
x,-y,-z
-x,y,-z
-x,-y,-z
x,y,-z
-x,y,z
x,-y,z
1/2+x,1/2+y,z
1/2-x,1/2-y,z
1/2+x,1/2-y,-z
1/2-x,1/2+y,-z
1/2-x,1/2-y,-z
1/2+x,1/2+y,-z
1/2-x,1/2+y,z
1/2+x,1/2-y,z
loop_
_atom_site_type_symbol
_atom_site_label
_atom_site_fract_x
_atom_site_fract_y
_atom_site_fract_z
Si Si1 0.706484 0.686823 0.951197
Si Si2 0.195336 0.500000 0.862509
Si Si3 0.708500 0.893661 0.288867
Si Si4 0.791829 0.686686 0.784272
Si Si5 0.796190 0.381922 0.132478
Si Si6 0.000000 0.934331 0.450323
Si Si7 0.800596 0.000000 0.233970
Si Si8 0.705065 0.065096 0.617554
O O1 0.500000 0.681096 0.950588
O O2 0.750000 0.750000 0.944609
O O3 0.779246 0.652126 0.911598
O O4 0.769533 0.671625 0.000000
O O5 0.279396 0.442187 0.873687
O O6 0.189863 0.500000 0.809850
O O7 0.000000 0.500000 0.881301
O O8 0.500000 0.892547 0.289833
O O9 0.769242 0.842110 0.260561
O O10 0.762482 0.946933 0.262189
O O11 0.761940 0.902490 0.338999
O O12 0.750000 0.750000 0.787522
O O13 0.725912 0.652084 0.826093
O O14 0.000000 0.682900 0.784784
O O15 0.000000 0.390075 0.141922
O O16 0.828941 0.919921 0.422646
O O17 0.000000 0.913617 0.500000
O O18 0.000000 0.000000 0.452560
O O19 0.000000 0.000000 0.220572
O O20 0.500000 0.074010 0.609377
O O21 0.725252 0.000000 0.626085
#
# Coordination Sequence:
#
# PCOD9487132 Si02
#       8
#    16   8  16  16  16   8   8  16
#     4  10  21  37  57  79 103 131 166 213 261 307
#     4  10  20  38  55  73 104 137 171 205 250 302
#     4  10  19  34  51  68 100 142 175 211 255 306
#     4  10  21  35  51  72 102 138 170 206 256 306
#     4  10  20  35  57  78 100 135 171 209 252 303
#     4   9  18  30  44  66 104 140 170 216 261 308
#     4  12  22  28  48  79 101 131 175 219 253 289
#     4   9  17  28  47  70  95 134 177 213 257 310
#
# _framework density 17.851886
#
# number of rings (size 3 to 8) (size 9 to 14) (size 15 to 20)
#    0.000    2.077    2.308    1.615    1.077    4.308 
#    0.000    1.923    0.000    2.308    0.000    0.000 
#    0.000    0.615    0.308    0.000    0.000    0.000 
#
# Total GULP energy -290023.633638 kJ/mol
# GULP energy per Si atom -5577.377570 kJ/mol
# Density = 1.781125 g / cm^3
# Si number density = 17.851886 Si / 1000 Ang^3
#
#
#
# Elastic Constant Matrix: (Units=GPa)
#
#
# Indices 1 2 3 4 5 6 
#
# 1 34.4443 9.5408 29.3432 0.0000 0.0000 0.0000
# 2 9.5408 107.3709 64.4549 0.0000 0.0000 0.0000
# 3 29.3432 64.4549 134.6101 0.0000 0.0000 0.0000
# 4 0.0000 0.0000 0.0000 -1.6372 0.0000 0.0000
# 5 0.0000 0.0000 0.0000 0.0000 20.0139 0.0000
# 6 0.0000 0.0000 0.0000 0.0000 0.0000 15.7124
#
#
#
# Elastic Compliance Matrix: (Units=1/GPa)
#
#
# Indices 1 2 3 4 5 6 
#
# 1 0.035994 0.002122 -0.008862 0.000000 0.000000 0.000000
# 2 0.002122 0.013196 -0.006781 0.000000 0.000000 0.000000
# 3 -0.008862 -0.006781 0.012608 0.000000 0.000000 0.000000
# 4 0.000000 0.000000 0.000000 -0.610811 0.000000 0.000000
# 5 0.000000 0.000000 0.000000 0.000000 0.049965 0.000000
# 6 0.000000 0.000000 0.000000 0.000000 0.000000 0.063644
#
#
# Mechanical properties :
#
#
# Convention : Reuss Voigt Hill
#
# Bulk Modulus (GPa) = 28.77318 53.67812 41.22565
# Shear Modulus (GPa) = -12.60153 18.35693 2.87770
#
# Velocity S-wave (km/s) = -2.65975 3.21018 1.27102
# Velocity P-wave (km/s) = 2.59237 6.62376 5.02964
#
# Compressibility (1/GPa) = 0.03475458
#
# Stress axis : x y z
#
# Youngs Moduli (GPa) = 27.78214 75.78316 79.31761
#
# Poissons Ratio (x) = -0.16078 0.70292
# Poissons Ratio (y) = -0.05894 0.53784
# Poissons Ratio (z) = 0.24621 0.51387
#
# Static dielectric constant tensor:
#      x y z
#    x 1.563060 0.000000 0.000000 
#    y 0.000000 1.799800 0.000000 
#    z 0.000000 0.000000 1.605990 
# 
# From -- ./inp_files/73630.got.cif
#   From: 2010.05.17/outbox.cif.g08.bks.cpg/sg65_37_cif.got.tgz:73630.got - 2010.06.03 17:01:31.
