data_PCOD9487486
_publ_section_title
;
Structure prediction by ZEFSAII (Michael W. Deem and Ramdas Pophale) SiO2 
 PCOD9487486
Probable space group: C M M M
;
_chemical_formula_sum "Si O2"
_cell_formula_units_Z 80
_cell_length_a 35.053652
_cell_length_b 7.932243
_cell_length_c 17.380332
_cell_angle_alpha 90.000000
_cell_angle_beta 90.000000
_cell_angle_gamma 90.000000
_cell_volume 4832.672323
_symmetry_space_group_name_H-M "C M M M"
_symmetry_group_IT_number 65
_symmetry_cell_setting 'orthorhombic'
loop_
_space_group_symop_operation_xyz
x,y,z
-x,-y,z
x,-y,-z
-x,y,-z
-x,-y,-z
x,y,-z
-x,y,z
x,-y,z
1/2+x,1/2+y,z
1/2-x,1/2-y,z
1/2+x,1/2-y,-z
1/2-x,1/2+y,-z
1/2-x,1/2-y,-z
1/2+x,1/2+y,-z
1/2-x,1/2+y,z
1/2+x,1/2-y,z
loop_
_atom_site_type_symbol
_atom_site_label
_atom_site_fract_x
_atom_site_fract_y
_atom_site_fract_z
Si Si1 0.062399 0.312661 0.589397
Si Si2 0.346272 0.500000 0.910868
Si Si3 0.294952 0.701773 0.500000
Si Si4 0.790425 0.686629 0.907617
Si Si5 0.959524 0.000000 0.687852
Si Si6 0.626290 0.500000 0.254056
Si Si7 0.350060 0.194191 0.639665
O O1 0.052991 0.300455 0.500000
O O2 0.052324 0.500000 0.617444
O O3 0.042523 0.165939 0.635609
O O4 0.108335 0.294911 0.598769
O O5 0.320756 0.333509 0.898804
O O6 0.373123 0.500000 0.837835
O O7 0.359955 0.500000 0.000000
O O8 0.297937 0.500000 0.500000
O O9 0.250000 0.750000 0.500000
O O10 0.317562 0.767645 0.424085
O O11 0.800387 0.500000 0.878327
O O12 0.750000 0.750000 0.875484
O O13 0.785688 0.671322 0.000000
O O14 0.918633 0.000000 0.728223
O O15 0.000000 0.000000 0.731383
O O16 0.646507 0.336287 0.293668
O O17 0.345522 0.000000 0.666942
#
# Coordination Sequence:
#
# PCOD9487486 Si02
#       7
#    16   8   8  16   8   8  16
#     4   9  17  29  50  76 102 135 168 204 256 310
#     4  10  20  34  54  79 104 136 178 220 269 331
#     4  12  22  34  56  79 105 147 193 236 261 296
#     4   9  15  26  48  75 101 129 162 200 247 305
#     4  10  21  34  50  73 102 134 170 212 260 319
#     4  10  22  38  56  75 104 142 174 220 278 326
#     4  10  19  35  55  76 103 140 186 222 262 314
#
# _framework density 16.553988
#
# number of rings (size 3 to 8) (size 9 to 14) (size 15 to 20)
#    0.000    2.200    3.000    1.200    0.000    2.000 
#    0.000    2.000    0.000    0.300    0.000    0.000 
#    0.000    0.000    0.000   15.000    0.000    0.000 
#
# Total GULP energy -222738.169726 kJ/mol
# GULP energy per Si atom -5568.454243 kJ/mol
# Density = 1.651631 g / cm^3
# Si number density = 16.553988 Si / 1000 Ang^3
#
#
#
# Elastic Constant Matrix: (Units=GPa)
#
#
# Indices 1 2 3 4 5 6 
#
# 1 87.0074 38.3748 35.0220 0.0000 0.0000 0.0000
# 2 38.3748 143.7697 40.4143 0.0000 0.0000 0.0000
# 3 35.0220 40.4143 75.9949 0.0000 0.0000 0.0000
# 4 0.0000 0.0000 0.0000 45.8417 0.0000 0.0000
# 5 0.0000 0.0000 0.0000 0.0000 2.3922 0.0000
# 6 0.0000 0.0000 0.0000 0.0000 0.0000 -9.5819
#
#
#
# Elastic Compliance Matrix: (Units=1/GPa)
#
#
# Indices 1 2 3 4 5 6 
#
# 1 0.014776 -0.002387 -0.005540 0.000000 0.000000 0.000000
# 2 -0.002387 0.008564 -0.003454 0.000000 0.000000 0.000000
# 3 -0.005540 -0.003454 0.017549 0.000000 0.000000 0.000000
# 4 0.000000 0.000000 0.000000 0.021814 0.000000 0.000000
# 5 0.000000 0.000000 0.000000 0.000000 0.418027 0.000000
# 6 0.000000 0.000000 0.000000 0.000000 0.000000 -0.104363
#
#
# Mechanical properties :
#
#
# Convention : Reuss Voigt Hill
#
# Bulk Modulus (GPa) = 55.16856 59.37714 57.27285
# Shear Modulus (GPa) = 12.34048 20.59446 16.46747
#
# Velocity S-wave (km/s) = 2.73329 3.53098 3.15742
# Velocity P-wave (km/s) = 6.58483 7.25054 6.92569
#
# Compressibility (1/GPa) = 0.01812626
#
# Stress axis : x y z
#
# Youngs Moduli (GPa) = 67.67767 116.77319 56.98338
#
# Poissons Ratio (x) = 0.27869 0.31570
# Poissons Ratio (y) = 0.16152 0.19684
# Poissons Ratio (z) = 0.37495 0.40337
#
# Static dielectric constant tensor:
#      x y z
#    x 1.567150 0.000000 0.000000 
#    y 0.000000 1.586440 0.000000 
#    z 0.000000 0.000000 1.538970 
# 
# From -- ./inp_files/57937.got.cif
#   From: 2010.05.17/outbox.cif.g08.bks.cpg/sg65_29_cif.got.tgz:57937.got - 2010.06.03 17:01:31.
