data_PCOD9487194
_publ_section_title
;
Structure prediction by ZEFSAII (Michael W. Deem and Ramdas Pophale) SiO2 
 PCOD9487194
Probable space group: C M M M
;
_chemical_formula_sum "Si O2"
_cell_formula_units_Z 88
_cell_length_a 7.615374
_cell_length_b 30.232235
_cell_length_c 18.120730
_cell_angle_alpha 90.000000
_cell_angle_beta 90.000000
_cell_angle_gamma 90.000000
_cell_volume 4171.931616
_symmetry_space_group_name_H-M "C M M M"
_symmetry_group_IT_number 65
_symmetry_cell_setting 'orthorhombic'
loop_
_space_group_symop_operation_xyz
x,y,z
-x,-y,z
x,-y,-z
-x,y,-z
-x,-y,-z
x,y,-z
-x,y,z
x,-y,z
1/2+x,1/2+y,z
1/2-x,1/2-y,z
1/2+x,1/2-y,-z
1/2-x,1/2+y,-z
1/2-x,1/2-y,-z
1/2+x,1/2+y,-z
1/2-x,1/2+y,z
1/2+x,1/2-y,z
loop_
_atom_site_type_symbol
_atom_site_label
_atom_site_fract_x
_atom_site_fract_y
_atom_site_fract_z
Si Si1 0.709795 0.297085 0.915284
Si Si2 0.289786 0.450766 0.218758
Si Si3 0.714729 0.606140 0.085294
Si Si4 0.210575 0.700965 0.585019
Si Si5 0.285214 0.948988 0.500000
Si Si6 0.211143 0.392003 0.359193
O O1 0.500000 0.299338 0.918960
O O2 0.750000 0.250000 0.878512
O O3 0.769419 0.344806 0.886611
O O4 0.778114 0.295014 0.000000
O O5 0.500000 0.454011 0.212260
O O6 0.221191 0.500000 0.235216
O O7 0.223051 0.430971 0.141575
O O8 0.255613 0.416153 0.283623
O O9 0.500000 0.605254 0.084907
O O10 0.768971 0.600829 0.000000
O O11 0.276294 0.698419 0.500000
O O12 0.250000 0.750000 0.614254
O O13 0.275502 0.658328 0.629902
O O14 0.000000 0.697688 0.581525
O O15 0.500000 0.949222 0.500000
O O16 0.227615 0.922306 0.572432
O O17 0.228137 0.000000 0.500000
O O18 0.000000 0.390663 0.363806
#
# Coordination Sequence:
#
# PCOD9487194 Si02
#       6
#    16  16  16  16   8  16
#     4   8  13  23  42  67  92 118 150 190 237 288
#     4  10  21  35  51  74 103 132 166 215 269 311
#     4   8  15  30  51  72  95 128 169 209 252 306
#     4   9  17  31  52  78 105 133 170 211 248 293
#     4   9  16  28  50  75  95 125 171 211 238 279
#     4  10  19  34  54  76 102 134 172 209 246 299
#
# _framework density 21.093347999999999
#
# number of rings (size 3 to 8) (size 9 to 14) (size 15 to 20)
#    0.000    3.000    0.909    1.636    0.000    2.182 
#    0.000    4.091    0.000    7.636    0.000    1.273 
#    0.000    0.000    0.000    0.000    0.000    0.000 
#
# Total GULP energy -245271.178606 kJ/mol
# GULP energy per Si atom -5574.344968 kJ/mol
# Density = 2.104534 g / cm^3
# Si number density = 21.093348 Si / 1000 Ang^3
#
#
#
# Elastic Constant Matrix: (Units=GPa)
#
#
# Indices 1 2 3 4 5 6 
#
# 1 40.7513 9.6994 0.8924 0.0000 0.0000 0.0000
# 2 9.6994 220.3996 84.0127 0.0000 0.0000 0.0000
# 3 0.8924 84.0127 97.5014 0.0000 0.0000 0.0000
# 4 0.0000 0.0000 0.0000 24.3819 0.0000 0.0000
# 5 0.0000 0.0000 0.0000 0.0000 7.9878 0.0000
# 6 0.0000 0.0000 0.0000 0.0000 0.0000 16.8382
#
#
#
# Elastic Compliance Matrix: (Units=1/GPa)
#
#
# Indices 1 2 3 4 5 6 
#
# 1 0.024873 -0.001501 0.001065 0.000000 0.000000 0.000000
# 2 -0.001501 0.006847 -0.005886 0.000000 0.000000 0.000000
# 3 0.001065 -0.005886 0.015318 0.000000 0.000000 0.000000
# 4 0.000000 0.000000 0.000000 0.041014 0.000000 0.000000
# 5 0.000000 0.000000 0.000000 0.000000 0.125191 0.000000
# 6 0.000000 0.000000 0.000000 0.000000 0.000000 0.059389
#
#
# Mechanical properties :
#
#
# Convention : Reuss Voigt Hill
#
# Bulk Modulus (GPa) = 29.07352 60.87349 44.97350
# Shear Modulus (GPa) = 16.84984 27.44478 22.14731
#
# Velocity S-wave (km/s) = 2.82941 3.61100 3.24383
# Velocity P-wave (km/s) = 4.94846 6.80496 5.94957
#
# Compressibility (1/GPa) = 0.03439556
#
# Stress axis : x y z
#
# Youngs Moduli (GPa) = 40.20433 146.05215 65.28210
#
# Poissons Ratio (x) = 0.21919 -0.06956
# Poissons Ratio (y) = 0.06034 0.38424
# Poissons Ratio (z) = -0.04284 0.85965
#
# Static dielectric constant tensor:
#      x y z
#    x 1.802710 0.000000 0.000000 
#    y 0.000000 1.811480 0.000000 
#    z 0.000000 0.000000 1.731600 
# 
# From -- ./inp_files/38651.got.cif
#   From: 2010.05.17/outbox.cif.g08.bks.cpg/sg65_20_cif.got.tgz:38651.got - 2010.06.03 17:01:31.
