data_PCOD9487410
_publ_section_title
;
Structure prediction by ZEFSAII (Michael W. Deem and Ramdas Pophale) SiO2 
 PCOD9487410
Probable space group: C M M M
;
_chemical_formula_sum "Si O2"
_cell_formula_units_Z 68
_cell_length_a 22.756051
_cell_length_b 20.019878
_cell_length_c 7.496446
_cell_angle_alpha 90.000000
_cell_angle_beta 90.000000
_cell_angle_gamma 90.000000
_cell_volume 3415.181128
_symmetry_space_group_name_H-M "C M M M"
_symmetry_group_IT_number 65
_symmetry_cell_setting 'orthorhombic'
loop_
_space_group_symop_operation_xyz
x,y,z
-x,-y,z
x,-y,-z
-x,y,-z
-x,-y,-z
x,y,-z
-x,y,z
x,-y,z
1/2+x,1/2+y,z
1/2-x,1/2-y,z
1/2+x,1/2-y,-z
1/2-x,1/2+y,-z
1/2-x,1/2-y,-z
1/2+x,1/2+y,-z
1/2-x,1/2+y,z
1/2+x,1/2-y,z
loop_
_atom_site_type_symbol
_atom_site_label
_atom_site_fract_x
_atom_site_fract_y
_atom_site_fract_z
Si Si1 0.774503 0.177608 0.716557
Si Si2 0.089861 0.819048 0.207887
Si Si3 0.565483 0.165312 0.785799
Si Si4 0.500000 0.633231 0.500000
Si Si5 0.823108 0.574941 0.711143
O O1 0.774957 0.177724 0.500000
O O2 0.750000 0.250000 0.773304
O O3 0.840911 0.167254 0.778047
O O4 0.729528 0.121043 0.781611
O O5 0.079907 0.741526 0.266804
O O6 0.051188 0.862063 0.342530
O O7 0.072101 0.824906 0.000000
O O8 0.500000 0.148244 0.720703
O O9 0.615938 0.114471 0.731414
O O10 0.564417 0.164998 0.000000
O O11 0.812657 0.569549 0.500000
O O12 0.825616 0.500000 0.785136
#
# Coordination Sequence:
#
# PCOD9487410 Si02
#       5
#    16  16  16   4  16
#     4  10  19  34  58  84 112 153 200 246 296 347
#     4  11  22  35  57  90 119 153 197 242 294 349
#     4  10  21  35  52  78 114 153 197 242 285 338
#     4  12  22  36  58  86 126 160 176 246 298 364
#     4  10  22  37  55  81 115 153 197 243 291 346
#
# _framework density 19.911096000000001
#
# number of rings (size 3 to 8) (size 9 to 14) (size 15 to 20)
#    0.000    1.647    4.706    0.353    1.647    2.824 
#    0.000    2.353    0.000    0.000    0.000    1.647 
#    0.000    1.882    0.000    0.000    0.000    0.000 
#
# Total GULP energy -189387.335255 kJ/mol
# GULP energy per Si atom -5570.215743 kJ/mol
# Density = 1.986578 g / cm^3
# Si number density = 19.911096 Si / 1000 Ang^3
#
#
#
# Elastic Constant Matrix: (Units=GPa)
#
#
# Indices 1 2 3 4 5 6 
#
# 1 189.7385 34.8458 14.0969 0.0000 0.0000 0.0000
# 2 34.8458 37.2092 4.0259 0.0000 0.0000 0.0000
# 3 14.0969 4.0259 86.0812 0.0000 0.0000 0.0000
# 4 0.0000 0.0000 0.0000 5.0960 0.0000 0.0000
# 5 0.0000 0.0000 0.0000 0.0000 11.8519 0.0000
# 6 0.0000 0.0000 0.0000 0.0000 0.0000 -53.3963
#
#
#
# Elastic Compliance Matrix: (Units=1/GPa)
#
#
# Indices 1 2 3 4 5 6 
#
# 1 0.006416 -0.005925 -0.000774 0.000000 0.000000 0.000000
# 2 -0.005925 0.032483 -0.000549 0.000000 0.000000 0.000000
# 3 -0.000774 -0.000549 0.011769 0.000000 0.000000 0.000000
# 4 0.000000 0.000000 0.000000 0.196231 0.000000 0.000000
# 5 0.000000 0.000000 0.000000 0.000000 0.084374 0.000000
# 6 0.000000 0.000000 0.000000 0.000000 0.000000 -0.018728
#
#
# Mechanical properties :
#
#
# Convention : Reuss Voigt Hill
#
# Bulk Modulus (GPa) = 27.64448 46.55179 37.09813
# Shear Modulus (GPa) = 14.74499 10.04770 12.39634
#
# Velocity S-wave (km/s) = 2.72424 2.24883 2.49787
# Velocity P-wave (km/s) = 4.87949 5.49305 5.19533
#
# Compressibility (1/GPa) = 0.03617359
#
# Stress axis : x y z
#
# Youngs Moduli (GPa) = 155.86092 30.78547 84.96686
#
# Poissons Ratio (x) = 0.18240 0.06573
# Poissons Ratio (y) = 0.92344 0.04664
# Poissons Ratio (z) = 0.12058 0.01690
#
# Static dielectric constant tensor:
#      x y z
#    x 1.671000 0.000000 0.000000 
#    y 0.000000 1.695100 0.000000 
#    z 0.000000 0.000000 1.998630 
# 
# From -- ./inp_files/10928.got.cif
#   From: 2010.05.17/outbox.cif.g08.bks.cpg/sg65_6_cif.got.tgz:10928.got - 2010.06.03 17:01:31.
