data_PCOD9487317
_publ_section_title
;
Structure prediction by ZEFSAII (Michael W. Deem and Ramdas Pophale) SiO2 
 PCOD9487317
Probable space group: C M M M
;
_chemical_formula_sum "Si O2"
_cell_formula_units_Z 88
_cell_length_a 24.465776
_cell_length_b 8.343533
_cell_length_c 23.399431
_cell_angle_alpha 90.000000
_cell_angle_beta 90.000000
_cell_angle_gamma 90.000000
_cell_volume 4776.549470
_symmetry_space_group_name_H-M "C M M M"
_symmetry_group_IT_number 65
_symmetry_cell_setting 'orthorhombic'
loop_
_space_group_symop_operation_xyz
x,y,z
-x,-y,z
x,-y,-z
-x,y,-z
-x,-y,-z
x,y,-z
-x,y,z
x,-y,z
1/2+x,1/2+y,z
1/2-x,1/2-y,z
1/2+x,1/2-y,-z
1/2-x,1/2+y,-z
1/2-x,1/2-y,-z
1/2+x,1/2+y,-z
1/2-x,1/2+y,z
1/2+x,1/2-y,z
loop_
_atom_site_type_symbol
_atom_site_label
_atom_site_fract_x
_atom_site_fract_y
_atom_site_fract_z
Si Si1 0.000000 0.811317 0.315174
Si Si2 0.187799 0.806555 0.437054
Si Si3 0.500000 0.310983 0.179301
Si Si4 0.621037 0.695010 0.673423
Si Si5 0.187785 0.690292 0.215502
Si Si6 0.935283 0.307561 0.000000
Si Si7 0.609257 0.692891 0.119993
O O1 0.000000 0.800919 0.246767
O O2 0.058772 0.744589 0.332756
O O3 0.000000 0.000000 0.331611
O O4 0.167277 0.754710 0.500000
O O5 0.250000 0.750000 0.432073
O O6 0.154571 0.750791 0.382021
O O7 0.186876 0.000000 0.436240
O O8 0.500000 0.500000 0.164162
O O9 0.444460 0.243978 0.153623
O O10 0.619404 0.500000 0.674754
O O11 0.650494 0.745818 0.732095
O O12 0.187708 0.500000 0.218196
O O13 0.250000 0.750000 0.221408
O O14 0.161062 0.744665 0.155407
O O15 0.902814 0.246558 0.944427
O O16 0.936242 0.500000 0.000000
O O17 0.000000 0.253446 0.000000
O O18 0.611340 0.500000 0.122200
#
# Coordination Sequence:
#
# PCOD9487317 Si02
#       7
#     8  16   8  16  16   8  16
#     4   9  16  30  52  81 111 145 179 219 276 335
#     4   9  18  32  51  76 106 142 187 236 282 328
#     4   9  16  29  55  83 111 143 182 223 272 328
#     4  10  19  34  56  81 111 147 186 228 277 338
#     4  12  25  40  58  83 113 146 185 234 286 337
#     4  11  23  37  56  89 126 155 189 234 278 324
#     4  11  21  38  61  86 114 151 193 232 278 334
#
# _framework density 18.423341000000001
#
# number of rings (size 3 to 8) (size 9 to 14) (size 15 to 20)
#    0.000    1.727    2.727    3.000    0.000    2.545 
#    0.000    2.273    0.000    2.727    0.000    0.000 
#    0.000    4.364    0.000    0.000    0.000    0.000 
#
# Total GULP energy -245444.634147 kJ/mol
# GULP energy per Si atom -5578.287140 kJ/mol
# Density = 1.838141 g / cm^3
# Si number density = 18.423341 Si / 1000 Ang^3
#
#
#
# Elastic Constant Matrix: (Units=GPa)
#
#
# Indices 1 2 3 4 5 6 
#
# 1 128.7709 20.6421 85.9100 0.0000 0.0000 0.0000
# 2 20.6421 45.9012 28.4084 0.0000 0.0000 0.0000
# 3 85.9100 28.4084 73.2882 0.0000 0.0000 0.0000
# 4 0.0000 0.0000 0.0000 15.8852 0.0000 0.0000
# 5 0.0000 0.0000 0.0000 0.0000 53.5335 0.0000
# 6 0.0000 0.0000 0.0000 0.0000 0.0000 15.1606
#
#
#
# Elastic Compliance Matrix: (Units=1/GPa)
#
#
# Indices 1 2 3 4 5 6 
#
# 1 0.042603 0.015458 -0.055932 0.000000 0.000000 0.000000
# 2 0.015458 0.034270 -0.031404 0.000000 0.000000 0.000000
# 3 -0.055932 -0.031404 0.091383 0.000000 0.000000 0.000000
# 4 0.000000 0.000000 0.000000 0.062952 0.000000 0.000000
# 5 0.000000 0.000000 0.000000 0.000000 0.018680 0.000000
# 6 0.000000 0.000000 0.000000 0.000000 0.000000 0.065960
#
#
# Mechanical properties :
#
#
# Convention : Reuss Voigt Hill
#
# Bulk Modulus (GPa) = 40.81729 57.54239 49.17984
# Shear Modulus (GPa) = 10.68896 24.44918 17.56907
#
# Velocity S-wave (km/s) = 2.41132 3.64686 3.09144
# Velocity P-wave (km/s) = 5.47320 7.00243 6.28450
#
# Compressibility (1/GPa) = 0.02449942
#
# Stress axis : x y z
#
# Youngs Moduli (GPa) = 23.47232 29.17964 10.94296
#
# Poissons Ratio (x) = -0.45105 0.61207
# Poissons Ratio (y) = -0.36283 0.34365
# Poissons Ratio (z) = 1.31286 0.91636
#
# Static dielectric constant tensor:
#      x y z
#    x 1.646280 0.000000 0.000000 
#    y 0.000000 1.647260 0.000000 
#    z 0.000000 0.000000 1.642430 
# 
# From -- ./inp_files/65256.got.cif
#   From: 2010.05.17/outbox.cif.g08.bks.cpg/sg65_33_cif.got.tgz:65256.got - 2010.06.03 17:01:31.
