data_PCOD9487184
_publ_section_title
;
Structure prediction by ZEFSAII (Michael W. Deem and Ramdas Pophale) SiO2 
 PCOD9487184
Probable space group: C M M M
;
_chemical_formula_sum "Si O2"
_cell_formula_units_Z 88
_cell_length_a 28.446284
_cell_length_b 18.006150
_cell_length_c 8.118095
_cell_angle_alpha 90.000000
_cell_angle_beta 90.000000
_cell_angle_gamma 90.000000
_cell_volume 4158.153664
_symmetry_space_group_name_H-M "C M M M"
_symmetry_group_IT_number 65
_symmetry_cell_setting 'orthorhombic'
loop_
_space_group_symop_operation_xyz
x,y,z
-x,-y,z
x,-y,-z
-x,y,-z
-x,-y,-z
x,y,-z
-x,y,z
x,-y,z
1/2+x,1/2+y,z
1/2-x,1/2-y,z
1/2+x,1/2-y,-z
1/2-x,1/2+y,-z
1/2-x,1/2-y,-z
1/2+x,1/2+y,-z
1/2-x,1/2+y,z
1/2+x,1/2-y,z
loop_
_atom_site_type_symbol
_atom_site_label
_atom_site_fract_x
_atom_site_fract_y
_atom_site_fract_z
Si Si1 0.448030 0.648582 0.199483
Si Si2 0.500000 0.087747 0.690073
Si Si3 0.154928 0.126181 0.806907
Si Si4 0.320930 0.212343 0.686020
Si Si5 0.754396 0.580741 0.800379
Si Si6 0.082621 0.316266 0.808741
O O1 0.500000 0.624610 0.259761
O O2 0.398055 0.615564 0.261712
O O3 0.441578 0.736827 0.229345
O O4 0.448490 0.638760 0.000000
O O5 0.500000 0.113355 0.500000
O O6 0.454734 0.120525 0.778419
O O7 0.500000 0.000000 0.693613
O O8 0.170210 0.212809 0.790002
O O9 0.200420 0.084547 0.739487
O O10 0.151491 0.107524 0.000000
O O11 0.310938 0.235825 0.500000
O O12 0.282371 0.153279 0.742627
O O13 0.371449 0.173036 0.699860
O O14 0.774653 0.500000 0.751986
O O15 0.753874 0.583582 0.000000
O O16 0.096978 0.313958 0.000000
#
# Coordination Sequence:
#
# PCOD9487184 Si02
#       6
#    16   8  16  16  16  16
#     4   8  13  25  49  78 101 124 161 209 255 300
#     4  11  23  35  47  69 105 143 176 217 266 313
#     4   9  18  33  55  80 106 139 179 222 266 318
#     4  11  22  35  54  80 107 136 173 225 280 325
#     4  10  21  37  55  75 103 142 185 224 266 323
#     4  10  19  34  54  74  98 134 178 219 259 311
#
# _framework density 21.163238
#
# number of rings (size 3 to 8) (size 9 to 14) (size 15 to 20)
#    0.000    2.273    0.909    4.091    0.000    4.727 
#    0.000    0.000    0.000    0.545    0.000    3.818 
#    0.000    0.000    0.000    6.364    0.000    8.000 
#
# Total GULP energy -245331.739471 kJ/mol
# GULP energy per Si atom -5575.721352 kJ/mol
# Density = 2.111507 g / cm^3
# Si number density = 21.163238 Si / 1000 Ang^3
#
#
#
# Elastic Constant Matrix: (Units=GPa)
#
#
# Indices 1 2 3 4 5 6 
#
# 1 128.6280 9.9012 -0.4302 0.0000 0.0000 0.0000
# 2 9.9012 21.9584 -6.8537 0.0000 0.0000 0.0000
# 3 -0.4302 -6.8537 28.1024 0.0000 0.0000 0.0000
# 4 0.0000 0.0000 0.0000 -0.1354 0.0000 0.0000
# 5 0.0000 0.0000 0.0000 0.0000 -7.3639 0.0000
# 6 0.0000 0.0000 0.0000 0.0000 0.0000 2.4705
#
#
#
# Elastic Compliance Matrix: (Units=1/GPa)
#
#
# Indices 1 2 3 4 5 6 
#
# 1 0.008072 -0.003898 -0.000827 0.000000 0.000000 0.000000
# 2 -0.003898 0.051175 0.012421 0.000000 0.000000 0.000000
# 3 -0.000827 0.012421 0.038601 0.000000 0.000000 0.000000
# 4 0.000000 0.000000 0.000000 -7.386917 0.000000 0.000000
# 5 0.000000 0.000000 0.000000 0.000000 -0.135798 0.000000
# 6 0.000000 0.000000 0.000000 0.000000 0.000000 0.404784
#
#
# Mechanical properties :
#
#
# Convention : Reuss Voigt Hill
#
# Bulk Modulus (GPa) = 8.83081 20.43593 14.63337
# Shear Modulus (GPa) = -0.71452 10.73235 5.00892
#
# Velocity S-wave (km/s) = -0.58168 2.25438 1.54011
# Velocity P-wave (km/s) = 1.93148 4.05630 3.17681
#
# Compressibility (1/GPa) = 0.11323992
#
# Stress axis : x y z
#
# Youngs Moduli (GPa) = 123.89098 19.54081 25.90628
#
# Poissons Ratio (x) = 0.07616 0.02142
# Poissons Ratio (y) = 0.48288 -0.32178
# Poissons Ratio (z) = 0.10246 -0.24272
#
# Static dielectric constant tensor:
#      x y z
#    x 1.802840 0.000000 0.000000 
#    y 0.000000 1.747080 0.000000 
#    z 0.000000 0.000000 1.763120 
# 
# From -- ./inp_files/16311.got.cif
#   From: 2010.05.17/outbox.cif.g08.bks.cpg/sg65_9_cif.got.tgz:16311.got - 2010.06.03 17:01:31.
