data_PCOD9487972
_publ_section_title
;
Structure prediction by ZEFSAII (Michael W. Deem and Ramdas Pophale) SiO2 
 PCOD9487972
Probable space group: C M M M
;
_chemical_formula_sum "Si O2"
_cell_formula_units_Z 120
_cell_length_a 13.781331
_cell_length_b 23.220192
_cell_length_c 18.866094
_cell_angle_alpha 90.000000
_cell_angle_beta 90.000000
_cell_angle_gamma 90.000000
_cell_volume 6037.247275
_symmetry_space_group_name_H-M "C M M M"
_symmetry_group_IT_number 65
_symmetry_cell_setting 'orthorhombic'
loop_
_space_group_symop_operation_xyz
x,y,z
-x,-y,z
x,-y,-z
-x,y,-z
-x,-y,-z
x,y,-z
-x,y,z
x,-y,z
1/2+x,1/2+y,z
1/2-x,1/2-y,z
1/2+x,1/2-y,-z
1/2-x,1/2+y,-z
1/2-x,1/2-y,-z
1/2+x,1/2+y,-z
1/2-x,1/2+y,z
1/2+x,1/2-y,z
loop_
_atom_site_type_symbol
_atom_site_label
_atom_site_fract_x
_atom_site_fract_y
_atom_site_fract_z
Si Si1 0.615947 0.855282 0.214080
Si Si2 0.728488 0.565942 0.270532
Si Si3 0.617030 0.934716 0.079403
Si Si4 0.386239 0.339183 0.800712
Si Si5 0.384891 0.286303 0.643190
Si Si6 0.889650 0.330961 0.580634
Si Si7 0.202739 0.896838 0.577800
Si Si8 0.250000 0.250000 0.821925
O O1 0.500000 0.849037 0.224837
O O2 0.671694 0.897158 0.268446
O O3 0.635394 0.887614 0.139219
O O4 0.672542 0.794998 0.212497
O O5 0.746096 0.500000 0.253235
O O6 0.659477 0.598213 0.213707
O O7 0.681986 0.569873 0.349397
O O8 0.500000 0.937718 0.076227
O O9 0.650356 0.000000 0.097006
O O10 0.651859 0.920179 0.000000
O O11 0.500000 0.340507 0.815831
O O12 0.369835 0.309894 0.722617
O O13 0.324880 0.297948 0.852990
O O14 0.500000 0.283812 0.631814
O O15 0.351397 0.221159 0.629191
O O16 0.342757 0.333494 0.589735
O O17 0.890936 0.307505 0.500000
O O18 0.817756 0.384448 0.578471
O O19 0.000000 0.345866 0.600175
O O20 0.174858 0.919704 0.500000
#
# Coordination Sequence:
#
# PCOD9487972 Si02
#       8
#    16  16  16  16  16  16  16   8
#     4  10  20  34  55  80 109 140 170 213 260 303
#     4  10  22  36  51  72  96 128 175 219 254 305
#     4   8  14  27  50  80 112 145 179 212 249 292
#     4   9  19  33  49  70  98 131 165 207 258 308
#     4   9  17  27  44  66  88 114 150 198 249 305
#     4   9  17  27  40  60  84 110 142 182 233 295
#     4  10  20  32  46  63  89 122 158 201 254 306
#     4  10  20  32  49  78 109 138 174 204 248 316
#
# _framework density 19.876608999999998
#
# number of rings (size 3 to 8) (size 9 to 14) (size 15 to 20)
#    0.000    2.667    0.000    2.000    5.600    3.733 
#    0.000    0.333    0.000    0.000    0.000    6.533 
#    0.000    4.800    0.000   42.800    0.000    3.333 
#
# Total GULP energy -334014.281897 kJ/mol
# GULP energy per Si atom -5566.904698 kJ/mol
# Density = 1.983137 g / cm^3
# Si number density = 19.876609 Si / 1000 Ang^3
#
#
#
# Elastic Constant Matrix: (Units=GPa)
#
#
# Indices 1 2 3 4 5 6 
#
# 1 83.8695 23.1195 -0.5482 0.0000 0.0000 0.0000
# 2 23.1195 101.3695 11.3849 0.0000 0.0000 0.0000
# 3 -0.5482 11.3849 73.7610 0.0000 0.0000 0.0000
# 4 0.0000 0.0000 0.0000 13.2946 0.0000 0.0000
# 5 0.0000 0.0000 0.0000 0.0000 11.7825 0.0000
# 6 0.0000 0.0000 0.0000 0.0000 0.0000 11.9868
#
#
#
# Elastic Compliance Matrix: (Units=1/GPa)
#
#
# Indices 1 2 3 4 5 6 
#
# 1 0.012745 -0.002969 0.000553 0.000000 0.000000 0.000000
# 2 -0.002969 0.010731 -0.001678 0.000000 0.000000 0.000000
# 3 0.000553 -0.001678 0.013820 0.000000 0.000000 0.000000
# 4 0.000000 0.000000 0.000000 0.075219 0.000000 0.000000
# 5 0.000000 0.000000 0.000000 0.000000 0.084871 0.000000
# 6 0.000000 0.000000 0.000000 0.000000 0.000000 0.083425
#
#
# Mechanical properties :
#
#
# Convention : Reuss Voigt Hill
#
# Bulk Modulus (GPa) = 34.35514 36.32362 35.33938
# Shear Modulus (GPa) = 16.73905 22.41569 19.57737
#
# Velocity S-wave (km/s) = 2.90513 3.36183 3.14179
# Velocity P-wave (km/s) = 5.34554 5.77784 5.56589
#
# Compressibility (1/GPa) = 0.02910772
#
# Stress axis : x y z
#
# Youngs Moduli (GPa) = 78.46014 93.19210 72.35653
#
# Poissons Ratio (x) = 0.27668 -0.04001
# Poissons Ratio (y) = 0.23294 0.12144
# Poissons Ratio (z) = -0.04339 0.15640
#
# Static dielectric constant tensor:
#      x y z
#    x 1.729260 0.000000 0.000000 
#    y 0.000000 1.712760 0.000000 
#    z 0.000000 0.000000 1.783960 
# 
# From -- ./inp_files/63037.got.cif
#   From: 2010.05.17/outbox.cif.g08.bks.cpg/sg65_32_cif.got.tgz:63037.got - 2010.06.03 17:01:31.
