data_PCOD9487183
_publ_section_title
;
Structure prediction by ZEFSAII (Michael W. Deem and Ramdas Pophale) SiO2 
 PCOD9487183
Probable space group: C M M M
;
_chemical_formula_sum "Si O2"
_cell_formula_units_Z 116
_cell_length_a 17.615385
_cell_length_b 16.841103
_cell_length_c 23.797182
_cell_angle_alpha 90.000000
_cell_angle_beta 90.000000
_cell_angle_gamma 90.000000
_cell_volume 7059.731818
_symmetry_space_group_name_H-M "C M M M"
_symmetry_group_IT_number 65
_symmetry_cell_setting 'orthorhombic'
loop_
_space_group_symop_operation_xyz
x,y,z
-x,-y,z
x,-y,-z
-x,y,-z
-x,-y,-z
x,y,-z
-x,y,z
x,-y,z
1/2+x,1/2+y,z
1/2-x,1/2-y,z
1/2+x,1/2-y,-z
1/2-x,1/2+y,-z
1/2-x,1/2-y,-z
1/2+x,1/2+y,-z
1/2-x,1/2+y,z
1/2+x,1/2-y,z
loop_
_atom_site_type_symbol
_atom_site_label
_atom_site_fract_x
_atom_site_fract_y
_atom_site_fract_z
Si Si1 0.202988 0.907332 0.744498
Si Si2 0.411716 0.812194 0.148781
Si Si3 0.409113 0.694552 0.330560
Si Si4 0.875080 0.640264 0.277550
Si Si5 0.500000 0.000000 0.707827
Si Si6 0.408005 0.590137 0.435970
Si Si7 0.692547 0.676620 0.139042
Si Si8 0.802710 0.594589 0.064634
O O1 0.139055 0.855692 0.714008
O O2 0.287038 0.885417 0.722337
O O3 0.199176 0.884427 0.810095
O O4 0.189465 0.000000 0.736167
O O5 0.500000 0.825391 0.140204
O O6 0.392418 0.830513 0.213762
O O7 0.386937 0.721776 0.135954
O O8 0.363906 0.869069 0.107632
O O9 0.500000 0.684937 0.323099
O O10 0.389022 0.786126 0.319434
O O11 0.387205 0.656894 0.390887
O O12 0.933121 0.569500 0.290237
O O13 0.382376 0.605269 0.500000
O O14 0.500000 0.588810 0.437110
O O15 0.383885 0.500000 0.419771
O O16 0.750000 0.750000 0.152002
O O17 0.723810 0.635102 0.083363
O O18 0.799038 0.500000 0.070988
O O19 0.820820 0.613356 0.000000
#
# Coordination Sequence:
#
# PCOD9487183 Si02
#       8
#    16  16  16  16   4  16  16  16
#     4  12  22  33  54  81 113 151 192 230 282 337
#     4  11  22  35  55  79 108 139 175 228 284 340
#     4  11  21  35  55  84 121 152 182 236 285 336
#     4  12  22  37  54  82 114 150 194 235 284 338
#     4  12  24  36  60  80 110 162 192 232 282 342
#     4   8  15  30  53  82 116 155 196 232 277 336
#     4  10  19  34  54  74 103 143 176 217 271 335
#     4  10  22  38  57  79 103 137 182 232 282 336
#
# _framework density 16.431218999999999
#
# number of rings (size 3 to 8) (size 9 to 14) (size 15 to 20)
#    0.000    1.379    6.207    1.655    0.966    3.862 
#    0.000    0.690    0.000    2.897    0.000    1.931 
#    0.000    0.000    0.000    0.000    0.000    0.000 
#
# Total GULP energy -322887.149758 kJ/mol
# GULP energy per Si atom -5567.019823 kJ/mol
# Density = 1.639382 g / cm^3
# Si number density = 16.431219 Si / 1000 Ang^3
#
#
#
# Elastic Constant Matrix: (Units=GPa)
#
#
# Indices 1 2 3 4 5 6 
#
# 1 27.0511 34.2581 0.5948 0.0000 0.0000 0.0000
# 2 34.2581 122.6913 46.2600 0.0000 0.0000 0.0000
# 3 0.5948 46.2600 73.7401 0.0000 0.0000 0.0000
# 4 0.0000 0.0000 0.0000 24.3033 0.0000 0.0000
# 5 0.0000 0.0000 0.0000 0.0000 14.5240 0.0000
# 6 0.0000 0.0000 0.0000 0.0000 0.0000 27.3140
#
#
#
# Elastic Compliance Matrix: (Units=1/GPa)
#
#
# Indices 1 2 3 4 5 6 
#
# 1 0.067620 -0.024461 0.014800 0.000000 0.000000 0.000000
# 2 -0.024461 0.019524 -0.012051 0.000000 0.000000 0.000000
# 3 0.014800 -0.012051 0.021002 0.000000 0.000000 0.000000
# 4 0.000000 0.000000 0.000000 0.041147 0.000000 0.000000
# 5 0.000000 0.000000 0.000000 0.000000 0.068852 0.000000
# 6 0.000000 0.000000 0.000000 0.000000 0.000000 0.036611
#
#
# Mechanical properties :
#
#
# Convention : Reuss Voigt Hill
#
# Bulk Modulus (GPa) = 15.45078 42.85649 29.15364
# Shear Modulus (GPa) = 15.63700 22.71957 19.17828
#
# Velocity S-wave (km/s) = 3.08825 3.72251 3.42012
# Velocity P-wave (km/s) = 4.70533 6.67945 5.77734
#
# Compressibility (1/GPa) = 0.06472163
#
# Stress axis : x y z
#
# Youngs Moduli (GPa) = 14.78855 51.21777 47.61470
#
# Poissons Ratio (x) = 1.25285 -0.70470
# Poissons Ratio (y) = 0.36175 0.57381
# Poissons Ratio (z) = -0.21887 0.61723
#
# Static dielectric constant tensor:
#      x y z
#    x 1.559910 0.000000 0.000000 
#    y 0.000000 1.553600 0.000000 
#    z 0.000000 0.000000 1.550340 
# 
# From -- ./inp_files/70597.got.cif
#   From: 2010.05.17/outbox.cif.g08.bks.cpg/sg65_36_cif.got.tgz:70597.got - 2010.06.03 17:01:31.
