data_PCOD9487220
_publ_section_title
;
Structure prediction by ZEFSAII (Michael W. Deem and Ramdas Pophale) SiO2 
 PCOD9487220
Probable space group: C M M M
;
_chemical_formula_sum "Si O2"
_cell_formula_units_Z 52
_cell_length_a 17.114810
_cell_length_b 21.825583
_cell_length_c 7.317207
_cell_angle_alpha 90.000000
_cell_angle_beta 90.000000
_cell_angle_gamma 90.000000
_cell_volume 2733.274670
_symmetry_space_group_name_H-M "C M M M"
_symmetry_group_IT_number 65
_symmetry_cell_setting 'orthorhombic'
loop_
_space_group_symop_operation_xyz
x,y,z
-x,-y,z
x,-y,-z
-x,y,-z
-x,-y,-z
x,y,-z
-x,y,z
x,-y,z
1/2+x,1/2+y,z
1/2-x,1/2-y,z
1/2+x,1/2-y,-z
1/2-x,1/2+y,-z
1/2-x,1/2-y,-z
1/2+x,1/2+y,-z
1/2-x,1/2+y,z
1/2+x,1/2-y,z
loop_
_atom_site_type_symbol
_atom_site_label
_atom_site_fract_x
_atom_site_fract_y
_atom_site_fract_z
Si Si1 0.411097 0.176674 0.500000
Si Si2 0.000000 0.205680 0.500000
Si Si3 0.000000 0.101000 0.780976
Si Si4 0.278314 0.819267 0.780212
Si Si5 0.672138 0.566154 0.778657
O O1 0.500000 0.150630 0.500000
O O2 0.426563 0.249524 0.500000
O O3 0.358409 0.164378 0.323283
O O4 0.000000 0.165451 0.319972
O O5 0.918966 0.069625 0.727235
O O6 0.000000 0.107034 0.000000
O O7 0.250000 0.750000 0.733804
O O8 0.216772 0.872128 0.723653
O O9 0.287533 0.821031 0.000000
O O10 0.704553 0.500000 0.718069
O O11 0.674579 0.566343 0.000000
#
# Coordination Sequence:
#
# PCOD9487220 Si02
#       5
#     8   4   8  16  16
#     4  10  23  37  54  79 110 145 185 240 286 321
#     4  10  22  34  51  82 107 142 188 224 274 324
#     4  10  19  34  54  80 118 153 181 214 263 339
#     4  10  20  36  58  83 111 146 188 231 278 332
#     4   9  18  33  56  84 115 151 184 221 275 335
#
# _framework density 19.024798000000001
#
# number of rings (size 3 to 8) (size 9 to 14) (size 15 to 20)
#    0.462    1.846    0.000    2.769    0.000    7.385 
#    0.000    3.846    0.000    1.846    0.000    4.308 
#    0.000    0.000    0.000    0.000    0.000    0.000 
#
# Total GULP energy -144894.016149 kJ/mol
# GULP energy per Si atom -5572.846775 kJ/mol
# Density = 1.898150 g / cm^3
# Si number density = 19.024798 Si / 1000 Ang^3
#
#
#
# Elastic Constant Matrix: (Units=GPa)
#
#
# Indices 1 2 3 4 5 6 
#
# 1 141.1294 64.5731 34.5336 0.0000 0.0000 0.0000
# 2 64.5731 141.6756 14.7750 0.0000 0.0000 0.0000
# 3 34.5336 14.7750 76.8332 0.0000 0.0000 0.0000
# 4 0.0000 0.0000 0.0000 -237.5448 0.0000 0.0000
# 5 0.0000 0.0000 0.0000 0.0000 30.8273 0.0000
# 6 0.0000 0.0000 0.0000 0.0000 0.0000 -12.1219
#
#
#
# Elastic Compliance Matrix: (Units=1/GPa)
#
#
# Indices 1 2 3 4 5 6 
#
# 1 0.009859 -0.004114 -0.003640 0.000000 0.000000 0.000000
# 2 -0.004114 0.008919 0.000134 0.000000 0.000000 0.000000
# 3 -0.003640 0.000134 0.014626 0.000000 0.000000 0.000000
# 4 0.000000 0.000000 0.000000 -0.004210 0.000000 0.000000
# 5 0.000000 0.000000 0.000000 0.000000 0.032439 0.000000
# 6 0.000000 0.000000 0.000000 0.000000 0.000000 -0.082495
#
#
# Mechanical properties :
#
#
# Convention : Reuss Voigt Hill
#
# Bulk Modulus (GPa) = 55.05523 65.26686 60.16104
# Shear Modulus (GPa) = 11582.00129 -27.38411 5777.30859
#
# Velocity S-wave (km/s) = 78.10929 -3.79805 55.16627
# Velocity P-wave (km/s) = 90.35347 3.89193 63.94879
#
# Compressibility (1/GPa) = 0.01816358
#
# Stress axis : x y z
#
# Youngs Moduli (GPa) = 101.43406 112.11507 68.37363
#
# Poissons Ratio (x) = 0.46122 0.24888
# Poissons Ratio (y) = 0.41728 -0.00915
# Poissons Ratio (z) = 0.36922 -0.01500
#
# Static dielectric constant tensor:
#      x y z
#    x 1.662660 0.000000 0.000000 
#    y 0.000000 1.668180 0.000000 
#    z 0.000000 0.000000 1.680380 
# 
# From -- ./inp_files/6144.got.cif
#   From: 2010.05.17/outbox.cif.g08.bks.cpg/sg65_4_cif.got.tgz:6144.got - 2010.06.03 17:01:31.
