data_PCOD9487968
_publ_section_title
;
Structure prediction by ZEFSAII (Michael W. Deem and Ramdas Pophale) SiO2 
 PCOD9487968
Probable space group: C M M M
;
_chemical_formula_sum "Si O2"
_cell_formula_units_Z 56
_cell_length_a 18.329668
_cell_length_b 18.743039
_cell_length_c 7.320028
_cell_angle_alpha 90.000000
_cell_angle_beta 90.000000
_cell_angle_gamma 90.000000
_cell_volume 2514.822573
_symmetry_space_group_name_H-M "C M M M"
_symmetry_group_IT_number 65
_symmetry_cell_setting 'orthorhombic'
loop_
_space_group_symop_operation_xyz
x,y,z
-x,-y,z
x,-y,-z
-x,y,-z
-x,-y,-z
x,y,-z
-x,y,z
x,-y,z
1/2+x,1/2+y,z
1/2-x,1/2-y,z
1/2+x,1/2-y,-z
1/2-x,1/2+y,-z
1/2-x,1/2-y,-z
1/2+x,1/2+y,-z
1/2-x,1/2+y,z
1/2+x,1/2-y,z
loop_
_atom_site_type_symbol
_atom_site_label
_atom_site_fract_x
_atom_site_fract_y
_atom_site_fract_z
Si Si1 0.342359 0.583549 0.779410
Si Si2 0.500000 0.584393 0.778914
Si Si3 0.289960 0.181869 0.293318
Si Si4 0.084321 0.581013 0.722624
O O1 0.339995 0.500000 0.733768
O O2 0.421593 0.613477 0.719282
O O3 0.273439 0.623201 0.700979
O O4 0.338786 0.589137 0.000000
O O5 0.500000 0.500000 0.732932
O O6 0.500000 0.587720 0.000000
O O7 0.310869 0.203936 0.500000
O O8 0.250000 0.250000 0.205904
O O9 0.360217 0.141924 0.212493
O O10 0.087370 0.581233 0.500000
O O11 0.105005 0.500000 0.778998
O O12 0.000000 0.592981 0.774119
#
# Coordination Sequence:
#
# PCOD9487968 Si02
#       4
#    16   8  16  16
#     4   9  17  31  52  73  93 124 165 203 238 282
#     4   7  12  26  47  69  91 117 154 193 228 279
#     4  10  20  32  45  70 103 129 156 196 249 297
#     4   8  14  27  48  68  86 119 166 203 230 275
#
# _framework density 22.267973000000001
#
# number of rings (size 3 to 8) (size 9 to 14) (size 15 to 20)
#    0.000    3.286    0.000    3.429    0.000    2.286 
#    2.571    0.714    0.000    3.429    0.000    4.000 
#    0.000    0.000    0.000    0.000    0.000    0.000 
#
# Total GULP energy -156109.167152 kJ/mol
# GULP energy per Si atom -5575.327398 kJ/mol
# Density = 2.221729 g / cm^3
# Si number density = 22.267973 Si / 1000 Ang^3
#
#
#
# Elastic Constant Matrix: (Units=GPa)
#
#
# Indices 1 2 3 4 5 6 
#
# 1 137.5007 74.4559 2.9062 0.0000 0.0000 0.0000
# 2 74.4559 103.9433 9.9062 0.0000 0.0000 0.0000
# 3 2.9062 9.9062 85.0423 0.0000 0.0000 0.0000
# 4 0.0000 0.0000 0.0000 -4.3676 0.0000 0.0000
# 5 0.0000 0.0000 0.0000 0.0000 8.8122 0.0000
# 6 0.0000 0.0000 0.0000 0.0000 0.0000 27.2254
#
#
#
# Elastic Compliance Matrix: (Units=1/GPa)
#
#
# Indices 1 2 3 4 5 6 
#
# 1 0.011911 -0.008588 0.000593 0.000000 0.000000 0.000000
# 2 -0.008588 0.015921 -0.001561 0.000000 0.000000 0.000000
# 3 0.000593 -0.001561 0.011920 0.000000 0.000000 0.000000
# 4 0.000000 0.000000 0.000000 -0.228960 0.000000 0.000000
# 5 0.000000 0.000000 0.000000 0.000000 0.113478 0.000000
# 6 0.000000 0.000000 0.000000 0.000000 0.000000 0.036730
#
#
# Mechanical properties :
#
#
# Convention : Reuss Voigt Hill
#
# Bulk Modulus (GPa) = 48.44883 55.66922 52.05902
# Shear Modulus (GPa) = -384.42457 22.28188 -181.07135
#
# Velocity S-wave (km/s) = -13.15334 3.16670 -9.02725
# Velocity P-wave (km/s) = 14.45255 6.19876 9.23178
#
# Compressibility (1/GPa) = 0.02064033
#
# Stress axis : x y z
#
# Youngs Moduli (GPa) = 83.95825 62.80879 83.88966
#
# Poissons Ratio (x) = 0.53942 -0.04978
# Poissons Ratio (y) = 0.72106 0.13096
# Poissons Ratio (z) = -0.04982 0.09805
#
# Static dielectric constant tensor:
#      x y z
#    x 1.822100 0.000000 0.000000 
#    y 0.000000 1.815370 0.000000 
#    z 0.000000 0.000000 1.852300 
# 
# From -- ./inp_files/8486.got.cif
#   From: 2010.05.17/outbox.cif.g08.bks.cpg/sg65_5_cif.got.tgz:8486.got - 2010.06.03 17:01:31.
