data_PCOD9487979
_publ_section_title
;
Structure prediction by ZEFSAII (Michael W. Deem and Ramdas Pophale) SiO2 
 PCOD9487979
Probable space group: C M M M
;
_chemical_formula_sum "Si O2"
_cell_formula_units_Z 88
_cell_length_a 14.435394
_cell_length_b 30.464725
_cell_length_c 9.438078
_cell_angle_alpha 90.000000
_cell_angle_beta 90.000000
_cell_angle_gamma 90.000000
_cell_volume 4150.586473
_symmetry_space_group_name_H-M "C M M M"
_symmetry_group_IT_number 65
_symmetry_cell_setting 'orthorhombic'
loop_
_space_group_symop_operation_xyz
x,y,z
-x,-y,z
x,-y,-z
-x,y,-z
-x,-y,-z
x,y,-z
-x,y,z
x,-y,z
1/2+x,1/2+y,z
1/2-x,1/2-y,z
1/2+x,1/2-y,-z
1/2-x,1/2+y,-z
1/2-x,1/2-y,-z
1/2+x,1/2+y,-z
1/2-x,1/2+y,z
1/2+x,1/2-y,z
loop_
_atom_site_type_symbol
_atom_site_label
_atom_site_fract_x
_atom_site_fract_y
_atom_site_fract_z
Si Si1 0.611879 0.452731 0.829444
Si Si2 0.113907 0.404072 0.164204
Si Si3 0.890839 0.500000 0.172167
Si Si4 0.888048 0.858318 0.164571
Si Si5 0.643496 0.738139 0.839176
Si Si6 0.607627 0.822275 0.343070
O O1 0.500000 0.453664 0.810329
O O2 0.648049 0.500000 0.776753
O O3 0.644487 0.405221 0.774419
O O4 0.627234 0.452090 0.000000
O O5 0.145988 0.452236 0.216528
O O6 0.148374 0.362336 0.251930
O O7 0.000000 0.404950 0.164888
O O8 0.140750 0.398937 0.000000
O O9 0.000000 0.500000 0.209662
O O10 0.885447 0.500000 0.000000
O O11 0.864443 0.810625 0.224999
O O12 0.000000 0.860241 0.163350
O O13 0.856761 0.856557 0.000000
O O14 0.750000 0.750000 0.852630
O O15 0.606687 0.776733 0.741057
O O16 0.603720 0.738481 0.000000
O O17 0.648946 0.817907 0.500000
O O18 0.500000 0.834391 0.358896
#
# Coordination Sequence:
#
# PCOD9487979 Si02
#       6
#    16  16   8  16  16  16
#     4   7   9  14  27  51  82 109 129 156 204 262
#     4   8  13  23  41  64  89 116 144 177 221 271
#     4   7  10  18  35  61  89 113 139 173 218 271
#     4   8  13  22  38  60  85 111 140 176 217 263
#     4  10  20  32  46  65  87 118 156 191 228 270
#     4  10  20  32  46  66  91 118 151 191 233 277
#
# _framework density 21.201822
#
# number of rings (size 3 to 8) (size 9 to 14) (size 15 to 20)
#    0.000    3.545    0.000    3.818    0.000    2.182 
#    0.000    0.455    0.000    2.727    2.364    0.000 
#    0.000    0.727    0.000    6.727    0.000    5.455 
#
# Total GULP energy -244954.739328 kJ/mol
# GULP energy per Si atom -5567.153167 kJ/mol
# Density = 2.115357 g / cm^3
# Si number density = 21.201822 Si / 1000 Ang^3
#
#
#
# Elastic Constant Matrix: (Units=GPa)
#
#
# Indices 1 2 3 4 5 6 
#
# 1 42.7925 16.1426 0.4389 0.0000 0.0000 0.0000
# 2 16.1426 288.7292 67.4380 0.0000 0.0000 0.0000
# 3 0.4389 67.4380 56.9727 0.0000 0.0000 0.0000
# 4 0.0000 0.0000 0.0000 -33.8003 0.0000 0.0000
# 5 0.0000 0.0000 0.0000 0.0000 2.3922 0.0000
# 6 0.0000 0.0000 0.0000 0.0000 0.0000 24.0828
#
#
#
# Elastic Compliance Matrix: (Units=1/GPa)
#
#
# Indices 1 2 3 4 5 6 
#
# 1 0.024026 -0.001797 0.001942 0.000000 0.000000 0.000000
# 2 -0.001797 0.004921 -0.005811 0.000000 0.000000 0.000000
# 3 0.001942 -0.005811 0.024416 0.000000 0.000000 0.000000
# 4 0.000000 0.000000 0.000000 -0.029586 0.000000 0.000000
# 5 0.000000 0.000000 0.000000 0.000000 0.418025 0.000000
# 6 0.000000 0.000000 0.000000 0.000000 0.000000 0.041523
#
#
# Mechanical properties :
#
#
# Convention : Reuss Voigt Hill
#
# Bulk Modulus (GPa) = 23.79193 61.83706 42.81449
# Shear Modulus (GPa) = 9.82956 18.83327 14.33141
#
# Velocity S-wave (km/s) = 2.15552 2.98364 2.60273
# Velocity P-wave (km/s) = 4.17624 6.41083 5.41016
#
# Compressibility (1/GPa) = 0.04203106
#
# Stress axis : x y z
#
# Youngs Moduli (GPa) = 41.62074 203.19933 40.95637
#
# Poissons Ratio (x) = 0.36512 -0.07953
# Poissons Ratio (y) = 0.07479 0.23801
# Poissons Ratio (z) = -0.08082 1.18088
#
# Static dielectric constant tensor:
#      x y z
#    x 1.666360 0.000000 0.000000 
#    y 0.000000 1.837580 0.000000 
#    z 0.000000 0.000000 1.734970 
# 
# From -- ./inp_files/10096.got.cif
#   From: 2010.05.17/outbox.cif.g08.bks.cpg/sg65_6_cif.got.tgz:10096.got - 2010.06.03 17:01:31.
