data_PCOD9487384
_publ_section_title
;
Structure prediction by ZEFSAII (Michael W. Deem and Ramdas Pophale) SiO2 
 PCOD9487384
Probable space group: C M M M
;
_chemical_formula_sum "Si O2"
_cell_formula_units_Z 80
_cell_length_a 29.908881
_cell_length_b 9.035877
_cell_length_c 15.798549
_cell_angle_alpha 90.000000
_cell_angle_beta 90.000000
_cell_angle_gamma 90.000000
_cell_volume 4269.604788
_symmetry_space_group_name_H-M "C M M M"
_symmetry_group_IT_number 65
_symmetry_cell_setting 'orthorhombic'
loop_
_space_group_symop_operation_xyz
x,y,z
-x,-y,z
x,-y,-z
-x,y,-z
-x,-y,-z
x,y,-z
-x,y,z
x,-y,z
1/2+x,1/2+y,z
1/2-x,1/2-y,z
1/2+x,1/2-y,-z
1/2-x,1/2+y,-z
1/2-x,1/2-y,-z
1/2+x,1/2+y,-z
1/2-x,1/2+y,z
1/2+x,1/2-y,z
loop_
_atom_site_type_symbol
_atom_site_label
_atom_site_fract_x
_atom_site_fract_y
_atom_site_fract_z
Si Si1 0.704244 0.173409 0.850439
Si Si2 0.447642 0.178579 0.258847
Si Si3 0.607041 0.819503 0.093611
Si Si4 0.388369 0.675917 0.596155
Si Si5 0.703635 0.826089 0.645949
O O1 0.750000 0.250000 0.877908
O O2 0.658019 0.230360 0.889727
O O3 0.700361 0.187871 0.748406
O O4 0.707671 0.000000 0.870268
O O5 0.500000 0.214717 0.259769
O O6 0.424504 0.226059 0.170787
O O7 0.421275 0.251857 0.335916
O O8 0.443080 0.000000 0.265199
O O9 0.607793 0.000000 0.095181
O O10 0.592159 0.773737 0.000000
O O11 0.403712 0.702866 0.500000
O O12 0.385449 0.500000 0.609715
O O13 0.339448 0.746858 0.607894
O O14 0.750000 0.750000 0.619577
O O15 0.703860 0.000000 0.625364
#
# Coordination Sequence:
#
# PCOD9487384 Si02
#       5
#    16  16  16  16  16
#     4   9  17  30  50  78 112 149 186 224 268 322
#     4  10  21  39  62  86 112 145 188 238 293 347
#     4   9  17  32  55  84 117 149 184 229 280 335
#     4  11  24  40  59  84 114 150 192 236 287 344
#     4  10  19  34  57  85 118 154 193 234 279 334
#
# _framework density 18.737098
#
# number of rings (size 3 to 8) (size 9 to 14) (size 15 to 20)
#    0.000    2.200    2.000    1.200    0.000    4.400 
#    0.000    4.000    0.000    1.800    0.000    1.400 
#    0.000    0.000    0.000    0.000    0.000    0.000 
#
# Total GULP energy -223328.301005 kJ/mol
# GULP energy per Si atom -5583.207525 kJ/mol
# Density = 1.869445 g / cm^3
# Si number density = 18.737098 Si / 1000 Ang^3
#
#
#
# Elastic Constant Matrix: (Units=GPa)
#
#
# Indices 1 2 3 4 5 6 
#
# 1 159.5376 54.3480 100.4557 0.0000 0.0000 0.0000
# 2 54.3480 39.5630 55.7019 0.0000 0.0000 0.0000
# 3 100.4557 55.7019 129.8822 0.0000 0.0000 0.0000
# 4 0.0000 0.0000 0.0000 9.6966 0.0000 0.0000
# 5 0.0000 0.0000 0.0000 0.0000 -5.8495 0.0000
# 6 0.0000 0.0000 0.0000 0.0000 0.0000 29.4238
#
#
#
# Elastic Compliance Matrix: (Units=1/GPa)
#
#
# Indices 1 2 3 4 5 6 
#
# 1 0.013560 -0.009747 -0.006308 0.000000 0.000000 0.000000
# 2 -0.009747 0.070804 -0.022827 0.000000 0.000000 0.000000
# 3 -0.006308 -0.022827 0.022368 0.000000 0.000000 0.000000
# 4 0.000000 0.000000 0.000000 0.103129 0.000000 0.000000
# 5 0.000000 0.000000 0.000000 0.000000 -0.170954 0.000000
# 6 0.000000 0.000000 0.000000 0.000000 0.000000 0.033986
#
#
# Mechanical properties :
#
#
# Convention : Reuss Voigt Hill
#
# Bulk Modulus (GPa) = 34.51995 83.33267 58.92631
# Shear Modulus (GPa) = 31.18907 14.55265 22.87086
#
# Velocity S-wave (km/s) = 4.08433 2.78991 3.49753
# Velocity P-wave (km/s) = 6.38010 7.41279 6.91575
#
# Compressibility (1/GPa) = 0.02896876
#
# Stress axis : x y z
#
# Youngs Moduli (GPa) = 73.74382 14.12359 44.70717
#
# Poissons Ratio (x) = 0.13766 0.28202
# Poissons Ratio (y) = 0.71876 1.02052
# Poissons Ratio (z) = 0.46519 0.32239
#
# Static dielectric constant tensor:
#      x y z
#    x 1.619420 0.000000 0.000000 
#    y 0.000000 1.627870 0.000000 
#    z 0.000000 0.000000 1.665250 
# 
# From -- ./inp_files/50122.got.cif
#   From: 2010.05.17/outbox.cif.g08.bks.cpg/sg65_26_cif.got.tgz:50122.got - 2010.06.03 17:01:31.
