data_PCOD9487532
_publ_section_title
;
Structure prediction by ZEFSAII (Michael W. Deem and Ramdas Pophale) SiO2 
 PCOD9487532
Probable space group: C M M M
;
_chemical_formula_sum "Si O2"
_cell_formula_units_Z 88
_cell_length_a 35.069208
_cell_length_b 11.346807
_cell_length_c 12.303255
_cell_angle_alpha 90.000000
_cell_angle_beta 90.000000
_cell_angle_gamma 90.000000
_cell_volume 4895.754719
_symmetry_space_group_name_H-M "C M M M"
_symmetry_group_IT_number 65
_symmetry_cell_setting 'orthorhombic'
loop_
_space_group_symop_operation_xyz
x,y,z
-x,-y,z
x,-y,-z
-x,y,-z
-x,-y,-z
x,y,-z
-x,y,z
x,-y,z
1/2+x,1/2+y,z
1/2-x,1/2-y,z
1/2+x,1/2-y,-z
1/2-x,1/2+y,-z
1/2-x,1/2-y,-z
1/2+x,1/2+y,-z
1/2-x,1/2+y,z
1/2+x,1/2-y,z
loop_
_atom_site_type_symbol
_atom_site_label
_atom_site_fract_x
_atom_site_fract_y
_atom_site_fract_z
Si Si1 0.571984 0.500000 0.130503
Si Si2 0.715838 0.500000 0.625865
Si Si3 0.250000 0.250000 0.290705
Si Si4 0.837277 0.000000 0.826653
Si Si5 0.953653 0.864660 0.500000
Si Si6 0.684534 0.242086 0.878623
Si Si7 0.101740 0.639064 0.877575
Si Si8 0.544913 0.274377 0.263716
O O1 0.617187 0.500000 0.158380
O O2 0.553048 0.387761 0.188211
O O3 0.567518 0.500000 0.000000
O O4 0.705722 0.500000 0.500000
O O5 0.737536 0.373425 0.649734
O O6 0.678669 0.500000 0.703559
O O7 0.284664 0.212711 0.211769
O O8 0.820288 0.882717 0.878865
O O9 0.942663 0.803145 0.612798
O O10 0.000000 0.868121 0.500000
O O11 0.940261 0.000000 0.500000
O O12 0.642766 0.193317 0.850764
O O13 0.694917 0.200141 0.000000
O O14 0.105668 0.500000 0.881663
O O15 0.070222 0.674658 0.791147
O O16 0.091504 0.682212 0.000000
O O17 0.500000 0.248014 0.263754
#
# Coordination Sequence:
#
# PCOD9487532 Si02
#       8
#     8   8   8   8   8  16  16  16
#     4  12  21  33  54  87 122 150 183 240 300 353
#     4  10  22  42  61  85 119 157 200 245 293 342
#     4  10  22  36  62  90 114 152 196 242 288 350
#     4  10  20  35  56  86 119 154 187 230 295 350
#     4   9  18  36  57  81 113 144 182 240 299 350
#     4  10  19  35  57  86 120 150 184 230 289 351
#     4  10  22  38  57  81 118 161 196 240 292 347
#     4  11  22  37  58  84 113 152 198 243 296 352
#
# _framework density 17.974755999999999
#
# number of rings (size 3 to 8) (size 9 to 14) (size 15 to 20)
#    0.000    1.727    2.727    2.182    1.273    2.182 
#    1.636    2.273    2.000    1.636    0.000    0.000 
#    0.000    0.000    0.000    0.000    0.000    0.000 
#
# Total GULP energy -245369.917174 kJ/mol
# GULP energy per Si atom -5576.589027 kJ/mol
# Density = 1.793384 g / cm^3
# Si number density = 17.974756 Si / 1000 Ang^3
#
#
#
# Elastic Constant Matrix: (Units=GPa)
#
#
# Indices 1 2 3 4 5 6 
#
# 1 48.2713 11.8184 61.6032 0.0000 0.0000 0.0000
# 2 11.8184 59.4243 28.5335 0.0000 0.0000 0.0000
# 3 61.6032 28.5335 147.3410 0.0000 0.0000 0.0000
# 4 0.0000 0.0000 0.0000 79.1334 0.0000 0.0000
# 5 0.0000 0.0000 0.0000 0.0000 47.9032 0.0000
# 6 0.0000 0.0000 0.0000 0.0000 0.0000 12.4635
#
#
#
# Elastic Compliance Matrix: (Units=1/GPa)
#
#
# Indices 1 2 3 4 5 6 
#
# 1 0.044415 0.000092 -0.018588 0.000000 0.000000 0.000000
# 2 0.000092 0.018554 -0.003631 0.000000 0.000000 0.000000
# 3 -0.018588 -0.003631 0.015262 0.000000 0.000000 0.000000
# 4 0.000000 0.000000 0.000000 0.012637 0.000000 0.000000
# 5 0.000000 0.000000 0.000000 0.000000 0.020875 0.000000
# 6 0.000000 0.000000 0.000000 0.000000 0.000000 0.080234
#
#
# Mechanical properties :
#
#
# Convention : Reuss Voigt Hill
#
# Bulk Modulus (GPa) = 29.43269 50.99408 40.21338
# Shear Modulus (GPa) = 20.19738 38.10546 29.15142
#
# Velocity S-wave (km/s) = 3.35573 4.60928 4.03152
# Velocity P-wave (km/s) = 5.60576 7.53384 6.64015
#
# Compressibility (1/GPa) = 0.03397583
#
# Stress axis : x y z
#
# Youngs Moduli (GPa) = 22.51485 53.89805 65.52339
#
# Poissons Ratio (x) = -0.00495 1.21793
# Poissons Ratio (y) = -0.00207 0.23794
# Poissons Ratio (z) = 0.41850 0.19573
#
# Static dielectric constant tensor:
#      x y z
#    x 1.596120 0.000000 0.000000 
#    y 0.000000 1.422680 0.000000 
#    z 0.000000 0.000000 1.627370 
# 
# From -- ./inp_files/33695.got.cif
#   From: 2010.05.17/outbox.cif.g08.bks.cpg/sg65_17_cif.got.tgz:33695.got - 2010.06.03 17:01:31.
