data_PCOD9487428
_publ_section_title
;
Structure prediction by ZEFSAII (Michael W. Deem and Ramdas Pophale) SiO2 
 PCOD9487428
Probable space group: C M M M
;
_chemical_formula_sum "Si O2"
_cell_formula_units_Z 88
_cell_length_a 29.427447
_cell_length_b 8.678264
_cell_length_c 18.328485
_cell_angle_alpha 90.000000
_cell_angle_beta 90.000000
_cell_angle_gamma 90.000000
_cell_volume 4680.712992
_symmetry_space_group_name_H-M "C M M M"
_symmetry_group_IT_number 65
_symmetry_cell_setting 'orthorhombic'
loop_
_space_group_symop_operation_xyz
x,y,z
-x,-y,z
x,-y,-z
-x,y,-z
-x,-y,-z
x,y,-z
-x,y,z
x,-y,z
1/2+x,1/2+y,z
1/2-x,1/2-y,z
1/2+x,1/2-y,-z
1/2-x,1/2+y,-z
1/2-x,1/2-y,-z
1/2+x,1/2+y,-z
1/2-x,1/2+y,z
1/2+x,1/2-y,z
loop_
_atom_site_type_symbol
_atom_site_label
_atom_site_fract_x
_atom_site_fract_y
_atom_site_fract_z
Si Si1 0.201942 0.315021 0.352208
Si Si2 0.552208 0.685806 0.282120
Si Si3 0.201404 0.684710 0.818907
Si Si4 0.607140 0.685166 0.862091
Si Si5 0.553079 0.185031 0.000000
Si Si6 0.893647 0.313638 0.417723
O O1 0.204097 0.500000 0.354952
O O2 0.250000 0.250000 0.378597
O O3 0.196343 0.270160 0.266927
O O4 0.157641 0.264519 0.396491
O O5 0.500000 0.734461 0.271946
O O6 0.553283 0.500000 0.284636
O O7 0.582866 0.734869 0.213461
O O8 0.572802 0.750060 0.356653
O O9 0.201429 0.500000 0.823145
O O10 0.250000 0.750000 0.843632
O O11 0.158412 0.752376 0.861037
O O12 0.607533 0.500000 0.864842
O O13 0.578337 0.749916 0.929065
O O14 0.500000 0.230579 0.000000
O O15 0.555546 0.000000 0.000000
O O16 0.904839 0.265078 0.500000
O O17 0.894671 0.500000 0.414999
#
# Coordination Sequence:
#
# PCOD9487428 Si02
#       6
#    16  16  16  16   8  16
#     4   9  18  32  52  79 112 148 189 236 286 340
#     4  10  22  39  59  83 111 147 193 242 292 347
#     4  10  19  34  58  88 121 156 197 241 289 345
#     4  11  22  39  64  91 121 156 195 240 293 349
#     4  11  25  43  64  93 126 159 195 239 293 349
#     4  10  21  37  55  79 113 151 193 242 294 347
#
# _framework density 18.800554999999999
#
# number of rings (size 3 to 8) (size 9 to 14) (size 15 to 20)
#    0.000    1.909    1.818    1.909    0.000    5.091 
#    0.000    2.273    0.000    0.000    0.000    0.000 
#    0.000    0.000    0.000    0.000    0.000    0.000 
#
# Total GULP energy -245780.548465 kJ/mol
# GULP energy per Si atom -5585.921556 kJ/mol
# Density = 1.875776 g / cm^3
# Si number density = 18.800555 Si / 1000 Ang^3
#
#
#
# Elastic Constant Matrix: (Units=GPa)
#
#
# Indices 1 2 3 4 5 6 
#
# 1 170.2316 40.9865 78.8179 0.0000 0.0000 0.0000
# 2 40.9865 30.8962 32.2648 0.0000 0.0000 0.0000
# 3 78.8179 32.2648 113.2789 0.0000 0.0000 0.0000
# 4 0.0000 0.0000 0.0000 27.2703 0.0000 0.0000
# 5 0.0000 0.0000 0.0000 0.0000 9.0430 0.0000
# 6 0.0000 0.0000 0.0000 0.0000 0.0000 31.8055
#
#
#
# Elastic Compliance Matrix: (Units=1/GPa)
#
#
# Indices 1 2 3 4 5 6 
#
# 1 0.010044 -0.008578 -0.004545 0.000000 0.000000 0.000000
# 2 -0.008578 0.053395 -0.009240 0.000000 0.000000 0.000000
# 3 -0.004545 -0.009240 0.014622 0.000000 0.000000 0.000000
# 4 0.000000 0.000000 0.000000 0.036670 0.000000 0.000000
# 5 0.000000 0.000000 0.000000 0.000000 0.110583 0.000000
# 6 0.000000 0.000000 0.000000 0.000000 0.000000 0.031441
#
#
# Mechanical properties :
#
#
# Convention : Reuss Voigt Hill
#
# Bulk Modulus (GPa) = 29.99861 68.72724 49.36293
# Shear Modulus (GPa) = 15.99524 24.44626 20.22075
#
# Velocity S-wave (km/s) = 2.91999 3.60987 3.28310
# Velocity P-wave (km/s) = 5.23061 7.34916 6.37846
#
# Compressibility (1/GPa) = 0.03333488
#
# Stress axis : x y z
#
# Youngs Moduli (GPa) = 99.56060 18.72847 68.38907
#
# Poissons Ratio (x) = 0.16065 0.31086
# Poissons Ratio (y) = 0.85399 0.63191
# Poissons Ratio (z) = 0.45255 0.17305
#
# Static dielectric constant tensor:
#      x y z
#    x 1.635630 0.000000 0.000000 
#    y 0.000000 1.633610 0.000000 
#    z 0.000000 0.000000 1.634000 
# 
# From -- ./inp_files/57960.got.cif
#   From: 2010.05.17/outbox.cif.g08.bks.cpg/sg65_29_cif.got.tgz:57960.got - 2010.06.03 17:01:31.
