data_PCOD9487068
_publ_section_title
;
Structure prediction by ZEFSAII (Michael W. Deem and Ramdas Pophale) SiO2 
 PCOD9487068
Probable space group: C M M M
;
_chemical_formula_sum "Si O2"
_cell_formula_units_Z 66
_cell_length_a 19.519994
_cell_length_b 15.352264
_cell_length_c 12.447147
_cell_angle_alpha 90.000000
_cell_angle_beta 90.000000
_cell_angle_gamma 90.000000
_cell_volume 3730.112484
_symmetry_space_group_name_H-M "C M M M"
_symmetry_group_IT_number 65
_symmetry_cell_setting 'orthorhombic'
loop_
_space_group_symop_operation_xyz
x,y,z
-x,-y,z
x,-y,-z
-x,y,-z
-x,-y,-z
x,y,-z
-x,y,z
x,-y,z
1/2+x,1/2+y,z
1/2-x,1/2-y,z
1/2+x,1/2-y,-z
1/2-x,1/2+y,-z
1/2-x,1/2-y,-z
1/2+x,1/2+y,-z
1/2-x,1/2+y,z
1/2+x,1/2-y,z
loop_
_atom_site_type_symbol
_atom_site_label
_atom_site_fract_x
_atom_site_fract_y
_atom_site_fract_z
Si Si1 0.652254 0.097880 0.776262
Si Si2 0.611622 0.343408 0.000000
Si Si3 0.833430 0.755690 0.623095
Si Si4 0.078527 0.643130 0.000000
Si Si5 0.000000 0.000000 0.000000
Si Si6 0.817268 0.100263 0.786789
O O1 0.637053 0.174819 0.691595
O O2 0.734775 0.101200 0.787879
O O3 0.634392 0.000000 0.738478
O O4 0.617263 0.113247 0.891718
O O5 0.657387 0.353739 0.894253
O O6 0.579281 0.248067 0.000000
O O7 0.558871 0.422885 0.000000
O O8 0.856753 0.755493 0.500000
O O9 0.750000 0.750000 0.621805
O O10 0.846224 0.844953 0.686990
O O11 0.000000 0.612197 0.000000
O O12 0.839799 0.000000 0.784136
#
# Coordination Sequence:
#
# PCOD9487068 Si02
#       6
#    16   8  16   8   2  16
#     4  10  21  35  54  81 110 143 181 225 275 322
#     4  12  21  34  54  81 110 144 177 217 270 331
#     4   9  18  32  52  81 113 142 177 223 272 319
#     4  12  24  36  54  80 108 143 182 224 276 327
#     4  12  24  36  52  88 116 140 178 220 268 334
#     4  10  19  33  56  82 111 143 178 223 273 327
#
# _framework density 17.693836000000001
#
# number of rings (size 3 to 8) (size 9 to 14) (size 15 to 20)
#    0.000    1.697    4.242    1.091    0.000    4.848 
#    0.000    4.848    0.000    0.727    0.000    2.545 
#    0.000    0.000    0.000    0.000    0.000    0.000 
#
# Total GULP energy -183785.586608 kJ/mol
# GULP energy per Si atom -5569.260200 kJ/mol
# Density = 1.765356 g / cm^3
# Si number density = 17.693836 Si / 1000 Ang^3
#
#
#
# Elastic Constant Matrix: (Units=GPa)
#
#
# Indices 1 2 3 4 5 6 
#
# 1 17.9959 22.6416 20.3735 0.0000 0.0000 0.0000
# 2 22.6416 109.1459 49.6185 0.0000 0.0000 0.0000
# 3 20.3735 49.6185 150.2093 0.0000 0.0000 0.0000
# 4 0.0000 0.0000 0.0000 9.4230 0.0000 0.0000
# 5 0.0000 0.0000 0.0000 0.0000 4.2796 0.0000
# 6 0.0000 0.0000 0.0000 0.0000 0.0000 15.8606
#
#
#
# Elastic Compliance Matrix: (Units=1/GPa)
#
#
# Indices 1 2 3 4 5 6 
#
# 1 0.079981 -0.013720 -0.006316 0.000000 0.000000 0.000000
# 2 -0.013720 0.013135 -0.002478 0.000000 0.000000 0.000000
# 3 -0.006316 -0.002478 0.008333 0.000000 0.000000 0.000000
# 4 0.000000 0.000000 0.000000 0.106124 0.000000 0.000000
# 5 0.000000 0.000000 0.000000 0.000000 0.233666 0.000000
# 6 0.000000 0.000000 0.000000 0.000000 0.000000 0.063049
#
#
# Mechanical properties :
#
#
# Convention : Reuss Voigt Hill
#
# Bulk Modulus (GPa) = 17.72422 51.40203 34.56312
# Shear Modulus (GPa) = 8.80094 18.22714 13.51404
#
# Velocity S-wave (km/s) = 2.23267 3.21306 2.76664
# Velocity P-wave (km/s) = 4.08477 6.54820 5.45730
#
# Compressibility (1/GPa) = 0.05641998
#
# Stress axis : x y z
#
# Youngs Moduli (GPa) = 12.50301 76.13448 120.01146
#
# Poissons Ratio (x) = 1.04458 0.75798
# Poissons Ratio (y) = 0.17154 0.29737
# Poissons Ratio (z) = 0.07897 0.18865
#
# Static dielectric constant tensor:
#      x y z
#    x 1.587250 0.000000 0.000000 
#    y 0.000000 1.619740 0.000000 
#    z 0.000000 0.000000 1.579090 
# 
# From -- ./inp_files/24300.got.cif
#   From: 2010.05.17/outbox.cif.g08.bks.cpg/sg65_13_cif.got.tgz:24300.got - 2010.06.03 17:01:31.
