data_PCOD9487431
_publ_section_title
;
Structure prediction by ZEFSAII (Michael W. Deem and Ramdas Pophale) SiO2 
 PCOD9487431
Probable space group: C M M M
;
_chemical_formula_sum "Si O2"
_cell_formula_units_Z 90
_cell_length_a 23.538850
_cell_length_b 9.135265
_cell_length_c 23.347705
_cell_angle_alpha 90.000000
_cell_angle_beta 90.000000
_cell_angle_gamma 90.000000
_cell_volume 5020.541818
_symmetry_space_group_name_H-M "C M M M"
_symmetry_group_IT_number 65
_symmetry_cell_setting 'orthorhombic'
loop_
_space_group_symop_operation_xyz
x,y,z
-x,-y,z
x,-y,-z
-x,y,-z
-x,-y,-z
x,y,-z
-x,y,z
x,-y,z
1/2+x,1/2+y,z
1/2-x,1/2-y,z
1/2+x,1/2-y,-z
1/2-x,1/2+y,-z
1/2-x,1/2-y,-z
1/2+x,1/2+y,-z
1/2-x,1/2+y,z
1/2+x,1/2-y,z
loop_
_atom_site_type_symbol
_atom_site_label
_atom_site_fract_x
_atom_site_fract_y
_atom_site_fract_z
Si Si1 0.111554 0.673021 0.275617
Si Si2 0.686977 0.322781 0.627022
Si Si3 0.190957 0.668952 0.164108
Si Si4 0.626530 0.334882 0.935460
Si Si5 0.000000 0.178109 0.774200
Si Si6 0.500000 0.000000 0.000000
Si Si7 0.189233 0.173588 0.500000
Si Si8 0.500000 0.735276 0.907500
O O1 0.100030 0.500000 0.286630
O O2 0.145370 0.749013 0.327349
O O3 0.152313 0.681151 0.220275
O O4 0.055111 0.762129 0.259010
O O5 0.691111 0.500000 0.634816
O O6 0.750000 0.250000 0.632047
O O7 0.663917 0.291915 0.562347
O O8 0.202425 0.500000 0.152610
O O9 0.250000 0.750000 0.173094
O O10 0.157059 0.736800 0.111111
O O11 0.649159 0.500000 0.932042
O O12 0.559457 0.340173 0.922711
O O13 0.634603 0.278574 0.000000
O O14 0.000000 0.248091 0.838330
O O15 0.000000 0.000000 0.779196
O O16 0.500000 0.875047 0.051094
O O17 0.250000 0.250000 0.500000
O O18 0.198165 0.000000 0.500000
#
# Coordination Sequence:
#
# PCOD9487431 Si02
#       8
#    16  16  16  16   8   2   8   8
#     4  11  24  40  60  88 120 156 198 247 298 358
#     4  10  19  34  58  89 126 165 205 250 299 352
#     4  11  25  41  60  82 112 151 192 235 288 349
#     4  11  23  40  62  87 115 144 185 238 291 349
#     4  12  25  41  65  91 118 156 197 247 303 361
#     4  12  28  36  66  96 128 152 190 250 304 370
#     4   8  16  30  52  85 122 161 204 248 296 348
#     4  12  24  39  63  91 119 149 190 236 300 357
#
# _framework density 17.926352000000001
#
# number of rings (size 3 to 8) (size 9 to 14) (size 15 to 20)
#    0.000    1.244    2.667    3.200    2.489    5.689 
#    0.000    0.000    0.000    0.533    0.000    3.733 
#    0.000    0.000    0.000    0.000    0.000    0.000 
#
# Total GULP energy -250868.516053 kJ/mol
# GULP energy per Si atom -5574.855912 kJ/mol
# Density = 1.788555 g / cm^3
# Si number density = 17.926352 Si / 1000 Ang^3
#
#
#
# Elastic Constant Matrix: (Units=GPa)
#
#
# Indices 1 2 3 4 5 6 
#
# 1 87.0268 61.8838 44.4443 0.0000 0.0000 0.0000
# 2 61.8838 118.4026 69.9066 0.0000 0.0000 0.0000
# 3 44.4443 69.9066 152.2086 0.0000 0.0000 0.0000
# 4 0.0000 0.0000 0.0000 27.2812 0.0000 0.0000
# 5 0.0000 0.0000 0.0000 0.0000 34.0360 0.0000
# 6 0.0000 0.0000 0.0000 0.0000 0.0000 239.7091
#
#
#
# Elastic Compliance Matrix: (Units=1/GPa)
#
#
# Indices 1 2 3 4 5 6 
#
# 1 0.018478 -0.008880 -0.001317 0.000000 0.000000 0.000000
# 2 -0.008880 0.015855 -0.004689 0.000000 0.000000 0.000000
# 3 -0.001317 -0.004689 0.009108 0.000000 0.000000 0.000000
# 4 0.000000 0.000000 0.000000 0.036655 0.000000 0.000000
# 5 0.000000 0.000000 0.000000 0.000000 0.029381 0.000000
# 6 0.000000 0.000000 0.000000 0.000000 0.000000 0.004172
#
#
# Mechanical properties :
#
#
# Convention : Reuss Voigt Hill
#
# Bulk Modulus (GPa) = 73.15805 78.90083 76.02944
# Shear Modulus (GPa) = 33.78883 72.29879 53.04381
#
# Velocity S-wave (km/s) = 4.34622 6.35756 5.44556
# Velocity P-wave (km/s) = 8.12927 9.89954 9.05776
#
# Compressibility (1/GPa) = 0.01366904
#
# Stress axis : x y z
#
# Youngs Moduli (GPa) = 54.11916 63.06961 109.79135
#
# Poissons Ratio (x) = 0.56005 0.14460
# Poissons Ratio (y) = 0.48057 0.51484
# Poissons Ratio (z) = 0.07128 0.29575
#
# Static dielectric constant tensor:
#      x y z
#    x 1.587270 0.000000 0.000000 
#    y 0.000000 1.739510 0.000000 
#    z 0.000000 0.000000 1.623020 
# 
# From -- ./inp_files/65306.got.cif
#   From: 2010.05.17/outbox.cif.g08.bks.cpg/sg65_33_cif.got.tgz:65306.got - 2010.06.03 17:01:31.
