data_PCOD9487359
_publ_section_title
;
Structure prediction by ZEFSAII (Michael W. Deem and Ramdas Pophale) SiO2 
 PCOD9487359
Probable space group: C M M M
;
_chemical_formula_sum "Si O2"
_cell_formula_units_Z 80
_cell_length_a 19.380756
_cell_length_b 8.519776
_cell_length_c 26.445291
_cell_angle_alpha 90.000000
_cell_angle_beta 90.000000
_cell_angle_gamma 90.000000
_cell_volume 4366.638512
_symmetry_space_group_name_H-M "C M M M"
_symmetry_group_IT_number 65
_symmetry_cell_setting 'orthorhombic'
loop_
_space_group_symop_operation_xyz
x,y,z
-x,-y,z
x,-y,-z
-x,y,-z
-x,-y,-z
x,y,-z
-x,y,z
x,-y,z
1/2+x,1/2+y,z
1/2-x,1/2-y,z
1/2+x,1/2-y,-z
1/2-x,1/2+y,-z
1/2-x,1/2-y,-z
1/2+x,1/2+y,-z
1/2-x,1/2+y,z
1/2+x,1/2-y,z
loop_
_atom_site_type_symbol
_atom_site_label
_atom_site_fract_x
_atom_site_fract_y
_atom_site_fract_z
Si Si1 0.079556 0.811888 0.202869
Si Si2 0.173358 0.311602 0.292238
Si Si3 0.578762 0.808009 0.500000
Si Si4 0.171749 0.688921 0.000000
Si Si5 0.326103 0.189353 0.407961
Si Si6 0.328699 0.811195 0.889044
O O1 0.117907 0.752150 0.253023
O O2 0.122906 0.751741 0.155006
O O3 0.000000 0.758434 0.200978
O O4 0.080525 0.000000 0.202757
O O5 0.174215 0.500000 0.290098
O O6 0.250000 0.250000 0.279260
O O7 0.158411 0.261898 0.350218
O O8 0.500000 0.755454 0.500000
O O9 0.619484 0.757344 0.449818
O O10 0.578681 0.000000 0.500000
O O11 0.250000 0.750000 0.000000
O O12 0.143883 0.738009 0.054955
O O13 0.171834 0.500000 0.000000
O O14 0.250000 0.250000 0.420949
O O15 0.324782 0.000000 0.408532
O O16 0.250000 0.750000 0.883361
O O17 0.326677 0.000000 0.886762
#
# Coordination Sequence:
#
# PCOD9487359 Si02
#       6
#    16  16   8   8  16  16
#     4  11  24  39  53  73 104 140 176 215 261 310
#     4  10  20  35  56  80 104 133 173 217 261 310
#     4   9  17  30  49  75 106 137 170 208 250 297
#     4   8  16  30  51  80 107 133 167 209 255 300
#     4   9  18  32  53  78 102 132 168 209 254 301
#     4  10  19  34  57  82 108 137 172 213 256 305
#
# _framework density 18.320730000000001
#
# number of rings (size 3 to 8) (size 9 to 14) (size 15 to 20)
#    0.000    2.300    0.000    2.700    0.000    4.000 
#    0.000    2.500    0.000    4.200    0.000    0.000 
#    0.000    0.000    0.000    0.000    0.000    0.000 
#
# Total GULP energy -223164.910266 kJ/mol
# GULP energy per Si atom -5579.122757 kJ/mol
# Density = 1.827903 g / cm^3
# Si number density = 18.320730 Si / 1000 Ang^3
#
#
#
# Elastic Constant Matrix: (Units=GPa)
#
#
# Indices 1 2 3 4 5 6 
#
# 1 149.0199 30.7998 124.7664 0.0000 0.0000 0.0000
# 2 30.7998 31.2724 30.4421 0.0000 0.0000 0.0000
# 3 124.7664 30.4421 160.4658 0.0000 0.0000 0.0000
# 4 0.0000 0.0000 0.0000 0.3110 0.0000 0.0000
# 5 0.0000 0.0000 0.0000 0.0000 -7.0788 0.0000
# 6 0.0000 0.0000 0.0000 0.0000 0.0000 24.1417
#
#
#
# Elastic Compliance Matrix: (Units=1/GPa)
#
#
# Indices 1 2 3 4 5 6 
#
# 1 0.019993 -0.005591 -0.014485 0.000000 0.000000 0.000000
# 2 -0.005591 0.040784 -0.003390 0.000000 0.000000 0.000000
# 3 -0.014485 -0.003390 0.018137 0.000000 0.000000 0.000000
# 4 0.000000 0.000000 0.000000 3.215458 0.000000 0.000000
# 5 0.000000 0.000000 0.000000 0.000000 -0.141267 0.000000
# 6 0.000000 0.000000 0.000000 0.000000 0.000000 0.041422
#
#
# Mechanical properties :
#
#
# Convention : Reuss Voigt Hill
#
# Bulk Modulus (GPa) = 31.26676 79.19718 55.23197
# Shear Modulus (GPa) = 1.53746 13.79143 7.66444
#
# Velocity S-wave (km/s) = 0.91707 2.74666 2.04757
# Velocity P-wave (km/s) = 4.26904 7.30622 5.98354
#
# Compressibility (1/GPa) = 0.03198285
#
# Stress axis : x y z
#
# Youngs Moduli (GPa) = 50.01665 24.51967 55.13546
#
# Poissons Ratio (x) = 0.13709 0.79862
# Poissons Ratio (y) = 0.27965 0.18690
# Poissons Ratio (z) = 0.72447 0.08312
#
# Static dielectric constant tensor:
#      x y z
#    x 1.585930 0.000000 0.000000 
#    y 0.000000 1.622980 0.000000 
#    z 0.000000 0.000000 1.655930 
# 
# From -- ./inp_files/75041.got.cif
#   From: 2010.05.17/outbox.cif.g08.bks.cpg/sg65_38_cif.got.tgz:75041.got - 2010.06.03 17:01:31.
