data_PCOD9487714
_publ_section_title
;
Structure prediction by ZEFSAII (Michael W. Deem and Ramdas Pophale) SiO2 
 PCOD9487714
Probable space group: C M M M
;
_chemical_formula_sum "Si O2"
_cell_formula_units_Z 100
_cell_length_a 21.050331
_cell_length_b 29.802150
_cell_length_c 7.552109
_cell_angle_alpha 90.000000
_cell_angle_beta 90.000000
_cell_angle_gamma 90.000000
_cell_volume 4737.778742
_symmetry_space_group_name_H-M "C M M M"
_symmetry_group_IT_number 65
_symmetry_cell_setting 'orthorhombic'
loop_
_space_group_symop_operation_xyz
x,y,z
-x,-y,z
x,-y,-z
-x,y,-z
-x,-y,-z
x,y,-z
-x,y,z
x,-y,z
1/2+x,1/2+y,z
1/2-x,1/2-y,z
1/2+x,1/2-y,-z
1/2-x,1/2+y,-z
1/2-x,1/2-y,-z
1/2+x,1/2+y,-z
1/2-x,1/2+y,z
1/2+x,1/2-y,z
loop_
_atom_site_type_symbol
_atom_site_label
_atom_site_fract_x
_atom_site_fract_y
_atom_site_fract_z
Si Si1 0.818471 0.855153 0.715130
Si Si2 0.273015 0.449925 0.712880
Si Si3 0.309292 0.804929 0.714664
Si Si4 0.500000 0.746474 0.500000
Si Si5 0.876351 0.449913 0.789411
Si Si6 0.894378 0.227476 0.199066
Si Si7 0.568469 0.142533 0.705429
O O1 0.819479 0.854931 0.500000
O O2 0.812709 0.906839 0.774786
O O3 0.754087 0.829794 0.774474
O O4 0.876927 0.824877 0.776910
O O5 0.278691 0.451041 0.500000
O O6 0.289243 0.500000 0.780134
O O7 0.198399 0.442045 0.752533
O O8 0.306801 0.805681 0.500000
O O9 0.328519 0.754987 0.769866
O O10 0.369990 0.833460 0.780561
O O11 0.444267 0.743338 0.344898
O O12 0.891602 0.500000 0.724431
O O13 0.917590 0.410264 0.709945
O O14 0.885722 0.448931 0.000000
O O15 0.916227 0.235804 0.000000
O O16 0.564722 0.156946 0.500000
O O17 0.500000 0.152523 0.786401
#
# Coordination Sequence:
#
# PCOD9487714 Si02
#       7
#    16  16  16   4  16  16  16
#     4  10  19  37  62  93 131 166 201 257 318 359
#     4   9  17  32  58  88 118 156 202 246 300 365
#     4  10  20  37  61  88 124 165 205 262 315 357
#     4  12  26  52  66  90 133 158 201 272 298 376
#     4  10  20  33  48  70 106 150 195 254 315 357
#     4  12  26  42  68  95 122 170 210 248 314 374
#     4  10  21  35  54  76 103 151 206 254 305 357
#
# _framework density 21.106938
#
# number of rings (size 3 to 8) (size 9 to 14) (size 15 to 20)
#    0.000    1.760    3.200    1.200    1.120    5.440 
#    0.000    1.600    0.000    0.000    0.000    1.120 
#    0.000    1.280    0.000    0.000    0.000    0.000 
#
# Total GULP energy -278867.543416 kJ/mol
# GULP energy per Si atom -5577.350868 kJ/mol
# Density = 2.105890 g / cm^3
# Si number density = 21.106938 Si / 1000 Ang^3
#
#
#
# Elastic Constant Matrix: (Units=GPa)
#
#
# Indices 1 2 3 4 5 6 
#
# 1 29.9319 23.5796 14.9703 0.0000 0.0000 0.0000
# 2 23.5796 120.2456 11.7402 0.0000 0.0000 0.0000
# 3 14.9703 11.7402 102.5144 0.0000 0.0000 0.0000
# 4 0.0000 0.0000 0.0000 170.9198 0.0000 0.0000
# 5 0.0000 0.0000 0.0000 0.0000 -10.7985 0.0000
# 6 0.0000 0.0000 0.0000 0.0000 0.0000 31.3489
#
#
#
# Elastic Compliance Matrix: (Units=1/GPa)
#
#
# Indices 1 2 3 4 5 6 
#
# 1 0.042150 -0.007751 -0.005268 0.000000 0.000000 0.000000
# 2 -0.007751 0.009836 0.000005 0.000000 0.000000 0.000000
# 3 -0.005268 0.000005 0.010523 0.000000 0.000000 0.000000
# 4 0.000000 0.000000 0.000000 0.005851 0.000000 0.000000
# 5 0.000000 0.000000 0.000000 0.000000 -0.092605 0.000000
# 6 0.000000 0.000000 0.000000 0.000000 0.000000 0.031899
#
#
# Mechanical properties :
#
#
# Convention : Reuss Voigt Hill
#
# Bulk Modulus (GPa) = 27.41031 39.25247 33.33139
# Shear Modulus (GPa) = 109.07354 51.78748 80.43051
#
# Velocity S-wave (km/s) = 7.19644 4.95873 6.17972
# Velocity P-wave (km/s) = 9.05905 7.17096 8.16973
#
# Compressibility (1/GPa) = 0.03648262
#
# Stress axis : x y z
#
# Youngs Moduli (GPa) = 23.72488 101.67017 95.02702
#
# Poissons Ratio (x) = 0.78806 0.50056
# Poissons Ratio (y) = 0.18389 -0.00052
# Poissons Ratio (z) = 0.12497 -0.00056
#
# Static dielectric constant tensor:
#      x y z
#    x 1.736780 0.000000 0.000000 
#    y 0.000000 1.842360 0.000000 
#    z 0.000000 0.000000 1.822880 
# 
# From -- ./inp_files/12745.got.cif
#   From: 2010.05.17/outbox.cif.g08.bks.cpg/sg65_7_cif.got.tgz:12745.got - 2010.06.03 17:01:31.
