data_PCOD9487581
_publ_section_title
;
Structure prediction by ZEFSAII (Michael W. Deem and Ramdas Pophale) SiO2 
 PCOD9487581
Probable space group: C M M M
;
_chemical_formula_sum "Si O2"
_cell_formula_units_Z 64
_cell_length_a 24.681964
_cell_length_b 15.934100
_cell_length_c 7.959730
_cell_angle_alpha 90.000000
_cell_angle_beta 90.000000
_cell_angle_gamma 90.000000
_cell_volume 3130.441478
_symmetry_space_group_name_H-M "C M M M"
_symmetry_group_IT_number 65
_symmetry_cell_setting 'orthorhombic'
loop_
_space_group_symop_operation_xyz
x,y,z
-x,-y,z
x,-y,-z
-x,y,-z
-x,-y,-z
x,y,-z
-x,y,z
x,-y,z
1/2+x,1/2+y,z
1/2-x,1/2-y,z
1/2+x,1/2-y,-z
1/2-x,1/2+y,-z
1/2-x,1/2-y,-z
1/2+x,1/2+y,-z
1/2-x,1/2+y,z
1/2+x,1/2-y,z
loop_
_atom_site_type_symbol
_atom_site_label
_atom_site_fract_x
_atom_site_fract_y
_atom_site_fract_z
Si Si1 0.000000 0.901353 0.795156
Si Si2 0.813359 0.500000 0.799472
Si Si3 0.383108 0.344540 0.200829
Si Si4 0.115984 0.339826 0.300152
Si Si5 0.189606 0.000000 0.206395
Si Si6 0.000000 0.598026 0.705303
O O1 0.055643 0.859487 0.734005
O O2 0.000000 0.000000 0.752345
O O3 0.000000 0.896716 0.000000
O O4 0.845628 0.417178 0.745006
O O5 0.751627 0.500000 0.736175
O O6 0.811509 0.500000 0.000000
O O7 0.364752 0.250481 0.238022
O O8 0.343080 0.417364 0.262185
O O9 0.385711 0.354470 0.000000
O O10 0.112450 0.335971 0.500000
O O11 0.055207 0.358933 0.234302
O O12 0.190049 0.000000 0.000000
O O13 0.000000 0.500000 0.752989
O O14 0.000000 0.600159 0.500000
#
# Coordination Sequence:
#
# PCOD9487581 Si02
#       6
#     8   8  16  16   8   8
#     4   9  15  28  57  90 116 142 180 231 279 320
#     4  11  23  40  59  81 107 145 196 239 272 322
#     4  10  19  35  59  87 115 147 185 227 276 331
#     4  11  22  38  59  84 114 148 182 226 283 337
#     4   9  20  38  60  81 110 151 190 229 276 326
#     4   9  17  34  58  79 107 149 182 212 273 346
#
# _framework density 20.444400000000002
#
# number of rings (size 3 to 8) (size 9 to 14) (size 15 to 20)
#    0.000    2.000    2.500    1.875    0.000    1.000 
#    0.000   10.625    0.000    0.750    0.000    0.000 
#    0.000    0.000    0.000    0.000    0.000    0.000 
#
# Total GULP energy -178761.471565 kJ/mol
# GULP energy per Si atom -5586.295986 kJ/mol
# Density = 2.039787 g / cm^3
# Si number density = 20.444400 Si / 1000 Ang^3
#
#
#
# Elastic Constant Matrix: (Units=GPa)
#
#
# Indices 1 2 3 4 5 6 
#
# 1 167.8450 91.0881 7.3000 0.0000 0.0000 0.0000
# 2 91.0881 183.9754 -8.5629 0.0000 0.0000 0.0000
# 3 7.3000 -8.5629 12.0214 0.0000 0.0000 0.0000
# 4 0.0000 0.0000 0.0000 573.7548 0.0000 0.0000
# 5 0.0000 0.0000 0.0000 0.0000 12.1222 0.0000
# 6 0.0000 0.0000 0.0000 0.0000 0.0000 0.4601
#
#
#
# Elastic Compliance Matrix: (Units=1/GPa)
#
#
# Indices 1 2 3 4 5 6 
#
# 1 0.008986 -0.004864 -0.008921 0.000000 0.000000 0.000000
# 2 -0.004864 0.008255 0.008834 0.000000 0.000000 0.000000
# 3 -0.008921 0.008834 0.094895 0.000000 0.000000 0.000000
# 4 0.000000 0.000000 0.000000 0.001743 0.000000 0.000000
# 5 0.000000 0.000000 0.000000 0.000000 0.082493 0.000000
# 6 0.000000 0.000000 0.000000 0.000000 0.000000 2.173640
#
#
# Mechanical properties :
#
#
# Convention : Reuss Voigt Hill
#
# Bulk Modulus (GPa) = 9.78165 60.38800 35.08483
# Shear Modulus (GPa) = 2.07126 135.53520 68.80323
#
# Velocity S-wave (km/s) = 1.00763 8.15098 5.80749
# Velocity P-wave (km/s) = 2.47965 10.87136 7.88464
#
# Compressibility (1/GPa) = 0.10223227
#
# Stress axis : x y z
#
# Youngs Moduli (GPa) = 111.28951 121.13985 10.53799
#
# Poissons Ratio (x) = 0.58923 0.09401
# Poissons Ratio (y) = 0.54132 -0.09309
# Poissons Ratio (z) = 0.99283 -1.07012
#
# Static dielectric constant tensor:
#      x y z
#    x 1.728290 0.000000 0.000000 
#    y 0.000000 1.671860 0.000000 
#    z 0.000000 0.000000 1.735180 
# 
# From -- ./inp_files/6826.got.cif
#   From: 2010.05.17/outbox.cif.g08.bks.cpg/sg65_4_cif.got.tgz:6826.got - 2010.06.03 17:01:31.
