data_PCOD9487110
_publ_section_title
;
Structure prediction by ZEFSAII (Michael W. Deem and Ramdas Pophale) SiO2 
 PCOD9487110
Probable space group: C M M M
;
_chemical_formula_sum "Si O2"
_cell_formula_units_Z 88
_cell_length_a 26.891363
_cell_length_b 11.423248
_cell_length_c 15.538028
_cell_angle_alpha 90.000000
_cell_angle_beta 90.000000
_cell_angle_gamma 90.000000
_cell_volume 4773.075680
_symmetry_space_group_name_H-M "C M M M"
_symmetry_group_IT_number 65
_symmetry_cell_setting 'orthorhombic'
loop_
_space_group_symop_operation_xyz
x,y,z
-x,-y,z
x,-y,-z
-x,y,-z
-x,-y,-z
x,y,-z
-x,y,z
x,-y,z
1/2+x,1/2+y,z
1/2-x,1/2-y,z
1/2+x,1/2-y,-z
1/2-x,1/2+y,-z
1/2-x,1/2-y,-z
1/2+x,1/2+y,-z
1/2-x,1/2+y,z
1/2+x,1/2-y,z
loop_
_atom_site_type_symbol
_atom_site_label
_atom_site_fract_x
_atom_site_fract_y
_atom_site_fract_z
Si Si1 0.778427 0.135592 0.848177
Si Si2 0.891620 0.774602 0.156358
Si Si3 0.765871 0.627779 0.652769
Si Si4 0.058108 0.000000 0.903004
Si Si5 0.614931 0.865341 0.329437
Si Si6 0.942503 0.642483 0.500000
Si Si7 0.058742 0.360077 0.000000
O O1 0.750000 0.250000 0.886772
O O2 0.835675 0.175393 0.853013
O O3 0.758738 0.128896 0.748804
O O4 0.772166 0.000000 0.881289
O O5 0.896396 0.711065 0.246797
O O6 0.925720 0.886823 0.147660
O O7 0.911052 0.688632 0.081759
O O8 0.752866 0.500000 0.614377
O O9 0.750000 0.750000 0.610084
O O10 0.825489 0.633114 0.659414
O O11 0.000000 0.000000 0.912952
O O12 0.080909 0.000000 0.000000
O O13 0.587119 0.821563 0.414588
O O14 0.599339 0.000000 0.314241
O O15 0.941823 0.500000 0.500000
O O16 0.000000 0.679646 0.500000
O O17 0.058564 0.500000 0.000000
O O18 0.000000 0.320951 0.000000
#
# Coordination Sequence:
#
# PCOD9487110 Si02
#       7
#    16  16  16   8  16   8   8
#     4  10  19  33  57  90 124 162 204 255 311 376
#     4  12  21  38  65  90 120 163 211 255 314 384
#     4   9  16  30  53  83 119 154 194 242 296 354
#     4  11  24  42  62  85 117 157 215 270 307 359
#     4  10  20  36  62  92 122 161 201 248 312 376
#     4   9  20  38  59  89 127 159 201 256 307 372
#     4  11  26  43  60  89 126 158 206 275 331 376
#
# _framework density 18.436748999999999
#
# number of rings (size 3 to 8) (size 9 to 14) (size 15 to 20)
#    0.000    1.727    5.455    1.091    0.000    2.182 
#    0.000    2.727    0.000    0.545    0.000    1.273 
#    0.000    0.000    0.000    0.000    0.000    0.000 
#
# Total GULP energy -245155.239773 kJ/mol
# GULP energy per Si atom -5571.709995 kJ/mol
# Density = 1.839479 g / cm^3
# Si number density = 18.436749 Si / 1000 Ang^3
#
#
#
# Elastic Constant Matrix: (Units=GPa)
#
#
# Indices 1 2 3 4 5 6 
#
# 1 119.8559 42.9432 50.9105 0.0000 0.0000 0.0000
# 2 42.9432 168.5946 59.9739 0.0000 0.0000 0.0000
# 3 50.9105 59.9739 84.6380 0.0000 0.0000 0.0000
# 4 0.0000 0.0000 0.0000 55.8879 0.0000 0.0000
# 5 0.0000 0.0000 0.0000 0.0000 22.9518 0.0000
# 6 0.0000 0.0000 0.0000 0.0000 0.0000 29.7126
#
#
#
# Elastic Compliance Matrix: (Units=1/GPa)
#
#
# Indices 1 2 3 4 5 6 
#
# 1 0.011254 -0.000613 -0.006335 0.000000 0.000000 0.000000
# 2 -0.000613 0.007964 -0.005274 0.000000 0.000000 0.000000
# 3 -0.006335 -0.005274 0.019363 0.000000 0.000000 0.000000
# 4 0.000000 0.000000 0.000000 0.017893 0.000000 0.000000
# 5 0.000000 0.000000 0.000000 0.000000 0.043570 0.000000
# 6 0.000000 0.000000 0.000000 0.000000 0.000000 0.033656
#
#
# Mechanical properties :
#
#
# Convention : Reuss Voigt Hill
#
# Bulk Modulus (GPa) = 70.74149 75.63822 73.18985
# Shear Modulus (GPa) = 30.70209 36.32783 33.51496
#
# Velocity S-wave (km/s) = 4.08519 4.44374 4.26823
# Velocity P-wave (km/s) = 7.79133 8.21243 8.00465
#
# Compressibility (1/GPa) = 0.01413598
#
# Stress axis : x y z
#
# Youngs Moduli (GPa) = 88.85871 125.56882 51.64518
#
# Poissons Ratio (x) = 0.07697 0.32717
# Poissons Ratio (y) = 0.05447 0.27239
# Poissons Ratio (z) = 0.56291 0.66229
#
# Static dielectric constant tensor:
#      x y z
#    x 1.629420 0.000000 0.000000 
#    y 0.000000 1.653610 0.000000 
#    z 0.000000 0.000000 1.635380 
# 
# From -- ./inp_files/45456.got.cif
#   From: 2010.05.17/outbox.cif.g08.bks.cpg/sg65_23_cif.got.tgz:45456.got - 2010.06.03 17:01:31.
