data_PCOD9487805
_publ_section_title
;
Structure prediction by ZEFSAII (Michael W. Deem and Ramdas Pophale) SiO2 
 PCOD9487805
Probable space group: C M M M
;
_chemical_formula_sum "Si O2"
_cell_formula_units_Z 72
_cell_length_a 9.061730
_cell_length_b 29.036022
_cell_length_c 18.576605
_cell_angle_alpha 90.000000
_cell_angle_beta 90.000000
_cell_angle_gamma 90.000000
_cell_volume 4887.812992
_symmetry_space_group_name_H-M "C M M M"
_symmetry_group_IT_number 65
_symmetry_cell_setting 'orthorhombic'
loop_
_space_group_symop_operation_xyz
x,y,z
-x,-y,z
x,-y,-z
-x,y,-z
-x,-y,-z
x,y,-z
-x,y,z
x,-y,z
1/2+x,1/2+y,z
1/2-x,1/2-y,z
1/2+x,1/2-y,-z
1/2-x,1/2+y,-z
1/2-x,1/2-y,-z
1/2+x,1/2+y,-z
1/2-x,1/2+y,z
1/2+x,1/2-y,z
loop_
_atom_site_type_symbol
_atom_site_label
_atom_site_fract_x
_atom_site_fract_y
_atom_site_fract_z
Si Si1 0.674564 0.555123 0.500000
Si Si2 0.671897 0.055849 0.920066
Si Si3 0.676692 0.797473 0.584185
Si Si4 0.822589 0.602888 0.362435
Si Si5 0.174809 0.055107 0.226834
O O1 0.690344 0.500000 0.500000
O O2 0.500000 0.565963 0.500000
O O3 0.751155 0.576067 0.429539
O O4 0.500000 0.068667 0.909937
O O5 0.768295 0.070097 0.851949
O O6 0.676673 0.000000 0.921293
O O7 0.719624 0.071472 0.000000
O O8 0.718534 0.804834 0.500000
O O9 0.500000 0.792515 0.586480
O O10 0.750000 0.750000 0.608723
O O11 0.716659 0.843242 0.627803
O O12 0.760750 0.581535 0.289264
O O13 0.000000 0.598784 0.365698
O O14 0.000000 0.062313 0.233649
O O15 0.202418 0.000000 0.234026
#
# Coordination Sequence:
#
# PCOD9487805 Si02
#       5
#     8  16  16  16  16
#     4  11  23  35  46  63  88 119 156 193 226 263
#     4   8  14  26  44  64  86 116 154 190 225 267
#     4   9  18  33  50  69  88 108 142 186 232 279
#     4  11  21  34  49  66  89 118 154 190 225 270
#     4  10  20  31  43  64  94 125 157 191 227 266
#
# _framework density 14.730515
#
# number of rings (size 3 to 8) (size 9 to 14) (size 15 to 20)
#    0.000    2.333    1.111    3.000    0.000    7.111 
#    0.000    2.222    0.000    0.000    0.000    0.000 
#    0.000    0.889    0.000    2.889    0.000    3.556 
#
# Total GULP energy -200707.027237 kJ/mol
# GULP energy per Si atom -5575.195201 kJ/mol
# Density = 1.469699 g / cm^3
# Si number density = 14.730515 Si / 1000 Ang^3
#
#
#
# Elastic Constant Matrix: (Units=GPa)
#
#
# Indices 1 2 3 4 5 6 
#
# 1 67.5097 53.7836 60.2918 0.0000 0.0000 0.0000
# 2 53.7836 77.4545 54.4545 0.0000 0.0000 0.0000
# 3 60.2918 54.4545 121.7413 0.0000 0.0000 0.0000
# 4 0.0000 0.0000 0.0000 0.6069 0.0000 0.0000
# 5 0.0000 0.0000 0.0000 0.0000 17.5668 0.0000
# 6 0.0000 0.0000 0.0000 0.0000 0.0000 22.5222
#
#
#
# Elastic Compliance Matrix: (Units=1/GPa)
#
#
# Indices 1 2 3 4 5 6 
#
# 1 0.041480 -0.020948 -0.011173 0.000000 0.000000 0.000000
# 2 -0.020948 0.029413 -0.002782 0.000000 0.000000 0.000000
# 3 -0.011173 -0.002782 0.014992 0.000000 0.000000 0.000000
# 4 0.000000 0.000000 0.000000 1.647826 0.000000 0.000000
# 5 0.000000 0.000000 0.000000 0.000000 0.056925 0.000000
# 6 0.000000 0.000000 0.000000 0.000000 0.000000 0.044401
#
#
# Mechanical properties :
#
#
# Convention : Reuss Voigt Hill
#
# Bulk Modulus (GPa) = 62.19286 67.08503 64.63894
# Shear Modulus (GPa) = 2.61753 14.68421 8.65087
#
# Velocity S-wave (km/s) = 1.33447 3.16073 2.42601
# Velocity P-wave (km/s) = 6.68479 7.67859 7.19886
#
# Compressibility (1/GPa) = 0.01607902
#
# Stress axis : x y z
#
# Youngs Moduli (GPa) = 24.10812 33.99886 66.70419
#
# Poissons Ratio (x) = 0.71222 0.74526
# Poissons Ratio (y) = 0.50502 0.18555
# Poissons Ratio (z) = 0.26935 0.09458
#
# Static dielectric constant tensor:
#      x y z
#    x 1.490340 0.000000 0.000000 
#    y 0.000000 1.468250 0.000000 
#    z 0.000000 0.000000 1.483490 
# 
# From -- ./inp_files/49715.got.cif
#   From: 2010.05.17/outbox.cif.g08.bks.cpg/sg65_25_cif.got.tgz:49715.got - 2010.06.03 17:01:31.
