data_PCOD9487493
_publ_section_title
;
Structure prediction by ZEFSAII (Michael W. Deem and Ramdas Pophale) SiO2 
 PCOD9487493
Probable space group: C M M M
;
_chemical_formula_sum "Si O2"
_cell_formula_units_Z 100
_cell_length_a 33.538140
_cell_length_b 20.356736
_cell_length_c 7.969754
_cell_angle_alpha 90.000000
_cell_angle_beta 90.000000
_cell_angle_gamma 90.000000
_cell_volume 5441.166733
_symmetry_space_group_name_H-M "C M M M"
_symmetry_group_IT_number 65
_symmetry_cell_setting 'orthorhombic'
loop_
_space_group_symop_operation_xyz
x,y,z
-x,-y,z
x,-y,-z
-x,y,-z
-x,-y,-z
x,y,-z
-x,y,z
x,-y,z
1/2+x,1/2+y,z
1/2-x,1/2-y,z
1/2+x,1/2-y,-z
1/2-x,1/2+y,-z
1/2-x,1/2-y,-z
1/2+x,1/2+y,-z
1/2-x,1/2+y,z
1/2+x,1/2-y,z
loop_
_atom_site_type_symbol
_atom_site_label
_atom_site_fract_x
_atom_site_fract_y
_atom_site_fract_z
Si Si1 0.500000 0.196695 0.191030
Si Si2 0.087895 0.318816 0.698060
Si Si3 0.661817 0.104978 0.805726
Si Si4 0.627915 0.683679 0.696394
Si Si5 0.926439 0.074792 0.804106
Si Si6 0.828399 0.500000 0.500000
Si Si7 0.704958 0.244559 0.199529
Si Si8 0.000000 0.840239 0.687797
O O1 0.541046 0.173727 0.274546
O O2 0.500000 0.276242 0.197137
O O3 0.500000 0.174474 0.000000
O O4 0.097061 0.322131 0.500000
O O5 0.115775 0.371447 0.789075
O O6 0.101673 0.246097 0.758130
O O7 0.670528 0.056439 0.652053
O O8 0.687576 0.171424 0.778404
O O9 0.668794 0.082785 0.000000
O O10 0.619682 0.675636 0.500000
O O11 0.613472 0.617451 0.783372
O O12 0.673412 0.704996 0.722240
O O13 0.961436 0.114805 0.714000
O O14 0.922757 0.000000 0.743071
O O15 0.937147 0.072781 0.000000
O O16 0.750000 0.250000 0.263735
O O17 0.705429 0.257867 0.000000
O O18 0.000000 0.812680 0.500000
#
# Coordination Sequence:
#
# PCOD9487493 Si02
#       8
#     8  16  16  16  16   4  16   8
#     4  12  22  31  53  82 113 148 188 242 297 342
#     4  10  19  35  55  84 115 146 189 242 292 339
#     4  10  21  38  63  92 121 158 198 237 291 351
#     4  10  20  33  55  82 110 144 186 237 288 340
#     4  11  23  37  53  73 106 152 198 239 286 344
#     4  12  22  40  62  91 126 160 190 242 282 355
#     4   9  19  37  63  92 119 149 190 240 290 342
#     4  12  23  35  50  77 106 149 193 245 294 340
#
# _framework density 18.378409999999999
#
# number of rings (size 3 to 8) (size 9 to 14) (size 15 to 20)
#    0.000    1.600    2.400    3.360    1.120    3.840 
#    0.000    0.000    1.760    0.960    0.000    1.680 
#    0.000    0.000    0.000    0.000    0.000    0.000 
#
# Total GULP energy -278522.407921 kJ/mol
# GULP energy per Si atom -5570.448158 kJ/mol
# Density = 1.833658 g / cm^3
# Si number density = 18.378410 Si / 1000 Ang^3
#
#
#
# Elastic Constant Matrix: (Units=GPa)
#
#
# Indices 1 2 3 4 5 6 
#
# 1 112.5304 19.3290 6.5090 0.0000 0.0000 0.0000
# 2 19.3290 55.4735 26.5478 0.0000 0.0000 0.0000
# 3 6.5090 26.5478 82.7216 0.0000 0.0000 0.0000
# 4 0.0000 0.0000 0.0000 28.3638 0.0000 0.0000
# 5 0.0000 0.0000 0.0000 0.0000 19.9637 0.0000
# 6 0.0000 0.0000 0.0000 0.0000 0.0000 0.3563
#
#
#
# Elastic Compliance Matrix: (Units=1/GPa)
#
#
# Indices 1 2 3 4 5 6 
#
# 1 0.009462 -0.003474 0.000370 0.000000 0.000000 0.000000
# 2 -0.003474 0.022573 -0.006971 0.000000 0.000000 0.000000
# 3 0.000370 -0.006971 0.014297 0.000000 0.000000 0.000000
# 4 0.000000 0.000000 0.000000 0.035256 0.000000 0.000000
# 5 0.000000 0.000000 0.000000 0.000000 0.050091 0.000000
# 6 0.000000 0.000000 0.000000 0.000000 0.000000 2.806872
#
#
# Mechanical properties :
#
#
# Convention : Reuss Voigt Hill
#
# Bulk Modulus (GPa) = 38.19362 39.49968 38.84665
# Shear Modulus (GPa) = 1.68496 22.95939 12.32217
#
# Velocity S-wave (km/s) = 0.95854 3.53832 2.59215
# Velocity P-wave (km/s) = 4.69595 6.18321 5.49017
#
# Compressibility (1/GPa) = 0.02618239
#
# Stress axis : x y z
#
# Youngs Moduli (GPa) = 105.68818 44.30019 69.94565
#
# Poissons Ratio (x) = 0.15390 -0.02591
# Poissons Ratio (y) = 0.36717 0.48760
# Poissons Ratio (z) = -0.03915 0.30882
#
# Static dielectric constant tensor:
#      x y z
#    x 1.636840 0.000000 0.000000 
#    y 0.000000 1.619640 0.000000 
#    z 0.000000 0.000000 1.639010 
# 
# From -- ./inp_files/18741.got.cif
#   From: 2010.05.17/outbox.cif.g08.bks.cpg/sg65_10_cif.got.tgz:18741.got - 2010.06.03 17:01:31.
