data_PCOD9487017
_publ_section_title
;
Structure prediction by ZEFSAII (Michael W. Deem and Ramdas Pophale) SiO2 
 PCOD9487017
Probable space group: C M M M
;
_chemical_formula_sum "Si O2"
_cell_formula_units_Z 88
_cell_length_a 8.572766
_cell_length_b 23.959061
_cell_length_c 23.243841
_cell_angle_alpha 90.000000
_cell_angle_beta 90.000000
_cell_angle_gamma 90.000000
_cell_volume 4774.178567
_symmetry_space_group_name_H-M "C M M M"
_symmetry_group_IT_number 65
_symmetry_cell_setting 'orthorhombic'
loop_
_space_group_symop_operation_xyz
x,y,z
-x,-y,z
x,-y,-z
-x,y,-z
-x,-y,-z
x,y,-z
-x,y,z
x,-y,z
1/2+x,1/2+y,z
1/2-x,1/2-y,z
1/2+x,1/2-y,-z
1/2-x,1/2+y,-z
1/2-x,1/2-y,-z
1/2+x,1/2+y,-z
1/2-x,1/2+y,z
1/2+x,1/2-y,z
loop_
_atom_site_type_symbol
_atom_site_label
_atom_site_fract_x
_atom_site_fract_y
_atom_site_fract_z
Si Si1 0.812426 0.500000 0.874354
Si Si2 0.312316 0.812353 0.781943
Si Si3 0.811958 0.387245 0.322472
Si Si4 0.810700 0.500000 0.740556
Si Si5 0.313454 0.187506 0.000000
Si Si6 0.686237 0.379704 0.108882
Si Si7 0.687917 0.435837 0.565749
O O1 0.766388 0.500000 0.806982
O O2 0.745572 0.557167 0.899210
O O3 0.000000 0.500000 0.878599
O O4 0.500000 0.812370 0.784907
O O5 0.250000 0.750000 0.790853
O O6 0.264665 0.836712 0.719372
O O7 0.250671 0.853543 0.831642
O O8 0.757494 0.444053 0.290834
O O9 0.750165 0.393056 0.386989
O O10 0.000000 0.387550 0.324333
O O11 0.000000 0.500000 0.738883
O O12 0.250000 0.250000 0.000000
O O13 0.250668 0.156819 0.056573
O O14 0.500000 0.187286 0.000000
O O15 0.500000 0.378249 0.109943
O O16 0.735307 0.423450 0.500000
O O17 0.500000 0.435920 0.567610
O O18 0.739991 0.500000 0.578674
#
# Coordination Sequence:
#
# PCOD9487017 Si02
#       7
#     8  16  16   8   8  16  16
#     4  11  21  40  64  90 126 163 194 236 294 353
#     4  11  23  40  60  85 116 153 195 244 294 346
#     4  10  19  33  55  81 111 148 188 233 285 341
#     4   9  16  31  53  81 115 148 183 228 285 344
#     4  12  26  47  70  91 118 160 204 248 298 346
#     4  12  25  42  64  94 125 156 196 243 291 351
#     4   9  18  31  47  74 113 150 183 226 282 342
#
# _framework density 18.432490000000001
#
# number of rings (size 3 to 8) (size 9 to 14) (size 15 to 20)
#    0.000    1.455    2.727    4.364    0.000    2.182 
#    0.000    2.727    0.000    0.545    0.000    0.000 
#    0.000    0.000    0.000    0.000    0.000    0.000 
#
# Total GULP energy -245792.032871 kJ/mol
# GULP energy per Si atom -5586.182565 kJ/mol
# Density = 1.839054 g / cm^3
# Si number density = 18.432490 Si / 1000 Ang^3
#
#
#
# Elastic Constant Matrix: (Units=GPa)
#
#
# Indices 1 2 3 4 5 6 
#
# 1 85.2639 43.4684 39.8203 0.0000 0.0000 0.0000
# 2 43.4684 133.3091 55.6899 0.0000 0.0000 0.0000
# 3 39.8203 55.6899 122.4084 0.0000 0.0000 0.0000
# 4 0.0000 0.0000 0.0000 19.6766 0.0000 0.0000
# 5 0.0000 0.0000 0.0000 0.0000 25.6073 0.0000
# 6 0.0000 0.0000 0.0000 0.0000 0.0000 26.3855
#
#
#
# Elastic Compliance Matrix: (Units=1/GPa)
#
#
# Indices 1 2 3 4 5 6 
#
# 1 0.015070 -0.003538 -0.003293 0.000000 0.000000 0.000000
# 2 -0.003538 0.010092 -0.003440 0.000000 0.000000 0.000000
# 3 -0.003293 -0.003440 0.010806 0.000000 0.000000 0.000000
# 4 0.000000 0.000000 0.000000 0.050822 0.000000 0.000000
# 5 0.000000 0.000000 0.000000 0.000000 0.039051 0.000000
# 6 0.000000 0.000000 0.000000 0.000000 0.000000 0.037900
#
#
# Mechanical properties :
#
#
# Convention : Reuss Voigt Hill
#
# Bulk Modulus (GPa) = 64.82919 68.77094 66.80006
# Shear Modulus (GPa) = 26.39561 27.80073 27.09817
#
# Velocity S-wave (km/s) = 3.78830 3.88783 3.83839
# Velocity P-wave (km/s) = 7.37445 7.58579 7.48087
#
# Compressibility (1/GPa) = 0.01542515
#
# Stress axis : x y z
#
# Youngs Moduli (GPa) = 66.35742 99.08435 92.54367
#
# Poissons Ratio (x) = 0.35060 0.30470
# Poissons Ratio (y) = 0.23480 0.31840
# Poissons Ratio (z) = 0.21848 0.34090
#
# Static dielectric constant tensor:
#      x y z
#    x 1.622620 0.000000 0.000000 
#    y 0.000000 1.618600 0.000000 
#    z 0.000000 0.000000 1.637120 
# 
# From -- ./inp_files/67657.got.cif
#   From: 2010.05.17/outbox.cif.g08.bks.cpg/sg65_34_cif.got.tgz:67657.got - 2010.06.03 17:01:31.
