data_PCOD9487265
_publ_section_title
;
Structure prediction by ZEFSAII (Michael W. Deem and Ramdas Pophale) SiO2 
 PCOD9487265
Probable space group: C M M M
;
_chemical_formula_sum "Si O2"
_cell_formula_units_Z 116
_cell_length_a 26.683999
_cell_length_b 13.724843
_cell_length_c 13.014732
_cell_angle_alpha 90.000000
_cell_angle_beta 90.000000
_cell_angle_gamma 90.000000
_cell_volume 4766.433414
_symmetry_space_group_name_H-M "C M M M"
_symmetry_group_IT_number 65
_symmetry_cell_setting 'orthorhombic'
loop_
_space_group_symop_operation_xyz
x,y,z
-x,-y,z
x,-y,-z
-x,y,-z
-x,-y,-z
x,y,-z
-x,y,z
x,-y,z
1/2+x,1/2+y,z
1/2-x,1/2-y,z
1/2+x,1/2-y,-z
1/2-x,1/2+y,-z
1/2-x,1/2-y,-z
1/2+x,1/2+y,-z
1/2-x,1/2+y,z
1/2+x,1/2-y,z
loop_
_atom_site_type_symbol
_atom_site_label
_atom_site_fract_x
_atom_site_fract_y
_atom_site_fract_z
Si Si1 0.128708 0.684460 0.613997
Si Si2 0.423251 0.500000 0.500000
Si Si3 0.559091 0.334977 0.676701
Si Si4 0.054164 0.612599 0.122430
Si Si5 0.273004 0.390104 0.160437
Si Si6 0.212082 0.159462 0.389415
Si Si7 0.162680 0.386890 0.823052
Si Si8 0.383928 0.381883 0.112671
O O1 0.131447 0.642663 0.500000
O O2 0.074146 0.724786 0.642284
O O3 0.159142 0.786412 0.615497
O O4 0.155810 0.620606 0.699906
O O5 0.425651 0.585431 0.590525
O O6 0.500000 0.345094 0.687350
O O7 0.585217 0.353878 0.786505
O O8 0.055918 0.500000 0.162232
O O9 0.109399 0.656660 0.141696
O O10 0.000000 0.655000 0.156972
O O11 0.051390 0.607224 0.000000
O O12 0.270565 0.500000 0.119731
O O13 0.279014 0.394904 0.284182
O O14 0.217265 0.346350 0.144698
O O15 0.325741 0.348320 0.122112
O O16 0.216094 0.108578 0.500000
O O17 0.250000 0.250000 0.390626
O O18 0.162998 0.500000 0.855494
O O19 0.382353 0.500000 0.113994
O O20 0.404064 0.352204 0.000000
#
# Coordination Sequence:
#
# PCOD9487265 Si02
#       8
#    16   4  16  16  16  16  16  16
#     4  11  23  38  58  86 123 164 201 255 317 370
#     4  12  25  44  70 102 128 154 210 278 327 378
#     4  12  24  41  67  96 127 161 208 269 324 383
#     4   8  15  31  56  83 108 140 192 255 307 347
#     4  10  20  35  56  86 120 158 205 252 295 360
#     4  10  19  34  55  80 113 155 197 249 310 363
#     4  10  21  36  59  89 124 166 212 251 298 366
#     4  10  22  40  61  90 129 170 209 254 316 387
#
# _framework density 24.336856000000001
#
# number of rings (size 3 to 8) (size 9 to 14) (size 15 to 20)
#    0.000    1.793    4.138    1.034    0.000    1.931 
#    0.000    5.517    0.000    1.241    0.000    2.897 
#    0.000    0.000    0.000    0.000    0.000    0.000 
#
# Total GULP energy -323194.225047 kJ/mol
# GULP energy per Si atom -5572.314225 kJ/mol
# Density = 2.428146 g / cm^3
# Si number density = 24.336856 Si / 1000 Ang^3
#
#
#
# Elastic Constant Matrix: (Units=GPa)
#
#
# Indices 1 2 3 4 5 6 
#
# 1 164.0953 1.0551 30.0134 0.0000 0.0000 0.0000
# 2 1.0551 52.5179 0.5169 0.0000 0.0000 0.0000
# 3 30.0134 0.5169 130.4658 0.0000 0.0000 0.0000
# 4 0.0000 0.0000 0.0000 27.7567 0.0000 0.0000
# 5 0.0000 0.0000 0.0000 0.0000 -11.8085 0.0000
# 6 0.0000 0.0000 0.0000 0.0000 0.0000 17.0471
#
#
#
# Elastic Compliance Matrix: (Units=1/GPa)
#
#
# Indices 1 2 3 4 5 6 
#
# 1 0.006362 -0.000113 -0.001463 0.000000 0.000000 0.000000
# 2 -0.000113 0.019044 -0.000049 0.000000 0.000000 0.000000
# 3 -0.001463 -0.000049 0.008002 0.000000 0.000000 0.000000
# 4 0.000000 0.000000 0.000000 0.036027 0.000000 0.000000
# 5 0.000000 0.000000 0.000000 0.000000 -0.084685 0.000000
# 6 0.000000 0.000000 0.000000 0.000000 0.000000 0.058661
#
#
# Mechanical properties :
#
#
# Convention : Reuss Voigt Hill
#
# Bulk Modulus (GPa) = 33.16096 45.58331 39.37214
# Shear Modulus (GPa) = 88.15960 27.63196 57.89578
#
# Velocity S-wave (km/s) = 6.02523 3.37322 4.88272
# Velocity P-wave (km/s) = 7.87781 5.82600 6.92828
#
# Compressibility (1/GPa) = 0.03015594
#
# Stress axis : x y z
#
# Youngs Moduli (GPa) = 157.17407 52.51027 124.97430
#
# Poissons Ratio (x) = 0.00596 0.18286
# Poissons Ratio (y) = 0.01783 0.00617
# Poissons Ratio (z) = 0.22998 0.00259
#
# Static dielectric constant tensor:
#      x y z
#    x 2.035120 0.000000 0.000000 
#    y 0.000000 1.974340 0.000000 
#    z 0.000000 0.000000 1.940390 
# 
# From -- ./inp_files/32632.got.cif
#   From: 2010.05.17/outbox.cif.g08.bks.cpg/sg65_17_cif.got.tgz:32632.got - 2010.06.03 17:01:31.
