data_PCOD9487623
_publ_section_title
;
Structure prediction by ZEFSAII (Michael W. Deem and Ramdas Pophale) SiO2 
 PCOD9487623
Probable space group: C M M M
;
_chemical_formula_sum "Si O2"
_cell_formula_units_Z 64
_cell_length_a 28.292954
_cell_length_b 13.993392
_cell_length_c 7.903230
_cell_angle_alpha 90.000000
_cell_angle_beta 90.000000
_cell_angle_gamma 90.000000
_cell_volume 3129.002533
_symmetry_space_group_name_H-M "C M M M"
_symmetry_group_IT_number 65
_symmetry_cell_setting 'orthorhombic'
loop_
_space_group_symop_operation_xyz
x,y,z
-x,-y,z
x,-y,-z
-x,y,-z
-x,-y,-z
x,y,-z
-x,y,z
x,-y,z
1/2+x,1/2+y,z
1/2-x,1/2-y,z
1/2+x,1/2-y,-z
1/2-x,1/2+y,-z
1/2-x,1/2-y,-z
1/2+x,1/2+y,-z
1/2-x,1/2+y,z
1/2+x,1/2-y,z
loop_
_atom_site_type_symbol
_atom_site_label
_atom_site_fract_x
_atom_site_fract_y
_atom_site_fract_z
Si Si1 0.801953 0.116453 0.500000
Si Si2 0.945581 0.237594 0.807631
Si Si3 0.367515 0.111466 0.296110
Si Si4 0.762383 0.616070 0.189250
Si Si5 0.088446 0.114092 0.500000
O O1 0.773611 0.148280 0.666127
O O2 0.856426 0.145201 0.500000
O O3 0.801624 0.000000 0.500000
O O4 0.909314 0.323470 0.773448
O O5 0.935010 0.158045 0.666999
O O6 0.000000 0.269285 0.789438
O O7 0.939031 0.202465 0.000000
O O8 0.366552 0.116672 0.500000
O O9 0.316346 0.143512 0.228257
O O10 0.374053 0.000000 0.249075
O O11 0.762341 0.500000 0.196475
O O12 0.748205 0.643517 0.000000
O O13 0.085777 0.000000 0.500000
#
# Coordination Sequence:
#
# PCOD9487623 Si02
#       5
#     8  16  16  16   8
#     4   9  18  34  56  85 116 152 198 248 301 356
#     4  11  25  44  65  91 123 158 202 255 309 367
#     4  10  19  35  63  95 130 169 203 237 286 357
#     4   9  16  29  53  86 125 164 198 234 283 348
#     4  11  25  45  68  89 117 155 203 265 322 365
#
# _framework density 20.453800999999999
#
# number of rings (size 3 to 8) (size 9 to 14) (size 15 to 20)
#    0.000    2.000    2.500    1.125    0.000    4.500 
#    0.000    8.750    0.000    3.000    0.000    0.000 
#    0.000    0.000    0.000    0.000    0.000    0.000 
#
# Total GULP energy -178961.462115 kJ/mol
# GULP energy per Si atom -5592.545691 kJ/mol
# Density = 2.040725 g / cm^3
# Si number density = 20.453801 Si / 1000 Ang^3
#
#
#
# Elastic Constant Matrix: (Units=GPa)
#
#
# Indices 1 2 3 4 5 6 
#
# 1 82.6929 12.8110 59.8210 0.0000 0.0000 0.0000
# 2 12.8110 83.9129 20.4737 0.0000 0.0000 0.0000
# 3 59.8210 20.4737 165.5210 0.0000 0.0000 0.0000
# 4 0.0000 0.0000 0.0000 -0.4611 0.0000 0.0000
# 5 0.0000 0.0000 0.0000 0.0000 46.0436 0.0000
# 6 0.0000 0.0000 0.0000 0.0000 0.0000 32.6696
#
#
#
# Elastic Compliance Matrix: (Units=1/GPa)
#
#
# Indices 1 2 3 4 5 6 
#
# 1 0.016471 -0.001095 -0.005817 0.000000 0.000000 0.000000
# 2 -0.001095 0.012361 -0.001133 0.000000 0.000000 0.000000
# 3 -0.005817 -0.001133 0.008284 0.000000 0.000000 0.000000
# 4 0.000000 0.000000 0.000000 -2.168622 0.000000 0.000000
# 5 0.000000 0.000000 0.000000 0.000000 0.021719 0.000000
# 6 0.000000 0.000000 0.000000 0.000000 0.000000 0.030610
#
#
# Mechanical properties :
#
#
# Convention : Reuss Voigt Hill
#
# Bulk Modulus (GPa) = 47.56351 57.59313 52.57832
# Shear Modulus (GPa) = -2.43181 31.58516 14.57667
#
# Velocity S-wave (km/s) = -1.09156 3.93392 2.67247
# Velocity P-wave (km/s) = 4.66003 6.98950 5.94008
#
# Compressibility (1/GPa) = 0.02102452
#
# Stress axis : x y z
#
# Youngs Moduli (GPa) = 60.71317 80.90097 120.71314
#
# Poissons Ratio (x) = 0.08861 0.70222
# Poissons Ratio (y) = 0.06650 0.13678
# Poissons Ratio (z) = 0.35318 0.09167
#
# Static dielectric constant tensor:
#      x y z
#    x 1.682560 0.000000 0.000000 
#    y 0.000000 1.734990 0.000000 
#    z 0.000000 0.000000 1.718810 
# 
# From -- ./inp_files/13368.got.cif
#   From: 2010.05.17/outbox.cif.g08.bks.cpg/sg65_7_cif.got.tgz:13368.got - 2010.06.03 17:01:31.
