data_PCOD9487603
_publ_section_title
;
Structure prediction by ZEFSAII (Michael W. Deem and Ramdas Pophale) SiO2 
 PCOD9487603
Probable space group: C M M M
;
_chemical_formula_sum "Si O2"
_cell_formula_units_Z 88
_cell_length_a 8.620404
_cell_length_b 29.361637
_cell_length_c 18.459872
_cell_angle_alpha 90.000000
_cell_angle_beta 90.000000
_cell_angle_gamma 90.000000
_cell_volume 4672.362936
_symmetry_space_group_name_H-M "C M M M"
_symmetry_group_IT_number 65
_symmetry_cell_setting 'orthorhombic'
loop_
_space_group_symop_operation_xyz
x,y,z
-x,-y,z
x,-y,-z
-x,y,-z
-x,-y,-z
x,y,-z
-x,y,z
x,-y,z
1/2+x,1/2+y,z
1/2-x,1/2-y,z
1/2+x,1/2-y,-z
1/2-x,1/2+y,-z
1/2-x,1/2-y,-z
1/2+x,1/2+y,-z
1/2-x,1/2+y,z
1/2+x,1/2-y,z
loop_
_atom_site_type_symbol
_atom_site_label
_atom_site_fract_x
_atom_site_fract_y
_atom_site_fract_z
Si Si1 0.814768 0.798596 0.355396
Si Si2 0.187826 0.108567 0.141991
Si Si3 0.314424 0.109484 0.418484
Si Si4 0.185017 0.701531 0.191995
Si Si5 0.810898 0.052365 0.000000
Si Si6 0.812695 0.947404 0.714627
O O1 0.750000 0.750000 0.381323
O O2 0.755569 0.840909 0.401743
O O3 0.753099 0.804942 0.273187
O O4 0.000000 0.797558 0.353864
O O5 0.259493 0.158693 0.145413
O O6 0.235413 0.079612 0.071935
O O7 0.234031 0.081573 0.214875
O O8 0.000000 0.112369 0.141890
O O9 0.272079 0.095170 0.500000
O O10 0.500000 0.112406 0.413519
O O11 0.253418 0.075400 0.357410
O O12 0.250000 0.750000 0.165441
O O13 0.000000 0.703384 0.196521
O O14 0.000000 0.051047 0.000000
O O15 0.757432 0.000000 0.000000
O O16 0.000000 0.945861 0.711219
O O17 0.765493 0.000000 0.721754
#
# Coordination Sequence:
#
# PCOD9487603 Si02
#       6
#    16  16  16  16   8  16
#     4  11  21  36  59  86 116 151 191 238 291 349
#     4  10  19  35  60  90 122 156 195 239 287 344
#     4  11  24  40  57  81 115 154 197 244 293 346
#     4  11  21  35  58  87 119 154 195 239 288 346
#     4   9  18  34  60  93 126 159 196 239 288 343
#     4  10  21  37  59  85 113 150 197 244 292 349
#
# _framework density 18.834153000000001
#
# number of rings (size 3 to 8) (size 9 to 14) (size 15 to 20)
#    0.000    1.545    1.818    5.455    0.000    4.727 
#    0.000    2.727    0.000    2.182    0.000    0.000 
#    0.000    0.000    0.000    0.000    0.000    0.000 
#
# Total GULP energy -245912.567403 kJ/mol
# GULP energy per Si atom -5588.921986 kJ/mol
# Density = 1.879129 g / cm^3
# Si number density = 18.834153 Si / 1000 Ang^3
#
#
#
# Elastic Constant Matrix: (Units=GPa)
#
#
# Indices 1 2 3 4 5 6 
#
# 1 53.2240 44.3384 39.0735 0.0000 0.0000 0.0000
# 2 44.3384 165.4510 88.7488 0.0000 0.0000 0.0000
# 3 39.0735 88.7488 128.7899 0.0000 0.0000 0.0000
# 4 0.0000 0.0000 0.0000 10.6813 0.0000 0.0000
# 5 0.0000 0.0000 0.0000 0.0000 14.5270 0.0000
# 6 0.0000 0.0000 0.0000 0.0000 0.0000 29.5199
#
#
#
# Elastic Compliance Matrix: (Units=1/GPa)
#
#
# Indices 1 2 3 4 5 6 
#
# 1 0.026000 -0.004341 -0.004897 0.000000 0.000000 0.000000
# 2 -0.004341 0.010313 -0.005790 0.000000 0.000000 0.000000
# 3 -0.004897 -0.005790 0.013240 0.000000 0.000000 0.000000
# 4 0.000000 0.000000 0.000000 0.093621 0.000000 0.000000
# 5 0.000000 0.000000 0.000000 0.000000 0.068838 0.000000
# 6 0.000000 0.000000 0.000000 0.000000 0.000000 0.033875
#
#
# Mechanical properties :
#
#
# Convention : Reuss Voigt Hill
#
# Bulk Modulus (GPa) = 51.28769 76.86514 64.07642
# Shear Modulus (GPa) = 17.70286 22.63260 20.16773
#
# Velocity S-wave (km/s) = 3.06916 3.47028 3.27587
# Velocity P-wave (km/s) = 6.31269 7.54701 6.95727
#
# Compressibility (1/GPa) = 0.01949786
#
# Stress axis : x y z
#
# Youngs Moduli (GPa) = 38.46227 96.96506 75.52967
#
# Poissons Ratio (x) = 0.42091 0.36984
# Poissons Ratio (y) = 0.16696 0.43729
# Poissons Ratio (z) = 0.18834 0.56140
#
# Static dielectric constant tensor:
#      x y z
#    x 1.636830 0.000000 0.000000 
#    y 0.000000 1.641790 0.000000 
#    z 0.000000 0.000000 1.638280 
# 
# From -- ./inp_files/50343.got.cif
#   From: 2010.05.17/outbox.cif.g08.bks.cpg/sg65_26_cif.got.tgz:50343.got - 2010.06.03 17:01:31.
