data_PCOD9487700
_publ_section_title
;
Structure prediction by ZEFSAII (Michael W. Deem and Ramdas Pophale) SiO2 
 PCOD9487700
Probable space group: C M M M
;
_chemical_formula_sum "Si O2"
_cell_formula_units_Z 88
_cell_length_a 13.768171
_cell_length_b 18.781953
_cell_length_c 20.661525
_cell_angle_alpha 90.000000
_cell_angle_beta 90.000000
_cell_angle_gamma 90.000000
_cell_volume 5342.928640
_symmetry_space_group_name_H-M "C M M M"
_symmetry_group_IT_number 65
_symmetry_cell_setting 'orthorhombic'
loop_
_space_group_symop_operation_xyz
x,y,z
-x,-y,z
x,-y,-z
-x,y,-z
-x,-y,-z
x,y,-z
-x,y,z
x,-y,z
1/2+x,1/2+y,z
1/2-x,1/2-y,z
1/2+x,1/2-y,-z
1/2-x,1/2+y,-z
1/2-x,1/2-y,-z
1/2+x,1/2+y,-z
1/2-x,1/2+y,z
1/2+x,1/2-y,z
loop_
_atom_site_type_symbol
_atom_site_label
_atom_site_fract_x
_atom_site_fract_y
_atom_site_fract_z
Si Si1 0.750000 0.750000 0.839173
Si Si2 0.113371 0.851349 0.076709
Si Si3 0.385695 0.713223 0.500000
Si Si4 0.722750 0.500000 0.075615
Si Si5 0.385664 0.152351 0.249291
Si Si6 0.258661 0.917980 0.500000
Si Si7 0.384625 0.838280 0.400588
Si Si8 0.112608 0.500000 0.815686
O O1 0.821022 0.797062 0.883404
O O2 0.683134 0.799845 0.794720
O O3 0.000000 0.848757 0.095472
O O4 0.157494 0.930052 0.086207
O O5 0.119303 0.835429 0.000000
O O6 0.500000 0.698376 0.500000
O O7 0.326679 0.640498 0.500000
O O8 0.364215 0.764131 0.438278
O O9 0.813274 0.500000 0.124400
O O10 0.754018 0.500000 0.000000
O O11 0.500000 0.170316 0.240040
O O12 0.362469 0.163180 0.324853
O O13 0.373061 0.070588 0.227232
O O14 0.324600 0.898469 0.437926
O O15 0.228475 0.000000 0.500000
O O16 0.500000 0.851492 0.408237
O O17 0.000000 0.500000 0.838100
#
# Coordination Sequence:
#
# PCOD9487700 Si02
#       8
#     8  16   8   8  16   8  16   8
#     4  12  21  34  58  81 114 138 178 222 268 333
#     4  10  21  37  57  80 107 141 182 229 274 319
#     4   9  19  37  57  75 106 143 181 220 258 311
#     4  10  19  37  58  79 104 141 188 226 269 322
#     4  10  22  36  55  81 109 145 178 216 272 327
#     4  11  22  32  53  85 109 137 179 219 266 310
#     4   9  19  36  56  79 105 138 179 221 266 314
#     4  10  20  38  55  77 112 145 180 220 270 331
#
# _framework density 16.470367
#
# number of rings (size 3 to 8) (size 9 to 14) (size 15 to 20)
#    0.000    2.000    1.818    3.000    3.818    2.182 
#    0.000    0.000    0.000    0.000    0.000    0.000 
#    0.000    0.000    0.000    0.000    0.000    0.000 
#
# Total GULP energy -245528.966514 kJ/mol
# GULP energy per Si atom -5580.203784 kJ/mol
# Density = 1.643288 g / cm^3
# Si number density = 16.470367 Si / 1000 Ang^3
#
#
#
# Elastic Constant Matrix: (Units=GPa)
#
#
# Indices 1 2 3 4 5 6 
#
# 1 117.5073 77.3350 90.1611 0.0000 0.0000 0.0000
# 2 77.3350 137.8133 79.2087 0.0000 0.0000 0.0000
# 3 90.1611 79.2087 125.0015 0.0000 0.0000 0.0000
# 4 0.0000 0.0000 0.0000 -1.6761 0.0000 0.0000
# 5 0.0000 0.0000 0.0000 0.0000 23.5823 0.0000
# 6 0.0000 0.0000 0.0000 0.0000 0.0000 24.7112
#
#
#
# Elastic Compliance Matrix: (Units=1/GPa)
#
#
# Indices 1 2 3 4 5 6 
#
# 1 0.020913 -0.004822 -0.012029 0.000000 0.000000 0.000000
# 2 -0.004822 0.012525 -0.004458 0.000000 0.000000 0.000000
# 3 -0.012029 -0.004458 0.019501 0.000000 0.000000 0.000000
# 4 0.000000 0.000000 0.000000 -0.596640 0.000000 0.000000
# 5 0.000000 0.000000 0.000000 0.000000 0.042405 0.000000
# 6 0.000000 0.000000 0.000000 0.000000 0.000000 0.040468
#
#
# Mechanical properties :
#
#
# Convention : Reuss Voigt Hill
#
# Bulk Modulus (GPa) = 96.89316 97.08131 96.98724
# Shear Modulus (GPa) = -12.05483 18.23130 3.08823
#
# Velocity S-wave (km/s) = -2.70832 3.33064 1.37080
# Velocity P-wave (km/s) = 7.01260 8.59429 7.84342
#
# Compressibility (1/GPa) = 0.01032065
#
# Stress axis : x y z
#
# Youngs Moduli (GPa) = 47.81753 79.84337 51.27968
#
# Poissons Ratio (x) = 0.38500 0.61682
# Poissons Ratio (y) = 0.23057 0.22862
# Poissons Ratio (z) = 0.57517 0.35597
#
# Static dielectric constant tensor:
#      x y z
#    x 1.547280 0.000000 0.000000 
#    y 0.000000 1.531570 0.000000 
#    z 0.000000 0.000000 1.534330 
# 
# From -- ./inp_files/61536.got.cif
#   From: 2010.05.17/outbox.cif.g08.bks.cpg/sg65_31_cif.got.tgz:61536.got - 2010.06.03 17:01:31.
