data_PCOD9487924
_publ_section_title
;
Structure prediction by ZEFSAII (Michael W. Deem and Ramdas Pophale) SiO2 
 PCOD9487924
Probable space group: C M M M
;
_chemical_formula_sum "Si O2"
_cell_formula_units_Z 88
_cell_length_a 8.992101
_cell_length_b 29.071489
_cell_length_c 24.001327
_cell_angle_alpha 90.000000
_cell_angle_beta 90.000000
_cell_angle_gamma 90.000000
_cell_volume 6274.277263
_symmetry_space_group_name_H-M "C M M M"
_symmetry_group_IT_number 65
_symmetry_cell_setting 'orthorhombic'
loop_
_space_group_symop_operation_xyz
x,y,z
-x,-y,z
x,-y,-z
-x,y,-z
-x,-y,-z
x,y,-z
-x,y,z
x,-y,z
1/2+x,1/2+y,z
1/2-x,1/2-y,z
1/2+x,1/2-y,-z
1/2-x,1/2+y,-z
1/2-x,1/2-y,-z
1/2+x,1/2+y,-z
1/2-x,1/2+y,z
1/2+x,1/2-y,z
loop_
_atom_site_type_symbol
_atom_site_label
_atom_site_fract_x
_atom_site_fract_y
_atom_site_fract_z
Si Si1 0.830032 0.444108 0.825820
Si Si2 0.325763 0.555871 0.061603
Si Si3 0.680515 0.947545 0.500000
Si Si4 0.322547 0.700834 0.566102
Si Si5 0.177121 0.054489 0.710466
Si Si6 0.679053 0.890389 0.609637
O O1 0.829319 0.500000 0.828083
O O2 0.764252 0.427710 0.884730
O O3 0.732196 0.431946 0.772175
O O4 0.000000 0.429251 0.818328
O O5 0.500000 0.567567 0.067313
O O6 0.317972 0.500000 0.061660
O O7 0.273781 0.570960 0.000000
O O8 0.500000 0.948798 0.500000
O O9 0.724789 0.920570 0.555592
O O10 0.734688 0.000000 0.500000
O O11 0.293892 0.692380 0.500000
O O12 0.500000 0.702132 0.574140
O O13 0.250000 0.750000 0.579658
O O14 0.248565 0.659782 0.600517
O O15 0.259841 0.084213 0.664051
O O16 0.000000 0.059923 0.705993
O O17 0.211898 0.000000 0.702737
O O18 0.500000 0.887763 0.611053
#
# Coordination Sequence:
#
# PCOD9487924 Si02
#       6
#    16  16   8  16  16  16
#     4   9  16  25  37  53  73 100 136 176 214 250
#     4   8  13  21  33  49  70  97 129 167 211 253
#     4   9  18  30  44  63  86 111 138 171 210 251
#     4  10  20  34  52  71  91 110 134 167 209 257
#     4  10  20  32  44  59  82 113 147 181 216 255
#     4  11  20  32  49  67  88 111 140 174 215 260
#
# _framework density 14.025518999999999
#
# number of rings (size 3 to 8) (size 9 to 14) (size 15 to 20)
#    0.000    2.455    0.909    3.273    0.000    5.091 
#    0.000    1.818    0.000    2.182    0.000    0.000 
#    0.000    0.000    0.000    0.000    0.000    0.909 
#
# Total GULP energy -245221.001052 kJ/mol
# GULP energy per Si atom -5573.204569 kJ/mol
# Density = 1.399360 g / cm^3
# Si number density = 14.025519 Si / 1000 Ang^3
#
#
#
# Elastic Constant Matrix: (Units=GPa)
#
#
# Indices 1 2 3 4 5 6 
#
# 1 66.6663 36.4659 48.4509 0.0000 0.0000 0.0000
# 2 36.4659 66.1393 43.3883 0.0000 0.0000 0.0000
# 3 48.4509 43.3883 111.2756 0.0000 0.0000 0.0000
# 4 0.0000 0.0000 0.0000 1.4583 0.0000 0.0000
# 5 0.0000 0.0000 0.0000 0.0000 26.0308 0.0000
# 6 0.0000 0.0000 0.0000 0.0000 0.0000 16.9371
#
#
#
# Elastic Compliance Matrix: (Units=1/GPa)
#
#
# Indices 1 2 3 4 5 6 
#
# 1 0.025448 -0.009086 -0.007538 0.000000 0.000000 0.000000
# 2 -0.009086 0.023560 -0.005230 0.000000 0.000000 0.000000
# 3 -0.007538 -0.005230 0.014308 0.000000 0.000000 0.000000
# 4 0.000000 0.000000 0.000000 0.685708 0.000000 0.000000
# 5 0.000000 0.000000 0.000000 0.000000 0.038416 0.000000
# 6 0.000000 0.000000 0.000000 0.000000 0.000000 0.059042
#
#
# Mechanical properties :
#
#
# Convention : Reuss Voigt Hill
#
# Bulk Modulus (GPa) = 50.99843 55.63240 53.31542
# Shear Modulus (GPa) = 5.57583 16.60366 11.08974
#
# Velocity S-wave (km/s) = 1.99603 3.44440 2.81496
# Velocity P-wave (km/s) = 6.46160 7.45451 6.97574
#
# Compressibility (1/GPa) = 0.01960845
#
# Stress axis : x y z
#
# Youngs Moduli (GPa) = 39.29550 42.44402 69.89017
#
# Poissons Ratio (x) = 0.38565 0.52681
# Poissons Ratio (y) = 0.35704 0.36556
# Poissons Ratio (z) = 0.29620 0.22200
#
# Static dielectric constant tensor:
#      x y z
#    x 1.466490 0.000000 0.000000 
#    y 0.000000 1.431110 0.000000 
#    z 0.000000 0.000000 1.464190 
# 
# From -- ./inp_files/60654.got.cif
#   From: 2010.05.17/outbox.cif.g08.bks.cpg/sg65_31_cif.got.tgz:60654.got - 2010.06.03 17:01:31.
