data_PCOD9487597
_publ_section_title
;
Structure prediction by ZEFSAII (Michael W. Deem and Ramdas Pophale) SiO2 
 PCOD9487597
Probable space group: C M M M
;
_chemical_formula_sum "Si O2"
_cell_formula_units_Z 88
_cell_length_a 18.644164
_cell_length_b 13.975338
_cell_length_c 18.718542
_cell_angle_alpha 90.000000
_cell_angle_beta 90.000000
_cell_angle_gamma 90.000000
_cell_volume 4877.275106
_symmetry_space_group_name_H-M "C M M M"
_symmetry_group_IT_number 65
_symmetry_cell_setting 'orthorhombic'
loop_
_space_group_symop_operation_xyz
x,y,z
-x,-y,z
x,-y,-z
-x,y,-z
-x,-y,-z
x,y,-z
-x,y,z
x,-y,z
1/2+x,1/2+y,z
1/2-x,1/2-y,z
1/2+x,1/2-y,-z
1/2-x,1/2+y,-z
1/2-x,1/2-y,-z
1/2+x,1/2+y,-z
1/2-x,1/2+y,z
1/2+x,1/2-y,z
loop_
_atom_site_type_symbol
_atom_site_label
_atom_site_fract_x
_atom_site_fract_y
_atom_site_fract_z
Si Si1 0.861745 0.113756 0.822126
Si Si2 0.701480 0.891864 0.334277
Si Si3 0.802085 0.391482 0.161673
Si Si4 0.500000 0.385493 0.582849
Si Si5 0.419663 0.237152 0.915698
Si Si6 0.859028 0.811763 0.338021
O O1 0.781171 0.132454 0.851259
O O2 0.914326 0.158559 0.879838
O O3 0.870551 0.168298 0.746617
O O4 0.868992 0.000000 0.810223
O O5 0.694179 0.889755 0.247957
O O6 0.784486 0.868339 0.353181
O O7 0.655556 0.799522 0.356654
O O8 0.683081 0.000000 0.358074
O O9 0.814799 0.500000 0.137723
O O10 0.859779 0.324946 0.124412
O O11 0.500000 0.500000 0.587182
O O12 0.500000 0.356922 0.500000
O O13 0.571852 0.348537 0.620810
O O14 0.500000 0.198460 0.904085
O O15 0.406038 0.240522 0.000000
#
# Coordination Sequence:
#
# PCOD9487597 Si02
#       6
#    16  16  16   8  16  16
#     4  10  20  35  57  81 103 138 189 236 281 335
#     4   9  17  33  59  89 115 144 190 241 283 326
#     4   9  18  35  56  78 105 138 184 237 283 330
#     4  11  24  40  59  89 126 158 188 225 277 339
#     4  11  24  37  49  73 111 148 183 231 289 343
#     4  10  19  35  60  87 117 149 187 235 282 334
#
# _framework density 18.042860999999998
#
# number of rings (size 3 to 8) (size 9 to 14) (size 15 to 20)
#    0.000    2.091    1.818    3.273    1.273    2.909 
#    0.000    5.909    0.000    2.182    0.000    0.000 
#    0.000    0.000    0.000    0.000    0.000    0.000 
#
# Total GULP energy -245325.282034 kJ/mol
# GULP energy per Si atom -5575.574592 kJ/mol
# Density = 1.800180 g / cm^3
# Si number density = 18.042861 Si / 1000 Ang^3
#
#
#
# Elastic Constant Matrix: (Units=GPa)
#
#
# Indices 1 2 3 4 5 6 
#
# 1 107.5661 59.0125 65.8401 0.0000 0.0000 0.0000
# 2 59.0125 124.6198 40.4582 0.0000 0.0000 0.0000
# 3 65.8401 40.4582 52.6226 0.0000 0.0000 0.0000
# 4 0.0000 0.0000 0.0000 14.3207 0.0000 0.0000
# 5 0.0000 0.0000 0.0000 0.0000 34.0371 0.0000
# 6 0.0000 0.0000 0.0000 0.0000 0.0000 17.4246
#
#
#
# Elastic Compliance Matrix: (Units=1/GPa)
#
#
# Indices 1 2 3 4 5 6 
#
# 1 0.040924 -0.003673 -0.048379 0.000000 0.000000 0.000000
# 2 -0.003673 0.011023 -0.003880 0.000000 0.000000 0.000000
# 3 -0.048379 -0.003880 0.082517 0.000000 0.000000 0.000000
# 4 0.000000 0.000000 0.000000 0.069829 0.000000 0.000000
# 5 0.000000 0.000000 0.000000 0.000000 0.029380 0.000000
# 6 0.000000 0.000000 0.000000 0.000000 0.000000 0.057390
#
#
# Mechanical properties :
#
#
# Convention : Reuss Voigt Hill
#
# Bulk Modulus (GPa) = 44.24662 68.38112 56.31387
# Shear Modulus (GPa) = 12.18144 21.12300 16.65222
#
# Velocity S-wave (km/s) = 2.60116 3.42528 3.04127
# Velocity P-wave (km/s) = 5.79635 7.32290 6.60389
#
# Compressibility (1/GPa) = 0.02260060
#
# Stress axis : x y z
#
# Youngs Moduli (GPa) = 24.43555 90.71798 12.11868
#
# Poissons Ratio (x) = 0.33318 0.58629
# Poissons Ratio (y) = 0.08974 0.04702
# Poissons Ratio (z) = 1.18218 0.35197
#
# Static dielectric constant tensor:
#      x y z
#    x 1.610170 0.000000 0.000000 
#    y 0.000000 1.660330 0.000000 
#    z 0.000000 0.000000 1.588960 
# 
# From -- ./inp_files/54310.got.cif
#   From: 2010.05.17/outbox.cif.g08.bks.cpg/sg65_28_cif.got.tgz:54310.got - 2010.06.03 17:01:31.
