data_PCOD9487406
_publ_section_title
;
Structure prediction by ZEFSAII (Michael W. Deem and Ramdas Pophale) SiO2 
 PCOD9487406
Probable space group: C M M M
;
_chemical_formula_sum "Si O2"
_cell_formula_units_Z 104
_cell_length_a 8.657637
_cell_length_b 24.223811
_cell_length_c 29.512429
_cell_angle_alpha 90.000000
_cell_angle_beta 90.000000
_cell_angle_gamma 90.000000
_cell_volume 6189.375012
_symmetry_space_group_name_H-M "C M M M"
_symmetry_group_IT_number 65
_symmetry_cell_setting 'orthorhombic'
loop_
_space_group_symop_operation_xyz
x,y,z
-x,-y,z
x,-y,-z
-x,y,-z
-x,-y,-z
x,y,-z
-x,y,z
x,-y,z
1/2+x,1/2+y,z
1/2-x,1/2-y,z
1/2+x,1/2-y,-z
1/2-x,1/2+y,-z
1/2-x,1/2-y,-z
1/2+x,1/2+y,-z
1/2-x,1/2+y,z
1/2+x,1/2-y,z
loop_
_atom_site_type_symbol
_atom_site_label
_atom_site_fract_x
_atom_site_fract_y
_atom_site_fract_z
Si Si1 0.813580 0.500000 0.806788
Si Si2 0.684886 0.811331 0.866470
Si Si3 0.316234 0.687742 0.307678
Si Si4 0.314256 0.812656 0.401891
Si Si5 0.313700 0.500000 0.091369
Si Si6 0.686812 0.617920 0.948488
Si Si7 0.686014 0.187552 0.500000
Si Si8 0.813448 0.379674 0.223477
O O1 0.749723 0.500000 0.857758
O O2 0.766930 0.556445 0.782015
O O3 0.000000 0.500000 0.809809
O O4 0.500000 0.809419 0.868095
O O5 0.750000 0.750000 0.861662
O O6 0.747053 0.840094 0.911770
O O7 0.729946 0.847990 0.822855
O O8 0.250000 0.750000 0.302366
O O9 0.254802 0.663873 0.355588
O O10 0.260627 0.650775 0.266033
O O11 0.000000 0.808538 0.309064
O O12 0.500000 0.811588 0.398403
O O13 0.250000 0.750000 0.402971
O O14 0.269734 0.837619 0.451108
O O15 0.500000 0.500000 0.093056
O O16 0.265749 0.555882 0.065853
O O17 0.500000 0.620187 0.946857
O O18 0.735242 0.629693 0.000000
O O19 0.500000 0.190801 0.500000
O O20 0.750000 0.250000 0.500000
O O21 0.000000 0.377054 0.227732
#
# Coordination Sequence:
#
# PCOD9487406 Si02
#       8
#     8  16  16  16   8  16   8  16
#     4  10  20  37  59  81 104 127 157 200 251 300
#     4  11  23  38  57  78 103 133 169 206 247 296
#     4  11  21  32  48  71 101 136 174 211 250 296
#     4   9  15  25  40  61  92 129 170 210 251 294
#     4  10  19  34  58  84 108 132 161 199 245 294
#     4  10  21  37  57  81 108 136 166 201 243 292
#     4   8  14  22  36  58  86 125 168 209 248 292
#     4  10  21  37  56  77 101 129 162 203 250 300
#
# _framework density 16.802987999999999
#
# number of rings (size 3 to 8) (size 9 to 14) (size 15 to 20)
#    0.000    2.000    1.538    3.923    0.000    5.231 
#    0.000    0.000    0.000    1.385    0.000    0.000 
#    0.000    0.615    0.000    7.077    0.000    3.538 
#
# Total GULP energy -290034.351891 kJ/mol
# GULP energy per Si atom -5577.583690 kJ/mol
# Density = 1.676474 g / cm^3
# Si number density = 16.802988 Si / 1000 Ang^3
#
#
#
# Elastic Constant Matrix: (Units=GPa)
#
#
# Indices 1 2 3 4 5 6 
#
# 1 44.2983 32.0511 50.4305 0.0000 0.0000 0.0000
# 2 32.0511 103.7626 68.3979 0.0000 0.0000 0.0000
# 3 50.4305 68.3979 186.0646 0.0000 0.0000 0.0000
# 4 0.0000 0.0000 0.0000 -1.5447 0.0000 0.0000
# 5 0.0000 0.0000 0.0000 0.0000 27.6804 0.0000
# 6 0.0000 0.0000 0.0000 0.0000 0.0000 5.7898
#
#
#
# Elastic Compliance Matrix: (Units=1/GPa)
#
#
# Indices 1 2 3 4 5 6 
#
# 1 0.035327 -0.006072 -0.007343 0.000000 0.000000 0.000000
# 2 -0.006072 0.013763 -0.003414 0.000000 0.000000 0.000000
# 3 -0.007343 -0.003414 0.008620 0.000000 0.000000 0.000000
# 4 0.000000 0.000000 0.000000 -0.647394 0.000000 0.000000
# 5 0.000000 0.000000 0.000000 0.000000 0.036127 0.000000
# 6 0.000000 0.000000 0.000000 0.000000 0.000000 0.172718
#
#
# Mechanical properties :
#
#
# Convention : Reuss Voigt Hill
#
# Bulk Modulus (GPa) = 41.57535 70.65385 56.11460
# Shear Modulus (GPa) = -14.74206 18.60149 1.92972
#
# Velocity S-wave (km/s) = -2.96522 3.33082 1.07281
# Velocity P-wave (km/s) = 3.61569 7.54534 5.91631
#
# Compressibility (1/GPa) = 0.02405271
#
# Stress axis : x y z
#
# Youngs Moduli (GPa) = 28.30722 72.65803 116.01527
#
# Poissons Ratio (x) = 0.44116 0.85188
# Poissons Ratio (y) = 0.17187 0.39604
# Poissons Ratio (z) = 0.20786 0.24803
#
# Static dielectric constant tensor:
#      x y z
#    x 1.572410 0.000000 0.000000 
#    y 0.000000 1.542830 0.000000 
#    z 0.000000 0.000000 1.593120 
# 
# From -- ./inp_files/77068.got.cif
#   From: 2010.05.17/outbox.cif.g08.bks.cpg/sg65_39_cif.got.tgz:77068.got - 2010.06.03 17:01:31.
