data_PCOD9487847
_publ_section_title
;
Structure prediction by ZEFSAII (Michael W. Deem and Ramdas Pophale) SiO2 
 PCOD9487847
Probable space group: C M M M
;
_chemical_formula_sum "Si O2"
_cell_formula_units_Z 96
_cell_length_a 32.091334
_cell_length_b 13.486524
_cell_length_c 13.105759
_cell_angle_alpha 90.000000
_cell_angle_beta 90.000000
_cell_angle_gamma 90.000000
_cell_volume 5672.179653
_symmetry_space_group_name_H-M "C M M M"
_symmetry_group_IT_number 65
_symmetry_cell_setting 'orthorhombic'
loop_
_space_group_symop_operation_xyz
x,y,z
-x,-y,z
x,-y,-z
-x,y,-z
-x,-y,-z
x,y,-z
-x,y,z
x,-y,z
1/2+x,1/2+y,z
1/2-x,1/2-y,z
1/2+x,1/2-y,-z
1/2-x,1/2+y,-z
1/2-x,1/2-y,-z
1/2+x,1/2+y,-z
1/2-x,1/2+y,z
1/2+x,1/2-y,z
loop_
_atom_site_type_symbol
_atom_site_label
_atom_site_fract_x
_atom_site_fract_y
_atom_site_fract_z
Si Si1 0.647066 0.618425 0.118534
Si Si2 0.354186 0.380440 0.500000
Si Si3 0.242864 0.881044 0.500000
Si Si4 0.755153 0.119051 0.113338
Si Si5 0.049340 0.614283 0.621869
Si Si6 0.119374 0.243500 0.693775
Si Si7 0.200590 0.620025 0.693842
O O1 0.642487 0.500000 0.137713
O O2 0.696317 0.643047 0.129534
O O3 0.622805 0.683461 0.200729
O O4 0.635911 0.636521 0.000000
O O5 0.356926 0.500000 0.500000
O O6 0.305212 0.350100 0.500000
O O7 0.374602 0.333364 0.600621
O O8 0.269129 0.854367 0.599816
O O9 0.240855 0.000000 0.500000
O O10 0.724802 0.149698 0.203292
O O11 0.754287 0.000000 0.114496
O O12 0.741423 0.149360 0.000000
O O13 0.056924 0.624569 0.500000
O O14 0.059771 0.500000 0.649018
O O15 0.077559 0.693336 0.679463
O O16 0.000000 0.628115 0.638783
O O17 0.157597 0.321400 0.686601
O O18 0.194114 0.500000 0.692946
#
# Coordination Sequence:
#
# PCOD9487847 Si02
#       7
#    16   8   8  16  16  16  16
#     4   9  19  35  53  73 103 147 192 225 254 297
#     4  11  23  35  47  70 105 143 176 212 259 305
#     4   9  19  33  43  58  99 149 178 201 248 315
#     4   8  15  30  48  66  97 142 185 223 261 297
#     4   9  19  38  62  85 110 137 164 201 258 330
#     4  12  21  32  54  82 103 131 174 225 265 311
#     4  10  20  31  45  70 103 136 173 220 266 308
#
# _framework density 16.924710999999999
#
# number of rings (size 3 to 8) (size 9 to 14) (size 15 to 20)
#    0.000    2.333    0.833    4.000    0.000    6.667 
#    0.000    1.667    0.000    4.500    0.000    2.333 
#    0.000    0.000    0.000    0.000    0.000    0.000 
#
# Total GULP energy -267984.305432 kJ/mol
# GULP energy per Si atom -5583.006363 kJ/mol
# Density = 1.688619 g / cm^3
# Si number density = 16.924711 Si / 1000 Ang^3
#
#
#
# Elastic Constant Matrix: (Units=GPa)
#
#
# Indices 1 2 3 4 5 6 
#
# 1 53.0288 41.4527 41.9073 0.0000 0.0000 0.0000
# 2 41.4527 124.1536 57.7586 0.0000 0.0000 0.0000
# 3 41.9073 57.7586 110.1521 0.0000 0.0000 0.0000
# 4 0.0000 0.0000 0.0000 11.1664 0.0000 0.0000
# 5 0.0000 0.0000 0.0000 0.0000 25.7779 0.0000
# 6 0.0000 0.0000 0.0000 0.0000 0.0000 33.0570
#
#
#
# Elastic Compliance Matrix: (Units=1/GPa)
#
#
# Indices 1 2 3 4 5 6 
#
# 1 0.030263 -0.006280 -0.008221 0.000000 0.000000 0.000000
# 2 -0.006280 0.011956 -0.003880 0.000000 0.000000 0.000000
# 3 -0.008221 -0.003880 0.014241 0.000000 0.000000 0.000000
# 4 0.000000 0.000000 0.000000 0.089554 0.000000 0.000000
# 5 0.000000 0.000000 0.000000 0.000000 0.038793 0.000000
# 6 0.000000 0.000000 0.000000 0.000000 0.000000 0.030251
#
#
# Mechanical properties :
#
#
# Convention : Reuss Voigt Hill
#
# Bulk Modulus (GPa) = 50.76523 63.28576 57.02549
# Shear Modulus (GPa) = 19.35090 23.74801 21.54945
#
# Velocity S-wave (km/s) = 3.38502 3.74994 3.57214
# Velocity P-wave (km/s) = 6.73332 7.49820 7.12603
#
# Compressibility (1/GPa) = 0.01969852
#
# Stress axis : x y z
#
# Youngs Moduli (GPa) = 33.04325 83.63695 70.22215
#
# Poissons Ratio (x) = 0.52524 0.57728
# Poissons Ratio (y) = 0.20751 0.27248
# Poissons Ratio (z) = 0.27164 0.32453
#
# Static dielectric constant tensor:
#      x y z
#    x 1.529020 0.000000 0.000000 
#    y 0.000000 1.607380 0.000000 
#    z 0.000000 0.000000 1.572580 
# 
# From -- ./inp_files/33916.got.cif
#   From: 2010.05.17/outbox.cif.g08.bks.cpg/sg65_17_cif.got.tgz:33916.got - 2010.06.03 17:01:31.
