data_PCOD9487202
_publ_section_title
;
Structure prediction by ZEFSAII (Michael W. Deem and Ramdas Pophale) SiO2 
 PCOD9487202
Probable space group: C M M M
;
_chemical_formula_sum "Si O2"
_cell_formula_units_Z 88
_cell_length_a 30.185010
_cell_length_b 7.595076
_cell_length_c 18.174127
_cell_angle_alpha 90.000000
_cell_angle_beta 90.000000
_cell_angle_gamma 90.000000
_cell_volume 4166.553921
_symmetry_space_group_name_H-M "C M M M"
_symmetry_group_IT_number 65
_symmetry_cell_setting 'orthorhombic'
loop_
_space_group_symop_operation_xyz
x,y,z
-x,-y,z
x,-y,-z
-x,y,-z
-x,-y,-z
x,y,-z
-x,y,z
x,-y,z
1/2+x,1/2+y,z
1/2-x,1/2-y,z
1/2+x,1/2-y,-z
1/2-x,1/2+y,-z
1/2-x,1/2-y,-z
1/2+x,1/2+y,-z
1/2-x,1/2+y,z
1/2+x,1/2-y,z
loop_
_atom_site_type_symbol
_atom_site_label
_atom_site_fract_x
_atom_site_fract_y
_atom_site_fract_z
Si Si1 0.699098 0.208196 0.280476
Si Si2 0.355475 0.783969 0.415441
Si Si3 0.548971 0.285798 0.913477
Si Si4 0.952584 0.710297 0.588745
Si Si5 0.301972 0.288198 0.000000
Si Si6 0.642017 0.290501 0.861145
O O1 0.750000 0.250000 0.264735
O O2 0.681601 0.278172 0.358714
O O3 0.666447 0.263054 0.215440
O O4 0.695999 0.000000 0.285063
O O5 0.348978 0.728097 0.500000
O O6 0.404307 0.725081 0.387440
O O7 0.356198 0.000000 0.416900
O O8 0.500000 0.223571 0.890421
O O9 0.547870 0.500000 0.909715
O O10 0.591807 0.222175 0.868968
O O11 0.555209 0.242242 0.000000
O O12 0.952398 0.732709 0.500000
O O13 0.953169 0.500000 0.602217
O O14 0.000000 0.781946 0.616211
O O15 0.250000 0.250000 0.000000
O O16 0.327105 0.221143 0.927337
O O17 0.305679 0.500000 0.000000
O O18 0.638794 0.500000 0.872289
#
# Coordination Sequence:
#
# PCOD9487202 Si02
#       6
#    16  16  16  16   8  16
#     4  11  23  37  52  72  99 133 171 214 267 316
#     4   8  15  29  48  69  94 126 166 210 253 302
#     4   8  13  25  50  81 107 133 169 209 244 286
#     4   7   9  16  35  63  91 118 149 186 231 285
#     4  10  20  32  49  73  97 127 168 210 247 288
#     4  10  19  34  54  77 105 134 168 208 250 297
#
# _framework density 21.120571999999999
#
# number of rings (size 3 to 8) (size 9 to 14) (size 15 to 20)
#    0.000    3.091    0.909    3.273    0.000    2.545 
#    0.000    0.909    0.000    3.273    0.000    1.273 
#    0.000    0.000    0.000   22.727    0.000   14.545 
#
# Total GULP energy -245245.910438 kJ/mol
# GULP energy per Si atom -5573.770692 kJ/mol
# Density = 2.107250 g / cm^3
# Si number density = 21.120572 Si / 1000 Ang^3
#
#
#
# Elastic Constant Matrix: (Units=GPa)
#
#
# Indices 1 2 3 4 5 6 
#
# 1 211.0357 6.5766 83.6680 0.0000 0.0000 0.0000
# 2 6.5766 41.5352 0.3860 0.0000 0.0000 0.0000
# 3 83.6680 0.3860 96.3251 0.0000 0.0000 0.0000
# 4 0.0000 0.0000 0.0000 2.3226 0.0000 0.0000
# 5 0.0000 0.0000 0.0000 0.0000 35.8009 0.0000
# 6 0.0000 0.0000 0.0000 0.0000 0.0000 -5.4856
#
#
#
# Elastic Compliance Matrix: (Units=1/GPa)
#
#
# Indices 1 2 3 4 5 6 
#
# 1 0.007277 -0.001093 -0.006316 0.000000 0.000000 0.000000
# 2 -0.001093 0.024241 0.000853 0.000000 0.000000 0.000000
# 3 -0.006316 0.000853 0.015864 0.000000 0.000000 0.000000
# 4 0.000000 0.000000 0.000000 0.430544 0.000000 0.000000
# 5 0.000000 0.000000 0.000000 0.000000 0.027932 0.000000
# 6 0.000000 0.000000 0.000000 0.000000 0.000000 -0.182296
#
#
# Mechanical properties :
#
#
# Convention : Reuss Voigt Hill
#
# Bulk Modulus (GPa) = 29.18153 58.90633 44.04393
# Shear Modulus (GPa) = 14.36370 23.74528 19.05449
#
# Velocity S-wave (km/s) = 2.61067 3.35666 3.00688
# Velocity P-wave (km/s) = 4.78895 6.55545 5.74056
#
# Compressibility (1/GPa) = 0.03426825
#
# Stress axis : x y z
#
# Youngs Moduli (GPa) = 137.42380 41.25210 63.03438
#
# Poissons Ratio (x) = 0.04511 0.39814
# Poissons Ratio (y) = 0.15027 -0.05375
# Poissons Ratio (z) = 0.86800 -0.03517
#
# Static dielectric constant tensor:
#      x y z
#    x 1.789270 0.000000 0.000000 
#    y 0.000000 1.810750 0.000000 
#    z 0.000000 0.000000 1.754930 
# 
# From -- ./inp_files/57992.got.cif
#   From: 2010.05.17/outbox.cif.g08.bks.cpg/sg65_29_cif.got.tgz:57992.got - 2010.06.03 17:01:31.
