data_PCOD9487622
_publ_section_title
;
Structure prediction by ZEFSAII (Michael W. Deem and Ramdas Pophale) SiO2 
 PCOD9487622
Probable space group: C M M M
;
_chemical_formula_sum "Si O2"
_cell_formula_units_Z 64
_cell_length_a 8.797710
_cell_length_b 24.204731
_cell_length_c 15.707894
_cell_angle_alpha 90.000000
_cell_angle_beta 90.000000
_cell_angle_gamma 90.000000
_cell_volume 3344.936400
_symmetry_space_group_name_H-M "C M M M"
_symmetry_group_IT_number 65
_symmetry_cell_setting 'orthorhombic'
loop_
_space_group_symop_operation_xyz
x,y,z
-x,-y,z
x,-y,-z
-x,y,-z
-x,-y,-z
x,y,-z
-x,y,z
x,-y,z
1/2+x,1/2+y,z
1/2-x,1/2-y,z
1/2+x,1/2-y,-z
1/2-x,1/2+y,-z
1/2-x,1/2-y,-z
1/2+x,1/2+y,-z
1/2-x,1/2+y,z
1/2+x,1/2-y,z
loop_
_atom_site_type_symbol
_atom_site_label
_atom_site_fract_x
_atom_site_fract_y
_atom_site_fract_z
Si Si1 0.681155 0.383255 0.596468
Si Si2 0.818058 0.120493 0.903104
Si Si3 0.180036 0.000000 0.830677
Si Si4 0.680420 0.000000 0.355022
Si Si5 0.318904 0.188909 0.251695
O O1 0.709632 0.363696 0.500000
O O2 0.500000 0.384891 0.610726
O O3 0.746922 0.444819 0.606483
O O4 0.756763 0.344966 0.667384
O O5 0.734336 0.156834 0.832941
O O6 0.000000 0.129441 0.895160
O O7 0.790961 0.055832 0.882838
O O8 0.773163 0.133129 0.000000
O O9 0.277780 0.000000 0.745030
O O10 0.000000 0.000000 0.807099
O O11 0.500000 0.000000 0.367374
O O12 0.500000 0.191353 0.254998
O O13 0.250000 0.250000 0.251862
#
# Coordination Sequence:
#
# PCOD9487622 Si02
#       5
#    16  16   8   8  16
#     4  11  24  43  67  94 126 166 209 256 313 375
#     4  10  21  39  65  96 129 167 210 256 310 372
#     4  10  19  35  63  93 129 169 205 249 307 374
#     4  12  23  36  61  97 133 168 205 253 311 369
#     4  12  26  44  66  91 124 165 211 263 316 371
#
# _framework density 19.133399000000001
#
# number of rings (size 3 to 8) (size 9 to 14) (size 15 to 20)
#    0.000    1.000    2.500    4.875    0.000    6.500 
#    0.000    0.000    0.000    2.250    0.000    0.000 
#    0.000    0.000    0.000    0.000    0.000    0.000 
#
# Total GULP energy -179036.865392 kJ/mol
# GULP energy per Si atom -5594.902044 kJ/mol
# Density = 1.908985 g / cm^3
# Si number density = 19.133399 Si / 1000 Ang^3
#
#
#
# Elastic Constant Matrix: (Units=GPa)
#
#
# Indices 1 2 3 4 5 6 
#
# 1 126.3216 78.9208 102.3057 0.0000 0.0000 0.0000
# 2 78.9208 159.3552 87.5563 0.0000 0.0000 0.0000
# 3 102.3057 87.5563 176.7565 0.0000 0.0000 0.0000
# 4 0.0000 0.0000 0.0000 -6.9756 0.0000 0.0000
# 5 0.0000 0.0000 0.0000 0.0000 6.8270 0.0000
# 6 0.0000 0.0000 0.0000 0.0000 0.0000 28.5085
#
#
#
# Elastic Compliance Matrix: (Units=1/GPa)
#
#
# Indices 1 2 3 4 5 6 
#
# 1 0.016603 -0.004043 -0.007607 0.000000 0.000000 0.000000
# 2 -0.004043 0.009606 -0.002418 0.000000 0.000000 0.000000
# 3 -0.007607 -0.002418 0.011258 0.000000 0.000000 0.000000
# 4 0.000000 0.000000 0.000000 -0.143356 0.000000 0.000000
# 5 0.000000 0.000000 0.000000 0.000000 0.146477 0.000000
# 6 0.000000 0.000000 0.000000 0.000000 0.000000 0.035077
#
#
# Mechanical properties :
#
#
# Convention : Reuss Voigt Hill
#
# Bulk Modulus (GPa) = 107.17198 111.11099 109.14148
# Shear Modulus (GPa) = 46.76706 18.58201 32.67453
#
# Velocity S-wave (km/s) = 4.94931 3.11976 4.13694
# Velocity P-wave (km/s) = 9.42314 8.43653 8.94345
#
# Compressibility (1/GPa) = 0.00933080
#
# Stress axis : x y z
#
# Youngs Moduli (GPa) = 60.22988 104.09720 88.82271
#
# Poissons Ratio (x) = 0.42087 0.67568
# Poissons Ratio (y) = 0.24351 0.21481
# Poissons Ratio (z) = 0.45817 0.25175
#
# Static dielectric constant tensor:
#      x y z
#    x 1.638010 0.000000 0.000000 
#    y 0.000000 1.633180 0.000000 
#    z 0.000000 0.000000 1.657090 
# 
# From -- ./inp_files/36008.got.cif
#   From: 2010.05.17/outbox.cif.g08.bks.cpg/sg65_19_cif.got.tgz:36008.got - 2010.06.03 17:01:31.
