data_PCOD9487161
_publ_section_title
;
Structure prediction by ZEFSAII (Michael W. Deem and Ramdas Pophale) SiO2 
 PCOD9487161
Probable space group: C M M M
;
_chemical_formula_sum "Si O2"
_cell_formula_units_Z 88
_cell_length_a 24.086744
_cell_length_b 7.671169
_cell_length_c 24.268715
_cell_angle_alpha 90.000000
_cell_angle_beta 90.000000
_cell_angle_gamma 90.000000
_cell_volume 4484.215020
_symmetry_space_group_name_H-M "C M M M"
_symmetry_group_IT_number 65
_symmetry_cell_setting 'orthorhombic'
loop_
_space_group_symop_operation_xyz
x,y,z
-x,-y,z
x,-y,-z
-x,y,-z
-x,-y,-z
x,y,-z
-x,y,z
x,-y,z
1/2+x,1/2+y,z
1/2-x,1/2-y,z
1/2+x,1/2-y,-z
1/2-x,1/2+y,-z
1/2-x,1/2-y,-z
1/2+x,1/2+y,-z
1/2-x,1/2+y,z
1/2+x,1/2-y,z
loop_
_atom_site_type_symbol
_atom_site_label
_atom_site_fract_x
_atom_site_fract_y
_atom_site_fract_z
Si Si1 0.184467 0.791062 0.500000
Si Si2 0.121173 0.706695 0.060519
Si Si3 0.116570 0.205036 0.724297
Si Si4 0.000000 0.790854 0.102232
Si Si5 0.815417 0.789506 0.379672
Si Si6 0.314839 0.208209 0.832246
Si Si7 0.500000 0.714232 0.230158
O O1 0.250000 0.750000 0.500000
O O2 0.165000 0.725612 0.559811
O O3 0.176918 0.000000 0.500000
O O4 0.132545 0.500000 0.058633
O O5 0.155624 0.777865 0.112357
O O6 0.056108 0.730004 0.073092
O O7 0.134478 0.779880 0.000000
O O8 0.148209 0.278827 0.671081
O O9 0.155195 0.221251 0.777942
O O10 0.056044 0.275668 0.740166
O O11 0.108388 0.000000 0.713349
O O12 0.000000 0.731957 0.166054
O O13 0.000000 0.000000 0.101709
O O14 0.750000 0.750000 0.372297
O O15 0.819187 0.000000 0.380123
O O16 0.250000 0.250000 0.832274
O O17 0.321909 0.000000 0.830758
O O18 0.500000 0.500000 0.229613
#
# Coordination Sequence:
#
# PCOD9487161 Si02
#       7
#     8  16  16   8  16  16   8
#     4   8  14  26  42  67  97 129 165 202 239 284
#     4  10  22  39  56  75 102 134 165 202 251 302
#     4  10  19  34  53  74 100 133 167 205 250 297
#     4  11  20  34  57  82 103 128 165 209 250 295
#     4   9  17  28  47  71 100 132 165 202 245 291
#     4  11  23  37  54  75 100 131 165 204 249 300
#     4   9  18  32  52  74 100 129 161 202 249 293
#
# _framework density 19.624393000000001
#
# number of rings (size 3 to 8) (size 9 to 14) (size 15 to 20)
#    0.000    2.182    1.818    1.636    0.000    4.727 
#    0.000    0.455    0.000    0.545    0.000    3.818 
#    0.000    0.000    0.000   15.000    0.000   11.091 
#
# Total GULP energy -245539.546084 kJ/mol
# GULP energy per Si atom -5580.444229 kJ/mol
# Density = 1.957973 g / cm^3
# Si number density = 19.624393 Si / 1000 Ang^3
#
#
#
# Elastic Constant Matrix: (Units=GPa)
#
#
# Indices 1 2 3 4 5 6 
#
# 1 104.9392 -16.9215 70.4539 0.0000 0.0000 0.0000
# 2 -16.9215 35.4484 -3.0552 0.0000 0.0000 0.0000
# 3 70.4539 -3.0552 202.9745 0.0000 0.0000 0.0000
# 4 0.0000 0.0000 0.0000 16.0282 0.0000 0.0000
# 5 0.0000 0.0000 0.0000 0.0000 35.6214 0.0000
# 6 0.0000 0.0000 0.0000 0.0000 0.0000 75.0460
#
#
#
# Elastic Compliance Matrix: (Units=1/GPa)
#
#
# Indices 1 2 3 4 5 6 
#
# 1 0.013628 0.006106 -0.004638 0.000000 0.000000 0.000000
# 2 0.006106 0.030982 -0.001653 0.000000 0.000000 0.000000
# 3 -0.004638 -0.001653 0.006512 0.000000 0.000000 0.000000
# 4 0.000000 0.000000 0.000000 0.062390 0.000000 0.000000
# 5 0.000000 0.000000 0.000000 0.000000 0.028073 0.000000
# 6 0.000000 0.000000 0.000000 0.000000 0.000000 0.013325
#
#
# Mechanical properties :
#
#
# Convention : Reuss Voigt Hill
#
# Bulk Modulus (GPa) = 19.70427 49.36850 34.53638
# Shear Modulus (GPa) = 29.03623 44.86479 36.95051
#
# Velocity S-wave (km/s) = 3.85073 4.78658 4.34393
# Velocity P-wave (km/s) = 5.46199 7.46725 6.54191
#
# Compressibility (1/GPa) = 0.05075043
#
# Stress axis : x y z
#
# Youngs Moduli (GPa) = 73.37807 32.27669 153.56504
#
# Poissons Ratio (x) = -0.19707 0.71231
# Poissons Ratio (y) = -0.44802 0.25384
# Poissons Ratio (z) = 0.34036 0.05335
#
# Static dielectric constant tensor:
#      x y z
#    x 1.644100 0.000000 0.000000 
#    y 0.000000 1.745030 0.000000 
#    z 0.000000 0.000000 1.726990 
# 
# From -- ./inp_files/65265.got.cif
#   From: 2010.05.17/outbox.cif.g08.bks.cpg/sg65_33_cif.got.tgz:65265.got - 2010.06.03 17:01:31.
