data_PCOD9487499
_publ_section_title
;
Structure prediction by ZEFSAII (Michael W. Deem and Ramdas Pophale) SiO2 
 PCOD9487499
Probable space group: C M M M
;
_chemical_formula_sum "Si O2"
_cell_formula_units_Z 72
_cell_length_a 17.299126
_cell_length_b 15.914421
_cell_length_c 14.200210
_cell_angle_alpha 90.000000
_cell_angle_beta 90.000000
_cell_angle_gamma 90.000000
_cell_volume 3909.396966
_symmetry_space_group_name_H-M "C M M M"
_symmetry_group_IT_number 65
_symmetry_cell_setting 'orthorhombic'
loop_
_space_group_symop_operation_xyz
x,y,z
-x,-y,z
x,-y,-z
-x,y,-z
-x,-y,-z
x,y,-z
-x,y,z
x,-y,z
1/2+x,1/2+y,z
1/2-x,1/2-y,z
1/2+x,1/2-y,-z
1/2-x,1/2+y,-z
1/2-x,1/2-y,-z
1/2+x,1/2+y,-z
1/2-x,1/2+y,z
1/2+x,1/2-y,z
loop_
_atom_site_type_symbol
_atom_site_label
_atom_site_fract_x
_atom_site_fract_y
_atom_site_fract_z
Si Si1 0.268929 0.850273 0.393604
Si Si2 0.169839 0.145452 0.221178
Si Si3 0.683771 0.900766 0.890263
Si Si4 0.591360 0.500000 0.893171
Si Si5 0.590388 0.823552 0.735690
O O1 0.264951 0.882105 0.500000
O O2 0.250000 0.750000 0.395515
O O3 0.206050 0.886004 0.320349
O O4 0.353670 0.858106 0.347078
O O5 0.246092 0.151893 0.155549
O O6 0.117780 0.080123 0.165785
O O7 0.122898 0.230356 0.240630
O O8 0.609367 0.878345 0.828142
O O9 0.702241 0.000000 0.879915
O O10 0.674125 0.882133 0.000000
O O11 0.500000 0.500000 0.900944
O O12 0.624595 0.500000 0.000000
O O13 0.500000 0.822421 0.712962
#
# Coordination Sequence:
#
# PCOD9487499 Si02
#       5
#    16  16  16   8  16
#     4   8  16  33  57  80 101 135 181 223 269 325
#     4  10  19  35  56  78 108 143 184 229 269 324
#     4  10  20  35  55  75 100 143 192 229 268 323
#     4  11  22  34  53  81 114 151 185 223 275 327
#     4  10  21  34  52  81 113 141 174 225 282 330
#
# _framework density 18.417162999999999
#
# number of rings (size 3 to 8) (size 9 to 14) (size 15 to 20)
#    0.000    2.333    1.111    3.333    0.000    4.000 
#    0.000    1.667    0.000    2.667    0.000    3.111 
#    0.000    0.000    0.000    0.000    0.000    0.000 
#
# Total GULP energy -200714.048196 kJ/mol
# GULP energy per Si atom -5575.390228 kJ/mol
# Density = 1.837525 g / cm^3
# Si number density = 18.417163 Si / 1000 Ang^3
#
#
#
# Elastic Constant Matrix: (Units=GPa)
#
#
# Indices 1 2 3 4 5 6 
#
# 1 111.1842 12.9334 48.7248 0.0000 0.0000 0.0000
# 2 12.9334 35.4612 28.4358 0.0000 0.0000 0.0000
# 3 48.7248 28.4358 170.5881 0.0000 0.0000 0.0000
# 4 0.0000 0.0000 0.0000 100.3910 0.0000 0.0000
# 5 0.0000 0.0000 0.0000 0.0000 16.0324 0.0000
# 6 0.0000 0.0000 0.0000 0.0000 0.0000 18.2827
#
#
#
# Elastic Compliance Matrix: (Units=1/GPa)
#
#
# Indices 1 2 3 4 5 6 
#
# 1 0.010361 -0.001623 -0.002689 0.000000 0.000000 0.000000
# 2 -0.001623 0.032805 -0.005005 0.000000 0.000000 0.000000
# 3 -0.002689 -0.005005 0.007464 0.000000 0.000000 0.000000
# 4 0.000000 0.000000 0.000000 0.009961 0.000000 0.000000
# 5 0.000000 0.000000 0.000000 0.000000 0.062374 0.000000
# 6 0.000000 0.000000 0.000000 0.000000 0.000000 0.054697
#
#
# Mechanical properties :
#
#
# Convention : Reuss Voigt Hill
#
# Bulk Modulus (GPa) = 31.25237 55.26905 43.26071
# Shear Modulus (GPa) = 24.15915 42.08384 33.12149
#
# Velocity S-wave (km/s) = 3.62577 4.78539 4.24536
# Velocity P-wave (km/s) = 5.87659 7.78511 6.89718
#
# Compressibility (1/GPa) = 0.03199757
#
# Stress axis : x y z
#
# Youngs Moduli (GPa) = 96.51349 30.48311 133.96931
#
# Poissons Ratio (x) = 0.04947 0.36024
# Poissons Ratio (y) = 0.15661 0.67050
# Poissons Ratio (z) = 0.25952 0.15256
#
# Static dielectric constant tensor:
#      x y z
#    x 1.634820 0.000000 0.000000 
#    y 0.000000 1.687380 0.000000 
#    z 0.000000 0.000000 1.642280 
# 
# From -- ./inp_files/42122.got.cif
#   From: 2010.05.17/outbox.cif.g08.bks.cpg/sg65_22_cif.got.tgz:42122.got - 2010.06.03 17:01:31.
