data_PCOD9487189
_publ_section_title
;
Structure prediction by ZEFSAII (Michael W. Deem and Ramdas Pophale) SiO2 
 PCOD9487189
Probable space group: C M M M
;
_chemical_formula_sum "Si O2"
_cell_formula_units_Z 104
_cell_length_a 33.427618
_cell_length_b 18.627711
_cell_length_c 9.550369
_cell_angle_alpha 90.000000
_cell_angle_beta 90.000000
_cell_angle_gamma 90.000000
_cell_volume 5946.823841
_symmetry_space_group_name_H-M "C M M M"
_symmetry_group_IT_number 65
_symmetry_cell_setting 'orthorhombic'
loop_
_space_group_symop_operation_xyz
x,y,z
-x,-y,z
x,-y,-z
-x,y,-z
-x,-y,-z
x,y,-z
-x,y,z
x,-y,z
1/2+x,1/2+y,z
1/2-x,1/2-y,z
1/2+x,1/2-y,-z
1/2-x,1/2+y,-z
1/2-x,1/2-y,-z
1/2+x,1/2+y,-z
1/2-x,1/2+y,z
1/2+x,1/2-y,z
loop_
_atom_site_type_symbol
_atom_site_label
_atom_site_fract_x
_atom_site_fract_y
_atom_site_fract_z
Si Si1 0.179316 0.412692 0.661238
Si Si2 0.230749 0.912830 0.661193
Si Si3 0.500000 0.418348 0.670024
Si Si4 0.046951 0.683286 0.664201
Si Si5 0.102675 0.586353 0.162579
Si Si6 0.652965 0.413702 0.833754
Si Si7 0.081616 0.839548 0.667107
O O1 0.171724 0.391346 0.500000
O O2 0.179586 0.500000 0.663897
O O3 0.224273 0.389072 0.700278
O O4 0.143521 0.389262 0.760897
O O5 0.222806 0.890677 0.500000
O O6 0.195375 0.891967 0.764976
O O7 0.231563 0.000000 0.660980
O O8 0.500000 0.500000 0.718569
O O9 0.500000 0.417560 0.500000
O O10 0.540701 0.379341 0.711418
O O11 0.050394 0.664155 0.500000
O O12 0.065477 0.621796 0.759269
O O13 0.072398 0.755636 0.686922
O O14 0.000000 0.696988 0.692089
O O15 0.100637 0.500000 0.172935
O O16 0.103368 0.606052 0.000000
O O17 0.647770 0.500000 0.811083
O O18 0.618108 0.371110 0.754599
O O19 0.652542 0.401151 0.000000
O O20 0.087935 0.852061 0.500000
#
# Coordination Sequence:
#
# PCOD9487189 Si02
#       7
#    16  16   8  16  16  16  16
#     4   8  14  27  49  76 104 133 168 211 256 301
#     4   8  14  26  46  72 101 135 174 213 254 300
#     4   9  16  28  51  79 100 123 162 214 263 301
#     4  10  21  38  58  78 101 131 172 219 264 312
#     4  10  21  35  53  80 110 138 169 205 251 312
#     4  10  20  31  45  72 109 144 177 213 255 304
#     4  10  19  34  54  75  99 131 174 219 262 310
#
# _framework density 17.488327999999999
#
# number of rings (size 3 to 8) (size 9 to 14) (size 15 to 20)
#    0.000    2.692    0.769    2.308    0.000    4.308 
#    0.000    5.000    0.000    2.308    0.000    6.462 
#    0.000    0.000    0.000    0.000    0.000    0.000 
#
# Total GULP energy -289851.897235 kJ/mol
# GULP energy per Si atom -5574.074947 kJ/mol
# Density = 1.744852 g / cm^3
# Si number density = 17.488328 Si / 1000 Ang^3
#
#
#
# Elastic Constant Matrix: (Units=GPa)
#
#
# Indices 1 2 3 4 5 6 
#
# 1 104.5084 32.9439 77.9300 0.0000 0.0000 0.0000
# 2 32.9439 21.4112 40.0532 0.0000 0.0000 0.0000
# 3 77.9300 40.0532 93.0777 0.0000 0.0000 0.0000
# 4 0.0000 0.0000 0.0000 16.9663 0.0000 0.0000
# 5 0.0000 0.0000 0.0000 0.0000 -8.5605 0.0000
# 6 0.0000 0.0000 0.0000 0.0000 0.0000 -124.6958
#
#
#
# Elastic Compliance Matrix: (Units=1/GPa)
#
#
# Indices 1 2 3 4 5 6 
#
# 1 0.025525 0.003613 -0.022926 0.000000 0.000000 0.000000
# 2 0.003613 0.240007 -0.106305 0.000000 0.000000 0.000000
# 3 -0.022926 -0.106305 0.075684 0.000000 0.000000 0.000000
# 4 0.000000 0.000000 0.000000 0.058940 0.000000 0.000000
# 5 0.000000 0.000000 0.000000 0.000000 -0.116816 0.000000
# 6 0.000000 0.000000 0.000000 0.000000 0.000000 -0.008020
#
#
# Mechanical properties :
#
#
# Convention : Reuss Voigt Hill
#
# Bulk Modulus (GPa) = 11.11354 57.87239 34.49296
# Shear Modulus (GPa) = 8.98393 -18.71998 -4.86803
#
# Velocity S-wave (km/s) = 2.26898 -3.27529 -1.67022
# Velocity P-wave (km/s) = 3.63771 4.34287 4.00584
#
# Compressibility (1/GPa) = 0.08998031
#
# Stress axis : x y z
#
# Youngs Moduli (GPa) = 39.17723 4.16654 13.21289
#
# Poissons Ratio (x) = -0.01505 0.30292
# Poissons Ratio (y) = -0.14155 1.40460
# Poissons Ratio (z) = 0.89817 0.44292
#
# Static dielectric constant tensor:
#      x y z
#    x 1.589760 0.000000 0.000000 
#    y 0.000000 1.594470 0.000000 
#    z 0.000000 0.000000 1.577050 
# 
# From -- ./inp_files/18662.got.cif
#   From: 2010.05.17/outbox.cif.g08.bks.cpg/sg65_10_cif.got.tgz:18662.got - 2010.06.03 17:01:31.
