data_PCOD9487889
_publ_section_title
;
Structure prediction by ZEFSAII (Michael W. Deem and Ramdas Pophale) SiO2 
 PCOD9487889
Probable space group: C M M M
;
_chemical_formula_sum "Si O2"
_cell_formula_units_Z 112
_cell_length_a 28.290292
_cell_length_b 14.990619
_cell_length_c 14.171129
_cell_angle_alpha 90.000000
_cell_angle_beta 90.000000
_cell_angle_gamma 90.000000
_cell_volume 6009.819767
_symmetry_space_group_name_H-M "C M M M"
_symmetry_group_IT_number 65
_symmetry_cell_setting 'orthorhombic'
loop_
_space_group_symop_operation_xyz
x,y,z
-x,-y,z
x,-y,-z
-x,y,-z
-x,-y,-z
x,y,-z
-x,y,z
x,-y,z
1/2+x,1/2+y,z
1/2-x,1/2-y,z
1/2+x,1/2-y,-z
1/2-x,1/2+y,-z
1/2-x,1/2-y,-z
1/2+x,1/2+y,-z
1/2-x,1/2+y,z
1/2+x,1/2-y,z
loop_
_atom_site_type_symbol
_atom_site_label
_atom_site_fract_x
_atom_site_fract_y
_atom_site_fract_z
Si Si1 0.867640 0.892442 0.392506
Si Si2 0.768221 0.851325 0.696502
Si Si3 0.173731 0.603186 0.396671
Si Si4 0.263060 0.854585 0.895254
Si Si5 0.055719 0.103091 0.762636
Si Si6 0.055265 0.272222 0.888064
Si Si7 0.136323 0.392442 0.196266
O O1 0.873198 0.861834 0.500000
O O2 0.819860 0.856235 0.346098
O O3 0.912278 0.872197 0.326752
O O4 0.863008 0.000000 0.393906
O O5 0.750000 0.750000 0.701949
O O6 0.729313 0.895931 0.629106
O O7 0.764790 0.889776 0.802943
O O8 0.166036 0.644819 0.500000
O O9 0.159077 0.500000 0.402353
O O10 0.147804 0.639257 0.303439
O O11 0.250000 0.750000 0.900668
O O12 0.317933 0.867258 0.866812
O O13 0.254085 0.892163 0.000000
O O14 0.065115 0.174784 0.844181
O O15 0.000000 0.107489 0.739619
O O16 0.066175 0.000000 0.789337
O O17 0.090337 0.343513 0.842183
O O18 0.000000 0.293007 0.869301
O O19 0.062318 0.270889 0.000000
O O20 0.132022 0.500000 0.195037
#
# Coordination Sequence:
#
# PCOD9487889 Si02
#       7
#    16  16  16  16  16  16  16
#     4  10  21  36  55  79 110 146 182 228 284 337
#     4  10  20  31  47  77 111 144 184 229 275 326
#     4   9  18  33  52  73 104 149 193 229 268 320
#     4   9  19  34  52  74 105 152 196 233 277 324
#     4   9  20  39  61  85 112 143 184 233 285 344
#     4  10  22  39  61  88 115 145 184 233 287 340
#     4  10  21  37  58  85 118 154 192 234 281 337
#
# _framework density 18.636164999999998
#
# number of rings (size 3 to 8) (size 9 to 14) (size 15 to 20)
#    0.000    2.429    0.000    1.286    6.000    4.857 
#    0.000    3.571    0.000    2.143    0.000    2.000 
#    0.000    0.000    0.000    0.000    0.000    0.000 
#
# Total GULP energy -312308.628004 kJ/mol
# GULP energy per Si atom -5576.939786 kJ/mol
# Density = 1.859375 g / cm^3
# Si number density = 18.636165 Si / 1000 Ang^3
#
#
#
# Elastic Constant Matrix: (Units=GPa)
#
#
# Indices 1 2 3 4 5 6 
#
# 1 83.4244 51.4432 62.2980 0.0000 0.0000 0.0000
# 2 51.4432 75.0282 46.3971 0.0000 0.0000 0.0000
# 3 62.2980 46.3971 144.3650 0.0000 0.0000 0.0000
# 4 0.0000 0.0000 0.0000 17.4100 0.0000 0.0000
# 5 0.0000 0.0000 0.0000 0.0000 17.2311 0.0000
# 6 0.0000 0.0000 0.0000 0.0000 0.0000 31.3641
#
#
#
# Elastic Compliance Matrix: (Units=1/GPa)
#
#
# Indices 1 2 3 4 5 6 
#
# 1 0.024927 -0.013028 -0.006569 0.000000 0.000000 0.000000
# 2 -0.013028 0.023444 -0.001912 0.000000 0.000000 0.000000
# 3 -0.006569 -0.001912 0.010376 0.000000 0.000000 0.000000
# 4 0.000000 0.000000 0.000000 0.057438 0.000000 0.000000
# 5 0.000000 0.000000 0.000000 0.000000 0.058035 0.000000
# 6 0.000000 0.000000 0.000000 0.000000 0.000000 0.031884
#
#
# Mechanical properties :
#
#
# Convention : Reuss Voigt Hill
#
# Bulk Modulus (GPa) = 63.58739 69.23269 66.41004
# Shear Modulus (GPa) = 19.65671 22.71299 21.18485
#
# Velocity S-wave (km/s) = 3.25123 3.49486 3.37524
# Velocity P-wave (km/s) = 6.94899 7.31544 7.13457
#
# Compressibility (1/GPa) = 0.01572639
#
# Stress axis : x y z
#
# Youngs Moduli (GPa) = 40.11776 42.65495 96.37241
#
# Poissons Ratio (x) = 0.55573 0.63311
# Poissons Ratio (y) = 0.52267 0.18430
# Poissons Ratio (z) = 0.26355 0.08157
#
# Static dielectric constant tensor:
#      x y z
#    x 1.606540 0.000000 0.000000 
#    y 0.000000 1.694950 0.000000 
#    z 0.000000 0.000000 1.672220 
# 
# From -- ./inp_files/45785.got.cif
#   From: 2010.05.17/outbox.cif.g08.bks.cpg/sg65_23_cif.got.tgz:45785.got - 2010.06.03 17:01:31.
