data_PCOD9487182
_publ_section_title
;
Structure prediction by ZEFSAII (Michael W. Deem and Ramdas Pophale) SiO2 
 PCOD9487182
Probable space group: C M M M
;
_chemical_formula_sum "Si O2"
_cell_formula_units_Z 104
_cell_length_a 8.623958
_cell_length_b 29.492241
_cell_length_c 23.562758
_cell_angle_alpha 90.000000
_cell_angle_beta 90.000000
_cell_angle_gamma 90.000000
_cell_volume 5992.948281
_symmetry_space_group_name_H-M "C M M M"
_symmetry_group_IT_number 65
_symmetry_cell_setting 'orthorhombic'
loop_
_space_group_symop_operation_xyz
x,y,z
-x,-y,z
x,-y,-z
-x,y,-z
-x,-y,-z
x,y,-z
-x,y,z
x,-y,z
1/2+x,1/2+y,z
1/2-x,1/2-y,z
1/2+x,1/2-y,-z
1/2-x,1/2+y,-z
1/2-x,1/2-y,-z
1/2+x,1/2+y,-z
1/2-x,1/2+y,z
1/2+x,1/2-y,z
loop_
_atom_site_type_symbol
_atom_site_label
_atom_site_fract_x
_atom_site_fract_y
_atom_site_fract_z
Si Si1 0.813643 0.199096 0.276049
Si Si2 0.814549 0.299416 0.934669
Si Si3 0.811500 0.550374 0.347058
Si Si4 0.313234 0.051334 0.785517
Si Si5 0.687555 0.199017 0.500000
Si Si6 0.811989 0.352991 0.386104
Si Si7 0.314935 0.641577 0.165283
O O1 0.750000 0.250000 0.274383
O O2 0.750547 0.173446 0.331403
O O3 0.764787 0.171760 0.219642
O O4 0.000000 0.200077 0.278106
O O5 0.750000 0.250000 0.917938
O O6 0.754397 0.336735 0.891249
O O7 0.000000 0.297825 0.932901
O O8 0.765757 0.307846 0.000000
O O9 0.758063 0.500000 0.364842
O O10 0.768555 0.557224 0.280859
O O11 0.761231 0.594414 0.381922
O O12 0.000000 0.549463 0.348705
O O13 0.500000 0.054907 0.788052
O O14 0.239478 0.090632 0.822579
O O15 0.270290 0.000000 0.802090
O O16 0.500000 0.200665 0.500000
O O17 0.750000 0.250000 0.500000
O O18 0.737064 0.172148 0.443524
O O19 0.000000 0.352250 0.383997
O O20 0.500000 0.643327 0.162214
#
# Coordination Sequence:
#
# PCOD9487182 Si02
#       7
#    16  16  16  16   8  16  16
#     4  11  23  35  49  74 104 134 171 213 262 311
#     4  10  21  37  57  80 108 144 184 222 261 311
#     4   8  14  27  50  77 102 131 166 206 257 313
#     4   9  17  31  53  79 106 139 177 214 261 320
#     4  10  22  36  51  73  97 133 178 218 263 314
#     4  10  19  34  54  74 101 134 171 215 260 312
#     4  11  22  34  52  80 111 141 175 217 266 317
#
# _framework density 17.353729999999999
#
# number of rings (size 3 to 8) (size 9 to 14) (size 15 to 20)
#    0.000    2.154    1.538    3.231    0.000    6.154 
#    0.000    0.385    0.000    3.231    0.000    3.231 
#    0.000    1.846    0.000    0.000    0.000    0.000 
#
# Total GULP energy -290208.902225 kJ/mol
# GULP energy per Si atom -5580.940427 kJ/mol
# Density = 1.731423 g / cm^3
# Si number density = 17.353730 Si / 1000 Ang^3
#
#
#
# Elastic Constant Matrix: (Units=GPa)
#
#
# Indices 1 2 3 4 5 6 
#
# 1 19.0801 29.1823 24.7345 0.0000 0.0000 0.0000
# 2 29.1823 177.8766 81.6190 0.0000 0.0000 0.0000
# 3 24.7345 81.6190 95.6564 0.0000 0.0000 0.0000
# 4 0.0000 0.0000 0.0000 28.9355 0.0000 0.0000
# 5 0.0000 0.0000 0.0000 0.0000 18.8454 0.0000
# 6 0.0000 0.0000 0.0000 0.0000 0.0000 24.0999
#
#
#
# Elastic Compliance Matrix: (Units=1/GPa)
#
#
# Indices 1 2 3 4 5 6 
#
# 1 0.082771 -0.006177 -0.016132 0.000000 0.000000 0.000000
# 2 -0.006177 0.009700 -0.006679 0.000000 0.000000 0.000000
# 3 -0.016132 -0.006679 0.020325 0.000000 0.000000 0.000000
# 4 0.000000 0.000000 0.000000 0.034560 0.000000 0.000000
# 5 0.000000 0.000000 0.000000 0.000000 0.053063 0.000000
# 6 0.000000 0.000000 0.000000 0.000000 0.000000 0.041494
#
#
# Mechanical properties :
#
#
# Convention : Reuss Voigt Hill
#
# Bulk Modulus (GPa) = 18.24196 62.63163 40.43680
# Shear Modulus (GPa) = 15.71525 24.84798 20.28162
#
# Velocity S-wave (km/s) = 3.01256 3.78809 3.42236
# Velocity P-wave (km/s) = 4.75766 7.43655 6.24250
#
# Compressibility (1/GPa) = 0.05481866
#
# Stress axis : x y z
#
# Youngs Moduli (GPa) = 12.08155 103.09106 49.20136
#
# Poissons Ratio (x) = 0.63681 0.79371
# Poissons Ratio (y) = 0.07463 0.32864
# Poissons Ratio (z) = 0.19490 0.68859
#
# Static dielectric constant tensor:
#      x y z
#    x 1.590570 0.000000 0.000000 
#    y 0.000000 1.584990 0.000000 
#    z 0.000000 0.000000 1.570510 
# 
# From -- ./inp_files/60414.got.cif
#   From: 2010.05.17/outbox.cif.g08.bks.cpg/sg65_31_cif.got.tgz:60414.got - 2010.06.03 17:01:31.
