data_PCOD9487356
_publ_section_title
;
Structure prediction by ZEFSAII (Michael W. Deem and Ramdas Pophale) SiO2 
 PCOD9487356
Probable space group: C M M M
;
_chemical_formula_sum "Si O2"
_cell_formula_units_Z 88
_cell_length_a 21.062148
_cell_length_b 14.930663
_cell_length_c 13.435253
_cell_angle_alpha 90.000000
_cell_angle_beta 90.000000
_cell_angle_gamma 90.000000
_cell_volume 4225.008649
_symmetry_space_group_name_H-M "C M M M"
_symmetry_group_IT_number 65
_symmetry_cell_setting 'orthorhombic'
loop_
_space_group_symop_operation_xyz
x,y,z
-x,-y,z
x,-y,-z
-x,y,-z
-x,-y,-z
x,y,-z
-x,y,z
x,-y,z
1/2+x,1/2+y,z
1/2-x,1/2-y,z
1/2+x,1/2-y,-z
1/2-x,1/2+y,-z
1/2-x,1/2-y,-z
1/2+x,1/2+y,-z
1/2-x,1/2+y,z
1/2+x,1/2-y,z
loop_
_atom_site_type_symbol
_atom_site_label
_atom_site_fract_x
_atom_site_fract_y
_atom_site_fract_z
Si Si1 0.568571 0.101402 0.328822
Si Si2 0.819346 0.205931 0.887610
Si Si3 0.838017 0.891576 0.686351
Si Si4 0.569711 0.850479 0.107285
Si Si5 0.202016 0.397016 0.617571
Si Si6 0.573666 0.609407 0.500000
O O1 0.500000 0.142102 0.356364
O O2 0.571044 0.095752 0.209300
O O3 0.634402 0.147175 0.358674
O O4 0.568920 0.000000 0.370742
O O5 0.750000 0.250000 0.868511
O O6 0.843210 0.141732 0.799459
O O7 0.871682 0.283787 0.889677
O O8 0.816510 0.166062 0.000000
O O9 0.767634 0.858475 0.655959
O O10 0.888377 0.863562 0.600870
O O11 0.838281 0.000000 0.684221
O O12 0.500000 0.804357 0.109033
O O13 0.573016 0.897981 0.000000
O O14 0.207660 0.401895 0.500000
O O15 0.198456 0.500000 0.657553
O O16 0.573789 0.500000 0.500000
O O17 0.500000 0.638288 0.500000
#
# Coordination Sequence:
#
# PCOD9487356 Si02
#       6
#    16  16  16  16  16   8
#     4   9  17  28  46  74 101 129 171 217 254 293
#     4  10  21  36  54  78 109 144 180 218 264 321
#     4  10  19  34  57  82 105 135 178 223 269 320
#     4   9  18  33  51  69  96 137 174 206 255 314
#     4   9  16  28  47  70  98 130 163 201 249 306
#     4   9  18  34  57  84 109 135 173 226 285 334
#
# _framework density 20.828361000000001
#
# number of rings (size 3 to 8) (size 9 to 14) (size 15 to 20)
#    0.000    2.636    0.909    1.091    0.000    1.818 
#    0.000    4.091    2.000    6.545    0.000    5.091 
#    0.000    0.000    0.000    0.000    0.000    0.000 
#
# Total GULP energy -244967.547849 kJ/mol
# GULP energy per Si atom -5567.444269 kJ/mol
# Density = 2.078095 g / cm^3
# Si number density = 20.828361 Si / 1000 Ang^3
#
#
#
# Elastic Constant Matrix: (Units=GPa)
#
#
# Indices 1 2 3 4 5 6 
#
# 1 181.0256 35.2831 47.8383 0.0000 0.0000 0.0000
# 2 35.2831 36.1210 24.9864 0.0000 0.0000 0.0000
# 3 47.8383 24.9864 122.8048 0.0000 0.0000 0.0000
# 4 0.0000 0.0000 0.0000 26.5352 0.0000 0.0000
# 5 0.0000 0.0000 0.0000 0.0000 30.3731 0.0000
# 6 0.0000 0.0000 0.0000 0.0000 0.0000 -14.6639
#
#
#
# Elastic Compliance Matrix: (Units=1/GPa)
#
#
# Indices 1 2 3 4 5 6 
#
# 1 0.007074 -0.005824 -0.001571 0.000000 0.000000 0.000000
# 2 -0.005824 0.037013 -0.005262 0.000000 0.000000 0.000000
# 3 -0.001571 -0.005262 0.009826 0.000000 0.000000 0.000000
# 4 0.000000 0.000000 0.000000 0.037686 0.000000 0.000000
# 5 0.000000 0.000000 0.000000 0.000000 0.032924 0.000000
# 6 0.000000 0.000000 0.000000 0.000000 0.000000 -0.068195
#
#
# Mechanical properties :
#
#
# Convention : Reuss Voigt Hill
#
# Bulk Modulus (GPa) = 34.96539 61.79633 48.38086
# Shear Modulus (GPa) = 54.83963 23.90513 39.37238
#
# Velocity S-wave (km/s) = 5.13678 3.39148 4.35250
# Velocity P-wave (km/s) = 7.21150 6.71341 6.96691
#
# Compressibility (1/GPa) = 0.02859971
#
# Stress axis : x y z
#
# Youngs Moduli (GPa) = 141.35784 27.01731 101.77460
#
# Poissons Ratio (x) = 0.15734 0.15988
# Poissons Ratio (y) = 0.82320 0.53557
# Poissons Ratio (z) = 0.22206 0.14217
#
# Static dielectric constant tensor:
#      x y z
#    x 1.795490 0.000000 0.000000 
#    y 0.000000 1.744130 0.000000 
#    z 0.000000 0.000000 1.785590 
# 
# From -- ./inp_files/26786.got.cif
#   From: 2010.05.17/outbox.cif.g08.bks.cpg/sg65_14_cif.got.tgz:26786.got - 2010.06.03 17:01:31.
