data_PCOD9487388
_publ_section_title
;
Structure prediction by ZEFSAII (Michael W. Deem and Ramdas Pophale) SiO2 
 PCOD9487388
Probable space group: C M M M
;
_chemical_formula_sum "Si O2"
_cell_formula_units_Z 66
_cell_length_a 8.934559
_cell_length_b 16.640631
_cell_length_c 24.162372
_cell_angle_alpha 90.000000
_cell_angle_beta 90.000000
_cell_angle_gamma 90.000000
_cell_volume 3592.381720
_symmetry_space_group_name_H-M "C M M M"
_symmetry_group_IT_number 65
_symmetry_cell_setting 'orthorhombic'
loop_
_space_group_symop_operation_xyz
x,y,z
-x,-y,z
x,-y,-z
-x,y,-z
-x,-y,-z
x,y,-z
-x,y,z
x,-y,z
1/2+x,1/2+y,z
1/2-x,1/2-y,z
1/2+x,1/2-y,-z
1/2-x,1/2+y,-z
1/2-x,1/2-y,-z
1/2+x,1/2+y,-z
1/2-x,1/2+y,z
1/2+x,1/2-y,z
loop_
_atom_site_type_symbol
_atom_site_label
_atom_site_fract_x
_atom_site_fract_y
_atom_site_fract_z
Si Si1 0.175410 0.592878 0.282513
Si Si2 0.172977 0.596287 0.500000
Si Si3 0.166444 0.500000 0.114430
Si Si4 0.677823 0.337117 0.388911
Si Si5 0.500000 0.000000 0.000000
Si Si6 0.179796 0.334635 0.165310
O O1 0.193183 0.500000 0.265568
O O2 0.273303 0.611049 0.336009
O O3 0.211944 0.648126 0.229989
O O4 0.000000 0.605211 0.296786
O O5 0.174034 0.500000 0.500000
O O6 0.254652 0.627141 0.445197
O O7 0.000000 0.624039 0.500000
O O8 0.234363 0.414829 0.132986
O O9 0.000000 0.500000 0.143269
O O10 0.127788 0.500000 0.049647
O O11 0.500000 0.331741 0.392938
O O12 0.750000 0.250000 0.380581
O O13 0.250000 0.250000 0.147982
O O14 0.000000 0.328952 0.158114
#
# Coordination Sequence:
#
# PCOD9487388 Si02
#       6
#    16   8   8  16   2  16
#     4  10  20  36  58  83 113 155 193 243 295 365
#     4  11  24  43  64  83 107 145 188 239 300 369
#     4   8  16  34  57  83 115 158 204 238 287 350
#     4  12  25  40  58  82 114 147 191 244 301 362
#     4   8  16  32  68  84 118 162 220 242 286 356
#     4  10  19  34  57  85 120 157 202 247 300 354
#
# _framework density 18.372212999999999
#
# number of rings (size 3 to 8) (size 9 to 14) (size 15 to 20)
#    0.364    1.333    1.212    4.364    0.000    7.273 
#    0.000    1.212    0.000    0.000    0.000    0.848 
#    0.000    0.000    0.000    0.000    0.000    0.000 
#
# Total GULP energy -183900.393432 kJ/mol
# GULP energy per Si atom -5572.739195 kJ/mol
# Density = 1.833040 g / cm^3
# Si number density = 18.372213 Si / 1000 Ang^3
#
#
#
# Elastic Constant Matrix: (Units=GPa)
#
#
# Indices 1 2 3 4 5 6 
#
# 1 76.8688 36.7963 39.3288 0.0000 0.0000 0.0000
# 2 36.7963 122.0988 41.4845 0.0000 0.0000 0.0000
# 3 39.3288 41.4845 103.1502 0.0000 0.0000 0.0000
# 4 0.0000 0.0000 0.0000 5.7457 0.0000 0.0000
# 5 0.0000 0.0000 0.0000 0.0000 8.4500 0.0000
# 6 0.0000 0.0000 0.0000 0.0000 0.0000 29.2850
#
#
#
# Elastic Compliance Matrix: (Units=1/GPa)
#
#
# Indices 1 2 3 4 5 6 
#
# 1 0.017331 -0.003449 -0.005221 0.000000 0.000000 0.000000
# 2 -0.003449 0.010173 -0.002776 0.000000 0.000000 0.000000
# 3 -0.005221 -0.002776 0.012802 0.000000 0.000000 0.000000
# 4 0.000000 0.000000 0.000000 0.174043 0.000000 0.000000
# 5 0.000000 0.000000 0.000000 0.000000 0.118344 0.000000
# 6 0.000000 0.000000 0.000000 0.000000 0.000000 0.034147
#
#
# Mechanical properties :
#
#
# Convention : Reuss Voigt Hill
#
# Bulk Modulus (GPa) = 57.42690 59.70410 58.56550
# Shear Modulus (GPa) = 12.64106 20.99669 16.81888
#
# Velocity S-wave (km/s) = 2.62592 3.38427 3.02893
# Velocity P-wave (km/s) = 6.36548 6.91654 6.64672
#
# Compressibility (1/GPa) = 0.01741344
#
# Stress axis : x y z
#
# Youngs Moduli (GPa) = 57.69844 98.30143 78.11460
#
# Poissons Ratio (x) = 0.33906 0.40783
# Poissons Ratio (y) = 0.19902 0.21686
# Poissons Ratio (z) = 0.30124 0.27290
#
# Static dielectric constant tensor:
#      x y z
#    x 1.631910 0.000000 0.000000 
#    y 0.000000 1.666850 0.000000 
#    z 0.000000 0.000000 1.665140 
# 
# From -- ./inp_files/72413.got.cif
#   From: 2010.05.17/outbox.cif.g08.bks.cpg/sg65_37_cif.got.tgz:72413.got - 2010.06.03 17:01:31.
