data_PCOD9487473
_publ_section_title
;
Structure prediction by ZEFSAII (Michael W. Deem and Ramdas Pophale) SiO2 
 PCOD9487473
Probable space group: C M M M
;
_chemical_formula_sum "Si O2"
_cell_formula_units_Z 104
_cell_length_a 9.460851
_cell_length_b 24.066487
_cell_length_c 28.195077
_cell_angle_alpha 90.000000
_cell_angle_beta 90.000000
_cell_angle_gamma 90.000000
_cell_volume 6419.721507
_symmetry_space_group_name_H-M "C M M M"
_symmetry_group_IT_number 65
_symmetry_cell_setting 'orthorhombic'
loop_
_space_group_symop_operation_xyz
x,y,z
-x,-y,z
x,-y,-z
-x,y,-z
-x,-y,-z
x,y,-z
-x,y,z
x,-y,z
1/2+x,1/2+y,z
1/2-x,1/2-y,z
1/2+x,1/2-y,-z
1/2-x,1/2+y,-z
1/2-x,1/2-y,-z
1/2+x,1/2+y,-z
1/2-x,1/2+y,z
1/2+x,1/2-y,z
loop_
_atom_site_type_symbol
_atom_site_label
_atom_site_fract_x
_atom_site_fract_y
_atom_site_fract_z
Si Si1 0.666334 0.692870 0.944262
Si Si2 0.161760 0.500000 0.836613
Si Si3 0.668053 0.897230 0.303252
Si Si4 0.832255 0.692361 0.774683
Si Si5 0.835473 0.376739 0.129671
Si Si6 0.161925 0.932480 0.500000
Si Si7 0.831650 0.000000 0.258117
Si Si8 0.666432 0.065761 0.593014
O O1 0.500000 0.700233 0.934828
O O2 0.750000 0.750000 0.935153
O O3 0.734461 0.647300 0.910360
O O4 0.683576 0.679270 0.000000
O O5 0.176140 0.442946 0.865143
O O6 0.276906 0.500000 0.795583
O O7 0.000000 0.500000 0.816311
O O8 0.500000 0.909585 0.295901
O O9 0.699417 0.841711 0.273516
O O10 0.762516 0.946129 0.282051
O O11 0.692155 0.898655 0.359653
O O12 0.750000 0.750000 0.778176
O O13 0.801608 0.652434 0.819761
O O14 0.000000 0.703349 0.775495
O O15 0.000000 0.363389 0.118928
O O16 0.242752 0.916156 0.547905
O O17 0.000000 0.913946 0.500000
O O18 0.163354 0.000000 0.500000
O O19 0.000000 0.000000 0.261900
O O20 0.500000 0.068827 0.581354
O O21 0.696351 0.000000 0.603394
#
# Coordination Sequence:
#
# PCOD9487473 Si02
#       8
#    16   8  16  16  16   8   8  16
#     4  10  21  37  57  80 107 138 174 218 263 307
#     4  10  20  38  57  75 105 142 176 206 247 306
#     4  10  19  35  53  70  99 141 176 208 250 304
#     4  10  21  35  53  75 103 135 169 209 257 302
#     4  10  20  35  58  81 103 137 174 213 255 303
#     4   9  17  27  39  61 100 133 154 197 258 304
#     4  12  22  30  48  78 106 134 170 215 254 296
#     4   9  16  27  47  68  89 126 174 208 237 292
#
# _framework density 16.20008
#
# number of rings (size 3 to 8) (size 9 to 14) (size 15 to 20)
#    0.000    2.077    2.308    1.846    0.000    5.538 
#    0.000    0.385    0.000    2.308    0.000    0.538 
#    0.000    0.000    0.000    0.000    0.000    0.000 
#
# Total GULP energy -290037.486462 kJ/mol
# GULP energy per Si atom -5577.643970 kJ/mol
# Density = 1.616321 g / cm^3
# Si number density = 16.200080 Si / 1000 Ang^3
#
#
#
# Elastic Constant Matrix: (Units=GPa)
#
#
# Indices 1 2 3 4 5 6 
#
# 1 79.5581 54.9284 65.6387 0.0000 0.0000 0.0000
# 2 54.9284 100.0884 54.4708 0.0000 0.0000 0.0000
# 3 65.6387 54.4708 86.0495 0.0000 0.0000 0.0000
# 4 0.0000 0.0000 0.0000 3.4047 0.0000 0.0000
# 5 0.0000 0.0000 0.0000 0.0000 19.4550 0.0000
# 6 0.0000 0.0000 0.0000 0.0000 0.0000 16.4564
#
#
#
# Elastic Compliance Matrix: (Units=1/GPa)
#
#
# Indices 1 2 3 4 5 6 
#
# 1 0.037368 -0.007620 -0.023681 0.000000 0.000000 0.000000
# 2 -0.007620 0.016796 -0.004820 0.000000 0.000000 0.000000
# 3 -0.023681 -0.004820 0.032736 0.000000 0.000000 0.000000
# 4 0.000000 0.000000 0.000000 0.293708 0.000000 0.000000
# 5 0.000000 0.000000 0.000000 0.000000 0.051401 0.000000
# 6 0.000000 0.000000 0.000000 0.000000 0.000000 0.060767
#
#
# Mechanical properties :
#
#
# Convention : Reuss Voigt Hill
#
# Bulk Modulus (GPa) = 68.21695 68.41909 68.31802
# Shear Modulus (GPa) = 8.77343 13.90709 11.34026
#
# Velocity S-wave (km/s) = 2.32968 2.93312 2.64865
# Velocity P-wave (km/s) = 7.03115 7.33461 7.18448
#
# Compressibility (1/GPa) = 0.01465911
#
# Stress axis : x y z
#
# Youngs Moduli (GPa) = 26.76088 59.53836 30.54722
#
# Poissons Ratio (x) = 0.45366 0.72339
# Poissons Ratio (y) = 0.20391 0.14723
# Poissons Ratio (z) = 0.63372 0.28696
#
# Static dielectric constant tensor:
#      x y z
#    x 1.537870 0.000000 0.000000 
#    y 0.000000 1.530170 0.000000 
#    z 0.000000 0.000000 1.547690 
# 
# From -- ./inp_files/73631.got.cif
#   From: 2010.05.17/outbox.cif.g08.bks.cpg/sg65_37_cif.got.tgz:73631.got - 2010.06.03 17:01:31.
