data_PCOD9487695
_publ_section_title
;
Structure prediction by ZEFSAII (Michael W. Deem and Ramdas Pophale) SiO2 
 PCOD9487695
Probable space group: C M M M
;
_chemical_formula_sum "Si O2"
_cell_formula_units_Z 58
_cell_length_a 14.159140
_cell_length_b 24.907922
_cell_length_c 7.876054
_cell_angle_alpha 90.000000
_cell_angle_beta 90.000000
_cell_angle_gamma 90.000000
_cell_volume 2777.685413
_symmetry_space_group_name_H-M "C M M M"
_symmetry_group_IT_number 65
_symmetry_cell_setting 'orthorhombic'
loop_
_space_group_symop_operation_xyz
x,y,z
-x,-y,z
x,-y,-z
-x,y,-z
-x,-y,-z
x,y,-z
-x,y,z
x,-y,z
1/2+x,1/2+y,z
1/2-x,1/2-y,z
1/2+x,1/2-y,-z
1/2-x,1/2+y,-z
1/2-x,1/2-y,-z
1/2+x,1/2+y,-z
1/2-x,1/2+y,z
1/2+x,1/2-y,z
loop_
_atom_site_type_symbol
_atom_site_label
_atom_site_fract_x
_atom_site_fract_y
_atom_site_fract_z
Si Si1 0.000000 0.754433 0.708875
Si Si2 0.000000 0.000000 0.000000
Si Si3 0.704184 0.909175 0.191801
Si Si4 0.307405 0.694861 0.697352
Si Si5 0.000000 0.370131 0.297961
Si Si6 0.841596 0.000000 0.309881
O O1 0.090770 0.787943 0.763329
O O2 0.000000 0.692153 0.766262
O O3 0.000000 0.752840 0.500000
O O4 0.916593 0.000000 0.846220
O O5 0.753278 0.851036 0.204299
O O6 0.595960 0.900297 0.247141
O O7 0.771092 0.949178 0.294295
O O8 0.703712 0.928978 0.000000
O O9 0.314861 0.677281 0.500000
O O10 0.250000 0.750000 0.698235
O O11 0.000000 0.365959 0.500000
O O12 0.884379 0.000000 0.500000
#
# Coordination Sequence:
#
# PCOD9487695 Si02
#       6
#     8   2  16  16   8   8
#     4   9  18  34  59  92 131 177 237 291 340 417
#     4  12  26  56  80 112 140 176 242 304 340 418
#     4  12  25  44  66 103 146 183 234 296 353 423
#     4  10  19  36  62  93 132 183 239 287 346 421
#     4  11  21  40  69 100 135 186 237 281 354 427
#     4  12  27  52  82 107 141 188 233 291 360 415
#
# _framework density 20.880693000000001
#
# number of rings (size 3 to 8) (size 9 to 14) (size 15 to 20)
#    0.000    1.103    4.138    3.103    0.000    2.207 
#    0.000    5.517    0.000    0.000    0.000    0.000 
#    0.000    0.000    0.000    0.000    0.000    0.000 
#
# Total GULP energy -161718.654786 kJ/mol
# GULP energy per Si atom -5576.505337 kJ/mol
# Density = 2.083317 g / cm^3
# Si number density = 20.880693 Si / 1000 Ang^3
#
#
#
# Elastic Constant Matrix: (Units=GPa)
#
#
# Indices 1 2 3 4 5 6 
#
# 1 195.6540 41.0564 41.9624 0.0000 0.0000 0.0000
# 2 41.0564 80.5107 20.7888 0.0000 0.0000 0.0000
# 3 41.9624 20.7888 111.5737 0.0000 0.0000 0.0000
# 4 0.0000 0.0000 0.0000 3.4495 0.0000 0.0000
# 5 0.0000 0.0000 0.0000 0.0000 33.8487 0.0000
# 6 0.0000 0.0000 0.0000 0.0000 0.0000 3.5829
#
#
#
# Elastic Compliance Matrix: (Units=1/GPa)
#
#
# Indices 1 2 3 4 5 6 
#
# 1 0.006044 -0.002621 -0.001785 0.000000 0.000000 0.000000
# 2 -0.002621 0.014185 -0.001657 0.000000 0.000000 0.000000
# 3 -0.001785 -0.001657 0.009943 0.000000 0.000000 0.000000
# 4 0.000000 0.000000 0.000000 0.289893 0.000000 0.000000
# 5 0.000000 0.000000 0.000000 0.000000 0.029543 0.000000
# 6 0.000000 0.000000 0.000000 0.000000 0.000000 0.279100
#
#
# Mechanical properties :
#
#
# Convention : Reuss Voigt Hill
#
# Bulk Modulus (GPa) = 55.41518 66.15038 60.78278
# Shear Modulus (GPa) = 7.72978 27.10496 17.41737
#
# Velocity S-wave (km/s) = 1.92611 3.60681 2.89128
# Velocity P-wave (km/s) = 5.61633 7.00674 6.34970
#
# Compressibility (1/GPa) = 0.01804560
#
# Stress axis : x y z
#
# Youngs Moduli (GPa) = 165.45676 70.49539 100.57660
#
# Poissons Ratio (x) = 0.18479 0.17950
# Poissons Ratio (y) = 0.43370 0.16668
# Poissons Ratio (z) = 0.29529 0.11683
#
# Static dielectric constant tensor:
#      x y z
#    x 1.717770 0.000000 0.000000 
#    y 0.000000 1.722260 0.000000 
#    z 0.000000 0.000000 1.791030 
# 
# From -- ./inp_files/4822.got.cif
#   From: 2010.05.17/outbox.cif.g08.bks.cpg/sg65_3_cif.got.tgz:4822.got - 2010.06.03 17:01:31.
