data_PCOD9487503
_publ_section_title
;
Structure prediction by ZEFSAII (Michael W. Deem and Ramdas Pophale) SiO2 
 PCOD9487503
Probable space group: C M M M
;
_chemical_formula_sum "Si O2"
_cell_formula_units_Z 72
_cell_length_a 34.435740
_cell_length_b 8.733298
_cell_length_c 12.964926
_cell_angle_alpha 90.000000
_cell_angle_beta 90.000000
_cell_angle_gamma 90.000000
_cell_volume 3899.040461
_symmetry_space_group_name_H-M "C M M M"
_symmetry_group_IT_number 65
_symmetry_cell_setting 'orthorhombic'
loop_
_space_group_symop_operation_xyz
x,y,z
-x,-y,z
x,-y,-z
-x,y,-z
-x,-y,-z
x,y,-z
-x,y,z
x,-y,z
1/2+x,1/2+y,z
1/2-x,1/2-y,z
1/2+x,1/2-y,-z
1/2-x,1/2+y,-z
1/2-x,1/2-y,-z
1/2+x,1/2+y,-z
1/2-x,1/2+y,z
1/2+x,1/2-y,z
loop_
_atom_site_type_symbol
_atom_site_label
_atom_site_fract_x
_atom_site_fract_y
_atom_site_fract_z
Si Si1 0.437138 0.318402 0.384569
Si Si2 0.292966 0.181621 0.500000
Si Si3 0.652752 0.319514 0.673828
Si Si4 0.627582 0.814815 0.885827
Si Si5 0.541600 0.183121 0.829153
O O1 0.448934 0.273338 0.500000
O O2 0.445307 0.500000 0.371649
O O3 0.390632 0.298306 0.372630
O O4 0.455770 0.225564 0.291514
O O5 0.250000 0.250000 0.500000
O O6 0.316697 0.237883 0.399889
O O7 0.290976 0.000000 0.500000
O O8 0.660735 0.500000 0.675013
O O9 0.650455 0.255163 0.789795
O O10 0.582370 0.762282 0.876326
O O11 0.627927 0.000000 0.876461
O O12 0.641979 0.774229 0.000000
O O13 0.500000 0.241479 0.869444
O O14 0.541541 0.000000 0.842299
#
# Coordination Sequence:
#
# PCOD9487503 Si02
#       5
#    16   8  16  16  16
#     4   9  17  30  47  66  93 132 175 217 266 321
#     4  12  24  38  60  90 121 148 173 204 254 311
#     4  10  19  35  56  80 111 142 179 221 264 315
#     4   9  18  33  53  77 104 140 188 233 275 324
#     4   9  18  30  43  65  97 133 177 229 280 323
#
# _framework density 18.466080999999999
#
# number of rings (size 3 to 8) (size 9 to 14) (size 15 to 20)
#    0.000    2.444    1.111    1.667    0.000    3.111 
#    0.000    4.444    0.000    0.667    0.000    6.222 
#    0.000    0.000    0.000    0.000    0.000    0.000 
#
# Total GULP energy -200833.767350 kJ/mol
# GULP energy per Si atom -5578.715760 kJ/mol
# Density = 1.842405 g / cm^3
# Si number density = 18.466081 Si / 1000 Ang^3
#
#
#
# Elastic Constant Matrix: (Units=GPa)
#
#
# Indices 1 2 3 4 5 6 
#
# 1 93.9795 45.4732 45.0743 0.0000 0.0000 0.0000
# 2 45.4732 53.3051 38.1189 0.0000 0.0000 0.0000
# 3 45.0743 38.1189 139.0079 0.0000 0.0000 0.0000
# 4 0.0000 0.0000 0.0000 20.0613 0.0000 0.0000
# 5 0.0000 0.0000 0.0000 0.0000 46.5856 0.0000
# 6 0.0000 0.0000 0.0000 0.0000 0.0000 16.9069
#
#
#
# Elastic Compliance Matrix: (Units=1/GPa)
#
#
# Indices 1 2 3 4 5 6 
#
# 1 0.018595 -0.014369 -0.002089 0.000000 0.000000 0.000000
# 2 -0.014369 0.034439 -0.004785 0.000000 0.000000 0.000000
# 3 -0.002089 -0.004785 0.009183 0.000000 0.000000 0.000000
# 4 0.000000 0.000000 0.000000 0.049847 0.000000 0.000000
# 5 0.000000 0.000000 0.000000 0.000000 0.021466 0.000000
# 6 0.000000 0.000000 0.000000 0.000000 0.000000 0.059148
#
#
# Mechanical properties :
#
#
# Convention : Reuss Voigt Hill
#
# Bulk Modulus (GPa) = 50.67963 60.40281 55.54122
# Shear Modulus (GPa) = 20.68314 27.21915 23.95114
#
# Velocity S-wave (km/s) = 3.35036 3.84345 3.60534
# Velocity P-wave (km/s) = 6.51697 7.24412 6.89014
#
# Compressibility (1/GPa) = 0.01973180
#
# Stress axis : x y z
#
# Youngs Moduli (GPa) = 53.77661 29.03645 108.89205
#
# Poissons Ratio (x) = 0.41723 0.22752
# Poissons Ratio (y) = 0.77272 0.52102
# Poissons Ratio (z) = 0.11236 0.13893
#
# Static dielectric constant tensor:
#      x y z
#    x 1.647790 0.000000 0.000000 
#    y 0.000000 1.620300 0.000000 
#    z 0.000000 0.000000 1.636040 
# 
# From -- ./inp_files/47451.got.cif
#   From: 2010.05.17/outbox.cif.g08.bks.cpg/sg65_24_cif.got.tgz:47451.got - 2010.06.03 17:01:31.
