data_PCOD9487935
_publ_section_title
;
Structure prediction by ZEFSAII (Michael W. Deem and Ramdas Pophale) SiO2 
 PCOD9487935
Probable space group: C M M M
;
_chemical_formula_sum "Si O2"
_cell_formula_units_Z 80
_cell_length_a 8.941840
_cell_length_b 29.101140
_cell_length_c 21.227807
_cell_angle_alpha 90.000000
_cell_angle_beta 90.000000
_cell_angle_gamma 90.000000
_cell_volume 5523.851914
_symmetry_space_group_name_H-M "C M M M"
_symmetry_group_IT_number 65
_symmetry_cell_setting 'orthorhombic'
loop_
_space_group_symop_operation_xyz
x,y,z
-x,-y,z
x,-y,-z
-x,y,-z
-x,-y,-z
x,y,-z
-x,y,z
x,-y,z
1/2+x,1/2+y,z
1/2-x,1/2-y,z
1/2+x,1/2-y,-z
1/2-x,1/2+y,-z
1/2-x,1/2-y,-z
1/2+x,1/2+y,-z
1/2-x,1/2+y,z
1/2+x,1/2-y,z
loop_
_atom_site_type_symbol
_atom_site_label
_atom_site_fract_x
_atom_site_fract_y
_atom_site_fract_z
Si Si1 0.181603 0.552454 0.000000
Si Si2 0.180047 0.390671 0.124064
Si Si3 0.321398 0.700749 0.925384
Si Si4 0.821487 0.054370 0.239018
Si Si5 0.173007 0.943964 0.500000
Si Si6 0.171725 0.444190 0.629266
O O1 0.226528 0.579344 0.062869
O O2 0.235563 0.500000 0.000000
O O3 0.000000 0.551337 0.000000
O O4 0.248080 0.340312 0.113751
O O5 0.241893 0.415863 0.185640
O O6 0.000000 0.388491 0.125781
O O7 0.500000 0.701846 0.917049
O O8 0.250000 0.750000 0.909635
O O9 0.290543 0.692424 0.000000
O O10 0.763389 0.068143 0.308292
O O11 0.000000 0.059395 0.235442
O O12 0.785809 0.000000 0.230061
O O13 0.254181 0.928627 0.436074
O O14 0.000000 0.930307 0.500000
O O15 0.176740 0.000000 0.500000
O O16 0.171532 0.500000 0.627169
O O17 0.000000 0.429069 0.634030
#
# Coordination Sequence:
#
# PCOD9487935 Si02
#       6
#     8  16  16  16   8  16
#     4   9  18  30  44  63  86 113 148 187 222 259
#     4  11  20  32  49  67  89 116 149 186 228 273
#     4  10  20  34  52  71  91 111 139 179 227 277
#     4  10  20  32  44  61  88 121 155 190 228 269
#     4   9  15  23  37  57  81 109 142 183 226 263
#     4   9  16  26  40  58  80 110 149 188 223 262
#
# _framework density 14.482647
#
# number of rings (size 3 to 8) (size 9 to 14) (size 15 to 20)
#    0.000    2.200    1.000    3.300    0.000    6.400 
#    0.000    0.000    0.000    2.400    0.000    0.000 
#    0.000    0.000    0.000    0.900    0.000   12.700 
#
# Total GULP energy -223100.734172 kJ/mol
# GULP energy per Si atom -5577.518354 kJ/mol
# Density = 1.444968 g / cm^3
# Si number density = 14.482647 Si / 1000 Ang^3
#
#
#
# Elastic Constant Matrix: (Units=GPa)
#
#
# Indices 1 2 3 4 5 6 
#
# 1 81.3919 43.1580 54.7830 0.0000 0.0000 0.0000
# 2 43.1580 79.7424 54.8296 0.0000 0.0000 0.0000
# 3 54.7830 54.8296 127.0622 0.0000 0.0000 0.0000
# 4 0.0000 0.0000 0.0000 2.0834 0.0000 0.0000
# 5 0.0000 0.0000 0.0000 0.0000 27.0539 0.0000
# 6 0.0000 0.0000 0.0000 0.0000 0.0000 18.9439
#
#
#
# Elastic Compliance Matrix: (Units=1/GPa)
#
#
# Indices 1 2 3 4 5 6 
#
# 1 0.019616 -0.006827 -0.005511 0.000000 0.000000 0.000000
# 2 -0.006827 0.020207 -0.005776 0.000000 0.000000 0.000000
# 3 -0.005511 -0.005776 0.012739 0.000000 0.000000 0.000000
# 4 0.000000 0.000000 0.000000 0.479988 0.000000 0.000000
# 5 0.000000 0.000000 0.000000 0.000000 0.036963 0.000000
# 6 0.000000 0.000000 0.000000 0.000000 0.000000 0.052788
#
#
# Mechanical properties :
#
#
# Convention : Reuss Voigt Hill
#
# Bulk Modulus (GPa) = 61.22732 65.97086 63.59909
# Shear Modulus (GPa) = 7.53042 18.64463 13.08752
#
# Velocity S-wave (km/s) = 2.28274 3.59190 3.00937
# Velocity P-wave (km/s) = 7.02253 7.92798 7.48895
#
# Compressibility (1/GPa) = 0.01633258
#
# Stress axis : x y z
#
# Youngs Moduli (GPa) = 50.97937 49.48826 78.49922
#
# Poissons Ratio (x) = 0.33785 0.43265
# Poissons Ratio (y) = 0.34803 0.45343
# Poissons Ratio (z) = 0.28097 0.28586
#
# Static dielectric constant tensor:
#      x y z
#    x 1.480820 0.000000 0.000000 
#    y 0.000000 1.450380 0.000000 
#    z 0.000000 0.000000 1.467160 
# 
# From -- ./inp_files/59644.got.cif
#   From: 2010.05.17/outbox.cif.g08.bks.cpg/sg65_30_cif.got.tgz:59644.got - 2010.06.03 17:01:31.
