data_PCOD9487177
_publ_section_title
;
Structure prediction by ZEFSAII (Michael W. Deem and Ramdas Pophale) SiO2 
 PCOD9487177
Probable space group: C M M M
;
_chemical_formula_sum "Si O2"
_cell_formula_units_Z 64
_cell_length_a 18.995340
_cell_length_b 16.622296
_cell_length_c 11.254129
_cell_angle_alpha 90.000000
_cell_angle_beta 90.000000
_cell_angle_gamma 90.000000
_cell_volume 3553.448062
_symmetry_space_group_name_H-M "C M M M"
_symmetry_group_IT_number 65
_symmetry_cell_setting 'orthorhombic'
loop_
_space_group_symop_operation_xyz
x,y,z
-x,-y,z
x,-y,-z
-x,y,-z
-x,-y,-z
x,y,-z
-x,y,z
x,-y,z
1/2+x,1/2+y,z
1/2-x,1/2-y,z
1/2+x,1/2-y,-z
1/2-x,1/2+y,-z
1/2-x,1/2-y,-z
1/2+x,1/2+y,-z
1/2-x,1/2+y,z
1/2+x,1/2-y,z
loop_
_atom_site_type_symbol
_atom_site_label
_atom_site_fract_x
_atom_site_fract_y
_atom_site_fract_z
Si Si1 0.654985 0.331593 0.855894
Si Si2 0.706013 0.088716 0.859220
Si Si3 0.420745 0.500000 0.856937
Si Si4 0.914989 0.593159 0.500000
Si Si5 0.584255 0.175312 0.250743
O O1 0.736480 0.345509 0.820580
O O2 0.618994 0.417532 0.828690
O O3 0.615006 0.261979 0.785470
O O4 0.650438 0.316006 0.000000
O O5 0.626906 0.114658 0.833431
O O6 0.720032 0.000000 0.808509
O O7 0.716772 0.083909 0.000000
O O8 0.500000 0.500000 0.808761
O O9 0.424673 0.500000 0.000000
O O10 0.888853 0.500000 0.500000
O O11 0.896577 0.643376 0.617698
O O12 0.000000 0.587581 0.500000
O O13 0.500000 0.173787 0.236901
#
# Coordination Sequence:
#
# PCOD9487177 Si02
#       5
#    16  16   8   8  16
#     4  10  19  34  53  80 117 148 178 216 266 325
#     4  10  20  35  54  78 114 154 180 209 267 333
#     4   9  16  28  50  77 108 148 185 213 247 307
#     4   9  20  40  59  75 103 143 184 228 280 330
#     4  11  22  35  56  82 105 136 183 236 279 318
#
# _framework density 18.010676
#
# number of rings (size 3 to 8) (size 9 to 14) (size 15 to 20)
#    0.000    2.000    1.250    3.000    0.000    6.500 
#    0.000    3.750    0.000    0.750    0.000    3.500 
#    0.000    0.000    0.000    0.000    0.000    0.000 
#
# Total GULP energy -178307.118166 kJ/mol
# GULP energy per Si atom -5572.097443 kJ/mol
# Density = 1.796968 g / cm^3
# Si number density = 18.010676 Si / 1000 Ang^3
#
#
#
# Elastic Constant Matrix: (Units=GPa)
#
#
# Indices 1 2 3 4 5 6 
#
# 1 106.1131 53.0669 25.1679 0.0000 0.0000 0.0000
# 2 53.0669 145.8408 48.0082 0.0000 0.0000 0.0000
# 3 25.1679 48.0082 40.8942 0.0000 0.0000 0.0000
# 4 0.0000 0.0000 0.0000 114.1304 0.0000 0.0000
# 5 0.0000 0.0000 0.0000 0.0000 12.8232 0.0000
# 6 0.0000 0.0000 0.0000 0.0000 0.0000 23.4814
#
#
#
# Elastic Compliance Matrix: (Units=1/GPa)
#
#
# Indices 1 2 3 4 5 6 
#
# 1 0.011843 -0.003113 -0.003634 0.000000 0.000000 0.000000
# 2 -0.003113 0.011994 -0.012164 0.000000 0.000000 0.000000
# 3 -0.003634 -0.012164 0.040970 0.000000 0.000000 0.000000
# 4 0.000000 0.000000 0.000000 0.008762 0.000000 0.000000
# 5 0.000000 0.000000 0.000000 0.000000 0.077984 0.000000
# 6 0.000000 0.000000 0.000000 0.000000 0.000000 0.042587
#
#
# Mechanical properties :
#
#
# Convention : Reuss Voigt Hill
#
# Bulk Modulus (GPa) = 37.05878 60.59267 48.82573
# Shear Modulus (GPa) = 20.75063 41.19402 30.97232
#
# Velocity S-wave (km/s) = 3.39799 4.78766 4.15138
# Velocity P-wave (km/s) = 6.00131 8.01735 7.08144
#
# Compressibility (1/GPa) = 0.02698416
#
# Stress axis : x y z
#
# Youngs Moduli (GPa) = 84.44124 83.37640 24.40787
#
# Poissons Ratio (x) = 0.25954 0.08870
# Poissons Ratio (y) = 0.26286 0.29691
# Poissons Ratio (z) = 0.30685 1.01423
#
# Static dielectric constant tensor:
#      x y z
#    x 1.645260 0.000000 0.000000 
#    y 0.000000 1.649760 0.000000 
#    z 0.000000 0.000000 1.613370 
# 
# From -- ./inp_files/26118.got.cif
#   From: 2010.05.17/outbox.cif.g08.bks.cpg/sg65_14_cif.got.tgz:26118.got - 2010.06.03 17:01:31.
