data_PCOD9487608
_publ_section_title
;
Structure prediction by ZEFSAII (Michael W. Deem and Ramdas Pophale) SiO2 
 PCOD9487608
Probable space group: C M M M
;
_chemical_formula_sum "Si O2"
_cell_formula_units_Z 48
_cell_length_a 7.971187
_cell_length_b 39.248560
_cell_length_c 7.843379
_cell_angle_alpha 90.000000
_cell_angle_beta 90.000000
_cell_angle_gamma 90.000000
_cell_volume 2453.860818
_symmetry_space_group_name_H-M "C M M M"
_symmetry_group_IT_number 65
_symmetry_cell_setting 'orthorhombic'
loop_
_space_group_symop_operation_xyz
x,y,z
-x,-y,z
x,-y,-z
-x,y,-z
-x,-y,-z
x,y,-z
-x,y,z
x,-y,z
1/2+x,1/2+y,z
1/2-x,1/2-y,z
1/2+x,1/2-y,-z
1/2-x,1/2+y,-z
1/2-x,1/2-y,-z
1/2+x,1/2+y,-z
1/2-x,1/2+y,z
1/2+x,1/2-y,z
loop_
_atom_site_type_symbol
_atom_site_label
_atom_site_fract_x
_atom_site_fract_y
_atom_site_fract_z
Si Si1 0.701550 0.162809 0.191183
Si Si2 0.794704 0.460933 0.000000
Si Si3 0.205195 0.412404 0.306732
Si Si4 0.197792 0.789245 0.500000
O O1 0.500000 0.160594 0.182651
O O2 0.760837 0.125451 0.251450
O O3 0.741547 0.190840 0.332164
O O4 0.764017 0.170367 0.000000
O O5 0.741471 0.440019 0.167388
O O6 0.739068 0.500000 0.000000
O O7 0.000000 0.461047 0.000000
O O8 0.258648 0.419624 0.500000
O O9 0.000000 0.412147 0.305844
O O10 0.250000 0.750000 0.500000
O O11 0.000000 0.790866 0.500000
#
# Coordination Sequence:
#
# PCOD9487608 Si02
#       4
#    16   8  16   8
#     4  10  19  35  61  86 110 147 192 234 280 336
#     4   9  16  24  36  66 112 151 182 223 278 333
#     4   9  15  25  45  71 101 142 187 226 271 328
#     4  12  26  42  60  84 117 148 181 229 284 337
#
# _framework density 19.561012000000002
#
# number of rings (size 3 to 8) (size 9 to 14) (size 15 to 20)
#    0.000    2.167    3.333    1.500    0.000    2.000 
#    0.000    3.333    0.000    0.000    0.000    0.000 
#    0.000    4.000    0.000    0.000    0.000    0.000 
#
# Total GULP energy -133985.005583 kJ/mol
# GULP energy per Si atom -5582.708566 kJ/mol
# Density = 1.951649 g / cm^3
# Si number density = 19.561012 Si / 1000 Ang^3
#
#
#
# Elastic Constant Matrix: (Units=GPa)
#
#
# Indices 1 2 3 4 5 6 
#
# 1 17.8000 5.3672 12.6072 0.0000 0.0000 0.0000
# 2 5.3672 202.8814 135.3348 0.0000 0.0000 0.0000
# 3 12.6072 135.3348 250.0277 0.0000 0.0000 0.0000
# 4 0.0000 0.0000 0.0000 36.6341 0.0000 0.0000
# 5 0.0000 0.0000 0.0000 0.0000 3.8741 0.0000
# 6 0.0000 0.0000 0.0000 0.0000 0.0000 9.2653
#
#
#
# Elastic Compliance Matrix: (Units=1/GPa)
#
#
# Indices 1 2 3 4 5 6 
#
# 1 0.058316 0.000655 -0.003295 0.000000 0.000000 0.000000
# 2 0.000655 0.007722 -0.004213 0.000000 0.000000 0.000000
# 3 -0.003295 -0.004213 0.006446 0.000000 0.000000 0.000000
# 4 0.000000 0.000000 0.000000 0.027297 0.000000 0.000000
# 5 0.000000 0.000000 0.000000 0.000000 0.258123 0.000000
# 6 0.000000 0.000000 0.000000 0.000000 0.000000 0.107930
#
#
# Mechanical properties :
#
#
# Convention : Reuss Voigt Hill
#
# Bulk Modulus (GPa) = 17.01292 86.36971 51.69131
# Shear Modulus (GPa) = 10.01740 31.11468 20.56604
#
# Velocity S-wave (km/s) = 2.26544 3.99262 3.24602
# Velocity P-wave (km/s) = 3.94452 8.09349 6.36646
#
# Compressibility (1/GPa) = 0.05877887
#
# Stress axis : x y z
#
# Youngs Moduli (GPa) = 17.14789 129.50384 155.13609
#
# Poissons Ratio (x) = -0.08488 0.51121
# Poissons Ratio (y) = -0.01124 0.65354
# Poissons Ratio (z) = 0.05651 0.54556
#
# Static dielectric constant tensor:
#      x y z
#    x 1.733150 0.000000 0.000000 
#    y 0.000000 1.614830 0.000000 
#    z 0.000000 0.000000 1.625950 
# 
# From -- ./inp_files/3066.got.cif
#   From: 2010.05.17/outbox.cif.g08.bks.cpg/sg65_2_cif.got.tgz:3066.got - 2010.06.03 17:01:31.
