data_PCOD9487310
_publ_section_title
;
Structure prediction by ZEFSAII (Michael W. Deem and Ramdas Pophale) SiO2 
 PCOD9487310
Probable space group: C M M M
;
_chemical_formula_sum "Si O2"
_cell_formula_units_Z 104
_cell_length_a 21.947658
_cell_length_b 27.065820
_cell_length_c 10.491289
_cell_angle_alpha 90.000000
_cell_angle_beta 90.000000
_cell_angle_gamma 90.000000
_cell_volume 6232.154682
_symmetry_space_group_name_H-M "C M M M"
_symmetry_group_IT_number 65
_symmetry_cell_setting 'orthorhombic'
loop_
_space_group_symop_operation_xyz
x,y,z
-x,-y,z
x,-y,-z
-x,y,-z
-x,-y,-z
x,y,-z
-x,y,z
x,-y,z
1/2+x,1/2+y,z
1/2-x,1/2-y,z
1/2+x,1/2-y,-z
1/2-x,1/2+y,-z
1/2-x,1/2-y,-z
1/2+x,1/2+y,-z
1/2-x,1/2+y,z
1/2+x,1/2-y,z
loop_
_atom_site_type_symbol
_atom_site_label
_atom_site_fract_x
_atom_site_fract_y
_atom_site_fract_z
Si Si1 0.429174 0.704594 0.353283
Si Si2 0.000000 0.444433 0.845852
Si Si3 0.278271 0.059183 0.647490
Si Si4 0.127550 0.394883 0.152006
Si Si5 0.069071 0.059048 0.861506
Si Si6 0.354311 0.394252 0.356454
Si Si7 0.428561 0.210085 0.853421
O O1 0.424853 0.722635 0.500000
O O2 0.500000 0.686649 0.337430
O O3 0.379111 0.661506 0.338265
O O4 0.419319 0.747312 0.250020
O O5 0.062426 0.418168 0.811133
O O6 0.000000 0.500000 0.796764
O O7 0.000000 0.445444 0.000000
O O8 0.300758 0.063770 0.500000
O O9 0.323273 0.080865 0.754485
O O10 0.216481 0.091645 0.654803
O O11 0.266975 0.000000 0.668341
O O12 0.116244 0.336204 0.166473
O O13 0.139214 0.404475 0.000000
O O14 0.111016 0.074929 0.748419
O O15 0.000000 0.077128 0.843832
O O16 0.066866 0.000000 0.865456
O O17 0.091014 0.076899 0.000000
O O18 0.373015 0.408374 0.500000
O O19 0.500000 0.193755 0.843459
O O20 0.420863 0.227526 0.000000
#
# Coordination Sequence:
#
# PCOD9487310 Si02
#       7
#    16   8  16  16  16  16  16
#     4   9  18  32  52  79 106 132 171 220 265 310
#     4   9  16  28  51  81 107 129 161 209 258 305
#     4  10  22  38  53  73 105 142 178 217 262 311
#     4  10  19  34  56  81 105 134 173 213 257 313
#     4   9  18  31  47  71 102 131 164 214 272 322
#     4  10  20  35  53  72  99 139 183 222 258 303
#     4   9  17  32  54  80 108 135 166 209 262 317
#
# _framework density 16.687647999999999
#
# number of rings (size 3 to 8) (size 9 to 14) (size 15 to 20)
#    0.000    2.538    0.769    1.846    0.000    4.615 
#    0.000    3.462    0.000    6.000    0.000    0.000 
#    0.000    0.000    0.000    0.000    0.000    0.000 
#
# Total GULP energy -289480.983780 kJ/mol
# GULP energy per Si atom -5566.941996 kJ/mol
# Density = 1.664967 g / cm^3
# Si number density = 16.687648 Si / 1000 Ang^3
#
#
#
# Elastic Constant Matrix: (Units=GPa)
#
#
# Indices 1 2 3 4 5 6 
#
# 1 79.8876 49.4759 75.6557 0.0000 0.0000 0.0000
# 2 49.4759 76.7827 69.4153 0.0000 0.0000 0.0000
# 3 75.6557 69.4153 120.0817 0.0000 0.0000 0.0000
# 4 0.0000 0.0000 0.0000 29.5769 0.0000 0.0000
# 5 0.0000 0.0000 0.0000 0.0000 33.9239 0.0000
# 6 0.0000 0.0000 0.0000 0.0000 0.0000 30.2331
#
#
#
# Elastic Compliance Matrix: (Units=1/GPa)
#
#
# Indices 1 2 3 4 5 6 
#
# 1 0.031926 -0.005001 -0.017224 0.000000 0.000000 0.000000
# 2 -0.005001 0.028064 -0.013072 0.000000 0.000000 0.000000
# 3 -0.017224 -0.013072 0.026736 0.000000 0.000000 0.000000
# 4 0.000000 0.000000 0.000000 0.033810 0.000000 0.000000
# 5 0.000000 0.000000 0.000000 0.000000 0.029478 0.000000
# 6 0.000000 0.000000 0.000000 0.000000 0.000000 0.033076
#
#
# Mechanical properties :
#
#
# Convention : Reuss Voigt Hill
#
# Bulk Modulus (GPa) = 61.98717 73.98287 67.98502
# Shear Modulus (GPa) = 19.30048 24.22711 21.76379
#
# Velocity S-wave (km/s) = 3.40453 3.81438 3.61527
# Velocity P-wave (km/s) = 7.25814 7.98934 7.63250
#
# Compressibility (1/GPa) = 0.01613237
#
# Stress axis : x y z
#
# Youngs Moduli (GPa) = 31.32244 35.63282 37.40308
#
# Poissons Ratio (x) = 0.17820 0.64422
# Poissons Ratio (y) = 0.15664 0.48894
# Poissons Ratio (z) = 0.53949 0.46580
#
# Static dielectric constant tensor:
#      x y z
#    x 1.558210 0.000000 0.000000 
#    y 0.000000 1.571760 0.000000 
#    z 0.000000 0.000000 1.559800 
# 
# From -- ./inp_files/12763.got.cif
#   From: 2010.05.17/outbox.cif.g08.bks.cpg/sg65_7_cif.got.tgz:12763.got - 2010.06.03 17:01:31.
