data_PCOD9487309
_publ_section_title
;
Structure prediction by ZEFSAII (Michael W. Deem and Ramdas Pophale) SiO2 
 PCOD9487309
Probable space group: C M M M
;
_chemical_formula_sum "Si O2"
_cell_formula_units_Z 64
_cell_length_a 8.399238
_cell_length_b 37.883941
_cell_length_c 10.916604
_cell_angle_alpha 90.000000
_cell_angle_beta 90.000000
_cell_angle_gamma 90.000000
_cell_volume 3473.622312
_symmetry_space_group_name_H-M "C M M M"
_symmetry_group_IT_number 65
_symmetry_cell_setting 'orthorhombic'
loop_
_space_group_symop_operation_xyz
x,y,z
-x,-y,z
x,-y,-z
-x,y,-z
-x,-y,-z
x,y,-z
-x,y,z
x,-y,z
1/2+x,1/2+y,z
1/2-x,1/2-y,z
1/2+x,1/2-y,-z
1/2-x,1/2+y,-z
1/2-x,1/2-y,-z
1/2+x,1/2+y,-z
1/2-x,1/2+y,z
1/2+x,1/2-y,z
loop_
_atom_site_type_symbol
_atom_site_label
_atom_site_fract_x
_atom_site_fract_y
_atom_site_fract_z
Si Si1 0.188233 0.289812 0.000000
Si Si2 0.192350 0.837760 0.500000
Si Si3 0.194641 0.540504 0.000000
Si Si4 0.188340 0.417559 0.500000
Si Si5 0.193425 0.585415 0.234171
Si Si6 0.190102 0.166087 0.230431
O O1 0.250000 0.250000 0.000000
O O2 0.244461 0.310359 0.121224
O O3 0.000000 0.289296 0.000000
O O4 0.279439 0.875536 0.500000
O O5 0.233159 0.820917 0.631417
O O6 0.000000 0.843602 0.500000
O O7 0.245730 0.561498 0.878885
O O8 0.246801 0.500000 0.000000
O O9 0.000000 0.540513 0.000000
O O10 0.250390 0.429056 0.633164
O O11 0.000000 0.424785 0.500000
O O12 0.250006 0.625725 0.218857
O O13 0.000000 0.585977 0.235773
O O14 0.000000 0.165809 0.221793
#
# Coordination Sequence:
#
# PCOD9487309 Si02
#       6
#     8   8   8   8  16  16
#     4  12  25  40  55  75 104 138 173 208 247 291
#     4   8  16  30  51  78 105 129 158 200 249 300
#     4   9  17  28  42  62  91 127 166 207 250 295
#     4   8  14  24  41  67  95 120 153 200 248 294
#     4   9  16  28  47  70  95 125 162 203 248 297
#     4  10  19  34  56  81 105 131 165 206 252 301
#
# _framework density 18.424569999999999
#
# number of rings (size 3 to 8) (size 9 to 14) (size 15 to 20)
#    0.000    2.625    0.000    2.625    0.000    2.000 
#    0.000    1.250    0.000    5.250    0.000    0.000 
#    0.000   10.000    0.000    0.000    0.000    0.000 
#
# Total GULP energy -178275.771778 kJ/mol
# GULP energy per Si atom -5571.117868 kJ/mol
# Density = 1.838264 g / cm^3
# Si number density = 18.424570 Si / 1000 Ang^3
#
#
#
# Elastic Constant Matrix: (Units=GPa)
#
#
# Indices 1 2 3 4 5 6 
#
# 1 29.8185 17.3645 40.4048 0.0000 0.0000 0.0000
# 2 17.3645 89.2731 102.8129 0.0000 0.0000 0.0000
# 3 40.4048 102.8129 247.4414 0.0000 0.0000 0.0000
# 4 0.0000 0.0000 0.0000 -5.4927 0.0000 0.0000
# 5 0.0000 0.0000 0.0000 0.0000 6.7700 0.0000
# 6 0.0000 0.0000 0.0000 0.0000 0.0000 13.5674
#
#
#
# Elastic Compliance Matrix: (Units=1/GPa)
#
#
# Indices 1 2 3 4 5 6 
#
# 1 0.043078 -0.000533 -0.006813 0.000000 0.000000 0.000000
# 2 -0.000533 0.021487 -0.008841 0.000000 0.000000 0.000000
# 3 -0.006813 -0.008841 0.008827 0.000000 0.000000 0.000000
# 4 0.000000 0.000000 0.000000 -0.182060 0.000000 0.000000
# 5 0.000000 0.000000 0.000000 0.000000 0.147710 0.000000
# 6 0.000000 0.000000 0.000000 0.000000 0.000000 0.073706
#
#
# Mechanical properties :
#
#
# Convention : Reuss Voigt Hill
#
# Bulk Modulus (GPa) = 24.37901 76.41082 50.39492
# Shear Modulus (GPa) = 31.48704 16.69900 24.09302
#
# Velocity S-wave (km/s) = 4.13845 3.01382 3.62008
# Velocity P-wave (km/s) = 6.00802 7.32619 6.69960
#
# Compressibility (1/GPa) = 0.04101889
#
# Stress axis : x y z
#
# Youngs Moduli (GPa) = 23.21366 46.53961 113.28560
#
# Poissons Ratio (x) = 0.02481 0.77178
# Poissons Ratio (y) = 0.01238 1.00155
# Poissons Ratio (z) = 0.15815 0.41145
#
# Static dielectric constant tensor:
#      x y z
#    x 1.631080 0.000000 0.000000 
#    y 0.000000 1.571650 0.000000 
#    z 0.000000 0.000000 1.794640 
# 
# From -- ./inp_files/21062.got.cif
#   From: 2010.05.17/outbox.cif.g08.bks.cpg/sg65_11_cif.got.tgz:21062.got - 2010.06.03 17:01:31.
