data_PCOD9487865
_publ_section_title
;
Structure prediction by ZEFSAII (Michael W. Deem and Ramdas Pophale) SiO2 
 PCOD9487865
Probable space group: C M M M
;
_chemical_formula_sum "Si O2"
_cell_formula_units_Z 88
_cell_length_a 28.463437
_cell_length_b 15.053648
_cell_length_c 10.098194
_cell_angle_alpha 90.000000
_cell_angle_beta 90.000000
_cell_angle_gamma 90.000000
_cell_volume 4326.859639
_symmetry_space_group_name_H-M "C M M M"
_symmetry_group_IT_number 65
_symmetry_cell_setting 'orthorhombic'
loop_
_space_group_symop_operation_xyz
x,y,z
-x,-y,z
x,-y,-z
-x,y,-z
-x,-y,-z
x,y,-z
-x,y,z
x,-y,z
1/2+x,1/2+y,z
1/2-x,1/2-y,z
1/2+x,1/2-y,-z
1/2-x,1/2+y,-z
1/2-x,1/2-y,-z
1/2+x,1/2+y,-z
1/2-x,1/2+y,z
1/2+x,1/2-y,z
loop_
_atom_site_type_symbol
_atom_site_label
_atom_site_fract_x
_atom_site_fract_y
_atom_site_fract_z
Si Si1 0.554239 0.891311 0.648269
Si Si2 0.000000 0.103491 0.838959
Si Si3 0.602876 0.607953 0.154105
Si Si4 0.314458 0.657966 0.351227
Si Si5 0.871154 0.602516 0.853098
Si Si6 0.708559 0.132379 0.350587
O O1 0.568285 0.862479 0.500000
O O2 0.500000 0.867615 0.671387
O O3 0.588921 0.855729 0.760137
O O4 0.556245 0.000000 0.647022
O O5 0.051004 0.140494 0.799460
O O6 0.000000 0.000000 0.797881
O O7 0.000000 0.104538 0.000000
O O8 0.601705 0.500000 0.157171
O O9 0.645527 0.638737 0.245438
O O10 0.609598 0.633529 0.000000
O O11 0.329617 0.632278 0.500000
O O12 0.301898 0.762268 0.352624
O O13 0.263476 0.614159 0.325553
O O14 0.885524 0.500000 0.869271
O O15 0.823990 0.600081 0.767365
O O16 0.865991 0.641540 0.000000
O O17 0.696796 0.100445 0.500000
#
# Coordination Sequence:
#
# PCOD9487865 Si02
#       6
#    16   8  16  16  16  16
#     4   8  14  26  45  67  90 120 157 191 229 283
#     4   7  12  26  47  71 101 135 164 187 224 287
#     4   9  17  30  51  78 105 133 164 198 239 293
#     4   9  19  35  53  72  94 125 166 209 248 287
#     4  10  20  31  46  72 101 125 155 202 251 289
#     4   9  19  36  53  67  91 130 170 204 244 298
#
# _framework density 20.338076999999998
#
# number of rings (size 3 to 8) (size 9 to 14) (size 15 to 20)
#    0.000    3.182    0.000    3.273    0.000    4.000 
#    0.000    7.727    2.000    1.636    0.000    0.000 
#    0.000    0.000    0.000    0.000    0.000    0.000 
#
# Total GULP energy -245200.052013 kJ/mol
# GULP energy per Si atom -5572.728455 kJ/mol
# Density = 2.029179 g / cm^3
# Si number density = 20.338077 Si / 1000 Ang^3
#
#
#
# Elastic Constant Matrix: (Units=GPa)
#
#
# Indices 1 2 3 4 5 6 
#
# 1 169.1286 13.2947 128.7461 0.0000 0.0000 0.0000
# 2 13.2947 35.0695 9.5589 0.0000 0.0000 0.0000
# 3 128.7461 9.5589 172.7944 0.0000 0.0000 0.0000
# 4 0.0000 0.0000 0.0000 16.0031 0.0000 0.0000
# 5 0.0000 0.0000 0.0000 0.0000 34.2959 0.0000
# 6 0.0000 0.0000 0.0000 0.0000 0.0000 36.8044
#
#
#
# Elastic Compliance Matrix: (Units=1/GPa)
#
#
# Indices 1 2 3 4 5 6 
#
# 1 0.013870 -0.002479 -0.010197 0.000000 0.000000 0.000000
# 2 -0.002479 0.029394 0.000221 0.000000 0.000000 0.000000
# 3 -0.010197 0.000221 0.013373 0.000000 0.000000 0.000000
# 4 0.000000 0.000000 0.000000 0.062488 0.000000 0.000000
# 5 0.000000 0.000000 0.000000 0.000000 0.029158 0.000000
# 6 0.000000 0.000000 0.000000 0.000000 0.000000 0.027171
#
#
# Mechanical properties :
#
#
# Convention : Reuss Voigt Hill
#
# Bulk Modulus (GPa) = 31.51904 75.57688 53.54796
# Shear Modulus (GPa) = 23.70358 32.44688 28.07523
#
# Velocity S-wave (km/s) = 3.41761 3.99855 3.71944
# Velocity P-wave (km/s) = 5.57715 7.65237 6.69565
#
# Compressibility (1/GPa) = 0.03172685
#
# Stress axis : x y z
#
# Youngs Moduli (GPa) = 72.09903 34.02022 74.77942
#
# Poissons Ratio (x) = 0.08432 0.76253
# Poissons Ratio (y) = 0.17870 -0.01650
# Poissons Ratio (z) = 0.73520 -0.00751
#
# Static dielectric constant tensor:
#      x y z
#    x 1.726190 0.000000 0.000000 
#    y 0.000000 1.796520 0.000000 
#    z 0.000000 0.000000 1.714880 
# 
# From -- ./inp_files/13961.got.cif
#   From: 2010.05.17/outbox.cif.g08.bks.cpg/sg65_7_cif.got.tgz:13961.got - 2010.06.03 17:01:31.
