data_PCOD9487777
_publ_section_title
;
Structure prediction by ZEFSAII (Michael W. Deem and Ramdas Pophale) SiO2 
 PCOD9487777
Probable space group: C M M M
;
_chemical_formula_sum "Si O2"
_cell_formula_units_Z 100
_cell_length_a 24.590946
_cell_length_b 8.122336
_cell_length_c 27.918117
_cell_angle_alpha 90.000000
_cell_angle_beta 90.000000
_cell_angle_gamma 90.000000
_cell_volume 5576.250950
_symmetry_space_group_name_H-M "C M M M"
_symmetry_group_IT_number 65
_symmetry_cell_setting 'orthorhombic'
loop_
_space_group_symop_operation_xyz
x,y,z
-x,-y,z
x,-y,-z
-x,y,-z
-x,-y,-z
x,y,-z
-x,y,z
x,-y,z
1/2+x,1/2+y,z
1/2-x,1/2-y,z
1/2+x,1/2-y,-z
1/2-x,1/2+y,-z
1/2-x,1/2-y,-z
1/2+x,1/2+y,-z
1/2-x,1/2+y,z
1/2+x,1/2-y,z
loop_
_atom_site_type_symbol
_atom_site_label
_atom_site_fract_x
_atom_site_fract_y
_atom_site_fract_z
Si Si1 0.188585 0.193650 0.681770
Si Si2 0.847659 0.500000 0.500000
Si Si3 0.000000 0.309639 0.898780
Si Si4 0.187492 0.302385 0.140179
Si Si5 0.611340 0.303253 0.945703
Si Si6 0.686760 0.297878 0.569145
Si Si7 0.881098 0.693000 0.230448
Si Si8 0.000000 0.188272 0.207776
O O1 0.250000 0.250000 0.692209
O O2 0.177146 0.226248 0.625798
O O3 0.146520 0.267048 0.719193
O O4 0.186947 0.000000 0.688312
O O5 0.844851 0.347459 0.540926
O O6 0.945803 0.272039 0.928441
O O7 0.000000 0.208208 0.849676
O O8 0.000000 0.500000 0.884171
O O9 0.185729 0.500000 0.140318
O O10 0.250000 0.250000 0.142720
O O11 0.157592 0.243784 0.092115
O O12 0.153607 0.234447 0.185943
O O13 0.605112 0.500000 0.945348
O O14 0.623807 0.250150 0.000000
O O15 0.679638 0.500000 0.558831
O O16 0.750000 0.250000 0.559250
O O17 0.878032 0.500000 0.223776
O O18 0.943942 0.739177 0.227058
O O19 0.000000 0.000000 0.221253
#
# Coordination Sequence:
#
# PCOD9487777 Si02
#       8
#    16   4   8  16  16  16  16   8
#     4  10  21  36  54  80 117 159 202 243 291 345
#     4  12  20  28  50  70 112 159 204 241 304 328
#     4  12  23  39  62  89 120 146 186 231 289 349
#     4  11  24  40  60  86 114 151 194 236 282 343
#     4  11  24  41  62  87 115 149 189 236 288 345
#     4  10  20  30  45  74 109 152 206 245 288 348
#     4  11  23  39  62  86 116 148 191 241 289 352
#     4  12  24  39  63  90 116 147 185 237 294 341
#
# _framework density 17.933195000000001
#
# number of rings (size 3 to 8) (size 9 to 14) (size 15 to 20)
#    0.000    1.120    2.400    4.560    2.240    5.760 
#    0.000    0.000    0.000    0.000    0.000    0.000 
#    0.000    1.280    0.000    4.560    0.000    0.000 
#
# Total GULP energy -278521.293710 kJ/mol
# GULP energy per Si atom -5570.425874 kJ/mol
# Density = 1.789238 g / cm^3
# Si number density = 17.933195 Si / 1000 Ang^3
#
#
#
# Elastic Constant Matrix: (Units=GPa)
#
#
# Indices 1 2 3 4 5 6 
#
# 1 111.9773 19.5693 70.9314 0.0000 0.0000 0.0000
# 2 19.5693 64.0572 32.3053 0.0000 0.0000 0.0000
# 3 70.9314 32.3053 109.9951 0.0000 0.0000 0.0000
# 4 0.0000 0.0000 0.0000 22.4502 0.0000 0.0000
# 5 0.0000 0.0000 0.0000 0.0000 -15.7837 0.0000
# 6 0.0000 0.0000 0.0000 0.0000 0.0000 47.2384
#
#
#
# Elastic Compliance Matrix: (Units=1/GPa)
#
#
# Indices 1 2 3 4 5 6 
#
# 1 0.015104 0.000350 -0.009843 0.000000 0.000000 0.000000
# 2 0.000350 0.018333 -0.005610 0.000000 0.000000 0.000000
# 3 -0.009843 -0.005610 0.017086 0.000000 0.000000 0.000000
# 4 0.000000 0.000000 0.000000 0.044543 0.000000 0.000000
# 5 0.000000 0.000000 0.000000 0.000000 -0.063356 0.000000
# 6 0.000000 0.000000 0.000000 0.000000 0.000000 0.021169
#
#
# Mechanical properties :
#
#
# Convention : Reuss Voigt Hill
#
# Bulk Modulus (GPa) = 49.21846 59.07129 54.14487
# Shear Modulus (GPa) = 55.64327 21.66254 38.65290
#
# Velocity S-wave (km/s) = 5.57633 3.47934 4.64765
# Velocity P-wave (km/s) = 8.30455 7.01086 7.68498
#
# Compressibility (1/GPa) = 0.02031758
#
# Stress axis : x y z
#
# Youngs Moduli (GPa) = 66.20727 54.54506 58.52710
#
# Poissons Ratio (x) = -0.01907 0.57606
# Poissons Ratio (y) = -0.02315 0.32833
# Poissons Ratio (z) = 0.65166 0.30599
#
# Static dielectric constant tensor:
#      x y z
#    x 1.701460 0.000000 0.000000 
#    y 0.000000 1.633630 0.000000 
#    z 0.000000 0.000000 1.653530 
# 
# From -- ./inp_files/75550.got.cif
#   From: 2010.05.17/outbox.cif.g08.bks.cpg/sg65_38_cif.got.tgz:75550.got - 2010.06.03 17:01:31.
