data_PCOD9487066
_publ_section_title
;
Structure prediction by ZEFSAII (Michael W. Deem and Ramdas Pophale) SiO2 
 PCOD9487066
Probable space group: C M M M
;
_chemical_formula_sum "Si O2"
_cell_formula_units_Z 72
_cell_length_a 20.569848
_cell_length_b 20.905173
_cell_length_c 7.402934
_cell_angle_alpha 90.000000
_cell_angle_beta 90.000000
_cell_angle_gamma 90.000000
_cell_volume 3183.381777
_symmetry_space_group_name_H-M "C M M M"
_symmetry_group_IT_number 65
_symmetry_cell_setting 'orthorhombic'
loop_
_space_group_symop_operation_xyz
x,y,z
-x,-y,z
x,-y,-z
-x,y,-z
-x,-y,-z
x,y,-z
-x,y,z
x,-y,z
1/2+x,1/2+y,z
1/2-x,1/2-y,z
1/2+x,1/2-y,-z
1/2-x,1/2+y,-z
1/2-x,1/2-y,-z
1/2+x,1/2+y,-z
1/2-x,1/2+y,z
1/2+x,1/2-y,z
loop_
_atom_site_type_symbol
_atom_site_label
_atom_site_fract_x
_atom_site_fract_y
_atom_site_fract_z
Si Si1 0.500000 0.627313 0.283675
Si Si2 0.735903 0.318881 0.794065
Si Si3 0.573885 0.000000 0.719732
Si Si4 0.000000 0.274958 0.279922
Si Si5 0.858819 0.928081 0.787704
Si Si6 0.622228 0.862386 0.719672
O O1 0.500000 0.628853 0.500000
O O2 0.500000 0.701230 0.219792
O O3 0.434237 0.591516 0.227254
O O4 0.750000 0.250000 0.706088
O O5 0.685401 0.370017 0.712587
O O6 0.807255 0.348233 0.794749
O O7 0.712416 0.306041 0.000000
O O8 0.605008 0.066038 0.776272
O O9 0.500000 0.000000 0.778696
O O10 0.574462 0.000000 0.500000
O O11 0.065024 0.313354 0.225025
O O12 0.000000 0.275005 0.500000
O O13 0.848455 0.000000 0.713475
O O14 0.842125 0.931420 0.000000
O O15 0.625129 0.859760 0.500000
#
# Coordination Sequence:
#
# PCOD9487066 Si02
#       6
#     8  16   8   8  16  16
#     4  11  22  36  58  86 111 134 175 234 279 314
#     4  10  22  39  57  80 111 146 184 226 271 322
#     4   9  16  30  53  81 111 144 181 220 263 323
#     4   9  18  33  54  82 113 146 179 216 272 332
#     4  10  22  40  59  78 106 147 184 215 268 337
#     4  10  19  33  56  82 110 145 184 223 268 321
#
# _framework density 22.617459
#
# number of rings (size 3 to 8) (size 9 to 14) (size 15 to 20)
#    0.000    2.111    1.111    2.000    1.556    3.111 
#    0.000    1.667    0.000    0.667    0.000    0.000 
#    0.000    0.000    0.000    0.000    0.000    0.000 
#
# Total GULP energy -201097.366556 kJ/mol
# GULP energy per Si atom -5586.037960 kJ/mol
# Density = 2.256598 g / cm^3
# Si number density = 22.617459 Si / 1000 Ang^3
#
#
#
# Elastic Constant Matrix: (Units=GPa)
#
#
# Indices 1 2 3 4 5 6 
#
# 1 140.3987 79.2106 -11.3861 0.0000 0.0000 0.0000
# 2 79.2106 217.3187 6.1697 0.0000 0.0000 0.0000
# 3 -11.3861 6.1697 79.7715 0.0000 0.0000 0.0000
# 4 0.0000 0.0000 0.0000 -1.8607 0.0000 0.0000
# 5 0.0000 0.0000 0.0000 0.0000 23.5824 0.0000
# 6 0.0000 0.0000 0.0000 0.0000 0.0000 39.9527
#
#
#
# Elastic Compliance Matrix: (Units=1/GPa)
#
#
# Indices 1 2 3 4 5 6 
#
# 1 0.009158 -0.003383 0.001569 0.000000 0.000000 0.000000
# 2 -0.003383 0.005861 -0.000936 0.000000 0.000000 0.000000
# 3 0.001569 -0.000936 0.012832 0.000000 0.000000 0.000000
# 4 0.000000 0.000000 0.000000 -0.537427 0.000000 0.000000
# 5 0.000000 0.000000 0.000000 0.000000 0.042405 0.000000
# 6 0.000000 0.000000 0.000000 0.000000 0.000000 0.025030
#
#
# Mechanical properties :
#
#
# Convention : Reuss Voigt Hill
#
# Bulk Modulus (GPa) = 44.73970 65.05304 54.89637
# Shear Modulus (GPa) = -11.64981 36.56786 12.45902
#
# Velocity S-wave (km/s) = -2.27200 4.02530 2.34958
# Velocity P-wave (km/s) = 3.59741 7.10133 5.62895
#
# Compressibility (1/GPa) = 0.02235151
#
# Stress axis : x y z
#
# Youngs Moduli (GPa) = 109.19152 170.61790 77.92944
#
# Poissons Ratio (x) = 0.57714 -0.12226
# Poissons Ratio (y) = 0.36935 0.07295
# Poissons Ratio (z) = -0.17130 0.15972
#
# Static dielectric constant tensor:
#      x y z
#    x 1.717840 0.000000 0.000000 
#    y 0.000000 1.824260 0.000000 
#    z 0.000000 0.000000 1.878410 
# 
# From -- ./inp_files/11336.got.cif
#   From: 2010.05.17/outbox.cif.g08.bks.cpg/sg65_6_cif.got.tgz:11336.got - 2010.06.03 17:01:31.
