data_PCOD9487231
_publ_section_title
;
Structure prediction by ZEFSAII (Michael W. Deem and Ramdas Pophale) SiO2 
 PCOD9487231
Probable space group: C M M M
;
_chemical_formula_sum "Si O2"
_cell_formula_units_Z 104
_cell_length_a 23.034325
_cell_length_b 14.296188
_cell_length_c 17.884310
_cell_angle_alpha 90.000000
_cell_angle_beta 90.000000
_cell_angle_gamma 90.000000
_cell_volume 5889.357663
_symmetry_space_group_name_H-M "C M M M"
_symmetry_group_IT_number 65
_symmetry_cell_setting 'orthorhombic'
loop_
_space_group_symop_operation_xyz
x,y,z
-x,-y,z
x,-y,-z
-x,y,-z
-x,-y,-z
x,y,-z
-x,y,z
x,-y,z
1/2+x,1/2+y,z
1/2-x,1/2-y,z
1/2+x,1/2-y,-z
1/2-x,1/2+y,-z
1/2-x,1/2-y,-z
1/2+x,1/2+y,-z
1/2-x,1/2+y,z
1/2+x,1/2-y,z
loop_
_atom_site_type_symbol
_atom_site_label
_atom_site_fract_x
_atom_site_fract_y
_atom_site_fract_z
Si Si1 0.570241 0.392605 0.000000
Si Si2 0.274550 0.387500 0.413947
Si Si3 0.141493 0.391949 0.626384
Si Si4 0.566814 0.895056 0.224329
Si Si5 0.069014 0.801813 0.842736
Si Si6 0.564808 0.724421 0.420917
Si Si7 0.123479 0.111521 0.301818
O O1 0.586318 0.339407 0.076016
O O2 0.591048 0.500000 0.000000
O O3 0.500000 0.395493 0.000000
O O4 0.282395 0.352364 0.500000
O O5 0.281606 0.500000 0.418381
O O6 0.209367 0.370941 0.384955
O O7 0.319992 0.356491 0.350042
O O8 0.132440 0.500000 0.601702
O O9 0.114162 0.385688 0.709786
O O10 0.106658 0.312607 0.583730
O O11 0.500000 0.887357 0.254516
O O12 0.573586 0.809964 0.167201
O O13 0.572194 0.000000 0.192861
O O14 0.109972 0.846690 0.779326
O O15 0.000000 0.825864 0.830297
O O16 0.574188 0.674150 0.500000
O O17 0.500000 0.761796 0.418243
O O18 0.573352 0.653010 0.354045
O O19 0.123764 0.000000 0.297139
#
# Coordination Sequence:
#
# PCOD9487231 Si02
#       7
#     8  16  16  16  16  16  16
#     4   9  18  32  53  83 114 143 174 214 264 314
#     4   9  19  35  53  74 101 137 184 232 274 316
#     4  10  19  34  55  76 102 137 175 224 277 319
#     4   9  17  31  53  79 108 141 175 217 269 323
#     4  10  19  34  55  81 111 139 173 216 264 325
#     4  11  23  35  48  72 103 135 178 224 266 322
#     4  11  22  36  53  72 100 141 182 222 265 315
#
# _framework density 17.658971999999999
#
# number of rings (size 3 to 8) (size 9 to 14) (size 15 to 20)
#    0.000    2.077    1.538    2.308    0.000    5.231 
#    0.000    3.462    0.000    2.308    0.000    2.154 
#    0.000    4.923    0.000    0.000    0.000    0.000 
#
# Total GULP energy -289779.374952 kJ/mol
# GULP energy per Si atom -5572.680288 kJ/mol
# Density = 1.761878 g / cm^3
# Si number density = 17.658972 Si / 1000 Ang^3
#
#
#
# Elastic Constant Matrix: (Units=GPa)
#
#
# Indices 1 2 3 4 5 6 
#
# 1 90.5211 27.7164 42.9095 0.0000 0.0000 0.0000
# 2 27.7164 95.4075 63.7320 0.0000 0.0000 0.0000
# 3 42.9095 63.7320 148.2037 0.0000 0.0000 0.0000
# 4 0.0000 0.0000 0.0000 11.3123 0.0000 0.0000
# 5 0.0000 0.0000 0.0000 0.0000 24.3073 0.0000
# 6 0.0000 0.0000 0.0000 0.0000 0.0000 22.0582
#
#
#
# Elastic Compliance Matrix: (Units=1/GPa)
#
#
# Indices 1 2 3 4 5 6 
#
# 1 0.013015 -0.001773 -0.003006 0.000000 0.000000 0.000000
# 2 -0.001773 0.014947 -0.005914 0.000000 0.000000 0.000000
# 3 -0.003006 -0.005914 0.010161 0.000000 0.000000 0.000000
# 4 0.000000 0.000000 0.000000 0.088399 0.000000 0.000000
# 5 0.000000 0.000000 0.000000 0.000000 0.041140 0.000000
# 6 0.000000 0.000000 0.000000 0.000000 0.000000 0.045335
#
#
# Mechanical properties :
#
#
# Convention : Reuss Voigt Hill
#
# Bulk Modulus (GPa) = 59.74861 66.98311 63.36586
# Shear Modulus (GPa) = 20.83659 24.85385 22.84522
#
# Velocity S-wave (km/s) = 3.43876 3.75565 3.60069
# Velocity P-wave (km/s) = 7.04804 7.53793 7.29710
#
# Compressibility (1/GPa) = 0.01673679
#
# Stress axis : x y z
#
# Youngs Moduli (GPa) = 76.83541 66.90194 98.41467
#
# Poissons Ratio (x) = 0.11862 0.29581
# Poissons Ratio (y) = 0.13623 0.58206
# Poissons Ratio (z) = 0.23095 0.39569
#
# Static dielectric constant tensor:
#      x y z
#    x 1.619160 0.000000 0.000000 
#    y 0.000000 1.625810 0.000000 
#    z 0.000000 0.000000 1.592150 
# 
# From -- ./inp_files/55909.got.cif
#   From: 2010.05.17/outbox.cif.g08.bks.cpg/sg65_28_cif.got.tgz:55909.got - 2010.06.03 17:01:31.
