data_PCOD9487413
_publ_section_title
;
Structure prediction by ZEFSAII (Michael W. Deem and Ramdas Pophale) SiO2 
 PCOD9487413
Probable space group: C M M M
;
_chemical_formula_sum "Si O2"
_cell_formula_units_Z 80
_cell_length_a 29.330425
_cell_length_b 17.060291
_cell_length_c 8.301528
_cell_angle_alpha 90.000000
_cell_angle_beta 90.000000
_cell_angle_gamma 90.000000
_cell_volume 4153.964950
_symmetry_space_group_name_H-M "C M M M"
_symmetry_group_IT_number 65
_symmetry_cell_setting 'orthorhombic'
loop_
_space_group_symop_operation_xyz
x,y,z
-x,-y,z
x,-y,-z
-x,y,-z
-x,-y,-z
x,y,-z
-x,y,z
x,-y,z
1/2+x,1/2+y,z
1/2-x,1/2-y,z
1/2+x,1/2-y,-z
1/2-x,1/2+y,-z
1/2-x,1/2-y,-z
1/2+x,1/2+y,-z
1/2-x,1/2+y,z
1/2+x,1/2-y,z
loop_
_atom_site_type_symbol
_atom_site_label
_atom_site_fract_x
_atom_site_fract_y
_atom_site_fract_z
Si Si1 0.142485 0.260265 0.810715
Si Si2 0.212734 0.861723 0.689540
Si Si3 0.156648 0.000000 0.176214
Si Si4 0.949542 0.175559 0.304687
Si Si5 0.315016 0.908598 0.306240
Si Si6 0.063921 0.000000 0.683772
O O1 0.184052 0.216975 0.717847
O O2 0.094215 0.221957 0.760435
O O3 0.147100 0.351983 0.768989
O O4 0.149035 0.248088 0.000000
O O5 0.209388 0.882319 0.500000
O O6 0.187106 0.924732 0.797759
O O7 0.265777 0.869844 0.732464
O O8 0.118261 0.000000 0.310125
O O9 0.134882 0.000000 0.000000
O O10 0.945300 0.173717 0.500000
O O11 0.948866 0.084671 0.246121
O O12 0.000000 0.207954 0.265275
O O13 0.319718 0.907372 0.500000
O O14 0.315652 0.000000 0.255449
O O15 0.047900 0.000000 0.500000
#
# Coordination Sequence:
#
# PCOD9487413 Si02
#       6
#    16  16   8  16  16   8
#     4  12  25  38  56  87 122 154 187 235 295 344
#     4  11  21  38  60  83 114 158 201 237 277 331
#     4  12  22  31  51  85 123 159 191 233 288 336
#     4  10  21  38  61  86 113 151 198 241 282 337
#     4  10  22  41  63  85 110 149 199 242 284 339
#     4  10  19  34  58  84 115 155 194 235 279 333
#
# _framework density 19.258709
#
# number of rings (size 3 to 8) (size 9 to 14) (size 15 to 20)
#    0.000    1.200    3.000    4.200    0.000    6.000 
#    0.000    0.000    0.000    2.400    0.000    4.200 
#    0.000    0.000    0.000    0.000    0.000    0.000 
#
# Total GULP energy -223254.661172 kJ/mol
# GULP energy per Si atom -5581.366529 kJ/mol
# Density = 1.921488 g / cm^3
# Si number density = 19.258709 Si / 1000 Ang^3
#
#
#
# Elastic Constant Matrix: (Units=GPa)
#
#
# Indices 1 2 3 4 5 6 
#
# 1 114.0654 71.4496 22.1973 0.0000 0.0000 0.0000
# 2 71.4496 111.1831 13.5377 0.0000 0.0000 0.0000
# 3 22.1973 13.5377 46.4226 0.0000 0.0000 0.0000
# 4 0.0000 0.0000 0.0000 -42.9729 0.0000 0.0000
# 5 0.0000 0.0000 0.0000 0.0000 -7.4731 0.0000
# 6 0.0000 0.0000 0.0000 0.0000 0.0000 10.5449
#
#
#
# Elastic Compliance Matrix: (Units=1/GPa)
#
#
# Indices 1 2 3 4 5 6 
#
# 1 0.015605 -0.009456 -0.004704 0.000000 0.000000 0.000000
# 2 -0.009456 0.015055 0.000131 0.000000 0.000000 0.000000
# 3 -0.004704 0.000131 0.023752 0.000000 0.000000 0.000000
# 4 0.000000 0.000000 0.000000 -0.023270 0.000000 0.000000
# 5 0.000000 0.000000 0.000000 0.000000 -0.133813 0.000000
# 6 0.000000 0.000000 0.000000 0.000000 0.000000 0.094833
#
#
# Mechanical properties :
#
#
# Convention : Reuss Voigt Hill
#
# Bulk Modulus (GPa) = 37.94407 54.00447 45.97427
# Shear Modulus (GPa) = 172.38853 2.98554 87.68704
#
# Velocity S-wave (km/s) = 9.47134 1.24643 6.75499
# Velocity P-wave (km/s) = 11.80481 5.49308 9.20672
#
# Compressibility (1/GPa) = 0.02635458
#
# Stress axis : x y z
#
# Youngs Moduli (GPa) = 64.08077 66.42453 42.10092
#
# Poissons Ratio (x) = 0.62809 0.19806
# Poissons Ratio (y) = 0.60592 -0.00552
# Poissons Ratio (z) = 0.30146 -0.00871
#
# Static dielectric constant tensor:
#      x y z
#    x 1.658800 0.000000 0.000000 
#    y 0.000000 1.698140 0.000000 
#    z 0.000000 0.000000 1.661430 
# 
# From -- ./inp_files/16104.got.cif
#   From: 2010.05.17/outbox.cif.g08.bks.cpg/sg65_9_cif.got.tgz:16104.got - 2010.06.03 17:01:31.
