data_PCOD9487186
_publ_section_title
;
Structure prediction by ZEFSAII (Michael W. Deem and Ramdas Pophale) SiO2 
 PCOD9487186
Probable space group: C M M M
;
_chemical_formula_sum "Si O2"
_cell_formula_units_Z 104
_cell_length_a 7.716312
_cell_length_b 29.738574
_cell_length_c 25.727136
_cell_angle_alpha 90.000000
_cell_angle_beta 90.000000
_cell_angle_gamma 90.000000
_cell_volume 5903.660322
_symmetry_space_group_name_H-M "C M M M"
_symmetry_group_IT_number 65
_symmetry_cell_setting 'orthorhombic'
loop_
_space_group_symop_operation_xyz
x,y,z
-x,-y,z
x,-y,-z
-x,y,-z
-x,-y,-z
x,y,-z
-x,y,z
x,-y,z
1/2+x,1/2+y,z
1/2-x,1/2-y,z
1/2+x,1/2-y,-z
1/2-x,1/2+y,-z
1/2-x,1/2-y,-z
1/2+x,1/2+y,-z
1/2-x,1/2+y,z
1/2+x,1/2-y,z
loop_
_atom_site_type_symbol
_atom_site_label
_atom_site_fract_x
_atom_site_fract_y
_atom_site_fract_z
Si Si1 0.000000 0.945558 0.559032
Si Si2 0.708539 0.799519 0.784473
Si Si3 0.209833 0.604761 0.943062
Si Si4 0.206627 0.446446 0.359904
Si Si5 0.794999 0.948924 0.839367
Si Si6 0.297128 0.108928 0.740018
Si Si7 0.707860 0.799411 0.903990
O O1 0.171724 0.933458 0.591770
O O2 0.000000 0.928425 0.500000
O O3 0.000000 0.000000 0.556444
O O4 0.500000 0.803603 0.787179
O O5 0.750000 0.750000 0.763884
O O6 0.777597 0.841738 0.752037
O O7 0.773377 0.801748 0.844261
O O8 0.264744 0.574475 0.894749
O O9 0.269165 0.656250 0.933645
O O10 0.000000 0.604921 0.942971
O O11 0.268191 0.589109 0.000000
O O12 0.228210 0.500000 0.350233
O O13 0.268507 0.419154 0.309088
O O14 0.000000 0.439250 0.369072
O O15 0.717257 0.919561 0.792920
O O16 0.000000 0.950240 0.830029
O O17 0.727620 0.000000 0.839143
O O18 0.500000 0.115243 0.728910
O O19 0.500000 0.802162 0.902424
O O20 0.750000 0.750000 0.925380
#
# Coordination Sequence:
#
# PCOD9487186 Si02
#       7
#     8  16  16  16  16  16  16
#     4   9  18  32  50  74 110 152 187 221 259 303
#     4   9  17  30  48  71 100 130 159 196 248 305
#     4  10  21  38  56  71  90 120 161 204 247 302
#     4   9  18  31  49  76 108 144 184 224 262 301
#     4  11  24  37  51  73  97 124 160 204 256 308
#     4  10  19  34  54  75 102 136 169 209 252 301
#     4   9  17  31  49  71  95 119 152 193 241 299
#
# _framework density 17.616188999999999
#
# number of rings (size 3 to 8) (size 9 to 14) (size 15 to 20)
#    0.000    2.385    1.538    0.923    1.077    4.308 
#    0.000    3.077    0.000    0.000    0.000    0.000 
#    0.000    0.615    0.308    0.000    0.000    0.000 
#
# Total GULP energy -289997.280833 kJ/mol
# GULP energy per Si atom -5576.870785 kJ/mol
# Density = 1.757609 g / cm^3
# Si number density = 17.616189 Si / 1000 Ang^3
#
#
#
# Elastic Constant Matrix: (Units=GPa)
#
#
# Indices 1 2 3 4 5 6 
#
# 1 33.6537 5.3315 12.0531 0.0000 0.0000 0.0000
# 2 5.3315 99.9687 45.6600 0.0000 0.0000 0.0000
# 3 12.0531 45.6600 112.3332 0.0000 0.0000 0.0000
# 4 0.0000 0.0000 0.0000 4.6456 0.0000 0.0000
# 5 0.0000 0.0000 0.0000 0.0000 15.7442 0.0000
# 6 0.0000 0.0000 0.0000 0.0000 0.0000 17.6216
#
#
#
# Elastic Compliance Matrix: (Units=1/GPa)
#
#
# Indices 1 2 3 4 5 6 
#
# 1 0.030904 -0.000164 -0.003249 0.000000 0.000000 0.000000
# 2 -0.000164 0.012284 -0.004976 0.000000 0.000000 0.000000
# 3 -0.003249 -0.004976 0.011273 0.000000 0.000000 0.000000
# 4 0.000000 0.000000 0.000000 0.215255 0.000000 0.000000
# 5 0.000000 0.000000 0.000000 0.000000 0.063516 0.000000
# 6 0.000000 0.000000 0.000000 0.000000 0.000000 0.056749
#
#
# Mechanical properties :
#
#
# Convention : Reuss Voigt Hill
#
# Bulk Modulus (GPa) = 26.53662 41.33832 33.93747
# Shear Modulus (GPa) = 11.92405 19.79635 15.86020
#
# Velocity S-wave (km/s) = 2.60452 3.35589 3.00379
# Velocity P-wave (km/s) = 4.91336 6.20750 5.59795
#
# Compressibility (1/GPa) = 0.03768377
#
# Stress axis : x y z
#
# Youngs Moduli (GPa) = 32.35817 81.40356 88.70619
#
# Poissons Ratio (x) = 0.01336 0.28823
# Poissons Ratio (y) = 0.00531 0.44137
# Poissons Ratio (z) = 0.10514 0.40504
#
# Static dielectric constant tensor:
#      x y z
#    x 1.644010 0.000000 0.000000 
#    y 0.000000 1.618360 0.000000 
#    z 0.000000 0.000000 1.586560 
# 
# From -- ./inp_files/60899.got.cif
#   From: 2010.05.17/outbox.cif.g08.bks.cpg/sg65_31_cif.got.tgz:60899.got - 2010.06.03 17:01:31.
