data_PCOD9487648
_publ_section_title
;
Structure prediction by ZEFSAII (Michael W. Deem and Ramdas Pophale) SiO2 
 PCOD9487648
Probable space group: C M M M
;
_chemical_formula_sum "Si O2"
_cell_formula_units_Z 88
_cell_length_a 15.571609
_cell_length_b 20.277772
_cell_length_c 14.969283
_cell_angle_alpha 90.000000
_cell_angle_beta 90.000000
_cell_angle_gamma 90.000000
_cell_volume 4726.663930
_symmetry_space_group_name_H-M "C M M M"
_symmetry_group_IT_number 65
_symmetry_cell_setting 'orthorhombic'
loop_
_space_group_symop_operation_xyz
x,y,z
-x,-y,z
x,-y,-z
-x,y,-z
-x,-y,-z
x,y,-z
-x,y,z
x,-y,z
1/2+x,1/2+y,z
1/2-x,1/2-y,z
1/2+x,1/2-y,-z
1/2-x,1/2+y,-z
1/2-x,1/2-y,-z
1/2+x,1/2+y,-z
1/2-x,1/2+y,z
1/2+x,1/2-y,z
loop_
_atom_site_type_symbol
_atom_site_label
_atom_site_fract_x
_atom_site_fract_y
_atom_site_fract_z
Si Si1 0.844730 0.926481 0.735768
Si Si2 0.843452 0.220461 0.790800
Si Si3 0.000000 0.755464 0.342883
Si Si4 0.396954 0.166664 0.901042
Si Si5 0.500000 0.110155 0.600879
Si Si6 0.850184 0.425732 0.735940
Si Si7 0.500000 0.401852 0.601651
O O1 0.851063 0.859046 0.793717
O O2 0.747137 0.922239 0.700737
O O3 0.916342 0.922309 0.658685
O O4 0.853619 0.000000 0.778265
O O5 0.750000 0.250000 0.764343
O O6 0.867305 0.258766 0.881143
O O7 0.915716 0.242862 0.719852
O O8 0.000000 0.689279 0.398487
O O9 0.000000 0.822531 0.397698
O O10 0.500000 0.163460 0.896533
O O11 0.361599 0.122611 0.820042
O O12 0.369370 0.145453 0.000000
O O13 0.500000 0.084842 0.500000
O O14 0.582463 0.089011 0.658302
O O15 0.866036 0.500000 0.768496
O O16 0.500000 0.425400 0.500000
#
# Coordination Sequence:
#
# PCOD9487648 Si02
#       7
#    16  16   8  16   8  16   8
#     4  10  22  37  59  84 115 160 197 240 303 353
#     4  11  18  36  62  83 115 154 195 238 292 351
#     4  10  19  36  58  85 115 151 194 248 297 352
#     4  11  22  38  63  92 117 153 199 243 297 352
#     4  12  22  36  59  87 120 159 198 235 292 361
#     4  11  22  40  58  84 125 160 195 242 294 352
#     4  10  22  38  59  87 114 149 208 267 304 341
#
# _framework density 18.617782999999999
#
# number of rings (size 3 to 8) (size 9 to 14) (size 15 to 20)
#    0.000    1.273    5.455    0.818    0.000    2.909 
#    0.000    2.727    0.000    6.545    0.000    1.273 
#    0.000    0.000    0.000    0.000    0.000    0.000 
#
# Total GULP energy -245285.741873 kJ/mol
# GULP energy per Si atom -5574.675952 kJ/mol
# Density = 1.857541 g / cm^3
# Si number density = 18.617783 Si / 1000 Ang^3
#
#
#
# Elastic Constant Matrix: (Units=GPa)
#
#
# Indices 1 2 3 4 5 6 
#
# 1 131.7240 27.6651 56.3258 0.0000 0.0000 0.0000
# 2 27.6651 143.5421 38.4655 0.0000 0.0000 0.0000
# 3 56.3258 38.4655 107.7074 0.0000 0.0000 0.0000
# 4 0.0000 0.0000 0.0000 -0.9378 0.0000 0.0000
# 5 0.0000 0.0000 0.0000 0.0000 2.4229 0.0000
# 6 0.0000 0.0000 0.0000 0.0000 0.0000 23.9625
#
#
#
# Elastic Compliance Matrix: (Units=1/GPa)
#
#
# Indices 1 2 3 4 5 6 
#
# 1 0.009820 -0.000571 -0.004932 0.000000 0.000000 0.000000
# 2 -0.000571 0.007737 -0.002464 0.000000 0.000000 0.000000
# 3 -0.004932 -0.002464 0.012744 0.000000 0.000000 0.000000
# 4 0.000000 0.000000 0.000000 -1.066373 0.000000 0.000000
# 5 0.000000 0.000000 0.000000 0.000000 0.412723 0.000000
# 6 0.000000 0.000000 0.000000 0.000000 0.000000 0.041732
#
#
# Mechanical properties :
#
#
# Convention : Reuss Voigt Hill
#
# Bulk Modulus (GPa) = 69.60609 69.76513 69.68561
# Shear Modulus (GPa) = -8.91434 22.45734 6.77150
#
# Velocity S-wave (km/s) = -2.19054 3.47685 1.90919
# Velocity P-wave (km/s) = 5.57405 7.32609 6.50929
#
# Compressibility (1/GPa) = 0.01436656
#
# Stress axis : x y z
#
# Youngs Moduli (GPa) = 101.82923 129.24759 78.47114
#
# Poissons Ratio (x) = 0.07382 0.38699
# Poissons Ratio (y) = 0.05816 0.19339
# Poissons Ratio (z) = 0.50218 0.31853
#
# Static dielectric constant tensor:
#      x y z
#    x 1.652580 0.000000 0.000000 
#    y 0.000000 1.700820 0.000000 
#    z 0.000000 0.000000 1.616220 
# 
# From -- ./inp_files/40260.got.cif
#   From: 2010.05.17/outbox.cif.g08.bks.cpg/sg65_21_cif.got.tgz:40260.got - 2010.06.03 17:01:31.
