data_PCOD9487487
_publ_section_title
;
Structure prediction by ZEFSAII (Michael W. Deem and Ramdas Pophale) SiO2 
 PCOD9487487
Probable space group: C M M M
;
_chemical_formula_sum "Si O2"
_cell_formula_units_Z 88
_cell_length_a 23.755057
_cell_length_b 7.706091
_cell_length_c 24.074553
_cell_angle_alpha 90.000000
_cell_angle_beta 90.000000
_cell_angle_gamma 90.000000
_cell_volume 4407.054713
_symmetry_space_group_name_H-M "C M M M"
_symmetry_group_IT_number 65
_symmetry_cell_setting 'orthorhombic'
loop_
_space_group_symop_operation_xyz
x,y,z
-x,-y,z
x,-y,-z
-x,y,-z
-x,-y,-z
x,y,-z
-x,y,z
x,-y,z
1/2+x,1/2+y,z
1/2-x,1/2-y,z
1/2+x,1/2-y,-z
1/2-x,1/2+y,-z
1/2-x,1/2-y,-z
1/2+x,1/2+y,-z
1/2-x,1/2+y,z
1/2+x,1/2-y,z
loop_
_atom_site_type_symbol
_atom_site_label
_atom_site_fract_x
_atom_site_fract_y
_atom_site_fract_z
Si Si1 0.000000 0.198273 0.659651
Si Si2 0.379328 0.804534 0.171298
Si Si3 0.116797 0.697648 0.614695
Si Si4 0.564117 0.292987 0.062201
Si Si5 0.432841 0.786253 0.500000
Si Si6 0.815670 0.709639 0.720522
Si Si7 0.000000 0.801572 0.209071
O O1 0.055049 0.298410 0.641363
O O2 0.000000 0.185479 0.725247
O O3 0.000000 0.000000 0.637179
O O4 0.388436 0.740797 0.108381
O O5 0.343759 0.721661 0.222018
O O6 0.443394 0.793138 0.192346
O O7 0.358503 0.000000 0.166645
O O8 0.136607 0.500000 0.605472
O O9 0.102249 0.773102 0.554094
O O10 0.156051 0.776829 0.663089
O O11 0.500000 0.230608 0.076969
O O12 0.560119 0.500000 0.058932
O O13 0.576763 0.226878 0.000000
O O14 0.500000 0.735820 0.500000
O O15 0.434002 0.000000 0.500000
O O16 0.824780 0.500000 0.720039
O O17 0.750000 0.750000 0.720664
O O18 0.000000 0.000000 0.185899
#
# Coordination Sequence:
#
# PCOD9487487 Si02
#       7
#     8  16  16  16   8  16   8
#     4  11  21  30  48  80 111 142 171 210 270 325
#     4  11  21  33  53  81 108 137 177 225 270 311
#     4  10  19  35  55  78 108 141 179 218 260 317
#     4   9  18  32  50  77 115 152 179 205 252 319
#     4   9  16  28  55  84 106 142 178 208 255 320
#     4  10  23  39  56  76 103 138 180 231 274 314
#     4  11  21  31  47  77 111 142 173 209 266 333
#
# _framework density 19.967986
#
# number of rings (size 3 to 8) (size 9 to 14) (size 15 to 20)
#    0.000    1.909    3.636    1.636    0.000    3.273 
#    0.000    2.273    0.000    0.545    0.000    0.000 
#    0.000    0.000    0.000    0.000    0.000    0.000 
#
# Total GULP energy -245005.968344 kJ/mol
# GULP energy per Si atom -5568.317462 kJ/mol
# Density = 1.992254 g / cm^3
# Si number density = 19.967986 Si / 1000 Ang^3
#
#
#
# Elastic Constant Matrix: (Units=GPa)
#
#
# Indices 1 2 3 4 5 6 
#
# 1 102.3333 -12.9831 70.7668 0.0000 0.0000 0.0000
# 2 -12.9831 39.8386 8.2710 0.0000 0.0000 0.0000
# 3 70.7668 8.2710 203.4813 0.0000 0.0000 0.0000
# 4 0.0000 0.0000 0.0000 12.7288 0.0000 0.0000
# 5 0.0000 0.0000 0.0000 0.0000 20.9820 0.0000
# 6 0.0000 0.0000 0.0000 0.0000 0.0000 10.7590
#
#
#
# Elastic Compliance Matrix: (Units=1/GPa)
#
#
# Indices 1 2 3 4 5 6 
#
# 1 0.014015 0.005627 -0.005103 0.000000 0.000000 0.000000
# 2 0.005627 0.027574 -0.003078 0.000000 0.000000 0.000000
# 3 -0.005103 -0.003078 0.006814 0.000000 0.000000 0.000000
# 4 0.000000 0.000000 0.000000 0.078562 0.000000 0.000000
# 5 0.000000 0.000000 0.000000 0.000000 0.047660 0.000000
# 6 0.000000 0.000000 0.000000 0.000000 0.000000 0.092945
#
#
# Mechanical properties :
#
#
# Convention : Reuss Voigt Hill
#
# Bulk Modulus (GPa) = 23.09726 53.08472 38.09099
# Shear Modulus (GPa) = 17.41500 27.53386 22.47443
#
# Velocity S-wave (km/s) = 2.95642 3.71738 3.35852
# Velocity P-wave (km/s) = 4.82142 6.71326 5.84440
#
# Compressibility (1/GPa) = 0.04329517
#
# Stress axis : x y z
#
# Youngs Moduli (GPa) = 71.35460 36.26618 146.75307
#
# Poissons Ratio (x) = -0.20406 0.74883
# Poissons Ratio (y) = -0.40149 0.45165
# Poissons Ratio (z) = 0.36410 0.11161
#
# Static dielectric constant tensor:
#      x y z
#    x 1.637880 0.000000 0.000000 
#    y 0.000000 1.781590 0.000000 
#    z 0.000000 0.000000 1.804280 
# 
# From -- ./inp_files/71114.got.cif
#   From: 2010.05.17/outbox.cif.g08.bks.cpg/sg65_36_cif.got.tgz:71114.got - 2010.06.03 17:01:31.
