data_PCOD9487074
_publ_section_title
;
Structure prediction by ZEFSAII (Michael W. Deem and Ramdas Pophale) SiO2 
 PCOD9487074
Probable space group: C M M M
;
_chemical_formula_sum "Si O2"
_cell_formula_units_Z 72
_cell_length_a 15.417973
_cell_length_b 14.012481
_cell_length_c 17.756062
_cell_angle_alpha 90.000000
_cell_angle_beta 90.000000
_cell_angle_gamma 90.000000
_cell_volume 3836.091613
_symmetry_space_group_name_H-M "C M M M"
_symmetry_group_IT_number 65
_symmetry_cell_setting 'orthorhombic'
loop_
_space_group_symop_operation_xyz
x,y,z
-x,-y,z
x,-y,-z
-x,y,-z
-x,-y,-z
x,y,-z
-x,y,z
x,-y,z
1/2+x,1/2+y,z
1/2-x,1/2-y,z
1/2+x,1/2-y,-z
1/2-x,1/2+y,-z
1/2-x,1/2-y,-z
1/2+x,1/2+y,-z
1/2-x,1/2+y,z
1/2+x,1/2-y,z
loop_
_atom_site_type_symbol
_atom_site_label
_atom_site_fract_x
_atom_site_fract_y
_atom_site_fract_z
Si Si1 0.648571 0.727539 0.915958
Si Si2 0.000000 0.612584 0.590228
Si Si3 0.103312 0.894397 0.225719
Si Si4 0.343577 0.221311 0.671039
Si Si5 0.900359 0.389934 0.191981
O O1 0.750000 0.750000 0.920027
O O2 0.635974 0.645613 0.854117
O O3 0.606014 0.821966 0.880036
O O4 0.616642 0.705385 0.000000
O O5 0.085585 0.669079 0.619167
O O6 0.000000 0.500000 0.615077
O O7 0.000000 0.612445 0.500000
O O8 0.122308 0.818697 0.291166
O O9 0.000000 0.898518 0.218989
O O10 0.137692 0.000000 0.241567
O O11 0.250000 0.250000 0.638022
O O12 0.336639 0.151167 0.744010
O O13 0.883351 0.500000 0.175427
O O14 0.000000 0.381345 0.221126
#
# Coordination Sequence:
#
# PCOD9487074 Si02
#       5
#    16   8  16  16  16
#     4  10  21  34  47  70 108 150 196 255 312 361
#     4  11  24  44  69  97 130 163 197 241 295 359
#     4  10  20  35  56  81 110 150 199 248 299 352
#     4  11  21  37  64  92 123 159 199 247 296 352
#     4  10  19  33  56  83 112 150 200 255 307 361
#
# _framework density 18.769103000000001
#
# number of rings (size 3 to 8) (size 9 to 14) (size 15 to 20)
#    0.000    1.667    2.222    5.333    0.000    7.556 
#    0.000    4.444    0.000    1.333    0.000    0.000 
#    0.000    0.000    0.000    0.000    0.000    0.000 
#
# Total GULP energy -200849.721636 kJ/mol
# GULP energy per Si atom -5579.158934 kJ/mol
# Density = 1.872638 g / cm^3
# Si number density = 18.769103 Si / 1000 Ang^3
#
#
#
# Elastic Constant Matrix: (Units=GPa)
#
#
# Indices 1 2 3 4 5 6 
#
# 1 98.3711 35.1513 31.8721 0.0000 0.0000 0.0000
# 2 35.1513 154.6479 48.3647 0.0000 0.0000 0.0000
# 3 31.8721 48.3647 87.3527 0.0000 0.0000 0.0000
# 4 0.0000 0.0000 0.0000 13.4284 0.0000 0.0000
# 5 0.0000 0.0000 0.0000 0.0000 23.1503 0.0000
# 6 0.0000 0.0000 0.0000 0.0000 0.0000 7.1560
#
#
#
# Elastic Compliance Matrix: (Units=1/GPa)
#
#
# Indices 1 2 3 4 5 6 
#
# 1 0.011856 -0.001623 -0.003427 0.000000 0.000000 0.000000
# 2 -0.001623 0.008043 -0.003861 0.000000 0.000000 0.000000
# 3 -0.003427 -0.003861 0.014836 0.000000 0.000000 0.000000
# 4 0.000000 0.000000 0.000000 0.074469 0.000000 0.000000
# 5 0.000000 0.000000 0.000000 0.000000 0.043196 0.000000
# 6 0.000000 0.000000 0.000000 0.000000 0.000000 0.139742
#
#
# Mechanical properties :
#
#
# Convention : Reuss Voigt Hill
#
# Bulk Modulus (GPa) = 59.12803 63.46089 61.29446
# Shear Modulus (GPa) = 15.84276 23.74585 19.79431
#
# Velocity S-wave (km/s) = 2.90847 3.56076 3.25102
# Velocity P-wave (km/s) = 6.54600 7.12672 6.84253
#
# Compressibility (1/GPa) = 0.01691245
#
# Stress axis : x y z
#
# Youngs Moduli (GPa) = 84.34573 124.33731 67.40388
#
# Poissons Ratio (x) = 0.20180 0.23101
# Poissons Ratio (y) = 0.13689 0.26023
# Poissons Ratio (z) = 0.28907 0.48004
#
# Static dielectric constant tensor:
#      x y z
#    x 1.664410 0.000000 0.000000 
#    y 0.000000 1.633560 0.000000 
#    z 0.000000 0.000000 1.647400 
# 
# From -- ./inp_files/52705.got.cif
#   From: 2010.05.17/outbox.cif.g08.bks.cpg/sg65_27_cif.got.tgz:52705.got - 2010.06.03 17:01:31.
