data_PCOD9487275
_publ_section_title
;
Structure prediction by ZEFSAII (Michael W. Deem and Ramdas Pophale) SiO2 
 PCOD9487275
Probable space group: C M M M
;
_chemical_formula_sum "Si O2"
_cell_formula_units_Z 92
_cell_length_a 23.531897
_cell_length_b 14.435218
_cell_length_c 13.099587
_cell_angle_alpha 90.000000
_cell_angle_beta 90.000000
_cell_angle_gamma 90.000000
_cell_volume 4449.773336
_symmetry_space_group_name_H-M "C M M M"
_symmetry_group_IT_number 65
_symmetry_cell_setting 'orthorhombic'
loop_
_space_group_symop_operation_xyz
x,y,z
-x,-y,z
x,-y,-z
-x,y,-z
-x,-y,-z
x,y,-z
-x,y,z
x,-y,z
1/2+x,1/2+y,z
1/2-x,1/2-y,z
1/2+x,1/2-y,-z
1/2-x,1/2+y,-z
1/2-x,1/2-y,-z
1/2+x,1/2+y,-z
1/2-x,1/2+y,z
1/2+x,1/2-y,z
loop_
_atom_site_type_symbol
_atom_site_label
_atom_site_fract_x
_atom_site_fract_y
_atom_site_fract_z
Si Si1 0.153478 0.389717 0.773226
Si Si2 0.500000 0.235235 0.000000
Si Si3 0.121900 0.329700 0.000000
Si Si4 0.220633 0.107865 0.773556
Si Si5 0.500000 0.601905 0.839241
Si Si6 0.398789 0.606604 0.677372
Si Si7 0.702245 0.330024 0.000000
Si Si8 0.433329 0.800675 0.386439
O O1 0.151486 0.500000 0.756027
O O2 0.143886 0.372563 0.894200
O O3 0.217135 0.351283 0.750378
O O4 0.106304 0.342587 0.701993
O O5 0.445284 0.171350 0.000000
O O6 0.500000 0.306379 0.906031
O O7 0.142548 0.223013 0.000000
O O8 0.163796 0.137087 0.715305
O O9 0.209777 0.116795 0.894672
O O10 0.225855 0.000000 0.748854
O O11 0.500000 0.500000 0.889811
O O12 0.443310 0.604209 0.770776
O O13 0.396726 0.500000 0.637328
O O14 0.422321 0.690258 0.610554
O O15 0.750000 0.250000 0.000000
O O16 0.420464 0.838738 0.500000
O O17 0.500000 0.816651 0.364449
#
# Coordination Sequence:
#
# PCOD9487275 Si02
#       8
#    16   4   8  16   8  16   8  16
#     4  11  24  44  64  89 128 168 214 269 315 365
#     4  12  23  34  49  80 124 162 204 260 300 364
#     4  12  25  37  60  93 125 166 208 256 320 374
#     4  10  21  37  59  89 127 168 211 256 309 371
#     4  10  19  34  55  83 123 167 202 240 299 366
#     4  10  21  38  64  95 126 160 198 249 313 384
#     4  12  19  31  55  88 123 167 213 253 295 368
#     4  11  25  44  68  94 121 162 214 263 317 381
#
# _framework density 20.675208999999999
#
# number of rings (size 3 to 8) (size 9 to 14) (size 15 to 20)
#    0.000    1.217    2.609    3.783    1.217    2.435 
#    0.000    7.391    0.000    3.130    0.000    0.000 
#    0.000    0.000    0.000    0.000    0.000    0.000 
#
# Total GULP energy -256789.733690 kJ/mol
# GULP energy per Si atom -5582.385515 kJ/mol
# Density = 2.062815 g / cm^3
# Si number density = 20.675209 Si / 1000 Ang^3
#
#
#
# Elastic Constant Matrix: (Units=GPa)
#
#
# Indices 1 2 3 4 5 6 
#
# 1 155.5199 25.5316 40.6967 0.0000 0.0000 0.0000
# 2 25.5316 59.8646 21.7394 0.0000 0.0000 0.0000
# 3 40.6967 21.7394 87.6468 0.0000 0.0000 0.0000
# 4 0.0000 0.0000 0.0000 3.4061 0.0000 0.0000
# 5 0.0000 0.0000 0.0000 0.0000 7.6883 0.0000
# 6 0.0000 0.0000 0.0000 0.0000 0.0000 31.6596
#
#
#
# Elastic Compliance Matrix: (Units=1/GPa)
#
#
# Indices 1 2 3 4 5 6 
#
# 1 0.007562 -0.002143 -0.002979 0.000000 0.000000 0.000000
# 2 -0.002143 0.018965 -0.003709 0.000000 0.000000 0.000000
# 3 -0.002979 -0.003709 0.013713 0.000000 0.000000 0.000000
# 4 0.000000 0.000000 0.000000 0.293595 0.000000 0.000000
# 5 0.000000 0.000000 0.000000 0.000000 0.130067 0.000000
# 6 0.000000 0.000000 0.000000 0.000000 0.000000 0.031586
#
#
# Mechanical properties :
#
#
# Convention : Reuss Voigt Hill
#
# Bulk Modulus (GPa) = 44.29341 53.21852 48.75597
# Shear Modulus (GPa) = 9.60291 22.88835 16.24563
#
# Velocity S-wave (km/s) = 2.15748 3.33084 2.80617
# Velocity P-wave (km/s) = 5.26082 6.37093 5.84230
#
# Compressibility (1/GPa) = 0.02257672
#
# Stress axis : x y z
#
# Youngs Moduli (GPa) = 132.24835 52.72815 72.92426
#
# Poissons Ratio (x) = 0.11299 0.21728
# Poissons Ratio (y) = 0.28340 0.27048
# Poissons Ratio (z) = 0.39403 0.19557
#
# Static dielectric constant tensor:
#      x y z
#    x 1.768850 0.000000 0.000000 
#    y 0.000000 1.762020 0.000000 
#    z 0.000000 0.000000 1.762470 
# 
# From -- ./inp_files/44212.got.cif
#   From: 2010.05.17/outbox.cif.g08.bks.cpg/sg65_23_cif.got.tgz:44212.got - 2010.06.03 17:01:31.
