data_PCOD9487137
_publ_section_title
;
Structure prediction by ZEFSAII (Michael W. Deem and Ramdas Pophale) SiO2 
 PCOD9487137
Probable space group: C M M M
;
_chemical_formula_sum "Si O2"
_cell_formula_units_Z 116
_cell_length_a 27.258625
_cell_length_b 29.248941
_cell_length_c 7.624385
_cell_angle_alpha 90.000000
_cell_angle_beta 90.000000
_cell_angle_gamma 90.000000
_cell_volume 6078.814766
_symmetry_space_group_name_H-M "C M M M"
_symmetry_group_IT_number 65
_symmetry_cell_setting 'orthorhombic'
loop_
_space_group_symop_operation_xyz
x,y,z
-x,-y,z
x,-y,-z
-x,y,-z
-x,-y,-z
x,y,-z
-x,y,z
x,-y,z
1/2+x,1/2+y,z
1/2-x,1/2-y,z
1/2+x,1/2-y,-z
1/2-x,1/2+y,-z
1/2-x,1/2-y,-z
1/2+x,1/2+y,-z
1/2-x,1/2+y,z
1/2+x,1/2-y,z
loop_
_atom_site_type_symbol
_atom_site_label
_atom_site_fract_x
_atom_site_fract_y
_atom_site_fract_z
Si Si1 0.845389 0.805240 0.711930
Si Si2 0.500000 0.753516 0.500000
Si Si3 0.247912 0.354165 0.708061
Si Si4 0.553001 0.147357 0.789402
Si Si5 0.907652 0.551086 0.786098
Si Si6 0.551851 0.707354 0.805561
Si Si7 0.846875 0.300016 0.710191
Si Si8 0.705892 0.050683 0.211219
O O1 0.845030 0.805986 0.500000
O O2 0.798772 0.833584 0.777238
O O3 0.899263 0.820765 0.771824
O O4 0.843255 0.752293 0.771365
O O5 0.542573 0.744328 0.653766
O O6 0.248586 0.345180 0.500000
O O7 0.199461 0.328856 0.779895
O O8 0.239844 0.407861 0.732658
O O9 0.500000 0.163877 0.715642
O O10 0.561634 0.094966 0.729077
O O11 0.602127 0.175051 0.749894
O O12 0.549395 0.147072 0.000000
O O13 0.923147 0.500000 0.730242
O O14 0.850786 0.558053 0.732207
O O15 0.908729 0.550986 0.000000
O O16 0.500000 0.680375 0.797456
O O17 0.554689 0.728270 0.000000
O O18 0.842923 0.298706 0.500000
O O19 0.720781 0.000000 0.270946
O O20 0.704895 0.050441 0.000000
#
# Coordination Sequence:
#
# PCOD9487137 Si02
#       8
#    16   4  16  16  16  16  16  16
#     4  10  19  34  51  70 101 138 175 220 269 312
#     4   8  14  32  52  70 106 140 163 222 267 290
#     4  10  20  33  52  76  99 129 170 215 261 317
#     4  10  20  33  49  70  96 126 167 220 268 310
#     4   8  14  27  48  69  90 121 161 207 263 319
#     4   9  17  30  51  76 101 136 178 214 256 311
#     4  10  21  35  50  67  94 134 173 209 265 328
#     4   9  17  31  52  74  98 131 165 204 260 320
#
# _framework density 19.082668000000002
#
# number of rings (size 3 to 8) (size 9 to 14) (size 15 to 20)
#    0.414    2.207    2.069    1.241    0.000    4.138 
#    0.000    4.138    0.000    2.897    0.000    0.966 
#    0.000    0.552    0.000    7.241    0.000    7.172 
#
# Total GULP energy -322924.209402 kJ/mol
# GULP energy per Si atom -5567.658783 kJ/mol
# Density = 1.903923 g / cm^3
# Si number density = 19.082668 Si / 1000 Ang^3
#
#
#
# Elastic Constant Matrix: (Units=GPa)
#
#
# Indices 1 2 3 4 5 6 
#
# 1 172.9619 71.4025 11.9578 0.0000 0.0000 0.0000
# 2 71.4025 68.4570 0.2897 0.0000 0.0000 0.0000
# 3 11.9578 0.2897 58.6841 0.0000 0.0000 0.0000
# 4 0.0000 0.0000 0.0000 8.0109 0.0000 0.0000
# 5 0.0000 0.0000 0.0000 0.0000 17.3238 0.0000
# 6 0.0000 0.0000 0.0000 0.0000 0.0000 26.1905
#
#
#
# Elastic Compliance Matrix: (Units=1/GPa)
#
#
# Indices 1 2 3 4 5 6 
#
# 1 0.010398 -0.010837 -0.002065 0.000000 0.000000 0.000000
# 2 -0.010837 0.025902 0.002080 0.000000 0.000000 0.000000
# 3 -0.002065 0.002080 0.017451 0.000000 0.000000 0.000000
# 4 0.000000 0.000000 0.000000 0.124830 0.000000 0.000000
# 5 0.000000 0.000000 0.000000 0.000000 0.057724 0.000000
# 6 0.000000 0.000000 0.000000 0.000000 0.000000 0.038182
#
#
# Mechanical properties :
#
#
# Convention : Reuss Voigt Hill
#
# Bulk Modulus (GPa) = 31.14540 51.93366 41.53953
# Shear Modulus (GPa) = 16.29557 24.73526 20.51542
#
# Velocity S-wave (km/s) = 2.92541 3.60421 3.28240
# Velocity P-wave (km/s) = 5.26948 6.67792 6.01506
#
# Compressibility (1/GPa) = 0.03210747
#
# Stress axis : x y z
#
# Youngs Moduli (GPa) = 96.17214 38.60727 57.30350
#
# Poissons Ratio (x) = 0.41837 0.11835
# Poissons Ratio (y) = 1.04219 -0.11921
# Poissons Ratio (z) = 0.19862 -0.08031
#
# Static dielectric constant tensor:
#      x y z
#    x 1.705940 0.000000 0.000000 
#    y 0.000000 1.672950 0.000000 
#    z 0.000000 0.000000 1.733920 
# 
# From -- ./inp_files/17043.got.cif
#   From: 2010.05.17/outbox.cif.g08.bks.cpg/sg65_9_cif.got.tgz:17043.got - 2010.06.03 17:01:31.
