data_PCOD9487276
_publ_section_title
;
Structure prediction by ZEFSAII (Michael W. Deem and Ramdas Pophale) SiO2 
 PCOD9487276
Probable space group: C M M M
;
_chemical_formula_sum "Si O2"
_cell_formula_units_Z 88
_cell_length_a 14.305690
_cell_length_b 26.990917
_cell_length_c 12.656915
_cell_angle_alpha 90.000000
_cell_angle_beta 90.000000
_cell_angle_gamma 90.000000
_cell_volume 4887.134742
_symmetry_space_group_name_H-M "C M M M"
_symmetry_group_IT_number 65
_symmetry_cell_setting 'orthorhombic'
loop_
_space_group_symop_operation_xyz
x,y,z
-x,-y,z
x,-y,-z
-x,y,-z
-x,-y,-z
x,y,-z
-x,y,z
x,-y,z
1/2+x,1/2+y,z
1/2-x,1/2-y,z
1/2+x,1/2-y,-z
1/2-x,1/2+y,-z
1/2-x,1/2-y,-z
1/2+x,1/2+y,-z
1/2-x,1/2+y,z
1/2+x,1/2-y,z
loop_
_atom_site_type_symbol
_atom_site_label
_atom_site_fract_x
_atom_site_fract_y
_atom_site_fract_z
Si Si1 0.794827 0.102508 0.807274
Si Si2 0.386332 0.662332 0.000000
Si Si3 0.390693 0.156046 0.801967
Si Si4 0.612732 0.224263 0.000000
Si Si5 0.888231 0.000000 0.128065
Si Si6 0.641454 0.235161 0.621545
Si Si7 0.895865 0.155496 0.376846
O O1 0.683312 0.111391 0.810039
O O2 0.827968 0.124537 0.695742
O O3 0.835198 0.048061 0.827166
O O4 0.844713 0.135562 0.897480
O O5 0.500000 0.658878 0.000000
O O6 0.354625 0.719412 0.000000
O O7 0.500000 0.142221 0.813823
O O8 0.379431 0.188827 0.695820
O O9 0.362589 0.193564 0.896126
O O10 0.500000 0.227480 0.000000
O O11 0.000000 0.000000 0.153195
O O12 0.881419 0.000000 0.000000
O O13 0.613511 0.225614 0.500000
O O14 0.750000 0.250000 0.622740
O O15 0.598336 0.287214 0.659244
O O16 0.867254 0.156756 0.500000
O O17 0.000000 0.134108 0.369747
#
# Coordination Sequence:
#
# PCOD9487276 Si02
#       7
#    16   8  16   8   8  16  16
#     4  12  23  38  61  84 112 149 193 247 298 350
#     4  11  21  34  57  87 115 149 191 235 291 351
#     4  11  23  38  55  82 121 163 200 238 284 342
#     4   9  21  35  49  79 121 154 188 229 278 343
#     4  11  24  44  66  90 112 135 184 253 317 369
#     4  10  19  34  55  85 124 164 204 241 277 329
#     4  10  20  34  55  85 121 157 191 232 287 350
#
# _framework density 18.006460000000001
#
# number of rings (size 3 to 8) (size 9 to 14) (size 15 to 20)
#    0.000    1.364    2.727    3.818    0.000    3.273 
#    0.000    0.909    0.000    2.182    0.000    0.000 
#    0.000    2.909    0.000    0.000    0.000    0.000 
#
# Total GULP energy -245674.665234 kJ/mol
# GULP energy per Si atom -5583.515119 kJ/mol
# Density = 1.796548 g / cm^3
# Si number density = 18.006460 Si / 1000 Ang^3
#
#
#
# Elastic Constant Matrix: (Units=GPa)
#
#
# Indices 1 2 3 4 5 6 
#
# 1 140.4815 62.7990 28.8359 0.0000 0.0000 0.0000
# 2 62.7990 118.6366 35.1120 0.0000 0.0000 0.0000
# 3 28.8359 35.1120 61.5915 0.0000 0.0000 0.0000
# 4 0.0000 0.0000 0.0000 12.5467 0.0000 0.0000
# 5 0.0000 0.0000 0.0000 0.0000 44.8446 0.0000
# 6 0.0000 0.0000 0.0000 0.0000 0.0000 18.7206
#
#
#
# Elastic Compliance Matrix: (Units=1/GPa)
#
#
# Indices 1 2 3 4 5 6 
#
# 1 0.009507 -0.004469 -0.001903 0.000000 0.000000 0.000000
# 2 -0.004469 0.012241 -0.004886 0.000000 0.000000 0.000000
# 3 -0.001903 -0.004886 0.019912 0.000000 0.000000 0.000000
# 4 0.000000 0.000000 0.000000 0.079702 0.000000 0.000000
# 5 0.000000 0.000000 0.000000 0.000000 0.022299 0.000000
# 6 0.000000 0.000000 0.000000 0.000000 0.000000 0.053417
#
#
# Mechanical properties :
#
#
# Convention : Reuss Voigt Hill
#
# Bulk Modulus (GPa) = 52.23645 63.80037 58.01841
# Shear Modulus (GPa) = 22.12623 28.15322 25.13972
#
# Velocity S-wave (km/s) = 3.50922 3.95841 3.74056
# Velocity P-wave (km/s) = 6.74480 7.51005 7.13769
#
# Compressibility (1/GPa) = 0.01914372
#
# Stress axis : x y z
#
# Youngs Moduli (GPa) = 105.18755 81.69400 50.22004
#
# Poissons Ratio (x) = 0.36510 0.09558
# Poissons Ratio (y) = 0.47009 0.24537
# Poissons Ratio (z) = 0.20019 0.39915
#
# Static dielectric constant tensor:
#      x y z
#    x 1.726270 0.000000 0.000000 
#    y 0.000000 1.592570 0.000000 
#    z 0.000000 0.000000 1.618610 
# 
# From -- ./inp_files/25217.got.cif
#   From: 2010.05.17/outbox.cif.g08.bks.cpg/sg65_13_cif.got.tgz:25217.got - 2010.06.03 17:01:31.
