data_PCOD9487965
_publ_section_title
;
Structure prediction by ZEFSAII (Michael W. Deem and Ramdas Pophale) SiO2 
 PCOD9487965
Probable space group: C M M M
;
_chemical_formula_sum "Si O2"
_cell_formula_units_Z 80
_cell_length_a 34.982409
_cell_length_b 14.442218
_cell_length_c 9.028273
_cell_angle_alpha 90.000000
_cell_angle_beta 90.000000
_cell_angle_gamma 90.000000
_cell_volume 4561.296379
_symmetry_space_group_name_H-M "C M M M"
_symmetry_group_IT_number 65
_symmetry_cell_setting 'orthorhombic'
loop_
_space_group_symop_operation_xyz
x,y,z
-x,-y,z
x,-y,-z
-x,y,-z
-x,-y,-z
x,y,-z
-x,y,z
x,-y,z
1/2+x,1/2+y,z
1/2-x,1/2-y,z
1/2+x,1/2-y,-z
1/2-x,1/2+y,-z
1/2-x,1/2-y,-z
1/2+x,1/2+y,-z
1/2-x,1/2+y,z
1/2+x,1/2-y,z
loop_
_atom_site_type_symbol
_atom_site_label
_atom_site_fract_x
_atom_site_fract_y
_atom_site_fract_z
Si Si1 0.846087 0.394721 0.180374
Si Si2 0.261313 0.112619 0.829065
Si Si3 0.316258 0.387970 0.671951
Si Si4 0.044109 0.107649 0.678031
Si Si5 0.386777 0.713396 0.822674
O O1 0.853022 0.500000 0.230641
O O2 0.803570 0.362308 0.227483
O O3 0.877226 0.319005 0.222689
O O4 0.844406 0.397022 0.000000
O O5 0.224850 0.142619 0.735518
O O6 0.261553 0.000000 0.829599
O O7 0.256892 0.142069 0.000000
O O8 0.320258 0.362500 0.500000
O O9 0.317642 0.500000 0.682018
O O10 0.350938 0.346319 0.765026
O O11 0.047514 0.114532 0.500000
O O12 0.074691 0.173146 0.754230
O O13 0.000000 0.127986 0.717285
O O14 0.051796 0.000000 0.717348
O O15 0.388415 0.708744 0.000000
#
# Coordination Sequence:
#
# PCOD9487965 Si02
#       5
#    16  16  16  16  16
#     4   8  16  32  51  70  95 129 167 206 248 289
#     4   8  14  28  49  67  87 123 170 212 245 281
#     4  10  20  32  45  65  99 137 166 198 245 297
#     4   9  19  37  58  77 101 133 160 184 228 292
#     4  11  21  31  50  78 101 124 160 205 245 284
#
# _framework density 17.538875000000001
#
# number of rings (size 3 to 8) (size 9 to 14) (size 15 to 20)
#    0.000    2.800    0.000    3.600    0.000    5.200 
#    0.000    7.000    0.000    5.400    0.000    4.200 
#    0.000    0.000    0.000    0.000    0.000    0.000 
#
# Total GULP energy -223155.173827 kJ/mol
# GULP energy per Si atom -5578.879346 kJ/mol
# Density = 1.749896 g / cm^3
# Si number density = 17.538875 Si / 1000 Ang^3
#
#
#
# Elastic Constant Matrix: (Units=GPa)
#
#
# Indices 1 2 3 4 5 6 
#
# 1 139.9899 83.1449 46.4400 0.0000 0.0000 0.0000
# 2 83.1449 94.6270 34.6469 0.0000 0.0000 0.0000
# 3 46.4400 34.6469 37.6257 0.0000 0.0000 0.0000
# 4 0.0000 0.0000 0.0000 11.1459 0.0000 0.0000
# 5 0.0000 0.0000 0.0000 0.0000 38.7521 0.0000
# 6 0.0000 0.0000 0.0000 0.0000 0.0000 28.5643
#
#
#
# Elastic Compliance Matrix: (Units=1/GPa)
#
#
# Indices 1 2 3 4 5 6 
#
# 1 0.017645 -0.011360 -0.011318 0.000000 0.000000 0.000000
# 2 -0.011360 0.023257 -0.007394 0.000000 0.000000 0.000000
# 3 -0.011318 -0.007394 0.047356 0.000000 0.000000 0.000000
# 4 0.000000 0.000000 0.000000 0.089719 0.000000 0.000000
# 5 0.000000 0.000000 0.000000 0.000000 0.025805 0.000000
# 6 0.000000 0.000000 0.000000 0.000000 0.000000 0.035009
#
#
# Mechanical properties :
#
#
# Convention : Reuss Voigt Hill
#
# Bulk Modulus (GPa) = 35.57065 66.74511 51.15788
# Shear Modulus (GPa) = 16.21766 22.89320 19.55543
#
# Velocity S-wave (km/s) = 3.04414 3.61679 3.34275
# Velocity P-wave (km/s) = 5.71671 7.45518 6.64306
#
# Compressibility (1/GPa) = 0.02811307
#
# Stress axis : x y z
#
# Youngs Moduli (GPa) = 56.67290 42.99827 21.11671
#
# Poissons Ratio (x) = 0.48846 0.23900
# Poissons Ratio (y) = 0.64381 0.15614
# Poissons Ratio (z) = 0.64143 0.31794
#
# Static dielectric constant tensor:
#      x y z
#    x 1.577280 0.000000 0.000000 
#    y 0.000000 1.633000 0.000000 
#    z 0.000000 0.000000 1.583620 
# 
# From -- ./inp_files/18181.got.cif
#   From: 2010.05.17/outbox.cif.g08.bks.cpg/sg65_10_cif.got.tgz:18181.got - 2010.06.03 17:01:31.
