data_PCOD9487642
_publ_section_title
;
Structure prediction by ZEFSAII (Michael W. Deem and Ramdas Pophale) SiO2 
 PCOD9487642
Probable space group: C M M M
;
_chemical_formula_sum "Si O2"
_cell_formula_units_Z 88
_cell_length_a 16.851473
_cell_length_b 18.192867
_cell_length_c 12.994181
_cell_angle_alpha 90.000000
_cell_angle_beta 90.000000
_cell_angle_gamma 90.000000
_cell_volume 3983.711922
_symmetry_space_group_name_H-M "C M M M"
_symmetry_group_IT_number 65
_symmetry_cell_setting 'orthorhombic'
loop_
_space_group_symop_operation_xyz
x,y,z
-x,-y,z
x,-y,-z
-x,y,-z
-x,-y,-z
x,y,-z
-x,y,z
x,-y,z
1/2+x,1/2+y,z
1/2-x,1/2-y,z
1/2+x,1/2-y,-z
1/2-x,1/2+y,-z
1/2-x,1/2-y,-z
1/2+x,1/2+y,-z
1/2-x,1/2+y,z
1/2+x,1/2-y,z
loop_
_atom_site_type_symbol
_atom_site_label
_atom_site_fract_x
_atom_site_fract_y
_atom_site_fract_z
Si Si1 0.621896 0.789026 0.887425
Si Si2 0.596681 0.000000 0.710224
Si Si3 0.588799 0.161394 0.337382
Si Si4 0.292210 0.346959 0.168368
Si Si5 0.656154 0.681694 0.383723
Si Si6 0.234867 0.500000 0.881196
Si Si7 0.000000 0.084615 0.623549
O O1 0.585222 0.825029 0.786537
O O2 0.634021 0.701967 0.868467
O O3 0.711928 0.818353 0.883831
O O4 0.588501 0.804120 0.000000
O O5 0.614277 0.923460 0.650900
O O6 0.500000 0.000000 0.732314
O O7 0.656447 0.000000 0.808442
O O8 0.500000 0.167667 0.379052
O O9 0.635678 0.231643 0.380005
O O10 0.284488 0.334971 0.290829
O O11 0.290493 0.431098 0.142237
O O12 0.680638 0.662614 0.500000
O O13 0.578217 0.633231 0.354082
O O14 0.209566 0.500000 0.000000
O O15 0.000000 0.078410 0.500000
O O16 0.000000 0.000000 0.663972
#
# Coordination Sequence:
#
# PCOD9487642 Si02
#       7
#    16   8  16  16  16   8   8
#     4  10  19  36  57  79 112 154 197 243 297 356
#     4  10  22  37  57  84 122 159 204 254 291 336
#     4  10  20  36  58  86 118 156 201 249 296 352
#     4  10  21  34  55  85 113 148 195 243 292 358
#     4  10  21  39  63  87 114 151 195 248 306 363
#     4  12  22  37  61  86 121 163 200 243 300 359
#     4   9  18  34  60  87 109 139 184 238 302 358
#
# _framework density 22.089950999999999
#
# number of rings (size 3 to 8) (size 9 to 14) (size 15 to 20)
#    0.000    1.909    2.727    2.182    1.273    0.545 
#    0.000    9.545    0.000    2.727    0.000    0.636 
#    0.000    0.000    0.000    0.000    0.000    0.000 
#
# Total GULP energy -245490.998502 kJ/mol
# GULP energy per Si atom -5579.340875 kJ/mol
# Density = 2.203967 g / cm^3
# Si number density = 22.089951 Si / 1000 Ang^3
#
#
#
# Elastic Constant Matrix: (Units=GPa)
#
#
# Indices 1 2 3 4 5 6 
#
# 1 41.3323 21.5824 9.7955 0.0000 0.0000 0.0000
# 2 21.5824 178.2221 4.3248 0.0000 0.0000 0.0000
# 3 9.7955 4.3248 121.0409 0.0000 0.0000 0.0000
# 4 0.0000 0.0000 0.0000 -2.6448 0.0000 0.0000
# 5 0.0000 0.0000 0.0000 0.0000 2.8257 0.0000
# 6 0.0000 0.0000 0.0000 0.0000 0.0000 11.0071
#
#
#
# Elastic Compliance Matrix: (Units=1/GPa)
#
#
# Indices 1 2 3 4 5 6 
#
# 1 0.026310 -0.003137 -0.002017 0.000000 0.000000 0.000000
# 2 -0.003137 0.005990 0.000040 0.000000 0.000000 0.000000
# 3 -0.002017 0.000040 0.008423 0.000000 0.000000 0.000000
# 4 0.000000 0.000000 0.000000 -0.378100 0.000000 0.000000
# 5 0.000000 0.000000 0.000000 0.000000 0.353893 0.000000
# 6 0.000000 0.000000 0.000000 0.000000 0.000000 0.090850
#
#
# Mechanical properties :
#
#
# Convention : Reuss Voigt Hill
#
# Bulk Modulus (GPa) = 32.79246 45.77785 39.28516
# Shear Modulus (GPa) = 39.13558 22.56379 30.84969
#
# Velocity S-wave (km/s) = 4.21366 3.19948 3.74110
# Velocity P-wave (km/s) = 6.20890 5.86662 6.04019
#
# Compressibility (1/GPa) = 0.03049482
#
# Stress axis : x y z
#
# Youngs Moduli (GPa) = 38.00792 166.94716 118.71573
#
# Poissons Ratio (x) = 0.52375 0.23946
# Poissons Ratio (y) = 0.11924 -0.00473
# Poissons Ratio (z) = 0.07667 -0.00666
#
# Static dielectric constant tensor:
#      x y z
#    x 1.840830 0.000000 0.000000 
#    y 0.000000 1.940300 0.000000 
#    z 0.000000 0.000000 1.813600 
# 
# From -- ./inp_files/42579.got.cif
#   From: 2010.05.17/outbox.cif.g08.bks.cpg/sg65_22_cif.got.tgz:42579.got - 2010.06.03 17:01:31.
