data_PCOD9487170
_publ_section_title
;
Structure prediction by ZEFSAII (Michael W. Deem and Ramdas Pophale) SiO2 
 PCOD9487170
Probable space group: C M M M
;
_chemical_formula_sum "Si O2"
_cell_formula_units_Z 100
_cell_length_a 15.120726
_cell_length_b 17.518235
_cell_length_c 20.316872
_cell_angle_alpha 90.000000
_cell_angle_beta 90.000000
_cell_angle_gamma 90.000000
_cell_volume 5381.704356
_symmetry_space_group_name_H-M "C M M M"
_symmetry_group_IT_number 65
_symmetry_cell_setting 'orthorhombic'
loop_
_space_group_symop_operation_xyz
x,y,z
-x,-y,z
x,-y,-z
-x,y,-z
-x,-y,-z
x,y,-z
-x,y,z
x,-y,z
1/2+x,1/2+y,z
1/2-x,1/2-y,z
1/2+x,1/2-y,-z
1/2-x,1/2+y,-z
1/2-x,1/2-y,-z
1/2+x,1/2+y,-z
1/2-x,1/2+y,z
1/2+x,1/2-y,z
loop_
_atom_site_type_symbol
_atom_site_label
_atom_site_fract_x
_atom_site_fract_y
_atom_site_fract_z
Si Si1 0.811620 0.824958 0.926548
Si Si2 0.000000 0.649414 0.000000
Si Si3 0.399994 0.591780 0.577197
Si Si4 0.266158 0.340389 0.318839
Si Si5 0.640955 0.914214 0.097678
Si Si6 0.902017 0.812779 0.208782
Si Si7 0.099839 0.367672 0.244022
O O1 0.750000 0.750000 0.918508
O O2 0.741872 0.893630 0.918319
O O3 0.880550 0.824579 0.867590
O O4 0.850127 0.824381 0.000000
O O5 0.922756 0.642064 0.057479
O O6 0.388901 0.610697 0.500000
O O7 0.500000 0.616619 0.596955
O O8 0.397316 0.500000 0.582886
O O9 0.323544 0.626985 0.621701
O O10 0.250000 0.250000 0.329383
O O11 0.326252 0.349290 0.253415
O O12 0.172599 0.378563 0.300614
O O13 0.625080 0.907270 0.175458
O O14 0.617785 0.000000 0.076510
O O15 0.898455 0.722647 0.225653
O O16 0.000000 0.841010 0.225007
O O17 0.000000 0.388361 0.262970
#
# Coordination Sequence:
#
# PCOD9487170 Si02
#       7
#    16   4  16  16  16  16  16
#     4  11  21  35  50  70 100 133 178 229 277 330
#     4  12  25  36  50  76 104 138 179 232 297 342
#     4   9  19  37  61  90 121 150 185 230 275 322
#     4  10  19  34  57  82 117 150 184 227 276 326
#     4  12  22  34  51  71 101 136 174 225 281 333
#     4  10  19  34  53  76 106 139 179 227 279 329
#     4  10  20  34  52  76 109 144 178 221 273 327
#
# _framework density 18.581474
#
# number of rings (size 3 to 8) (size 9 to 14) (size 15 to 20)
#    0.000    1.600    4.800    2.160    0.000    1.920 
#    0.000    0.000    0.000    0.960    0.000    2.240 
#    0.000    0.000    0.000    0.000    0.000    0.000 
#
# Total GULP energy -278649.611920 kJ/mol
# GULP energy per Si atom -5572.992238 kJ/mol
# Density = 1.853918 g / cm^3
# Si number density = 18.581474 Si / 1000 Ang^3
#
#
#
# Elastic Constant Matrix: (Units=GPa)
#
#
# Indices 1 2 3 4 5 6 
#
# 1 110.9484 20.6257 64.4449 0.0000 0.0000 0.0000
# 2 20.6257 15.2170 18.6534 0.0000 0.0000 0.0000
# 3 64.4449 18.6534 107.0223 0.0000 0.0000 0.0000
# 4 0.0000 0.0000 0.0000 135.6925 0.0000 0.0000
# 5 0.0000 0.0000 0.0000 0.0000 38.3491 0.0000
# 6 0.0000 0.0000 0.0000 0.0000 0.0000 12.2429
#
#
#
# Elastic Compliance Matrix: (Units=1/GPa)
#
#
# Indices 1 2 3 4 5 6 
#
# 1 0.015440 -0.012120 -0.007185 0.000000 0.000000 0.000000
# 2 -0.012120 0.093086 -0.008926 0.000000 0.000000 0.000000
# 3 -0.007185 -0.008926 0.015226 0.000000 0.000000 0.000000
# 4 0.000000 0.000000 0.000000 0.007370 0.000000 0.000000
# 5 0.000000 0.000000 0.000000 0.000000 0.026076 0.000000
# 6 0.000000 0.000000 0.000000 0.000000 0.000000 0.081680
#
#
# Mechanical properties :
#
#
# Convention : Reuss Voigt Hill
#
# Bulk Modulus (GPa) = 14.86116 48.95951 31.91034
# Shear Modulus (GPa) = 15.73471 45.88781 30.81126
#
# Velocity S-wave (km/s) = 2.91313 4.97484 4.07648
# Velocity P-wave (km/s) = 4.39663 7.70743 6.27435
#
# Compressibility (1/GPa) = 0.06728949
#
# Stress axis : x y z
#
# Youngs Moduli (GPa) = 64.76820 10.74279 65.67734
#
# Poissons Ratio (x) = 0.13021 0.47187
# Poissons Ratio (y) = 0.78501 0.58623
# Poissons Ratio (z) = 0.46534 0.09589
#
# Static dielectric constant tensor:
#      x y z
#    x 1.661120 0.000000 0.000000 
#    y 0.000000 1.671980 0.000000 
#    z 0.000000 0.000000 1.624120 
# 
# From -- ./inp_files/53290.got.cif
#   From: 2010.05.17/outbox.cif.g08.bks.cpg/sg65_27_cif.got.tgz:53290.got - 2010.06.03 17:01:31.
