data_PCOD9487018
_publ_section_title
;
Structure prediction by ZEFSAII (Michael W. Deem and Ramdas Pophale) SiO2 
 PCOD9487018
Probable space group: C M M M
;
_chemical_formula_sum "Si O2"
_cell_formula_units_Z 88
_cell_length_a 27.463698
_cell_length_b 16.806386
_cell_length_c 9.075270
_cell_angle_alpha 90.000000
_cell_angle_beta 90.000000
_cell_angle_gamma 90.000000
_cell_volume 4188.831622
_symmetry_space_group_name_H-M "C M M M"
_symmetry_group_IT_number 65
_symmetry_cell_setting 'orthorhombic'
loop_
_space_group_symop_operation_xyz
x,y,z
-x,-y,z
x,-y,-z
-x,y,-z
-x,-y,-z
x,y,-z
-x,y,z
x,-y,z
1/2+x,1/2+y,z
1/2-x,1/2-y,z
1/2+x,1/2-y,-z
1/2-x,1/2+y,-z
1/2-x,1/2-y,-z
1/2+x,1/2+y,-z
1/2-x,1/2+y,z
1/2+x,1/2-y,z
loop_
_atom_site_type_symbol
_atom_site_label
_atom_site_fract_x
_atom_site_fract_y
_atom_site_fract_z
Si Si1 0.709425 0.410614 0.820758
Si Si2 0.857261 0.299964 0.159982
Si Si3 0.000000 0.860051 0.324770
Si Si4 0.415893 0.906200 0.669008
Si Si5 0.250000 0.250000 0.225106
Si Si6 0.000000 0.312716 0.826482
Si Si7 0.901613 0.873286 0.171369
O O1 0.728002 0.500000 0.794118
O O2 0.734261 0.340260 0.725261
O O3 0.651157 0.409751 0.792393
O O4 0.715595 0.394288 0.000000
O O5 0.866158 0.362363 0.288529
O O6 0.801845 0.271558 0.154963
O O7 0.890241 0.221520 0.183711
O O8 0.869213 0.334940 0.000000
O O9 0.050885 0.895490 0.264167
O O10 0.000000 0.860939 0.500000
O O11 0.000000 0.769803 0.262063
O O12 0.429688 0.890240 0.500000
O O13 0.454376 0.865510 0.776669
O O14 0.413628 0.000000 0.689996
O O15 0.000000 0.295912 0.000000
O O16 0.911839 0.890369 0.000000
#
# Coordination Sequence:
#
# PCOD9487018 Si02
#       7
#    16  16   8  16   8   8  16
#     4   9  17  31  54  84 118 156 198 247 303 356
#     4  10  19  33  55  81 111 148 194 246 297 350
#     4  12  22  33  56  85 112 147 192 239 297 359
#     4  11  24  39  54  78 117 159 198 244 297 360
#     4  10  19  34  57  90 125 156 199 260 311 352
#     4  12  23  37  58  84 113 149 196 246 299 361
#     4   9  18  33  53  79 112 149 191 238 285 342
#
# _framework density 21.008246
#
# number of rings (size 3 to 8) (size 9 to 14) (size 15 to 20)
#    0.000    1.818    1.818    5.182    0.000    3.273 
#    0.000    0.909    0.000    4.364    0.000    0.000 
#    0.000    0.000    0.000    0.000    0.000    0.000 
#
# Total GULP energy -245082.304916 kJ/mol
# GULP energy per Si atom -5570.052384 kJ/mol
# Density = 2.096043 g / cm^3
# Si number density = 21.008246 Si / 1000 Ang^3
#
#
#
# Elastic Constant Matrix: (Units=GPa)
#
#
# Indices 1 2 3 4 5 6 
#
# 1 101.3436 18.4781 22.5404 0.0000 0.0000 0.0000
# 2 18.4781 102.1634 27.1068 0.0000 0.0000 0.0000
# 3 22.5404 27.1068 51.2114 0.0000 0.0000 0.0000
# 4 0.0000 0.0000 0.0000 -28.7803 0.0000 0.0000
# 5 0.0000 0.0000 0.0000 0.0000 -1.4573 0.0000
# 6 0.0000 0.0000 0.0000 0.0000 0.0000 15.1586
#
#
#
# Elastic Compliance Matrix: (Units=1/GPa)
#
#
# Indices 1 2 3 4 5 6 
#
# 1 0.010997 -0.000820 -0.004406 0.000000 0.000000 0.000000
# 2 -0.000820 0.011449 -0.005699 0.000000 0.000000 0.000000
# 3 -0.004406 -0.005699 0.024483 0.000000 0.000000 0.000000
# 4 0.000000 0.000000 0.000000 -0.034746 0.000000 0.000000
# 5 0.000000 0.000000 0.000000 0.000000 -0.686205 0.000000
# 6 0.000000 0.000000 0.000000 0.000000 0.000000 0.065969
#
#
# Mechanical properties :
#
#
# Convention : Reuss Voigt Hill
#
# Bulk Modulus (GPa) = 39.87548 43.44102 41.65825
# Shear Modulus (GPa) = -8.65286 9.42374 0.38544
#
# Velocity S-wave (km/s) = -2.03168 2.12025 0.42880
# Velocity P-wave (km/s) = 3.67674 5.16884 4.48527
#
# Compressibility (1/GPa) = 0.02507807
#
# Stress axis : x y z
#
# Youngs Moduli (GPa) = 90.93443 87.34661 40.84488
#
# Poissons Ratio (x) = 0.07161 0.17997
# Poissons Ratio (y) = 0.07456 0.23278
# Poissons Ratio (z) = 0.40068 0.49779
#
# Static dielectric constant tensor:
#      x y z
#    x 1.815920 0.000000 0.000000 
#    y 0.000000 1.804060 0.000000 
#    z 0.000000 0.000000 1.714890 
# 
# From -- ./inp_files/18388.got.cif
#   From: 2010.05.17/outbox.cif.g08.bks.cpg/sg65_10_cif.got.tgz:18388.got - 2010.06.03 17:01:31.
