data_PCOD9487550
_publ_section_title
;
Structure prediction by ZEFSAII (Michael W. Deem and Ramdas Pophale) SiO2 
 PCOD9487550
Probable space group: C M M M
;
_chemical_formula_sum "Si O2"
_cell_formula_units_Z 64
_cell_length_a 24.518051
_cell_length_b 7.664292
_cell_length_c 16.145825
_cell_angle_alpha 90.000000
_cell_angle_beta 90.000000
_cell_angle_gamma 90.000000
_cell_volume 3034.018521
_symmetry_space_group_name_H-M "C M M M"
_symmetry_group_IT_number 65
_symmetry_cell_setting 'orthorhombic'
loop_
_space_group_symop_operation_xyz
x,y,z
-x,-y,z
x,-y,-z
-x,y,-z
-x,-y,-z
x,y,-z
-x,y,z
x,-y,z
1/2+x,1/2+y,z
1/2-x,1/2-y,z
1/2+x,1/2-y,-z
1/2-x,1/2+y,-z
1/2-x,1/2-y,-z
1/2+x,1/2+y,-z
1/2-x,1/2+y,z
1/2+x,1/2-y,z
loop_
_atom_site_type_symbol
_atom_site_label
_atom_site_fract_x
_atom_site_fract_y
_atom_site_fract_z
Si Si1 0.500000 0.212443 0.096107
Si Si2 0.381525 0.213540 0.841939
Si Si3 0.813627 0.795026 0.500000
Si Si4 0.500000 0.786210 0.403608
Si Si5 0.313586 0.790380 0.000000
Si Si6 0.616136 0.207392 0.660186
O O1 0.555963 0.265976 0.139904
O O2 0.500000 0.000000 0.096230
O O3 0.500000 0.267288 0.000000
O O4 0.364896 0.272755 0.750001
O O5 0.380038 0.000000 0.843958
O O6 0.343579 0.274882 0.917070
O O7 0.750000 0.750000 0.500000
O O8 0.843786 0.732281 0.416934
O O9 0.819183 0.000000 0.500000
O O10 0.500000 0.737540 0.500000
O O11 0.555883 0.724133 0.362161
O O12 0.500000 0.000000 0.400786
O O13 0.250000 0.750000 0.000000
O O14 0.319780 0.000000 0.000000
O O15 0.609679 0.000000 0.669490
#
# Coordination Sequence:
#
# PCOD9487550 Si02
#       6
#     8  16   8   8   8  16
#     4   9  13  23  47  82 118 145 174 222 273 316
#     4   9  17  29  51  81 113 144 177 220 270 318
#     4  12  26  43  60  79 105 142 186 236 285 332
#     4   9  15  27  53  84 113 143 175 215 266 321
#     4  10  20  35  51  75 107 142 183 224 266 312
#     4  10  19  35  58  85 115 148 183 223 271 329
#
# _framework density 21.094135999999999
#
# number of rings (size 3 to 8) (size 9 to 14) (size 15 to 20)
#    0.000    2.250    2.500    1.875    0.000    4.000 
#    0.000    5.000    0.000    0.000    0.000    3.500 
#    0.000    0.000    0.000    0.000    0.000    0.000 
#
# Total GULP energy -178688.955317 kJ/mol
# GULP energy per Si atom -5584.029854 kJ/mol
# Density = 2.104613 g / cm^3
# Si number density = 21.094136 Si / 1000 Ang^3
#
#
#
# Elastic Constant Matrix: (Units=GPa)
#
#
# Indices 1 2 3 4 5 6 
#
# 1 165.7356 -7.1856 111.3163 0.0000 0.0000 0.0000
# 2 -7.1856 32.6986 5.4350 0.0000 0.0000 0.0000
# 3 111.3163 5.4350 240.0530 0.0000 0.0000 0.0000
# 4 0.0000 0.0000 0.0000 -9.0010 0.0000 0.0000
# 5 0.0000 0.0000 0.0000 0.0000 4.8492 0.0000
# 6 0.0000 0.0000 0.0000 0.0000 0.0000 10.9768
#
#
#
# Elastic Compliance Matrix: (Units=1/GPa)
#
#
# Indices 1 2 3 4 5 6 
#
# 1 0.008991 0.002679 -0.004230 0.000000 0.000000 0.000000
# 2 0.002679 0.031496 -0.001955 0.000000 0.000000 0.000000
# 3 -0.004230 -0.001955 0.006171 0.000000 0.000000 0.000000
# 4 0.000000 0.000000 0.000000 -0.111099 0.000000 0.000000
# 5 0.000000 0.000000 0.000000 0.000000 0.206219 0.000000
# 6 0.000000 0.000000 0.000000 0.000000 0.000000 0.091101
#
#
# Mechanical properties :
#
#
# Convention : Reuss Voigt Hill
#
# Bulk Modulus (GPa) = 25.22348 73.06874 49.14611
# Shear Modulus (GPa) = 19.75448 23.29311 21.52379
#
# Velocity S-wave (km/s) = 3.06353 3.32662 3.19779
# Velocity P-wave (km/s) = 4.94946 7.03348 6.08141
#
# Compressibility (1/GPa) = 0.03964560
#
# Stress axis : x y z
#
# Youngs Moduli (GPa) = 111.22464 31.75008 162.03634
#
# Poissons Ratio (x) = -0.08505 0.68539
# Poissons Ratio (y) = -0.29795 0.31683
# Poissons Ratio (z) = 0.47046 0.06208
#
# Static dielectric constant tensor:
#      x y z
#    x 1.744470 0.000000 0.000000 
#    y 0.000000 1.801870 0.000000 
#    z 0.000000 0.000000 1.665890 
# 
# From -- ./inp_files/45129.got.cif
#   From: 2010.05.17/outbox.cif.g08.bks.cpg/sg65_23_cif.got.tgz:45129.got - 2010.06.03 17:01:31.
