data_PCOD9487852
_publ_section_title
;
Structure prediction by ZEFSAII (Michael W. Deem and Ramdas Pophale) SiO2 
 PCOD9487852
Probable space group: C M M M
;
_chemical_formula_sum "Si O2"
_cell_formula_units_Z 80
_cell_length_a 29.216210
_cell_length_b 8.634544
_cell_length_c 19.041218
_cell_angle_alpha 90.000000
_cell_angle_beta 90.000000
_cell_angle_gamma 90.000000
_cell_volume 4803.502374
_symmetry_space_group_name_H-M "C M M M"
_symmetry_group_IT_number 65
_symmetry_cell_setting 'orthorhombic'
loop_
_space_group_symop_operation_xyz
x,y,z
-x,-y,z
x,-y,-z
-x,y,-z
-x,-y,-z
x,y,-z
-x,y,z
x,-y,z
1/2+x,1/2+y,z
1/2-x,1/2-y,z
1/2+x,1/2-y,-z
1/2-x,1/2+y,-z
1/2-x,1/2-y,-z
1/2+x,1/2+y,-z
1/2-x,1/2+y,z
1/2+x,1/2-y,z
loop_
_atom_site_type_symbol
_atom_site_label
_atom_site_fract_x
_atom_site_fract_y
_atom_site_fract_z
Si Si1 0.698559 0.187008 0.578206
Si Si2 0.801700 0.687462 0.846244
Si Si3 0.639713 0.187054 0.287552
Si Si4 0.052602 0.815245 0.649770
Si Si5 0.801627 0.686595 0.000000
Si Si6 0.944450 0.674901 0.500000
O O1 0.681961 0.233323 0.500000
O O2 0.750000 0.250000 0.586298
O O3 0.667644 0.239185 0.643155
O O4 0.700099 0.000000 0.579951
O O5 0.799353 0.500000 0.844265
O O6 0.750000 0.750000 0.838214
O O7 0.833555 0.738539 0.782119
O O8 0.820358 0.734527 0.923620
O O9 0.588475 0.248609 0.295107
O O10 0.638617 0.000000 0.287988
O O11 0.067646 0.757842 0.572340
O O12 0.000000 0.763288 0.660957
O O13 0.053257 0.000000 0.650747
O O14 0.750000 0.750000 0.000000
O O15 0.800866 0.500000 0.000000
O O16 0.926042 0.500000 0.500000
O O17 0.000000 0.668894 0.500000
#
# Coordination Sequence:
#
# PCOD9487852 Si02
#       6
#    16  16  16  16   8   8
#     4   9  18  31  44  60  85 117 152 188 221 260
#     4   9  17  29  46  70  98 127 158 192 230 278
#     4  10  20  31  46  68  92 121 158 194 233 280
#     4  10  21  35  49  68  93 119 153 198 243 284
#     4   8  14  26  44  66  95 126 153 187 232 275
#     4   9  17  31  51  69  86 113 148 189 237 283
#
# _framework density 16.654515
#
# number of rings (size 3 to 8) (size 9 to 14) (size 15 to 20)
#    0.000    2.700    0.000    1.500    1.400    4.000 
#    0.000    0.000    0.000    0.000    0.000    0.700 
#    0.000    5.600    0.000    0.000    0.000    0.000 
#
# Total GULP energy -222949.445976 kJ/mol
# GULP energy per Si atom -5573.736149 kJ/mol
# Density = 1.661661 g / cm^3
# Si number density = 16.654515 Si / 1000 Ang^3
#
#
#
# Elastic Constant Matrix: (Units=GPa)
#
#
# Indices 1 2 3 4 5 6 
#
# 1 84.5499 14.6634 77.7973 0.0000 0.0000 0.0000
# 2 14.6634 7.8431 24.2431 0.0000 0.0000 0.0000
# 3 77.7973 24.2431 153.7654 0.0000 0.0000 0.0000
# 4 0.0000 0.0000 0.0000 11.7267 0.0000 0.0000
# 5 0.0000 0.0000 0.0000 0.0000 15.4869 0.0000
# 6 0.0000 0.0000 0.0000 0.0000 0.0000 23.0363
#
#
#
# Elastic Compliance Matrix: (Units=1/GPa)
#
#
# Indices 1 2 3 4 5 6 
#
# 1 0.022853 -0.013627 -0.009414 0.000000 0.000000 0.000000
# 2 -0.013627 0.256827 -0.033598 0.000000 0.000000 0.000000
# 3 -0.009414 -0.033598 0.016563 0.000000 0.000000 0.000000
# 4 0.000000 0.000000 0.000000 0.085276 0.000000 0.000000
# 5 0.000000 0.000000 0.000000 0.000000 0.064571 0.000000
# 6 0.000000 0.000000 0.000000 0.000000 0.000000 0.043410
#
#
# Mechanical properties :
#
#
# Convention : Reuss Voigt Hill
#
# Bulk Modulus (GPa) = 5.46548 53.28512 29.37530
# Shear Modulus (GPa) = 7.53279 18.68029 13.10654
#
# Velocity S-wave (km/s) = 2.12903 3.35272 2.80833
# Velocity P-wave (km/s) = 3.05492 6.85941 5.30961
#
# Compressibility (1/GPa) = 0.18296668
#
# Stress axis : x y z
#
# Youngs Moduli (GPa) = 43.75881 3.89367 60.37405
#
# Poissons Ratio (x) = 0.05306 0.56835
# Poissons Ratio (y) = 0.59629 2.02843
# Poissons Ratio (z) = 0.41193 0.13082
#
# Static dielectric constant tensor:
#      x y z
#    x 1.555300 0.000000 0.000000 
#    y 0.000000 1.558910 0.000000 
#    z 0.000000 0.000000 1.590600 
# 
# From -- ./inp_files/49965.got.cif
#   From: 2010.05.17/outbox.cif.g08.bks.cpg/sg65_25_cif.got.tgz:49965.got - 2010.06.03 17:01:31.
