data_PCOD9487747
_publ_section_title
;
Structure prediction by ZEFSAII (Michael W. Deem and Ramdas Pophale) SiO2 
 PCOD9487747
Probable space group: C M M M
;
_chemical_formula_sum "Si O2"
_cell_formula_units_Z 104
_cell_length_a 27.722788
_cell_length_b 7.432352
_cell_length_c 24.873320
_cell_angle_alpha 90.000000
_cell_angle_beta 90.000000
_cell_angle_gamma 90.000000
_cell_volume 5125.036125
_symmetry_space_group_name_H-M "C M M M"
_symmetry_group_IT_number 65
_symmetry_cell_setting 'orthorhombic'
loop_
_space_group_symop_operation_xyz
x,y,z
-x,-y,z
x,-y,-z
-x,y,-z
-x,-y,-z
x,y,-z
-x,y,z
x,-y,z
1/2+x,1/2+y,z
1/2-x,1/2-y,z
1/2+x,1/2-y,-z
1/2-x,1/2+y,-z
1/2-x,1/2-y,-z
1/2+x,1/2+y,-z
1/2-x,1/2+y,z
1/2+x,1/2-y,z
loop_
_atom_site_type_symbol
_atom_site_label
_atom_site_fract_x
_atom_site_fract_y
_atom_site_fract_z
Si Si1 0.946444 0.788819 0.281079
Si Si2 0.443844 0.219191 0.940610
Si Si3 0.153107 0.704056 0.335862
Si Si4 0.105774 0.278584 0.561736
Si Si5 0.399417 0.782441 0.170040
Si Si6 0.195792 0.715202 0.771258
Si Si7 0.000000 0.706497 0.565375
O O1 0.900795 0.699750 0.309977
O O2 0.936571 0.768391 0.217293
O O3 0.000000 0.720902 0.294817
O O4 0.944589 0.000000 0.293843
O O5 0.500000 0.269913 0.935024
O O6 0.414772 0.282099 0.888657
O O7 0.442528 0.000000 0.940352
O O8 0.426986 0.276791 0.000000
O O9 0.170284 0.500000 0.344167
O O10 0.144594 0.783720 0.394709
O O11 0.185592 0.787935 0.289024
O O12 0.114359 0.226699 0.500000
O O13 0.104343 0.500000 0.562725
O O14 0.052070 0.215060 0.579271
O O15 0.346794 0.719429 0.189935
O O16 0.398917 0.000000 0.168312
O O17 0.189567 0.500000 0.767747
O O18 0.250000 0.750000 0.788877
O O19 0.000000 0.500000 0.584065
O O20 0.000000 0.702976 0.500000
#
# Coordination Sequence:
#
# PCOD9487747 Si02
#       7
#    16  16  16  16  16  16   8
#     4  10  20  30  40  60  92 125 152 179 217 264
#     4   8  13  22  41  71 101 124 145 174 215 256
#     4   9  18  30  46  68  87 108 146 187 222 266
#     4   8  13  22  38  62  89 111 135 174 218 257
#     4   9  17  30  48  69  90 114 152 192 220 257
#     4   9  18  31  46  65  85 109 146 189 233 276
#     4   7  10  16  28  52  83 109 131 155 192 241
#
# _framework density 20.292539000000001
#
# number of rings (size 3 to 8) (size 9 to 14) (size 15 to 20)
#    0.000    3.308    0.000    3.231    1.077    4.308 
#    0.000    0.000    0.000    1.846    0.000    3.231 
#    0.000    0.000    0.000    0.000    0.000    0.615 
#
# Total GULP energy -289906.544957 kJ/mol
# GULP energy per Si atom -5575.125865 kJ/mol
# Density = 2.024635 g / cm^3
# Si number density = 20.292539 Si / 1000 Ang^3
#
#
#
# Elastic Constant Matrix: (Units=GPa)
#
#
# Indices 1 2 3 4 5 6 
#
# 1 59.4448 -0.6859 20.9883 0.0000 0.0000 0.0000
# 2 -0.6859 69.5020 2.8503 0.0000 0.0000 0.0000
# 3 20.9883 2.8503 129.4001 0.0000 0.0000 0.0000
# 4 0.0000 0.0000 0.0000 -42.5733 0.0000 0.0000
# 5 0.0000 0.0000 0.0000 0.0000 19.9319 0.0000
# 6 0.0000 0.0000 0.0000 0.0000 0.0000 8.4211
#
#
#
# Elastic Compliance Matrix: (Units=1/GPa)
#
#
# Indices 1 2 3 4 5 6 
#
# 1 0.017850 0.000295 -0.002902 0.000000 0.000000 0.000000
# 2 0.000295 0.014406 -0.000365 0.000000 0.000000 0.000000
# 3 -0.002902 -0.000365 0.008207 0.000000 0.000000 0.000000
# 4 0.000000 0.000000 0.000000 -0.023489 0.000000 0.000000
# 5 0.000000 0.000000 0.000000 0.000000 0.050171 0.000000
# 6 0.000000 0.000000 0.000000 0.000000 0.000000 0.118749
#
#
# Mechanical properties :
#
#
# Convention : Reuss Voigt Hill
#
# Bulk Modulus (GPa) = 28.96931 33.85027 31.40979
# Shear Modulus (GPa) = 24.58885 12.83555 18.71220
#
# Velocity S-wave (km/s) = 3.48475 2.51773 3.03994
# Velocity P-wave (km/s) = 5.52251 5.01690 5.27577
#
# Compressibility (1/GPa) = 0.03451929
#
# Stress axis : x y z
#
# Youngs Moduli (GPa) = 56.02159 69.41574 121.85204
#
# Poissons Ratio (x) = -0.02049 0.35359
# Poissons Ratio (y) = -0.01653 0.04450
# Poissons Ratio (z) = 0.16256 0.02535
#
# Static dielectric constant tensor:
#      x y z
#    x 1.701650 0.000000 0.000000 
#    y 0.000000 1.774700 0.000000 
#    z 0.000000 0.000000 1.751190 
# 
# From -- ./inp_files/76033.got.cif
#   From: 2010.05.17/outbox.cif.g08.bks.cpg/sg65_39_cif.got.tgz:76033.got - 2010.06.03 17:01:31.
