data_PCOD9487012
_publ_section_title
;
Structure prediction by ZEFSAII (Michael W. Deem and Ramdas Pophale) SiO2 
 PCOD9487012
Probable space group: C M M M
;
_chemical_formula_sum "Si O2"
_cell_formula_units_Z 116
_cell_length_a 27.091790
_cell_length_b 22.155508
_cell_length_c 10.070657
_cell_angle_alpha 90.000000
_cell_angle_beta 90.000000
_cell_angle_gamma 90.000000
_cell_volume 6044.734319
_symmetry_space_group_name_H-M "C M M M"
_symmetry_group_IT_number 65
_symmetry_cell_setting 'orthorhombic'
loop_
_space_group_symop_operation_xyz
x,y,z
-x,-y,z
x,-y,-z
-x,y,-z
-x,-y,-z
x,y,-z
-x,y,z
x,-y,z
1/2+x,1/2+y,z
1/2-x,1/2-y,z
1/2+x,1/2-y,-z
1/2-x,1/2+y,-z
1/2-x,1/2-y,-z
1/2+x,1/2+y,-z
1/2-x,1/2+y,z
1/2+x,1/2-y,z
loop_
_atom_site_type_symbol
_atom_site_label
_atom_site_fract_x
_atom_site_fract_y
_atom_site_fract_z
Si Si1 0.636709 0.928927 0.647366
Si Si2 0.787366 0.382253 0.153487
Si Si3 0.415921 0.600690 0.656259
Si Si4 0.671304 0.628042 0.152783
Si Si5 0.643426 0.767840 0.848698
Si Si6 0.443631 0.257964 0.344180
Si Si7 0.500000 0.500000 0.291898
Si Si8 0.443489 0.926445 0.852535
O O1 0.640506 0.902234 0.500000
O O2 0.684813 0.920997 0.736925
O O3 0.591671 0.905060 0.736083
O O4 0.627827 0.000000 0.633394
O O5 0.728975 0.383997 0.175174
O O6 0.812887 0.316345 0.169470
O O7 0.796772 0.401133 0.000000
O O8 0.405620 0.590590 0.500000
O O9 0.366667 0.597808 0.745370
O O10 0.436460 0.669278 0.669153
O O11 0.456821 0.552804 0.700410
O O12 0.664525 0.700261 0.164473
O O13 0.659202 0.611197 0.000000
O O14 0.598310 0.771455 0.746581
O O15 0.625155 0.774413 0.000000
O O16 0.436748 0.243407 0.500000
O O17 0.500000 0.242751 0.306686
O O18 0.500000 0.907657 0.834962
O O19 0.443139 0.000000 0.852197
O O20 0.426319 0.908012 0.000000
#
# Coordination Sequence:
#
# PCOD9487012 Si02
#       8
#    16  16  16  16  16  16   4  16
#     4  10  21  35  51  74 105 139 175 216 264 316
#     4  10  20  36  58  79 103 140 181 222 273 335
#     4  10  19  33  55  81 109 148 193 231 269 322
#     4   9  19  37  57  80 109 138 174 227 286 332
#     4   9  18  33  56  83 105 132 177 228 278 333
#     4   9  17  31  51  77 111 148 184 223 275 333
#     4  12  21  36  61  86 117 160 205 238 269 324
#     4   8  14  27  49  74  97 125 164 206 247 298
#
# _framework density 19.190256999999999
#
# number of rings (size 3 to 8) (size 9 to 14) (size 15 to 20)
#    0.000    2.621    0.690    1.862    0.000    4.138 
#    1.241    3.103    0.000    4.966    0.000    0.000 
#    0.000    0.000    0.000    0.000    0.000    0.000 
#
# Total GULP energy -323011.575310 kJ/mol
# GULP energy per Si atom -5569.165092 kJ/mol
# Density = 1.914658 g / cm^3
# Si number density = 19.190257 Si / 1000 Ang^3
#
#
#
# Elastic Constant Matrix: (Units=GPa)
#
#
# Indices 1 2 3 4 5 6 
#
# 1 140.6340 16.5760 94.3566 0.0000 0.0000 0.0000
# 2 16.5760 54.6389 24.6142 0.0000 0.0000 0.0000
# 3 94.3566 24.6142 116.1426 0.0000 0.0000 0.0000
# 4 0.0000 0.0000 0.0000 9.1382 0.0000 0.0000
# 5 0.0000 0.0000 0.0000 0.0000 22.6250 0.0000
# 6 0.0000 0.0000 0.0000 0.0000 0.0000 15.0922
#
#
#
# Elastic Compliance Matrix: (Units=1/GPa)
#
#
# Indices 1 2 3 4 5 6 
#
# 1 0.015689 0.001086 -0.012976 0.000000 0.000000 0.000000
# 2 0.001086 0.020309 -0.005186 0.000000 0.000000 0.000000
# 3 -0.012976 -0.005186 0.020251 0.000000 0.000000 0.000000
# 4 0.000000 0.000000 0.000000 0.109431 0.000000 0.000000
# 5 0.000000 0.000000 0.000000 0.000000 0.044199 0.000000
# 6 0.000000 0.000000 0.000000 0.000000 0.000000 0.066259
#
#
# Mechanical properties :
#
#
# Convention : Reuss Voigt Hill
#
# Bulk Modulus (GPa) = 45.25679 64.72323 54.99001
# Shear Modulus (GPa) = 15.74030 21.09565 18.41798
#
# Velocity S-wave (km/s) = 2.86706 3.31915 3.10135
# Velocity P-wave (km/s) = 5.88171 6.96343 6.44530
#
# Compressibility (1/GPa) = 0.02209613
#
# Stress axis : x y z
#
# Youngs Moduli (GPa) = 63.74002 49.23940 49.37974
#
# Poissons Ratio (x) = -0.05347 0.64075
# Poissons Ratio (y) = -0.06922 0.25610
# Poissons Ratio (z) = 0.82709 0.25537
#
# Static dielectric constant tensor:
#      x y z
#    x 1.639010 0.000000 0.000000 
#    y 0.000000 1.700550 0.000000 
#    z 0.000000 0.000000 1.671280 
# 
# From -- ./inp_files/16896.got.cif
#   From: 2010.05.17/outbox.cif.g08.bks.cpg/sg65_9_cif.got.tgz:16896.got - 2010.06.03 17:01:31.
