data_PCOD9487643
_publ_section_title
;
Structure prediction by ZEFSAII (Michael W. Deem and Ramdas Pophale) SiO2 
 PCOD9487643
Probable space group: C M M M
;
_chemical_formula_sum "Si O2"
_cell_formula_units_Z 88
_cell_length_a 28.026919
_cell_length_b 19.900703
_cell_length_c 8.221096
_cell_angle_alpha 90.000000
_cell_angle_beta 90.000000
_cell_angle_gamma 90.000000
_cell_volume 4585.360614
_symmetry_space_group_name_H-M "C M M M"
_symmetry_group_IT_number 65
_symmetry_cell_setting 'orthorhombic'
loop_
_space_group_symop_operation_xyz
x,y,z
-x,-y,z
x,-y,-z
-x,y,-z
-x,-y,-z
x,y,-z
-x,y,z
x,-y,z
1/2+x,1/2+y,z
1/2-x,1/2-y,z
1/2+x,1/2-y,-z
1/2-x,1/2+y,-z
1/2-x,1/2-y,-z
1/2+x,1/2+y,-z
1/2-x,1/2+y,z
1/2+x,1/2-y,z
loop_
_atom_site_type_symbol
_atom_site_label
_atom_site_fract_x
_atom_site_fract_y
_atom_site_fract_z
Si Si1 0.500000 0.577161 0.193918
Si Si2 0.120088 0.303663 0.699320
Si Si3 0.555166 0.074012 0.698350
Si Si4 0.728828 0.178042 0.303470
Si Si5 0.095469 0.153234 0.306088
Si Si6 0.190505 0.923211 0.805700
O O1 0.500000 0.500000 0.258429
O O2 0.547775 0.616856 0.244340
O O3 0.500000 0.573105 0.000000
O O4 0.119844 0.302177 0.500000
O O5 0.085571 0.363056 0.754893
O O6 0.173895 0.321615 0.749190
O O7 0.103309 0.229833 0.754251
O O8 0.556231 0.074753 0.500000
O O9 0.500000 0.080345 0.746445
O O10 0.572734 0.000000 0.749282
O O11 0.729899 0.175037 0.500000
O O12 0.750000 0.250000 0.253646
O O13 0.762914 0.119487 0.240608
O O14 0.091623 0.156524 0.500000
O O15 0.142994 0.111898 0.262434
O O16 0.193954 0.000000 0.746872
O O17 0.186204 0.923921 0.000000
#
# Coordination Sequence:
#
# PCOD9487643 Si02
#       6
#     8  16  16  16  16  16
#     4  11  25  43  59  81 118 155 190 238 289 345
#     4   9  18  31  51  81 115 145 181 234 286 333
#     4   8  14  25  43  70 106 144 176 211 267 334
#     4  10  19  36  57  82 114 145 186 238 287 335
#     4  11  22  38  61  88 115 148 192 241 292 344
#     4  11  24  40  58  83 116 154 195 237 286 348
#
# _framework density 19.191510000000001
#
# number of rings (size 3 to 8) (size 9 to 14) (size 15 to 20)
#    0.000    2.091    1.818    2.455    1.273    5.455 
#    0.000    1.818    0.000    0.000    0.000    0.000 
#    0.000    0.727    0.000    0.000    0.000    0.000 
#
# Total GULP energy -245617.214740 kJ/mol
# GULP energy per Si atom -5582.209426 kJ/mol
# Density = 1.914783 g / cm^3
# Si number density = 19.191510 Si / 1000 Ang^3
#
#
#
# Elastic Constant Matrix: (Units=GPa)
#
#
# Indices 1 2 3 4 5 6 
#
# 1 160.6997 125.4940 18.3362 0.0000 0.0000 0.0000
# 2 125.4940 219.8721 21.2588 0.0000 0.0000 0.0000
# 3 18.3362 21.2588 19.8838 0.0000 0.0000 0.0000
# 4 0.0000 0.0000 0.0000 -72.5905 0.0000 0.0000
# 5 0.0000 0.0000 0.0000 0.0000 40.7707 0.0000
# 6 0.0000 0.0000 0.0000 0.0000 0.0000 40.3152
#
#
#
# Elastic Compliance Matrix: (Units=1/GPa)
#
#
# Indices 1 2 3 4 5 6 
#
# 1 0.011505 -0.006180 -0.004003 0.000000 0.000000 0.000000
# 2 -0.006180 0.008392 -0.003273 0.000000 0.000000 0.000000
# 3 -0.004003 -0.003273 0.057483 0.000000 0.000000 0.000000
# 4 0.000000 0.000000 0.000000 -0.013776 0.000000 0.000000
# 5 0.000000 0.000000 0.000000 0.000000 0.024527 0.000000
# 6 0.000000 0.000000 0.000000 0.000000 0.000000 0.024805
#
#
# Mechanical properties :
#
#
# Convention : Reuss Voigt Hill
#
# Bulk Modulus (GPa) = 19.81430 81.18150 50.49790
# Shear Modulus (GPa) = 31.91401 17.39019 24.65210
#
# Velocity S-wave (km/s) = 4.08232 3.01348 3.58792
# Velocity P-wave (km/s) = 5.70678 7.38246 6.59803
#
# Compressibility (1/GPa) = 0.05046861
#
# Stress axis : x y z
#
# Youngs Moduli (GPa) = 86.91496 119.16415 17.39642
#
# Poissons Ratio (x) = 0.73642 0.06963
# Poissons Ratio (y) = 0.53712 0.05694
# Poissons Ratio (z) = 0.34790 0.39005
#
# Static dielectric constant tensor:
#      x y z
#    x 1.648090 0.000000 0.000000 
#    y 0.000000 1.666810 0.000000 
#    z 0.000000 0.000000 1.672560 
# 
# From -- ./inp_files/13973.got.cif
#   From: 2010.05.17/outbox.cif.g08.bks.cpg/sg65_7_cif.got.tgz:13973.got - 2010.06.03 17:01:31.
