data_PCOD9487814
_publ_section_title
;
Structure prediction by ZEFSAII (Michael W. Deem and Ramdas Pophale) SiO2 
 PCOD9487814
Probable space group: C M M M
;
_chemical_formula_sum "Si O2"
_cell_formula_units_Z 104
_cell_length_a 27.118831
_cell_length_b 9.433942
_cell_length_c 27.039362
_cell_angle_alpha 90.000000
_cell_angle_beta 90.000000
_cell_angle_gamma 90.000000
_cell_volume 6917.682201
_symmetry_space_group_name_H-M "C M M M"
_symmetry_group_IT_number 65
_symmetry_cell_setting 'orthorhombic'
loop_
_space_group_symop_operation_xyz
x,y,z
-x,-y,z
x,-y,-z
-x,y,-z
-x,-y,-z
x,y,-z
-x,y,z
x,-y,z
1/2+x,1/2+y,z
1/2-x,1/2-y,z
1/2+x,1/2-y,-z
1/2-x,1/2+y,-z
1/2-x,1/2-y,-z
1/2+x,1/2+y,-z
1/2-x,1/2+y,z
1/2+x,1/2-y,z
loop_
_atom_site_type_symbol
_atom_site_label
_atom_site_fract_x
_atom_site_fract_y
_atom_site_fract_z
Si Si1 0.440051 0.163283 0.404419
Si Si2 0.939816 0.162749 0.500000
Si Si3 0.097954 0.833032 0.800320
Si Si4 0.797516 0.833050 0.147922
Si Si5 0.342502 0.831762 0.056939
Si Si6 0.441133 0.830605 0.292967
Si Si7 0.444805 0.167088 0.107819
O O1 0.500000 0.164396 0.404454
O O2 0.423454 0.258426 0.450097
O O3 0.425715 0.208559 0.349004
O O4 0.425082 0.000000 0.411939
O O5 0.000000 0.166660 0.500000
O O6 0.924643 0.000000 0.500000
O O7 0.154738 0.816101 0.817221
O O8 0.086353 0.755977 0.749128
O O9 0.066240 0.759145 0.843649
O O10 0.086911 0.000000 0.797569
O O11 0.750000 0.750000 0.167233
O O12 0.812199 0.761534 0.095646
O O13 0.787693 0.000000 0.141977
O O14 0.400425 0.807702 0.069491
O O15 0.332920 0.000000 0.064838
O O16 0.332144 0.797938 0.000000
O O17 0.500000 0.805438 0.288214
O O18 0.433644 0.000000 0.287302
O O19 0.500000 0.195630 0.088951
O O20 0.442374 0.000000 0.121255
#
# Coordination Sequence:
#
# PCOD9487814 Si02
#       7
#    16   8  16  16  16  16  16
#     4   8  14  24  36  50  72 106 146 182 212 243
#     4   9  15  21  31  49  73 103 142 185 222 251
#     4  10  20  31  44  64  87 109 136 173 214 254
#     4  10  21  36  52  68  85 107 136 169 209 257
#     4   9  18  32  49  69  91 113 138 169 205 244
#     4   9  17  28  42  61  85 115 150 181 209 246
#     4   9  17  29  45  64  87 116 146 172 199 237
#
# _framework density 15.033937999999999
#
# number of rings (size 3 to 8) (size 9 to 14) (size 15 to 20)
#    0.000    2.846    0.000    2.538    0.000    6.769 
#    0.000    3.077    0.000    0.000    0.000    4.308 
#    0.000    0.000    0.000    0.692    0.000    9.154 
#
# Total GULP energy -289746.444389 kJ/mol
# GULP energy per Si atom -5572.047007 kJ/mol
# Density = 1.499972 g / cm^3
# Si number density = 15.033938 Si / 1000 Ang^3
#
#
#
# Elastic Constant Matrix: (Units=GPa)
#
#
# Indices 1 2 3 4 5 6 
#
# 1 35.9243 21.9030 4.6676 0.0000 0.0000 0.0000
# 2 21.9030 64.3947 54.1013 0.0000 0.0000 0.0000
# 3 4.6676 54.1013 101.5612 0.0000 0.0000 0.0000
# 4 0.0000 0.0000 0.0000 9.5468 0.0000 0.0000
# 5 0.0000 0.0000 0.0000 0.0000 7.5983 0.0000
# 6 0.0000 0.0000 0.0000 0.0000 0.0000 19.3322
#
#
#
# Elastic Compliance Matrix: (Units=1/GPa)
#
#
# Indices 1 2 3 4 5 6 
#
# 1 0.039821 -0.021734 0.009747 0.000000 0.000000 0.000000
# 2 -0.021734 0.039972 -0.020294 0.000000 0.000000 0.000000
# 3 0.009747 -0.020294 0.020209 0.000000 0.000000 0.000000
# 4 0.000000 0.000000 0.000000 0.104747 0.000000 0.000000
# 5 0.000000 0.000000 0.000000 0.000000 0.131608 0.000000
# 6 0.000000 0.000000 0.000000 0.000000 0.000000 0.051727
#
#
# Mechanical properties :
#
#
# Convention : Reuss Voigt Hill
#
# Bulk Modulus (GPa) = 28.21612 40.35824 34.28718
# Shear Modulus (GPa) = 10.76524 15.37602 13.07063
#
# Velocity S-wave (km/s) = 2.67884 3.20152 2.95177
# Velocity P-wave (km/s) = 5.32703 6.36941 5.87140
#
# Compressibility (1/GPa) = 0.03544074
#
# Stress axis : x y z
#
# Youngs Moduli (GPa) = 25.11234 25.01770 49.48343
#
# Poissons Ratio (x) = 0.54373 -0.48234
# Poissons Ratio (y) = 0.54579 1.00421
# Poissons Ratio (z) = -0.24478 0.50771
#
# Static dielectric constant tensor:
#      x y z
#    x 1.493000 0.000000 0.000000 
#    y 0.000000 1.498030 0.000000 
#    z 0.000000 0.000000 1.488460 
# 
# From -- ./inp_files/68181.got.cif
#   From: 2010.05.17/outbox.cif.g08.bks.cpg/sg65_35_cif.got.tgz:68181.got - 2010.06.03 17:01:31.
