data_PCOD9487587
_publ_section_title
;
Structure prediction by ZEFSAII (Michael W. Deem and Ramdas Pophale) SiO2 
 PCOD9487587
Probable space group: C M M M
;
_chemical_formula_sum "Si O2"
_cell_formula_units_Z 66
_cell_length_a 15.985161
_cell_length_b 7.703943
_cell_length_c 26.606684
_cell_angle_alpha 90.000000
_cell_angle_beta 90.000000
_cell_angle_gamma 90.000000
_cell_volume 3276.580387
_symmetry_space_group_name_H-M "C M M M"
_symmetry_group_IT_number 65
_symmetry_cell_setting 'orthorhombic'
loop_
_space_group_symop_operation_xyz
x,y,z
-x,-y,z
x,-y,-z
-x,y,-z
-x,-y,-z
x,y,-z
-x,y,z
x,-y,z
1/2+x,1/2+y,z
1/2-x,1/2-y,z
1/2+x,1/2-y,-z
1/2-x,1/2+y,-z
1/2-x,1/2-y,-z
1/2+x,1/2+y,-z
1/2-x,1/2+y,z
1/2+x,1/2-y,z
loop_
_atom_site_type_symbol
_atom_site_label
_atom_site_fract_x
_atom_site_fract_y
_atom_site_fract_z
Si Si1 0.000000 0.286387 0.090288
Si Si2 0.500000 0.286645 0.442067
Si Si3 0.000000 0.000000 0.000000
Si Si4 0.843735 0.293016 0.838347
Si Si5 0.157110 0.794868 0.622116
Si Si6 0.095448 0.291982 0.268682
O O1 0.917778 0.245037 0.123730
O O2 0.000000 0.500000 0.080000
O O3 0.000000 0.156081 0.043567
O O4 0.500000 0.500000 0.441732
O O5 0.500000 0.233145 0.500000
O O6 0.417836 0.224593 0.412255
O O7 0.848014 0.500000 0.834987
O O8 0.750000 0.250000 0.855055
O O9 0.861904 0.222768 0.782162
O O10 0.250000 0.750000 0.604764
O O11 0.143765 0.742765 0.679983
O O12 0.149261 0.000000 0.620696
O O13 0.090633 0.500000 0.263842
O O14 0.000000 0.225872 0.272790
#
# Coordination Sequence:
#
# PCOD9487587 Si02
#       6
#     8   8   2  16  16  16
#     4  10  23  46  68  93 132 167 209 270 318 367
#     4   9  20  39  59  78 108 152 200 253 307 360
#     4  12  26  44  76  98 120 170 234 252 326 362
#     4  10  21  38  63  92 127 164 201 248 308 367
#     4  11  22  37  57  85 117 153 198 247 303 363
#     4  10  19  35  59  89 124 164 197 238 306 369
#
# _framework density 20.142952000000001
#
# number of rings (size 3 to 8) (size 9 to 14) (size 15 to 20)
#    0.000    1.818    2.424    1.636    1.697    3.394 
#    0.000    0.606    0.000    5.091    0.000    0.000 
#    0.000    0.000    0.000    0.000    0.000    0.000 
#
# Total GULP energy -183959.415691 kJ/mol
# GULP energy per Si atom -5574.527748 kJ/mol
# Density = 2.009711 g / cm^3
# Si number density = 20.142952 Si / 1000 Ang^3
#
#
#
# Elastic Constant Matrix: (Units=GPa)
#
#
# Indices 1 2 3 4 5 6 
#
# 1 191.7522 19.3399 93.8640 0.0000 0.0000 0.0000
# 2 19.3399 53.8368 37.3091 0.0000 0.0000 0.0000
# 3 93.8640 37.3091 170.4326 0.0000 0.0000 0.0000
# 4 0.0000 0.0000 0.0000 77.9053 0.0000 0.0000
# 5 0.0000 0.0000 0.0000 0.0000 1.5588 0.0000
# 6 0.0000 0.0000 0.0000 0.0000 0.0000 8.1682
#
#
#
# Elastic Compliance Matrix: (Units=1/GPa)
#
#
# Indices 1 2 3 4 5 6 
#
# 1 0.007142 0.000189 -0.003974 0.000000 0.000000 0.000000
# 2 0.000189 0.021901 -0.004898 0.000000 0.000000 0.000000
# 3 -0.003974 -0.004898 0.009129 0.000000 0.000000 0.000000
# 4 0.000000 0.000000 0.000000 0.012836 0.000000 0.000000
# 5 0.000000 0.000000 0.000000 0.000000 0.641504 0.000000
# 6 0.000000 0.000000 0.000000 0.000000 0.000000 0.122426
#
#
# Mechanical properties :
#
#
# Convention : Reuss Voigt Hill
#
# Bulk Modulus (GPa) = 48.06875 79.67198 63.87037
# Shear Modulus (GPa) = 5.95777 35.22703 20.59240
#
# Velocity S-wave (km/s) = 1.72168 4.18646 3.20083
# Velocity P-wave (km/s) = 5.27900 7.93774 6.74076
#
# Compressibility (1/GPa) = 0.02080353
#
# Stress axis : x y z
#
# Youngs Moduli (GPa) = 140.02562 45.65909 109.54544
#
# Poissons Ratio (x) = -0.00862 0.43539
# Poissons Ratio (y) = -0.02644 0.53660
# Poissons Ratio (z) = 0.55653 0.22366
#
# Static dielectric constant tensor:
#      x y z
#    x 1.831590 0.000000 0.000000 
#    y 0.000000 1.746420 0.000000 
#    z 0.000000 0.000000 1.695610 
# 
# From -- ./inp_files/72406.got.cif
#   From: 2010.05.17/outbox.cif.g08.bks.cpg/sg65_37_cif.got.tgz:72406.got - 2010.06.03 17:01:31.
