data_PCOD9487090
_publ_section_title
;
Structure prediction by ZEFSAII (Michael W. Deem and Ramdas Pophale) SiO2 
 PCOD9487090
Probable space group: C M M M
;
_chemical_formula_sum "Si O2"
_cell_formula_units_Z 64
_cell_length_a 23.565523
_cell_length_b 14.964030
_cell_length_c 9.723241
_cell_angle_alpha 90.000000
_cell_angle_beta 90.000000
_cell_angle_gamma 90.000000
_cell_volume 3428.756968
_symmetry_space_group_name_H-M "C M M M"
_symmetry_group_IT_number 65
_symmetry_cell_setting 'orthorhombic'
loop_
_space_group_symop_operation_xyz
x,y,z
-x,-y,z
x,-y,-z
-x,y,-z
-x,-y,-z
x,y,-z
-x,y,z
x,-y,z
1/2+x,1/2+y,z
1/2-x,1/2-y,z
1/2+x,1/2-y,-z
1/2-x,1/2+y,-z
1/2-x,1/2-y,-z
1/2+x,1/2+y,-z
1/2-x,1/2+y,z
1/2+x,1/2-y,z
loop_
_atom_site_type_symbol
_atom_site_label
_atom_site_fract_x
_atom_site_fract_y
_atom_site_fract_z
Si Si1 0.000000 0.899338 0.748772
Si Si2 0.307405 0.000000 0.838326
Si Si3 0.500000 0.802523 0.343199
Si Si4 0.874590 0.132568 0.152718
Si Si5 0.893406 0.661560 0.157366
Si Si6 0.193417 0.000000 0.664547
O O1 0.058532 0.890730 0.833396
O O2 0.000000 0.806925 0.662049
O O3 0.000000 0.000000 0.685386
O O4 0.346744 0.913367 0.815847
O O5 0.254686 0.000000 0.736012
O O6 0.289722 0.000000 0.000000
O O7 0.500000 0.831086 0.500000
O O8 0.554777 0.837904 0.262563
O O9 0.868079 0.238795 0.164133
O O10 0.841206 0.083618 0.273142
O O11 0.855106 0.105158 0.000000
O O12 0.914408 0.648935 0.000000
O O13 0.195390 0.000000 0.500000
#
# Coordination Sequence:
#
# PCOD9487090 Si02
#       6
#     8   8   8  16  16   8
#     4  10  19  33  56  89 116 150 192 228 275 328
#     4  10  22  43  66  83 105 146 202 250 287 328
#     4  10  21  35  55  87 125 157 182 224 285 349
#     4  10  20  37  60  87 117 150 190 234 284 338
#     4   9  20  39  63  88 113 147 192 242 285 333
#     4  12  26  39  54  83 119 154 192 234 289 348
#
# _framework density 18.665656999999999
#
# number of rings (size 3 to 8) (size 9 to 14) (size 15 to 20)
#    0.000    2.000    1.250    1.875    0.000   10.250 
#    0.000    7.500    0.000    0.000    0.000    0.000 
#    0.000    0.000    0.000    0.000    0.000    0.000 
#
# Total GULP energy -178544.214916 kJ/mol
# GULP energy per Si atom -5579.506716 kJ/mol
# Density = 1.862317 g / cm^3
# Si number density = 18.665657 Si / 1000 Ang^3
#
#
#
# Elastic Constant Matrix: (Units=GPa)
#
#
# Indices 1 2 3 4 5 6 
#
# 1 110.7213 70.9943 97.3195 0.0000 0.0000 0.0000
# 2 70.9943 111.1832 51.9554 0.0000 0.0000 0.0000
# 3 97.3195 51.9554 179.1552 0.0000 0.0000 0.0000
# 4 0.0000 0.0000 0.0000 11.9285 0.0000 0.0000
# 5 0.0000 0.0000 0.0000 0.0000 -621.7447 0.0000
# 6 0.0000 0.0000 0.0000 0.0000 0.0000 93.1663
#
#
#
# Elastic Compliance Matrix: (Units=1/GPa)
#
#
# Indices 1 2 3 4 5 6 
#
# 1 0.025758 -0.011462 -0.010668 0.000000 0.000000 0.000000
# 2 -0.011462 0.015505 0.001730 0.000000 0.000000 0.000000
# 3 -0.010668 0.001730 0.010875 0.000000 0.000000 0.000000
# 4 0.000000 0.000000 0.000000 0.083833 0.000000 0.000000
# 5 0.000000 0.000000 0.000000 0.000000 -0.001608 0.000000
# 6 0.000000 0.000000 0.000000 0.000000 0.000000 0.010733
#
#
# Mechanical properties :
#
#
# Convention : Reuss Voigt Hill
#
# Bulk Modulus (GPa) = 88.20403 93.51090 90.85746
# Shear Modulus (GPa) = 26.36085 -91.27726 -32.45821
#
# Velocity S-wave (km/s) = 3.76209 -7.00052 -4.17457
# Velocity P-wave (km/s) = 8.13808 3.89057 5.05430
#
# Compressibility (1/GPa) = 0.01133735
#
# Stress axis : x y z
#
# Youngs Moduli (GPa) = 38.82282 64.49628 91.95355
#
# Poissons Ratio (x) = 0.73927 0.98096
# Poissons Ratio (y) = 0.44500 -0.15908
# Poissons Ratio (z) = 0.41416 -0.11158
#
# Static dielectric constant tensor:
#      x y z
#    x 1.618010 0.000000 0.000000 
#    y 0.000000 1.657160 0.000000 
#    z 0.000000 0.000000 1.627190 
# 
# From -- ./inp_files/6849.got.cif
#   From: 2010.05.17/outbox.cif.g08.bks.cpg/sg65_4_cif.got.tgz:6849.got - 2010.06.03 17:01:31.
