data_PCOD9487554
_publ_section_title
;
Structure prediction by ZEFSAII (Michael W. Deem and Ramdas Pophale) SiO2 
 PCOD9487554
Probable space group: C M M M
;
_chemical_formula_sum "Si O2"
_cell_formula_units_Z 96
_cell_length_a 14.772725
_cell_length_b 21.398353
_cell_length_c 14.772318
_cell_angle_alpha 90.000000
_cell_angle_beta 90.000000
_cell_angle_gamma 90.000000
_cell_volume 4669.706756
_symmetry_space_group_name_H-M "C M M M"
_symmetry_group_IT_number 65
_symmetry_cell_setting 'orthorhombic'
loop_
_space_group_symop_operation_xyz
x,y,z
-x,-y,z
x,-y,-z
-x,y,-z
-x,-y,-z
x,y,-z
-x,y,z
x,-y,z
1/2+x,1/2+y,z
1/2-x,1/2-y,z
1/2+x,1/2-y,-z
1/2-x,1/2+y,-z
1/2-x,1/2-y,-z
1/2+x,1/2+y,-z
1/2-x,1/2+y,z
1/2+x,1/2-y,z
loop_
_atom_site_type_symbol
_atom_site_label
_atom_site_fract_x
_atom_site_fract_y
_atom_site_fract_z
Si Si1 0.608788 0.500000 0.657658
Si Si2 0.107804 0.616094 0.293967
Si Si3 0.868426 0.807564 0.099980
Si Si4 0.804833 0.500000 0.601648
Si Si5 0.900022 0.136690 0.710221
Si Si6 0.389486 0.755685 0.395063
Si Si7 0.153741 0.335949 0.899031
O O1 0.500000 0.500000 0.630771
O O2 0.695669 0.500000 0.592525
O O3 0.627788 0.435194 0.709421
O O4 0.160563 0.560507 0.343429
O O5 0.135053 0.682329 0.339299
O O6 0.127716 0.622580 0.186768
O O7 0.000000 0.607263 0.306528
O O8 0.904811 0.841524 0.187139
O O9 0.887255 0.733725 0.110299
O O10 0.761042 0.821844 0.102324
O O11 0.899424 0.826758 0.000000
O O12 0.843745 0.500000 0.500000
O O13 0.853725 0.192395 0.653270
O O14 0.000000 0.134271 0.668573
O O15 0.362253 0.758684 0.500000
O O16 0.500000 0.755028 0.392839
O O17 0.130392 0.359932 0.000000
#
# Coordination Sequence:
#
# PCOD9487554 Si02
#       7
#     8  16  16   8  16  16  16
#     4  10  24  44  66  88 120 164 208 258 315 372
#     4  11  22  39  63  92 128 166 204 256 312 372
#     4   9  17  31  54  85 123 164 204 252 305 359
#     4  12  27  45  65  91 122 164 213 256 310 380
#     4  10  19  35  58  86 119 156 199 254 312 367
#     4   9  18  33  55  84 117 153 196 248 307 368
#     4   9  18  33  56  87 123 164 206 249 302 362
#
# _framework density 20.558036000000001
#
# number of rings (size 3 to 8) (size 9 to 14) (size 15 to 20)
#    0.000    2.167    1.667    2.750    0.000    2.833 
#    0.000    4.167    0.000    8.500    0.000    0.000 
#    0.000    0.000    0.000    0.000    0.000    0.000 
#
# Total GULP energy -267507.135870 kJ/mol
# GULP energy per Si atom -5573.065331 kJ/mol
# Density = 2.051124 g / cm^3
# Si number density = 20.558036 Si / 1000 Ang^3
#
#
#
# Elastic Constant Matrix: (Units=GPa)
#
#
# Indices 1 2 3 4 5 6 
#
# 1 95.9558 21.9510 23.3438 0.0000 0.0000 0.0000
# 2 21.9510 139.0166 90.4986 0.0000 0.0000 0.0000
# 3 23.3438 90.4986 176.6299 0.0000 0.0000 0.0000
# 4 0.0000 0.0000 0.0000 -26.8384 0.0000 0.0000
# 5 0.0000 0.0000 0.0000 0.0000 9.1121 0.0000
# 6 0.0000 0.0000 0.0000 0.0000 0.0000 -14.5041
#
#
#
# Elastic Compliance Matrix: (Units=1/GPa)
#
#
# Indices 1 2 3 4 5 6 
#
# 1 0.010894 -0.001175 -0.000838 0.000000 0.000000 0.000000
# 2 -0.001175 0.010920 -0.005440 0.000000 0.000000 0.000000
# 3 -0.000838 -0.005440 0.008559 0.000000 0.000000 0.000000
# 4 0.000000 0.000000 0.000000 -0.037260 0.000000 0.000000
# 5 0.000000 0.000000 0.000000 0.000000 0.109744 0.000000
# 6 0.000000 0.000000 0.000000 0.000000 0.000000 -0.068946
#
#
# Mechanical properties :
#
#
# Convention : Reuss Voigt Hill
#
# Bulk Modulus (GPa) = 64.64647 75.90992 70.27820
# Shear Modulus (GPa) = 92.63921 11.94117 52.29019
#
# Velocity S-wave (km/s) = 6.72013 2.41270 5.04882
# Velocity P-wave (km/s) = 9.57745 6.69077 8.26117
#
# Compressibility (1/GPa) = 0.01546875
#
# Stress axis : x y z
#
# Youngs Moduli (GPa) = 91.79334 91.57370 116.82979
#
# Poissons Ratio (x) = 0.10757 0.09789
# Poissons Ratio (y) = 0.10783 0.63553
# Poissons Ratio (z) = 0.07691 0.49815
#
# Static dielectric constant tensor:
#      x y z
#    x 1.828010 0.000000 0.000000 
#    y 0.000000 1.712650 0.000000 
#    z 0.000000 0.000000 1.702940 
# 
# From -- ./inp_files/40405.got.cif
#   From: 2010.05.17/outbox.cif.g08.bks.cpg/sg65_21_cif.got.tgz:40405.got - 2010.06.03 17:01:31.
