data_PCOD9487774
_publ_section_title
;
Structure prediction by ZEFSAII (Michael W. Deem and Ramdas Pophale) SiO2 
 PCOD9487774
Probable space group: C M M M
;
_chemical_formula_sum "Si O2"
_cell_formula_units_Z 88
_cell_length_a 20.537391
_cell_length_b 17.133116
_cell_length_c 13.959867
_cell_angle_alpha 90.000000
_cell_angle_beta 90.000000
_cell_angle_gamma 90.000000
_cell_volume 4912.051454
_symmetry_space_group_name_H-M "C M M M"
_symmetry_group_IT_number 65
_symmetry_cell_setting 'orthorhombic'
loop_
_space_group_symop_operation_xyz
x,y,z
-x,-y,z
x,-y,-z
-x,y,-z
-x,-y,-z
x,y,-z
-x,y,z
x,-y,z
1/2+x,1/2+y,z
1/2-x,1/2-y,z
1/2+x,1/2-y,-z
1/2-x,1/2+y,-z
1/2-x,1/2-y,-z
1/2+x,1/2+y,-z
1/2-x,1/2+y,z
1/2+x,1/2-y,z
loop_
_atom_site_type_symbol
_atom_site_label
_atom_site_fract_x
_atom_site_fract_y
_atom_site_fract_z
Si Si1 0.112728 0.142767 0.753429
Si Si2 0.784647 0.082948 0.500000
Si Si3 0.119826 0.311509 0.300674
Si Si4 0.578011 0.500000 0.109147
Si Si5 0.000000 0.406121 0.614999
Si Si6 0.500000 0.593535 0.391574
Si Si7 0.741730 0.910239 0.710074
Si Si8 0.671394 0.257357 0.500000
O O1 0.102524 0.236047 0.764000
O O2 0.098456 0.079435 0.836312
O O3 0.063304 0.119469 0.668389
O O4 0.188952 0.129232 0.730956
O O5 0.740607 0.086980 0.405951
O O6 0.836989 0.150144 0.500000
O O7 0.819628 0.000000 0.500000
O O8 0.061639 0.368609 0.330763
O O9 0.180278 0.359972 0.257879
O O10 0.143321 0.276704 0.402933
O O11 0.500000 0.500000 0.109004
O O12 0.602139 0.500000 0.000000
O O13 0.000000 0.500000 0.621511
O O14 0.000000 0.386520 0.500000
O O15 0.500000 0.500000 0.394188
O O16 0.500000 0.624791 0.500000
O O17 0.741163 0.000000 0.744153
O O18 0.750000 0.250000 0.500000
#
# Coordination Sequence:
#
# PCOD9487774 Si02
#       8
#    16   8  16   8   8   8  16   8
#     4  12  21  38  59  89 117 153 203 240 300 364
#     4  10  20  30  44  71 111 162 202 234 282 356
#     4  12  23  35  55  78 118 157 209 263 302 335
#     4  11  24  46  68  90 122 157 190 237 303 384
#     4  11  25  41  53  72 115 178 234 258 281 331
#     4  11  23  35  49  79 125 157 185 231 281 344
#     4  11  21  34  53  79 115 157 202 247 295 350
#     4  12  18  33  45  74 110 154 204 247 297 332
#
# _framework density 17.915122
#
# number of rings (size 3 to 8) (size 9 to 14) (size 15 to 20)
#    0.000    0.636    7.273    1.636    2.545    0.727 
#    0.000    0.000    0.000    2.182    0.000    0.000 
#    0.000    0.727    0.000    0.000    0.000    0.000 
#
# Total GULP energy -245611.703891 kJ/mol
# GULP energy per Si atom -5582.084179 kJ/mol
# Density = 1.787435 g / cm^3
# Si number density = 17.915122 Si / 1000 Ang^3
#
#
#
# Elastic Constant Matrix: (Units=GPa)
#
#
# Indices 1 2 3 4 5 6 
#
# 1 117.3335 54.5204 26.7097 0.0000 0.0000 0.0000
# 2 54.5204 140.5410 25.3529 0.0000 0.0000 0.0000
# 3 26.7097 25.3529 62.5632 0.0000 0.0000 0.0000
# 4 0.0000 0.0000 0.0000 8.1666 0.0000 0.0000
# 5 0.0000 0.0000 0.0000 0.0000 7.2541 0.0000
# 6 0.0000 0.0000 0.0000 0.0000 0.0000 36.6019
#
#
#
# Elastic Compliance Matrix: (Units=1/GPa)
#
#
# Indices 1 2 3 4 5 6 
#
# 1 0.010956 -0.003675 -0.003188 0.000000 0.000000 0.000000
# 2 -0.003675 0.008909 -0.002041 0.000000 0.000000 0.000000
# 3 -0.003188 -0.002041 0.018172 0.000000 0.000000 0.000000
# 4 0.000000 0.000000 0.000000 0.122450 0.000000 0.000000
# 5 0.000000 0.000000 0.000000 0.000000 0.137854 0.000000
# 6 0.000000 0.000000 0.000000 0.000000 0.000000 0.027321
#
#
# Mechanical properties :
#
#
# Convention : Reuss Voigt Hill
#
# Bulk Modulus (GPa) = 49.43559 59.28930 54.36244
# Shear Modulus (GPa) = 14.27696 24.66148 19.46922
#
# Velocity S-wave (km/s) = 2.82604 3.71425 3.30016
# Velocity P-wave (km/s) = 6.18894 7.18057 6.70311
#
# Compressibility (1/GPa) = 0.02022834
#
# Stress axis : x y z
#
# Youngs Moduli (GPa) = 91.27297 112.24200 55.02918
#
# Poissons Ratio (x) = 0.41250 0.17544
# Poissons Ratio (y) = 0.33544 0.11234
# Poissons Ratio (z) = 0.29099 0.22913
#
# Static dielectric constant tensor:
#      x y z
#    x 1.638070 0.000000 0.000000 
#    y 0.000000 1.709260 0.000000 
#    z 0.000000 0.000000 1.602770 
# 
# From -- ./inp_files/42612.got.cif
#   From: 2010.05.17/outbox.cif.g08.bks.cpg/sg65_22_cif.got.tgz:42612.got - 2010.06.03 17:01:31.
