data_PCOD9487638
_publ_section_title
;
Structure prediction by ZEFSAII (Michael W. Deem and Ramdas Pophale) SiO2 
 PCOD9487638
Probable space group: C M M M
;
_chemical_formula_sum "Si O2"
_cell_formula_units_Z 104
_cell_length_a 7.517563
_cell_length_b 23.215011
_cell_length_c 27.123539
_cell_angle_alpha 90.000000
_cell_angle_beta 90.000000
_cell_angle_gamma 90.000000
_cell_volume 4733.608373
_symmetry_space_group_name_H-M "C M M M"
_symmetry_group_IT_number 65
_symmetry_cell_setting 'orthorhombic'
loop_
_space_group_symop_operation_xyz
x,y,z
-x,-y,z
x,-y,-z
-x,y,-z
-x,-y,-z
x,y,-z
-x,y,z
x,-y,z
1/2+x,1/2+y,z
1/2-x,1/2-y,z
1/2+x,1/2-y,-z
1/2-x,1/2+y,-z
1/2-x,1/2-y,-z
1/2+x,1/2+y,-z
1/2-x,1/2+y,z
1/2+x,1/2-y,z
loop_
_atom_site_type_symbol
_atom_site_label
_atom_site_fract_x
_atom_site_fract_y
_atom_site_fract_z
Si Si1 0.299095 0.500000 0.903452
Si Si2 0.713723 0.683197 0.802586
Si Si3 0.208527 0.316353 0.000000
Si Si4 0.707017 0.394672 0.280222
Si Si5 0.708324 0.621395 0.900862
Si Si6 0.713266 0.315089 0.556423
Si Si7 0.286132 0.000000 0.790367
Si Si8 0.782273 0.066795 0.612363
O O1 0.500000 0.500000 0.924646
O O2 0.210242 0.439816 0.915627
O O3 0.299013 0.500000 0.843953
O O4 0.500000 0.675465 0.801471
O O5 0.750000 0.750000 0.808784
O O6 0.783695 0.659113 0.750320
O O7 0.782862 0.649334 0.850881
O O8 0.250000 0.250000 0.000000
O O9 0.282776 0.340163 0.948921
O O10 0.000000 0.327713 0.000000
O O11 0.500000 0.382069 0.290822
O O12 0.723667 0.445238 0.240464
O O13 0.778674 0.418194 0.331879
O O14 0.500000 0.610423 0.889987
O O15 0.780460 0.314408 0.500000
O O16 0.500000 0.319042 0.555739
O O17 0.750000 0.250000 0.577491
O O18 0.773126 0.375636 0.581621
O O19 0.500000 0.000000 0.794672
O O20 0.000000 0.065139 0.610654
O O21 0.727556 0.000000 0.599520
#
# Coordination Sequence:
#
# PCOD9487638 Si02
#       8
#     8  16   8  16  16  16   8  16
#     4  10  20  39  65  88 113 147 185 220 265 331
#     4  10  21  35  55  80 108 141 181 226 269 320
#     4  12  26  43  62  83 113 148 184 228 277 328
#     4  10  19  36  57  76 105 149 190 221 268 336
#     4  10  21  39  63  87 109 142 186 225 270 325
#     4   9  18  33  53  79 110 146 189 233 284 342
#     4  12  22  32  53  85 115 143 179 225 273 320
#     4   9  17  30  55  83 105 140 190 241 283 328
#
# _framework density 21.970555000000001
#
# number of rings (size 3 to 8) (size 9 to 14) (size 15 to 20)
#    0.000    2.000    2.308    1.846    0.000    4.308 
#    0.000    3.846    0.000    0.000    0.000    2.154 
#    0.000    0.000    0.000    0.000    0.000    0.000 
#
# Total GULP energy -289867.623487 kJ/mol
# GULP energy per Si atom -5574.377375 kJ/mol
# Density = 2.192055 g / cm^3
# Si number density = 21.970555 Si / 1000 Ang^3
#
#
#
# Elastic Constant Matrix: (Units=GPa)
#
#
# Indices 1 2 3 4 5 6 
#
# 1 65.6939 -5.9025 -4.6498 0.0000 0.0000 0.0000
# 2 -5.9025 209.1707 65.0961 0.0000 0.0000 0.0000
# 3 -4.6498 65.0961 75.0462 0.0000 0.0000 0.0000
# 4 0.0000 0.0000 0.0000 -41.2633 0.0000 0.0000
# 5 0.0000 0.0000 0.0000 0.0000 4.3135 0.0000
# 6 0.0000 0.0000 0.0000 0.0000 0.0000 17.5915
#
#
#
# Elastic Compliance Matrix: (Units=1/GPa)
#
#
# Indices 1 2 3 4 5 6 
#
# 1 0.015295 0.000187 0.000785 0.000000 0.000000 0.000000
# 2 0.000187 0.006551 -0.005671 0.000000 0.000000 0.000000
# 3 0.000785 -0.005671 0.018293 0.000000 0.000000 0.000000
# 4 0.000000 0.000000 0.000000 -0.024235 0.000000 0.000000
# 5 0.000000 0.000000 0.000000 0.000000 0.231829 0.000000
# 6 0.000000 0.000000 0.000000 0.000000 0.000000 0.056846
#
#
# Mechanical properties :
#
#
# Convention : Reuss Voigt Hill
#
# Bulk Modulus (GPa) = 32.52932 50.99983 41.76457
# Shear Modulus (GPa) = 15.42156 15.81949 15.62053
#
# Velocity S-wave (km/s) = 2.65225 2.68625 2.66931
# Velocity P-wave (km/s) = 4.92110 5.73450 5.34330
#
# Compressibility (1/GPa) = 0.03074150
#
# Stress axis : x y z
#
# Youngs Moduli (GPa) = 65.38293 152.65200 54.66686
#
# Poissons Ratio (x) = -0.02858 -0.04293
# Poissons Ratio (y) = -0.01224 0.31000
# Poissons Ratio (z) = -0.05134 0.86564
#
# Static dielectric constant tensor:
#      x y z
#    x 1.866710 0.000000 0.000000 
#    y 0.000000 1.833440 0.000000 
#    z 0.000000 0.000000 1.773830 
# 
# From -- ./inp_files/73387.got.cif
#   From: 2010.05.17/outbox.cif.g08.bks.cpg/sg65_37_cif.got.tgz:73387.got - 2010.06.03 17:01:31.
