data_PCOD9487515
_publ_section_title
;
Structure prediction by ZEFSAII (Michael W. Deem and Ramdas Pophale) SiO2 
 PCOD9487515
Probable space group: C M M M
;
_chemical_formula_sum "Si O2"
_cell_formula_units_Z 72
_cell_length_a 24.058200
_cell_length_b 18.227383
_cell_length_c 7.535667
_cell_angle_alpha 90.000000
_cell_angle_beta 90.000000
_cell_angle_gamma 90.000000
_cell_volume 3304.525815
_symmetry_space_group_name_H-M "C M M M"
_symmetry_group_IT_number 65
_symmetry_cell_setting 'orthorhombic'
loop_
_space_group_symop_operation_xyz
x,y,z
-x,-y,z
x,-y,-z
-x,y,-z
-x,-y,-z
x,y,-z
-x,y,z
x,-y,z
1/2+x,1/2+y,z
1/2-x,1/2-y,z
1/2+x,1/2-y,-z
1/2-x,1/2+y,-z
1/2-x,1/2-y,-z
1/2+x,1/2+y,-z
1/2-x,1/2+y,z
1/2+x,1/2-y,z
loop_
_atom_site_type_symbol
_atom_site_label
_atom_site_fract_x
_atom_site_fract_y
_atom_site_fract_z
Si Si1 0.936633 0.500000 0.217210
Si Si2 0.562952 0.280173 0.286046
Si Si3 0.135421 0.362662 0.209040
Si Si4 0.364882 0.416606 0.282779
Si Si5 0.742677 0.330642 0.295616
O O1 0.904227 0.572573 0.274990
O O2 0.000000 0.500000 0.277385
O O3 0.937567 0.500000 0.000000
O O4 0.561301 0.281123 0.500000
O O5 0.500000 0.267669 0.221480
O O6 0.604677 0.214797 0.236107
O O7 0.588325 0.358084 0.228279
O O8 0.196335 0.364954 0.292234
O O9 0.143747 0.373184 0.000000
O O10 0.365177 0.419066 0.500000
O O11 0.372522 0.500000 0.222018
O O12 0.305747 0.382344 0.223155
O O13 0.725305 0.317541 0.500000
O O14 0.750000 0.250000 0.211326
#
# Coordination Sequence:
#
# PCOD9487515 Si02
#       5
#     8  16  16  16  16
#     4   9  20  38  55  75 109 149 182 219 270 326
#     4  10  20  36  58  82 109 142 183 228 271 321
#     4  11  22  36  57  82 109 143 184 227 271 327
#     4   9  18  33  54  82 113 146 181 220 271 324
#     4  10  19  35  57  79 110 145 178 223 274 322
#
# _framework density 21.7883
#
# number of rings (size 3 to 8) (size 9 to 14) (size 15 to 20)
#    0.000    2.111    2.222    1.333    1.556    2.222 
#    0.000    3.889    0.000    6.000    0.000    1.556 
#    0.000    0.000    0.000    0.000    0.000    0.000 
#
# Total GULP energy -201116.399517 kJ/mol
# GULP energy per Si atom -5586.566653 kJ/mol
# Density = 2.173871 g / cm^3
# Si number density = 21.788300 Si / 1000 Ang^3
#
#
#
# Elastic Constant Matrix: (Units=GPa)
#
#
# Indices 1 2 3 4 5 6 
#
# 1 74.8630 -7.4679 -11.4938 0.0000 0.0000 0.0000
# 2 -7.4679 97.8597 -3.9401 0.0000 0.0000 0.0000
# 3 -11.4938 -3.9401 54.0590 0.0000 0.0000 0.0000
# 4 0.0000 0.0000 0.0000 9.7789 0.0000 0.0000
# 5 0.0000 0.0000 0.0000 0.0000 -21.8368 0.0000
# 6 0.0000 0.0000 0.0000 0.0000 0.0000 33.7451
#
#
#
# Elastic Compliance Matrix: (Units=1/GPa)
#
#
# Indices 1 2 3 4 5 6 
#
# 1 0.013945 0.001187 0.003051 0.000000 0.000000 0.000000
# 2 0.001187 0.010350 0.001007 0.000000 0.000000 0.000000
# 3 0.003051 0.001007 0.019220 0.000000 0.000000 0.000000
# 4 0.000000 0.000000 0.000000 0.102261 0.000000 0.000000
# 5 0.000000 0.000000 0.000000 0.000000 -0.045794 0.000000
# 6 0.000000 0.000000 0.000000 0.000000 0.000000 0.029634
#
#
# Mechanical properties :
#
#
# Convention : Reuss Voigt Hill
#
# Bulk Modulus (GPa) = 18.51679 20.10869 19.31274
# Shear Modulus (GPa) = 36.46248 20.98301 28.72274
#
# Velocity S-wave (km/s) = 4.09527 3.10666 3.63473
# Velocity P-wave (km/s) = 5.55685 4.70293 5.14763
#
# Compressibility (1/GPa) = 0.05400504
#
# Stress axis : x y z
#
# Youngs Moduli (GPa) = 71.71222 96.61996 52.02794
#
# Poissons Ratio (x) = -0.11469 -0.15876
# Poissons Ratio (y) = -0.08512 -0.05238
# Poissons Ratio (z) = -0.21882 -0.09727
#
# Static dielectric constant tensor:
#      x y z
#    x 1.766860 0.000000 0.000000 
#    y 0.000000 1.772010 0.000000 
#    z 0.000000 0.000000 1.846290 
# 
# From -- ./inp_files/7232.got.cif
#   From: 2010.05.17/outbox.cif.g08.bks.cpg/sg65_4_cif.got.tgz:7232.got - 2010.06.03 17:01:31.
