data_PCOD9487531
_publ_section_title
;
Structure prediction by ZEFSAII (Michael W. Deem and Ramdas Pophale) SiO2 
 PCOD9487531
Probable space group: C M M M
;
_chemical_formula_sum "Si O2"
_cell_formula_units_Z 116
_cell_length_a 26.537088
_cell_length_b 16.725030
_cell_length_c 12.863325
_cell_angle_alpha 90.000000
_cell_angle_beta 90.000000
_cell_angle_gamma 90.000000
_cell_volume 5709.175752
_symmetry_space_group_name_H-M "C M M M"
_symmetry_group_IT_number 65
_symmetry_cell_setting 'orthorhombic'
loop_
_space_group_symop_operation_xyz
x,y,z
-x,-y,z
x,-y,-z
-x,y,-z
-x,-y,-z
x,y,-z
-x,y,z
x,-y,z
1/2+x,1/2+y,z
1/2-x,1/2-y,z
1/2+x,1/2-y,-z
1/2-x,1/2+y,-z
1/2-x,1/2-y,-z
1/2+x,1/2+y,-z
1/2-x,1/2+y,z
1/2+x,1/2-y,z
loop_
_atom_site_type_symbol
_atom_site_label
_atom_site_fract_x
_atom_site_fract_y
_atom_site_fract_z
Si Si1 0.939766 0.178931 0.612599
Si Si2 0.847098 0.817657 0.887287
Si Si3 0.600832 0.145011 0.661667
Si Si4 0.059365 0.596503 0.116895
Si Si5 0.748828 0.908209 0.884442
Si Si6 0.201074 0.294171 0.714646
Si Si7 0.418294 0.000000 0.500000
Si Si8 0.559405 0.406337 0.821549
O O1 0.918434 0.156614 0.500000
O O2 0.925154 0.270517 0.635566
O O3 0.926445 0.117257 0.703161
O O4 0.000000 0.176521 0.607923
O O5 0.808646 0.892368 0.882108
O O6 0.831288 0.765834 0.787823
O O7 0.903705 0.848874 0.883892
O O8 0.837362 0.778417 0.000000
O O9 0.589839 0.127735 0.783799
O O10 0.660474 0.160702 0.644501
O O11 0.582391 0.071356 0.591180
O O12 0.062522 0.500000 0.117933
O O13 0.000000 0.617644 0.129751
O O14 0.075135 0.622935 0.000000
O O15 0.724245 0.855672 0.796552
O O16 0.736773 0.000000 0.869115
O O17 0.731645 0.884224 0.000000
O O18 0.250000 0.250000 0.666601
O O19 0.500000 0.389986 0.837971
O O20 0.567712 0.500000 0.842220
#
# Coordination Sequence:
#
# PCOD9487531 Si02
#       8
#    16  16  16  16  16  16   4  16
#     4  10  21  39  62  87 118 157 198 250 307 361
#     4  10  19  35  57  85 122 162 198 243 301 361
#     4  12  22  42  62  90 130 162 206 254 308 365
#     4   9  19  36  58  88 129 172 209 246 293 357
#     4   9  18  32  53  85 118 152 197 247 297 352
#     4  10  22  38  60  84 111 160 204 255 303 363
#     4  12  28  40  65 102 122 162 204 254 309 378
#     4  10  21  37  58  86 117 154 203 254 304 363
#
# _framework density 20.318169000000001
#
# number of rings (size 3 to 8) (size 9 to 14) (size 15 to 20)
#    0.000    1.931    2.759    1.655    0.966    4.138 
#    0.000    5.172    0.000    0.000    0.000    0.000 
#    0.000    0.000    0.000    0.000    0.000    0.000 
#
# Total GULP energy -322966.704776 kJ/mol
# GULP energy per Si atom -5568.391462 kJ/mol
# Density = 2.027192 g / cm^3
# Si number density = 20.318169 Si / 1000 Ang^3
#
#
#
# Elastic Constant Matrix: (Units=GPa)
#
#
# Indices 1 2 3 4 5 6 
#
# 1 44.8777 12.7259 12.4670 0.0000 0.0000 0.0000
# 2 12.7259 29.7786 -0.3899 0.0000 0.0000 0.0000
# 3 12.4670 -0.3899 67.6448 0.0000 0.0000 0.0000
# 4 0.0000 0.0000 0.0000 -199.7860 0.0000 0.0000
# 5 0.0000 0.0000 0.0000 0.0000 7.6263 0.0000
# 6 0.0000 0.0000 0.0000 0.0000 0.0000 20.8137
#
#
#
# Elastic Compliance Matrix: (Units=1/GPa)
#
#
# Indices 1 2 3 4 5 6 
#
# 1 0.026969 -0.011591 -0.005037 0.000000 0.000000 0.000000
# 2 -0.011591 0.038565 0.002359 0.000000 0.000000 0.000000
# 3 -0.005037 0.002359 0.015725 0.000000 0.000000 0.000000
# 4 0.000000 0.000000 0.000000 -0.005005 0.000000 0.000000
# 5 0.000000 0.000000 0.000000 0.000000 0.131126 0.000000
# 6 0.000000 0.000000 0.000000 0.000000 0.000000 0.048045
#
#
# Mechanical properties :
#
#
# Convention : Reuss Voigt Hill
#
# Bulk Modulus (GPa) = 18.96818 21.32302 20.14560
# Shear Modulus (GPa) = 16.58166 -26.43600 -4.92717
#
# Velocity S-wave (km/s) = 2.85985 -3.61099 -1.55893
# Velocity P-wave (km/s) = 4.50120 2.62075 2.58771
#
# Compressibility (1/GPa) = 0.05271988
#
# Stress axis : x y z
#
# Youngs Moduli (GPa) = 37.07961 25.92993 63.59281
#
# Poissons Ratio (x) = 0.30056 0.32033
# Poissons Ratio (y) = 0.42980 -0.14999
# Poissons Ratio (z) = 0.18678 -0.06116
#
# Static dielectric constant tensor:
#      x y z
#    x 1.755810 0.000000 0.000000 
#    y 0.000000 1.693380 0.000000 
#    z 0.000000 0.000000 1.768940 
# 
# From -- ./inp_files/32622.got.cif
#   From: 2010.05.17/outbox.cif.g08.bks.cpg/sg65_17_cif.got.tgz:32622.got - 2010.06.03 17:01:31.
