data_PCOD9487802
_publ_section_title
;
Structure prediction by ZEFSAII (Michael W. Deem and Ramdas Pophale) SiO2 
 PCOD9487802
Probable space group: C M M M
;
_chemical_formula_sum "Si O2"
_cell_formula_units_Z 72
_cell_length_a 14.677824
_cell_length_b 37.418742
_cell_length_c 7.969490
_cell_angle_alpha 90.000000
_cell_angle_beta 90.000000
_cell_angle_gamma 90.000000
_cell_volume 4377.048799
_symmetry_space_group_name_H-M "C M M M"
_symmetry_group_IT_number 65
_symmetry_cell_setting 'orthorhombic'
loop_
_space_group_symop_operation_xyz
x,y,z
-x,-y,z
x,-y,-z
-x,y,-z
-x,-y,-z
x,y,-z
-x,y,z
x,-y,z
1/2+x,1/2+y,z
1/2-x,1/2-y,z
1/2+x,1/2-y,-z
1/2-x,1/2+y,-z
1/2-x,1/2-y,-z
1/2+x,1/2+y,-z
1/2-x,1/2+y,z
1/2+x,1/2-y,z
loop_
_atom_site_type_symbol
_atom_site_label
_atom_site_fract_x
_atom_site_fract_y
_atom_site_fract_z
Si Si1 0.610430 0.459307 0.500000
Si Si2 0.279430 0.342738 0.695268
Si Si3 0.396009 0.195477 0.703086
Si Si4 0.393566 0.724006 0.800958
Si Si5 0.892208 0.090615 0.810677
O O1 0.644310 0.500000 0.500000
O O2 0.500000 0.460821 0.500000
O O3 0.635645 0.437350 0.666942
O O4 0.274625 0.353255 0.500000
O O5 0.178245 0.333372 0.759199
O O6 0.334381 0.305627 0.709628
O O7 0.333852 0.373488 0.790172
O O8 0.395146 0.195683 0.500000
O O9 0.500000 0.189101 0.759334
O O10 0.368135 0.235151 0.761374
O O11 0.500000 0.720137 0.753540
O O12 0.385131 0.718141 0.000000
O O13 0.000000 0.099080 0.785851
O O14 0.882218 0.076487 0.000000
#
# Coordination Sequence:
#
# PCOD9487802 Si02
#       5
#     8  16  16  16  16
#     4   9  18  34  54  76 104 135 163 189 222 274
#     4  11  20  30  47  67  91 125 162 203 249 290
#     4   9  19  34  47  61  85 120 164 210 252 294
#     4  10  20  31  43  62  88 120 160 205 250 294
#     4  10  20  33  50  75 105 133 162 196 233 277
#
# _framework density 16.449439000000002
#
# number of rings (size 3 to 8) (size 9 to 14) (size 15 to 20)
#    0.000    2.111    1.111    2.667    0.000    8.889 
#    0.000    2.222    0.000    0.000    0.000    0.000 
#    0.000    1.778    0.000    2.000    0.000    0.222 
#
# Total GULP energy -200904.506860 kJ/mol
# GULP energy per Si atom -5580.680746 kJ/mol
# Density = 1.641200 g / cm^3
# Si number density = 16.449439 Si / 1000 Ang^3
#
#
#
# Elastic Constant Matrix: (Units=GPa)
#
#
# Indices 1 2 3 4 5 6 
#
# 1 54.1418 46.2413 28.0516 0.0000 0.0000 0.0000
# 2 46.2413 87.4054 38.6273 0.0000 0.0000 0.0000
# 3 28.0516 38.6273 65.2187 0.0000 0.0000 0.0000
# 4 0.0000 0.0000 0.0000 3.4646 0.0000 0.0000
# 5 0.0000 0.0000 0.0000 0.0000 8.8990 0.0000
# 6 0.0000 0.0000 0.0000 0.0000 0.0000 14.0547
#
#
#
# Elastic Compliance Matrix: (Units=1/GPa)
#
#
# Indices 1 2 3 4 5 6 
#
# 1 0.035120 -0.016125 -0.005555 0.000000 0.000000 0.000000
# 2 -0.016125 0.022901 -0.006628 0.000000 0.000000 0.000000
# 3 -0.005555 -0.006628 0.021648 0.000000 0.000000 0.000000
# 4 0.000000 0.000000 0.000000 0.288633 0.000000 0.000000
# 5 0.000000 0.000000 0.000000 0.000000 0.112372 0.000000
# 6 0.000000 0.000000 0.000000 0.000000 0.000000 0.071151
#
#
# Mechanical properties :
#
#
# Convention : Reuss Voigt Hill
#
# Bulk Modulus (GPa) = 43.37921 48.06735 45.72328
# Shear Modulus (GPa) = 8.11523 11.54006 9.82764
#
# Velocity S-wave (km/s) = 2.22354 2.65155 2.44692
# Velocity P-wave (km/s) = 5.74636 6.21763 5.98664
#
# Compressibility (1/GPa) = 0.02305252
#
# Stress axis : x y z
#
# Youngs Moduli (GPa) = 28.47350 43.66633 46.19362
#
# Poissons Ratio (x) = 0.70413 0.25662
# Poissons Ratio (y) = 0.45914 0.30617
# Poissons Ratio (z) = 0.15818 0.28942
#
# Static dielectric constant tensor:
#      x y z
#    x 1.571840 0.000000 0.000000 
#    y 0.000000 1.519360 0.000000 
#    z 0.000000 0.000000 1.586600 
# 
# From -- ./inp_files/7693.got.cif
#   From: 2010.05.17/outbox.cif.g08.bks.cpg/sg65_4_cif.got.tgz:7693.got - 2010.06.03 17:01:31.
