data_PCOD9487294
_publ_section_title
;
Structure prediction by ZEFSAII (Michael W. Deem and Ramdas Pophale) SiO2 
 PCOD9487294
Probable space group: C M M M
;
_chemical_formula_sum "Si O2"
_cell_formula_units_Z 88
_cell_length_a 8.304300
_cell_length_b 18.477223
_cell_length_c 30.768692
_cell_angle_alpha 90.000000
_cell_angle_beta 90.000000
_cell_angle_gamma 90.000000
_cell_volume 4721.160499
_symmetry_space_group_name_H-M "C M M M"
_symmetry_group_IT_number 65
_symmetry_cell_setting 'orthorhombic'
loop_
_space_group_symop_operation_xyz
x,y,z
-x,-y,z
x,-y,-z
-x,y,-z
-x,-y,-z
x,y,-z
-x,y,z
x,-y,z
1/2+x,1/2+y,z
1/2-x,1/2-y,z
1/2+x,1/2-y,-z
1/2-x,1/2+y,-z
1/2-x,1/2-y,-z
1/2+x,1/2+y,-z
1/2-x,1/2+y,z
1/2+x,1/2-y,z
loop_
_atom_site_type_symbol
_atom_site_label
_atom_site_fract_x
_atom_site_fract_y
_atom_site_fract_z
Si Si1 0.811123 0.915620 0.305815
Si Si2 0.307656 0.913096 0.952751
Si Si3 0.690666 0.415116 0.140133
Si Si4 0.000000 0.088263 0.449531
Si Si5 0.688439 0.831325 0.223074
Si Si6 0.679786 0.088202 0.601939
O O1 0.777119 0.870800 0.262762
O O2 0.711316 0.891192 0.347897
O O3 0.000000 0.911842 0.317339
O O4 0.772264 0.000000 0.297274
O O5 0.500000 0.902512 0.950157
O O6 0.229217 0.886437 0.908270
O O7 0.279409 0.000000 0.953511
O O8 0.251527 0.884885 0.000000
O O9 0.500000 0.410897 0.147611
O O10 0.738337 0.500000 0.141730
O O11 0.778309 0.372525 0.178104
O O12 0.834421 0.112256 0.426084
O O13 0.000000 0.108916 0.500000
O O14 0.000000 0.000000 0.447431
O O15 0.500000 0.832020 0.232623
O O16 0.750000 0.750000 0.219081
O O17 0.500000 0.111285 0.587891
O O18 0.681546 0.000000 0.600777
#
# Coordination Sequence:
#
# PCOD9487294 Si02
#       6
#    16  16  16   8  16  16
#     4  10  19  34  56  79 105 138 176 220 266 315
#     4   8  14  26  46  73 103 133 167 210 255 298
#     4  10  20  34  53  78 107 138 174 213 257 312
#     4   9  16  26  40  64 102 142 176 216 266 316
#     4  12  25  39  54  74 103 138 174 219 268 320
#     4   9  16  27  44  68  98 136 179 218 262 314
#
# _framework density 18.639485000000001
#
# number of rings (size 3 to 8) (size 9 to 14) (size 15 to 20)
#    0.000    2.273    0.909    3.818    0.000    5.091 
#    0.000    3.636    0.000    0.545    0.000    0.000 
#    0.000    0.727    0.364    0.000    0.000    0.000 
#
# Total GULP energy -245405.038652 kJ/mol
# GULP energy per Si atom -5577.387242 kJ/mol
# Density = 1.859706 g / cm^3
# Si number density = 18.639485 Si / 1000 Ang^3
#
#
#
# Elastic Constant Matrix: (Units=GPa)
#
#
# Indices 1 2 3 4 5 6 
#
# 1 80.3812 15.3558 42.3513 0.0000 0.0000 0.0000
# 2 15.3558 27.9858 23.3105 0.0000 0.0000 0.0000
# 3 42.3513 23.3105 102.2028 0.0000 0.0000 0.0000
# 4 0.0000 0.0000 0.0000 -6.4382 0.0000 0.0000
# 5 0.0000 0.0000 0.0000 0.0000 27.9010 0.0000
# 6 0.0000 0.0000 0.0000 0.0000 0.0000 14.6862
#
#
#
# Elastic Compliance Matrix: (Units=1/GPa)
#
#
# Indices 1 2 3 4 5 6 
#
# 1 0.016287 -0.004093 -0.005816 0.000000 0.000000 0.000000
# 2 -0.004093 0.045141 -0.008600 0.000000 0.000000 0.000000
# 3 -0.005816 -0.008600 0.014156 0.000000 0.000000 0.000000
# 4 0.000000 0.000000 0.000000 -0.155322 0.000000 0.000000
# 5 0.000000 0.000000 0.000000 0.000000 0.035841 0.000000
# 6 0.000000 0.000000 0.000000 0.000000 0.000000 0.068091
#
#
# Mechanical properties :
#
#
# Convention : Reuss Voigt Hill
#
# Bulk Modulus (GPa) = 25.92841 41.40057 33.66449
# Shear Modulus (GPa) = 67.50749 15.86660 41.68704
#
# Velocity S-wave (km/s) = 6.02462 2.92076 4.73429
# Velocity P-wave (km/s) = 7.89528 5.79947 6.92710
#
# Compressibility (1/GPa) = 0.03856773
#
# Stress axis : x y z
#
# Youngs Moduli (GPa) = 61.40007 22.15266 70.64232
#
# Poissons Ratio (x) = 0.09066 0.41082
# Poissons Ratio (y) = 0.25128 0.60752
# Poissons Ratio (z) = 0.35707 0.19051
#
# Static dielectric constant tensor:
#      x y z
#    x 1.657550 0.000000 0.000000 
#    y 0.000000 1.607410 0.000000 
#    z 0.000000 0.000000 1.644490 
# 
# From -- ./inp_files/76631.got.cif
#   From: 2010.05.17/outbox.cif.g08.bks.cpg/sg65_39_cif.got.tgz:76631.got - 2010.06.03 17:01:31.
