data_PCOD9487867
_publ_section_title
;
Structure prediction by ZEFSAII (Michael W. Deem and Ramdas Pophale) SiO2 
 PCOD9487867
Probable space group: C M M M
;
_chemical_formula_sum "Si O2"
_cell_formula_units_Z 104
_cell_length_a 8.748420
_cell_length_b 31.048116
_cell_length_c 23.695489
_cell_angle_alpha 90.000000
_cell_angle_beta 90.000000
_cell_angle_gamma 90.000000
_cell_volume 6436.215141
_symmetry_space_group_name_H-M "C M M M"
_symmetry_group_IT_number 65
_symmetry_cell_setting 'orthorhombic'
loop_
_space_group_symop_operation_xyz
x,y,z
-x,-y,z
x,-y,-z
-x,y,-z
-x,-y,-z
x,y,-z
-x,y,z
x,-y,z
1/2+x,1/2+y,z
1/2-x,1/2-y,z
1/2+x,1/2-y,-z
1/2-x,1/2+y,-z
1/2-x,1/2-y,-z
1/2+x,1/2+y,-z
1/2-x,1/2+y,z
1/2+x,1/2-y,z
loop_
_atom_site_type_symbol
_atom_site_label
_atom_site_fract_x
_atom_site_fract_y
_atom_site_fract_z
Si Si1 0.315720 0.824170 0.061701
Si Si2 0.816721 0.294696 0.814744
Si Si3 0.819005 0.088617 0.896517
Si Si4 0.822262 0.552117 0.437771
Si Si5 0.318049 0.550677 0.318927
Si Si6 0.816712 0.388370 0.223420
Si Si7 0.327537 0.000000 0.066951
O O1 0.500000 0.822464 0.062306
O O2 0.261812 0.802026 0.120038
O O3 0.263325 0.873509 0.068701
O O4 0.263197 0.807741 0.000000
O O5 0.750000 0.250000 0.793332
O O6 0.778367 0.337220 0.778300
O O7 0.000000 0.291813 0.816505
O O8 0.766606 0.093913 0.832021
O O9 0.000000 0.093239 0.902163
O O10 0.762343 0.042373 0.915701
O O11 0.770058 0.567149 0.500000
O O12 0.819762 0.500000 0.439567
O O13 0.725733 0.563653 0.382890
O O14 0.000000 0.564828 0.430379
O O15 0.500000 0.552743 0.311103
O O16 0.271841 0.500000 0.310523
O O17 0.236829 0.583260 0.276058
O O18 0.000000 0.391826 0.216716
O O19 0.500000 0.000000 0.091210
O O20 0.339672 0.000000 0.000000
#
# Coordination Sequence:
#
# PCOD9487867 Si02
#       7
#    16  16  16  16  16  16   8
#     4   9  18  34  52  69  93 122 150 181 226 292
#     4   9  19  34  52  73  94 120 154 194 242 294
#     4  11  22  34  49  69  92 116 150 199 244 280
#     4   8  14  26  44  66  95 134 176 208 236 277
#     4  10  20  31  46  72 104 134 168 209 248 280
#     4  10  21  37  53  69  94 129 165 196 237 294
#     4  11  23  37  51  65  85 119 158 191 232 289
#
# _framework density 16.158563999999998
#
# number of rings (size 3 to 8) (size 9 to 14) (size 15 to 20)
#    0.000    2.385    0.000    4.385    1.077    7.385 
#    0.000    1.538    0.000    0.000    0.000    0.000 
#    0.000    0.615    0.000    2.000    0.000    2.462 
#
# Total GULP energy -289834.297292 kJ/mol
# GULP energy per Si atom -5573.736486 kJ/mol
# Density = 1.612179 g / cm^3
# Si number density = 16.158564 Si / 1000 Ang^3
#
#
#
# Elastic Constant Matrix: (Units=GPa)
#
#
# Indices 1 2 3 4 5 6 
#
# 1 17.3821 10.0069 10.5972 0.0000 0.0000 0.0000
# 2 10.0069 85.1025 27.1212 0.0000 0.0000 0.0000
# 3 10.5972 27.1212 70.0122 0.0000 0.0000 0.0000
# 4 0.0000 0.0000 0.0000 6.1386 0.0000 0.0000
# 5 0.0000 0.0000 0.0000 0.0000 78.1420 0.0000
# 6 0.0000 0.0000 0.0000 0.0000 0.0000 24.0058
#
#
#
# Elastic Compliance Matrix: (Units=1/GPa)
#
#
# Indices 1 2 3 4 5 6 
#
# 1 0.065312 -0.005167 -0.007884 0.000000 0.000000 0.000000
# 2 -0.005167 0.013814 -0.004569 0.000000 0.000000 0.000000
# 3 -0.007884 -0.004569 0.017247 0.000000 0.000000 0.000000
# 4 0.000000 0.000000 0.000000 0.162905 0.000000 0.000000
# 5 0.000000 0.000000 0.000000 0.000000 0.012797 0.000000
# 6 0.000000 0.000000 0.000000 0.000000 0.000000 0.041657
#
#
# Mechanical properties :
#
#
# Convention : Reuss Voigt Hill
#
# Bulk Modulus (GPa) = 16.35812 29.77191 23.06501
# Shear Modulus (GPa) = 13.53732 29.97539 21.75636
#
# Velocity S-wave (km/s) = 2.89758 4.31173 3.67335
# Velocity P-wave (km/s) = 4.61954 6.57669 5.68300
#
# Compressibility (1/GPa) = 0.06113173
#
# Stress axis : x y z
#
# Youngs Moduli (GPa) = 15.31117 72.38882 57.98253
#
# Poissons Ratio (x) = 0.37405 0.45714
# Poissons Ratio (y) = 0.07912 0.26494
# Poissons Ratio (z) = 0.12071 0.33076
#
# Static dielectric constant tensor:
#      x y z
#    x 1.546000 0.000000 0.000000 
#    y 0.000000 1.559730 0.000000 
#    z 0.000000 0.000000 1.557650 
# 
# From -- ./inp_files/68175.got.cif
#   From: 2010.05.17/outbox.cif.g08.bks.cpg/sg65_35_cif.got.tgz:68175.got - 2010.06.03 17:01:31.
