data_PCOD9487234
_publ_section_title
;
Structure prediction by ZEFSAII (Michael W. Deem and Ramdas Pophale) SiO2 
 PCOD9487234
Probable space group: C M M M
;
_chemical_formula_sum "Si O2"
_cell_formula_units_Z 104
_cell_length_a 7.806156
_cell_length_b 29.639867
_cell_length_c 25.811984
_cell_angle_alpha 90.000000
_cell_angle_beta 90.000000
_cell_angle_gamma 90.000000
_cell_volume 5972.207160
_symmetry_space_group_name_H-M "C M M M"
_symmetry_group_IT_number 65
_symmetry_cell_setting 'orthorhombic'
loop_
_space_group_symop_operation_xyz
x,y,z
-x,-y,z
x,-y,-z
-x,y,-z
-x,-y,-z
x,y,-z
-x,y,z
x,-y,z
1/2+x,1/2+y,z
1/2-x,1/2-y,z
1/2+x,1/2-y,-z
1/2-x,1/2+y,-z
1/2-x,1/2-y,-z
1/2+x,1/2+y,-z
1/2-x,1/2+y,z
1/2+x,1/2-y,z
loop_
_atom_site_type_symbol
_atom_site_label
_atom_site_fract_x
_atom_site_fract_y
_atom_site_fract_z
Si Si1 0.000000 0.945371 0.441107
Si Si2 0.705540 0.799757 0.782517
Si Si3 0.299484 0.604933 0.943538
Si Si4 0.202416 0.446018 0.362249
Si Si5 0.703342 0.949332 0.842119
Si Si6 0.290726 0.105725 0.742386
Si Si7 0.704698 0.800033 0.902085
O O1 0.829654 0.933215 0.408799
O O2 0.000000 0.928290 0.500000
O O3 0.000000 0.000000 0.443557
O O4 0.500000 0.802405 0.785100
O O5 0.750000 0.750000 0.762821
O O6 0.766490 0.842559 0.749697
O O7 0.767966 0.803354 0.842241
O O8 0.500000 0.594498 0.944259
O O9 0.225371 0.578370 0.894823
O O10 0.277447 0.658254 0.933772
O O11 0.225414 0.593183 0.000000
O O12 0.219615 0.500000 0.352836
O O13 0.255244 0.418942 0.310732
O O14 0.000000 0.437671 0.372979
O O15 0.500000 0.952960 0.833494
O O16 0.771221 0.922027 0.792583
O O17 0.774054 0.000000 0.845898
O O18 0.500000 0.105789 0.743402
O O19 0.500000 0.804728 0.901901
O O20 0.750000 0.750000 0.921194
#
# Coordination Sequence:
#
# PCOD9487234 Si02
#       7
#     8  16  16  16  16  16  16
#     4   9  18  32  48  72 110 148 185 223 251 291
#     4   9  17  30  48  71 100 129 157 194 247 305
#     4  11  24  39  52  69  96 127 162 206 255 307
#     4   9  17  30  49  74 106 144 180 216 259 300
#     4  10  20  36  57  76  94 123 165 208 256 310
#     4   9  16  31  52  74 102 133 162 205 255 304
#     4  10  19  34  55  76  97 122 157 198 247 307
#
# _framework density 17.413996999999998
#
# number of rings (size 3 to 8) (size 9 to 14) (size 15 to 20)
#    0.000    2.385    1.538    1.385    0.000    4.923 
#    2.769    3.077    0.000    0.000    0.000    0.000 
#    0.000    0.615    0.308    0.000    0.000    0.000 
#
# Total GULP energy -290032.190059 kJ/mol
# GULP energy per Si atom -5577.542117 kJ/mol
# Density = 1.737436 g / cm^3
# Si number density = 17.413997 Si / 1000 Ang^3
#
#
#
# Elastic Constant Matrix: (Units=GPa)
#
#
# Indices 1 2 3 4 5 6 
#
# 1 38.8221 12.5277 29.3277 0.0000 0.0000 0.0000
# 2 12.5277 99.5435 62.5563 0.0000 0.0000 0.0000
# 3 29.3277 62.5563 136.1589 0.0000 0.0000 0.0000
# 4 0.0000 0.0000 0.0000 12.5148 0.0000 0.0000
# 5 0.0000 0.0000 0.0000 0.0000 19.0230 0.0000
# 6 0.0000 0.0000 0.0000 0.0000 0.0000 19.2766
#
#
#
# Elastic Compliance Matrix: (Units=1/GPa)
#
#
# Indices 1 2 3 4 5 6 
#
# 1 0.030776 0.000411 -0.006818 0.000000 0.000000 0.000000
# 2 0.000411 0.014129 -0.006580 0.000000 0.000000 0.000000
# 3 -0.006818 -0.006580 0.011836 0.000000 0.000000 0.000000
# 4 0.000000 0.000000 0.000000 0.079905 0.000000 0.000000
# 5 0.000000 0.000000 0.000000 0.000000 0.052568 0.000000
# 6 0.000000 0.000000 0.000000 0.000000 0.000000 0.051876
#
#
# Mechanical properties :
#
#
# Convention : Reuss Voigt Hill
#
# Bulk Modulus (GPa) = 32.50106 53.70532 43.10319
# Shear Modulus (GPa) = 18.02967 21.50374 19.76671
#
# Velocity S-wave (km/s) = 3.22118 3.51786 3.37279
# Velocity P-wave (km/s) = 5.70430 6.88533 6.32245
#
# Compressibility (1/GPa) = 0.03076822
#
# Stress axis : x y z
#
# Youngs Moduli (GPa) = 32.49244 70.77530 84.48773
#
# Poissons Ratio (x) = -0.02912 0.57604
# Poissons Ratio (y) = -0.01337 0.55594
# Poissons Ratio (z) = 0.22153 0.46571
#
# Static dielectric constant tensor:
#      x y z
#    x 1.633980 0.000000 0.000000 
#    y 0.000000 1.597090 0.000000 
#    z 0.000000 0.000000 1.580580 
# 
# From -- ./inp_files/60857.got.cif
#   From: 2010.05.17/outbox.cif.g08.bks.cpg/sg65_31_cif.got.tgz:60857.got - 2010.06.03 17:01:31.
