data_PCOD9487951
_publ_section_title
;
Structure prediction by ZEFSAII (Michael W. Deem and Ramdas Pophale) SiO2 
 PCOD9487951
Probable space group: C M M M
;
_chemical_formula_sum "Si O2"
_cell_formula_units_Z 72
_cell_length_a 7.509176
_cell_length_b 34.242327
_cell_length_c 13.224143
_cell_angle_alpha 90.000000
_cell_angle_beta 90.000000
_cell_angle_gamma 90.000000
_cell_volume 3400.345843
_symmetry_space_group_name_H-M "C M M M"
_symmetry_group_IT_number 65
_symmetry_cell_setting 'orthorhombic'
loop_
_space_group_symop_operation_xyz
x,y,z
-x,-y,z
x,-y,-z
-x,y,-z
-x,-y,-z
x,y,-z
-x,y,z
x,-y,z
1/2+x,1/2+y,z
1/2-x,1/2-y,z
1/2+x,1/2-y,-z
1/2-x,1/2+y,-z
1/2-x,1/2-y,-z
1/2+x,1/2+y,-z
1/2-x,1/2+y,z
1/2+x,1/2-y,z
loop_
_atom_site_type_symbol
_atom_site_label
_atom_site_fract_x
_atom_site_fract_y
_atom_site_fract_z
Si Si1 0.791383 0.307576 0.608634
Si Si2 0.787965 0.707815 0.829415
Si Si3 0.207413 0.878221 0.108859
Si Si4 0.283512 0.604858 0.669355
Si Si5 0.282579 0.455393 0.500000
O O1 0.712901 0.296022 0.500000
O O2 0.714446 0.291945 0.713916
O O3 0.776630 0.354390 0.620138
O O4 0.000000 0.297138 0.607206
O O5 0.750000 0.750000 0.875758
O O6 0.715575 0.668894 0.880922
O O7 0.000000 0.702448 0.825974
O O8 0.281090 0.894914 0.214365
O O9 0.000000 0.889462 0.106962
O O10 0.286838 0.889213 0.000000
O O11 0.500000 0.605918 0.670662
O O12 0.227730 0.569042 0.599050
O O13 0.222300 0.500000 0.500000
O O14 0.500000 0.455685 0.500000
#
# Coordination Sequence:
#
# PCOD9487951 Si02
#       5
#    16  16  16  16   8
#     4   9  17  29  45  64  89 120 152 189 232 272
#     4  10  20  32  45  64  90 120 154 193 237 280
#     4   9  18  32  49  67  87 116 156 198 234 267
#     4   9  16  28  47  69  92 120 154 186 219 266
#     4   9  16  26  45  75 104 125 146 177 220 269
#
# _framework density 21.174315
#
# number of rings (size 3 to 8) (size 9 to 14) (size 15 to 20)
#    0.000    2.778    1.111    0.667    0.000    2.222 
#    0.000    0.000    0.000    2.000    0.000    4.667 
#    0.000    0.000    0.000   11.111    0.000   11.556 
#
# Total GULP energy -200850.051378 kJ/mol
# GULP energy per Si atom -5579.168094 kJ/mol
# Density = 2.112612 g / cm^3
# Si number density = 21.174315 Si / 1000 Ang^3
#
#
#
# Elastic Constant Matrix: (Units=GPa)
#
#
# Indices 1 2 3 4 5 6 
#
# 1 65.9441 -12.6341 3.9317 0.0000 0.0000 0.0000
# 2 -12.6341 113.8169 45.4033 0.0000 0.0000 0.0000
# 3 3.9317 45.4033 184.7831 0.0000 0.0000 0.0000
# 4 0.0000 0.0000 0.0000 16.0530 0.0000 0.0000
# 5 0.0000 0.0000 0.0000 0.0000 2.8100 0.0000
# 6 0.0000 0.0000 0.0000 0.0000 0.0000 11.6806
#
#
#
# Elastic Compliance Matrix: (Units=1/GPa)
#
#
# Indices 1 2 3 4 5 6 
#
# 1 0.015611 0.002068 -0.000840 0.000000 0.000000 0.000000
# 2 0.002068 0.010015 -0.002505 0.000000 0.000000 0.000000
# 3 -0.000840 -0.002505 0.006045 0.000000 0.000000 0.000000
# 4 0.000000 0.000000 0.000000 0.062294 0.000000 0.000000
# 5 0.000000 0.000000 0.000000 0.000000 0.355871 0.000000
# 6 0.000000 0.000000 0.000000 0.000000 0.000000 0.085612
#
#
# Mechanical properties :
#
#
# Convention : Reuss Voigt Hill
#
# Bulk Modulus (GPa) = 34.34473 48.66064 41.50269
# Shear Modulus (GPa) = 9.12898 27.96493 18.54696
#
# Velocity S-wave (km/s) = 2.07863 3.63809 2.96280
# Velocity P-wave (km/s) = 4.69214 6.37796 5.59887
#
# Compressibility (1/GPa) = 0.02911655
#
# Stress axis : x y z
#
# Youngs Moduli (GPa) = 64.05875 99.85234 165.42391
#
# Poissons Ratio (x) = -0.20650 0.13901
# Poissons Ratio (y) = -0.13248 0.41435
# Poissons Ratio (z) = 0.05383 0.25010
#
# Static dielectric constant tensor:
#      x y z
#    x 1.840490 0.000000 0.000000 
#    y 0.000000 1.711100 0.000000 
#    z 0.000000 0.000000 1.838620 
# 
# From -- ./inp_files/37015.got.cif
#   From: 2010.05.17/outbox.cif.g08.bks.cpg/sg65_19_cif.got.tgz:37015.got - 2010.06.03 17:01:31.
