data_PCOD9487853
_publ_section_title
;
Structure prediction by ZEFSAII (Michael W. Deem and Ramdas Pophale) SiO2 
 PCOD9487853
Probable space group: C M M M
;
_chemical_formula_sum "Si O2"
_cell_formula_units_Z 72
_cell_length_a 18.090547
_cell_length_b 7.402394
_cell_length_c 26.889203
_cell_angle_alpha 90.000000
_cell_angle_beta 90.000000
_cell_angle_gamma 90.000000
_cell_volume 3600.823429
_symmetry_space_group_name_H-M "C M M M"
_symmetry_group_IT_number 65
_symmetry_cell_setting 'orthorhombic'
loop_
_space_group_symop_operation_xyz
x,y,z
-x,-y,z
x,-y,-z
-x,y,-z
-x,-y,-z
x,y,-z
-x,y,z
x,-y,z
1/2+x,1/2+y,z
1/2-x,1/2-y,z
1/2+x,1/2-y,-z
1/2-x,1/2+y,-z
1/2-x,1/2-y,-z
1/2+x,1/2+y,-z
1/2-x,1/2+y,z
1/2+x,1/2-y,z
loop_
_atom_site_type_symbol
_atom_site_label
_atom_site_fract_x
_atom_site_fract_y
_atom_site_fract_z
Si Si1 0.410024 0.500000 0.556584
Si Si2 0.163352 0.284626 0.261494
Si Si3 0.411519 0.782114 0.946565
Si Si4 0.413540 0.779581 0.838630
Si Si5 0.588733 0.788831 0.637097
O O1 0.500000 0.500000 0.554526
O O2 0.383028 0.500000 0.500000
O O3 0.388221 0.327070 0.589424
O O4 0.150100 0.500000 0.261232
O O5 0.250000 0.250000 0.263119
O O6 0.129371 0.214923 0.209897
O O7 0.125076 0.218870 0.311998
O O8 0.500000 0.746859 0.946199
O O9 0.383867 0.718306 0.892727
O O10 0.403471 0.000000 0.947041
O O11 0.382302 0.715081 0.000000
O O12 0.500000 0.730814 0.834529
O O13 0.410889 0.000000 0.839257
O O14 0.500000 0.774599 0.642386
O O15 0.607120 0.000000 0.630524
#
# Coordination Sequence:
#
# PCOD9487853 Si02
#       5
#     8  16  16  16  16
#     4   9  18  32  54  84 110 132 160 200 248 289
#     4  10  20  31  46  68  92 127 161 198 246 292
#     4   7   9  14  28  53  82 110 142 186 239 286
#     4   8  13  23  40  61  87 117 153 197 241 290
#     4   9  18  33  53  77 103 133 168 204 243 291
#
# _framework density 19.995425000000001
#
# number of rings (size 3 to 8) (size 9 to 14) (size 15 to 20)
#    0.000    3.444    0.000    2.667    1.556    3.111 
#    0.000    2.222    0.000    1.333    0.000    0.000 
#    0.000    0.000    0.000    5.556    0.000    4.444 
#
# Total GULP energy -200581.992911 kJ/mol
# GULP energy per Si atom -5571.722025 kJ/mol
# Density = 1.994991 g / cm^3
# Si number density = 19.995425 Si / 1000 Ang^3
#
#
#
# Elastic Constant Matrix: (Units=GPa)
#
#
# Indices 1 2 3 4 5 6 
#
# 1 25.5594 14.0096 55.4353 0.0000 0.0000 0.0000
# 2 14.0096 76.5586 56.0274 0.0000 0.0000 0.0000
# 3 55.4353 56.0274 271.3106 0.0000 0.0000 0.0000
# 4 0.0000 0.0000 0.0000 -108.5016 0.0000 0.0000
# 5 0.0000 0.0000 0.0000 0.0000 -4.6647 0.0000
# 6 0.0000 0.0000 0.0000 0.0000 0.0000 -7.5976
#
#
#
# Elastic Compliance Matrix: (Units=1/GPa)
#
#
# Indices 1 2 3 4 5 6 
#
# 1 0.070763 -0.002790 -0.013883 0.000000 0.000000 0.000000
# 2 -0.002790 0.015497 -0.002630 0.000000 0.000000 0.000000
# 3 -0.013883 -0.002630 0.007066 0.000000 0.000000 0.000000
# 4 0.000000 0.000000 0.000000 -0.009216 0.000000 0.000000
# 5 0.000000 0.000000 0.000000 0.000000 -0.214377 0.000000
# 6 0.000000 0.000000 0.000000 0.000000 0.000000 -0.131621
#
#
# Mechanical properties :
#
#
# Convention : Reuss Voigt Hill
#
# Bulk Modulus (GPa) = 18.27441 69.37479 43.82460
# Shear Modulus (GPa) = -24.38517 -7.62235 -16.00376
#
# Velocity S-wave (km/s) = -3.49598 -1.95456 -2.83215
# Velocity P-wave (km/s) = 2.67145 5.44765 3.35710
#
# Compressibility (1/GPa) = 0.05472133
#
# Stress axis : x y z
#
# Youngs Moduli (GPa) = 14.13160 64.52746 141.53185
#
# Poissons Ratio (x) = 0.18000 1.96483
# Poissons Ratio (y) = 0.03942 0.37227
# Poissons Ratio (z) = 0.19618 0.16973
#
# Static dielectric constant tensor:
#      x y z
#    x 1.631480 0.000000 0.000000 
#    y 0.000000 1.794640 0.000000 
#    z 0.000000 0.000000 1.737820 
# 
# From -- ./inp_files/67106.got.cif
#   From: 2010.05.17/outbox.cif.g08.bks.cpg/sg65_34_cif.got.tgz:67106.got - 2010.06.03 17:01:31.
