data_PCOD9487539
_publ_section_title
;
Structure prediction by ZEFSAII (Michael W. Deem and Ramdas Pophale) SiO2 
 PCOD9487539
Probable space group: C M M M
;
_chemical_formula_sum "Si O2"
_cell_formula_units_Z 112
_cell_length_a 20.083254
_cell_length_b 27.610457
_cell_length_c 11.201939
_cell_angle_alpha 90.000000
_cell_angle_beta 90.000000
_cell_angle_gamma 90.000000
_cell_volume 6211.562786
_symmetry_space_group_name_H-M "C M M M"
_symmetry_group_IT_number 65
_symmetry_cell_setting 'orthorhombic'
loop_
_space_group_symop_operation_xyz
x,y,z
-x,-y,z
x,-y,-z
-x,y,-z
-x,-y,-z
x,y,-z
-x,y,z
x,-y,z
1/2+x,1/2+y,z
1/2-x,1/2-y,z
1/2+x,1/2-y,-z
1/2-x,1/2+y,-z
1/2-x,1/2-y,-z
1/2+x,1/2+y,-z
1/2-x,1/2+y,z
1/2+x,1/2-y,z
loop_
_atom_site_type_symbol
_atom_site_label
_atom_site_fract_x
_atom_site_fract_y
_atom_site_fract_z
Si Si1 0.123444 0.305587 0.636745
Si Si2 0.318370 0.628841 0.761925
Si Si3 0.426210 0.697034 0.640005
Si Si4 0.716530 0.802724 0.869185
Si Si5 0.072066 0.587545 0.640449
Si Si6 0.283338 0.054733 0.356160
Si Si7 0.574477 0.445284 0.856728
O O1 0.152895 0.306139 0.500000
O O2 0.085024 0.254857 0.648763
O O3 0.173318 0.307525 0.748794
O O4 0.079878 0.354196 0.644986
O O5 0.363854 0.668722 0.695290
O O6 0.273976 0.657346 0.857074
O O7 0.267201 0.596361 0.685040
O O8 0.370697 0.591652 0.815680
O O9 0.426978 0.684971 0.500000
O O10 0.500000 0.685136 0.690002
O O11 0.750000 0.750000 0.865754
O O12 0.682717 0.807702 0.000000
O O13 0.070680 0.574136 0.500000
O O14 0.141281 0.565834 0.688385
O O15 0.000000 0.573208 0.692134
O O16 0.285023 0.056001 0.500000
O O17 0.264022 0.000000 0.319442
O O18 0.500000 0.432171 0.815148
O O19 0.588572 0.500000 0.815193
O O20 0.573231 0.446076 0.000000
#
# Coordination Sequence:
#
# PCOD9487539 Si02
#       7
#    16  16  16  16  16  16  16
#     4  10  19  35  58  83 108 142 186 228 270 328
#     4  12  20  34  55  77 106 151 185 218 270 347
#     4  10  21  34  52  81 112 142 182 231 275 324
#     4  11  23  37  53  81 117 149 182 228 277 327
#     4   9  17  31  54  81 109 142 182 230 279 327
#     4  10  21  34  50  79 114 143 181 234 283 326
#     4   9  19  36  56  77  99 128 178 238 281 318
#
# _framework density 18.030888000000001
#
# number of rings (size 3 to 8) (size 9 to 14) (size 15 to 20)
#    0.000    1.857    2.857    2.571    0.000    2.857 
#    0.000    1.429    0.000    2.571    0.000    6.000 
#    0.000    1.143    0.000    0.000    0.000    0.000 
#
# Total GULP energy -311952.519087 kJ/mol
# GULP energy per Si atom -5570.580698 kJ/mol
# Density = 1.798985 g / cm^3
# Si number density = 18.030888 Si / 1000 Ang^3
#
#
#
# Elastic Constant Matrix: (Units=GPa)
#
#
# Indices 1 2 3 4 5 6 
#
# 1 87.1607 26.0725 32.2657 0.0000 0.0000 0.0000
# 2 26.0725 76.4772 13.2122 0.0000 0.0000 0.0000
# 3 32.2657 13.2122 68.0958 0.0000 0.0000 0.0000
# 4 0.0000 0.0000 0.0000 -39.7101 0.0000 0.0000
# 5 0.0000 0.0000 0.0000 0.0000 20.6765 0.0000
# 6 0.0000 0.0000 0.0000 0.0000 0.0000 20.1920
#
#
#
# Elastic Compliance Matrix: (Units=1/GPa)
#
#
# Indices 1 2 3 4 5 6 
#
# 1 0.015024 -0.004027 -0.006337 0.000000 0.000000 0.000000
# 2 -0.004027 0.014609 -0.000926 0.000000 0.000000 0.000000
# 3 -0.006337 -0.000926 0.017868 0.000000 0.000000 0.000000
# 4 0.000000 0.000000 0.000000 -0.025183 0.000000 0.000000
# 5 0.000000 0.000000 0.000000 0.000000 0.048364 0.000000
# 6 0.000000 0.000000 0.000000 0.000000 0.000000 0.049525
#
#
# Mechanical properties :
#
#
# Convention : Reuss Voigt Hill
#
# Bulk Modulus (GPa) = 40.13031 41.64827 40.88929
# Shear Modulus (GPa) = 33.09206 10.91058 22.00132
#
# Velocity S-wave (km/s) = 4.28869 2.46256 3.49693
# Velocity P-wave (km/s) = 6.84314 5.58874 6.24750
#
# Compressibility (1/GPa) = 0.02491882
#
# Stress axis : x y z
#
# Youngs Moduli (GPa) = 66.56180 68.45237 55.96690
#
# Poissons Ratio (x) = 0.27566 0.35468
# Poissons Ratio (y) = 0.26804 0.05184
# Poissons Ratio (z) = 0.42182 0.06341
#
# Static dielectric constant tensor:
#      x y z
#    x 1.647390 0.000000 0.000000 
#    y 0.000000 1.623740 0.000000 
#    z 0.000000 0.000000 1.608110 
# 
# From -- ./inp_files/29616.got.cif
#   From: 2010.05.17/outbox.cif.g08.bks.cpg/sg65_15_cif.got.tgz:29616.got - 2010.06.03 17:01:31.
