data_PCOD9487706
_publ_section_title
;
Structure prediction by ZEFSAII (Michael W. Deem and Ramdas Pophale) SiO2 
 PCOD9487706
Probable space group: C M M M
;
_chemical_formula_sum "Si O2"
_cell_formula_units_Z 88
_cell_length_a 19.619400
_cell_length_b 27.487310
_cell_length_c 8.780502
_cell_angle_alpha 90.000000
_cell_angle_beta 90.000000
_cell_angle_gamma 90.000000
_cell_volume 4735.188893
_symmetry_space_group_name_H-M "C M M M"
_symmetry_group_IT_number 65
_symmetry_cell_setting 'orthorhombic'
loop_
_space_group_symop_operation_xyz
x,y,z
-x,-y,z
x,-y,-z
-x,y,-z
-x,-y,-z
x,y,-z
-x,y,z
x,-y,z
1/2+x,1/2+y,z
1/2-x,1/2-y,z
1/2+x,1/2-y,-z
1/2-x,1/2+y,-z
1/2-x,1/2-y,-z
1/2+x,1/2+y,-z
1/2-x,1/2+y,z
1/2+x,1/2-y,z
loop_
_atom_site_type_symbol
_atom_site_label
_atom_site_fract_x
_atom_site_fract_y
_atom_site_fract_z
Si Si1 0.299970 0.616663 0.820972
Si Si2 0.921700 0.693773 0.685578
Si Si3 0.821398 0.778619 0.320941
Si Si4 0.079981 0.500000 0.817242
Si Si5 0.422756 0.441808 0.680119
Si Si6 0.154301 0.405586 0.317116
O O1 0.315341 0.671808 0.770642
O O2 0.364794 0.584747 0.773686
O O3 0.232427 0.598285 0.734798
O O4 0.287568 0.613907 0.000000
O O5 0.920902 0.694054 0.500000
O O6 0.879763 0.741455 0.733031
O O7 0.883587 0.644277 0.731949
O O8 0.000000 0.694162 0.735698
O O9 0.833103 0.790267 0.500000
O O10 0.750000 0.750000 0.311999
O O11 0.116862 0.547851 0.752712
O O12 0.000000 0.500000 0.773874
O O13 0.084438 0.500000 0.000000
O O14 0.414032 0.431129 0.500000
O O15 0.500000 0.427316 0.722921
O O16 0.417634 0.500000 0.698030
O O17 0.151261 0.408502 0.500000
#
# Coordination Sequence:
#
# PCOD9487706 Si02
#       6
#    16  16  16   8  16  16
#     4  12  25  38  58  90 128 162 198 246 306 367
#     4   9  18  34  60  90 115 146 198 258 304 346
#     4  10  19  37  60  84 115 153 200 249 299 353
#     4  11  25  43  61  89 130 165 196 247 315 371
#     4   9  20  41  67  91 116 152 201 252 300 354
#     4  11  22  40  64  89 118 159 212 257 296 352
#
# _framework density 18.584264000000001
#
# number of rings (size 3 to 8) (size 9 to 14) (size 15 to 20)
#    0.000    1.727    1.818    3.545    1.273    3.273 
#    0.000    2.727    0.000    2.182    0.000    0.000 
#    0.000    0.000    0.000    0.000    0.000    0.000 
#
# Total GULP energy -245844.069987 kJ/mol
# GULP energy per Si atom -5587.365227 kJ/mol
# Density = 1.854197 g / cm^3
# Si number density = 18.584264 Si / 1000 Ang^3
#
#
#
# Elastic Constant Matrix: (Units=GPa)
#
#
# Indices 1 2 3 4 5 6 
#
# 1 137.7124 63.8874 38.5231 0.0000 0.0000 0.0000
# 2 63.8874 96.9232 38.5075 0.0000 0.0000 0.0000
# 3 38.5231 38.5075 52.3878 0.0000 0.0000 0.0000
# 4 0.0000 0.0000 0.0000 -79.1829 0.0000 0.0000
# 5 0.0000 0.0000 0.0000 0.0000 18.0313 0.0000
# 6 0.0000 0.0000 0.0000 0.0000 0.0000 33.4076
#
#
#
# Elastic Compliance Matrix: (Units=1/GPa)
#
#
# Indices 1 2 3 4 5 6 
#
# 1 0.010996 -0.005700 -0.003896 0.000000 0.000000 0.000000
# 2 -0.005700 0.017528 -0.008693 0.000000 0.000000 0.000000
# 3 -0.003896 -0.008693 0.028343 0.000000 0.000000 0.000000
# 4 0.000000 0.000000 0.000000 -0.012629 0.000000 0.000000
# 5 0.000000 0.000000 0.000000 0.000000 0.055459 0.000000
# 6 0.000000 0.000000 0.000000 0.000000 0.000000 0.029933
#
#
# Mechanical properties :
#
#
# Convention : Reuss Voigt Hill
#
# Bulk Modulus (GPa) = 49.28617 63.20659 56.24638
# Shear Modulus (GPa) = 28.90676 4.19157 16.54916
#
# Velocity S-wave (km/s) = 3.94819 1.50344 2.98735
# Velocity P-wave (km/s) = 6.88202 6.09085 6.49849
#
# Compressibility (1/GPa) = 0.02028967
#
# Stress axis : x y z
#
# Youngs Moduli (GPa) = 90.94501 57.05093 35.28257
#
# Poissons Ratio (x) = 0.32519 0.13745
# Poissons Ratio (y) = 0.51839 0.30670
# Poissons Ratio (z) = 0.35430 0.49592
#
# Static dielectric constant tensor:
#      x y z
#    x 1.622520 0.000000 0.000000 
#    y 0.000000 1.582560 0.000000 
#    z 0.000000 0.000000 1.628210 
# 
# From -- ./inp_files/11844.got.cif
#   From: 2010.05.17/outbox.cif.g08.bks.cpg/sg65_6_cif.got.tgz:11844.got - 2010.06.03 17:01:31.
