data_PCOD9487299
_publ_section_title
;
Structure prediction by ZEFSAII (Michael W. Deem and Ramdas Pophale) SiO2 
 PCOD9487299
Probable space group: C M M M
;
_chemical_formula_sum "Si O2"
_cell_formula_units_Z 64
_cell_length_a 14.980498
_cell_length_b 8.591523
_cell_length_c 27.041111
_cell_angle_alpha 90.000000
_cell_angle_beta 90.000000
_cell_angle_gamma 90.000000
_cell_volume 3480.334118
_symmetry_space_group_name_H-M "C M M M"
_symmetry_group_IT_number 65
_symmetry_cell_setting 'orthorhombic'
loop_
_space_group_symop_operation_xyz
x,y,z
-x,-y,z
x,-y,-z
-x,y,-z
-x,-y,-z
x,y,-z
-x,y,z
x,-y,z
1/2+x,1/2+y,z
1/2-x,1/2-y,z
1/2+x,1/2-y,-z
1/2-x,1/2+y,-z
1/2-x,1/2-y,-z
1/2+x,1/2+y,-z
1/2-x,1/2+y,z
1/2+x,1/2-y,z
loop_
_atom_site_type_symbol
_atom_site_label
_atom_site_fract_x
_atom_site_fract_y
_atom_site_fract_z
Si Si1 0.149914 0.814019 0.239325
Si Si2 0.500000 0.185432 0.689365
Si Si3 0.500000 0.810440 0.943690
Si Si4 0.149237 0.812503 0.500000
Si Si5 0.150453 0.687237 0.867206
Si Si6 0.500000 0.688421 0.578774
O O1 0.250000 0.750000 0.246138
O O2 0.085532 0.752234 0.281818
O O3 0.118645 0.752650 0.185636
O O4 0.151084 0.000000 0.238870
O O5 0.500000 0.239262 0.632753
O O6 0.500000 0.000000 0.692520
O O7 0.413963 0.764299 0.911715
O O8 0.500000 0.000000 0.945231
O O9 0.500000 0.753963 0.000000
O O10 0.250000 0.750000 0.500000
O O11 0.088159 0.766544 0.547206
O O12 0.153691 0.000000 0.500000
O O13 0.151807 0.500000 0.864137
O O14 0.250000 0.750000 0.874985
O O15 0.500000 0.500000 0.582313
#
# Coordination Sequence:
#
# PCOD9487299 Si02
#       6
#    16   8   8   8  16   8
#     4  11  22  38  59  83 112 147 187 230 277 334
#     4  12  24  38  57  85 119 153 187 230 281 332
#     4   9  19  34  52  75 104 140 179 219 270 330
#     4   9  19  37  62  84 110 147 189 233 277 326
#     4  10  19  34  56  79 106 140 180 225 272 327
#     4   9  20  39  57  81 115 152 188 227 278 331
#
# _framework density 18.389037999999999
#
# number of rings (size 3 to 8) (size 9 to 14) (size 15 to 20)
#    0.000    1.875    0.000    7.125    0.000    3.500 
#    0.000    5.625    0.000    5.250    0.000    0.000 
#    0.000    0.000    0.000    0.000    0.000    0.000 
#
# Total GULP energy -178748.001853 kJ/mol
# GULP energy per Si atom -5585.875058 kJ/mol
# Density = 1.834718 g / cm^3
# Si number density = 18.389038 Si / 1000 Ang^3
#
#
#
# Elastic Constant Matrix: (Units=GPa)
#
#
# Indices 1 2 3 4 5 6 
#
# 1 134.9747 45.6888 105.9524 0.0000 0.0000 0.0000
# 2 45.6888 105.9773 62.5911 0.0000 0.0000 0.0000
# 3 105.9524 62.5911 200.9680 0.0000 0.0000 0.0000
# 4 0.0000 0.0000 0.0000 28.7573 0.0000 0.0000
# 5 0.0000 0.0000 0.0000 0.0000 22.7000 0.0000
# 6 0.0000 0.0000 0.0000 0.0000 0.0000 28.5828
#
#
#
# Elastic Compliance Matrix: (Units=1/GPa)
#
#
# Indices 1 2 3 4 5 6 
#
# 1 0.012944 -0.001899 -0.006233 0.000000 0.000000 0.000000
# 2 -0.001899 0.011842 -0.002687 0.000000 0.000000 0.000000
# 3 -0.006233 -0.002687 0.009099 0.000000 0.000000 0.000000
# 4 0.000000 0.000000 0.000000 0.034774 0.000000 0.000000
# 5 0.000000 0.000000 0.000000 0.000000 0.044053 0.000000
# 6 0.000000 0.000000 0.000000 0.000000 0.000000 0.034986
#
#
# Mechanical properties :
#
#
# Convention : Reuss Voigt Hill
#
# Bulk Modulus (GPa) = 81.65349 96.70941 89.18145
# Shear Modulus (GPa) = 28.83214 31.18720 30.00967
#
# Velocity S-wave (km/s) = 3.96397 4.12268 4.04410
# Velocity P-wave (km/s) = 8.09014 8.68141 8.39099
#
# Compressibility (1/GPa) = 0.01224687
#
# Stress axis : x y z
#
# Youngs Moduli (GPa) = 77.25339 84.44792 109.90575
#
# Poissons Ratio (x) = 0.16040 0.68503
# Poissons Ratio (y) = 0.14674 0.29528
# Poissons Ratio (z) = 0.48151 0.22688
#
# Static dielectric constant tensor:
#      x y z
#    x 1.621530 0.000000 0.000000 
#    y 0.000000 1.619390 0.000000 
#    z 0.000000 0.000000 1.613530 
# 
# From -- ./inp_files/69607.got.cif
#   From: 2010.05.17/outbox.cif.g08.bks.cpg/sg65_35_cif.got.tgz:69607.got - 2010.06.03 17:01:31.
