data_PCOD9487269
_publ_section_title
;
Structure prediction by ZEFSAII (Michael W. Deem and Ramdas Pophale) SiO2 
 PCOD9487269
Probable space group: C M M M
;
_chemical_formula_sum "Si O2"
_cell_formula_units_Z 104
_cell_length_a 17.333598
_cell_length_b 14.797284
_cell_length_c 23.056781
_cell_angle_alpha 90.000000
_cell_angle_beta 90.000000
_cell_angle_gamma 90.000000
_cell_volume 5913.837732
_symmetry_space_group_name_H-M "C M M M"
_symmetry_group_IT_number 65
_symmetry_cell_setting 'orthorhombic'
loop_
_space_group_symop_operation_xyz
x,y,z
-x,-y,z
x,-y,-z
-x,y,-z
-x,-y,-z
x,y,-z
-x,y,z
x,-y,z
1/2+x,1/2+y,z
1/2-x,1/2-y,z
1/2+x,1/2-y,-z
1/2-x,1/2+y,-z
1/2-x,1/2-y,-z
1/2+x,1/2+y,-z
1/2-x,1/2+y,z
1/2+x,1/2-y,z
loop_
_atom_site_type_symbol
_atom_site_label
_atom_site_fract_x
_atom_site_fract_y
_atom_site_fract_z
Si Si1 0.346388 0.108999 0.313068
Si Si2 0.910639 0.390431 0.435565
Si Si3 0.000000 0.608689 0.241408
Si Si4 0.334595 0.151878 0.935249
Si Si5 0.500000 0.895428 0.112355
Si Si6 0.250000 0.750000 0.240813
Si Si7 0.298097 0.600187 0.844264
Si Si8 0.909476 0.844119 0.935174
O O1 0.359737 0.134154 0.380296
O O2 0.424720 0.130126 0.278092
O O3 0.286917 0.173826 0.281439
O O4 0.331811 0.000000 0.309076
O O5 0.885724 0.360669 0.500000
O O6 0.911826 0.500000 0.435933
O O7 0.000000 0.362197 0.426947
O O8 0.000000 0.500000 0.238511
O O9 0.000000 0.649343 0.176480
O O10 0.421632 0.120609 0.922166
O O11 0.275983 0.117414 0.886521
O O12 0.350156 0.259252 0.935037
O O13 0.309849 0.124222 0.000000
O O14 0.500000 0.000000 0.125047
O O15 0.301452 0.686513 0.198309
O O16 0.287486 0.500000 0.817271
O O17 0.374551 0.598333 0.883646
O O18 0.000000 0.818392 0.926381
O O19 0.905536 0.884060 0.000000
#
# Coordination Sequence:
#
# PCOD9487269 Si02
#       8
#    16  16   8  16   8   8  16  16
#     4  10  19  34  55  81 112 147 183 217 259 311
#     4   8  13  25  50  84 117 145 176 217 262 305
#     4   9  18  31  51  77 103 135 178 218 257 311
#     4  11  21  37  57  79 105 132 169 221 282 343
#     4  11  21  30  47  79 112 139 169 210 267 336
#     4  12  24  38  52  78 110 148 178 218 268 320
#     4  12  25  41  59  78 101 137 182 225 274 331
#     4  10  21  39  61  80 101 130 169 223 282 337
#
# _framework density 17.585872999999999
#
# number of rings (size 3 to 8) (size 9 to 14) (size 15 to 20)
#    0.000    1.692    3.077    3.000    0.000    5.231 
#    0.000    1.154    0.000    0.000    0.000    0.000 
#    0.000    0.000    0.000    6.769    0.000    0.615 
#
# Total GULP energy -289678.972365 kJ/mol
# GULP energy per Si atom -5570.749469 kJ/mol
# Density = 1.754585 g / cm^3
# Si number density = 17.585873 Si / 1000 Ang^3
#
#
#
# Elastic Constant Matrix: (Units=GPa)
#
#
# Indices 1 2 3 4 5 6 
#
# 1 52.8667 9.7627 21.0932 0.0000 0.0000 0.0000
# 2 9.7627 65.0613 30.7379 0.0000 0.0000 0.0000
# 3 21.0932 30.7379 108.1720 0.0000 0.0000 0.0000
# 4 0.0000 0.0000 0.0000 17.9032 0.0000 0.0000
# 5 0.0000 0.0000 0.0000 0.0000 32.1617 0.0000
# 6 0.0000 0.0000 0.0000 0.0000 0.0000 14.4485
#
#
#
# Elastic Compliance Matrix: (Units=1/GPa)
#
#
# Indices 1 2 3 4 5 6 
#
# 1 0.020618 -0.001380 -0.003628 0.000000 0.000000 0.000000
# 2 -0.001380 0.017846 -0.004802 0.000000 0.000000 0.000000
# 3 -0.003628 -0.004802 0.011317 0.000000 0.000000 0.000000
# 4 0.000000 0.000000 0.000000 0.055856 0.000000 0.000000
# 5 0.000000 0.000000 0.000000 0.000000 0.031093 0.000000
# 6 0.000000 0.000000 0.000000 0.000000 0.000000 0.069211
#
#
# Mechanical properties :
#
#
# Convention : Reuss Voigt Hill
#
# Bulk Modulus (GPa) = 33.15610 38.80973 35.98291
# Shear Modulus (GPa) = 21.22114 23.86976 22.54545
#
# Velocity S-wave (km/s) = 3.47755 3.68819 3.58442
# Velocity P-wave (km/s) = 5.91770 6.34457 6.13485
#
# Compressibility (1/GPa) = 0.03016037
#
# Stress axis : x y z
#
# Youngs Moduli (GPa) = 48.50137 56.03559 88.36587
#
# Poissons Ratio (x) = 0.07731 0.32063
# Poissons Ratio (y) = 0.06691 0.42433
# Poissons Ratio (z) = 0.17598 0.26908
#
# Static dielectric constant tensor:
#      x y z
#    x 1.634870 0.000000 0.000000 
#    y 0.000000 1.652710 0.000000 
#    z 0.000000 0.000000 1.632770 
# 
# From -- ./inp_files/63851.got.cif
#   From: 2010.05.17/outbox.cif.g08.bks.cpg/sg65_32_cif.got.tgz:63851.got - 2010.06.03 17:01:31.
