data_PCOD9487378
_publ_section_title
;
Structure prediction by ZEFSAII (Michael W. Deem and Ramdas Pophale) SiO2 
 PCOD9487378
Probable space group: C M M M
;
_chemical_formula_sum "Si O2"
_cell_formula_units_Z 64
_cell_length_a 8.674319
_cell_length_b 18.276561
_cell_length_c 21.341352
_cell_angle_alpha 90.000000
_cell_angle_beta 90.000000
_cell_angle_gamma 90.000000
_cell_volume 3383.387954
_symmetry_space_group_name_H-M "C M M M"
_symmetry_group_IT_number 65
_symmetry_cell_setting 'orthorhombic'
loop_
_space_group_symop_operation_xyz
x,y,z
-x,-y,z
x,-y,-z
-x,y,-z
-x,-y,-z
x,y,-z
-x,y,z
x,-y,z
1/2+x,1/2+y,z
1/2-x,1/2-y,z
1/2+x,1/2-y,-z
1/2-x,1/2+y,-z
1/2-x,1/2-y,-z
1/2+x,1/2+y,-z
1/2-x,1/2+y,z
1/2+x,1/2-y,z
loop_
_atom_site_type_symbol
_atom_site_label
_atom_site_fract_x
_atom_site_fract_y
_atom_site_fract_z
Si Si1 0.816015 0.331843 0.621249
Si Si2 0.685260 0.832218 0.000000
Si Si3 0.315160 0.586151 0.500000
Si Si4 0.185889 0.667052 0.862668
Si Si5 0.184379 0.086092 0.257870
O O1 0.750000 0.250000 0.619934
O O2 0.752554 0.375779 0.561553
O O3 0.760519 0.371598 0.684330
O O4 0.000000 0.329390 0.619194
O O5 0.750000 0.750000 0.000000
O O6 0.730167 0.863346 0.067964
O O7 0.500000 0.829051 0.000000
O O8 0.278442 0.500000 0.500000
O O9 0.500000 0.594185 0.500000
O O10 0.250000 0.750000 0.857787
O O11 0.254315 0.619536 0.806854
O O12 0.000000 0.669136 0.858115
O O13 0.000000 0.095242 0.261282
O O14 0.219959 0.000000 0.261718
#
# Coordination Sequence:
#
# PCOD9487378 Si02
#       5
#    16   8   8  16  16
#     4  12  25  42  65  91 120 154 196 241 285 338
#     4   8  16  30  51  80 111 145 185 233 285 338
#     4  11  24  43  66  93 127 161 192 233 286 339
#     4  10  19  34  57  84 114 148 190 237 287 344
#     4  11  24  41  59  82 115 153 193 239 292 346
#
# _framework density 18.915949999999999
#
# number of rings (size 3 to 8) (size 9 to 14) (size 15 to 20)
#    0.000    1.375    0.000    6.000    0.000    7.000 
#    0.000    0.625    0.000    3.750    0.000    0.000 
#    0.000    0.000    0.000    0.000    0.000    0.000 
#
# Total GULP energy -178851.185649 kJ/mol
# GULP energy per Si atom -5589.099552 kJ/mol
# Density = 1.887290 g / cm^3
# Si number density = 18.915950 Si / 1000 Ang^3
#
#
#
# Elastic Constant Matrix: (Units=GPa)
#
#
# Indices 1 2 3 4 5 6 
#
# 1 101.9492 85.9686 79.1873 0.0000 0.0000 0.0000
# 2 85.9686 144.1754 109.5281 0.0000 0.0000 0.0000
# 3 79.1873 109.5281 225.8840 0.0000 0.0000 0.0000
# 4 0.0000 0.0000 0.0000 -286.3144 0.0000 0.0000
# 5 0.0000 0.0000 0.0000 0.0000 59.0764 0.0000
# 6 0.0000 0.0000 0.0000 0.0000 0.0000 30.6630
#
#
#
# Elastic Compliance Matrix: (Units=1/GPa)
#
#
# Indices 1 2 3 4 5 6 
#
# 1 0.020268 -0.010588 -0.001971 0.000000 0.000000 0.000000
# 2 -0.010588 0.016512 -0.004295 0.000000 0.000000 0.000000
# 3 -0.001971 -0.004295 0.007201 0.000000 0.000000 0.000000
# 4 0.000000 0.000000 0.000000 -0.003493 0.000000 0.000000
# 5 0.000000 0.000000 0.000000 0.000000 0.016927 0.000000
# 6 0.000000 0.000000 0.000000 0.000000 0.000000 0.032613
#
#
# Mechanical properties :
#
#
# Convention : Reuss Voigt Hill
#
# Bulk Modulus (GPa) = 97.34397 113.48629 105.41513
# Shear Modulus (GPa) = 39.32048 -26.16002 6.58023
#
# Velocity S-wave (km/s) = 4.56422 -3.72285 1.86714
# Velocity P-wave (km/s) = 8.90781 6.45335 7.77801
#
# Compressibility (1/GPa) = 0.01027285
#
# Stress axis : x y z
#
# Youngs Moduli (GPa) = 49.33812 60.56243 138.87723
#
# Poissons Ratio (x) = 0.64123 0.27379
# Poissons Ratio (y) = 0.52238 0.59643
# Poissons Ratio (z) = 0.09727 0.26009
#
# Static dielectric constant tensor:
#      x y z
#    x 1.635230 0.000000 0.000000 
#    y 0.000000 1.614590 0.000000 
#    z 0.000000 0.000000 1.657370 
# 
# From -- ./inp_files/58795.got.cif
#   From: 2010.05.17/outbox.cif.g08.bks.cpg/sg65_30_cif.got.tgz:58795.got - 2010.06.03 17:01:31.
