data_PCOD9487347
_publ_section_title
;
Structure prediction by ZEFSAII (Michael W. Deem and Ramdas Pophale) SiO2 
 PCOD9487347
Probable space group: C M M M
;
_chemical_formula_sum "Si O2"
_cell_formula_units_Z 104
_cell_length_a 30.524353
_cell_length_b 7.686681
_cell_length_c 21.117544
_cell_angle_alpha 90.000000
_cell_angle_beta 90.000000
_cell_angle_gamma 90.000000
_cell_volume 4954.829711
_symmetry_space_group_name_H-M "C M M M"
_symmetry_group_IT_number 65
_symmetry_cell_setting 'orthorhombic'
loop_
_space_group_symop_operation_xyz
x,y,z
-x,-y,z
x,-y,-z
-x,y,-z
-x,-y,-z
x,y,-z
-x,y,z
x,-y,z
1/2+x,1/2+y,z
1/2-x,1/2-y,z
1/2+x,1/2-y,-z
1/2-x,1/2+y,-z
1/2-x,1/2-y,-z
1/2+x,1/2+y,-z
1/2-x,1/2+y,z
1/2+x,1/2-y,z
loop_
_atom_site_type_symbol
_atom_site_label
_atom_site_fract_x
_atom_site_fract_y
_atom_site_fract_z
Si Si1 0.863516 0.793666 0.179945
Si Si2 0.700223 0.709538 0.072012
Si Si3 0.321909 0.201291 0.570717
Si Si4 0.949249 0.213539 0.239138
Si Si5 0.411000 0.301648 0.627750
Si Si6 0.298193 0.207077 0.707655
Si Si7 0.500000 0.194879 0.426172
O O1 0.834632 0.720775 0.122510
O O2 0.913479 0.730036 0.187252
O O3 0.835523 0.771211 0.244599
O O4 0.867190 0.000000 0.169887
O O5 0.696540 0.500000 0.070522
O O6 0.750000 0.750000 0.091513
O O7 0.693992 0.773947 0.000000
O O8 0.314363 0.277037 0.500000
O O9 0.373530 0.206614 0.588246
O O10 0.301533 0.278619 0.635402
O O11 0.307790 0.000000 0.567325
O O12 0.925636 0.270811 0.304201
O O13 0.000000 0.269837 0.234198
O O14 0.950525 0.000000 0.241151
O O15 0.395754 0.500000 0.635930
O O16 0.456630 0.295529 0.591893
O O17 0.250000 0.250000 0.732845
O O18 0.303534 0.000000 0.703824
O O19 0.500000 0.174183 0.500000
O O20 0.500000 0.000000 0.396908
#
# Coordination Sequence:
#
# PCOD9487347 Si02
#       7
#    16  16  16  16  16  16   8
#     4  10  19  34  57  80 108 143 177 217 263 311
#     4   9  18  32  52  81 114 146 178 212 254 308
#     4  10  22  39  54  70  98 135 171 214 272 329
#     4   9  17  31  52  77 103 133 170 214 262 309
#     4  11  20  33  53  75  97 126 171 222 268 322
#     4  11  23  37  55  78 104 135 176 222 267 322
#     4  11  23  35  47  67  99 135 168 211 274 336
#
# _framework density 20.989621
#
# number of rings (size 3 to 8) (size 9 to 14) (size 15 to 20)
#    0.000    1.923    2.308    2.077    0.000    5.538 
#    0.000    0.000    0.000    0.462    0.000    3.231 
#    0.000    0.000    0.000    5.231    0.000    5.538 
#
# Total GULP energy -290081.325980 kJ/mol
# GULP energy per Si atom -5578.487038 kJ/mol
# Density = 2.094185 g / cm^3
# Si number density = 20.989621 Si / 1000 Ang^3
#
#
#
# Elastic Constant Matrix: (Units=GPa)
#
#
# Indices 1 2 3 4 5 6 
#
# 1 100.8983 -10.2825 46.3996 0.0000 0.0000 0.0000
# 2 -10.2825 43.7567 1.5671 0.0000 0.0000 0.0000
# 3 46.3996 1.5671 105.9779 0.0000 0.0000 0.0000
# 4 0.0000 0.0000 0.0000 13.5022 0.0000 0.0000
# 5 0.0000 0.0000 0.0000 0.0000 30.0605 0.0000
# 6 0.0000 0.0000 0.0000 0.0000 0.0000 19.7367
#
#
#
# Elastic Compliance Matrix: (Units=1/GPa)
#
#
# Indices 1 2 3 4 5 6 
#
# 1 0.012848 0.003222 -0.005673 0.000000 0.000000 0.000000
# 2 0.003222 0.023674 -0.001761 0.000000 0.000000 0.000000
# 3 -0.005673 -0.001761 0.011946 0.000000 0.000000 0.000000
# 4 0.000000 0.000000 0.000000 0.074062 0.000000 0.000000
# 5 0.000000 0.000000 0.000000 0.000000 0.033266 0.000000
# 6 0.000000 0.000000 0.000000 0.000000 0.000000 0.050667
#
#
# Mechanical properties :
#
#
# Convention : Reuss Voigt Hill
#
# Bulk Modulus (GPa) = 24.97190 36.22236 30.59713
# Shear Modulus (GPa) = 21.90734 26.85647 24.38191
#
# Velocity S-wave (km/s) = 3.23417 3.58091 3.41195
# Velocity P-wave (km/s) = 5.08622 5.86446 5.48915
#
# Compressibility (1/GPa) = 0.04004501
#
# Stress axis : x y z
#
# Youngs Moduli (GPa) = 77.83243 42.24050 83.71228
#
# Poissons Ratio (x) = -0.13612 0.47489
# Poissons Ratio (y) = -0.25081 0.14741
# Poissons Ratio (z) = 0.44153 0.07438
#
# Static dielectric constant tensor:
#      x y z
#    x 1.748640 0.000000 0.000000 
#    y 0.000000 1.832350 0.000000 
#    z 0.000000 0.000000 1.785440 
# 
# From -- ./inp_files/66385.got.cif
#   From: 2010.05.17/outbox.cif.g08.bks.cpg/sg65_34_cif.got.tgz:66385.got - 2010.06.03 17:01:31.
