data_PCOD9487079
_publ_section_title
;
Structure prediction by ZEFSAII (Michael W. Deem and Ramdas Pophale) SiO2 
 PCOD9487079
Probable space group: C M M M
;
_chemical_formula_sum "Si O2"
_cell_formula_units_Z 64
_cell_length_a 13.827959
_cell_length_b 28.004739
_cell_length_c 8.198660
_cell_angle_alpha 90.000000
_cell_angle_beta 90.000000
_cell_angle_gamma 90.000000
_cell_volume 3174.917825
_symmetry_space_group_name_H-M "C M M M"
_symmetry_group_IT_number 65
_symmetry_cell_setting 'orthorhombic'
loop_
_space_group_symop_operation_xyz
x,y,z
-x,-y,z
x,-y,-z
-x,y,-z
-x,-y,-z
x,y,-z
-x,y,z
x,-y,z
1/2+x,1/2+y,z
1/2-x,1/2-y,z
1/2+x,1/2-y,-z
1/2-x,1/2+y,-z
1/2-x,1/2-y,-z
1/2+x,1/2+y,-z
1/2-x,1/2+y,z
1/2+x,1/2-y,z
loop_
_atom_site_type_symbol
_atom_site_label
_atom_site_fract_x
_atom_site_fract_y
_atom_site_fract_z
Si Si1 0.784345 0.446492 0.196564
Si Si2 0.855187 0.771844 0.811740
Si Si3 0.000000 0.584775 0.800380
Si Si4 0.000000 0.693880 0.800160
Si Si5 0.109623 0.878134 0.692497
O O1 0.757692 0.500000 0.251309
O O2 0.700198 0.409055 0.242405
O O3 0.895440 0.436046 0.252260
O O4 0.788744 0.445946 0.000000
O O5 0.750000 0.750000 0.814201
O O6 0.869951 0.822063 0.724636
O O7 0.913181 0.726902 0.743994
O O8 0.885106 0.780580 0.000000
O O9 0.000000 0.639844 0.746622
O O10 0.000000 0.581788 0.000000
O O11 0.000000 0.691282 0.000000
O O12 0.106694 0.886296 0.500000
O O13 0.000000 0.888973 0.757504
#
# Coordination Sequence:
#
# PCOD9487079 Si02
#       5
#    16  16   8   8  16
#     4  10  21  38  63  91 117 150 195 251 307 356
#     4  10  19  33  56  84 113 147 190 240 288 340
#     4   9  17  34  60  92 124 147 181 238 303 364
#     4   9  16  27  49  82 113 143 176 216 277 341
#     4  11  24  40  57  81 119 164 203 243 293 349
#
# _framework density 20.158002
#
# number of rings (size 3 to 8) (size 9 to 14) (size 15 to 20)
#    0.000    2.000    1.250    2.625    0.000    8.500 
#    0.000    3.125    0.000    1.500    0.000    0.000 
#    0.000    0.000    0.000    0.000    0.000    0.000 
#
# Total GULP energy -178257.033201 kJ/mol
# GULP energy per Si atom -5570.532288 kJ/mol
# Density = 2.011212 g / cm^3
# Si number density = 20.158002 Si / 1000 Ang^3
#
#
#
# Elastic Constant Matrix: (Units=GPa)
#
#
# Indices 1 2 3 4 5 6 
#
# 1 152.4880 51.3172 14.8366 0.0000 0.0000 0.0000
# 2 51.3172 118.9185 8.5693 0.0000 0.0000 0.0000
# 3 14.8366 8.5693 16.1273 0.0000 0.0000 0.0000
# 4 0.0000 0.0000 0.0000 1288.6242 0.0000 0.0000
# 5 0.0000 0.0000 0.0000 0.0000 10.6277 0.0000
# 6 0.0000 0.0000 0.0000 0.0000 0.0000 18.9865
#
#
#
# Elastic Compliance Matrix: (Units=1/GPa)
#
#
# Indices 1 2 3 4 5 6 
#
# 1 0.008174 -0.003104 -0.005870 0.000000 0.000000 0.000000
# 2 -0.003104 0.009923 -0.002417 0.000000 0.000000 0.000000
# 3 -0.005870 -0.002417 0.068691 0.000000 0.000000 0.000000
# 4 0.000000 0.000000 0.000000 0.000776 0.000000 0.000000
# 5 0.000000 0.000000 0.000000 0.000000 0.094094 0.000000
# 6 0.000000 0.000000 0.000000 0.000000 0.000000 0.052669
#
#
# Mechanical properties :
#
#
# Convention : Reuss Voigt Hill
#
# Bulk Modulus (GPa) = 15.62363 48.55334 32.08849
# Shear Modulus (GPa) = 17.95693 277.83506 147.89600
#
# Velocity S-wave (km/s) = 2.98788 11.75278 8.57483
# Velocity P-wave (km/s) = 4.43516 14.43292 10.67661
#
# Compressibility (1/GPa) = 0.06400560
#
# Stress axis : x y z
#
# Youngs Moduli (GPa) = 122.34347 100.77757 14.55790
#
# Poissons Ratio (x) = 0.31284 0.08546
# Poissons Ratio (y) = 0.37978 0.03518
# Poissons Ratio (z) = 0.71817 0.24355
#
# Static dielectric constant tensor:
#      x y z
#    x 1.707400 0.000000 0.000000 
#    y 0.000000 1.680320 0.000000 
#    z 0.000000 0.000000 1.731350 
# 
# From -- ./inp_files/6742.got.cif
#   From: 2010.05.17/outbox.cif.g08.bks.cpg/sg65_4_cif.got.tgz:6742.got - 2010.06.03 17:01:31.
