data_PCOD9487201
_publ_section_title
;
Structure prediction by ZEFSAII (Michael W. Deem and Ramdas Pophale) SiO2 
 PCOD9487201
Probable space group: C M M M
;
_chemical_formula_sum "Si O2"
_cell_formula_units_Z 72
_cell_length_a 13.931918
_cell_length_b 31.387850
_cell_length_c 9.504530
_cell_angle_alpha 90.000000
_cell_angle_beta 90.000000
_cell_angle_gamma 90.000000
_cell_volume 4156.263985
_symmetry_space_group_name_H-M "C M M M"
_symmetry_group_IT_number 65
_symmetry_cell_setting 'orthorhombic'
loop_
_space_group_symop_operation_xyz
x,y,z
-x,-y,z
x,-y,-z
-x,y,-z
-x,-y,-z
x,y,-z
-x,y,z
x,-y,z
1/2+x,1/2+y,z
1/2-x,1/2-y,z
1/2+x,1/2-y,-z
1/2-x,1/2+y,-z
1/2-x,1/2-y,-z
1/2+x,1/2+y,-z
1/2-x,1/2+y,z
1/2+x,1/2-y,z
loop_
_atom_site_type_symbol
_atom_site_label
_atom_site_fract_x
_atom_site_fract_y
_atom_site_fract_z
Si Si1 0.000000 0.066110 0.342302
Si Si2 0.220297 0.139787 0.157090
Si Si3 0.677843 0.210086 0.337796
Si Si4 0.500000 0.246794 0.171341
Si Si5 0.000000 0.154651 0.776713
Si Si6 0.313025 0.546341 0.835027
O O1 0.000000 0.117983 0.341844
O O2 0.907154 0.050358 0.259439
O O3 0.000000 0.050641 0.500000
O O4 0.264967 0.170238 0.273519
O O5 0.243455 0.090299 0.188018
O O6 0.103992 0.145066 0.154129
O O7 0.255099 0.150983 0.000000
O O8 0.646614 0.202946 0.500000
O O9 0.750000 0.250000 0.338492
O O10 0.591969 0.222482 0.233120
O O11 0.500000 0.294418 0.239313
O O12 0.500000 0.250369 0.000000
O O13 0.266815 0.500000 0.809683
O O14 0.341043 0.547707 0.000000
#
# Coordination Sequence:
#
# PCOD9487201 Si02
#       6
#     8  16  16   8   8  16
#     4  10  20  29  42  67 102 139 178 218 259 312
#     4  10  19  34  54  77 104 140 185 223 260 311
#     4  11  24  38  53  78 112 143 172 216 270 317
#     4  12  23  38  60  79 101 139 187 225 257 310
#     4  10  20  31  49  75 105 140 180 225 261 296
#     4   9  18  32  49  70  99 135 175 220 266 310
#
# _framework density 17.323250000000002
#
# number of rings (size 3 to 8) (size 9 to 14) (size 15 to 20)
#    0.000    1.778    2.222    2.667    0.000   10.667 
#    0.000    0.000    0.000    0.000    0.000    0.778 
#    0.000    6.222    0.000    0.000    0.000    0.000 
#
# Total GULP energy -200468.347476 kJ/mol
# GULP energy per Si atom -5568.565208 kJ/mol
# Density = 1.728382 g / cm^3
# Si number density = 17.323250 Si / 1000 Ang^3
#
#
#
# Elastic Constant Matrix: (Units=GPa)
#
#
# Indices 1 2 3 4 5 6 
#
# 1 44.8106 23.5011 18.9071 0.0000 0.0000 0.0000
# 2 23.5011 143.4510 56.3852 0.0000 0.0000 0.0000
# 3 18.9071 56.3852 76.0278 0.0000 0.0000 0.0000
# 4 0.0000 0.0000 0.0000 12.8994 0.0000 0.0000
# 5 0.0000 0.0000 0.0000 0.0000 24.1807 0.0000
# 6 0.0000 0.0000 0.0000 0.0000 0.0000 9.7164
#
#
#
# Elastic Compliance Matrix: (Units=1/GPa)
#
#
# Indices 1 2 3 4 5 6 
#
# 1 0.025494 -0.002378 -0.004577 0.000000 0.000000 0.000000
# 2 -0.002378 0.010061 -0.006870 0.000000 0.000000 0.000000
# 3 -0.004577 -0.006870 0.019387 0.000000 0.000000 0.000000
# 4 0.000000 0.000000 0.000000 0.077523 0.000000 0.000000
# 5 0.000000 0.000000 0.000000 0.000000 0.041355 0.000000
# 6 0.000000 0.000000 0.000000 0.000000 0.000000 0.102919
#
#
# Mechanical properties :
#
#
# Convention : Reuss Voigt Hill
#
# Bulk Modulus (GPa) = 36.64031 51.31959 43.97995
# Shear Modulus (GPa) = 15.94970 20.39237 18.17104
#
# Velocity S-wave (km/s) = 3.03761 3.43471 3.24225
# Velocity P-wave (km/s) = 5.78789 6.73934 6.28165
#
# Compressibility (1/GPa) = 0.02729234
#
# Stress axis : x y z
#
# Youngs Moduli (GPa) = 39.22457 99.39335 51.58215
#
# Poissons Ratio (x) = 0.23633 0.23607
# Poissons Ratio (y) = 0.09327 0.35439
# Poissons Ratio (z) = 0.17952 0.68287
#
# Static dielectric constant tensor:
#      x y z
#    x 1.562650 0.000000 0.000000 
#    y 0.000000 1.636770 0.000000 
#    z 0.000000 0.000000 1.588450 
# 
# From -- ./inp_files/7716.got.cif
#   From: 2010.05.17/outbox.cif.g08.bks.cpg/sg65_4_cif.got.tgz:7716.got - 2010.06.03 17:01:31.
