data_PCOD9487585
_publ_section_title
;
Structure prediction by ZEFSAII (Michael W. Deem and Ramdas Pophale) SiO2 
 PCOD9487585
Probable space group: C M M M
;
_chemical_formula_sum "Si O2"
_cell_formula_units_Z 96
_cell_length_a 11.754526
_cell_length_b 13.970068
_cell_length_c 31.919640
_cell_angle_alpha 90.000000
_cell_angle_beta 90.000000
_cell_angle_gamma 90.000000
_cell_volume 5241.572843
_symmetry_space_group_name_H-M "C M M M"
_symmetry_group_IT_number 65
_symmetry_cell_setting 'orthorhombic'
loop_
_space_group_symop_operation_xyz
x,y,z
-x,-y,z
x,-y,-z
-x,y,-z
-x,-y,-z
x,y,-z
-x,y,z
x,-y,z
1/2+x,1/2+y,z
1/2-x,1/2-y,z
1/2+x,1/2-y,-z
1/2-x,1/2+y,-z
1/2-x,1/2-y,-z
1/2+x,1/2+y,-z
1/2-x,1/2+y,z
1/2+x,1/2-y,z
loop_
_atom_site_type_symbol
_atom_site_label
_atom_site_fract_x
_atom_site_fract_y
_atom_site_fract_z
Si Si1 0.500000 0.883286 0.549357
Si Si2 0.864277 0.500000 0.953063
Si Si3 0.260396 0.116194 0.582844
Si Si4 0.750000 0.750000 0.265332
Si Si5 0.629641 0.383659 0.500000
Si Si6 0.365457 0.613089 0.668310
Si Si7 0.361585 0.817758 0.894600
Si Si8 0.365746 0.107514 0.200489
O O1 0.500000 0.856997 0.500000
O O2 0.611384 0.852105 0.574296
O O3 0.500000 0.000000 0.548943
O O4 0.840043 0.405683 0.926149
O O5 0.000000 0.500000 0.957373
O O6 0.814094 0.500000 0.000000
O O7 0.189865 0.147683 0.542338
O O8 0.203545 0.141618 0.626604
O O9 0.260162 0.000000 0.582269
O O10 0.671207 0.683902 0.294728
O O11 0.684528 0.822083 0.234776
O O12 0.633973 0.500000 0.500000
O O13 0.500000 0.354841 0.500000
O O14 0.500000 0.619709 0.660224
O O15 0.340584 0.500000 0.677637
O O16 0.500000 0.788475 0.899783
O O17 0.250000 0.750000 0.901069
O O18 0.351766 0.853632 0.846675
O O19 0.500000 0.101839 0.207818
O O20 0.317202 0.000000 0.203444
#
# Coordination Sequence:
#
# PCOD9487585 Si02
#       8
#     8   8  16   8   8  16  16  16
#     4   9  14  24  44  76 112 138 171 223 277 325
#     4   9  18  34  59  89 125 175 223 257 305 376
#     4   9  16  28  47  73 106 141 177 222 270 329
#     4  12  22  38  60  85 111 144 190 248 298 348
#     4   9  14  21  41  72  99 130 175 218 262 320
#     4  10  22  40  58  80 114 152 187 226 285 351
#     4  10  19  35  59  88 123 162 209 261 310 364
#     4  10  20  36  59  86 115 151 195 247 301 356
#
# _framework density 18.315113
#
# number of rings (size 3 to 8) (size 9 to 14) (size 15 to 20)
#    0.000    2.250    2.500    1.500    0.000    2.333 
#    3.000    0.417    0.000    2.000    0.000    0.000 
#    0.000    0.000    0.000    0.000    0.000    1.000 
#
# Total GULP energy -267609.643792 kJ/mol
# GULP energy per Si atom -5575.200912 kJ/mol
# Density = 1.827343 g / cm^3
# Si number density = 18.315113 Si / 1000 Ang^3
#
#
#
# Elastic Constant Matrix: (Units=GPa)
#
#
# Indices 1 2 3 4 5 6 
#
# 1 128.1913 64.7493 73.7073 0.0000 0.0000 0.0000
# 2 64.7493 120.1299 60.6309 0.0000 0.0000 0.0000
# 3 73.7073 60.6309 149.5132 0.0000 0.0000 0.0000
# 4 0.0000 0.0000 0.0000 -34.5334 0.0000 0.0000
# 5 0.0000 0.0000 0.0000 0.0000 23.5933 0.0000
# 6 0.0000 0.0000 0.0000 0.0000 0.0000 22.6724
#
#
#
# Elastic Compliance Matrix: (Units=1/GPa)
#
#
# Indices 1 2 3 4 5 6 
#
# 1 0.012636 -0.004610 -0.004360 0.000000 0.000000 0.000000
# 2 -0.004610 0.012149 -0.002654 0.000000 0.000000 0.000000
# 3 -0.004360 -0.002654 0.009914 0.000000 0.000000 0.000000
# 4 0.000000 0.000000 0.000000 -0.028958 0.000000 0.000000
# 5 0.000000 0.000000 0.000000 0.000000 0.042385 0.000000
# 6 0.000000 0.000000 0.000000 0.000000 0.000000 0.044106
#
#
# Mechanical properties :
#
#
# Convention : Reuss Voigt Hill
#
# Bulk Modulus (GPa) = 87.32952 88.44548 87.88750
# Shear Modulus (GPa) = 41.91193 15.59627 28.75410
#
# Velocity S-wave (km/s) = 4.78889 2.92130 3.96658
# Velocity P-wave (km/s) = 8.85230 7.73140 8.31077
#
# Compressibility (1/GPa) = 0.01145088
#
# Stress axis : x y z
#
# Youngs Moduli (GPa) = 79.13624 82.31338 100.86912
#
# Poissons Ratio (x) = 0.37951 0.43978
# Poissons Ratio (y) = 0.36486 0.26767
# Poissons Ratio (z) = 0.34502 0.21843
#
# Static dielectric constant tensor:
#      x y z
#    x 1.600300 0.000000 0.000000 
#    y 0.000000 1.695610 0.000000 
#    z 0.000000 0.000000 1.600940 
# 
# From -- ./inp_files/77406.got.cif
#   From: 2010.05.17/outbox.cif.g08.bks.cpg/sg65_39_cif.got.tgz:77406.got - 2010.06.03 17:01:31.
