data_PCOD9487832
_publ_section_title
;
Structure prediction by ZEFSAII (Michael W. Deem and Ramdas Pophale) SiO2 
 PCOD9487832
Probable space group: C M M M
;
_chemical_formula_sum "Si O2"
_cell_formula_units_Z 88
_cell_length_a 7.841766
_cell_length_b 29.573969
_cell_length_c 21.950940
_cell_angle_alpha 90.000000
_cell_angle_beta 90.000000
_cell_angle_gamma 90.000000
_cell_volume 5090.689571
_symmetry_space_group_name_H-M "C M M M"
_symmetry_group_IT_number 65
_symmetry_cell_setting 'orthorhombic'
loop_
_space_group_symop_operation_xyz
x,y,z
-x,-y,z
x,-y,-z
-x,y,-z
-x,-y,-z
x,y,-z
-x,y,z
x,-y,z
1/2+x,1/2+y,z
1/2-x,1/2-y,z
1/2+x,1/2-y,-z
1/2-x,1/2+y,-z
1/2-x,1/2-y,-z
1/2+x,1/2+y,-z
1/2-x,1/2+y,z
1/2+x,1/2-y,z
loop_
_atom_site_type_symbol
_atom_site_label
_atom_site_fract_x
_atom_site_fract_y
_atom_site_fract_z
Si Si1 0.794621 0.803266 0.934551
Si Si2 0.293855 0.302904 0.198507
Si Si3 0.703869 0.802882 0.567584
Si Si4 0.807141 0.445167 0.500000
Si Si5 0.703305 0.641109 0.686536
Si Si6 0.798152 0.050865 0.365828
O O1 0.750000 0.750000 0.934711
O O2 0.732747 0.819496 0.868324
O O3 0.000000 0.807618 0.934730
O O4 0.731496 0.821798 0.000000
O O5 0.500000 0.305440 0.198323
O O6 0.250000 0.250000 0.205831
O O7 0.227713 0.331819 0.255328
O O8 0.765572 0.817529 0.500000
O O9 0.500000 0.806962 0.568101
O O10 0.750000 0.750000 0.574348
O O11 0.771730 0.830719 0.624605
O O12 0.809976 0.500000 0.500000
O O13 0.723017 0.433463 0.436022
O O14 0.000000 0.427732 0.500000
O O15 0.500000 0.636742 0.695577
O O16 0.774370 0.590723 0.675798
O O17 0.000000 0.047612 0.354521
O O18 0.725729 0.000000 0.359302
#
# Coordination Sequence:
#
# PCOD9487832 Si02
#       6
#    16  16  16   8  16  16
#     4   8  13  22  37  56  79 107 135 162 193 232
#     4   9  17  28  41  60  85 110 138 168 200 239
#     4  10  21  35  48  62  81 107 140 176 209 245
#     4   9  17  29  45  63  80  97 122 163 213 257
#     4  10  20  31  45  63  83 109 139 174 212 251
#     4   9  18  32  47  62  81 106 136 170 211 258
#
# _framework density 17.286458
#
# number of rings (size 3 to 8) (size 9 to 14) (size 15 to 20)
#    0.000    2.818    0.000    1.364    1.273    5.091 
#    0.000    0.000    0.000    0.000    0.000    0.000 
#    0.000    0.727    0.000   10.182    0.000    0.000 
#
# Total GULP energy -245078.234176 kJ/mol
# GULP energy per Si atom -5569.959868 kJ/mol
# Density = 1.724711 g / cm^3
# Si number density = 17.286458 Si / 1000 Ang^3
#
#
#
# Elastic Constant Matrix: (Units=GPa)
#
#
# Indices 1 2 3 4 5 6 
#
# 1 21.5486 1.3352 3.5123 0.0000 0.0000 0.0000
# 2 1.3352 77.8162 77.4064 0.0000 0.0000 0.0000
# 3 3.5123 77.4064 166.7373 0.0000 0.0000 0.0000
# 4 0.0000 0.0000 0.0000 5.1304 0.0000 0.0000
# 5 0.0000 0.0000 0.0000 0.0000 12.7986 0.0000
# 6 0.0000 0.0000 0.0000 0.0000 0.0000 7.1473
#
#
#
# Elastic Compliance Matrix: (Units=1/GPa)
#
#
# Indices 1 2 3 4 5 6 
#
# 1 0.046571 0.000328 -0.001134 0.000000 0.000000 0.000000
# 2 0.000328 0.023880 -0.011093 0.000000 0.000000 0.000000
# 3 -0.001134 -0.011093 0.011171 0.000000 0.000000 0.000000
# 4 0.000000 0.000000 0.000000 0.194917 0.000000 0.000000
# 5 0.000000 0.000000 0.000000 0.000000 0.078134 0.000000
# 6 0.000000 0.000000 0.000000 0.000000 0.000000 0.139913
#
#
# Mechanical properties :
#
#
# Convention : Reuss Voigt Hill
#
# Bulk Modulus (GPa) = 17.29326 47.84556 32.56941
# Shear Modulus (GPa) = 9.29962 17.27180 13.28571
#
# Velocity S-wave (km/s) = 2.32194 3.16437 2.77530
# Velocity P-wave (km/s) = 4.14900 6.41008 5.39923
#
# Compressibility (1/GPa) = 0.05782601
#
# Stress axis : x y z
#
# Youngs Moduli (GPa) = 21.47256 41.87684 89.51687
#
# Poissons Ratio (x) = -0.01376 0.10147
# Poissons Ratio (y) = -0.00705 0.99299
# Poissons Ratio (z) = 0.02434 0.46453
#
# Static dielectric constant tensor:
#      x y z
#    x 1.637770 0.000000 0.000000 
#    y 0.000000 1.603100 0.000000 
#    z 0.000000 0.000000 1.635180 
# 
# From -- ./inp_files/60644.got.cif
#   From: 2010.05.17/outbox.cif.g08.bks.cpg/sg65_31_cif.got.tgz:60644.got - 2010.06.03 17:01:31.
