data_PCOD9487600
_publ_section_title
;
Structure prediction by ZEFSAII (Michael W. Deem and Ramdas Pophale) SiO2 
 PCOD9487600
Probable space group: C M M M
;
_chemical_formula_sum "Si O2"
_cell_formula_units_Z 100
_cell_length_a 29.016745
_cell_length_b 7.440937
_cell_length_c 21.452477
_cell_angle_alpha 90.000000
_cell_angle_beta 90.000000
_cell_angle_gamma 90.000000
_cell_volume 4631.842312
_symmetry_space_group_name_H-M "C M M M"
_symmetry_group_IT_number 65
_symmetry_cell_setting 'orthorhombic'
loop_
_space_group_symop_operation_xyz
x,y,z
-x,-y,z
x,-y,-z
-x,y,-z
-x,-y,-z
x,y,-z
-x,y,z
x,-y,z
1/2+x,1/2+y,z
1/2-x,1/2-y,z
1/2+x,1/2-y,-z
1/2-x,1/2+y,-z
1/2-x,1/2-y,-z
1/2+x,1/2+y,-z
1/2-x,1/2+y,z
1/2+x,1/2-y,z
loop_
_atom_site_type_symbol
_atom_site_label
_atom_site_fract_x
_atom_site_fract_y
_atom_site_fract_z
Si Si1 0.447259 0.782733 0.628516
Si Si2 0.407809 0.500000 0.000000
Si Si3 0.303995 0.286054 0.172106
Si Si4 0.553209 0.217698 0.231988
Si Si5 0.855062 0.209630 0.567722
Si Si6 0.195871 0.785191 0.311085
Si Si7 0.893464 0.293552 0.891663
O O1 0.500000 0.725851 0.617446
O O2 0.433120 0.721837 0.698534
O O3 0.409598 0.719822 0.579786
O O4 0.447044 0.000000 0.627955
O O5 0.406368 0.657655 0.945682
O O6 0.310224 0.500000 0.171422
O O7 0.250000 0.250000 0.161363
O O8 0.316036 0.215927 0.241845
O O9 0.338689 0.208454 0.121511
O O10 0.500000 0.271173 0.222295
O O11 0.583987 0.270751 0.173719
O O12 0.554246 0.000000 0.233778
O O13 0.843384 0.287754 0.500000
O O14 0.831369 0.288658 0.629479
O O15 0.841619 0.000000 0.565981
O O16 0.250000 0.750000 0.319947
O O17 0.188593 0.000000 0.308584
O O18 0.908179 0.500000 0.903645
#
# Coordination Sequence:
#
# PCOD9487600 Si02
#       7
#    16   4  16  16  16  16  16
#     4   9  18  34  56  82 110 139 185 242 289 337
#     4  12  26  44  59  88 130 160 196 238 275 348
#     4  10  19  35  60  88 116 143 190 248 295 348
#     4   8  16  34  61  90 115 145 187 239 296 345
#     4  10  21  35  49  71 110 155 194 230 282 348
#     4   9  19  34  54  81 110 142 183 239 293 335
#     4  11  22  40  65  86 119 162 196 237 289 344
#
# _framework density 21.589682
#
# number of rings (size 3 to 8) (size 9 to 14) (size 15 to 20)
#    0.000    2.400    0.800    2.640    0.000    2.560 
#    1.440    3.200    0.000    1.920    0.000    0.000 
#    0.000    0.000    0.000    0.000    0.000    0.000 
#
# Total GULP energy -278694.405039 kJ/mol
# GULP energy per Si atom -5573.888101 kJ/mol
# Density = 2.154054 g / cm^3
# Si number density = 21.589682 Si / 1000 Ang^3
#
#
#
# Elastic Constant Matrix: (Units=GPa)
#
#
# Indices 1 2 3 4 5 6 
#
# 1 24.1800 -9.8148 5.6449 0.0000 0.0000 0.0000
# 2 -9.8148 97.1140 9.9547 0.0000 0.0000 0.0000
# 3 5.6449 9.9547 45.2090 0.0000 0.0000 0.0000
# 4 0.0000 0.0000 0.0000 11.1196 0.0000 0.0000
# 5 0.0000 0.0000 0.0000 0.0000 -27.0773 0.0000
# 6 0.0000 0.0000 0.0000 0.0000 0.0000 7.6292
#
#
#
# Elastic Compliance Matrix: (Units=1/GPa)
#
#
# Indices 1 2 3 4 5 6 
#
# 1 0.045071 0.005251 -0.006784 0.000000 0.000000 0.000000
# 2 0.005251 0.011147 -0.003110 0.000000 0.000000 0.000000
# 3 -0.006784 -0.003110 0.023651 0.000000 0.000000 0.000000
# 4 0.000000 0.000000 0.000000 0.089931 0.000000 0.000000
# 5 0.000000 0.000000 0.000000 0.000000 -0.036931 0.000000
# 6 0.000000 0.000000 0.000000 0.000000 0.000000 0.131075
#
#
# Mechanical properties :
#
#
# Convention : Reuss Voigt Hill
#
# Bulk Modulus (GPa) = 14.16779 19.78586 16.97683
# Shear Modulus (GPa) = 16.84873 9.04885 12.94879
#
# Velocity S-wave (km/s) = 2.79661 2.04948 2.45167
# Velocity P-wave (km/s) = 4.12366 3.84511 3.98682
#
# Compressibility (1/GPa) = 0.07058265
#
# Stress axis : x y z
#
# Youngs Moduli (GPa) = 22.18700 89.71334 42.28094
#
# Poissons Ratio (x) = -0.47104 0.28683
# Poissons Ratio (y) = -0.11649 0.13149
# Poissons Ratio (z) = 0.15051 0.27901
#
# Static dielectric constant tensor:
#      x y z
#    x 1.783880 0.000000 0.000000 
#    y 0.000000 1.870500 0.000000 
#    z 0.000000 0.000000 1.778870 
# 
# From -- ./inp_files/65906.got.cif
#   From: 2010.05.17/outbox.cif.g08.bks.cpg/sg65_33_cif.got.tgz:65906.got - 2010.06.03 17:01:31.
