data_PCOD9487160
_publ_section_title
;
Structure prediction by ZEFSAII (Michael W. Deem and Ramdas Pophale) SiO2 
 PCOD9487160
Probable space group: C M M M
;
_chemical_formula_sum "Si O2"
_cell_formula_units_Z 120
_cell_length_a 7.812815
_cell_length_b 28.316526
_cell_length_c 27.402976
_cell_angle_alpha 90.000000
_cell_angle_beta 90.000000
_cell_angle_gamma 90.000000
_cell_volume 6062.409133
_symmetry_space_group_name_H-M "C M M M"
_symmetry_group_IT_number 65
_symmetry_cell_setting 'orthorhombic'
loop_
_space_group_symop_operation_xyz
x,y,z
-x,-y,z
x,-y,-z
-x,y,-z
-x,-y,-z
x,y,-z
-x,y,z
x,-y,z
1/2+x,1/2+y,z
1/2-x,1/2-y,z
1/2+x,1/2-y,-z
1/2-x,1/2+y,-z
1/2-x,1/2-y,-z
1/2+x,1/2+y,-z
1/2-x,1/2+y,z
1/2+x,1/2-y,z
loop_
_atom_site_type_symbol
_atom_site_label
_atom_site_fract_x
_atom_site_fract_y
_atom_site_fract_z
Si Si1 0.208498 0.447596 0.943510
Si Si2 0.304798 0.196351 0.694898
Si Si3 0.701526 0.347784 0.206213
Si Si4 0.794697 0.304291 0.000000
Si Si5 0.207073 0.647687 0.099612
Si Si6 0.300085 0.401519 0.346743
Si Si7 0.708590 0.444665 0.554062
Si Si8 0.709289 0.446976 0.753655
O O1 0.267766 0.500000 0.930603
O O2 0.265243 0.406394 0.907955
O O3 0.000000 0.447796 0.943224
O O4 0.256762 0.437707 0.000000
O O5 0.500000 0.191633 0.680433
O O6 0.250000 0.250000 0.685829
O O7 0.286076 0.184223 0.752386
O O8 0.211421 0.153601 0.667088
O O9 0.500000 0.346797 0.216980
O O10 0.731684 0.332549 0.150923
O O11 0.761925 0.402332 0.213079
O O12 0.750000 0.250000 0.000000
O O13 0.731756 0.326539 0.949403
O O14 0.000000 0.311469 0.000000
O O15 0.000000 0.648957 0.100263
O O16 0.500000 0.414208 0.348600
O O17 0.227651 0.415348 0.399409
O O18 0.231601 0.431600 0.300756
O O19 0.768788 0.429968 0.500000
O O20 0.500000 0.441628 0.552885
O O21 0.750322 0.500000 0.560864
O O22 0.500000 0.447830 0.754179
O O23 0.767132 0.500000 0.766356
#
# Coordination Sequence:
#
# PCOD9487160 Si02
#       8
#    16  16  16   8  16  16  16  16
#     4   8  13  24  46  73  97 124 159 196 235 283
#     4  11  22  38  58  77  98 126 165 215 267 319
#     4  10  21  35  52  77 105 133 165 201 248 302
#     4  10  22  38  55  73  93 121 156 194 237 288
#     4  10  19  34  53  74 100 128 160 200 244 291
#     4   9  16  28  49  77 107 140 179 219 259 301
#     4   8  13  22  42  77 117 153 188 222 254 294
#     4   8  14  26  45  69  99 136 173 205 240 287
#
# _framework density 19.794111000000001
#
# number of rings (size 3 to 8) (size 9 to 14) (size 15 to 20)
#    0.000    2.800    0.667    3.600    0.000    3.200 
#    0.000    1.333    0.000   14.000    0.000    1.867 
#    0.000    0.000    0.000    0.000    0.000    0.000 
#
# Total GULP energy -334529.103942 kJ/mol
# GULP energy per Si atom -5575.485066 kJ/mol
# Density = 1.974906 g / cm^3
# Si number density = 19.794111 Si / 1000 Ang^3
#
#
#
# Elastic Constant Matrix: (Units=GPa)
#
#
# Indices 1 2 3 4 5 6 
#
# 1 22.4425 -10.5425 -6.5950 0.0000 0.0000 0.0000
# 2 -10.5425 56.8933 22.9276 0.0000 0.0000 0.0000
# 3 -6.5950 22.9276 116.6810 0.0000 0.0000 0.0000
# 4 0.0000 0.0000 0.0000 2.7916 0.0000 0.0000
# 5 0.0000 0.0000 0.0000 0.0000 5.7812 0.0000
# 6 0.0000 0.0000 0.0000 0.0000 0.0000 8.6284
#
#
#
# Elastic Compliance Matrix: (Units=1/GPa)
#
#
# Indices 1 2 3 4 5 6 
#
# 1 0.048929 0.008636 0.001069 0.000000 0.000000 0.000000
# 2 0.008636 0.020613 -0.003562 0.000000 0.000000 0.000000
# 3 0.001069 -0.003562 0.009331 0.000000 0.000000 0.000000
# 4 0.000000 0.000000 0.000000 0.358220 0.000000 0.000000
# 5 0.000000 0.000000 0.000000 0.000000 0.172974 0.000000
# 6 0.000000 0.000000 0.000000 0.000000 0.000000 0.115896
#
#
# Mechanical properties :
#
#
# Convention : Reuss Voigt Hill
#
# Bulk Modulus (GPa) = 10.97002 23.06633 17.01817
# Shear Modulus (GPa) = 6.71986 16.12202 11.42094
#
# Velocity S-wave (km/s) = 1.84452 2.85702 2.40466
# Velocity P-wave (km/s) = 3.17654 4.74993 4.04056
#
# Compressibility (1/GPa) = 0.09115753
#
# Stress axis : x y z
#
# Youngs Moduli (GPa) = 20.43767 48.51399 107.17254
#
# Poissons Ratio (x) = -0.41897 -0.11452
# Poissons Ratio (y) = -0.17650 0.38177
# Poissons Ratio (z) = -0.02184 0.17282
#
# Static dielectric constant tensor:
#      x y z
#    x 1.747380 0.000000 0.000000 
#    y 0.000000 1.753480 0.000000 
#    z 0.000000 0.000000 1.709840 
# 
# From -- ./inp_files/73955.got.cif
#   From: 2010.05.17/outbox.cif.g08.bks.cpg/sg65_37_cif.got.tgz:73955.got - 2010.06.03 17:01:31.
