data_PCOD9487340
_publ_section_title
;
Structure prediction by ZEFSAII (Michael W. Deem and Ramdas Pophale) SiO2 
 PCOD9487340
Probable space group: C M M M
;
_chemical_formula_sum "Si O2"
_cell_formula_units_Z 72
_cell_length_a 8.670396
_cell_length_b 15.901133
_cell_length_c 26.981852
_cell_angle_alpha 90.000000
_cell_angle_beta 90.000000
_cell_angle_gamma 90.000000
_cell_volume 3719.964190
_symmetry_space_group_name_H-M "C M M M"
_symmetry_group_IT_number 65
_symmetry_cell_setting 'orthorhombic'
loop_
_space_group_symop_operation_xyz
x,y,z
-x,-y,z
x,-y,-z
-x,y,-z
-x,-y,-z
x,y,-z
-x,y,z
x,-y,z
1/2+x,1/2+y,z
1/2-x,1/2-y,z
1/2+x,1/2-y,-z
1/2-x,1/2+y,-z
1/2-x,1/2-y,-z
1/2+x,1/2+y,-z
1/2-x,1/2+y,z
1/2+x,1/2-y,z
loop_
_atom_site_type_symbol
_atom_site_label
_atom_site_fract_x
_atom_site_fract_y
_atom_site_fract_z
Si Si1 0.313532 0.660479 0.607259
Si Si2 0.182178 0.339358 0.157009
Si Si3 0.183463 0.100995 0.056078
Si Si4 0.187834 0.000000 0.328576
Si Si5 0.312239 0.402202 0.500000
Si Si6 0.814811 0.000000 0.785789
O O1 0.500000 0.662414 0.607493
O O2 0.250000 0.750000 0.623756
O O3 0.263145 0.583361 0.641952
O O4 0.261804 0.641568 0.550779
O O5 0.250000 0.250000 0.173349
O O6 0.225461 0.353694 0.099401
O O7 0.254553 0.417116 0.186699
O O8 0.000000 0.339740 0.163148
O O9 0.000000 0.116253 0.062236
O O10 0.206040 0.000000 0.060550
O O11 0.227217 0.125338 0.000000
O O12 0.235839 0.000000 0.271515
O O13 0.000000 0.000000 0.329312
O O14 0.265395 0.500000 0.500000
O O15 0.500000 0.401685 0.500000
O O16 0.000000 0.000000 0.787883
#
# Coordination Sequence:
#
# PCOD9487340 Si02
#       6
#    16  16  16   8   8   8
#     4  10  19  34  56  85 116 150 192 233 282 340
#     4  12  25  41  63  91 120 157 200 245 296 355
#     4   9  18  35  61  91 124 160 194 234 289 351
#     4   9  20  38  61  83 109 150 194 235 287 352
#     4   9  15  28  55  82 111 154 195 229 270 340
#     4  11  23  43  65  86 116 152 196 254 307 354
#
# _framework density 19.355024
#
# number of rings (size 3 to 8) (size 9 to 14) (size 15 to 20)
#    0.000    1.889    2.222    3.333    0.000    1.778 
#    0.000    6.111    0.000    0.667    0.000    0.000 
#    0.000    0.000    0.000    0.000    0.000    0.000 
#
# Total GULP energy -201149.737438 kJ/mol
# GULP energy per Si atom -5587.492707 kJ/mol
# Density = 1.931097 g / cm^3
# Si number density = 19.355024 Si / 1000 Ang^3
#
#
#
# Elastic Constant Matrix: (Units=GPa)
#
#
# Indices 1 2 3 4 5 6 
#
# 1 57.4271 47.2374 42.5940 0.0000 0.0000 0.0000
# 2 47.2374 174.5385 82.3916 0.0000 0.0000 0.0000
# 3 42.5940 82.3916 132.3519 0.0000 0.0000 0.0000
# 4 0.0000 0.0000 0.0000 -2.8007 0.0000 0.0000
# 5 0.0000 0.0000 0.0000 0.0000 4.3185 0.0000
# 6 0.0000 0.0000 0.0000 0.0000 0.0000 29.7472
#
#
#
# Elastic Compliance Matrix: (Units=1/GPa)
#
#
# Indices 1 2 3 4 5 6 
#
# 1 0.024854 -0.004179 -0.005397 0.000000 0.000000 0.000000
# 2 -0.004179 0.008816 -0.004144 0.000000 0.000000 0.000000
# 3 -0.005397 -0.004144 0.011872 0.000000 0.000000 0.000000
# 4 0.000000 0.000000 0.000000 -0.357058 0.000000 0.000000
# 5 0.000000 0.000000 0.000000 0.000000 0.231562 0.000000
# 6 0.000000 0.000000 0.000000 0.000000 0.000000 0.033617
#
#
# Mechanical properties :
#
#
# Convention : Reuss Voigt Hill
#
# Bulk Modulus (GPa) = 55.23888 78.75151 66.99520
# Shear Modulus (GPa) = -388.67624 19.05931 -184.80846
#
# Velocity S-wave (km/s) = -14.18626 3.14143 -9.78216
# Velocity P-wave (km/s) = 15.48327 7.34400 9.63840
#
# Compressibility (1/GPa) = 0.01810319
#
# Stress axis : x y z
#
# Youngs Moduli (GPa) = 40.23542 113.42657 84.23195
#
# Poissons Ratio (x) = 0.47397 0.45462
# Poissons Ratio (y) = 0.16813 0.34902
# Poissons Ratio (z) = 0.21716 0.46998
#
# Static dielectric constant tensor:
#      x y z
#    x 1.650470 0.000000 0.000000 
#    y 0.000000 1.657140 0.000000 
#    z 0.000000 0.000000 1.670930 
# 
# From -- ./inp_files/72570.got.cif
#   From: 2010.05.17/outbox.cif.g08.bks.cpg/sg65_37_cif.got.tgz:72570.got - 2010.06.03 17:01:31.
