data_PCOD9487542
_publ_section_title
;
Structure prediction by ZEFSAII (Michael W. Deem and Ramdas Pophale) SiO2 
 PCOD9487542
Probable space group: C M M M
;
_chemical_formula_sum "Si O2"
_cell_formula_units_Z 56
_cell_length_a 24.146190
_cell_length_b 7.846566
_cell_length_c 13.863373
_cell_angle_alpha 90.000000
_cell_angle_beta 90.000000
_cell_angle_gamma 90.000000
_cell_volume 2626.619439
_symmetry_space_group_name_H-M "C M M M"
_symmetry_group_IT_number 65
_symmetry_cell_setting 'orthorhombic'
loop_
_space_group_symop_operation_xyz
x,y,z
-x,-y,z
x,-y,-z
-x,y,-z
-x,-y,-z
x,y,-z
-x,y,z
x,-y,z
1/2+x,1/2+y,z
1/2-x,1/2-y,z
1/2+x,1/2-y,-z
1/2-x,1/2+y,-z
1/2-x,1/2-y,-z
1/2+x,1/2+y,-z
1/2-x,1/2+y,z
1/2+x,1/2-y,z
loop_
_atom_site_type_symbol
_atom_site_label
_atom_site_fract_x
_atom_site_fract_y
_atom_site_fract_z
Si Si1 0.381498 0.296059 0.810960
Si Si2 0.000000 0.308616 0.614251
Si Si3 0.813981 0.298772 0.000000
Si Si4 0.877272 0.802646 0.391922
Si Si5 0.000000 0.208426 0.112468
O O1 0.386101 0.500000 0.798388
O O2 0.356260 0.226878 0.709731
O O3 0.443327 0.231843 0.837549
O O4 0.343841 0.266788 0.903793
O O5 0.943303 0.208138 0.629652
O O6 0.000000 0.500000 0.656762
O O7 0.000000 0.331613 0.500000
O O8 0.750000 0.250000 0.000000
O O9 0.819502 0.500000 0.000000
O O10 0.867515 0.727530 0.500000
O O11 0.860272 0.000000 0.398509
O O12 0.000000 0.000000 0.115177
O O13 0.000000 0.257358 0.000000
#
# Coordination Sequence:
#
# PCOD9487542 Si02
#       5
#    16   8   8  16   8
#     4  10  19  35  58  83 114 151 187 225 272 326
#     4   9  16  25  39  64 104 151 191 226 263 306
#     4  12  26  43  62  83 107 138 182 232 281 332
#     4   9  17  29  48  75 107 145 187 225 265 323
#     4   9  15  26  49  79 112 149 185 217 263 322
#
# _framework density 21.320179
#
# number of rings (size 3 to 8) (size 9 to 14) (size 15 to 20)
#    0.000    2.286    1.429    2.571    0.000    5.143 
#    0.000    1.429    0.000    0.857    0.000    0.000 
#    0.000    0.000    0.000    0.000    0.000    0.000 
#
# Total GULP energy -155966.917130 kJ/mol
# GULP energy per Si atom -5570.247040 kJ/mol
# Density = 2.127165 g / cm^3
# Si number density = 21.320179 Si / 1000 Ang^3
#
#
#
# Elastic Constant Matrix: (Units=GPa)
#
#
# Indices 1 2 3 4 5 6 
#
# 1 68.8836 -4.0647 54.8087 0.0000 0.0000 0.0000
# 2 -4.0647 42.8641 9.5446 0.0000 0.0000 0.0000
# 3 54.8087 9.5446 263.2243 0.0000 0.0000 0.0000
# 4 0.0000 0.0000 0.0000 7.0794 0.0000 0.0000
# 5 0.0000 0.0000 0.0000 0.0000 -3.4643 0.0000
# 6 0.0000 0.0000 0.0000 0.0000 0.0000 7.4750
#
#
#
# Elastic Compliance Matrix: (Units=1/GPa)
#
#
# Indices 1 2 3 4 5 6 
#
# 1 0.017665 0.002514 -0.003769 0.000000 0.000000 0.000000
# 2 0.002514 0.023877 -0.001389 0.000000 0.000000 0.000000
# 3 -0.003769 -0.001389 0.004634 0.000000 0.000000 0.000000
# 4 0.000000 0.000000 0.000000 0.141255 0.000000 0.000000
# 5 0.000000 0.000000 0.000000 0.000000 -0.288663 0.000000
# 6 0.000000 0.000000 0.000000 0.000000 0.000000 0.133779
#
#
# Mechanical properties :
#
#
# Convention : Reuss Voigt Hill
#
# Bulk Modulus (GPa) = 24.45714 55.06102 39.75908
# Shear Modulus (GPa) = 97.15223 23.19693 60.17458
#
# Velocity S-wave (km/s) = 6.75775 3.30210 5.31841
# Velocity P-wave (km/s) = 8.50798 6.35770 7.51020
#
# Compressibility (1/GPa) = 0.04088786
#
# Stress axis : x y z
#
# Youngs Moduli (GPa) = 56.60986 41.88068 215.78357
#
# Poissons Ratio (x) = -0.10531 0.81336
# Poissons Ratio (y) = -0.14234 0.29980
# Poissons Ratio (z) = 0.21338 0.05819
#
# Static dielectric constant tensor:
#      x y z
#    x 1.744830 0.000000 0.000000 
#    y 0.000000 1.790640 0.000000 
#    z 0.000000 0.000000 1.922030 
# 
# From -- ./inp_files/35867.got.cif
#   From: 2010.05.17/outbox.cif.g08.bks.cpg/sg65_18_cif.got.tgz:35867.got - 2010.06.03 17:01:31.
