data_PCOD9487797
_publ_section_title
;
Structure prediction by ZEFSAII (Michael W. Deem and Ramdas Pophale) SiO2 
 PCOD9487797
Probable space group: C M M M
;
_chemical_formula_sum "Si O2"
_cell_formula_units_Z 96
_cell_length_a 14.197331
_cell_length_b 29.033243
_cell_length_c 14.680889
_cell_angle_alpha 90.000000
_cell_angle_beta 90.000000
_cell_angle_gamma 90.000000
_cell_volume 6051.382595
_symmetry_space_group_name_H-M "C M M M"
_symmetry_group_IT_number 65
_symmetry_cell_setting 'orthorhombic'
loop_
_space_group_symop_operation_xyz
x,y,z
-x,-y,z
x,-y,-z
-x,y,-z
-x,-y,-z
x,y,-z
-x,y,z
x,-y,z
1/2+x,1/2+y,z
1/2-x,1/2-y,z
1/2+x,1/2-y,-z
1/2-x,1/2+y,-z
1/2-x,1/2-y,-z
1/2+x,1/2+y,-z
1/2-x,1/2+y,z
1/2+x,1/2-y,z
loop_
_atom_site_type_symbol
_atom_site_label
_atom_site_fract_x
_atom_site_fract_y
_atom_site_fract_z
Si Si1 0.113998 0.728467 0.098812
Si Si2 0.195836 0.860171 0.294148
Si Si3 0.385955 0.664367 0.895091
Si Si4 0.387608 0.448070 0.608261
Si Si5 0.143082 0.231855 0.396398
Si Si6 0.605516 0.179289 0.282499
O O1 0.141579 0.781519 0.112162
O O2 0.138050 0.697007 0.183206
O O3 0.000000 0.728988 0.096537
O O4 0.148217 0.712482 0.000000
O O5 0.166687 0.860320 0.187749
O O6 0.162856 0.907173 0.339636
O O7 0.143579 0.815880 0.340636
O O8 0.307119 0.851944 0.312647
O O9 0.500000 0.661259 0.882610
O O10 0.366483 0.649941 0.000000
O O11 0.371231 0.443582 0.500000
O O12 0.500000 0.444260 0.622689
O O13 0.359045 0.500000 0.635610
O O14 0.109141 0.225413 0.500000
O O15 0.250000 0.250000 0.401767
O O16 0.097895 0.274296 0.342578
O O17 0.500000 0.158784 0.278771
#
# Coordination Sequence:
#
# PCOD9487797 Si02
#       6
#    16  16  16  16  16  16
#     4   8  14  26  42  60  90 131 168 200 230 261
#     4  11  19  30  51  72  92 126 164 195 235 287
#     4   9  17  28  44  69  98 126 161 203 241 280
#     4   9  19  36  57  79  97 113 144 197 253 296
#     4   9  18  30  42  61  90 123 159 195 230 273
#     4  10  20  31  42  65 101 134 164 196 228 269
#
# _framework density 15.864143
#
# number of rings (size 3 to 8) (size 9 to 14) (size 15 to 20)
#    0.000    2.667    1.667    2.500    0.000    2.333 
#    0.000    1.667    0.000    1.000    0.000    3.500 
#    0.000    0.000    0.000    5.667    0.000    0.167 
#
# Total GULP energy -267466.152849 kJ/mol
# GULP energy per Si atom -5572.211518 kJ/mol
# Density = 1.582804 g / cm^3
# Si number density = 15.864143 Si / 1000 Ang^3
#
#
#
# Elastic Constant Matrix: (Units=GPa)
#
#
# Indices 1 2 3 4 5 6 
#
# 1 76.6959 40.5935 31.2258 0.0000 0.0000 0.0000
# 2 40.5935 96.7993 49.8586 0.0000 0.0000 0.0000
# 3 31.2258 49.8586 87.0181 0.0000 0.0000 0.0000
# 4 0.0000 0.0000 0.0000 16.6521 0.0000 0.0000
# 5 0.0000 0.0000 0.0000 0.0000 18.6615 0.0000
# 6 0.0000 0.0000 0.0000 0.0000 0.0000 20.5117
#
#
#
# Elastic Compliance Matrix: (Units=1/GPa)
#
#
# Indices 1 2 3 4 5 6 
#
# 1 0.017260 -0.005743 -0.002903 0.000000 0.000000 0.000000
# 2 -0.005743 0.016567 -0.007431 0.000000 0.000000 0.000000
# 3 -0.002903 -0.007431 0.016792 0.000000 0.000000 0.000000
# 4 0.000000 0.000000 0.000000 0.060052 0.000000 0.000000
# 5 0.000000 0.000000 0.000000 0.000000 0.053586 0.000000
# 6 0.000000 0.000000 0.000000 0.000000 0.000000 0.048753
#
#
# Mechanical properties :
#
#
# Convention : Reuss Voigt Hill
#
# Bulk Modulus (GPa) = 54.16086 55.98545 55.07316
# Shear Modulus (GPa) = 19.89505 20.42077 20.15791
#
# Velocity S-wave (km/s) = 3.54515 3.59169 3.56850
# Velocity P-wave (km/s) = 7.13947 7.25034 7.19512
#
# Compressibility (1/GPa) = 0.01846352
#
# Stress axis : x y z
#
# Youngs Moduli (GPa) = 57.93733 60.36231 59.55357
#
# Poissons Ratio (x) = 0.34665 0.17290
# Poissons Ratio (y) = 0.33272 0.44257
# Poissons Ratio (z) = 0.16820 0.44858
#
# Static dielectric constant tensor:
#      x y z
#    x 1.590160 0.000000 0.000000 
#    y 0.000000 1.483200 0.000000 
#    z 0.000000 0.000000 1.577620 
# 
# From -- ./inp_files/41268.got.cif
#   From: 2010.05.17/outbox.cif.g08.bks.cpg/sg65_21_cif.got.tgz:41268.got - 2010.06.03 17:01:31.
