data_PCOD9487483
_publ_section_title
;
Structure prediction by ZEFSAII (Michael W. Deem and Ramdas Pophale) SiO2 
 PCOD9487483
Probable space group: C M M M
;
_chemical_formula_sum "Si O2"
_cell_formula_units_Z 104
_cell_length_a 29.673127
_cell_length_b 8.393867
_cell_length_c 23.593486
_cell_angle_alpha 90.000000
_cell_angle_beta 90.000000
_cell_angle_gamma 90.000000
_cell_volume 5876.483387
_symmetry_space_group_name_H-M "C M M M"
_symmetry_group_IT_number 65
_symmetry_cell_setting 'orthorhombic'
loop_
_space_group_symop_operation_xyz
x,y,z
-x,-y,z
x,-y,-z
-x,y,-z
-x,-y,-z
x,y,-z
-x,y,z
x,-y,z
1/2+x,1/2+y,z
1/2-x,1/2-y,z
1/2+x,1/2-y,-z
1/2-x,1/2+y,-z
1/2-x,1/2-y,-z
1/2+x,1/2+y,-z
1/2-x,1/2+y,z
1/2+x,1/2-y,z
loop_
_atom_site_type_symbol
_atom_site_label
_atom_site_fract_x
_atom_site_fract_y
_atom_site_fract_z
Si Si1 0.353970 0.692973 0.112239
Si Si2 0.801311 0.807111 0.000000
Si Si3 0.700095 0.190634 0.564821
Si Si4 0.301191 0.189846 0.223148
Si Si5 0.450018 0.306051 0.149817
Si Si6 0.450039 0.306079 0.717799
Si Si7 0.356607 0.691027 0.668505
O O1 0.354119 0.500000 0.112089
O O2 0.328338 0.747720 0.168634
O O3 0.406063 0.747144 0.115696
O O4 0.327565 0.747033 0.056361
O O5 0.750000 0.750000 0.000000
O O6 0.801241 0.000000 0.000000
O O7 0.691739 0.244899 0.500000
O O8 0.750000 0.250000 0.581296
O O9 0.663899 0.251526 0.609530
O O10 0.700416 0.000000 0.565501
O O11 0.250000 0.250000 0.220910
O O12 0.325330 0.250634 0.280000
O O13 0.301403 0.000000 0.222933
O O14 0.500000 0.252219 0.131520
O O15 0.450505 0.500000 0.148122
O O16 0.443891 0.261717 0.216053
O O17 0.500000 0.252851 0.699691
O O18 0.450114 0.500000 0.716591
O O19 0.407467 0.251558 0.681496
O O20 0.356679 0.500000 0.669240
#
# Coordination Sequence:
#
# PCOD9487483 Si02
#       7
#    16   8  16  16  16  16  16
#     4  10  19  35  54  76 103 134 173 214 260 310
#     4  10  22  36  53  73  99 135 176 220 261 314
#     4  10  21  37  55  76 106 143 181 219 258 306
#     4  12  24  36  51  74 104 136 171 214 264 313
#     4   8  13  25  49  77 104 133 165 205 256 311
#     4   8  14  26  48  78 106 134 168 207 255 308
#     4  11  20  33  55  81 108 137 172 216 261 308
#
# _framework density 17.697659000000002
#
# number of rings (size 3 to 8) (size 9 to 14) (size 15 to 20)
#    0.000    2.154    1.538    4.154    0.000    2.769 
#    0.000    0.385    0.000    6.000    0.000    3.231 
#    0.000    1.846    0.000    0.000    0.000    0.000 
#
# Total GULP energy -290161.555784 kJ/mol
# GULP energy per Si atom -5580.029919 kJ/mol
# Density = 1.765738 g / cm^3
# Si number density = 17.697659 Si / 1000 Ang^3
#
#
#
# Elastic Constant Matrix: (Units=GPa)
#
#
# Indices 1 2 3 4 5 6 
#
# 1 197.7401 20.8403 85.7723 0.0000 0.0000 0.0000
# 2 20.8403 27.1000 16.2645 0.0000 0.0000 0.0000
# 3 85.7723 16.2645 96.9921 0.0000 0.0000 0.0000
# 4 0.0000 0.0000 0.0000 46.3644 0.0000 0.0000
# 5 0.0000 0.0000 0.0000 0.0000 31.2701 0.0000
# 6 0.0000 0.0000 0.0000 0.0000 0.0000 18.5552
#
#
#
# Elastic Compliance Matrix: (Units=1/GPa)
#
#
# Indices 1 2 3 4 5 6 
#
# 1 0.008321 -0.002205 -0.006989 0.000000 0.000000 0.000000
# 2 -0.002205 0.041614 -0.005029 0.000000 0.000000 0.000000
# 3 -0.006989 -0.005029 0.017334 0.000000 0.000000 0.000000
# 4 0.000000 0.000000 0.000000 0.021568 0.000000 0.000000
# 5 0.000000 0.000000 0.000000 0.000000 0.031979 0.000000
# 6 0.000000 0.000000 0.000000 0.000000 0.000000 0.053893
#
#
# Mechanical properties :
#
#
# Convention : Reuss Voigt Hill
#
# Bulk Modulus (GPa) = 25.75688 63.06514 44.41101
# Shear Modulus (GPa) = 23.13802 32.50162 27.81982
#
# Velocity S-wave (km/s) = 3.61973 4.29008 3.96908
# Velocity P-wave (km/s) = 5.66174 7.76220 6.79364
#
# Compressibility (1/GPa) = 0.03882457
#
# Stress axis : x y z
#
# Youngs Moduli (GPa) = 120.17891 24.03050 57.69132
#
# Poissons Ratio (x) = 0.05298 0.40319
# Poissons Ratio (y) = 0.26494 0.29011
# Poissons Ratio (z) = 0.83990 0.12084
#
# Static dielectric constant tensor:
#      x y z
#    x 1.615780 0.000000 0.000000 
#    y 0.000000 1.618460 0.000000 
#    z 0.000000 0.000000 1.582270 
# 
# From -- ./inp_files/71837.got.cif
#   From: 2010.05.17/outbox.cif.g08.bks.cpg/sg65_36_cif.got.tgz:71837.got - 2010.06.03 17:01:31.
