data_PCOD9487841
_publ_section_title
;
Structure prediction by ZEFSAII (Michael W. Deem and Ramdas Pophale) SiO2 
 PCOD9487841
Probable space group: C M M M
;
_chemical_formula_sum "Si O2"
_cell_formula_units_Z 128
_cell_length_a 22.405322
_cell_length_b 18.530330
_cell_length_c 17.175614
_cell_angle_alpha 90.000000
_cell_angle_beta 90.000000
_cell_angle_gamma 90.000000
_cell_volume 7130.937248
_symmetry_space_group_name_H-M "C M M M"
_symmetry_group_IT_number 65
_symmetry_cell_setting 'orthorhombic'
loop_
_space_group_symop_operation_xyz
x,y,z
-x,-y,z
x,-y,-z
-x,y,-z
-x,-y,-z
x,y,-z
-x,y,z
x,-y,z
1/2+x,1/2+y,z
1/2-x,1/2-y,z
1/2+x,1/2-y,-z
1/2-x,1/2+y,-z
1/2-x,1/2-y,-z
1/2+x,1/2+y,-z
1/2-x,1/2+y,z
1/2+x,1/2-y,z
loop_
_atom_site_type_symbol
_atom_site_label
_atom_site_fract_x
_atom_site_fract_y
_atom_site_fract_z
Si Si1 0.571139 0.765705 0.915424
Si Si2 0.067854 0.778383 0.592970
Si Si3 0.756704 0.914966 0.910203
Si Si4 0.431370 0.417462 0.696181
Si Si5 0.849555 0.169891 0.808386
Si Si6 0.429314 0.078698 0.140121
Si Si7 0.175884 0.418648 0.759538
Si Si8 0.188699 0.726572 0.671557
O O1 0.500000 0.757491 0.908833
O O2 0.603325 0.723033 0.847995
O O3 0.584562 0.850686 0.909267
O O4 0.590257 0.738429 0.000000
O O5 0.070675 0.777386 0.500000
O O6 0.073309 0.859668 0.626687
O O7 0.125404 0.737091 0.627769
O O8 0.000000 0.753363 0.615979
O O9 0.808501 0.865376 0.874312
O O10 0.705008 0.907567 0.845259
O O11 0.773648 0.000000 0.909543
O O12 0.741766 0.896328 0.000000
O O13 0.500000 0.412874 0.725416
O O14 0.420404 0.500000 0.672740
O O15 0.384929 0.391641 0.761334
O O16 0.814913 0.219109 0.745828
O O17 0.500000 0.078957 0.151805
O O18 0.394249 0.085139 0.221150
O O19 0.412749 0.000000 0.105878
O O20 0.191780 0.500000 0.733969
O O21 0.193554 0.355184 0.702148
O O22 0.250000 0.750000 0.628766
#
# Coordination Sequence:
#
# PCOD9487841 Si02
#       8
#    16  16  16  16  16  16  16  16
#     4  10  20  31  45  68  99 137 181 234 291 336
#     4   9  20  38  61  89 119 149 178 214 265 326
#     4  10  21  35  51  71  99 140 185 232 283 329
#     4   9  18  32  54  83 111 142 178 218 266 320
#     4  11  19  33  51  72 104 140 184 228 273 327
#     4   9  18  32  49  68  91 123 169 223 280 336
#     4  10  20  36  53  75 106 141 182 230 277 329
#     4  11  21  36  56  86 112 144 185 223 273 326
#
# _framework density 17.949954999999999
#
# number of rings (size 3 to 8) (size 9 to 14) (size 15 to 20)
#    0.000    2.125    2.500    1.125    0.000    2.250 
#    0.000    4.375    0.000    0.375    0.000    6.125 
#    0.000    0.000    0.000    0.000    0.000    0.000 
#
# Total GULP energy -356600.367622 kJ/mol
# GULP energy per Si atom -5571.880744 kJ/mol
# Density = 1.790910 g / cm^3
# Si number density = 17.949955 Si / 1000 Ang^3
#
#
#
# Elastic Constant Matrix: (Units=GPa)
#
#
# Indices 1 2 3 4 5 6 
#
# 1 78.4262 45.1655 33.4265 0.0000 0.0000 0.0000
# 2 45.1655 82.6057 29.0170 0.0000 0.0000 0.0000
# 3 33.4265 29.0170 49.7286 0.0000 0.0000 0.0000
# 4 0.0000 0.0000 0.0000 8.9146 0.0000 0.0000
# 5 0.0000 0.0000 0.0000 0.0000 22.9259 0.0000
# 6 0.0000 0.0000 0.0000 0.0000 0.0000 26.6303
#
#
#
# Elastic Compliance Matrix: (Units=1/GPa)
#
#
# Indices 1 2 3 4 5 6 
#
# 1 0.021772 -0.008507 -0.009671 0.000000 0.000000 0.000000
# 2 -0.008507 0.018551 -0.005106 0.000000 0.000000 0.000000
# 3 -0.009671 -0.005106 0.029589 0.000000 0.000000 0.000000
# 4 0.000000 0.000000 0.000000 0.112175 0.000000 0.000000
# 5 0.000000 0.000000 0.000000 0.000000 0.043619 0.000000
# 6 0.000000 0.000000 0.000000 0.000000 0.000000 0.037551
#
#
# Mechanical properties :
#
#
# Convention : Reuss Voigt Hill
#
# Bulk Modulus (GPa) = 42.83791 47.33096 45.08444
# Shear Modulus (GPa) = 15.74278 18.57092 17.15685
#
# Velocity S-wave (km/s) = 2.96469 3.22000 3.09498
# Velocity P-wave (km/s) = 5.96961 6.34429 6.15980
#
# Compressibility (1/GPa) = 0.02334381
#
# Stress axis : x y z
#
# Youngs Moduli (GPa) = 45.93116 53.90653 33.79623
#
# Poissons Ratio (x) = 0.45858 0.32683
# Poissons Ratio (y) = 0.39073 0.17257
# Poissons Ratio (z) = 0.44418 0.27526
#
# Static dielectric constant tensor:
#      x y z
#    x 1.679400 0.000000 0.000000 
#    y 0.000000 1.616220 0.000000 
#    z 0.000000 0.000000 1.589260 
# 
# From -- ./inp_files/56990.got.cif
#   From: 2010.05.17/outbox.cif.g08.bks.cpg/sg65_29_cif.got.tgz:56990.got - 2010.06.03 17:01:31.
