data_PCOD9487851
_publ_section_title
;
Structure prediction by ZEFSAII (Michael W. Deem and Ramdas Pophale) SiO2 
 PCOD9487851
Probable space group: C M M M
;
_chemical_formula_sum "Si O2"
_cell_formula_units_Z 80
_cell_length_a 29.574111
_cell_length_b 7.930750
_cell_length_c 19.066047
_cell_angle_alpha 90.000000
_cell_angle_beta 90.000000
_cell_angle_gamma 90.000000
_cell_volume 4471.843721
_symmetry_space_group_name_H-M "C M M M"
_symmetry_group_IT_number 65
_symmetry_cell_setting 'orthorhombic'
loop_
_space_group_symop_operation_xyz
x,y,z
-x,-y,z
x,-y,-z
-x,y,-z
-x,-y,-z
x,y,-z
-x,y,z
x,-y,z
1/2+x,1/2+y,z
1/2-x,1/2-y,z
1/2+x,1/2-y,-z
1/2-x,1/2+y,-z
1/2-x,1/2-y,-z
1/2+x,1/2+y,-z
1/2-x,1/2+y,z
1/2+x,1/2-y,z
loop_
_atom_site_type_symbol
_atom_site_label
_atom_site_fract_x
_atom_site_fract_y
_atom_site_fract_z
Si Si1 0.141230 0.701587 0.285641
Si Si2 0.697230 0.204035 0.846953
Si Si3 0.802712 0.798207 0.422089
Si Si4 0.949104 0.299841 0.654069
Si Si5 0.197078 0.702820 0.000000
Si Si6 0.054836 0.809361 0.500000
O O1 0.137394 0.500000 0.276311
O O2 0.168134 0.768891 0.218371
O O3 0.169235 0.730276 0.356803
O O4 0.090642 0.770543 0.297411
O O5 0.750000 0.250000 0.838688
O O6 0.680348 0.263629 0.923895
O O7 0.695190 0.000000 0.846862
O O8 0.817547 0.738578 0.500000
O O9 0.750000 0.750000 0.414352
O O10 0.806260 0.000000 0.421084
O O11 0.952188 0.500000 0.665850
O O12 0.933503 0.275112 0.573445
O O13 0.000000 0.228944 0.662200
O O14 0.250000 0.750000 0.000000
O O15 0.192766 0.500000 0.000000
O O16 0.000000 0.812964 0.500000
O O17 0.072397 0.000000 0.500000
#
# Coordination Sequence:
#
# PCOD9487851 Si02
#       6
#    16  16  16  16   8   8
#     4  10  20  31  46  67  89 116 151 188 225 265
#     4   9  17  29  45  67  92 117 145 176 216 263
#     4  10  21  35  48  63  86 118 153 186 220 262
#     4   9  18  32  47  63  85 115 150 187 228 271
#     4   8  14  26  44  64  89 117 141 171 212 262
#     4   9  17  29  45  63  82 105 138 185 233 271
#
# _framework density 17.889714000000001
#
# number of rings (size 3 to 8) (size 9 to 14) (size 15 to 20)
#    0.000    2.700    0.000    1.500    1.400    5.600 
#    0.000    0.000    0.000    0.000    0.000    0.700 
#    0.000    5.600    0.000    0.000    0.000   47.500 
#
# Total GULP energy -222919.855740 kJ/mol
# GULP energy per Si atom -5572.996393 kJ/mol
# Density = 1.784900 g / cm^3
# Si number density = 17.889714 Si / 1000 Ang^3
#
#
#
# Elastic Constant Matrix: (Units=GPa)
#
#
# Indices 1 2 3 4 5 6 
#
# 1 94.0783 2.0432 85.8908 0.0000 0.0000 0.0000
# 2 2.0432 17.1398 3.9560 0.0000 0.0000 0.0000
# 3 85.8908 3.9560 161.2671 0.0000 0.0000 0.0000
# 4 0.0000 0.0000 0.0000 8.4616 0.0000 0.0000
# 5 0.0000 0.0000 0.0000 0.0000 8.9534 0.0000
# 6 0.0000 0.0000 0.0000 0.0000 0.0000 9.1997
#
#
#
# Elastic Compliance Matrix: (Units=1/GPa)
#
#
# Indices 1 2 3 4 5 6 
#
# 1 0.020690 0.000077 -0.011021 0.000000 0.000000 0.000000
# 2 0.000077 0.058676 -0.001481 0.000000 0.000000 0.000000
# 3 -0.011021 -0.001481 0.012107 0.000000 0.000000 0.000000
# 4 0.000000 0.000000 0.000000 0.118181 0.000000 0.000000
# 5 0.000000 0.000000 0.000000 0.000000 0.111689 0.000000
# 6 0.000000 0.000000 0.000000 0.000000 0.000000 0.108700
#
#
# Mechanical properties :
#
#
# Convention : Reuss Voigt Hill
#
# Bulk Modulus (GPa) = 15.00953 50.69612 32.85282
# Shear Modulus (GPa) = 10.47997 17.36261 13.92129
#
# Velocity S-wave (km/s) = 2.42298 3.11872 2.79260
# Velocity P-wave (km/s) = 4.02939 6.43181 5.36676
#
# Compressibility (1/GPa) = 0.06662436
#
# Stress axis : x y z
#
# Youngs Moduli (GPa) = 48.33260 17.04266 82.59556
#
# Poissons Ratio (x) = -0.00132 0.91032
# Poissons Ratio (y) = -0.00374 0.12229
# Poissons Ratio (z) = 0.53269 0.02523
#
# Static dielectric constant tensor:
#      x y z
#    x 1.633810 0.000000 0.000000 
#    y 0.000000 1.654180 0.000000 
#    z 0.000000 0.000000 1.639910 
# 
# From -- ./inp_files/57878.got.cif
#   From: 2010.05.17/outbox.cif.g08.bks.cpg/sg65_29_cif.got.tgz:57878.got - 2010.06.03 17:01:31.
