data_PCOD9487492
_publ_section_title
;
Structure prediction by ZEFSAII (Michael W. Deem and Ramdas Pophale) SiO2 
 PCOD9487492
Probable space group: C M M M
;
_chemical_formula_sum "Si O2"
_cell_formula_units_Z 104
_cell_length_a 16.938466
_cell_length_b 26.597083
_cell_length_c 13.064717
_cell_angle_alpha 90.000000
_cell_angle_beta 90.000000
_cell_angle_gamma 90.000000
_cell_volume 5885.835120
_symmetry_space_group_name_H-M "C M M M"
_symmetry_group_IT_number 65
_symmetry_cell_setting 'orthorhombic'
loop_
_space_group_symop_operation_xyz
x,y,z
-x,-y,z
x,-y,-z
-x,y,-z
-x,-y,-z
x,y,-z
-x,y,z
x,-y,z
1/2+x,1/2+y,z
1/2-x,1/2-y,z
1/2+x,1/2-y,-z
1/2-x,1/2+y,-z
1/2-x,1/2-y,-z
1/2+x,1/2+y,-z
1/2-x,1/2+y,z
1/2+x,1/2-y,z
loop_
_atom_site_type_symbol
_atom_site_label
_atom_site_fract_x
_atom_site_fract_y
_atom_site_fract_z
Si Si1 0.408269 0.688990 0.282318
Si Si2 0.000000 0.560613 0.123776
Si Si3 0.857641 0.375881 0.773622
Si Si4 0.084880 0.080945 0.621362
Si Si5 0.772972 0.808660 0.880537
Si Si6 0.593847 0.791192 0.386377
Si Si7 0.258312 0.056920 0.618919
O O1 0.500000 0.697572 0.250584
O O2 0.408332 0.639970 0.353571
O O3 0.349369 0.680327 0.188549
O O4 0.377895 0.737485 0.344261
O O5 0.076133 0.590404 0.169748
O O6 0.000000 0.500000 0.148542
O O7 0.000000 0.564589 0.000000
O O8 0.798603 0.345395 0.848148
O O9 0.892587 0.333599 0.697902
O O10 0.807304 0.410620 0.697658
O O11 0.081708 0.072793 0.500000
O O12 0.167000 0.057178 0.654253
O O13 0.000000 0.063570 0.664426
O O14 0.750000 0.750000 0.863988
O O15 0.790287 0.815107 0.000000
O O16 0.626249 0.802734 0.500000
O O17 0.500000 0.785799 0.396421
O O18 0.261475 0.075139 0.500000
O O19 0.287920 0.000000 0.618865
#
# Coordination Sequence:
#
# PCOD9487492 Si02
#       7
#    16   8  16  16  16  16  16
#     4  10  19  35  55  82 115 151 188 225 273 333
#     4  11  26  46  67  87 105 141 206 266 304 345
#     4  12  21  40  60  83 112 151 184 237 299 349
#     4   9  17  31  53  80 113 150 186 223 265 322
#     4  11  23  38  56  83 116 149 191 239 285 341
#     4  10  20  34  55  83 115 150 187 223 268 340
#     4  10  21  35  54  83 115 146 184 231 284 344
#
# _framework density 17.669540000000001
#
# number of rings (size 3 to 8) (size 9 to 14) (size 15 to 20)
#    0.000    1.615    3.846    1.846    0.000    2.462 
#    0.000    2.308    0.000    1.846    0.000    0.000 
#    0.000    2.462    0.000    0.000    0.000    0.000 
#
# Total GULP energy -289842.595163 kJ/mol
# GULP energy per Si atom -5573.896061 kJ/mol
# Density = 1.762932 g / cm^3
# Si number density = 17.669540 Si / 1000 Ang^3
#
#
#
# Elastic Constant Matrix: (Units=GPa)
#
#
# Indices 1 2 3 4 5 6 
#
# 1 77.9128 26.2802 25.4877 0.0000 0.0000 0.0000
# 2 26.2802 91.4884 18.1341 0.0000 0.0000 0.0000
# 3 25.4877 18.1341 49.5827 0.0000 0.0000 0.0000
# 4 0.0000 0.0000 0.0000 22.3832 0.0000 0.0000
# 5 0.0000 0.0000 0.0000 0.0000 24.1192 0.0000
# 6 0.0000 0.0000 0.0000 0.0000 0.0000 3.0448
#
#
#
# Elastic Compliance Matrix: (Units=1/GPa)
#
#
# Indices 1 2 3 4 5 6 
#
# 1 0.016281 -0.003254 -0.007179 0.000000 0.000000 0.000000
# 2 -0.003254 0.012435 -0.002875 0.000000 0.000000 0.000000
# 3 -0.007179 -0.002875 0.024910 0.000000 0.000000 0.000000
# 4 0.000000 0.000000 0.000000 0.044676 0.000000 0.000000
# 5 0.000000 0.000000 0.000000 0.000000 0.041461 0.000000
# 6 0.000000 0.000000 0.000000 0.000000 0.000000 0.328427
#
#
# Mechanical properties :
#
#
# Convention : Reuss Voigt Hill
#
# Bulk Modulus (GPa) = 37.02358 39.86533 38.44446
# Shear Modulus (GPa) = 9.92438 19.84823 14.88631
#
# Velocity S-wave (km/s) = 2.37252 3.35521 2.90571
# Velocity P-wave (km/s) = 5.33891 6.13355 5.74998
#
# Compressibility (1/GPa) = 0.02700981
#
# Stress axis : x y z
#
# Youngs Moduli (GPa) = 61.42183 80.41874 40.14401
#
# Poissons Ratio (x) = 0.26166 0.28820
# Poissons Ratio (y) = 0.19985 0.11543
# Poissons Ratio (z) = 0.44095 0.23123
#
# Static dielectric constant tensor:
#      x y z
#    x 1.628140 0.000000 0.000000 
#    y 0.000000 1.619150 0.000000 
#    z 0.000000 0.000000 1.581810 
# 
# From -- ./inp_files/25558.got.cif
#   From: 2010.05.17/outbox.cif.g08.bks.cpg/sg65_13_cif.got.tgz:25558.got - 2010.06.03 17:01:31.
