data_PCOD9487396
_publ_section_title
;
Structure prediction by ZEFSAII (Michael W. Deem and Ramdas Pophale) SiO2 
 PCOD9487396
Probable space group: C M M M
;
_chemical_formula_sum "Si O2"
_cell_formula_units_Z 72
_cell_length_a 25.116398
_cell_length_b 18.172149
_cell_length_c 7.678271
_cell_angle_alpha 90.000000
_cell_angle_beta 90.000000
_cell_angle_gamma 90.000000
_cell_volume 3504.508209
_symmetry_space_group_name_H-M "C M M M"
_symmetry_group_IT_number 65
_symmetry_cell_setting 'orthorhombic'
loop_
_space_group_symop_operation_xyz
x,y,z
-x,-y,z
x,-y,-z
-x,y,-z
-x,-y,-z
x,y,-z
-x,y,z
x,-y,z
1/2+x,1/2+y,z
1/2-x,1/2-y,z
1/2+x,1/2-y,-z
1/2-x,1/2+y,-z
1/2-x,1/2-y,-z
1/2+x,1/2+y,-z
1/2-x,1/2+y,z
1/2+x,1/2-y,z
loop_
_atom_site_type_symbol
_atom_site_label
_atom_site_fract_x
_atom_site_fract_y
_atom_site_fract_z
Si Si1 0.749933 0.917725 0.210904
Si Si2 0.655984 0.310773 0.212055
Si Si3 0.937868 0.411605 0.000000
Si Si4 0.939620 0.916032 0.212288
Si Si5 0.863413 0.643234 0.693782
O O1 0.791518 0.855439 0.267200
O O2 0.690869 0.901944 0.276701
O O3 0.767597 0.000000 0.260912
O O4 0.748099 0.915245 0.000000
O O5 0.604743 0.358366 0.267545
O O6 0.652112 0.228526 0.280646
O O7 0.656494 0.306911 0.000000
O O8 0.906981 0.379787 0.834113
O O9 0.933531 0.500000 0.000000
O O10 0.000000 0.391370 0.000000
O O11 0.000000 0.898156 0.266880
O O12 0.927532 0.000000 0.266221
O O13 0.939179 0.916060 0.000000
O O14 0.883539 0.630634 0.500000
#
# Coordination Sequence:
#
# PCOD9487396 Si02
#       5
#    16  16   8  16  16
#     4  10  20  36  61  91 128 173 219 266 315 374
#     4  10  19  34  57  91 129 172 214 259 312 372
#     4  11  26  50  75  96 123 161 207 262 322 386
#     4   8  14  26  48  81 119 160 209 260 307 361
#     4  12  25  42  66  97 130 166 208 261 323 383
#
# _framework density 20.544967
#
# number of rings (size 3 to 8) (size 9 to 14) (size 15 to 20)
#    0.000    1.889    2.222    2.667    0.000    9.333 
#    0.000    1.111    0.000    2.000    0.000    1.556 
#    0.000    0.000    0.000    0.000    0.000    0.000 
#
# Total GULP energy -201297.646552 kJ/mol
# GULP energy per Si atom -5591.601293 kJ/mol
# Density = 2.049821 g / cm^3
# Si number density = 20.544967 Si / 1000 Ang^3
#
#
#
# Elastic Constant Matrix: (Units=GPa)
#
#
# Indices 1 2 3 4 5 6 
#
# 1 113.2910 44.9936 48.0849 0.0000 0.0000 0.0000
# 2 44.9936 90.2100 31.2341 0.0000 0.0000 0.0000
# 3 48.0849 31.2341 96.6188 0.0000 0.0000 0.0000
# 4 0.0000 0.0000 0.0000 -28.8897 0.0000 0.0000
# 5 0.0000 0.0000 0.0000 0.0000 -18.5282 0.0000
# 6 0.0000 0.0000 0.0000 0.0000 0.0000 -43.8420
#
#
#
# Elastic Compliance Matrix: (Units=1/GPa)
#
#
# Indices 1 2 3 4 5 6 
#
# 1 0.012733 -0.004681 -0.004824 0.000000 0.000000 0.000000
# 2 -0.004681 0.014203 -0.002262 0.000000 0.000000 0.000000
# 3 -0.004824 -0.002262 0.013482 0.000000 0.000000 0.000000
# 4 0.000000 0.000000 0.000000 -0.034614 0.000000 0.000000
# 5 0.000000 0.000000 0.000000 0.000000 -0.053972 0.000000
# 6 0.000000 0.000000 0.000000 0.000000 0.000000 -0.022809
#
#
# Mechanical properties :
#
#
# Convention : Reuss Voigt Hill
#
# Bulk Modulus (GPa) = 59.22393 60.97166 60.09779
# Shear Modulus (GPa) = -119.57139 -6.53150 -63.05145
#
# Velocity S-wave (km/s) = -7.63716 -1.78494 -5.54582
# Velocity P-wave (km/s) = 6.99137 5.04912 3.41948
#
# Compressibility (1/GPa) = 0.01688507
#
# Stress axis : x y z
#
# Youngs Moduli (GPa) = 78.53490 70.40782 74.17349
#
# Poissons Ratio (x) = 0.32956 0.35780
# Poissons Ratio (y) = 0.36760 0.16778
# Poissons Ratio (z) = 0.37884 0.15926
#
# Static dielectric constant tensor:
#      x y z
#    x 1.690200 0.000000 0.000000 
#    y 0.000000 1.708330 0.000000 
#    z 0.000000 0.000000 1.763410 
# 
# From -- ./inp_files/13608.got.cif
#   From: 2010.05.17/outbox.cif.g08.bks.cpg/sg65_7_cif.got.tgz:13608.got - 2010.06.03 17:01:31.
