data_PCOD9487677
_publ_section_title
;
Structure prediction by ZEFSAII (Michael W. Deem and Ramdas Pophale) SiO2 
 PCOD9487677
Probable space group: C M M M
;
_chemical_formula_sum "Si O2"
_cell_formula_units_Z 80
_cell_length_a 7.476532
_cell_length_b 16.157807
_cell_length_c 31.683252
_cell_angle_alpha 90.000000
_cell_angle_beta 90.000000
_cell_angle_gamma 90.000000
_cell_volume 3827.475015
_symmetry_space_group_name_H-M "C M M M"
_symmetry_group_IT_number 65
_symmetry_cell_setting 'orthorhombic'
loop_
_space_group_symop_operation_xyz
x,y,z
-x,-y,z
x,-y,-z
-x,y,-z
-x,-y,-z
x,y,-z
-x,y,z
x,-y,z
1/2+x,1/2+y,z
1/2-x,1/2-y,z
1/2+x,1/2-y,-z
1/2-x,1/2+y,-z
1/2-x,1/2-y,-z
1/2+x,1/2+y,-z
1/2-x,1/2+y,z
1/2+x,1/2-y,z
loop_
_atom_site_type_symbol
_atom_site_label
_atom_site_fract_x
_atom_site_fract_y
_atom_site_fract_z
Si Si1 0.202491 0.900943 0.681955
Si Si2 0.713876 0.347974 0.409112
Si Si3 0.287524 0.348106 0.091767
Si Si4 0.500000 0.898095 0.253458
Si Si5 0.786523 0.848852 0.000000
Si Si6 0.000000 0.597229 0.158225
Si Si7 0.214659 0.849174 0.500000
O O1 0.279398 0.882416 0.635393
O O2 0.328300 0.870990 0.719486
O O3 0.000000 0.867340 0.684735
O O4 0.192536 0.000000 0.685406
O O5 0.500000 0.362633 0.409106
O O6 0.750000 0.250000 0.408645
O O7 0.782186 0.380519 0.454540
O O8 0.500000 0.362551 0.096373
O O9 0.250000 0.250000 0.090384
O O10 0.225318 0.381435 0.045593
O O11 0.172402 0.380492 0.130398
O O12 0.500000 0.866893 0.205485
O O13 0.500000 0.000000 0.253328
O O14 0.750000 0.750000 0.000000
O O15 0.000000 0.859068 0.000000
O O16 0.000000 0.500000 0.163734
O O17 0.250000 0.750000 0.500000
O O18 0.000000 0.860649 0.500000
#
# Coordination Sequence:
#
# PCOD9487677 Si02
#       7
#    16  16  16   8   8   8   8
#     4   9  18  34  55  75  96 129 173 215 258 312
#     4   9  17  28  47  71  99 128 162 202 252 306
#     4  10  19  36  61  86 119 154 193 235 281 335
#     4   9  20  38  57  75 101 138 179 220 268 329
#     4   8  16  28  52  87 111 148 196 229 265 336
#     4  11  24  39  58  87 116 151 197 240 292 349
#     4   8  14  26  41  65  96 130 160 190 239 310
#
# _framework density 20.901506999999999
#
# number of rings (size 3 to 8) (size 9 to 14) (size 15 to 20)
#    0.000    2.800    1.000    0.000    2.800    1.200 
#    0.000    4.500    0.000    4.800    0.000    2.100 
#    0.000    0.000    0.000    0.000    0.000    0.000 
#
# Total GULP energy -222903.729982 kJ/mol
# GULP energy per Si atom -5572.593250 kJ/mol
# Density = 2.085393 g / cm^3
# Si number density = 20.901507 Si / 1000 Ang^3
#
#
#
# Elastic Constant Matrix: (Units=GPa)
#
#
# Indices 1 2 3 4 5 6 
#
# 1 109.6811 1.8174 86.5251 0.0000 0.0000 0.0000
# 2 1.8174 4.7758 14.7502 0.0000 0.0000 0.0000
# 3 86.5251 14.7502 259.5021 0.0000 0.0000 0.0000
# 4 0.0000 0.0000 0.0000 28.7175 0.0000 0.0000
# 5 0.0000 0.0000 0.0000 0.0000 64.9415 0.0000
# 6 0.0000 0.0000 0.0000 0.0000 0.0000 10.6936
#
#
#
# Elastic Compliance Matrix: (Units=1/GPa)
#
#
# Indices 1 2 3 4 5 6 
#
# 1 0.012757 0.010046 -0.004824 0.000000 0.000000 0.000000
# 2 0.010046 0.261884 -0.018235 0.000000 0.000000 0.000000
# 3 -0.004824 -0.018235 0.006499 0.000000 0.000000 0.000000
# 4 0.000000 0.000000 0.000000 0.034822 0.000000 0.000000
# 5 0.000000 0.000000 0.000000 0.000000 0.015398 0.000000
# 6 0.000000 0.000000 0.000000 0.000000 0.000000 0.093514
#
#
# Mechanical properties :
#
#
# Convention : Reuss Voigt Hill
#
# Bulk Modulus (GPa) = 3.91984 64.46050 34.19017
# Shear Modulus (GPa) = 9.32942 38.92828 24.12885
#
# Velocity S-wave (km/s) = 2.11500 4.32031 3.40134
# Velocity P-wave (km/s) = 2.80067 7.46953 5.64081
#
# Compressibility (1/GPa) = 0.25511229
#
# Stress axis : x y z
#
# Youngs Moduli (GPa) = 78.38951 3.81848 153.87840
#
# Poissons Ratio (x) = -0.03836 0.74238
# Poissons Ratio (y) = -0.78749 2.80599
# Poissons Ratio (z) = 0.37819 0.06963
#
# Static dielectric constant tensor:
#      x y z
#    x 1.764630 0.000000 0.000000 
#    y 0.000000 1.735000 0.000000 
#    z 0.000000 0.000000 1.798710 
# 
# From -- ./inp_files/73044.got.cif
#   From: 2010.05.17/outbox.cif.g08.bks.cpg/sg65_37_cif.got.tgz:73044.got - 2010.06.03 17:01:31.
