data_PCOD9487295
_publ_section_title
;
Structure prediction by ZEFSAII (Michael W. Deem and Ramdas Pophale) SiO2 
 PCOD9487295
Probable space group: C M M M
;
_chemical_formula_sum "Si O2"
_cell_formula_units_Z 88
_cell_length_a 25.789264
_cell_length_b 20.720468
_cell_length_c 7.435830
_cell_angle_alpha 90.000000
_cell_angle_beta 90.000000
_cell_angle_gamma 90.000000
_cell_volume 3973.451904
_symmetry_space_group_name_H-M "C M M M"
_symmetry_group_IT_number 65
_symmetry_cell_setting 'orthorhombic'
loop_
_space_group_symop_operation_xyz
x,y,z
-x,-y,z
x,-y,-z
-x,y,-z
-x,-y,-z
x,y,-z
-x,y,z
x,-y,z
1/2+x,1/2+y,z
1/2-x,1/2-y,z
1/2+x,1/2-y,-z
1/2-x,1/2+y,-z
1/2-x,1/2-y,-z
1/2+x,1/2+y,-z
1/2-x,1/2+y,z
1/2+x,1/2-y,z
loop_
_atom_site_type_symbol
_atom_site_label
_atom_site_fract_x
_atom_site_fract_y
_atom_site_fract_z
Si Si1 0.500000 0.924543 0.219908
Si Si2 0.748997 0.070446 0.782412
Si Si3 0.369661 0.430300 0.781259
Si Si4 0.056029 0.820682 0.219332
Si Si5 0.582625 0.181377 0.211046
Si Si6 0.297184 0.794396 0.298585
O O1 0.448758 0.882225 0.277450
O O2 0.500000 0.000000 0.279471
O O3 0.500000 0.927739 0.000000
O O4 0.809450 0.072093 0.734240
O O5 0.723516 0.132906 0.701373
O O6 0.727778 0.000000 0.730196
O O7 0.744920 0.075060 0.000000
O O8 0.390952 0.500000 0.723816
O O9 0.399650 0.368132 0.715460
O O10 0.371710 0.429394 0.000000
O O11 0.059820 0.747841 0.286486
O O12 0.000000 0.848489 0.262769
O O13 0.059980 0.817688 0.000000
O O14 0.644699 0.194643 0.223503
O O15 0.570950 0.179881 0.000000
O O16 0.304444 0.768269 0.500000
O O17 0.250000 0.750000 0.216831
#
# Coordination Sequence:
#
# PCOD9487295 Si02
#       6
#     8  16  16  16  16  16
#     4   9  18  34  57  85 112 138 178 235 291 344
#     4   9  18  34  55  78 104 137 180 224 270 327
#     4   8  14  24  40  66  99 131 163 203 249 300
#     4   9  15  24  42  68  97 129 166 205 249 305
#     4  10  19  34  56  79 105 139 181 228 280 336
#     4  11  24  38  53  79 114 149 189 235 282 336
#
# _framework density 22.146991
#
# number of rings (size 3 to 8) (size 9 to 14) (size 15 to 20)
#    0.000    2.636    0.909    2.727    0.000    4.364 
#    0.000    4.091    0.000    0.545    0.000    0.000 
#    0.000    0.000    0.000   15.636    0.000   11.636 
#
# Total GULP energy -245093.932943 kJ/mol
# GULP energy per Si atom -5570.316658 kJ/mol
# Density = 2.209658 g / cm^3
# Si number density = 22.146991 Si / 1000 Ang^3
#
#
#
# Elastic Constant Matrix: (Units=GPa)
#
#
# Indices 1 2 3 4 5 6 
#
# 1 98.6885 61.1767 -0.5634 0.0000 0.0000 0.0000
# 2 61.1767 129.2804 0.7228 0.0000 0.0000 0.0000
# 3 -0.5634 0.7228 63.1200 0.0000 0.0000 0.0000
# 4 0.0000 0.0000 0.0000 8.3155 0.0000 0.0000
# 5 0.0000 0.0000 0.0000 0.0000 -253.7035 0.0000
# 6 0.0000 0.0000 0.0000 0.0000 0.0000 42.7762
#
#
#
# Elastic Compliance Matrix: (Units=1/GPa)
#
#
# Indices 1 2 3 4 5 6 
#
# 1 0.014342 -0.006788 0.000206 0.000000 0.000000 0.000000
# 2 -0.006788 0.010948 -0.000186 0.000000 0.000000 0.000000
# 3 0.000206 -0.000186 0.015847 0.000000 0.000000 0.000000
# 4 0.000000 0.000000 0.000000 0.120257 0.000000 0.000000
# 5 0.000000 0.000000 0.000000 0.000000 -0.003942 0.000000
# 6 0.000000 0.000000 0.000000 0.000000 0.000000 0.023377
#
#
# Mechanical properties :
#
#
# Convention : Reuss Voigt Hill
#
# Bulk Modulus (GPa) = 36.23088 45.97346 41.10217
# Shear Modulus (GPa) = 24.56209 -25.20550 -0.32171
#
# Velocity S-wave (km/s) = 3.33385 -3.37723 -0.38154
# Velocity P-wave (km/s) = 5.58697 2.36554 4.29010
#
# Compressibility (1/GPa) = 0.02760076
#
# Stress axis : x y z
#
# Youngs Moduli (GPa) = 69.72611 91.33890 63.10416
#
# Poissons Ratio (x) = 0.61999 -0.01298
# Poissons Ratio (y) = 0.47329 0.01173
# Poissons Ratio (z) = -0.01434 0.01698
#
# Static dielectric constant tensor:
#      x y z
#    x 1.836760 0.000000 0.000000 
#    y 0.000000 1.810430 0.000000 
#    z 0.000000 0.000000 1.917740 
# 
# From -- ./inp_files/11750.got.cif
#   From: 2010.05.17/outbox.cif.g08.bks.cpg/sg65_6_cif.got.tgz:11750.got - 2010.06.03 17:01:31.
