data_PCOD9487524
_publ_section_title
;
Structure prediction by ZEFSAII (Michael W. Deem and Ramdas Pophale) SiO2 
 PCOD9487524
Probable space group: C M M M
;
_chemical_formula_sum "Si O2"
_cell_formula_units_Z 88
_cell_length_a 8.606080
_cell_length_b 26.299713
_cell_length_c 21.375432
_cell_angle_alpha 90.000000
_cell_angle_beta 90.000000
_cell_angle_gamma 90.000000
_cell_volume 4838.060431
_symmetry_space_group_name_H-M "C M M M"
_symmetry_group_IT_number 65
_symmetry_cell_setting 'orthorhombic'
loop_
_space_group_symop_operation_xyz
x,y,z
-x,-y,z
x,-y,-z
-x,y,-z
-x,-y,-z
x,y,-z
-x,y,z
x,-y,z
1/2+x,1/2+y,z
1/2-x,1/2-y,z
1/2+x,1/2-y,-z
1/2-x,1/2+y,-z
1/2-x,1/2-y,-z
1/2+x,1/2+y,-z
1/2-x,1/2+y,z
1/2+x,1/2-y,z
loop_
_atom_site_type_symbol
_atom_site_label
_atom_site_fract_x
_atom_site_fract_y
_atom_site_fract_z
Si Si1 0.685059 0.000000 0.146589
Si Si2 0.186708 0.694369 0.145515
Si Si3 0.186249 0.902688 0.073234
Si Si4 0.686944 0.194958 0.709024
Si Si5 0.311464 0.095392 0.635599
Si Si6 0.310805 0.059062 0.500000
Si Si7 0.185216 0.000000 0.713195
O O1 0.740018 0.950072 0.109582
O O2 0.757707 0.000000 0.215563
O O3 0.500000 0.000000 0.152139
O O4 0.250000 0.750000 0.127629
O O5 0.255375 0.649644 0.103643
O O6 0.232114 0.685684 0.218431
O O7 0.000000 0.694086 0.141634
O O8 0.000000 0.905724 0.078564
O O9 0.227756 0.904807 0.000000
O O10 0.500000 0.196617 0.707397
O O11 0.750000 0.250000 0.690263
O O12 0.739460 0.148856 0.665176
O O13 0.500000 0.093857 0.637197
O O14 0.261419 0.086032 0.564071
O O15 0.249875 0.049425 0.677696
O O16 0.500000 0.058736 0.500000
O O17 0.260957 0.000000 0.500000
O O18 0.000000 0.000000 0.711199
#
# Coordination Sequence:
#
# PCOD9487524 Si02
#       7
#     8  16  16  16  16   8   8
#     4  12  25  41  61  84 112 149 191 233 278 337
#     4  10  20  36  58  84 112 147 192 241 293 341
#     4  11  24  41  60  84 116 151 186 230 285 343
#     4   9  19  34  55  80 108 143 183 232 281 329
#     4  10  19  35  57  82 112 149 193 232 275 335
#     4   9  16  30  55  82 110 150 192 232 275 328
#     4  12  24  36  56  86 115 144 180 233 292 336
#
# _framework density 18.189107
#
# number of rings (size 3 to 8) (size 9 to 14) (size 15 to 20)
#    0.000    1.727    0.909    4.091    0.000    5.818 
#    0.000    1.364    0.000    0.000    0.000    0.000 
#    0.000    0.000    0.000    0.000    0.000    0.000 
#
# Total GULP energy -245858.093589 kJ/mol
# GULP energy per Si atom -5587.683945 kJ/mol
# Density = 1.814771 g / cm^3
# Si number density = 18.189107 Si / 1000 Ang^3
#
#
#
# Elastic Constant Matrix: (Units=GPa)
#
#
# Indices 1 2 3 4 5 6 
#
# 1 29.9274 22.3144 28.5289 0.0000 0.0000 0.0000
# 2 22.3144 141.7290 93.1063 0.0000 0.0000 0.0000
# 3 28.5289 93.1063 140.8616 0.0000 0.0000 0.0000
# 4 0.0000 0.0000 0.0000 -10.6836 0.0000 0.0000
# 5 0.0000 0.0000 0.0000 0.0000 15.2417 0.0000
# 6 0.0000 0.0000 0.0000 0.0000 0.0000 34.0615
#
#
#
# Elastic Compliance Matrix: (Units=1/GPa)
#
#
# Indices 1 2 3 4 5 6 
#
# 1 0.041666 -0.001797 -0.007251 0.000000 0.000000 0.000000
# 2 -0.001797 0.012548 -0.007930 0.000000 0.000000 0.000000
# 3 -0.007251 -0.007930 0.013809 0.000000 0.000000 0.000000
# 4 0.000000 0.000000 0.000000 -0.093602 0.000000 0.000000
# 5 0.000000 0.000000 0.000000 0.000000 0.065609 0.000000
# 6 0.000000 0.000000 0.000000 0.000000 0.000000 0.029359
#
#
# Mechanical properties :
#
#
# Convention : Reuss Voigt Hill
#
# Bulk Modulus (GPa) = 29.35323 66.71302 48.03313
# Shear Modulus (GPa) = 43.59134 18.96184 31.27659
#
# Velocity S-wave (km/s) = 4.90078 3.23225 4.15121
# Velocity P-wave (km/s) = 6.94236 7.11948 7.03148
#
# Compressibility (1/GPa) = 0.03406780
#
# Stress axis : x y z
#
# Youngs Moduli (GPa) = 24.00034 79.69293 72.41420
#
# Poissons Ratio (x) = 0.14317 0.52509
# Poissons Ratio (y) = 0.04312 0.57426
# Poissons Ratio (z) = 0.17403 0.63198
#
# Static dielectric constant tensor:
#      x y z
#    x 1.612530 0.000000 0.000000 
#    y 0.000000 1.592070 0.000000 
#    z 0.000000 0.000000 1.611200 
# 
# From -- ./inp_files/59871.got.cif
#   From: 2010.05.17/outbox.cif.g08.bks.cpg/sg65_30_cif.got.tgz:59871.got - 2010.06.03 17:01:31.
