data_PCOD9487804
_publ_section_title
;
Structure prediction by ZEFSAII (Michael W. Deem and Ramdas Pophale) SiO2 
 PCOD9487804
Probable space group: C M M M
;
_chemical_formula_sum "Si O2"
_cell_formula_units_Z 64
_cell_length_a 13.247102
_cell_length_b 25.308380
_cell_length_c 8.215281
_cell_angle_alpha 90.000000
_cell_angle_beta 90.000000
_cell_angle_gamma 90.000000
_cell_volume 2754.277218
_symmetry_space_group_name_H-M "C M M M"
_symmetry_group_IT_number 65
_symmetry_cell_setting 'orthorhombic'
loop_
_space_group_symop_operation_xyz
x,y,z
-x,-y,z
x,-y,-z
-x,y,-z
-x,-y,-z
x,y,-z
-x,y,z
x,-y,z
1/2+x,1/2+y,z
1/2-x,1/2-y,z
1/2+x,1/2-y,-z
1/2-x,1/2+y,-z
1/2-x,1/2-y,-z
1/2+x,1/2+y,-z
1/2-x,1/2+y,z
1/2+x,1/2-y,z
loop_
_atom_site_type_symbol
_atom_site_label
_atom_site_fract_x
_atom_site_fract_y
_atom_site_fract_z
Si Si1 0.168236 0.941009 0.811879
Si Si2 0.323021 0.329436 0.304855
Si Si3 0.110690 0.562977 0.315199
Si Si4 0.390299 0.785706 0.301633
O O1 0.129179 0.885436 0.743086
O O2 0.288879 0.932413 0.789854
O O3 0.144617 0.000000 0.740603
O O4 0.141257 0.943350 0.000000
O O5 0.322852 0.328525 0.500000
O O6 0.376251 0.275361 0.250148
O O7 0.206250 0.319916 0.250185
O O8 0.127167 0.584576 0.500000
O O9 0.102473 0.500000 0.332167
O O10 0.000000 0.580798 0.257148
O O11 0.389041 0.785602 0.500000
O O12 0.500000 0.804070 0.247515
#
# Coordination Sequence:
#
# PCOD9487804 Si02
#       4
#    16  16  16  16
#     4  10  20  31  43  63  96 135 166 196 238 283
#     4   9  17  30  51  76  97 123 161 199 239 291
#     4   8  14  25  40  57  79 112 156 199 233 271
#     4   8  15  30  52  76  99 121 151 199 253 295
#
# _framework density 23.236585000000002
#
# number of rings (size 3 to 8) (size 9 to 14) (size 15 to 20)
#    0.000    3.250    0.000    3.000    0.000    3.000 
#    0.000    7.500    0.000    3.000    0.000    5.250 
#    0.000    0.000    0.000    0.000    0.000    0.000 
#
# Total GULP energy -178229.997255 kJ/mol
# GULP energy per Si atom -5569.687414 kJ/mol
# Density = 2.318370 g / cm^3
# Si number density = 23.236585 Si / 1000 Ang^3
#
#
#
# Elastic Constant Matrix: (Units=GPa)
#
#
# Indices 1 2 3 4 5 6 
#
# 1 58.1190 14.7125 -0.1279 0.0000 0.0000 0.0000
# 2 14.7125 235.1966 11.7823 0.0000 0.0000 0.0000
# 3 -0.1279 11.7823 9.1958 0.0000 0.0000 0.0000
# 4 0.0000 0.0000 0.0000 104.2747 0.0000 0.0000
# 5 0.0000 0.0000 0.0000 0.0000 3.5877 0.0000
# 6 0.0000 0.0000 0.0000 0.0000 0.0000 -12.7457
#
#
#
# Elastic Compliance Matrix: (Units=1/GPa)
#
#
# Indices 1 2 3 4 5 6 
#
# 1 0.017510 -0.001183 0.001760 0.000000 0.000000 0.000000
# 2 -0.001183 0.004623 -0.005940 0.000000 0.000000 0.000000
# 3 0.001760 -0.005940 0.116381 0.000000 0.000000 0.000000
# 4 0.000000 0.000000 0.000000 0.009590 0.000000 0.000000
# 5 0.000000 0.000000 0.000000 0.000000 0.278733 0.000000
# 6 0.000000 0.000000 0.000000 0.000000 0.000000 -0.078458
#
#
# Mechanical properties :
#
#
# Convention : Reuss Voigt Hill
#
# Bulk Modulus (GPa) = 7.82556 39.47168 23.64862
# Shear Modulus (GPa) = 12.44703 37.43297 24.94000
#
# Velocity S-wave (km/s) = 2.31695 4.01802 3.27969
# Velocity P-wave (km/s) = 3.24543 6.20884 4.95391
#
# Compressibility (1/GPa) = 0.12778646
#
# Stress axis : x y z
#
# Youngs Moduli (GPa) = 57.11170 216.29226 8.59245
#
# Poissons Ratio (x) = 0.25597 -0.01512
# Poissons Ratio (y) = 0.06759 0.05104
# Poissons Ratio (z) = -0.10051 1.28483
#
# Static dielectric constant tensor:
#      x y z
#    x 1.907990 0.000000 0.000000 
#    y 0.000000 1.947360 0.000000 
#    z 0.000000 0.000000 1.849020 
# 
# From -- ./inp_files/6694.got.cif
#   From: 2010.05.17/outbox.cif.g08.bks.cpg/sg65_4_cif.got.tgz:6694.got - 2010.06.03 17:01:31.
