data_PCOD9487989
_publ_section_title
;
Structure prediction by ZEFSAII (Michael W. Deem and Ramdas Pophale) SiO2 
 PCOD9487989
Probable space group: C M M M
;
_chemical_formula_sum "Si O2"
_cell_formula_units_Z 88
_cell_length_a 18.925113
_cell_length_b 7.501931
_cell_length_c 30.049447
_cell_angle_alpha 90.000000
_cell_angle_beta 90.000000
_cell_angle_gamma 90.000000
_cell_volume 4266.266989
_symmetry_space_group_name_H-M "C M M M"
_symmetry_group_IT_number 65
_symmetry_cell_setting 'orthorhombic'
loop_
_space_group_symop_operation_xyz
x,y,z
-x,-y,z
x,-y,-z
-x,y,-z
-x,-y,-z
x,y,-z
-x,y,z
x,-y,z
1/2+x,1/2+y,z
1/2-x,1/2-y,z
1/2+x,1/2-y,-z
1/2-x,1/2+y,-z
1/2-x,1/2-y,-z
1/2+x,1/2+y,-z
1/2-x,1/2+y,z
1/2+x,1/2-y,z
loop_
_atom_site_type_symbol
_atom_site_label
_atom_site_fract_x
_atom_site_fract_y
_atom_site_fract_z
Si Si1 0.419270 0.713560 0.184301
Si Si2 0.667180 0.286329 0.269022
Si Si3 0.917535 0.781983 0.644863
Si Si4 0.332735 0.786144 0.000000
Si Si5 0.919304 0.286477 0.915321
Si Si6 0.084766 0.214442 0.547792
O O1 0.500000 0.781936 0.187531
O O2 0.422804 0.500000 0.188573
O O3 0.370920 0.781694 0.224327
O O4 0.392544 0.750103 0.134489
O O5 0.658326 0.500000 0.269254
O O6 0.750000 0.250000 0.269094
O O7 0.628590 0.219956 0.313621
O O8 0.890426 0.721429 0.596154
O O9 0.000000 0.731437 0.650195
O O10 0.916604 0.000000 0.644276
O O11 0.250000 0.750000 0.000000
O O12 0.371113 0.718231 0.955395
O O13 0.340997 0.000000 0.000000
O O14 0.922893 0.500000 0.919635
O O15 0.000000 0.217952 0.918513
O O16 0.112110 0.282832 0.500000
O O17 0.000000 0.244809 0.548059
O O18 0.094430 0.000000 0.547314
#
# Coordination Sequence:
#
# PCOD9487989 Si02
#       6
#    16  16  16   8  16  16
#     4   9  18  33  52  72  92 116 151 193 231 267
#     4  10  20  32  46  65  91 122 152 184 224 270
#     4   8  13  23  41  62  83 112 150 187 223 265
#     4  10  21  35  51  73 101 130 158 188 222 264
#     4   9  18  34  55  75  95 122 155 189 226 268
#     4   7   9  14  28  54  84 107 132 176 229 268
#
# _framework density 20.626933999999999
#
# number of rings (size 3 to 8) (size 9 to 14) (size 15 to 20)
#    0.000    3.273    0.000    2.455    0.000    5.455 
#    0.000    3.636    0.000    4.909    0.000    0.000 
#    0.000    0.000    0.000    4.545    0.000    3.636 
#
# Total GULP energy -245268.234735 kJ/mol
# GULP energy per Si atom -5574.278062 kJ/mol
# Density = 2.057999 g / cm^3
# Si number density = 20.626934 Si / 1000 Ang^3
#
#
#
# Elastic Constant Matrix: (Units=GPa)
#
#
# Indices 1 2 3 4 5 6 
#
# 1 87.3122 0.0605 116.9785 0.0000 0.0000 0.0000
# 2 0.0605 54.7120 7.9144 0.0000 0.0000 0.0000
# 3 116.9785 7.9144 279.2602 0.0000 0.0000 0.0000
# 4 0.0000 0.0000 0.0000 35.3269 0.0000 0.0000
# 5 0.0000 0.0000 0.0000 0.0000 -11.4054 0.0000
# 6 0.0000 0.0000 0.0000 0.0000 0.0000 14.9134
#
#
#
# Elastic Compliance Matrix: (Units=1/GPa)
#
#
# Indices 1 2 3 4 5 6 
#
# 1 0.026235 0.001567 -0.011034 0.000000 0.000000 0.000000
# 2 0.001567 0.018446 -0.001179 0.000000 0.000000 0.000000
# 3 -0.011034 -0.001179 0.008236 0.000000 0.000000 0.000000
# 4 0.000000 0.000000 0.000000 0.028307 0.000000 0.000000
# 5 0.000000 0.000000 0.000000 0.000000 -0.087678 0.000000
# 6 0.000000 0.000000 0.000000 0.000000 0.000000 0.067054
#
#
# Mechanical properties :
#
#
# Convention : Reuss Voigt Hill
#
# Bulk Modulus (GPa) = 31.61994 74.57681 53.09838
# Shear Modulus (GPa) = 54.09217 27.52238 40.80727
#
# Velocity S-wave (km/s) = 5.12650 3.65676 4.45269
# Velocity P-wave (km/s) = 7.09958 7.35274 7.22727
#
# Compressibility (1/GPa) = 0.03162561
#
# Stress axis : x y z
#
# Youngs Moduli (GPa) = 38.11697 54.21122 121.41400
#
# Poissons Ratio (x) = -0.08496 1.33967
# Poissons Ratio (y) = -0.05973 0.14318
# Poissons Ratio (z) = 0.42058 0.06393
#
# Static dielectric constant tensor:
#      x y z
#    x 1.679150 0.000000 0.000000 
#    y 0.000000 1.805460 0.000000 
#    z 0.000000 0.000000 1.772870 
# 
# From -- ./inp_files/73126.got.cif
#   From: 2010.05.17/outbox.cif.g08.bks.cpg/sg65_37_cif.got.tgz:73126.got - 2010.06.03 17:01:31.
