data_PCOD9487785
_publ_section_title
;
Structure prediction by ZEFSAII (Michael W. Deem and Ramdas Pophale) SiO2 
 PCOD9487785
Probable space group: C M M M
;
_chemical_formula_sum "Si O2"
_cell_formula_units_Z 80
_cell_length_a 28.727126
_cell_length_b 14.379440
_cell_length_c 8.962491
_cell_angle_alpha 90.000000
_cell_angle_beta 90.000000
_cell_angle_gamma 90.000000
_cell_volume 3702.225645
_symmetry_space_group_name_H-M "C M M M"
_symmetry_group_IT_number 65
_symmetry_cell_setting 'orthorhombic'
loop_
_space_group_symop_operation_xyz
x,y,z
-x,-y,z
x,-y,-z
-x,y,-z
-x,-y,-z
x,y,-z
-x,y,z
x,-y,z
1/2+x,1/2+y,z
1/2-x,1/2-y,z
1/2+x,1/2-y,-z
1/2-x,1/2+y,-z
1/2-x,1/2-y,-z
1/2+x,1/2+y,-z
1/2-x,1/2+y,z
1/2+x,1/2-y,z
loop_
_atom_site_type_symbol
_atom_site_label
_atom_site_fract_x
_atom_site_fract_y
_atom_site_fract_z
Si Si1 0.571031 0.601956 0.176478
Si Si2 0.449045 0.800232 0.319999
Si Si3 0.650286 0.146148 0.670256
Si Si4 0.335373 0.368734 0.332109
Si Si5 0.743422 0.137225 0.830321
O O1 0.552770 0.500000 0.223574
O O2 0.553341 0.694754 0.257830
O O3 0.625781 0.600671 0.215431
O O4 0.563242 0.611541 0.000000
O O5 0.445648 0.794805 0.500000
O O6 0.500000 0.839180 0.280927
O O7 0.403024 0.857441 0.272059
O O8 0.652787 0.110572 0.500000
O O9 0.660333 0.256888 0.663352
O O10 0.692379 0.110681 0.771268
O O11 0.345780 0.400134 0.500000
O O12 0.284202 0.395260 0.278897
O O13 0.750000 0.250000 0.831195
O O14 0.750370 0.106850 0.000000
#
# Coordination Sequence:
#
# PCOD9487785 Si02
#       5
#    16  16  16  16  16
#     4  10  20  31  41  54  73  96 124 161 201 234
#     4   9  18  31  44  56  71  95 128 164 198 229
#     4   8  14  24  37  53  72  92 116 147 182 221
#     4   9  16  26  40  55  71  92 118 148 182 222
#     4   9  15  22  35  55  76  94 112 138 176 222
#
# _framework density 21.608623999999999
#
# number of rings (size 3 to 8) (size 9 to 14) (size 15 to 20)
#    0.000    3.000    0.000    3.000    0.000    9.600 
#    0.000    2.000    0.000    0.000    0.000    0.000 
#    0.000    0.000    0.000    0.000    0.000    1.000 
#
# Total GULP energy -223043.612634 kJ/mol
# GULP energy per Si atom -5576.090316 kJ/mol
# Density = 2.155944 g / cm^3
# Si number density = 21.608624 Si / 1000 Ang^3
#
#
#
# Elastic Constant Matrix: (Units=GPa)
#
#
# Indices 1 2 3 4 5 6 
#
# 1 178.5717 -7.7670 23.3791 0.0000 0.0000 0.0000
# 2 -7.7670 52.6439 -5.4175 0.0000 0.0000 0.0000
# 3 23.3791 -5.4175 38.1872 0.0000 0.0000 0.0000
# 4 0.0000 0.0000 0.0000 -42.8651 0.0000 0.0000
# 5 0.0000 0.0000 0.0000 0.0000 -1.7427 0.0000
# 6 0.0000 0.0000 0.0000 0.0000 0.0000 -20.9611
#
#
#
# Elastic Compliance Matrix: (Units=1/GPa)
#
#
# Indices 1 2 3 4 5 6 
#
# 1 0.006102 0.000523 -0.003662 0.000000 0.000000 0.000000
# 2 0.000523 0.019322 0.002421 0.000000 0.000000 0.000000
# 3 -0.003662 0.002421 0.028772 0.000000 0.000000 0.000000
# 4 0.000000 0.000000 0.000000 -0.023329 0.000000 0.000000
# 5 0.000000 0.000000 0.000000 0.000000 -0.573824 0.000000
# 6 0.000000 0.000000 0.000000 0.000000 0.000000 -0.047707
#
#
# Mechanical properties :
#
#
# Convention : Reuss Voigt Hill
#
# Bulk Modulus (GPa) = 18.95339 32.19911 25.57625
# Shear Modulus (GPa) = -8.74673 4.16677 -2.28998
#
# Velocity S-wave (km/s) = -2.01410 1.39014 -1.03056
# Velocity P-wave (km/s) = 1.83888 4.18450 3.23199
#
# Compressibility (1/GPa) = 0.05276101
#
# Stress axis : x y z
#
# Youngs Moduli (GPa) = 163.87674 51.75474 34.75611
#
# Poissons Ratio (x) = -0.02709 0.12726
# Poissons Ratio (y) = -0.08579 -0.08413
# Poissons Ratio (z) = 0.60005 -0.12528
#
# Static dielectric constant tensor:
#      x y z
#    x 1.826220 0.000000 0.000000 
#    y 0.000000 1.870670 0.000000 
#    z 0.000000 0.000000 1.719170 
# 
# From -- ./inp_files/9902.got.cif
#   From: 2010.05.17/outbox.cif.g08.bks.cpg/sg65_5_cif.got.tgz:9902.got - 2010.06.03 17:01:31.
