data_PCOD9487354
_publ_section_title
;
Structure prediction by ZEFSAII (Michael W. Deem and Ramdas Pophale) SiO2 
 PCOD9487354
Probable space group: C M M M
;
_chemical_formula_sum "Si O2"
_cell_formula_units_Z 96
_cell_length_a 21.484030
_cell_length_b 15.688694
_cell_length_c 15.735125
_cell_angle_alpha 90.000000
_cell_angle_beta 90.000000
_cell_angle_gamma 90.000000
_cell_volume 5303.624154
_symmetry_space_group_name_H-M "C M M M"
_symmetry_group_IT_number 65
_symmetry_cell_setting 'orthorhombic'
loop_
_space_group_symop_operation_xyz
x,y,z
-x,-y,z
x,-y,-z
-x,y,-z
-x,-y,-z
x,y,-z
-x,y,z
x,-y,z
1/2+x,1/2+y,z
1/2-x,1/2-y,z
1/2+x,1/2-y,-z
1/2-x,1/2+y,-z
1/2-x,1/2-y,-z
1/2+x,1/2+y,-z
1/2-x,1/2+y,z
1/2+x,1/2-y,z
loop_
_atom_site_type_symbol
_atom_site_label
_atom_site_fract_x
_atom_site_fract_y
_atom_site_fract_z
Si Si1 0.144345 0.097480 0.400700
Si Si2 0.071921 0.663820 0.094946
Si Si3 0.574188 0.228725 0.402440
Si Si4 0.231156 0.100070 0.753961
Si Si5 0.873046 0.400881 0.263241
Si Si6 0.316343 0.700681 0.907452
O O1 0.161666 0.100944 0.500000
O O2 0.096812 0.174634 0.384725
O O3 0.202291 0.113038 0.338823
O O4 0.121448 0.000000 0.384254
O O5 0.088048 0.606420 0.176039
O O6 0.123763 0.738180 0.098232
O O7 0.000000 0.693019 0.102059
O O8 0.078395 0.624269 0.000000
O O9 0.593336 0.208382 0.500000
O O10 0.500000 0.225939 0.398237
O O11 0.600744 0.161545 0.335177
O O12 0.302553 0.129008 0.756550
O O13 0.188721 0.142982 0.824890
O O14 0.232412 0.000000 0.771624
O O15 0.871765 0.500000 0.290787
O O16 0.250000 0.750000 0.908356
O O17 0.320032 0.656219 0.000000
#
# Coordination Sequence:
#
# PCOD9487354 Si02
#       6
#    16  16  16  16  16  16
#     4   9  19  36  58  84 111 138 174 227 287 339
#     4  10  21  36  55  81 110 142 185 234 280 330
#     4  10  22  38  56  80 108 143 187 228 273 335
#     4  10  21  35  54  81 111 143 182 229 278 333
#     4  11  23  37  54  78 111 151 190 230 276 324
#     4  10  19  34  57  81 107 144 186 229 279 332
#
# _framework density 18.100829999999998
#
# number of rings (size 3 to 8) (size 9 to 14) (size 15 to 20)
#    0.000    2.000    1.667    1.500    0.000    3.333 
#    0.000    8.333    0.000    1.500    0.000    2.333 
#    0.000    0.000    0.000    0.000    0.000    0.167 
#
# Total GULP energy -267512.569713 kJ/mol
# GULP energy per Si atom -5573.178536 kJ/mol
# Density = 1.805963 g / cm^3
# Si number density = 18.100830 Si / 1000 Ang^3
#
#
#
# Elastic Constant Matrix: (Units=GPa)
#
#
# Indices 1 2 3 4 5 6 
#
# 1 71.7068 40.1594 34.6492 0.0000 0.0000 0.0000
# 2 40.1594 68.6093 68.1125 0.0000 0.0000 0.0000
# 3 34.6492 68.1125 105.9305 0.0000 0.0000 0.0000
# 4 0.0000 0.0000 0.0000 12.1627 0.0000 0.0000
# 5 0.0000 0.0000 0.0000 0.0000 28.0943 0.0000
# 6 0.0000 0.0000 0.0000 0.0000 0.0000 21.2737
#
#
#
# Elastic Compliance Matrix: (Units=1/GPa)
#
#
# Indices 1 2 3 4 5 6 
#
# 1 0.021057 -0.015174 0.002869 0.000000 0.000000 0.000000
# 2 -0.015174 0.051235 -0.027980 0.000000 0.000000 0.000000
# 3 0.002869 -0.027980 0.026493 0.000000 0.000000 0.000000
# 4 0.000000 0.000000 0.000000 0.082219 0.000000 0.000000
# 5 0.000000 0.000000 0.000000 0.000000 0.035594 0.000000
# 6 0.000000 0.000000 0.000000 0.000000 0.000000 0.047006
#
#
# Mechanical properties :
#
#
# Convention : Reuss Voigt Hill
#
# Bulk Modulus (GPa) = 54.90077 59.12098 57.01088
# Shear Modulus (GPa) = 14.27566 19.19450 16.73508
#
# Velocity S-wave (km/s) = 2.81138 3.25994 3.04394
# Velocity P-wave (km/s) = 6.39804 6.84855 6.62712
#
# Compressibility (1/GPa) = 0.01821468
#
# Stress axis : x y z
#
# Youngs Moduli (GPa) = 47.48906 19.51804 37.74597
#
# Poissons Ratio (x) = 0.29616 -0.10829
# Poissons Ratio (y) = 0.72058 1.05614
# Poissons Ratio (z) = -0.13624 0.54612
#
# Static dielectric constant tensor:
#      x y z
#    x 1.608390 0.000000 0.000000 
#    y 0.000000 1.616840 0.000000 
#    z 0.000000 0.000000 1.640370 
# 
# From -- ./inp_files/40329.got.cif
#   From: 2010.05.17/outbox.cif.g08.bks.cpg/sg65_21_cif.got.tgz:40329.got - 2010.06.03 17:01:31.
