data_PCOD9487838
_publ_section_title
;
Structure prediction by ZEFSAII (Michael W. Deem and Ramdas Pophale) SiO2 
 PCOD9487838
Probable space group: C M M M
;
_chemical_formula_sum "Si O2"
_cell_formula_units_Z 80
_cell_length_a 17.183565
_cell_length_b 15.636662
_cell_length_c 19.053668
_cell_angle_alpha 90.000000
_cell_angle_beta 90.000000
_cell_angle_gamma 90.000000
_cell_volume 5119.598607
_symmetry_space_group_name_H-M "C M M M"
_symmetry_group_IT_number 65
_symmetry_cell_setting 'orthorhombic'
loop_
_space_group_symop_operation_xyz
x,y,z
-x,-y,z
x,-y,-z
-x,y,-z
-x,-y,-z
x,y,-z
-x,y,z
x,-y,z
1/2+x,1/2+y,z
1/2-x,1/2-y,z
1/2+x,1/2-y,-z
1/2-x,1/2+y,-z
1/2-x,1/2-y,-z
1/2+x,1/2+y,-z
1/2-x,1/2+y,z
1/2+x,1/2-y,z
loop_
_atom_site_type_symbol
_atom_site_label
_atom_site_fract_x
_atom_site_fract_y
_atom_site_fract_z
Si Si1 0.808259 0.174476 0.797282
Si Si2 0.411373 0.397198 0.919972
Si Si3 0.865278 0.096641 0.583469
Si Si4 0.788980 0.403535 0.670947
Si Si5 0.411464 0.752881 0.322228
O O1 0.750000 0.250000 0.818882
O O2 0.848260 0.131827 0.863705
O O3 0.758338 0.115793 0.743325
O O4 0.876807 0.213697 0.749307
O O5 0.500000 0.369198 0.902022
O O6 0.412204 0.500000 0.920223
O O7 0.394830 0.368825 0.000000
O O8 0.871146 0.104096 0.500000
O O9 0.776087 0.102185 0.610172
O O10 0.906568 0.175305 0.621949
O O11 0.892683 0.000000 0.603409
O O12 0.820217 0.500000 0.672691
O O13 0.853522 0.330915 0.660107
O O14 0.500000 0.781431 0.315205
#
# Coordination Sequence:
#
# PCOD9487838 Si02
#       5
#    16  16  16  16  16
#     4   9  17  30  47  65  87 115 150 188 218 255
#     4   9  17  28  43  65  92 119 144 174 218 268
#     4   9  18  33  51  68  88 116 149 185 223 264
#     4   9  18  32  49  67  87 117 154 186 220 262
#     4  10  20  31  45  68  94 118 146 183 227 269
#
# _framework density 15.626225
#
# number of rings (size 3 to 8) (size 9 to 14) (size 15 to 20)
#    0.000    2.800    0.000    3.600    0.000    4.000 
#    0.000    1.000    0.000    0.000    0.000    4.200 
#    0.000    0.000    0.000   37.200    0.000    1.600 
#
# Total GULP energy -222762.092570 kJ/mol
# GULP energy per Si atom -5569.052314 kJ/mol
# Density = 1.559066 g / cm^3
# Si number density = 15.626225 Si / 1000 Ang^3
#
#
#
# Elastic Constant Matrix: (Units=GPa)
#
#
# Indices 1 2 3 4 5 6 
#
# 1 74.9295 28.3589 29.6759 0.0000 0.0000 0.0000
# 2 28.3589 65.2628 20.6580 0.0000 0.0000 0.0000
# 3 29.6759 20.6580 61.3563 0.0000 0.0000 0.0000
# 4 0.0000 0.0000 0.0000 24.3700 0.0000 0.0000
# 5 0.0000 0.0000 0.0000 0.0000 5.1829 0.0000
# 6 0.0000 0.0000 0.0000 0.0000 0.0000 9.9394
#
#
#
# Elastic Compliance Matrix: (Units=1/GPa)
#
#
# Indices 1 2 3 4 5 6 
#
# 1 0.018251 -0.005749 -0.006892 0.000000 0.000000 0.000000
# 2 -0.005749 0.018962 -0.003603 0.000000 0.000000 0.000000
# 3 -0.006892 -0.003603 0.020845 0.000000 0.000000 0.000000
# 4 0.000000 0.000000 0.000000 0.041034 0.000000 0.000000
# 5 0.000000 0.000000 0.000000 0.000000 0.192942 0.000000
# 6 0.000000 0.000000 0.000000 0.000000 0.000000 0.100610
#
#
# Mechanical properties :
#
#
# Convention : Reuss Voigt Hill
#
# Bulk Modulus (GPa) = 39.11043 39.88158 39.49600
# Shear Modulus (GPa) = 11.52989 16.08885 13.80937
#
# Velocity S-wave (km/s) = 2.71930 3.21223 2.97599
# Velocity P-wave (km/s) = 5.91122 6.27180 6.09418
#
# Compressibility (1/GPa) = 0.02556863
#
# Stress axis : x y z
#
# Youngs Moduli (GPa) = 54.79040 52.73831 47.97358
#
# Poissons Ratio (x) = 0.30321 0.33062
# Poissons Ratio (y) = 0.31501 0.17287
# Poissons Ratio (z) = 0.37761 0.19004
#
# Static dielectric constant tensor:
#      x y z
#    x 1.508320 0.000000 0.000000 
#    y 0.000000 1.527040 0.000000 
#    z 0.000000 0.000000 1.507640 
# 
# From -- ./inp_files/52866.got.cif
#   From: 2010.05.17/outbox.cif.g08.bks.cpg/sg65_27_cif.got.tgz:52866.got - 2010.06.03 17:01:31.
