data_PCOD9487898
_publ_section_title
;
Structure prediction by ZEFSAII (Michael W. Deem and Ramdas Pophale) SiO2 
 PCOD9487898
Probable space group: C M M M
;
_chemical_formula_sum "Si O2"
_cell_formula_units_Z 88
_cell_length_a 21.667375
_cell_length_b 9.985277
_cell_length_c 25.066967
_cell_angle_alpha 90.000000
_cell_angle_beta 90.000000
_cell_angle_gamma 90.000000
_cell_volume 5423.357159
_symmetry_space_group_name_H-M "C M M M"
_symmetry_group_IT_number 65
_symmetry_cell_setting 'orthorhombic'
loop_
_space_group_symop_operation_xyz
x,y,z
-x,-y,z
x,-y,-z
-x,y,-z
-x,-y,-z
x,y,-z
-x,y,z
x,-y,z
1/2+x,1/2+y,z
1/2-x,1/2-y,z
1/2+x,1/2-y,-z
1/2-x,1/2+y,-z
1/2-x,1/2-y,-z
1/2+x,1/2+y,-z
1/2-x,1/2+y,z
1/2+x,1/2-y,z
loop_
_atom_site_type_symbol
_atom_site_label
_atom_site_fract_x
_atom_site_fract_y
_atom_site_fract_z
Si Si1 0.000000 0.842471 0.436070
Si Si2 0.605875 0.847976 0.600780
Si Si3 0.805679 0.345260 0.698298
Si Si4 0.803755 0.646522 0.500000
Si Si5 0.190529 0.341660 0.176649
Si Si6 0.925841 0.153826 0.000000
Si Si7 0.426971 0.158782 0.101027
O O1 0.057788 0.766964 0.411130
O O2 0.000000 0.821626 0.500000
O O3 0.000000 0.000000 0.425868
O O4 0.638408 0.828604 0.657542
O O5 0.655022 0.841497 0.552789
O O6 0.579602 0.000000 0.599149
O O7 0.785750 0.500000 0.694540
O O8 0.750000 0.250000 0.682046
O O9 0.820839 0.318346 0.760216
O O10 0.775079 0.500000 0.500000
O O11 0.750000 0.750000 0.500000
O O12 0.205790 0.500000 0.169512
O O13 0.250000 0.250000 0.161290
O O14 0.126402 0.317192 0.145084
O O15 0.911157 0.242673 0.947968
O O16 0.000000 0.143331 0.000000
O O17 0.901574 0.000000 0.000000
O O18 0.500000 0.181656 0.116197
O O19 0.423443 0.000000 0.086240
#
# Coordination Sequence:
#
# PCOD9487898 Si02
#       7
#     8  16  16   8  16   8  16
#     4  11  23  37  53  73  97 129 165 202 249 300
#     4  10  20  35  53  73  99 131 165 200 245 300
#     4   9  18  33  53  77 101 131 167 204 248 295
#     4  10  20  31  48  73  99 124 158 200 245 294
#     4   9  18  33  52  76 104 136 173 209 254 304
#     4   9  17  29  48  75 104 133 169 211 256 305
#     4   9  17  31  51  74 102 135 172 213 253 298
#
# _framework density 16.226111
#
# number of rings (size 3 to 8) (size 9 to 14) (size 15 to 20)
#    0.000    2.545    0.909    1.091    0.000    3.636 
#    1.636    0.455    0.000    0.000    0.000    0.000 
#    0.000    0.000    0.000    0.000    0.000    0.000 
#
# Total GULP energy -244992.135254 kJ/mol
# GULP energy per Si atom -5568.003074 kJ/mol
# Density = 1.618918 g / cm^3
# Si number density = 16.226111 Si / 1000 Ang^3
#
#
#
# Elastic Constant Matrix: (Units=GPa)
#
#
# Indices 1 2 3 4 5 6 
#
# 1 91.3491 78.2732 52.2235 0.0000 0.0000 0.0000
# 2 78.2732 114.8048 60.7895 0.0000 0.0000 0.0000
# 3 52.2235 60.7895 75.4428 0.0000 0.0000 0.0000
# 4 0.0000 0.0000 0.0000 22.3792 0.0000 0.0000
# 5 0.0000 0.0000 0.0000 0.0000 18.7847 0.0000
# 6 0.0000 0.0000 0.0000 0.0000 0.0000 32.9390
#
#
#
# Elastic Compliance Matrix: (Units=1/GPa)
#
#
# Indices 1 2 3 4 5 6 
#
# 1 0.028331 -0.015578 -0.007059 0.000000 0.000000 0.000000
# 2 -0.015578 0.023758 -0.008360 0.000000 0.000000 0.000000
# 3 -0.007059 -0.008360 0.024878 0.000000 0.000000 0.000000
# 4 0.000000 0.000000 0.000000 0.044684 0.000000 0.000000
# 5 0.000000 0.000000 0.000000 0.000000 0.053235 0.000000
# 6 0.000000 0.000000 0.000000 0.000000 0.000000 0.030359
#
#
# Mechanical properties :
#
#
# Convention : Reuss Voigt Hill
#
# Bulk Modulus (GPa) = 66.78908 73.79658 70.29283
# Shear Modulus (GPa) = 18.36687 20.84131 19.60409
#
# Velocity S-wave (km/s) = 3.36807 3.58778 3.47966
# Velocity P-wave (km/s) = 7.50840 7.92097 7.71744
#
# Compressibility (1/GPa) = 0.01497251
#
# Stress axis : x y z
#
# Youngs Moduli (GPa) = 35.29750 42.09106 40.19647
#
# Poissons Ratio (x) = 0.65569 0.28375
# Poissons Ratio (y) = 0.54986 0.33605
# Poissons Ratio (z) = 0.24917 0.35188
#
# Static dielectric constant tensor:
#      x y z
#    x 1.528080 0.000000 0.000000 
#    y 0.000000 1.546100 0.000000 
#    z 0.000000 0.000000 1.540920 
# 
# From -- ./inp_files/71057.got.cif
#   From: 2010.05.17/outbox.cif.g08.bks.cpg/sg65_36_cif.got.tgz:71057.got - 2010.06.03 17:01:31.
