data_PCOD9487937
_publ_section_title
;
Structure prediction by ZEFSAII (Michael W. Deem and Ramdas Pophale) SiO2 
 PCOD9487937
Probable space group: C M M M
;
_chemical_formula_sum "Si O2"
_cell_formula_units_Z 80
_cell_length_a 26.439045
_cell_length_b 20.499781
_cell_length_c 8.263742
_cell_angle_alpha 90.000000
_cell_angle_beta 90.000000
_cell_angle_gamma 90.000000
_cell_volume 4478.903807
_symmetry_space_group_name_H-M "C M M M"
_symmetry_group_IT_number 65
_symmetry_cell_setting 'orthorhombic'
loop_
_space_group_symop_operation_xyz
x,y,z
-x,-y,z
x,-y,-z
-x,y,-z
-x,-y,-z
x,y,-z
-x,y,z
x,-y,z
1/2+x,1/2+y,z
1/2-x,1/2-y,z
1/2+x,1/2-y,-z
1/2-x,1/2+y,-z
1/2-x,1/2-y,-z
1/2+x,1/2+y,-z
1/2-x,1/2+y,z
1/2+x,1/2-y,z
loop_
_atom_site_type_symbol
_atom_site_label
_atom_site_fract_x
_atom_site_fract_y
_atom_site_fract_z
Si Si1 0.375671 0.500000 0.692470
Si Si2 0.738536 0.500000 0.809313
Si Si3 0.245371 0.855339 0.305498
Si Si4 0.055723 0.256560 0.311881
Si Si5 0.056056 0.114784 0.813410
Si Si6 0.167933 0.251457 0.302437
O O1 0.377567 0.500000 0.500000
O O2 0.319104 0.500000 0.752344
O O3 0.403445 0.436950 0.760371
O O4 0.756763 0.571114 0.749255
O O5 0.743326 0.500000 0.000000
O O6 0.242030 0.856846 0.500000
O O7 0.193454 0.817910 0.249686
O O8 0.291176 0.806849 0.261062
O O9 0.055444 0.276749 0.500000
O O10 0.056496 0.178204 0.297645
O O11 0.111790 0.271160 0.242539
O O12 0.000000 0.276627 0.242508
O O13 0.000000 0.084895 0.802390
O O14 0.063501 0.135381 0.000000
O O15 0.164726 0.248301 0.500000
#
# Coordination Sequence:
#
# PCOD9487937 Si02
#       6
#     8   8  16  16  16  16
#     4  12  23  33  46  61  82 119 163 198 231 275
#     4  12  24  35  47  70  99 122 152 195 243 290
#     4   9  17  32  52  70  92 125 162 197 235 282
#     4   9  16  27  45  69  95 122 153 189 230 280
#     4  10  20  32  44  62  91 124 157 195 236 272
#     4   8  15  29  50  73  94 121 160 200 235 276
#
# _framework density 17.861512999999999
#
# number of rings (size 3 to 8) (size 9 to 14) (size 15 to 20)
#    0.000    2.400    0.000    5.100    0.000    4.000 
#    0.000    3.000    0.000    0.000    0.000    0.700 
#    0.000    5.600    0.000    0.000    0.000    0.000 
#
# Total GULP energy -222670.099796 kJ/mol
# GULP energy per Si atom -5566.752495 kJ/mol
# Density = 1.782086 g / cm^3
# Si number density = 17.861513 Si / 1000 Ang^3
#
#
#
# Elastic Constant Matrix: (Units=GPa)
#
#
# Indices 1 2 3 4 5 6 
#
# 1 120.0394 30.4077 6.8608 0.0000 0.0000 0.0000
# 2 30.4077 83.6190 8.6131 0.0000 0.0000 0.0000
# 3 6.8608 8.6131 22.8210 0.0000 0.0000 0.0000
# 4 0.0000 0.0000 0.0000 -529.6316 0.0000 0.0000
# 5 0.0000 0.0000 0.0000 0.0000 10.4136 0.0000
# 6 0.0000 0.0000 0.0000 0.0000 0.0000 22.4481
#
#
#
# Elastic Compliance Matrix: (Units=1/GPa)
#
#
# Indices 1 2 3 4 5 6 
#
# 1 0.009230 -0.003195 -0.001569 0.000000 0.000000 0.000000
# 2 -0.003195 0.013549 -0.004153 0.000000 0.000000 0.000000
# 3 -0.001569 -0.004153 0.045858 0.000000 0.000000 0.000000
# 4 0.000000 0.000000 0.000000 -0.001888 0.000000 0.000000
# 5 0.000000 0.000000 0.000000 0.000000 0.096028 0.000000
# 6 0.000000 0.000000 0.000000 0.000000 0.000000 0.044547
#
#
# Mechanical properties :
#
#
# Convention : Reuss Voigt Hill
#
# Bulk Modulus (GPa) = 19.68385 35.36028 27.52206
# Shear Modulus (GPa) = 20.65334 -87.31413 -33.33040
#
# Velocity S-wave (km/s) = 3.40414 -6.99929 -4.32446
# Velocity P-wave (km/s) = 5.14733 6.74390 3.08100
#
# Compressibility (1/GPa) = 0.05080308
#
# Stress axis : x y z
#
# Youngs Moduli (GPa) = 108.34793 73.80884 21.80622
#
# Poissons Ratio (x) = 0.23579 0.03421
# Poissons Ratio (y) = 0.34613 0.09056
# Poissons Ratio (z) = 0.17000 0.30653
#
# Static dielectric constant tensor:
#      x y z
#    x 1.682770 0.000000 0.000000 
#    y 0.000000 1.598340 0.000000 
#    z 0.000000 0.000000 1.622560 
# 
# From -- ./inp_files/16059.got.cif
#   From: 2010.05.17/outbox.cif.g08.bks.cpg/sg65_9_cif.got.tgz:16059.got - 2010.06.03 17:01:31.
