data_PCOD9487740
_publ_section_title
;
Structure prediction by ZEFSAII (Michael W. Deem and Ramdas Pophale) SiO2 
 PCOD9487740
Probable space group: C M M M
;
_chemical_formula_sum "Si O2"
_cell_formula_units_Z 42
_cell_length_a 34.857551
_cell_length_b 8.771781
_cell_length_c 7.427561
_cell_angle_alpha 90.000000
_cell_angle_beta 90.000000
_cell_angle_gamma 90.000000
_cell_volume 2271.071875
_symmetry_space_group_name_H-M "C M M M"
_symmetry_group_IT_number 65
_symmetry_cell_setting 'orthorhombic'
loop_
_space_group_symop_operation_xyz
x,y,z
-x,-y,z
x,-y,-z
-x,y,-z
-x,-y,-z
x,y,-z
-x,y,z
x,-y,z
1/2+x,1/2+y,z
1/2-x,1/2-y,z
1/2+x,1/2-y,-z
1/2-x,1/2+y,-z
1/2-x,1/2-y,-z
1/2+x,1/2+y,-z
1/2-x,1/2+y,z
1/2+x,1/2-y,z
loop_
_atom_site_type_symbol
_atom_site_label
_atom_site_fract_x
_atom_site_fract_y
_atom_site_fract_z
Si Si1 0.500000 0.000000 0.000000
Si Si2 0.933320 0.244217 0.000000
Si Si3 0.291830 0.819500 0.714166
Si Si4 0.046189 0.000000 0.293893
Si Si5 0.348610 0.682510 0.000000
O O1 0.534107 0.129918 0.000000
O O2 0.888155 0.277507 0.000000
O O3 0.940158 0.143759 0.821045
O O4 0.298155 0.802764 0.500000
O O5 0.250000 0.750000 0.755616
O O6 0.323401 0.730127 0.828113
O O7 0.292439 0.000000 0.757276
O O8 0.059523 0.000000 0.500000
O O9 0.000000 0.000000 0.293660
O O10 0.356681 0.500000 0.000000
#
# Coordination Sequence:
#
# PCOD9487740 Si02
#       5
#     2   8  16   8   8
#     4  12  24  42  70  84 136 164 200 268 322 390
#     4  11  23  42  62  93 124 162 203 255 323 372
#     4  10  22  41  63  90 127 169 211 255 305 366
#     4  10  19  41  68  87 114 157 208 246 291 375
#     4  12  24  38  63  93 124 163 209 258 313 373
#
# _framework density 18.493471
#
# number of rings (size 3 to 8) (size 9 to 14) (size 15 to 20)
#    0.000    1.333    3.810    2.857    2.667    3.810 
#    0.000    1.905    0.000    0.000    0.000    0.000 
#    0.000    0.000    0.000    0.000    0.000    0.000 
#
# Total GULP energy -116998.249666 kJ/mol
# GULP energy per Si atom -5571.345222 kJ/mol
# Density = 1.845138 g / cm^3
# Si number density = 18.493471 Si / 1000 Ang^3
#
#
#
# Elastic Constant Matrix: (Units=GPa)
#
#
# Indices 1 2 3 4 5 6 
#
# 1 162.1372 50.8253 49.0384 0.0000 0.0000 0.0000
# 2 50.8253 104.8294 36.2416 0.0000 0.0000 0.0000
# 3 49.0384 36.2416 110.5236 0.0000 0.0000 0.0000
# 4 0.0000 0.0000 0.0000 -110.1999 0.0000 0.0000
# 5 0.0000 0.0000 0.0000 0.0000 50.9355 0.0000
# 6 0.0000 0.0000 0.0000 0.0000 0.0000 142.7142
#
#
#
# Elastic Compliance Matrix: (Units=1/GPa)
#
#
# Indices 1 2 3 4 5 6 
#
# 1 0.007850 -0.002934 -0.002521 0.000000 0.000000 0.000000
# 2 -0.002934 0.011856 -0.002586 0.000000 0.000000 0.000000
# 3 -0.002521 -0.002586 0.011014 0.000000 0.000000 0.000000
# 4 0.000000 0.000000 0.000000 -0.009074 0.000000 0.000000
# 5 0.000000 0.000000 0.000000 0.000000 0.019633 0.000000
# 6 0.000000 0.000000 0.000000 0.000000 0.000000 0.007007
#
#
# Mechanical properties :
#
#
# Convention : Reuss Voigt Hill
#
# Bulk Modulus (GPa) = 68.31393 72.18898 70.25145
# Shear Modulus (GPa) = 72.20607 32.78230 52.49418
#
# Velocity S-wave (km/s) = 6.25531 4.21484 5.33356
# Velocity P-wave (km/s) = 9.44412 7.92503 8.71773
#
# Compressibility (1/GPa) = 0.01463830
#
# Stress axis : x y z
#
# Youngs Moduli (GPa) = 127.39072 84.34575 90.79262
#
# Poissons Ratio (x) = 0.24751 0.22886
# Poissons Ratio (y) = 0.37382 0.23476
# Poissons Ratio (z) = 0.32111 0.21809
#
# Static dielectric constant tensor:
#      x y z
#    x 1.617770 0.000000 0.000000 
#    y 0.000000 1.639790 0.000000 
#    z 0.000000 0.000000 1.630880 
# 
# From -- ./inp_files/17469.got.cif
#   From: 2010.05.17/outbox.cif.g08.bks.cpg/sg65_9_cif.got.tgz:17469.got - 2010.06.03 17:01:31.
