data_PCOD9487666
_publ_section_title
;
Structure prediction by ZEFSAII (Michael W. Deem and Ramdas Pophale) SiO2 
 PCOD9487666
Probable space group: C M M M
;
_chemical_formula_sum "Si O2"
_cell_formula_units_Z 104
_cell_length_a 24.444314
_cell_length_b 27.177807
_cell_length_c 7.671029
_cell_angle_alpha 90.000000
_cell_angle_beta 90.000000
_cell_angle_gamma 90.000000
_cell_volume 5096.193254
_symmetry_space_group_name_H-M "C M M M"
_symmetry_group_IT_number 65
_symmetry_cell_setting 'orthorhombic'
loop_
_space_group_symop_operation_xyz
x,y,z
-x,-y,z
x,-y,-z
-x,y,-z
-x,-y,-z
x,y,-z
-x,y,z
x,-y,z
1/2+x,1/2+y,z
1/2-x,1/2-y,z
1/2+x,1/2-y,-z
1/2-x,1/2+y,-z
1/2-x,1/2-y,-z
1/2+x,1/2+y,-z
1/2-x,1/2+y,z
1/2+x,1/2-y,z
loop_
_atom_site_type_symbol
_atom_site_label
_atom_site_fract_x
_atom_site_fract_y
_atom_site_fract_z
Si Si1 0.060678 0.555413 0.287191
Si Si2 0.438458 0.210911 0.209096
Si Si3 0.062638 0.000000 0.290105
Si Si4 0.138279 0.909139 0.205154
Si Si5 0.148488 0.370050 0.292627
Si Si6 0.938835 0.175405 0.786903
Si Si7 0.755738 0.556113 0.791568
O O1 0.061333 0.556733 0.500000
O O2 0.072689 0.500000 0.235199
O O3 0.104475 0.592020 0.216696
O O4 0.000000 0.568456 0.230919
O O5 0.500000 0.193333 0.271803
O O6 0.383009 0.181174 0.254140
O O7 0.432957 0.267720 0.265925
O O8 0.441514 0.210274 0.000000
O O9 0.094396 0.952340 0.223925
O O10 0.064163 0.000000 0.500000
O O11 0.000000 0.000000 0.232398
O O12 0.109234 0.860163 0.277114
O O13 0.195767 0.928802 0.278217
O O14 0.148211 0.899925 0.000000
O O15 0.149849 0.372291 0.500000
O O16 0.205003 0.396665 0.239908
O O17 0.000000 0.158433 0.734585
O O18 0.937964 0.174508 0.000000
O O19 0.771600 0.500000 0.727511
O O20 0.752548 0.551231 0.000000
#
# Coordination Sequence:
#
# PCOD9487666 Si02
#       7
#    16  16   8  16  16  16  16
#     4   8  14  25  41  63  91 119 154 208 263 308
#     4   9  18  34  55  80 110 140 172 221 283 331
#     4  11  23  35  51  83 123 151 172 211 272 335
#     4  10  19  36  60  83 106 141 188 230 266 315
#     4  11  21  32  50  75 102 141 188 224 263 321
#     4   8  15  30  56  86 109 133 173 224 274 324
#     4  10  21  37  54  76 107 141 180 229 279 322
#
# _framework density 20.407388999999998
#
# number of rings (size 3 to 8) (size 9 to 14) (size 15 to 20)
#    0.000    2.538    0.769    3.462    0.000    3.692 
#    0.000    1.538    0.000    5.538    0.000    6.462 
#    0.000    0.000    0.000    0.000    0.000    0.000 
#
# Total GULP energy -289545.821578 kJ/mol
# GULP energy per Si atom -5568.188876 kJ/mol
# Density = 2.036094 g / cm^3
# Si number density = 20.407389 Si / 1000 Ang^3
#
#
#
# Elastic Constant Matrix: (Units=GPa)
#
#
# Indices 1 2 3 4 5 6 
#
# 1 182.8673 51.8945 3.1748 0.0000 0.0000 0.0000
# 2 51.8945 111.0252 2.0103 0.0000 0.0000 0.0000
# 3 3.1748 2.0103 44.0342 0.0000 0.0000 0.0000
# 4 0.0000 0.0000 0.0000 -20.8107 0.0000 0.0000
# 5 0.0000 0.0000 0.0000 0.0000 1.0983 0.0000
# 6 0.0000 0.0000 0.0000 0.0000 0.0000 81.9637
#
#
#
# Elastic Compliance Matrix: (Units=1/GPa)
#
#
# Indices 1 2 3 4 5 6 
#
# 1 0.006309 -0.002943 -0.000321 0.000000 0.000000 0.000000
# 2 -0.002943 0.010387 -0.000262 0.000000 0.000000 0.000000
# 3 -0.000321 -0.000262 0.022745 0.000000 0.000000 0.000000
# 4 0.000000 0.000000 0.000000 -0.048052 0.000000 0.000000
# 5 0.000000 0.000000 0.000000 0.000000 0.910485 0.000000
# 6 0.000000 0.000000 0.000000 0.000000 0.000000 0.012201
#
#
# Mechanical properties :
#
#
# Convention : Reuss Voigt Hill
#
# Bulk Modulus (GPa) = 30.87387 50.23175 40.55281
# Shear Modulus (GPa) = 5.36525 31.17342 18.26934
#
# Velocity S-wave (km/s) = 1.62320 3.91264 2.99529
# Velocity P-wave (km/s) = 4.32142 6.71413 5.64598
#
# Compressibility (1/GPa) = 0.03238985
#
# Stress axis : x y z
#
# Youngs Moduli (GPa) = 158.49765 96.27042 43.96631
#
# Poissons Ratio (x) = 0.28334 0.01409
# Poissons Ratio (y) = 0.46649 0.01152
# Poissons Ratio (z) = 0.05080 0.02522
#
# Static dielectric constant tensor:
#      x y z
#    x 1.765230 0.000000 0.000000 
#    y 0.000000 1.750410 0.000000 
#    z 0.000000 0.000000 1.765140 
# 
# From -- ./inp_files/14769.got.cif
#   From: 2010.05.17/outbox.cif.g08.bks.cpg/sg65_8_cif.got.tgz:14769.got - 2010.06.03 17:01:31.
