data_PCOD9487901
_publ_section_title
;
Structure prediction by ZEFSAII (Michael W. Deem and Ramdas Pophale) SiO2 
 PCOD9487901
Probable space group: C M M M
;
_chemical_formula_sum "Si O2"
_cell_formula_units_Z 112
_cell_length_a 18.570744
_cell_length_b 21.227788
_cell_length_c 14.938261
_cell_angle_alpha 90.000000
_cell_angle_beta 90.000000
_cell_angle_gamma 90.000000
_cell_volume 5888.898759
_symmetry_space_group_name_H-M "C M M M"
_symmetry_group_IT_number 65
_symmetry_cell_setting 'orthorhombic'
loop_
_space_group_symop_operation_xyz
x,y,z
-x,-y,z
x,-y,-z
-x,y,-z
-x,-y,-z
x,y,-z
-x,y,z
x,-y,z
1/2+x,1/2+y,z
1/2-x,1/2-y,z
1/2+x,1/2-y,-z
1/2-x,1/2+y,-z
1/2-x,1/2-y,-z
1/2+x,1/2+y,-z
1/2-x,1/2+y,z
1/2+x,1/2-y,z
loop_
_atom_site_type_symbol
_atom_site_label
_atom_site_fract_x
_atom_site_fract_y
_atom_site_fract_z
Si Si1 0.666488 0.425280 0.105154
Si Si2 0.694089 0.307284 0.604834
Si Si3 0.578937 0.072065 0.273079
Si Si4 0.916826 0.165924 0.759929
Si Si5 0.204885 0.426825 0.604151
Si Si6 0.164926 0.599392 0.101500
Si Si7 0.080142 0.276679 0.901511
O O1 0.654004 0.500000 0.112517
O O2 0.621289 0.387825 0.179410
O O3 0.751586 0.412554 0.121680
O O4 0.652124 0.407582 0.000000
O O5 0.674183 0.298070 0.500000
O O6 0.750000 0.250000 0.627307
O O7 0.627733 0.313643 0.672530
O O8 0.732783 0.375501 0.612764
O O9 0.500000 0.101663 0.275890
O O10 0.639202 0.099779 0.337334
O O11 0.612192 0.070515 0.174453
O O12 0.572449 0.000000 0.304102
O O13 0.916260 0.226191 0.824810
O O14 0.000000 0.149310 0.740101
O O15 0.184108 0.428968 0.500000
O O16 0.222732 0.500000 0.630817
O O17 0.143126 0.672658 0.105357
O O18 0.151534 0.577513 0.000000
O O19 0.000000 0.307388 0.898165
O O20 0.085372 0.246499 0.000000
#
# Coordination Sequence:
#
# PCOD9487901 Si02
#       7
#    16  16  16  16  16  16  16
#     4  10  22  39  60  88 121 159 205 254 303 358
#     4  10  23  42  63  89 121 155 196 248 307 366
#     4  10  20  31  48  79 115 150 189 233 281 337
#     4  11  24  39  61  89 117 155 197 243 300 361
#     4   9  19  38  62  84 109 147 195 245 296 354
#     4  10  20  34  53  78 112 154 197 238 282 336
#     4   9  19  35  54  81 117 154 193 237 287 348
#
# _framework density 19.018836
#
# number of rings (size 3 to 8) (size 9 to 14) (size 15 to 20)
#    0.000    2.143    0.000    2.143    4.000    5.143 
#    0.000    5.000    0.000    2.571    0.000    3.000 
#    0.000    0.000    0.000    0.000    0.000    0.000 
#
# Total GULP energy -312166.205979 kJ/mol
# GULP energy per Si atom -5574.396535 kJ/mol
# Density = 1.897555 g / cm^3
# Si number density = 19.018836 Si / 1000 Ang^3
#
#
#
# Elastic Constant Matrix: (Units=GPa)
#
#
# Indices 1 2 3 4 5 6 
#
# 1 87.2488 33.0504 64.4066 0.0000 0.0000 0.0000
# 2 33.0504 68.9499 29.9974 0.0000 0.0000 0.0000
# 3 64.4066 29.9974 85.2644 0.0000 0.0000 0.0000
# 4 0.0000 0.0000 0.0000 22.2711 0.0000 0.0000
# 5 0.0000 0.0000 0.0000 0.0000 5.2175 0.0000
# 6 0.0000 0.0000 0.0000 0.0000 0.0000 6.1196
#
#
#
# Elastic Compliance Matrix: (Units=1/GPa)
#
#
# Indices 1 2 3 4 5 6 
#
# 1 0.027212 -0.004842 -0.018852 0.000000 0.000000 0.000000
# 2 -0.004842 0.017986 -0.002670 0.000000 0.000000 0.000000
# 3 -0.018852 -0.002670 0.026908 0.000000 0.000000 0.000000
# 4 0.000000 0.000000 0.000000 0.044901 0.000000 0.000000
# 5 0.000000 0.000000 0.000000 0.000000 0.191663 0.000000
# 6 0.000000 0.000000 0.000000 0.000000 0.000000 0.163409
#
#
# Mechanical properties :
#
#
# Convention : Reuss Voigt Hill
#
# Bulk Modulus (GPa) = 51.60562 55.15244 53.37903
# Shear Modulus (GPa) = 9.41148 14.32222 11.86685
#
# Velocity S-wave (km/s) = 2.22694 2.74716 2.50061
# Velocity P-wave (km/s) = 5.81422 6.25494 6.03861
#
# Compressibility (1/GPa) = 0.01937774
#
# Stress axis : x y z
#
# Youngs Moduli (GPa) = 36.74866 55.59891 37.16409
#
# Poissons Ratio (x) = 0.26922 0.70060
# Poissons Ratio (y) = 0.17794 0.09923
# Poissons Ratio (z) = 0.69277 0.14846
#
# Static dielectric constant tensor:
#      x y z
#    x 1.680620 0.000000 0.000000 
#    y 0.000000 1.705940 0.000000 
#    z 0.000000 0.000000 1.675070 
# 
# From -- ./inp_files/40761.got.cif
#   From: 2010.05.17/outbox.cif.g08.bks.cpg/sg65_21_cif.got.tgz:40761.got - 2010.06.03 17:01:31.
