data_PCOD9487242
_publ_section_title
;
Structure prediction by ZEFSAII (Michael W. Deem and Ramdas Pophale) SiO2 
 PCOD9487242
Probable space group: C M M M
;
_chemical_formula_sum "Si O2"
_cell_formula_units_Z 72
_cell_length_a 26.312721
_cell_length_b 17.889867
_cell_length_c 8.282631
_cell_angle_alpha 90.000000
_cell_angle_beta 90.000000
_cell_angle_gamma 90.000000
_cell_volume 3898.891828
_symmetry_space_group_name_H-M "C M M M"
_symmetry_group_IT_number 65
_symmetry_cell_setting 'orthorhombic'
loop_
_space_group_symop_operation_xyz
x,y,z
-x,-y,z
x,-y,-z
-x,y,-z
-x,-y,-z
x,y,-z
-x,y,z
x,-y,z
1/2+x,1/2+y,z
1/2-x,1/2-y,z
1/2+x,1/2-y,-z
1/2-x,1/2+y,-z
1/2-x,1/2-y,-z
1/2+x,1/2+y,-z
1/2-x,1/2+y,z
1/2+x,1/2-y,z
loop_
_atom_site_type_symbol
_atom_site_label
_atom_site_fract_x
_atom_site_fract_y
_atom_site_fract_z
Si Si1 0.000000 0.586408 0.307184
Si Si2 0.557084 0.634391 0.194042
Si Si3 0.691428 0.740131 0.304381
Si Si4 0.158584 0.920972 0.309394
Si Si5 0.411738 0.197081 0.192551
O O1 0.050578 0.632597 0.255526
O O2 0.000000 0.500000 0.246842
O O3 0.000000 0.583874 0.500000
O O4 0.500000 0.612287 0.231281
O O5 0.598551 0.585473 0.283075
O O6 0.565453 0.721584 0.239870
O O7 0.564614 0.628919 0.000000
O O8 0.688793 0.740904 0.500000
O O9 0.750000 0.750000 0.257994
O O10 0.678008 0.657198 0.240684
O O11 0.647391 0.797226 0.247119
O O12 0.170251 0.920504 0.500000
O O13 0.177340 0.000000 0.241115
O O14 0.412707 0.192539 0.000000
#
# Coordination Sequence:
#
# PCOD9487242 Si02
#       5
#     8  16  16  16  16
#     4  11  23  37  55  81 112 145 182 225 277 336
#     4   9  17  30  47  69  97 130 165 196 238 298
#     4   9  18  34  55  77 102 138 184 226 269 324
#     4   9  18  31  46  68  97 128 164 207 255 301
#     4  10  19  34  55  78 106 138 176 220 268 322
#
# _framework density 18.466784000000001
#
# number of rings (size 3 to 8) (size 9 to 14) (size 15 to 20)
#    0.000    2.556    1.111    1.000    0.000    3.556 
#    0.000    3.333    0.000    4.000    0.000    0.000 
#    0.000    0.000    0.000    0.000    0.000    0.000 
#
# Total GULP energy -200471.320866 kJ/mol
# GULP energy per Si atom -5568.647802 kJ/mol
# Density = 1.842475 g / cm^3
# Si number density = 18.466784 Si / 1000 Ang^3
#
#
#
# Elastic Constant Matrix: (Units=GPa)
#
#
# Indices 1 2 3 4 5 6 
#
# 1 129.5632 57.9258 17.3171 0.0000 0.0000 0.0000
# 2 57.9258 122.1416 18.3843 0.0000 0.0000 0.0000
# 3 17.3171 18.3843 16.7615 0.0000 0.0000 0.0000
# 4 0.0000 0.0000 0.0000 9.6879 0.0000 0.0000
# 5 0.0000 0.0000 0.0000 0.0000 -1.8878 0.0000
# 6 0.0000 0.0000 0.0000 0.0000 0.0000 3.9997
#
#
#
# Elastic Compliance Matrix: (Units=1/GPa)
#
#
# Indices 1 2 3 4 5 6 
#
# 1 0.010330 -0.003944 -0.006347 0.000000 0.000000 0.000000
# 2 -0.003944 0.011312 -0.008333 0.000000 0.000000 0.000000
# 3 -0.006347 -0.008333 0.075357 0.000000 0.000000 0.000000
# 4 0.000000 0.000000 0.000000 0.103222 0.000000 0.000000
# 5 0.000000 0.000000 0.000000 0.000000 -0.529721 0.000000
# 6 0.000000 0.000000 0.000000 0.000000 0.000000 0.250016
#
#
# Mechanical properties :
#
#
# Convention : Reuss Voigt Hill
#
# Bulk Modulus (GPa) = 16.73566 50.63565 33.68565
# Shear Modulus (GPa) = -223.99183 14.01590 -104.98796
#
# Velocity S-wave (km/s) = -11.02532 2.75795 -7.54823
# Velocity P-wave (km/s) = 12.36911 6.13360 7.59519
#
# Compressibility (1/GPa) = 0.05975264
#
# Stress axis : x y z
#
# Youngs Moduli (GPa) = 96.80889 88.40452 13.27018
#
# Poissons Ratio (x) = 0.34863 0.08422
# Poissons Ratio (y) = 0.38177 0.11057
# Poissons Ratio (z) = 0.61441 0.73663
#
# Static dielectric constant tensor:
#      x y z
#    x 1.647290 0.000000 0.000000 
#    y 0.000000 1.681020 0.000000 
#    z 0.000000 0.000000 1.645490 
# 
# From -- ./inp_files/13574.got.cif
#   From: 2010.05.17/outbox.cif.g08.bks.cpg/sg65_7_cif.got.tgz:13574.got - 2010.06.03 17:01:31.
