data_PCOD9487403
_publ_section_title
;
Structure prediction by ZEFSAII (Michael W. Deem and Ramdas Pophale) SiO2 
 PCOD9487403
Probable space group: C M M M
;
_chemical_formula_sum "Si O2"
_cell_formula_units_Z 88
_cell_length_a 15.068657
_cell_length_b 8.943892
_cell_length_c 32.032453
_cell_angle_alpha 90.000000
_cell_angle_beta 90.000000
_cell_angle_gamma 90.000000
_cell_volume 4317.091875
_symmetry_space_group_name_H-M "C M M M"
_symmetry_group_IT_number 65
_symmetry_cell_setting 'orthorhombic'
loop_
_space_group_symop_operation_xyz
x,y,z
-x,-y,z
x,-y,-z
-x,y,-z
-x,-y,-z
x,y,-z
-x,y,z
x,-y,z
1/2+x,1/2+y,z
1/2-x,1/2-y,z
1/2+x,1/2-y,-z
1/2-x,1/2+y,-z
1/2-x,1/2-y,-z
1/2+x,1/2+y,-z
1/2-x,1/2+y,z
1/2+x,1/2-y,z
loop_
_atom_site_type_symbol
_atom_site_label
_atom_site_fract_x
_atom_site_fract_y
_atom_site_fract_z
Si Si1 0.608452 0.326183 0.954290
Si Si2 0.104648 0.335311 0.871790
Si Si3 0.348162 0.180337 0.611685
Si Si4 0.500000 0.818535 0.547448
Si Si5 0.847074 0.178106 0.787564
Si Si6 0.150766 0.819775 0.303396
O O1 0.500000 0.323512 0.953792
O O2 0.633944 0.500000 0.951449
O O3 0.641524 0.239556 0.913689
O O4 0.635498 0.266705 0.000000
O O5 0.143941 0.500000 0.864895
O O6 0.111881 0.240109 0.829822
O O7 0.000000 0.350409 0.879477
O O8 0.250000 0.250000 0.606298
O O9 0.412901 0.223112 0.573844
O O10 0.387552 0.245105 0.655079
O O11 0.341961 0.000000 0.614423
O O12 0.500000 0.762699 0.500000
O O13 0.500000 0.000000 0.545991
O O14 0.750000 0.250000 0.786681
O O15 0.889760 0.214152 0.742261
O O16 0.841756 0.000000 0.789798
O O17 0.250000 0.750000 0.301915
O O18 0.154511 0.000000 0.308096
#
# Coordination Sequence:
#
# PCOD9487403 Si02
#       6
#    16  16  16   8  16  16
#     4   8  14  26  45  67  91 123 163 206 253 305
#     4  10  20  32  47  71 102 132 165 209 255 303
#     4  10  19  34  58  83 110 146 187 231 279 330
#     4   9  20  38  57  81 115 153 191 229 276 337
#     4  10  20  34  53  74 100 135 172 209 256 313
#     4   9  17  31  52  77 103 134 172 215 259 310
#
# _framework density 20.384094000000001
#
# number of rings (size 3 to 8) (size 9 to 14) (size 15 to 20)
#    0.000    2.636    0.000    3.818    0.000    4.000 
#    1.636    3.636    0.000    4.364    0.000    0.000 
#    0.000    0.000    0.000    0.000    0.000    0.000 
#
# Total GULP energy -245280.459918 kJ/mol
# GULP energy per Si atom -5574.555907 kJ/mol
# Density = 2.033770 g / cm^3
# Si number density = 20.384094 Si / 1000 Ang^3
#
#
#
# Elastic Constant Matrix: (Units=GPa)
#
#
# Indices 1 2 3 4 5 6 
#
# 1 56.5781 19.9333 44.1724 0.0000 0.0000 0.0000
# 2 19.9333 92.1817 80.2847 0.0000 0.0000 0.0000
# 3 44.1724 80.2847 232.5542 0.0000 0.0000 0.0000
# 4 0.0000 0.0000 0.0000 30.9682 0.0000 0.0000
# 5 0.0000 0.0000 0.0000 0.0000 100.7755 0.0000
# 6 0.0000 0.0000 0.0000 0.0000 0.0000 13.4667
#
#
#
# Elastic Compliance Matrix: (Units=1/GPa)
#
#
# Indices 1 2 3 4 5 6 
#
# 1 0.020900 -0.001518 -0.003446 0.000000 0.000000 0.000000
# 2 -0.001518 0.015623 -0.005105 0.000000 0.000000 0.000000
# 3 -0.003446 -0.005105 0.006717 0.000000 0.000000 0.000000
# 4 0.000000 0.000000 0.000000 0.032291 0.000000 0.000000
# 5 0.000000 0.000000 0.000000 0.000000 0.009923 0.000000
# 6 0.000000 0.000000 0.000000 0.000000 0.000000 0.074257
#
#
# Mechanical properties :
#
#
# Convention : Reuss Voigt Hill
#
# Bulk Modulus (GPa) = 43.28763 74.45496 58.87129
# Shear Modulus (GPa) = 26.65966 44.83698 35.74832
#
# Velocity S-wave (km/s) = 3.62037 4.69508 4.19231
# Velocity P-wave (km/s) = 6.22560 8.12386 7.23724
#
# Compressibility (1/GPa) = 0.02310129
#
# Stress axis : x y z
#
# Youngs Moduli (GPa) = 47.84749 64.00978 148.87745
#
# Poissons Ratio (x) = 0.09720 0.51297
# Poissons Ratio (y) = 0.07265 0.76002
# Poissons Ratio (z) = 0.16486 0.32677
#
# Static dielectric constant tensor:
#      x y z
#    x 1.767250 0.000000 0.000000 
#    y 0.000000 1.705090 0.000000 
#    z 0.000000 0.000000 1.764690 
# 
# From -- ./inp_files/77945.got.cif
#   From: 2010.05.17/outbox.cif.g08.bks.cpg/sg65_39_cif.got.tgz:77945.got - 2010.06.03 17:01:31.
