data_PCOD9487672
_publ_section_title
;
Structure prediction by ZEFSAII (Michael W. Deem and Ramdas Pophale) SiO2 
 PCOD9487672
Probable space group: C M M M
;
_chemical_formula_sum "Si O2"
_cell_formula_units_Z 72
_cell_length_a 7.317442
_cell_length_b 14.961083
_cell_length_c 27.621043
_cell_angle_alpha 90.000000
_cell_angle_beta 90.000000
_cell_angle_gamma 90.000000
_cell_volume 3023.864978
_symmetry_space_group_name_H-M "C M M M"
_symmetry_group_IT_number 65
_symmetry_cell_setting 'orthorhombic'
loop_
_space_group_symop_operation_xyz
x,y,z
-x,-y,z
x,-y,-z
-x,y,-z
-x,-y,-z
x,y,-z
-x,y,z
x,-y,z
1/2+x,1/2+y,z
1/2-x,1/2-y,z
1/2+x,1/2-y,-z
1/2-x,1/2+y,-z
1/2-x,1/2-y,-z
1/2+x,1/2+y,-z
1/2-x,1/2+y,z
1/2+x,1/2-y,z
loop_
_atom_site_type_symbol
_atom_site_label
_atom_site_fract_x
_atom_site_fract_y
_atom_site_fract_z
Si Si1 0.000000 0.895867 0.446717
Si Si2 0.218439 0.357468 0.843590
Si Si3 0.784876 0.355292 0.365118
Si Si4 0.218416 0.642537 0.052136
Si Si5 0.218210 0.642556 0.260606
O O1 0.825888 0.878659 0.412809
O O2 0.000000 0.850912 0.500000
O O3 0.000000 0.000000 0.454285
O O4 0.250000 0.250000 0.843726
O O5 0.288062 0.390651 0.895729
O O6 0.288009 0.390901 0.791471
O O7 0.000000 0.372374 0.843479
O O8 0.750000 0.250000 0.360233
O O9 0.718143 0.392488 0.312915
O O10 0.000000 0.374075 0.370367
O O11 0.250000 0.750000 0.052115
O O12 0.000000 0.627635 0.052154
O O13 0.288108 0.609375 0.000000
O O14 0.250000 0.750000 0.259853
O O15 0.000000 0.628577 0.261029
#
# Coordination Sequence:
#
# PCOD9487672 Si02
#       5
#     8  16  16  16  16
#     4  11  26  44  60  84 117 149 182 222 271 325
#     4   8  12  18  26  42  68  98 135 184 237 284
#     4  10  19  36  60  87 113 144 185 229 272 319
#     4   8  12  16  22  32  52  88 134 179 222 273
#     4   8  14  22  38  62  88 115 150 200 254 300
#
# _framework density 23.810586000000001
#
# number of rings (size 3 to 8) (size 9 to 14) (size 15 to 20)
#    0.000    3.222    1.111    0.000    1.556    1.333 
#    0.000    1.111    0.000    0.000    0.000    0.000 
#    0.000    0.000    0.000    0.000    0.000    2.222 
#
# Total GULP energy -200522.430547 kJ/mol
# GULP energy per Si atom -5570.067515 kJ/mol
# Density = 2.375639 g / cm^3
# Si number density = 23.810586 Si / 1000 Ang^3
#
#
#
# Elastic Constant Matrix: (Units=GPa)
#
#
# Indices 1 2 3 4 5 6 
#
# 1 124.9137 -8.6850 65.6891 0.0000 0.0000 0.0000
# 2 -8.6850 53.3003 20.8286 0.0000 0.0000 0.0000
# 3 65.6891 20.8286 355.8363 0.0000 0.0000 0.0000
# 4 0.0000 0.0000 0.0000 119.1145 0.0000 0.0000
# 5 0.0000 0.0000 0.0000 0.0000 3.0551 0.0000
# 6 0.0000 0.0000 0.0000 0.0000 0.0000 -23.7714
#
#
#
# Elastic Compliance Matrix: (Units=1/GPa)
#
#
# Indices 1 2 3 4 5 6 
#
# 1 0.009110 0.002192 -0.001810 0.000000 0.000000 0.000000
# 2 0.002192 0.019728 -0.001559 0.000000 0.000000 0.000000
# 3 -0.001810 -0.001559 0.003236 0.000000 0.000000 0.000000
# 4 0.000000 0.000000 0.000000 0.008395 0.000000 0.000000
# 5 0.000000 0.000000 0.000000 0.000000 0.327323 0.000000
# 6 0.000000 0.000000 0.000000 0.000000 0.000000 -0.042067
#
#
# Mechanical properties :
#
#
# Convention : Reuss Voigt Hill
#
# Bulk Modulus (GPa) = 33.64943 76.63508 55.14226
# Shear Modulus (GPa) = 14.79350 50.09414 32.44382
#
# Velocity S-wave (km/s) = 2.49529 4.59176 3.69532
# Velocity P-wave (km/s) = 4.73970 7.76965 6.43554
#
# Compressibility (1/GPa) = 0.02971818
#
# Stress axis : x y z
#
# Youngs Moduli (GPa) = 109.77259 50.68913 309.05301
#
# Poissons Ratio (x) = -0.11109 0.55938
# Poissons Ratio (y) = -0.24059 0.48193
# Poissons Ratio (z) = 0.19869 0.07904
#
# Static dielectric constant tensor:
#      x y z
#    x 1.994920 0.000000 0.000000 
#    y 0.000000 1.908760 0.000000 
#    z 0.000000 0.000000 2.070160 
# 
# From -- ./inp_files/72522.got.cif
#   From: 2010.05.17/outbox.cif.g08.bks.cpg/sg65_37_cif.got.tgz:72522.got - 2010.06.03 17:01:31.
