data_PCOD9487606
_publ_section_title
;
Structure prediction by ZEFSAII (Michael W. Deem and Ramdas Pophale) SiO2 
 PCOD9487606
Probable space group: C M M M
;
_chemical_formula_sum "Si O2"
_cell_formula_units_Z 92
_cell_length_a 20.705781
_cell_length_b 15.651055
_cell_length_c 13.851609
_cell_angle_alpha 90.000000
_cell_angle_beta 90.000000
_cell_angle_gamma 90.000000
_cell_volume 4488.853768
_symmetry_space_group_name_H-M "C M M M"
_symmetry_group_IT_number 65
_symmetry_cell_setting 'orthorhombic'
loop_
_space_group_symop_operation_xyz
x,y,z
-x,-y,z
x,-y,-z
-x,y,-z
-x,-y,-z
x,y,-z
-x,y,z
x,-y,z
1/2+x,1/2+y,z
1/2-x,1/2-y,z
1/2+x,1/2-y,-z
1/2-x,1/2+y,-z
1/2-x,1/2-y,-z
1/2+x,1/2+y,-z
1/2-x,1/2+y,z
1/2+x,1/2-y,z
loop_
_atom_site_type_symbol
_atom_site_label
_atom_site_fract_x
_atom_site_fract_y
_atom_site_fract_z
Si Si1 0.628265 0.678640 0.113980
Si Si2 0.500000 0.000000 0.855299
Si Si3 0.798045 0.168173 0.609464
Si Si4 0.073889 0.725066 0.388306
Si Si5 0.104205 0.640090 0.800433
Si Si6 0.923445 0.000000 0.111655
Si Si7 0.754048 0.095885 0.805420
O O1 0.599506 0.763449 0.160168
O O2 0.598680 0.590178 0.154392
O O3 0.703772 0.665231 0.137250
O O4 0.616972 0.683387 0.000000
O O5 0.443736 0.925292 0.850487
O O6 0.794232 0.134468 0.500000
O O7 0.750000 0.250000 0.615397
O O8 0.870251 0.204407 0.626944
O O9 0.775803 0.106173 0.694093
O O10 0.080382 0.697483 0.500000
O O11 0.086815 0.649116 0.312910
O O12 0.000000 0.755429 0.374446
O O13 0.178219 0.612694 0.812487
O O14 0.000000 0.000000 0.109834
O O15 0.899575 0.000000 0.000000
O O16 0.768108 0.000000 0.840820
#
# Coordination Sequence:
#
# PCOD9487606 Si02
#       7
#    16   4  16  16  16   8  16
#     4  11  24  44  70  96 126 169 219 277 344 404
#     4  12  28  46  66 100 144 182 226 270 326 406
#     4  10  19  35  60  91 127 171 225 278 330 395
#     4  10  20  36  63  94 128 175 222 268 329 402
#     4  12  24  43  65  93 135 182 220 273 330 396
#     4   9  20  39  64  97 122 146 205 274 323 389
#     4  12  23  39  64  96 129 170 225 286 335 394
#
# _framework density 20.49521
#
# number of rings (size 3 to 8) (size 9 to 14) (size 15 to 20)
#    0.000    1.130    6.087    0.522    1.217    1.739 
#    0.000    1.739    0.000    0.000    0.000    2.435 
#    0.000    0.000    0.000    0.000    0.000    0.000 
#
# Total GULP energy -256371.905068 kJ/mol
# GULP energy per Si atom -5573.302284 kJ/mol
# Density = 2.044856 g / cm^3
# Si number density = 20.495210 Si / 1000 Ang^3
#
#
#
# Elastic Constant Matrix: (Units=GPa)
#
#
# Indices 1 2 3 4 5 6 
#
# 1 120.3903 45.0852 -6.6271 0.0000 0.0000 0.0000
# 2 45.0852 134.9140 18.5859 0.0000 0.0000 0.0000
# 3 -6.6271 18.5859 37.2625 0.0000 0.0000 0.0000
# 4 0.0000 0.0000 0.0000 5.4814 0.0000 0.0000
# 5 0.0000 0.0000 0.0000 0.0000 14.5351 0.0000
# 6 0.0000 0.0000 0.0000 0.0000 0.0000 42.2983
#
#
#
# Elastic Compliance Matrix: (Units=1/GPa)
#
#
# Indices 1 2 3 4 5 6 
#
# 1 0.009943 -0.003829 0.003678 0.000000 0.000000 0.000000
# 2 -0.003829 0.009434 -0.005387 0.000000 0.000000 0.000000
# 3 0.003678 -0.005387 0.030178 0.000000 0.000000 0.000000
# 4 0.000000 0.000000 0.000000 0.182434 0.000000 0.000000
# 5 0.000000 0.000000 0.000000 0.000000 0.068799 0.000000
# 6 0.000000 0.000000 0.000000 0.000000 0.000000 0.023642
#
#
# Mechanical properties :
#
#
# Convention : Reuss Voigt Hill
#
# Bulk Modulus (GPa) = 25.98806 45.18386 35.58596
# Shear Modulus (GPa) = 14.35417 28.16448 21.25932
#
# Velocity S-wave (km/s) = 2.64932 3.71104 3.22418
# Velocity P-wave (km/s) = 4.69746 6.36053 5.59117
#
# Compressibility (1/GPa) = 0.03847921
#
# Stress axis : x y z
#
# Youngs Moduli (GPa) = 100.57437 106.00074 33.13721
#
# Poissons Ratio (x) = 0.40592 -0.12189
# Poissons Ratio (y) = 0.38514 0.17849
# Poissons Ratio (z) = -0.36995 0.57098
#
# Static dielectric constant tensor:
#      x y z
#    x 1.746210 0.000000 0.000000 
#    y 0.000000 1.725670 0.000000 
#    z 0.000000 0.000000 1.771990 
# 
# From -- ./inp_files/44184.got.cif
#   From: 2010.05.17/outbox.cif.g08.bks.cpg/sg65_23_cif.got.tgz:44184.got - 2010.06.03 17:01:31.
