data_PCOD9487920
_publ_section_title
;
Structure prediction by ZEFSAII (Michael W. Deem and Ramdas Pophale) SiO2 
 PCOD9487920
Probable space group: C M M M
;
_chemical_formula_sum "Si O2"
_cell_formula_units_Z 72
_cell_length_a 30.779248
_cell_length_b 9.158351
_cell_length_c 18.091884
_cell_angle_alpha 90.000000
_cell_angle_beta 90.000000
_cell_angle_gamma 90.000000
_cell_volume 5099.869740
_symmetry_space_group_name_H-M "C M M M"
_symmetry_group_IT_number 65
_symmetry_cell_setting 'orthorhombic'
loop_
_space_group_symop_operation_xyz
x,y,z
-x,-y,z
x,-y,-z
-x,y,-z
-x,-y,-z
x,y,-z
-x,y,z
x,-y,z
1/2+x,1/2+y,z
1/2-x,1/2-y,z
1/2+x,1/2-y,-z
1/2-x,1/2+y,-z
1/2-x,1/2-y,-z
1/2+x,1/2+y,-z
1/2-x,1/2+y,z
1/2+x,1/2-y,z
loop_
_atom_site_type_symbol
_atom_site_label
_atom_site_fract_x
_atom_site_fract_y
_atom_site_fract_z
Si Si1 0.447188 0.831822 0.649217
Si Si2 0.552993 0.331014 0.500000
Si Si3 0.883311 0.326443 0.088037
Si Si4 0.293677 0.331676 0.910110
Si Si5 0.051772 0.173508 0.801473
O O1 0.500000 0.833055 0.647341
O O2 0.432857 0.751861 0.574257
O O3 0.435170 0.744066 0.722933
O O4 0.432755 0.000000 0.652106
O O5 0.566387 0.500000 0.500000
O O6 0.500000 0.329756 0.500000
O O7 0.882619 0.500000 0.100914
O O8 0.837274 0.254830 0.110102
O O9 0.921233 0.250487 0.134176
O O10 0.889139 0.302561 0.000000
O O11 0.295000 0.500000 0.885672
O O12 0.250000 0.250000 0.885061
O O13 0.292408 0.332898 0.000000
O O14 0.000000 0.197345 0.811103
O O15 0.059406 0.000000 0.800921
#
# Coordination Sequence:
#
# PCOD9487920 Si02
#       5
#    16   8  16  16  16
#     4   9  16  26  40  57  77 102 133 168 206 247
#     4   9  15  23  37  57  79 101 128 163 202 245
#     4  10  20  32  45  61  81 107 141 178 214 252
#     4   9  16  27  44  64  84 104 128 162 206 254
#     4  10  20  32  44  58  79 109 144 180 216 251
#
# _framework density 14.118008
#
# number of rings (size 3 to 8) (size 9 to 14) (size 15 to 20)
#    0.000    2.556    0.000    3.000    0.000    9.778 
#    0.000    2.222    0.000    0.000    0.000    0.000 
#    0.000    0.000    0.000    1.000    0.000   14.111 
#
# Total GULP energy -200622.551873 kJ/mol
# GULP energy per Si atom -5572.848663 kJ/mol
# Density = 1.408588 g / cm^3
# Si number density = 14.118008 Si / 1000 Ang^3
#
#
#
# Elastic Constant Matrix: (Units=GPa)
#
#
# Indices 1 2 3 4 5 6 
#
# 1 56.5686 62.2052 46.8679 0.0000 0.0000 0.0000
# 2 62.2052 147.3859 72.9544 0.0000 0.0000 0.0000
# 3 46.8679 72.9544 75.6292 0.0000 0.0000 0.0000
# 4 0.0000 0.0000 0.0000 25.7022 0.0000 0.0000
# 5 0.0000 0.0000 0.0000 0.0000 -1.0106 0.0000
# 6 0.0000 0.0000 0.0000 0.0000 0.0000 22.2594
#
#
#
# Elastic Compliance Matrix: (Units=1/GPa)
#
#
# Indices 1 2 3 4 5 6 
#
# 1 0.042063 -0.009282 -0.017113 0.000000 0.000000 0.000000
# 2 -0.009282 0.015034 -0.008749 0.000000 0.000000 0.000000
# 3 -0.017113 -0.008749 0.032267 0.000000 0.000000 0.000000
# 4 0.000000 0.000000 0.000000 0.038907 0.000000 0.000000
# 5 0.000000 0.000000 0.000000 0.000000 -0.989523 0.000000
# 6 0.000000 0.000000 0.000000 0.000000 0.000000 0.044925
#
#
# Mechanical properties :
#
#
# Convention : Reuss Voigt Hill
#
# Bulk Modulus (GPa) = 52.42519 71.51544 61.97032
# Shear Modulus (GPa) = -6.75968 15.89394 4.56713
#
# Velocity S-wave (km/s) = -2.19052 3.35892 1.80055
# Velocity P-wave (km/s) = 5.55125 8.11225 6.95072
#
# Compressibility (1/GPa) = 0.01907480
#
# Stress axis : x y z
#
# Youngs Moduli (GPa) = 23.77381 66.51809 30.99127
#
# Poissons Ratio (x) = 0.61745 0.53034
# Poissons Ratio (y) = 0.22068 0.27116
# Poissons Ratio (z) = 0.40683 0.58199
#
# Static dielectric constant tensor:
#      x y z
#    x 1.440420 0.000000 0.000000 
#    y 0.000000 1.472160 0.000000 
#    z 0.000000 0.000000 1.449650 
# 
# From -- ./inp_files/36953.got.cif
#   From: 2010.05.17/outbox.cif.g08.bks.cpg/sg65_19_cif.got.tgz:36953.got - 2010.06.03 17:01:31.
