data_PCOD9487261
_publ_section_title
;
Structure prediction by ZEFSAII (Michael W. Deem and Ramdas Pophale) SiO2 
 PCOD9487261
Probable space group: C M M M
;
_chemical_formula_sum "Si O2"
_cell_formula_units_Z 80
_cell_length_a 15.544207
_cell_length_b 22.817561
_cell_length_c 13.087639
_cell_angle_alpha 90.000000
_cell_angle_beta 90.000000
_cell_angle_gamma 90.000000
_cell_volume 4641.935467
_symmetry_space_group_name_H-M "C M M M"
_symmetry_group_IT_number 65
_symmetry_cell_setting 'orthorhombic'
loop_
_space_group_symop_operation_xyz
x,y,z
-x,-y,z
x,-y,-z
-x,y,-z
-x,-y,-z
x,y,-z
-x,y,z
x,-y,z
1/2+x,1/2+y,z
1/2-x,1/2-y,z
1/2+x,1/2-y,-z
1/2-x,1/2+y,-z
1/2-x,1/2-y,-z
1/2+x,1/2+y,-z
1/2-x,1/2+y,z
1/2+x,1/2-y,z
loop_
_atom_site_type_symbol
_atom_site_label
_atom_site_fract_x
_atom_site_fract_y
_atom_site_fract_z
Si Si1 0.603461 0.759602 0.000000
Si Si2 0.604260 0.623892 0.000000
Si Si3 0.851242 0.255821 0.778157
Si Si4 0.600137 0.380170 0.224028
Si Si5 0.096310 0.647475 0.619629
Si Si6 0.762275 0.069323 0.619904
O O1 0.635612 0.783194 0.891455
O O2 0.500000 0.761384 0.000000
O O3 0.633313 0.691629 0.000000
O O4 0.628423 0.598559 0.110214
O O5 0.500000 0.625153 0.000000
O O6 0.750000 0.250000 0.758480
O O7 0.891969 0.190803 0.776927
O O8 0.891917 0.296973 0.692741
O O9 0.500000 0.395615 0.240006
O O10 0.662705 0.405434 0.309202
O O11 0.104524 0.664308 0.500000
O O12 0.172593 0.602099 0.642526
O O13 0.000000 0.622992 0.633593
O O14 0.782033 0.079636 0.500000
O O15 0.753593 0.000000 0.635302
#
# Coordination Sequence:
#
# PCOD9487261 Si02
#       6
#     8   8  16  16  16  16
#     4   9  17  29  47  77 113 144 175 207 247 310
#     4   7  14  29  50  74 104 139 174 205 241 300
#     4  11  19  32  54  82 113 143 174 211 261 315
#     4  10  19  34  55  80 110 143 172 208 260 314
#     4  10  21  37  56  78 105 138 176 219 266 315
#     4  10  22  39  56  76 102 135 179 225 265 310
#
# _framework density 17.234190999999999
#
# number of rings (size 3 to 8) (size 9 to 14) (size 15 to 20)
#    0.000    2.200    2.000    3.300    0.000    2.400 
#    0.000    3.500    0.000    1.800    0.000    0.000 
#    0.000    4.000    0.000    0.000    0.000    0.000 
#
# Total GULP energy -222968.678526 kJ/mol
# GULP energy per Si atom -5574.216963 kJ/mol
# Density = 1.719496 g / cm^3
# Si number density = 17.234191 Si / 1000 Ang^3
#
#
#
# Elastic Constant Matrix: (Units=GPa)
#
#
# Indices 1 2 3 4 5 6 
#
# 1 118.1481 29.0343 68.2474 0.0000 0.0000 0.0000
# 2 29.0343 46.7516 53.4879 0.0000 0.0000 0.0000
# 3 68.2474 53.4879 110.6303 0.0000 0.0000 0.0000
# 4 0.0000 0.0000 0.0000 -8.2093 0.0000 0.0000
# 5 0.0000 0.0000 0.0000 0.0000 27.9530 0.0000
# 6 0.0000 0.0000 0.0000 0.0000 0.0000 -0.7193
#
#
#
# Elastic Compliance Matrix: (Units=1/GPa)
#
#
# Indices 1 2 3 4 5 6 
#
# 1 0.013281 0.002519 -0.009411 0.000000 0.000000 0.000000
# 2 0.002519 0.048345 -0.024928 0.000000 0.000000 0.000000
# 3 -0.009411 -0.024928 0.026897 0.000000 0.000000 0.000000
# 4 0.000000 0.000000 0.000000 -0.121813 0.000000 0.000000
# 5 0.000000 0.000000 0.000000 0.000000 0.035774 0.000000
# 6 0.000000 0.000000 0.000000 0.000000 0.000000 -1.390149
#
#
# Mechanical properties :
#
#
# Convention : Reuss Voigt Hill
#
# Bulk Modulus (GPa) = 40.18774 64.11881 52.15327
# Shear Modulus (GPa) = -3.80017 12.12223 4.16103
#
# Velocity S-wave (km/s) = -1.48654 2.65501 1.55552
# Velocity P-wave (km/s) = 4.51916 6.83257 5.79253
#
# Compressibility (1/GPa) = 0.02488321
#
# Stress axis : x y z
#
# Youngs Moduli (GPa) = 75.29496 20.68458 37.17891
#
# Poissons Ratio (x) = -0.05210 0.34989
# Poissons Ratio (y) = -0.18966 0.92680
# Poissons Ratio (z) = 0.70859 0.51563
#
# Static dielectric constant tensor:
#      x y z
#    x 1.583930 0.000000 0.000000 
#    y 0.000000 1.561920 0.000000 
#    z 0.000000 0.000000 1.611270 
# 
# From -- ./inp_files/24651.got.cif
#   From: 2010.05.17/outbox.cif.g08.bks.cpg/sg65_13_cif.got.tgz:24651.got - 2010.06.03 17:01:31.
