data_PCOD9487996
_publ_section_title
;
Structure prediction by ZEFSAII (Michael W. Deem and Ramdas Pophale) SiO2 
 PCOD9487996
Probable space group: C M M M
;
_chemical_formula_sum "Si O2"
_cell_formula_units_Z 104
_cell_length_a 8.592958
_cell_length_b 28.370212
_cell_length_c 27.442358
_cell_angle_alpha 90.000000
_cell_angle_beta 90.000000
_cell_angle_gamma 90.000000
_cell_volume 6690.008905
_symmetry_space_group_name_H-M "C M M M"
_symmetry_group_IT_number 65
_symmetry_cell_setting 'orthorhombic'
loop_
_space_group_symop_operation_xyz
x,y,z
-x,-y,z
x,-y,-z
-x,y,-z
-x,-y,-z
x,y,-z
-x,y,z
x,-y,z
1/2+x,1/2+y,z
1/2-x,1/2-y,z
1/2+x,1/2-y,-z
1/2-x,1/2+y,-z
1/2-x,1/2-y,-z
1/2+x,1/2+y,-z
1/2-x,1/2+y,z
1/2+x,1/2-y,z
loop_
_atom_site_type_symbol
_atom_site_label
_atom_site_fract_x
_atom_site_fract_y
_atom_site_fract_z
Si Si1 0.680288 0.557304 0.000000
Si Si2 0.813387 0.553914 0.700568
Si Si3 0.813670 0.302070 0.555998
Si Si4 0.309590 0.554773 0.106314
Si Si5 0.687091 0.301943 0.741977
Si Si6 0.188497 0.894982 0.795624
Si Si7 0.813560 0.141860 0.645528
O O1 0.747705 0.570630 0.052707
O O2 0.678478 0.500000 0.000000
O O3 0.500000 0.573025 0.000000
O O4 0.765492 0.500000 0.691717
O O5 0.751375 0.571400 0.752952
O O6 0.748313 0.590817 0.661309
O O7 0.000000 0.556308 0.700660
O O8 0.767390 0.312415 0.500000
O O9 0.750000 0.250000 0.568073
O O10 0.749320 0.339024 0.594699
O O11 0.000000 0.301041 0.558459
O O12 0.500000 0.555346 0.104594
O O13 0.265288 0.500000 0.114289
O O14 0.260437 0.586655 0.151626
O O15 0.500000 0.300021 0.742124
O O16 0.750000 0.250000 0.750626
O O17 0.735427 0.341848 0.781015
O O18 0.735971 0.322409 0.689108
O O19 0.000000 0.896954 0.793966
O O20 0.000000 0.140914 0.644962
#
# Coordination Sequence:
#
# PCOD9487996 Si02
#       7
#     8  16  16  16  16  16  16
#     4   7  10  16  28  52  82 107 133 167 213 263
#     4  10  20  32  46  66  92 120 149 181 218 263
#     4  10  20  33  50  73 100 127 154 186 225 267
#     4   8  12  19  34  56  83 111 136 170 216 261
#     4   9  18  29  41  60  84 110 141 176 214 257
#     4   9  17  28  42  62  86 113 146 180 217 262
#     4  10  20  33  50  70  91 118 151 186 224 266
#
# _framework density 15.54557
#
# number of rings (size 3 to 8) (size 9 to 14) (size 15 to 20)
#    0.000    2.846    0.000    4.154    0.000    7.077 
#    0.000    0.000    0.000    0.462    0.000    4.308 
#    0.000    3.077    0.000    0.000    0.000    0.000 
#
# Total GULP energy -289708.073473 kJ/mol
# GULP energy per Si atom -5571.309105 kJ/mol
# Density = 1.551019 g / cm^3
# Si number density = 15.545570 Si / 1000 Ang^3
#
#
#
# Elastic Constant Matrix: (Units=GPa)
#
#
# Indices 1 2 3 4 5 6 
#
# 1 17.9236 26.5265 25.7154 0.0000 0.0000 0.0000
# 2 26.5265 128.3871 84.9742 0.0000 0.0000 0.0000
# 3 25.7154 84.9742 133.3107 0.0000 0.0000 0.0000
# 4 0.0000 0.0000 0.0000 22.8805 0.0000 0.0000
# 5 0.0000 0.0000 0.0000 0.0000 9.9550 0.0000
# 6 0.0000 0.0000 0.0000 0.0000 0.0000 22.5624
#
#
#
# Elastic Compliance Matrix: (Units=1/GPa)
#
#
# Indices 1 2 3 4 5 6 
#
# 1 0.086362 -0.011793 -0.009142 0.000000 0.000000 0.000000
# 2 -0.011793 0.015083 -0.007339 0.000000 0.000000 0.000000
# 3 -0.009142 -0.007339 0.013943 0.000000 0.000000 0.000000
# 4 0.000000 0.000000 0.000000 0.043705 0.000000 0.000000
# 5 0.000000 0.000000 0.000000 0.000000 0.100452 0.000000
# 6 0.000000 0.000000 0.000000 0.000000 0.000000 0.044321
#
#
# Mechanical properties :
#
#
# Convention : Reuss Voigt Hill
#
# Bulk Modulus (GPa) = 16.99545 61.56150 39.27848
# Shear Modulus (GPa) = 13.15691 20.57328 16.86509
#
# Velocity S-wave (km/s) = 2.91236 3.64183 3.29733
# Velocity P-wave (km/s) = 4.71863 7.57433 6.31015
#
# Compressibility (1/GPa) = 0.05883926
#
# Stress axis : x y z
#
# Youngs Moduli (GPa) = 11.57922 66.29929 71.72032
#
# Poissons Ratio (x) = 0.78184 0.65568
# Poissons Ratio (y) = 0.13655 0.52639
# Poissons Ratio (z) = 0.10586 0.48660
#
# Static dielectric constant tensor:
#      x y z
#    x 1.526310 0.000000 0.000000 
#    y 0.000000 1.498300 0.000000 
#    z 0.000000 0.000000 1.531750 
# 
# From -- ./inp_files/73788.got.cif
#   From: 2010.05.17/outbox.cif.g08.bks.cpg/sg65_37_cif.got.tgz:73788.got - 2010.06.03 17:01:31.
