data_PCOD9487153
_publ_section_title
;
Structure prediction by ZEFSAII (Michael W. Deem and Ramdas Pophale) SiO2 
 PCOD9487153
Probable space group: C M M M
;
_chemical_formula_sum "Si O2"
_cell_formula_units_Z 104
_cell_length_a 18.865539
_cell_length_b 13.997158
_cell_length_c 24.005876
_cell_angle_alpha 90.000000
_cell_angle_beta 90.000000
_cell_angle_gamma 90.000000
_cell_volume 6339.085963
_symmetry_space_group_name_H-M "C M M M"
_symmetry_group_IT_number 65
_symmetry_cell_setting 'orthorhombic'
loop_
_space_group_symop_operation_xyz
x,y,z
-x,-y,z
x,-y,-z
-x,y,-z
-x,-y,-z
x,y,-z
-x,y,z
x,-y,z
1/2+x,1/2+y,z
1/2-x,1/2-y,z
1/2+x,1/2-y,-z
1/2-x,1/2+y,-z
1/2-x,1/2-y,-z
1/2+x,1/2+y,-z
1/2-x,1/2+y,z
1/2+x,1/2-y,z
loop_
_atom_site_type_symbol
_atom_site_label
_atom_site_fract_x
_atom_site_fract_y
_atom_site_fract_z
Si Si1 0.169155 0.722747 0.222044
Si Si2 0.081544 0.383301 0.000000
Si Si3 0.414247 0.886966 0.559877
Si Si4 0.320003 0.884800 0.895543
Si Si5 0.083886 0.384480 0.317279
Si Si6 0.583410 0.388174 0.828183
Si Si7 0.837685 0.884551 0.938119
O O1 0.250000 0.750000 0.234668
O O2 0.167389 0.665040 0.163505
O O3 0.131236 0.661818 0.269684
O O4 0.126278 0.820372 0.212558
O O5 0.124645 0.357233 0.944023
O O6 0.080507 0.500000 0.000000
O O7 0.000000 0.350125 0.000000
O O8 0.389449 0.846388 0.500000
O O9 0.500000 0.880782 0.560036
O O10 0.392486 0.850515 0.620726
O O11 0.397318 0.000000 0.559353
O O12 0.241077 0.860142 0.917129
O O13 0.323128 0.000000 0.888818
O O14 0.089212 0.500000 0.315666
O O15 0.000000 0.361806 0.309656
O O16 0.500000 0.377059 0.820970
O O17 0.601987 0.500000 0.821018
O O18 0.606366 0.359403 0.890762
O O19 0.838933 0.000000 0.941703
O O20 0.851198 0.846987 0.000000
#
# Coordination Sequence:
#
# PCOD9487153 Si02
#       7
#    16   8  16  16  16  16  16
#     4  12  23  34  51  73  99 132 169 202 241 296
#     4   9  18  32  51  74 100 128 155 191 244 308
#     4   7  10  20  42  72 104 135 162 189 229 282
#     4  10  19  34  53  72  96 125 157 196 242 300
#     4   9  18  32  51  78 109 134 160 200 245 290
#     4  10  22  39  54  69  92 122 162 211 254 291
#     4   9  16  31  55  73  87 114 151 197 253 304
#
# _framework density 16.406151000000001
#
# number of rings (size 3 to 8) (size 9 to 14) (size 15 to 20)
#    0.000    2.538    2.308    2.308    0.000    2.154 
#    1.385    4.231    0.000    0.462    0.000    0.000 
#    0.000    0.615    0.000    5.692    0.000    0.308 
#
# Total GULP energy -289906.793534 kJ/mol
# GULP energy per Si atom -5575.130645 kJ/mol
# Density = 1.636881 g / cm^3
# Si number density = 16.406151 Si / 1000 Ang^3
#
#
#
# Elastic Constant Matrix: (Units=GPa)
#
#
# Indices 1 2 3 4 5 6 
#
# 1 59.0670 27.2486 37.6169 0.0000 0.0000 0.0000
# 2 27.2486 58.7582 28.8122 0.0000 0.0000 0.0000
# 3 37.6169 28.8122 124.1237 0.0000 0.0000 0.0000
# 4 0.0000 0.0000 0.0000 7.8833 0.0000 0.0000
# 5 0.0000 0.0000 0.0000 0.0000 13.3217 0.0000
# 6 0.0000 0.0000 0.0000 0.0000 0.0000 15.2402
#
#
#
# Elastic Compliance Matrix: (Units=1/GPa)
#
#
# Indices 1 2 3 4 5 6 
#
# 1 0.024342 -0.008656 -0.005368 0.000000 0.000000 0.000000
# 2 -0.008656 0.022283 -0.002549 0.000000 0.000000 0.000000
# 3 -0.005368 -0.002549 0.010275 0.000000 0.000000 0.000000
# 4 0.000000 0.000000 0.000000 0.126851 0.000000 0.000000
# 5 0.000000 0.000000 0.000000 0.000000 0.075066 0.000000
# 6 0.000000 0.000000 0.000000 0.000000 0.000000 0.065616
#
#
# Mechanical properties :
#
#
# Convention : Reuss Voigt Hill
#
# Bulk Modulus (GPa) = 42.09867 47.70046 44.89956
# Shear Modulus (GPa) = 13.68004 17.17377 15.42690
#
# Velocity S-wave (km/s) = 2.89075 3.23892 3.06978
# Velocity P-wave (km/s) = 6.07107 6.56699 6.32389
#
# Compressibility (1/GPa) = 0.02375372
#
# Stress axis : x y z
#
# Youngs Moduli (GPa) = 41.08199 44.87704 97.32444
#
# Poissons Ratio (x) = 0.38846 0.52240
# Poissons Ratio (y) = 0.35561 0.24809
# Poissons Ratio (z) = 0.22051 0.11440
#
# Static dielectric constant tensor:
#      x y z
#    x 1.536530 0.000000 0.000000 
#    y 0.000000 1.577040 0.000000 
#    z 0.000000 0.000000 1.568030 
# 
# From -- ./inp_files/70538.got.cif
#   From: 2010.05.17/outbox.cif.g08.bks.cpg/sg65_36_cif.got.tgz:70538.got - 2010.06.03 17:01:31.
