data_PCOD9487582
_publ_section_title
;
Structure prediction by ZEFSAII (Michael W. Deem and Ramdas Pophale) SiO2 
 PCOD9487582
Probable space group: C M M M
;
_chemical_formula_sum "Si O2"
_cell_formula_units_Z 96
_cell_length_a 28.980836
_cell_length_b 13.357001
_cell_length_c 11.897789
_cell_angle_alpha 90.000000
_cell_angle_beta 90.000000
_cell_angle_gamma 90.000000
_cell_volume 4605.599088
_symmetry_space_group_name_H-M "C M M M"
_symmetry_group_IT_number 65
_symmetry_cell_setting 'orthorhombic'
loop_
_space_group_symop_operation_xyz
x,y,z
-x,-y,z
x,-y,-z
-x,y,-z
-x,-y,-z
x,y,-z
-x,y,z
x,-y,z
1/2+x,1/2+y,z
1/2-x,1/2-y,z
1/2+x,1/2-y,-z
1/2-x,1/2+y,-z
1/2-x,1/2-y,-z
1/2+x,1/2+y,-z
1/2-x,1/2+y,z
1/2+x,1/2-y,z
loop_
_atom_site_type_symbol
_atom_site_label
_atom_site_fract_x
_atom_site_fract_y
_atom_site_fract_z
Si Si1 0.633749 0.619831 0.127253
Si Si2 0.396427 0.375076 0.500000
Si Si3 0.211776 0.161752 0.500000
Si Si4 0.814499 0.378594 0.125834
Si Si5 0.077560 0.619850 0.868367
Si Si6 0.052893 0.199120 0.726858
Si Si7 0.274662 0.613719 0.751804
O O1 0.635155 0.500000 0.128470
O O2 0.585172 0.648349 0.180143
O O3 0.678118 0.656812 0.197080
O O4 0.637842 0.654512 0.000000
O O5 0.394563 0.500000 0.500000
O O6 0.344274 0.330168 0.500000
O O7 0.422921 0.332100 0.609499
O O8 0.250000 0.250000 0.500000
O O9 0.221613 0.110628 0.381474
O O10 0.816134 0.500000 0.128710
O O11 0.868019 0.353103 0.143560
O O12 0.774889 0.344628 0.211106
O O13 0.799939 0.349134 0.000000
O O14 0.071582 0.500000 0.853878
O O15 0.053781 0.685620 0.771458
O O16 0.064391 0.641713 0.000000
O O17 0.000000 0.165395 0.724477
O O18 0.273964 0.500000 0.795925
#
# Coordination Sequence:
#
# PCOD9487582 Si02
#       7
#    16   8   8  16  16  16  16
#     4  10  21  37  60  93 133 171 211 271 343 408
#     4  12  27  52  75  94 132 183 231 279 339 407
#     4  12  26  39  61  94 127 164 215 264 320 392
#     4   8  15  30  56  89 125 165 206 246 299 384
#     4   9  20  41  68 100 141 184 220 268 343 422
#     4  12  26  43  68  97 125 169 234 294 339 399
#     4  10  19  35  59  87 124 170 213 255 319 399
#
# _framework density 20.844193000000001
#
# number of rings (size 3 to 8) (size 9 to 14) (size 15 to 20)
#    0.000    1.833    1.667    3.500    2.333    5.333 
#    0.000    2.083    0.000    5.000    0.000    0.000 
#    0.000    0.000    0.000    0.000    0.000    0.000 
#
# Total GULP energy -267746.939822 kJ/mol
# GULP energy per Si atom -5578.061246 kJ/mol
# Density = 2.079675 g / cm^3
# Si number density = 20.844193 Si / 1000 Ang^3
#
#
#
# Elastic Constant Matrix: (Units=GPa)
#
#
# Indices 1 2 3 4 5 6 
#
# 1 160.4469 40.8977 61.4875 0.0000 0.0000 0.0000
# 2 40.8977 99.5044 30.0253 0.0000 0.0000 0.0000
# 3 61.4875 30.0253 114.6634 0.0000 0.0000 0.0000
# 4 0.0000 0.0000 0.0000 17.0503 0.0000 0.0000
# 5 0.0000 0.0000 0.0000 0.0000 22.2669 0.0000
# 6 0.0000 0.0000 0.0000 0.0000 0.0000 23.8800
#
#
#
# Elastic Compliance Matrix: (Units=1/GPa)
#
#
# Indices 1 2 3 4 5 6 
#
# 1 0.008281 -0.002241 -0.003854 0.000000 0.000000 0.000000
# 2 -0.002241 0.011518 -0.001815 0.000000 0.000000 0.000000
# 3 -0.003854 -0.001815 0.011263 0.000000 0.000000 0.000000
# 4 0.000000 0.000000 0.000000 0.058650 0.000000 0.000000
# 5 0.000000 0.000000 0.000000 0.000000 0.044910 0.000000
# 6 0.000000 0.000000 0.000000 0.000000 0.000000 0.041876
#
#
# Mechanical properties :
#
#
# Convention : Reuss Voigt Hill
#
# Bulk Modulus (GPa) = 65.60003 71.04843 68.32423
# Shear Modulus (GPa) = 25.32969 28.78637 27.05803
#
# Velocity S-wave (km/s) = 3.48974 3.72025 3.60684
# Velocity P-wave (km/s) = 6.91214 7.25349 7.08487
#
# Compressibility (1/GPa) = 0.01524390
#
# Stress axis : x y z
#
# Youngs Moduli (GPa) = 120.76504 86.81852 88.78740
#
# Poissons Ratio (x) = 0.19452 0.34216
# Poissons Ratio (y) = 0.27058 0.16112
# Poissons Ratio (z) = 0.46539 0.15754
#
# Static dielectric constant tensor:
#      x y z
#    x 1.737000 0.000000 0.000000 
#    y 0.000000 1.887260 0.000000 
#    z 0.000000 0.000000 1.708510 
# 
# From -- ./inp_files/33913.got.cif
#   From: 2010.05.17/outbox.cif.g08.bks.cpg/sg65_17_cif.got.tgz:33913.got - 2010.06.03 17:01:31.
