data_PCOD9487174
_publ_section_title
;
Structure prediction by ZEFSAII (Michael W. Deem and Ramdas Pophale) SiO2 
 PCOD9487174
Probable space group: C M M M
;
_chemical_formula_sum "Si O2"
_cell_formula_units_Z 116
_cell_length_a 29.118645
_cell_length_b 25.559207
_cell_length_c 9.325532
_cell_angle_alpha 90.000000
_cell_angle_beta 90.000000
_cell_angle_gamma 90.000000
_cell_volume 6940.522296
_symmetry_space_group_name_H-M "C M M M"
_symmetry_group_IT_number 65
_symmetry_cell_setting 'orthorhombic'
loop_
_space_group_symop_operation_xyz
x,y,z
-x,-y,z
x,-y,-z
-x,y,-z
-x,-y,-z
x,y,-z
-x,y,z
x,-y,z
1/2+x,1/2+y,z
1/2-x,1/2-y,z
1/2+x,1/2-y,-z
1/2-x,1/2+y,-z
1/2-x,1/2-y,-z
1/2+x,1/2+y,-z
1/2-x,1/2+y,z
1/2+x,1/2-y,z
loop_
_atom_site_type_symbol
_atom_site_label
_atom_site_fract_x
_atom_site_fract_y
_atom_site_fract_z
Si Si1 0.187556 0.602392 0.158742
Si Si2 0.620956 0.439777 0.329201
Si Si3 0.445820 0.761864 0.830099
Si Si4 0.802066 0.771109 0.164684
Si Si5 0.161723 0.500000 0.000000
Si Si6 0.293346 0.394664 0.829910
Si Si7 0.945471 0.139928 0.830373
Si Si8 0.864062 0.690387 0.329636
O O1 0.240185 0.594870 0.206611
O O2 0.158963 0.638615 0.263544
O O3 0.190975 0.629812 0.000000
O O4 0.165417 0.546677 0.122457
O O5 0.622616 0.432815 0.500000
O O6 0.608274 0.500000 0.298411
O O7 0.670365 0.427286 0.260306
O O8 0.584939 0.399673 0.259843
O O9 0.500000 0.769523 0.804814
O O10 0.435136 0.700808 0.797519
O O11 0.413986 0.799168 0.737420
O O12 0.437480 0.769654 0.000000
O O13 0.750000 0.750000 0.174242
O O14 0.802485 0.832986 0.192696
O O15 0.833136 0.738435 0.272147
O O16 0.817970 0.763277 0.000000
O O17 0.298983 0.405903 0.000000
O O18 0.000000 0.132102 0.807211
O O19 0.936308 0.132413 0.000000
O O20 0.865174 0.688806 0.500000
#
# Coordination Sequence:
#
# PCOD9487174 Si02
#       8
#    16  16  16  16   4  16  16  16
#     4   9  19  37  58  80 100 143 191 230 271 314
#     4  11  25  38  49  72 107 147 185 229 286 338
#     4   9  19  37  61  86 113 146 182 222 271 328
#     4  10  19  34  53  77 107 147 186 226 274 322
#     4   8  20  36  66  78 101 138 195 248 262 312
#     4  10  20  34  57  77 101 137 188 236 275 318
#     4   9  19  38  61  82 102 132 182 236 281 325
#     4  12  23  33  52  85 123 152 179 220 274 343
#
# _framework density 16.713439000000001
#
# number of rings (size 3 to 8) (size 9 to 14) (size 15 to 20)
#    0.414    1.655    1.379    3.310    0.966    7.172 
#    0.000    3.103    0.000    0.000    0.000    0.966 
#    0.000    1.103    0.000    0.000    0.000    0.000 
#
# Total GULP energy -323116.527668 kJ/mol
# GULP energy per Si atom -5570.974615 kJ/mol
# Density = 1.667540 g / cm^3
# Si number density = 16.713439 Si / 1000 Ang^3
#
#
#
# Elastic Constant Matrix: (Units=GPa)
#
#
# Indices 1 2 3 4 5 6 
#
# 1 71.8307 26.1593 52.4733 0.0000 0.0000 0.0000
# 2 26.1593 33.2561 37.5621 0.0000 0.0000 0.0000
# 3 52.4733 37.5621 78.2547 0.0000 0.0000 0.0000
# 4 0.0000 0.0000 0.0000 10.4057 0.0000 0.0000
# 5 0.0000 0.0000 0.0000 0.0000 -399.6225 0.0000
# 6 0.0000 0.0000 0.0000 0.0000 0.0000 16.1319
#
#
#
# Elastic Compliance Matrix: (Units=1/GPa)
#
#
# Indices 1 2 3 4 5 6 
#
# 1 0.027335 -0.001745 -0.017492 0.000000 0.000000 0.000000
# 2 -0.001745 0.065787 -0.030407 0.000000 0.000000 0.000000
# 3 -0.017492 -0.030407 0.039103 0.000000 0.000000 0.000000
# 4 0.000000 0.000000 0.000000 0.096102 0.000000 0.000000
# 5 0.000000 0.000000 0.000000 0.000000 -0.002502 0.000000
# 6 0.000000 0.000000 0.000000 0.000000 0.000000 0.061989
#
#
# Mechanical properties :
#
#
# Convention : Reuss Voigt Hill
#
# Bulk Modulus (GPa) = 30.36136 46.19232 38.27684
# Shear Modulus (GPa) = 12.56028 -70.14054 -28.79013
#
# Velocity S-wave (km/s) = 2.74434 -6.48519 -4.15489
# Velocity P-wave (km/s) = 5.31480 5.32720 0.25682
#
# Compressibility (1/GPa) = 0.03293661
#
# Stress axis : x y z
#
# Youngs Moduli (GPa) = 36.58291 15.20066 25.57346
#
# Poissons Ratio (x) = 0.02653 0.44732
# Poissons Ratio (y) = 0.06385 0.77761
# Poissons Ratio (z) = 0.63990 0.46221
#
# Static dielectric constant tensor:
#      x y z
#    x 1.572920 0.000000 0.000000 
#    y 0.000000 1.547010 0.000000 
#    z 0.000000 0.000000 1.553800 
# 
# From -- ./inp_files/17035.got.cif
#   From: 2010.05.17/outbox.cif.g08.bks.cpg/sg65_9_cif.got.tgz:17035.got - 2010.06.03 17:01:31.
