data_PCOD9487065
_publ_section_title
;
Structure prediction by ZEFSAII (Michael W. Deem and Ramdas Pophale) SiO2 
 PCOD9487065
Probable space group: C M M M
;
_chemical_formula_sum "Si O2"
_cell_formula_units_Z 72
_cell_length_a 24.103800
_cell_length_b 18.379431
_cell_length_c 7.557054
_cell_angle_alpha 90.000000
_cell_angle_beta 90.000000
_cell_angle_gamma 90.000000
_cell_volume 3347.881695
_symmetry_space_group_name_H-M "C M M M"
_symmetry_group_IT_number 65
_symmetry_cell_setting 'orthorhombic'
loop_
_space_group_symop_operation_xyz
x,y,z
-x,-y,z
x,-y,-z
-x,y,-z
-x,-y,-z
x,y,-z
-x,y,z
x,-y,z
1/2+x,1/2+y,z
1/2-x,1/2-y,z
1/2+x,1/2-y,-z
1/2-x,1/2+y,-z
1/2-x,1/2-y,-z
1/2+x,1/2+y,-z
1/2-x,1/2+y,z
1/2+x,1/2-y,z
loop_
_atom_site_type_symbol
_atom_site_label
_atom_site_fract_x
_atom_site_fract_y
_atom_site_fract_z
Si Si1 0.245270 0.668374 0.294385
Si Si2 0.436648 0.500000 0.216343
Si Si3 0.064071 0.714767 0.783227
Si Si4 0.130540 0.858418 0.785739
Si Si5 0.363484 0.081634 0.207102
O O1 0.230425 0.676334 0.500000
O O2 0.250000 0.750000 0.216188
O O3 0.306399 0.635820 0.276431
O O4 0.197203 0.618326 0.216690
O O5 0.500000 0.500000 0.274855
O O6 0.405047 0.427456 0.272461
O O7 0.436878 0.500000 0.000000
O O8 0.101320 0.783547 0.727345
O O9 0.092945 0.640461 0.719968
O O10 0.000000 0.721517 0.729393
O O11 0.064722 0.715010 0.000000
O O12 0.131478 0.857618 0.000000
O O13 0.364024 0.000000 0.283100
O O14 0.377187 0.075122 0.000000
#
# Coordination Sequence:
#
# PCOD9487065 Si02
#       5
#    16   8  16  16  16
#     4  11  23  38  56  78 108 145 185 229 276 323
#     4   9  18  32  53  85 117 141 174 223 274 327
#     4   9  17  31  54  82 109 140 178 222 274 326
#     4  10  19  33  56  82 110 144 181 225 272 324
#     4  10  21  36  56  83 113 144 180 224 272 323
#
# _framework density 21.506136000000001
#
# number of rings (size 3 to 8) (size 9 to 14) (size 15 to 20)
#    0.000    2.111    2.222    1.333    1.556    4.444 
#    0.000    2.222    0.000    5.333    0.000    1.556 
#    0.000    0.000    0.000    0.000    0.000    0.000 
#
# Total GULP energy -201142.481351 kJ/mol
# GULP energy per Si atom -5587.291149 kJ/mol
# Density = 2.145719 g / cm^3
# Si number density = 21.506136 Si / 1000 Ang^3
#
#
#
# Elastic Constant Matrix: (Units=GPa)
#
#
# Indices 1 2 3 4 5 6 
#
# 1 96.9255 14.5853 -14.4767 0.0000 0.0000 0.0000
# 2 14.5853 123.2967 3.9117 0.0000 0.0000 0.0000
# 3 -14.4767 3.9117 50.5173 0.0000 0.0000 0.0000
# 4 0.0000 0.0000 0.0000 -9.5868 0.0000 0.0000
# 5 0.0000 0.0000 0.0000 0.0000 -117.5851 0.0000
# 6 0.0000 0.0000 0.0000 0.0000 0.0000 33.3548
#
#
#
# Elastic Compliance Matrix: (Units=1/GPa)
#
#
# Indices 1 2 3 4 5 6 
#
# 1 0.011017 -0.001407 0.003266 0.000000 0.000000 0.000000
# 2 -0.001407 0.008310 -0.001047 0.000000 0.000000 0.000000
# 3 0.003266 -0.001047 0.020812 0.000000 0.000000 0.000000
# 4 0.000000 0.000000 0.000000 -0.104311 0.000000 0.000000
# 5 0.000000 0.000000 0.000000 0.000000 -0.008504 0.000000
# 6 0.000000 0.000000 0.000000 0.000000 0.000000 0.029981
#
#
# Mechanical properties :
#
#
# Convention : Reuss Voigt Hill
#
# Bulk Modulus (GPa) = 23.94402 30.97556 27.45979
# Shear Modulus (GPa) = -164.47957 -0.98216 -82.73086
#
# Velocity S-wave (km/s) = -8.75479 -0.67652 -6.20903
# Velocity P-wave (km/s) = 9.54135 3.71808 6.21342
#
# Compressibility (1/GPa) = 0.04176409
#
# Stress axis : x y z
#
# Youngs Moduli (GPa) = 90.77119 120.33485 48.04877
#
# Poissons Ratio (x) = 0.16929 -0.15693
# Poissons Ratio (y) = 0.12770 0.05029
# Poissons Ratio (z) = -0.29646 0.12595
#
# Static dielectric constant tensor:
#      x y z
#    x 1.719080 0.000000 0.000000 
#    y 0.000000 1.776060 0.000000 
#    z 0.000000 0.000000 1.829360 
# 
# From -- ./inp_files/9227.got.cif
#   From: 2010.05.17/outbox.cif.g08.bks.cpg/sg65_5_cif.got.tgz:9227.got - 2010.06.03 17:01:31.
