data_PCOD9487222
_publ_section_title
;
Structure prediction by ZEFSAII (Michael W. Deem and Ramdas Pophale) SiO2 
 PCOD9487222
Probable space group: C M M M
;
_chemical_formula_sum "Si O2"
_cell_formula_units_Z 64
_cell_length_a 28.518500
_cell_length_b 7.786582
_cell_length_c 15.244190
_cell_angle_alpha 90.000000
_cell_angle_beta 90.000000
_cell_angle_gamma 90.000000
_cell_volume 3385.149813
_symmetry_space_group_name_H-M "C M M M"
_symmetry_group_IT_number 65
_symmetry_cell_setting 'orthorhombic'
loop_
_space_group_symop_operation_xyz
x,y,z
-x,-y,z
x,-y,-z
-x,y,-z
-x,-y,-z
x,y,-z
-x,y,z
x,-y,z
1/2+x,1/2+y,z
1/2-x,1/2-y,z
1/2+x,1/2-y,-z
1/2-x,1/2+y,-z
1/2-x,1/2-y,-z
1/2+x,1/2+y,-z
1/2-x,1/2+y,z
1/2+x,1/2-y,z
loop_
_atom_site_type_symbol
_atom_site_label
_atom_site_fract_x
_atom_site_fract_y
_atom_site_fract_z
Si Si1 0.056942 0.000000 0.605511
Si Si2 0.695541 0.294487 0.691714
Si Si3 0.056213 0.798892 0.095727
Si Si4 0.804690 0.794786 0.500000
Si Si5 0.598299 0.809115 0.723963
O O1 0.078918 0.835771 0.656695
O O2 0.067795 0.000000 0.500000
O O3 0.000000 0.000000 0.614633
O O4 0.693153 0.500000 0.692391
O O5 0.750000 0.250000 0.708413
O O6 0.680133 0.229475 0.594223
O O7 0.653200 0.221716 0.747563
O O8 0.072494 0.707713 0.183272
O O9 0.000000 0.793039 0.094322
O O10 0.069913 0.000000 0.103039
O O11 0.072787 0.734773 0.000000
O O12 0.750000 0.750000 0.500000
O O13 0.811301 0.000000 0.500000
O O14 0.591491 0.000000 0.687717
#
# Coordination Sequence:
#
# PCOD9487222 Si02
#       5
#     8  16  16   8  16
#     4  11  26  46  63  83 123 169 212 260 304 357
#     4  10  19  34  54  81 118 157 200 252 304 356
#     4   9  18  36  63  91 119 152 193 249 314 369
#     4   8  16  28  48  72 102 141 186 241 295 337
#     4  12  24  38  62  92 122 162 207 251 307 372
#
# _framework density 18.906103999999999
#
# number of rings (size 3 to 8) (size 9 to 14) (size 15 to 20)
#    0.000    1.875    2.500    2.250    1.750    4.000 
#    0.000    2.500    0.000    0.750    0.000    0.000 
#    0.000    0.000    0.000    0.000    0.000    0.000 
#
# Total GULP energy -178286.306351 kJ/mol
# GULP energy per Si atom -5571.447073 kJ/mol
# Density = 1.886307 g / cm^3
# Si number density = 18.906104 Si / 1000 Ang^3
#
#
#
# Elastic Constant Matrix: (Units=GPa)
#
#
# Indices 1 2 3 4 5 6 
#
# 1 83.7966 37.7104 31.3837 0.0000 0.0000 0.0000
# 2 37.7104 120.9896 45.5892 0.0000 0.0000 0.0000
# 3 31.3837 45.5892 85.3061 0.0000 0.0000 0.0000
# 4 0.0000 0.0000 0.0000 9.3409 0.0000 0.0000
# 5 0.0000 0.0000 0.0000 0.0000 6.4702 0.0000
# 6 0.0000 0.0000 0.0000 0.0000 0.0000 22.9985
#
#
#
# Elastic Compliance Matrix: (Units=1/GPa)
#
#
# Indices 1 2 3 4 5 6 
#
# 1 0.014768 -0.003200 -0.003723 0.000000 0.000000 0.000000
# 2 -0.003200 0.011043 -0.004724 0.000000 0.000000 0.000000
# 3 -0.003723 -0.004724 0.015617 0.000000 0.000000 0.000000
# 4 0.000000 0.000000 0.000000 0.107056 0.000000 0.000000
# 5 0.000000 0.000000 0.000000 0.000000 0.154555 0.000000
# 6 0.000000 0.000000 0.000000 0.000000 0.000000 0.043481
#
#
# Mechanical properties :
#
#
# Convention : Reuss Voigt Hill
#
# Bulk Modulus (GPa) = 55.14728 57.71764 56.43246
# Shear Modulus (GPa) = 13.30292 19.45588 16.37940
#
# Velocity S-wave (km/s) = 2.65548 3.21141 2.94658
# Velocity P-wave (km/s) = 6.21566 6.65926 6.44128
#
# Compressibility (1/GPa) = 0.01813326
#
# Stress axis : x y z
#
# Youngs Moduli (GPa) = 67.71349 90.55792 64.03384
#
# Poissons Ratio (x) = 0.28980 0.23839
# Poissons Ratio (y) = 0.21669 0.30250
# Poissons Ratio (z) = 0.25209 0.42780
#
# Static dielectric constant tensor:
#      x y z
#    x 1.669940 0.000000 0.000000 
#    y 0.000000 1.860270 0.000000 
#    z 0.000000 0.000000 1.205280 
# 
# From -- ./inp_files/47373.got.cif
#   From: 2010.05.17/outbox.cif.g08.bks.cpg/sg65_24_cif.got.tgz:47373.got - 2010.06.03 17:01:31.
