data_PCOD9487654
_publ_section_title
;
Structure prediction by ZEFSAII (Michael W. Deem and Ramdas Pophale) SiO2 
 PCOD9487654
Probable space group: C M M M
;
_chemical_formula_sum "Si O2"
_cell_formula_units_Z 76
_cell_length_a 11.902807
_cell_length_b 23.438698
_cell_length_c 15.850644
_cell_angle_alpha 90.000000
_cell_angle_beta 90.000000
_cell_angle_gamma 90.000000
_cell_volume 4422.112500
_symmetry_space_group_name_H-M "C M M M"
_symmetry_group_IT_number 65
_symmetry_cell_setting 'orthorhombic'
loop_
_space_group_symop_operation_xyz
x,y,z
-x,-y,z
x,-y,-z
-x,y,-z
-x,-y,-z
x,y,-z
-x,y,z
x,-y,z
1/2+x,1/2+y,z
1/2-x,1/2-y,z
1/2+x,1/2-y,-z
1/2-x,1/2+y,-z
1/2-x,1/2-y,-z
1/2+x,1/2+y,-z
1/2-x,1/2+y,z
1/2+x,1/2-y,z
loop_
_atom_site_type_symbol
_atom_site_label
_atom_site_fract_x
_atom_site_fract_y
_atom_site_fract_z
Si Si1 0.746262 0.682001 0.000000
Si Si2 0.000000 0.133851 0.000000
Si Si3 0.366509 0.845820 0.825676
Si Si4 0.250000 0.750000 0.286540
Si Si5 0.274448 0.431917 0.278802
Si Si6 0.000000 0.067282 0.173687
Si Si7 0.134098 0.155523 0.598620
O O1 0.750000 0.750000 0.000000
O O2 0.614919 0.668200 0.000000
O O3 0.805845 0.657496 0.916359
O O4 0.000000 0.097348 0.915347
O O5 0.500000 0.845510 0.835581
O O6 0.325108 0.790838 0.772354
O O7 0.324209 0.900722 0.772694
O O8 0.175039 0.791268 0.345040
O O9 0.260793 0.500000 0.286579
O O10 0.388081 0.419026 0.225762
O O11 0.298283 0.399340 0.366364
O O12 0.000000 0.000000 0.159980
O O13 0.156994 0.165314 0.500000
O O14 0.000000 0.146992 0.608306
#
# Coordination Sequence:
#
# PCOD9487654 Si02
#       7
#     8   4  16   8  16   8  16
#     4  12  25  37  54  86 117 153 188 236 283 336
#     4  12  23  38  60  82 118 152 187 232 286 334
#     4  11  23  39  58  82 115 156 196 236 282 337
#     4  10  21  37  58  80 112 156 194 233 283 342
#     4  10  21  38  59  83 114 151 191 236 285 340
#     4  10  19  36  59  82 109 145 192 232 276 332
#     4  10  20  34  56  87 117 145 184 238 295 346
#
# _framework density 17.186356
#
# number of rings (size 3 to 8) (size 9 to 14) (size 15 to 20)
#    0.000    1.474    4.211    1.421    1.474    0.842 
#    0.000    1.579    0.000    6.947    0.000    5.895 
#    0.000    0.000    0.000    0.000    0.000    0.000 
#
# Total GULP energy -212133.456952 kJ/mol
# GULP energy per Si atom -5582.459393 kJ/mol
# Density = 1.714724 g / cm^3
# Si number density = 17.186356 Si / 1000 Ang^3
#
#
#
# Elastic Constant Matrix: (Units=GPa)
#
#
# Indices 1 2 3 4 5 6 
#
# 1 121.8391 19.4131 49.7964 0.0000 0.0000 0.0000
# 2 19.4131 42.2190 43.5143 0.0000 0.0000 0.0000
# 3 49.7964 43.5143 125.4045 0.0000 0.0000 0.0000
# 4 0.0000 0.0000 0.0000 91.7881 0.0000 0.0000
# 5 0.0000 0.0000 0.0000 0.0000 -15.7104 0.0000
# 6 0.0000 0.0000 0.0000 0.0000 0.0000 20.7660
#
#
#
# Elastic Compliance Matrix: (Units=1/GPa)
#
#
# Indices 1 2 3 4 5 6 
#
# 1 0.009814 -0.000772 -0.003629 0.000000 0.000000 0.000000
# 2 -0.000772 0.036934 -0.012509 0.000000 0.000000 0.000000
# 3 -0.003629 -0.012509 0.013756 0.000000 0.000000 0.000000
# 4 0.000000 0.000000 0.000000 0.010895 0.000000 0.000000
# 5 0.000000 0.000000 0.000000 0.000000 -0.063652 0.000000
# 6 0.000000 0.000000 0.000000 0.000000 0.000000 0.048156
#
#
# Mechanical properties :
#
#
# Convention : Reuss Voigt Hill
#
# Bulk Modulus (GPa) = 37.47720 57.21223 47.34471
# Shear Modulus (GPa) = 50.70132 31.15134 40.92633
#
# Velocity S-wave (km/s) = 5.43737 4.26204 4.88518
# Velocity P-wave (km/s) = 7.82775 7.58825 7.70893
#
# Compressibility (1/GPa) = 0.02668289
#
# Stress axis : x y z
#
# Youngs Moduli (GPa) = 101.89767 27.07523 72.69674
#
# Poissons Ratio (x) = 0.02091 0.26381
# Poissons Ratio (y) = 0.07869 0.90938
# Poissons Ratio (z) = 0.36978 0.33869
#
# Static dielectric constant tensor:
#      x y z
#    x 1.573570 0.000000 0.000000 
#    y 0.000000 1.567350 0.000000 
#    z 0.000000 0.000000 1.565140 
# 
# From -- ./inp_files/38360.got.cif
#   From: 2010.05.17/outbox.cif.g08.bks.cpg/sg65_20_cif.got.tgz:38360.got - 2010.06.03 17:01:31.
