data_PCOD9487484
_publ_section_title
;
Structure prediction by ZEFSAII (Michael W. Deem and Ramdas Pophale) SiO2 
 PCOD9487484
Probable space group: C M M M
;
_chemical_formula_sum "Si O2"
_cell_formula_units_Z 96
_cell_length_a 14.238609
_cell_length_b 13.784297
_cell_length_c 24.557612
_cell_angle_alpha 90.000000
_cell_angle_beta 90.000000
_cell_angle_gamma 90.000000
_cell_volume 4819.903237
_symmetry_space_group_name_H-M "C M M M"
_symmetry_group_IT_number 65
_symmetry_cell_setting 'orthorhombic'
loop_
_space_group_symop_operation_xyz
x,y,z
-x,-y,z
x,-y,-z
-x,y,-z
-x,-y,-z
x,y,-z
-x,y,z
x,-y,z
1/2+x,1/2+y,z
1/2-x,1/2-y,z
1/2+x,1/2-y,-z
1/2-x,1/2+y,-z
1/2-x,1/2-y,-z
1/2+x,1/2+y,-z
1/2-x,1/2+y,z
1/2+x,1/2-y,z
loop_
_atom_site_type_symbol
_atom_site_label
_atom_site_fract_x
_atom_site_fract_y
_atom_site_fract_z
Si Si1 0.706139 0.885342 0.328270
Si Si2 0.399509 0.884668 0.090003
Si Si3 0.107993 0.382482 0.560916
Si Si4 0.104758 0.204048 0.285934
Si Si5 0.358142 0.727335 0.833387
Si Si6 0.687966 0.616580 0.059594
O O1 0.677361 0.857658 0.390104
O O2 0.813416 0.858281 0.314282
O O3 0.639841 0.815516 0.292321
O O4 0.689986 0.000000 0.320224
O O5 0.500000 0.861284 0.062921
O O6 0.399662 0.829372 0.147344
O O7 0.299637 0.857416 0.063148
O O8 0.395929 0.000000 0.096111
O O9 0.133305 0.348395 0.500000
O O10 0.106606 0.500000 0.559167
O O11 0.000000 0.352005 0.572599
O O12 0.102957 0.182579 0.221459
O O13 0.000000 0.191315 0.308302
O O14 0.250000 0.750000 0.821583
O O15 0.361830 0.661773 0.887812
O O16 0.681882 0.500000 0.062682
O O17 0.652025 0.646599 0.000000
#
# Coordination Sequence:
#
# PCOD9487484 Si02
#       6
#    16  16  16  16  16  16
#     4  10  21  38  60  88 120 159 198 242 295 342
#     4   9  18  31  50  78 106 132 168 216 271 335
#     4   8  14  28  55  90 123 156 198 244 289 341
#     4  11  23  39  57  85 119 155 202 249 291 348
#     4  10  19  35  54  77 106 146 183 229 284 337
#     4   9  19  35  56  79 101 133 178 225 278 344
#
# _framework density 19.917413
#
# number of rings (size 3 to 8) (size 9 to 14) (size 15 to 20)
#    0.000    2.500    1.667    1.500    0.000    6.000 
#    0.000    3.333    0.000    4.500    0.000    7.000 
#    0.000    0.000    0.000    0.000    0.000    0.000 
#
# Total GULP energy -267462.248575 kJ/mol
# GULP energy per Si atom -5572.130179 kJ/mol
# Density = 1.987208 g / cm^3
# Si number density = 19.917413 Si / 1000 Ang^3
#
#
#
# Elastic Constant Matrix: (Units=GPa)
#
#
# Indices 1 2 3 4 5 6 
#
# 1 93.8191 7.1152 49.8270 0.0000 0.0000 0.0000
# 2 7.1152 46.7849 27.0106 0.0000 0.0000 0.0000
# 3 49.8270 27.0106 146.1890 0.0000 0.0000 0.0000
# 4 0.0000 0.0000 0.0000 22.1515 0.0000 0.0000
# 5 0.0000 0.0000 0.0000 0.0000 42.1560 0.0000
# 6 0.0000 0.0000 0.0000 0.0000 0.0000 6.4921
#
#
#
# Elastic Compliance Matrix: (Units=1/GPa)
#
#
# Indices 1 2 3 4 5 6 
#
# 1 0.013032 0.000652 -0.004562 0.000000 0.000000 0.000000
# 2 0.000652 0.023959 -0.004649 0.000000 0.000000 0.000000
# 3 -0.004562 -0.004649 0.009255 0.000000 0.000000 0.000000
# 4 0.000000 0.000000 0.000000 0.045144 0.000000 0.000000
# 5 0.000000 0.000000 0.000000 0.000000 0.023721 0.000000
# 6 0.000000 0.000000 0.000000 0.000000 0.000000 0.154032
#
#
# Mechanical properties :
#
#
# Convention : Reuss Voigt Hill
#
# Bulk Modulus (GPa) = 34.33201 50.52206 42.42703
# Shear Modulus (GPa) = 16.89350 27.68260 22.28805
#
# Velocity S-wave (km/s) = 2.91551 3.73214 3.34881
# Velocity P-wave (km/s) = 5.34866 6.63270 6.02498
#
# Compressibility (1/GPa) = 0.02912734
#
# Stress axis : x y z
#
# Youngs Moduli (GPa) = 76.73147 41.73736 108.05535
#
# Poissons Ratio (x) = -0.02721 0.49300
# Poissons Ratio (y) = -0.05003 0.50236
# Poissons Ratio (z) = 0.35008 0.19404
#
# Static dielectric constant tensor:
#      x y z
#    x 1.754960 0.000000 0.000000 
#    y 0.000000 1.712820 0.000000 
#    z 0.000000 0.000000 1.729210 
# 
# From -- ./inp_files/62582.got.cif
#   From: 2010.05.17/outbox.cif.g08.bks.cpg/sg65_32_cif.got.tgz:62582.got - 2010.06.03 17:01:31.
