data_PCOD9487553
_publ_section_title
;
Structure prediction by ZEFSAII (Michael W. Deem and Ramdas Pophale) SiO2 
 PCOD9487553
Probable space group: C M M M
;
_chemical_formula_sum "Si O2"
_cell_formula_units_Z 88
_cell_length_a 18.190797
_cell_length_b 13.939910
_cell_length_c 18.799049
_cell_angle_alpha 90.000000
_cell_angle_beta 90.000000
_cell_angle_gamma 90.000000
_cell_volume 4767.026620
_symmetry_space_group_name_H-M "C M M M"
_symmetry_group_IT_number 65
_symmetry_cell_setting 'orthorhombic'
loop_
_space_group_symop_operation_xyz
x,y,z
-x,-y,z
x,-y,-z
-x,y,-z
-x,-y,-z
x,y,-z
-x,y,z
x,-y,z
1/2+x,1/2+y,z
1/2-x,1/2-y,z
1/2+x,1/2-y,-z
1/2-x,1/2+y,-z
1/2-x,1/2-y,-z
1/2+x,1/2+y,-z
1/2-x,1/2+y,z
1/2+x,1/2-y,z
loop_
_atom_site_type_symbol
_atom_site_label
_atom_site_fract_x
_atom_site_fract_y
_atom_site_fract_z
Si Si1 0.729886 0.387970 0.360888
Si Si2 0.500000 0.613252 0.914957
Si Si3 0.116206 0.612394 0.579859
Si Si4 0.780958 0.387419 0.799146
Si Si5 0.580521 0.291533 0.336236
Si Si6 0.370780 0.295285 0.173198
O O1 0.712817 0.500000 0.356762
O O2 0.795488 0.373262 0.415886
O O3 0.766582 0.362634 0.284349
O O4 0.653065 0.335786 0.372491
O O5 0.500000 0.500000 0.893436
O O6 0.429696 0.668027 0.882803
O O7 0.500000 0.616847 0.000000
O O8 0.090663 0.634437 0.500000
O O9 0.102649 0.500000 0.594491
O O10 0.081533 0.681637 0.637998
O O11 0.798310 0.500000 0.805216
O O12 0.701908 0.361342 0.832351
O O13 0.841076 0.314218 0.830071
O O14 0.500000 0.332437 0.354162
O O15 0.594610 0.304403 0.252245
#
# Coordination Sequence:
#
# PCOD9487553 Si02
#       6
#    16   8  16  16  16  16
#     4   9  18  33  53  78 108 143 189 239 286 339
#     4  11  24  42  63  89 124 159 187 221 277 350
#     4  10  21  37  56  77 106 149 199 245 289 342
#     4   9  17  32  57  86 115 149 193 247 290 325
#     4  11  21  33  51  80 115 144 185 236 288 339
#     4  10  19  35  58  86 117 150 196 241 279 340
#
# _framework density 18.460144
#
# number of rings (size 3 to 8) (size 9 to 14) (size 15 to 20)
#    0.000    2.091    2.727    1.091    0.000    3.273 
#    0.000    3.182    0.000    2.182    0.000    3.818 
#    0.000    0.000    0.000    0.000    0.000    0.000 
#
# Total GULP energy -245356.593240 kJ/mol
# GULP energy per Si atom -5576.286210 kJ/mol
# Density = 1.841813 g / cm^3
# Si number density = 18.460144 Si / 1000 Ang^3
#
#
#
# Elastic Constant Matrix: (Units=GPa)
#
#
# Indices 1 2 3 4 5 6 
#
# 1 102.5628 42.2469 22.4789 0.0000 0.0000 0.0000
# 2 42.2469 102.2287 22.3340 0.0000 0.0000 0.0000
# 3 22.4789 22.3340 48.2159 0.0000 0.0000 0.0000
# 4 0.0000 0.0000 0.0000 20.5174 0.0000 0.0000
# 5 0.0000 0.0000 0.0000 0.0000 26.8768 0.0000
# 6 0.0000 0.0000 0.0000 0.0000 0.0000 13.0012
#
#
#
# Elastic Compliance Matrix: (Units=1/GPa)
#
#
# Indices 1 2 3 4 5 6 
#
# 1 0.012338 -0.004275 -0.003772 0.000000 0.000000 0.000000
# 2 -0.004275 0.012364 -0.003734 0.000000 0.000000 0.000000
# 3 -0.003772 -0.003734 0.024228 0.000000 0.000000 0.000000
# 4 0.000000 0.000000 0.000000 0.048739 0.000000 0.000000
# 5 0.000000 0.000000 0.000000 0.000000 0.037207 0.000000
# 6 0.000000 0.000000 0.000000 0.000000 0.000000 0.076916
#
#
# Mechanical properties :
#
#
# Convention : Reuss Voigt Hill
#
# Bulk Modulus (GPa) = 39.41896 47.45855 43.43876
# Shear Modulus (GPa) = 20.50779 23.14228 21.82503
#
# Velocity S-wave (km/s) = 3.33667 3.54451 3.44216
# Velocity P-wave (km/s) = 6.02033 6.52042 6.27536
#
# Compressibility (1/GPa) = 0.02536850
#
# Stress axis : x y z
#
# Youngs Moduli (GPa) = 81.05326 80.87772 41.27393
#
# Poissons Ratio (x) = 0.34572 0.15568
# Poissons Ratio (y) = 0.34647 0.15413
# Poissons Ratio (z) = 0.30573 0.30203
#
# Static dielectric constant tensor:
#      x y z
#    x 1.672480 0.000000 0.000000 
#    y 0.000000 1.654990 0.000000 
#    z 0.000000 0.000000 1.619510 
# 
# From -- ./inp_files/54339.got.cif
#   From: 2010.05.17/outbox.cif.g08.bks.cpg/sg65_28_cif.got.tgz:54339.got - 2010.06.03 17:01:31.
