data_PCOD9487872
_publ_section_title
;
Structure prediction by ZEFSAII (Michael W. Deem and Ramdas Pophale) SiO2 
 PCOD9487872
Probable space group: C M M M
;
_chemical_formula_sum "Si O2"
_cell_formula_units_Z 116
_cell_length_a 14.667649
_cell_length_b 23.992299
_cell_length_c 18.838456
_cell_angle_alpha 90.000000
_cell_angle_beta 90.000000
_cell_angle_gamma 90.000000
_cell_volume 6629.452739
_symmetry_space_group_name_H-M "C M M M"
_symmetry_group_IT_number 65
_symmetry_cell_setting 'orthorhombic'
loop_
_space_group_symop_operation_xyz
x,y,z
-x,-y,z
x,-y,-z
-x,y,-z
-x,-y,-z
x,y,-z
-x,y,z
x,-y,z
1/2+x,1/2+y,z
1/2-x,1/2-y,z
1/2+x,1/2-y,-z
1/2-x,1/2+y,-z
1/2-x,1/2-y,-z
1/2+x,1/2+y,-z
1/2-x,1/2+y,z
1/2+x,1/2-y,z
loop_
_atom_site_type_symbol
_atom_site_label
_atom_site_fract_x
_atom_site_fract_y
_atom_site_fract_z
Si Si1 0.390815 0.285739 0.577732
Si Si2 0.603606 0.360558 0.805092
Si Si3 0.144200 0.251373 0.727071
Si Si4 0.829228 0.086259 0.581565
Si Si5 0.247108 0.817376 0.916808
Si Si6 0.896653 0.360596 0.189294
Si Si7 0.500000 0.500000 0.598211
Si Si8 0.252668 0.065070 0.728992
O O1 0.363218 0.264834 0.500000
O O2 0.500000 0.289619 0.579631
O O3 0.361469 0.247385 0.642545
O O4 0.353421 0.348313 0.586945
O O5 0.500000 0.377985 0.819376
O O6 0.602556 0.306213 0.754599
O O7 0.659811 0.341202 0.874442
O O8 0.663317 0.406730 0.764624
O O9 0.250000 0.250000 0.747779
O O10 0.101146 0.304196 0.764312
O O11 0.799919 0.075297 0.500000
O O12 0.919271 0.048588 0.594753
O O13 0.758400 0.073435 0.644420
O O14 0.250000 0.750000 0.909953
O O15 0.335615 0.844232 0.879028
O O16 0.243493 0.830585 0.000000
O O17 0.838940 0.404348 0.235899
O O18 0.000000 0.377915 0.172927
O O19 0.254699 0.000000 0.744646
#
# Coordination Sequence:
#
# PCOD9487872 Si02
#       8
#    16  16  16  16  16  16   4  16
#     4  10  20  31  46  73 108 147 191 234 281 339
#     4  11  21  35  57  86 119 153 181 218 279 349
#     4  12  19  35  56  79 113 149 189 231 283 341
#     4  11  20  31  49  78 116 152 191 239 294 348
#     4  10  20  36  58  92 128 150 178 220 274 347
#     4  11  22  40  62  84 112 152 194 238 287 332
#     4  12  21  28  48  80 118 162 197 236 299 364
#     4  11  24  38  56  83 113 151 199 247 288 333
#
# _framework density 17.497674
#
# number of rings (size 3 to 8) (size 9 to 14) (size 15 to 20)
#    0.000    1.103    6.897    1.862    0.966    1.379 
#    0.000    2.069    0.000    7.862    0.000    8.690 
#    0.000    0.000    0.000    0.000    0.000    0.000 
#
# Total GULP energy -323263.786013 kJ/mol
# GULP energy per Si atom -5573.513552 kJ/mol
# Density = 1.745785 g / cm^3
# Si number density = 17.497674 Si / 1000 Ang^3
#
#
#
# Elastic Constant Matrix: (Units=GPa)
#
#
# Indices 1 2 3 4 5 6 
#
# 1 126.9852 20.2082 39.2617 0.0000 0.0000 0.0000
# 2 20.2082 52.5229 27.1264 0.0000 0.0000 0.0000
# 3 39.2617 27.1264 137.1258 0.0000 0.0000 0.0000
# 4 0.0000 0.0000 0.0000 1.6479 0.0000 0.0000
# 5 0.0000 0.0000 0.0000 0.0000 3.4223 0.0000
# 6 0.0000 0.0000 0.0000 0.0000 0.0000 -2.6641
#
#
#
# Elastic Compliance Matrix: (Units=1/GPa)
#
#
# Indices 1 2 3 4 5 6 
#
# 1 0.008892 -0.002346 -0.002082 0.000000 0.000000 0.000000
# 2 -0.002346 0.021825 -0.003646 0.000000 0.000000 0.000000
# 3 -0.002082 -0.003646 0.008610 0.000000 0.000000 0.000000
# 4 0.000000 0.000000 0.000000 0.606840 0.000000 0.000000
# 5 0.000000 0.000000 0.000000 0.000000 0.292200 0.000000
# 6 0.000000 0.000000 0.000000 0.000000 0.000000 -0.375360
#
#
# Mechanical properties :
#
#
# Convention : Reuss Voigt Hill
#
# Bulk Modulus (GPa) = 43.14152 54.42518 48.78335
# Shear Modulus (GPa) = 8.51962 15.81705 12.16834
#
# Velocity S-wave (km/s) = 2.20898 3.00984 2.63995
# Velocity P-wave (km/s) = 5.58706 6.57652 6.10188
#
# Compressibility (1/GPa) = 0.02317953
#
# Stress axis : x y z
#
# Youngs Moduli (GPa) = 112.46139 45.81941 116.14603
#
# Poissons Ratio (x) = 0.10749 0.24180
# Poissons Ratio (y) = 0.26383 0.42344
# Poissons Ratio (z) = 0.23413 0.16704
#
# Static dielectric constant tensor:
#      x y z
#    x 1.609960 0.000000 0.000000 
#    y 0.000000 1.580100 0.000000 
#    z 0.000000 0.000000 1.620740 
# 
# From -- ./inp_files/53554.got.cif
#   From: 2010.05.17/outbox.cif.g08.bks.cpg/sg65_27_cif.got.tgz:53554.got - 2010.06.03 17:01:31.
