data_PCOD9487367
_publ_section_title
;
Structure prediction by ZEFSAII (Michael W. Deem and Ramdas Pophale) SiO2 
 PCOD9487367
Probable space group: C M M M
;
_chemical_formula_sum "Si O2"
_cell_formula_units_Z 80
_cell_length_a 23.721769
_cell_length_b 8.650346
_cell_length_c 21.358627
_cell_angle_alpha 90.000000
_cell_angle_beta 90.000000
_cell_angle_gamma 90.000000
_cell_volume 4382.822503
_symmetry_space_group_name_H-M "C M M M"
_symmetry_group_IT_number 65
_symmetry_cell_setting 'orthorhombic'
loop_
_space_group_symop_operation_xyz
x,y,z
-x,-y,z
x,-y,-z
-x,y,-z
-x,-y,-z
x,y,-z
-x,y,z
x,-y,z
1/2+x,1/2+y,z
1/2-x,1/2-y,z
1/2+x,1/2-y,-z
1/2-x,1/2+y,-z
1/2-x,1/2-y,-z
1/2+x,1/2+y,-z
1/2-x,1/2+y,z
1/2+x,1/2-y,z
loop_
_atom_site_type_symbol
_atom_site_label
_atom_site_fract_x
_atom_site_fract_y
_atom_site_fract_z
Si Si1 0.124838 0.812043 0.379582
Si Si2 0.186278 0.814489 0.750838
Si Si3 0.000000 0.825407 0.620378
Si Si4 0.000000 0.815193 0.927040
Si Si5 0.097006 0.324018 0.841126
Si Si6 0.812132 0.315417 0.500000
Si Si7 0.000000 0.333117 0.261053
O O1 0.152191 0.765847 0.312712
O O2 0.160004 0.749859 0.437219
O O3 0.060900 0.754717 0.392739
O O4 0.123176 0.000000 0.379525
O O5 0.250000 0.750000 0.749232
O O6 0.151782 0.758978 0.812301
O O7 0.188339 0.000000 0.750691
O O8 0.000000 0.815895 0.695716
O O9 0.000000 0.000000 0.595716
O O10 0.057145 0.753016 0.893812
O O11 0.000000 0.000000 0.921025
O O12 0.000000 0.772107 0.000000
O O13 0.110838 0.500000 0.859564
O O14 0.054082 0.329892 0.782659
O O15 0.750000 0.250000 0.500000
O O16 0.686447 0.000000 0.500000
O O17 0.000000 0.500000 0.295488
#
# Coordination Sequence:
#
# PCOD9487367 Si02
#       7
#    16  16   8   8  16   8   8
#     4  10  22  39  60  85 113 147 188 235 289 348
#     4  11  22  36  57  84 116 153 195 243 291 346
#     4  10  19  34  57  83 110 141 176 220 279 339
#     4  10  21  37  60  90 123 159 197 236 281 338
#     4  10  20  34  55  85 119 154 191 235 286 335
#     4  12  26  43  62  79 105 146 192 242 291 348
#     4   9  17  29  49  79 112 143 173 217 271 324
#
# _framework density 18.253077000000001
#
# number of rings (size 3 to 8) (size 9 to 14) (size 15 to 20)
#    0.000    1.700    2.000    3.600    0.000    6.800 
#    0.000    2.000    0.000    0.600    0.000    0.000 
#    0.000    0.000    0.000    0.000    0.000    0.000 
#
# Total GULP energy -222892.558197 kJ/mol
# GULP energy per Si atom -5572.313955 kJ/mol
# Density = 1.821153 g / cm^3
# Si number density = 18.253077 Si / 1000 Ang^3
#
#
#
# Elastic Constant Matrix: (Units=GPa)
#
#
# Indices 1 2 3 4 5 6 
#
# 1 175.6356 41.5756 67.6937 0.0000 0.0000 0.0000
# 2 41.5756 49.1509 37.2264 0.0000 0.0000 0.0000
# 3 67.6937 37.2264 108.3081 0.0000 0.0000 0.0000
# 4 0.0000 0.0000 0.0000 20.8077 0.0000 0.0000
# 5 0.0000 0.0000 0.0000 0.0000 -11.2898 0.0000
# 6 0.0000 0.0000 0.0000 0.0000 0.0000 17.7289
#
#
#
# Elastic Compliance Matrix: (Units=1/GPa)
#
#
# Indices 1 2 3 4 5 6 
#
# 1 0.008058 -0.004058 -0.003641 0.000000 0.000000 0.000000
# 2 -0.004058 0.029549 -0.007620 0.000000 0.000000 0.000000
# 3 -0.003641 -0.007620 0.014128 0.000000 0.000000 0.000000
# 4 0.000000 0.000000 0.000000 0.048059 0.000000 0.000000
# 5 0.000000 0.000000 0.000000 0.000000 -0.088576 0.000000
# 6 0.000000 0.000000 0.000000 0.000000 0.000000 0.056405
#
#
# Mechanical properties :
#
#
# Convention : Reuss Voigt Hill
#
# Bulk Modulus (GPa) = 47.40200 69.56511 58.48355
# Shear Modulus (GPa) = 47.48601 17.88929 32.68765
#
# Velocity S-wave (km/s) = 5.10606 3.13400 4.23638
# Velocity P-wave (km/s) = 7.79667 7.16171 7.48593
#
# Compressibility (1/GPa) = 0.02109616
#
# Stress axis : x y z
#
# Youngs Moduli (GPa) = 124.10612 33.84164 70.78155
#
# Poissons Ratio (x) = 0.13732 0.25774
# Poissons Ratio (y) = 0.50360 0.53937
# Poissons Ratio (z) = 0.45192 0.25788
#
# Static dielectric constant tensor:
#      x y z
#    x 1.707510 0.000000 0.000000 
#    y 0.000000 1.673730 0.000000 
#    z 0.000000 0.000000 1.610490 
# 
# From -- ./inp_files/65126.got.cif
#   From: 2010.05.17/outbox.cif.g08.bks.cpg/sg65_33_cif.got.tgz:65126.got - 2010.06.03 17:01:31.
