data_PCOD9487631
_publ_section_title
;
Structure prediction by ZEFSAII (Michael W. Deem and Ramdas Pophale) SiO2 
 PCOD9487631
Probable space group: C M M M
;
_chemical_formula_sum "Si O2"
_cell_formula_units_Z 120
_cell_length_a 15.419498
_cell_length_b 17.641873
_cell_length_c 23.381235
_cell_angle_alpha 90.000000
_cell_angle_beta 90.000000
_cell_angle_gamma 90.000000
_cell_volume 6360.369894
_symmetry_space_group_name_H-M "C M M M"
_symmetry_group_IT_number 65
_symmetry_cell_setting 'orthorhombic'
loop_
_space_group_symop_operation_xyz
x,y,z
-x,-y,z
x,-y,-z
-x,y,-z
-x,-y,-z
x,y,-z
-x,y,z
x,-y,z
1/2+x,1/2+y,z
1/2-x,1/2-y,z
1/2+x,1/2-y,-z
1/2-x,1/2+y,-z
1/2-x,1/2-y,-z
1/2+x,1/2+y,-z
1/2-x,1/2+y,z
1/2+x,1/2-y,z
loop_
_atom_site_type_symbol
_atom_site_label
_atom_site_fract_x
_atom_site_fract_y
_atom_site_fract_z
Si Si1 0.397415 0.186632 0.433697
Si Si2 0.144785 0.170219 0.363218
Si Si3 0.646883 0.228737 0.738471
Si Si4 0.406169 0.628781 0.068687
Si Si5 0.851385 0.274736 0.868478
Si Si6 0.712241 0.913468 0.067137
Si Si7 0.500000 0.589851 0.434958
Si Si8 0.827015 0.410484 0.660780
O O1 0.374079 0.179251 0.500000
O O2 0.500000 0.204541 0.429627
O O3 0.346201 0.254911 0.402905
O O4 0.377905 0.111692 0.397062
O O5 0.109485 0.207459 0.304231
O O6 0.081313 0.118078 0.399054
O O7 0.229960 0.121633 0.349710
O O8 0.750000 0.250000 0.738853
O O9 0.616136 0.228888 0.803493
O O10 0.636546 0.145807 0.710046
O O11 0.500000 0.596538 0.087582
O O12 0.399226 0.714124 0.092063
O O13 0.314183 0.591517 0.085693
O O14 0.406459 0.627260 0.000000
O O15 0.750000 0.250000 0.867883
O O16 0.846460 0.357540 0.895941
O O17 0.684549 0.000000 0.071722
O O18 0.709411 0.890412 0.000000
O O19 0.500000 0.500000 0.438483
O O20 0.500000 0.620970 0.500000
O O21 0.829079 0.500000 0.672911
#
# Coordination Sequence:
#
# PCOD9487631 Si02
#       8
#    16  16  16  16  16  16   8  16
#     4  10  20  35  55  75  98 133 172 207 247 300
#     4  10  19  36  55  76 104 135 172 211 255 313
#     4   8  17  33  53  73  93 131 177 215 258 306
#     4   9  17  29  46  71 104 138 170 213 263 308
#     4   9  16  30  50  73  94 127 178 222 251 294
#     4   9  17  28  46  74 105 137 171 211 263 316
#     4  11  22  34  54  84 113 141 172 211 261 313
#     4  10  21  35  52  76 105 133 165 210 262 312
#
# _framework density 18.866827000000001
#
# number of rings (size 3 to 8) (size 9 to 14) (size 15 to 20)
#    0.000    2.600    0.667    2.400    0.000    4.533 
#    1.200    2.000    0.000    1.200    0.000    1.867 
#    0.000    0.000    0.000    0.000    0.000    0.000 
#
# Total GULP energy -334284.298556 kJ/mol
# GULP energy per Si atom -5571.404976 kJ/mol
# Density = 1.882389 g / cm^3
# Si number density = 18.866827 Si / 1000 Ang^3
#
#
#
# Elastic Constant Matrix: (Units=GPa)
#
#
# Indices 1 2 3 4 5 6 
#
# 1 28.0181 2.1562 0.3382 0.0000 0.0000 0.0000
# 2 2.1562 94.2542 13.9272 0.0000 0.0000 0.0000
# 3 0.3382 13.9272 26.7140 0.0000 0.0000 0.0000
# 4 0.0000 0.0000 0.0000 12.8307 0.0000 0.0000
# 5 0.0000 0.0000 0.0000 0.0000 -18.6861 0.0000
# 6 0.0000 0.0000 0.0000 0.0000 0.0000 15.4978
#
#
#
# Elastic Compliance Matrix: (Units=1/GPa)
#
#
# Indices 1 2 3 4 5 6 
#
# 1 0.035754 -0.000814 -0.000028 0.000000 0.000000 0.000000
# 2 -0.000814 0.011514 -0.005992 0.000000 0.000000 0.000000
# 3 -0.000028 -0.005992 0.040558 0.000000 0.000000 0.000000
# 4 0.000000 0.000000 0.000000 0.077938 0.000000 0.000000
# 5 0.000000 0.000000 0.000000 0.000000 -0.053516 0.000000
# 6 0.000000 0.000000 0.000000 0.000000 0.000000 0.064525
#
#
# Mechanical properties :
#
#
# Convention : Reuss Voigt Hill
#
# Bulk Modulus (GPa) = 13.48494 20.20328 16.84411
# Shear Modulus (GPa) = 23.23839 10.76614 17.00226
#
# Velocity S-wave (km/s) = 3.51337 2.39140 3.00521
# Velocity P-wave (km/s) = 4.86018 4.28446 4.58137
#
# Compressibility (1/GPa) = 0.07415682
#
# Stress axis : x y z
#
# Youngs Moduli (GPa) = 27.96881 86.85348 24.65606
#
# Poissons Ratio (x) = 0.07067 0.00070
# Poissons Ratio (y) = 0.02276 0.14775
# Poissons Ratio (z) = 0.00080 0.52045
#
# Static dielectric constant tensor:
#      x y z
#    x 1.606990 0.000000 0.000000 
#    y 0.000000 1.647720 0.000000 
#    z 0.000000 0.000000 1.654470 
# 
# From -- ./inp_files/64017.got.cif
#   From: 2010.05.17/outbox.cif.g08.bks.cpg/sg65_33_cif.got.tgz:64017.got - 2010.06.03 17:01:31.
