data_PCOD9487728
_publ_section_title
;
Structure prediction by ZEFSAII (Michael W. Deem and Ramdas Pophale) SiO2 
 PCOD9487728
Probable space group: C M M M
;
_chemical_formula_sum "Si O2"
_cell_formula_units_Z 88
_cell_length_a 30.252773
_cell_length_b 9.068600
_cell_length_c 19.091501
_cell_angle_alpha 90.000000
_cell_angle_beta 90.000000
_cell_angle_gamma 90.000000
_cell_volume 5237.758974
_symmetry_space_group_name_H-M "C M M M"
_symmetry_group_IT_number 65
_symmetry_cell_setting 'orthorhombic'
loop_
_space_group_symop_operation_xyz
x,y,z
-x,-y,z
x,-y,-z
-x,y,-z
-x,-y,-z
x,y,-z
-x,y,z
x,-y,z
1/2+x,1/2+y,z
1/2-x,1/2-y,z
1/2+x,1/2-y,-z
1/2-x,1/2+y,-z
1/2-x,1/2-y,-z
1/2+x,1/2+y,-z
1/2-x,1/2+y,z
1/2+x,1/2-y,z
loop_
_atom_site_type_symbol
_atom_site_label
_atom_site_fract_x
_atom_site_fract_y
_atom_site_fract_z
Si Si1 0.618195 0.670032 0.755351
Si Si2 0.203313 0.820925 0.843610
Si Si3 0.952545 0.837942 0.123247
Si Si4 0.827140 0.176485 0.000000
Si Si5 0.079884 0.667602 0.000000
Si Si6 0.552158 0.177101 0.353362
Si Si7 0.553160 0.667749 0.500000
O O1 0.623135 0.500000 0.730363
O O2 0.665100 0.722175 0.787629
O O3 0.587031 0.667346 0.823350
O O4 0.589228 0.761898 0.700000
O O5 0.250000 0.750000 0.824519
O O6 0.204950 0.000000 0.843311
O O7 0.192741 0.774390 0.924700
O O8 0.000000 0.827759 0.159919
O O9 0.950911 0.000000 0.088185
O O10 0.947792 0.710107 0.067677
O O11 0.877400 0.229089 0.000000
O O12 0.824808 0.000000 0.000000
O O13 0.094025 0.500000 0.000000
O O14 0.500000 0.218196 0.337585
O O15 0.563881 0.244731 0.429224
O O16 0.553531 0.000000 0.354853
O O17 0.570725 0.500000 0.500000
O O18 0.500000 0.657764 0.500000
#
# Coordination Sequence:
#
# PCOD9487728 Si02
#       7
#    16  16  16   8   8  16   8
#     4  10  20  35  54  75 100 135 176 213 252 309
#     4  10  21  36  57  78 100 129 168 220 273 323
#     4  10  20  35  53  68  91 132 175 211 251 306
#     4  10  19  38  58  71  94 130 172 217 267 326
#     4  12  23  32  47  70  97 127 164 215 263 306
#     4  10  20  33  51  79 115 148 175 212 259 298
#     4   9  17  31  53  79 108 145 186 217 241 289
#
# _framework density 16.801079000000001
#
# number of rings (size 3 to 8) (size 9 to 14) (size 15 to 20)
#    0.000    1.909    1.818    2.727    0.000    6.545 
#    0.000    0.000    0.000    0.000    0.000    0.636 
#    0.000    0.000    0.000    0.000    0.000    0.000 
#
# Total GULP energy -245107.795791 kJ/mol
# GULP energy per Si atom -5570.631723 kJ/mol
# Density = 1.676284 g / cm^3
# Si number density = 16.801079 Si / 1000 Ang^3
#
#
#
# Elastic Constant Matrix: (Units=GPa)
#
#
# Indices 1 2 3 4 5 6 
#
# 1 131.2544 26.3893 49.7828 0.0000 0.0000 0.0000
# 2 26.3893 37.2072 42.3213 0.0000 0.0000 0.0000
# 3 49.7828 42.3213 96.7313 0.0000 0.0000 0.0000
# 4 0.0000 0.0000 0.0000 -38.7464 0.0000 0.0000
# 5 0.0000 0.0000 0.0000 0.0000 22.7434 0.0000
# 6 0.0000 0.0000 0.0000 0.0000 0.0000 24.4955
#
#
#
# Elastic Compliance Matrix: (Units=1/GPa)
#
#
# Indices 1 2 3 4 5 6 
#
# 1 0.009570 -0.002360 -0.003893 0.000000 0.000000 0.000000
# 2 -0.002360 0.054083 -0.022448 0.000000 0.000000 0.000000
# 3 -0.003893 -0.022448 0.022163 0.000000 0.000000 0.000000
# 4 0.000000 0.000000 0.000000 -0.025809 0.000000 0.000000
# 5 0.000000 0.000000 0.000000 0.000000 0.043969 0.000000
# 6 0.000000 0.000000 0.000000 0.000000 0.000000 0.040824
#
#
# Mechanical properties :
#
#
# Convention : Reuss Voigt Hill
#
# Bulk Modulus (GPa) = 35.19228 55.79773 45.49500
# Shear Modulus (GPa) = 23.62152 11.47845 17.54999
#
# Velocity S-wave (km/s) = 3.75367 2.61664 3.23549
# Velocity P-wave (km/s) = 6.30703 6.51245 6.41056
#
# Compressibility (1/GPa) = 0.02841533
#
# Stress axis : x y z
#
# Youngs Moduli (GPa) = 104.49728 18.48996 45.12123
#
# Poissons Ratio (x) = 0.04363 0.17564
# Poissons Ratio (y) = 0.24657 1.01288
# Poissons Ratio (z) = 0.40677 0.41506
#
# Static dielectric constant tensor:
#      x y z
#    x 1.562940 0.000000 0.000000 
#    y 0.000000 1.584700 0.000000 
#    z 0.000000 0.000000 1.574700 
# 
# From -- ./inp_files/58047.got.cif
#   From: 2010.05.17/outbox.cif.g08.bks.cpg/sg65_30_cif.got.tgz:58047.got - 2010.06.03 17:01:31.
