data_PCOD9487683
_publ_section_title
;
Structure prediction by ZEFSAII (Michael W. Deem and Ramdas Pophale) SiO2 
 PCOD9487683
Probable space group: C M M M
;
_chemical_formula_sum "Si O2"
_cell_formula_units_Z 66
_cell_length_a 7.550314
_cell_length_b 14.823786
_cell_length_c 27.863515
_cell_angle_alpha 90.000000
_cell_angle_beta 90.000000
_cell_angle_gamma 90.000000
_cell_volume 3118.602711
_symmetry_space_group_name_H-M "C M M M"
_symmetry_group_IT_number 65
_symmetry_cell_setting 'orthorhombic'
loop_
_space_group_symop_operation_xyz
x,y,z
-x,-y,z
x,-y,-z
-x,y,-z
-x,-y,-z
x,y,-z
-x,y,z
x,-y,z
1/2+x,1/2+y,z
1/2-x,1/2-y,z
1/2+x,1/2-y,-z
1/2-x,1/2+y,-z
1/2-x,1/2-y,-z
1/2+x,1/2+y,-z
1/2-x,1/2+y,z
1/2+x,1/2-y,z
loop_
_atom_site_type_symbol
_atom_site_label
_atom_site_fract_x
_atom_site_fract_y
_atom_site_fract_z
Si Si1 0.787590 0.144105 0.130996
Si Si2 0.217019 0.000000 0.945203
Si Si3 0.288230 0.643420 0.340179
Si Si4 0.194218 0.500000 0.581265
Si Si5 0.000000 0.000000 0.500000
Si Si6 0.212049 0.142782 0.764673
O O1 0.750000 0.250000 0.125753
O O2 0.720321 0.111387 0.183396
O O3 0.000000 0.133684 0.132668
O O4 0.724772 0.085999 0.086124
O O5 0.000000 0.000000 0.946575
O O6 0.277759 0.000000 0.000000
O O7 0.500000 0.631129 0.340867
O O8 0.250000 0.750000 0.344859
O O9 0.212281 0.585915 0.383460
O O10 0.222064 0.611778 0.287386
O O11 0.346097 0.500000 0.542034
O O12 0.000000 0.500000 0.559252
O O13 0.250000 0.250000 0.764948
O O14 0.000000 0.128231 0.764375
#
# Coordination Sequence:
#
# PCOD9487683 Si02
#       6
#    16   8  16   8   2  16
#     4   9  17  31  50  73 102 139 181 225 283 345
#     4   9  18  31  47  68  96 136 188 241 283 336
#     4  10  19  36  61  92 126 157 195 242 298 367
#     4  12  25  44  70  93 124 165 205 256 308 351
#     4  12  26  52  68  90 128 162 214 264 302 342
#     4   8  15  27  49  79 112 145 177 223 281 346
#
# _framework density 21.163325
#
# number of rings (size 3 to 8) (size 9 to 14) (size 15 to 20)
#    0.000    2.545    1.212    0.909    0.000    2.424 
#    0.000    4.848    0.000    0.727    0.000    0.000 
#    0.000    0.000    0.000    0.000    0.000    0.000 
#
# Total GULP energy -183871.255128 kJ/mol
# GULP energy per Si atom -5571.856216 kJ/mol
# Density = 2.111516 g / cm^3
# Si number density = 21.163325 Si / 1000 Ang^3
#
#
#
# Elastic Constant Matrix: (Units=GPa)
#
#
# Indices 1 2 3 4 5 6 
#
# 1 101.3018 7.0804 46.8250 0.0000 0.0000 0.0000
# 2 7.0804 98.5851 75.3017 0.0000 0.0000 0.0000
# 3 46.8250 75.3017 236.7915 0.0000 0.0000 0.0000
# 4 0.0000 0.0000 0.0000 -9.0722 0.0000 0.0000
# 5 0.0000 0.0000 0.0000 0.0000 5.1203 0.0000
# 6 0.0000 0.0000 0.0000 0.0000 0.0000 7.9099
#
#
#
# Elastic Compliance Matrix: (Units=1/GPa)
#
#
# Indices 1 2 3 4 5 6 
#
# 1 0.010962 0.001147 -0.002532 0.000000 0.000000 0.000000
# 2 0.001147 0.013518 -0.004526 0.000000 0.000000 0.000000
# 3 -0.002532 -0.004526 0.006163 0.000000 0.000000 0.000000
# 4 0.000000 0.000000 0.000000 -0.110226 0.000000 0.000000
# 5 0.000000 0.000000 0.000000 0.000000 0.195302 0.000000
# 6 0.000000 0.000000 0.000000 0.000000 0.000000 0.126423
#
#
# Mechanical properties :
#
#
# Convention : Reuss Voigt Hill
#
# Bulk Modulus (GPa) = 53.13253 77.23251 65.18252
# Shear Modulus (GPa) = 19.21322 21.28968 20.25145
#
# Velocity S-wave (km/s) = 3.01633 3.17514 3.09676
# Velocity P-wave (km/s) = 6.10667 7.07212 6.60705
#
# Compressibility (1/GPa) = 0.01882086
#
# Stress axis : x y z
#
# Youngs Moduli (GPa) = 91.22500 73.97573 162.25573
#
# Poissons Ratio (x) = -0.08486 0.41091
# Poissons Ratio (y) = -0.10464 0.73431
# Poissons Ratio (z) = 0.23102 0.33479
#
# Static dielectric constant tensor:
#      x y z
#    x 1.772560 0.000000 0.000000 
#    y 0.000000 1.750450 0.000000 
#    z 0.000000 0.000000 1.760050 
# 
# From -- ./inp_files/72409.got.cif
#   From: 2010.05.17/outbox.cif.g08.bks.cpg/sg65_37_cif.got.tgz:72409.got - 2010.06.03 17:01:31.
