data_PCOD9487118
_publ_section_title
;
Structure prediction by ZEFSAII (Michael W. Deem and Ramdas Pophale) SiO2 
 PCOD9487118
Probable space group: C M M M
;
_chemical_formula_sum "Si O2"
_cell_formula_units_Z 92
_cell_length_a 22.708364
_cell_length_b 28.496783
_cell_length_c 7.703735
_cell_angle_alpha 90.000000
_cell_angle_beta 90.000000
_cell_angle_gamma 90.000000
_cell_volume 4985.204949
_symmetry_space_group_name_H-M "C M M M"
_symmetry_group_IT_number 65
_symmetry_cell_setting 'orthorhombic'
loop_
_space_group_symop_operation_xyz
x,y,z
-x,-y,z
x,-y,-z
-x,y,-z
-x,-y,-z
x,y,-z
-x,y,z
x,-y,z
1/2+x,1/2+y,z
1/2-x,1/2-y,z
1/2+x,1/2-y,-z
1/2-x,1/2+y,-z
1/2-x,1/2-y,-z
1/2+x,1/2+y,-z
1/2-x,1/2+y,z
1/2+x,1/2-y,z
loop_
_atom_site_type_symbol
_atom_site_label
_atom_site_fract_x
_atom_site_fract_y
_atom_site_fract_z
Si Si1 0.798304 0.851160 0.295365
Si Si2 0.000000 0.553088 0.706940
Si Si3 0.374732 0.095275 0.205269
Si Si4 0.255249 0.051327 0.296071
Si Si5 0.601732 0.715325 0.201882
Si Si6 0.500000 0.710564 0.500000
Si Si7 0.676869 0.806623 0.209011
O O1 0.810244 0.855485 0.500000
O O2 0.776824 0.902027 0.225662
O O3 0.855449 0.829713 0.207226
O O4 0.742747 0.816088 0.273876
O O5 0.940655 0.579298 0.760004
O O6 0.000000 0.500000 0.777686
O O7 0.000000 0.550535 0.500000
O O8 0.325063 0.061379 0.282782
O O9 0.360834 0.147983 0.267423
O O10 0.364928 0.094550 0.000000
O O11 0.240751 0.049759 0.500000
O O12 0.241631 0.000000 0.220349
O O13 0.551175 0.710984 0.344829
O O14 0.643402 0.759278 0.255609
O O15 0.582217 0.722738 0.000000
O O16 0.680634 0.806748 0.000000
#
# Coordination Sequence:
#
# PCOD9487118 Si02
#       7
#    16   8  16  16  16   4  16
#     4  10  19  33  58  89 116 148 192 231 279 343
#     4  11  23  36  47  63  94 140 192 236 279 329
#     4  10  20  34  50  72 103 140 187 236 278 327
#     4   9  18  33  53  80 115 146 176 225 284 334
#     4  11  23  41  61  84 119 154 188 237 286 336
#     4  12  26  42  58  86 111 152 201 228 272 344
#     4   9  20  36  55  81 113 147 183 232 293 338
#
# _framework density 18.454608
#
# number of rings (size 3 to 8) (size 9 to 14) (size 15 to 20)
#    0.000    2.000    0.870    2.609    1.217    7.304 
#    1.565    2.609    0.000    0.000    0.000    1.217 
#    0.000    1.391    0.000    0.000    0.000    0.000 
#
# Total GULP energy -256143.422240 kJ/mol
# GULP energy per Si atom -5568.335266 kJ/mol
# Density = 1.841260 g / cm^3
# Si number density = 18.454608 Si / 1000 Ang^3
#
#
#
# Elastic Constant Matrix: (Units=GPa)
#
#
# Indices 1 2 3 4 5 6 
#
# 1 94.6620 57.4781 38.1826 0.0000 0.0000 0.0000
# 2 57.4781 98.7215 21.6557 0.0000 0.0000 0.0000
# 3 38.1826 21.6557 75.3632 0.0000 0.0000 0.0000
# 4 0.0000 0.0000 0.0000 9.8421 0.0000 0.0000
# 5 0.0000 0.0000 0.0000 0.0000 142.0647 0.0000
# 6 0.0000 0.0000 0.0000 0.0000 0.0000 7.5406
#
#
#
# Elastic Compliance Matrix: (Units=1/GPa)
#
#
# Indices 1 2 3 4 5 6 
#
# 1 0.019255 -0.009681 -0.006974 0.000000 0.000000 0.000000
# 2 -0.009681 0.015678 0.000400 0.000000 0.000000 0.000000
# 3 -0.006974 0.000400 0.016687 0.000000 0.000000 0.000000
# 4 0.000000 0.000000 0.000000 0.101604 0.000000 0.000000
# 5 0.000000 0.000000 0.000000 0.000000 0.007039 0.000000
# 6 0.000000 0.000000 0.000000 0.000000 0.000000 0.132616
#
#
# Mechanical properties :
#
#
# Convention : Reuss Voigt Hill
#
# Bulk Modulus (GPa) = 52.32643 55.93104 54.12874
# Shear Modulus (GPa) = 15.07113 41.98483 28.52798
#
# Velocity S-wave (km/s) = 2.86083 4.77490 3.93599
# Velocity P-wave (km/s) = 6.27121 7.79569 7.07463
#
# Compressibility (1/GPa) = 0.01911080
#
# Stress axis : x y z
#
# Youngs Moduli (GPa) = 51.93459 63.78223 59.92540
#
# Poissons Ratio (x) = 0.61747 0.41790
# Poissons Ratio (y) = 0.50278 -0.02395
# Poissons Ratio (z) = 0.36217 -0.02549
#
# Static dielectric constant tensor:
#      x y z
#    x 1.503310 0.000000 0.000000 
#    y 0.000000 1.685190 0.000000 
#    z 0.000000 0.000000 1.671040 
# 
# From -- ./inp_files/12348.got.cif
#   From: 2010.05.17/outbox.cif.g08.bks.cpg/sg65_7_cif.got.tgz:12348.got - 2010.06.03 17:01:31.
