data_PCOD9487144
_publ_section_title
;
Structure prediction by ZEFSAII (Michael W. Deem and Ramdas Pophale) SiO2 
 PCOD9487144
Probable space group: C M M M
;
_chemical_formula_sum "Si O2"
_cell_formula_units_Z 116
_cell_length_a 7.741287
_cell_length_b 29.483920
_cell_length_c 28.467179
_cell_angle_alpha 90.000000
_cell_angle_beta 90.000000
_cell_angle_gamma 90.000000
_cell_volume 6497.448189
_symmetry_space_group_name_H-M "C M M M"
_symmetry_group_IT_number 65
_symmetry_cell_setting 'orthorhombic'
loop_
_space_group_symop_operation_xyz
x,y,z
-x,-y,z
x,-y,-z
-x,y,-z
-x,-y,-z
x,y,-z
-x,y,z
x,-y,z
1/2+x,1/2+y,z
1/2-x,1/2-y,z
1/2+x,1/2-y,-z
1/2-x,1/2+y,-z
1/2-x,1/2-y,-z
1/2+x,1/2+y,-z
1/2-x,1/2+y,z
1/2+x,1/2-y,z
loop_
_atom_site_type_symbol
_atom_site_label
_atom_site_fract_x
_atom_site_fract_y
_atom_site_fract_z
Si Si1 0.210833 0.947495 0.447257
Si Si2 0.000000 0.570194 0.000000
Si Si3 0.794977 0.550939 0.263514
Si Si4 0.797405 0.104941 0.643204
Si Si5 0.697345 0.553895 0.923199
Si Si6 0.294434 0.199386 0.318377
Si Si7 0.292797 0.800570 0.789205
Si Si8 0.789266 0.394984 0.171513
O O1 0.268434 0.935171 0.500000
O O2 0.274144 0.915784 0.405137
O O3 0.000000 0.945986 0.447961
O O4 0.258450 0.000000 0.438292
O O5 0.153193 0.567725 0.959324
O O6 0.723326 0.500000 0.267883
O O7 0.771735 0.579564 0.310765
O O8 0.729907 0.577510 0.217764
O O9 0.000000 0.547211 0.256392
O O10 0.770891 0.158373 0.650074
O O11 0.000000 0.095587 0.642919
O O12 0.500000 0.560443 0.940546
O O13 0.719113 0.500000 0.914069
O O14 0.720421 0.581721 0.875190
O O15 0.500000 0.195112 0.316218
O O16 0.250000 0.250000 0.334661
O O17 0.226326 0.194793 0.264587
O O18 0.500000 0.803691 0.786589
O O19 0.250000 0.750000 0.806056
O O20 0.234329 0.842766 0.820517
O O21 0.000000 0.396135 0.169596
#
# Coordination Sequence:
#
# PCOD9487144 Si02
#       8
#    16   4  16  16  16  16  16  16
#     4   8  15  29  48  70  98 133 176 226 274 319
#     4  12  23  42  64  82 116 156 190 242 282 320
#     4  10  20  33  49  70 105 151 184 210 259 325
#     4  11  20  30  49  76 103 135 175 222 271 324
#     4  11  23  37  58  87 115 149 193 235 279 327
#     4  10  19  34  52  73 102 136 174 216 263 320
#     4   9  18  32  52  75 105 140 179 219 263 320
#     4  10  19  35  54  76 110 150 184 219 274 331
#
# _framework density 17.853164
#
# number of rings (size 3 to 8) (size 9 to 14) (size 15 to 20)
#    0.000    2.069    2.069    2.897    0.000    3.586 
#    0.000    0.000    0.000    2.069    0.000    5.310 
#    0.000    0.000    0.000    0.000    0.000    0.000 
#
# Total GULP energy -323064.200430 kJ/mol
# GULP energy per Si atom -5570.072421 kJ/mol
# Density = 1.781253 g / cm^3
# Si number density = 17.853164 Si / 1000 Ang^3
#
#
#
# Elastic Constant Matrix: (Units=GPa)
#
#
# Indices 1 2 3 4 5 6 
#
# 1 56.1996 13.1412 25.2454 0.0000 0.0000 0.0000
# 2 13.1412 103.3835 80.2050 0.0000 0.0000 0.0000
# 3 25.2454 80.2050 144.1230 0.0000 0.0000 0.0000
# 4 0.0000 0.0000 0.0000 22.5818 0.0000 0.0000
# 5 0.0000 0.0000 0.0000 0.0000 7.3120 0.0000
# 6 0.0000 0.0000 0.0000 0.0000 0.0000 20.3630
#
#
#
# Elastic Compliance Matrix: (Units=1/GPa)
#
#
# Indices 1 2 3 4 5 6 
#
# 1 0.019319 0.000299 -0.003550 0.000000 0.000000 0.000000
# 2 0.000299 0.017026 -0.009527 0.000000 0.000000 0.000000
# 3 -0.003550 -0.009527 0.012862 0.000000 0.000000 0.000000
# 4 0.000000 0.000000 0.000000 0.044284 0.000000 0.000000
# 5 0.000000 0.000000 0.000000 0.000000 0.136761 0.000000
# 6 0.000000 0.000000 0.000000 0.000000 0.000000 0.049109
#
#
# Mechanical properties :
#
#
# Convention : Reuss Voigt Hill
#
# Bulk Modulus (GPa) = 42.28457 60.09882 51.19170
# Shear Modulus (GPa) = 15.98456 22.39231 19.18843
#
# Velocity S-wave (km/s) = 2.99546 3.54538 3.28196
# Velocity P-wave (km/s) = 5.97493 7.10602 6.56488
#
# Compressibility (1/GPa) = 0.02364929
#
# Stress axis : x y z
#
# Youngs Moduli (GPa) = 51.76343 58.73316 77.74581
#
# Poissons Ratio (x) = -0.01754 0.27601
# Poissons Ratio (y) = -0.01546 0.74072
# Poissons Ratio (z) = 0.18377 0.55958
#
# Static dielectric constant tensor:
#      x y z
#    x 1.656400 0.000000 0.000000 
#    y 0.000000 1.610100 0.000000 
#    z 0.000000 0.000000 1.596890 
# 
# From -- ./inp_files/68628.got.cif
#   From: 2010.05.17/outbox.cif.g08.bks.cpg/sg65_35_cif.got.tgz:68628.got - 2010.06.03 17:01:31.
