data_PCOD9487169
_publ_section_title
;
Structure prediction by ZEFSAII (Michael W. Deem and Ramdas Pophale) SiO2 
 PCOD9487169
Probable space group: C M M M
;
_chemical_formula_sum "Si O2"
_cell_formula_units_Z 96
_cell_length_a 19.943031
_cell_length_b 28.396057
_cell_length_c 9.597597
_cell_angle_alpha 90.000000
_cell_angle_beta 90.000000
_cell_angle_gamma 90.000000
_cell_volume 5435.152245
_symmetry_space_group_name_H-M "C M M M"
_symmetry_group_IT_number 65
_symmetry_cell_setting 'orthorhombic'
loop_
_space_group_symop_operation_xyz
x,y,z
-x,-y,z
x,-y,-z
-x,y,-z
-x,-y,-z
x,y,-z
-x,y,z
x,-y,z
1/2+x,1/2+y,z
1/2-x,1/2-y,z
1/2+x,1/2-y,-z
1/2-x,1/2+y,-z
1/2-x,1/2-y,-z
1/2+x,1/2+y,-z
1/2-x,1/2+y,z
1/2+x,1/2-y,z
loop_
_atom_site_type_symbol
_atom_site_label
_atom_site_fract_x
_atom_site_fract_y
_atom_site_fract_z
Si Si1 0.424822 0.942583 0.659821
Si Si2 0.422923 0.231879 0.833221
Si Si3 0.200530 0.443356 0.158046
Si Si4 0.797856 0.705507 0.662830
Si Si5 0.704644 0.613558 0.338827
Si Si6 0.576577 0.328370 0.337497
O O1 0.412359 0.927893 0.500000
O O2 0.500000 0.927699 0.700567
O O3 0.365730 0.926738 0.759765
O O4 0.424842 0.000000 0.660324
O O5 0.500000 0.215984 0.805370
O O6 0.363627 0.203362 0.758447
O O7 0.416412 0.283634 0.763108
O O8 0.414016 0.233665 0.000000
O O9 0.198983 0.500000 0.157297
O O10 0.265267 0.425465 0.239082
O O11 0.199702 0.426256 0.000000
O O12 0.817184 0.711309 0.500000
O O13 0.750000 0.750000 0.699748
O O14 0.752839 0.659056 0.674355
O O15 0.706345 0.598087 0.500000
O O16 0.630653 0.631949 0.304132
O O17 0.589163 0.314018 0.500000
O O18 0.500000 0.344967 0.328676
#
# Coordination Sequence:
#
# PCOD9487169 Si02
#       6
#    16  16  16  16  16  16
#     4   8  14  27  49  74  97 124 162 207 252 299
#     4  10  20  32  48  74 107 142 177 210 250 301
#     4  10  21  35  51  74 104 137 173 214 261 310
#     4  10  19  34  53  76 104 133 169 211 254 304
#     4  10  20  34  54  79 103 132 172 214 258 309
#     4   9  17  32  54  77 102 133 170 213 258 304
#
# _framework density 17.662800000000001
#
# number of rings (size 3 to 8) (size 9 to 14) (size 15 to 20)
#    0.000    2.500    1.667    1.500    0.000    4.000 
#    0.000    2.500    0.000    1.500    0.000    3.500 
#    0.000    0.000    0.000    0.000    0.000    0.000 
#
# Total GULP energy -267728.408605 kJ/mol
# GULP energy per Si atom -5577.675179 kJ/mol
# Density = 1.762260 g / cm^3
# Si number density = 17.662800 Si / 1000 Ang^3
#
#
#
# Elastic Constant Matrix: (Units=GPa)
#
#
# Indices 1 2 3 4 5 6 
#
# 1 114.1108 13.3588 58.9868 0.0000 0.0000 0.0000
# 2 13.3588 10.7131 13.9197 0.0000 0.0000 0.0000
# 3 58.9868 13.9197 69.7436 0.0000 0.0000 0.0000
# 4 0.0000 0.0000 0.0000 18.1816 0.0000 0.0000
# 5 0.0000 0.0000 0.0000 0.0000 17.7438 0.0000
# 6 0.0000 0.0000 0.0000 0.0000 0.0000 22.1116
#
#
#
# Elastic Compliance Matrix: (Units=1/GPa)
#
#
# Indices 1 2 3 4 5 6 
#
# 1 0.015648 -0.003128 -0.012611 0.000000 0.000000 0.000000
# 2 -0.003128 0.126650 -0.022632 0.000000 0.000000 0.000000
# 3 -0.012611 -0.022632 0.029521 0.000000 0.000000 0.000000
# 4 0.000000 0.000000 0.000000 0.055001 0.000000 0.000000
# 5 0.000000 0.000000 0.000000 0.000000 0.056358 0.000000
# 6 0.000000 0.000000 0.000000 0.000000 0.000000 0.045225
#
#
# Mechanical properties :
#
#
# Convention : Reuss Voigt Hill
#
# Bulk Modulus (GPa) = 10.51764 40.78869 25.65317
# Shear Modulus (GPa) = 11.44595 18.82755 15.13675
#
# Velocity S-wave (km/s) = 2.54840 3.26842 2.93061
# Velocity P-wave (km/s) = 3.82449 6.11446 5.09967
#
# Compressibility (1/GPa) = 0.09507834
#
# Stress axis : x y z
#
# Youngs Moduli (GPa) = 63.90475 7.89579 33.87438
#
# Poissons Ratio (x) = 0.02470 0.42718
# Poissons Ratio (y) = 0.19987 0.76665
# Poissons Ratio (z) = 0.80588 0.17870
#
# Static dielectric constant tensor:
#      x y z
#    x 1.610230 0.000000 0.000000 
#    y 0.000000 1.608480 0.000000 
#    z 0.000000 0.000000 1.595620 
# 
# From -- ./inp_files/12199.got.cif
#   From: 2010.05.17/outbox.cif.g08.bks.cpg/sg65_7_cif.got.tgz:12199.got - 2010.06.03 17:01:31.
