data_PCOD9487084
_publ_section_title
;
Structure prediction by ZEFSAII (Michael W. Deem and Ramdas Pophale) SiO2 
 PCOD9487084
Probable space group: C M M M
;
_chemical_formula_sum "Si O2"
_cell_formula_units_Z 68
_cell_length_a 14.810829
_cell_length_b 20.746496
_cell_length_c 9.638384
_cell_angle_alpha 90.000000
_cell_angle_beta 90.000000
_cell_angle_gamma 90.000000
_cell_volume 2961.613284
_symmetry_space_group_name_H-M "C M M M"
_symmetry_group_IT_number 65
_symmetry_cell_setting 'orthorhombic'
loop_
_space_group_symop_operation_xyz
x,y,z
-x,-y,z
x,-y,-z
-x,y,-z
-x,-y,-z
x,y,-z
-x,y,z
x,-y,z
1/2+x,1/2+y,z
1/2-x,1/2-y,z
1/2+x,1/2-y,-z
1/2-x,1/2+y,-z
1/2-x,1/2-y,-z
1/2+x,1/2+y,-z
1/2-x,1/2+y,z
1/2+x,1/2-y,z
loop_
_atom_site_type_symbol
_atom_site_label
_atom_site_fract_x
_atom_site_fract_y
_atom_site_fract_z
Si Si1 0.110413 0.744249 0.841450
Si Si2 0.852579 0.500000 0.155424
Si Si3 0.102755 0.000000 0.290491
Si Si4 0.890180 0.141562 0.348455
Si Si5 0.333101 0.500000 0.000000
Si Si6 0.391637 0.875919 0.657821
O O1 0.139222 0.812399 0.776202
O O2 0.141078 0.687135 0.740199
O O3 0.000000 0.743376 0.842662
O O4 0.139955 0.735563 0.000000
O O5 0.747349 0.500000 0.118594
O O6 0.874916 0.562294 0.246183
O O7 0.896143 0.500000 0.000000
O O8 0.143352 0.931586 0.337097
O O9 0.095620 0.000000 0.125399
O O10 0.000000 0.000000 0.347070
O O11 0.867086 0.168845 0.500000
O O12 0.000000 0.139725 0.340774
O O13 0.356594 0.881573 0.500000
O O14 0.500000 0.869387 0.647096
#
# Coordination Sequence:
#
# PCOD9487084 Si02
#       6
#    16   8   8  16   4  16
#     4   9  17  28  47  81 120 150 178 218 273 325
#     4  10  22  37  54  76 113 146 187 227 276 323
#     4  10  20  36  62  84 107 138 182 235 280 337
#     4   9  17  30  51  83 116 142 172 221 282 334
#     4  10  25  40  53  80 114 144 182 226 291 340
#     4  10  19  33  56  85 115 150 191 230 265 311
#
# _framework density 22.960459
#
# number of rings (size 3 to 8) (size 9 to 14) (size 15 to 20)
#    0.353    2.118    0.000    2.647    1.647    7.059 
#    0.000    2.353    0.000    2.824    0.000    3.294 
#    0.000    0.000    0.000    0.000    0.000    0.000 
#
# Total GULP energy -189367.259597 kJ/mol
# GULP energy per Si atom -5569.625282 kJ/mol
# Density = 2.290820 g / cm^3
# Si number density = 22.960459 Si / 1000 Ang^3
#
#
#
# Elastic Constant Matrix: (Units=GPa)
#
#
# Indices 1 2 3 4 5 6 
#
# 1 65.3085 -6.2099 10.0212 0.0000 0.0000 0.0000
# 2 -6.2099 162.5949 92.2812 0.0000 0.0000 0.0000
# 3 10.0212 92.2812 239.3640 0.0000 0.0000 0.0000
# 4 0.0000 0.0000 0.0000 114.3470 0.0000 0.0000
# 5 0.0000 0.0000 0.0000 0.0000 11.5654 0.0000
# 6 0.0000 0.0000 0.0000 0.0000 0.0000 -18.3384
#
#
#
# Elastic Compliance Matrix: (Units=1/GPa)
#
#
# Indices 1 2 3 4 5 6 
#
# 1 0.015603 0.001237 -0.001130 0.000000 0.000000 0.000000
# 2 0.001237 0.007971 -0.003125 0.000000 0.000000 0.000000
# 3 -0.001130 -0.003125 0.005430 0.000000 0.000000 0.000000
# 4 0.000000 0.000000 0.000000 0.008745 0.000000 0.000000
# 5 0.000000 0.000000 0.000000 0.000000 0.086465 0.000000
# 6 0.000000 0.000000 0.000000 0.000000 0.000000 -0.054530
#
#
# Mechanical properties :
#
#
# Convention : Reuss Voigt Hill
#
# Bulk Modulus (GPa) = 43.53808 73.27247 58.40527
# Shear Modulus (GPa) = 59.96972 46.25979 53.11475
#
# Velocity S-wave (km/s) = 5.11619 4.49348 4.81491
# Velocity P-wave (km/s) = 7.34193 7.67486 7.51024
#
# Compressibility (1/GPa) = 0.02296840
#
# Stress axis : x y z
#
# Youngs Moduli (GPa) = 64.09007 125.45424 184.16976
#
# Poissons Ratio (x) = -0.15524 0.20817
# Poissons Ratio (y) = -0.07931 0.57550
# Poissons Ratio (z) = 0.07244 0.39203
#
# Static dielectric constant tensor:
#      x y z
#    x 1.923750 0.000000 0.000000 
#    y 0.000000 1.844720 0.000000 
#    z 0.000000 0.000000 1.834040 
# 
# From -- ./inp_files/8968.got.cif
#   From: 2010.05.17/outbox.cif.g08.bks.cpg/sg65_5_cif.got.tgz:8968.got - 2010.06.03 17:01:31.
