data_PCOD9487676
_publ_section_title
;
Structure prediction by ZEFSAII (Michael W. Deem and Ramdas Pophale) SiO2 
 PCOD9487676
Probable space group: C M M M
;
_chemical_formula_sum "Si O2"
_cell_formula_units_Z 96
_cell_length_a 19.929125
_cell_length_b 15.214361
_cell_length_c 15.999306
_cell_angle_alpha 90.000000
_cell_angle_beta 90.000000
_cell_angle_gamma 90.000000
_cell_volume 4851.132008
_symmetry_space_group_name_H-M "C M M M"
_symmetry_group_IT_number 65
_symmetry_cell_setting 'orthorhombic'
loop_
_space_group_symop_operation_xyz
x,y,z
-x,-y,z
x,-y,-z
-x,y,-z
-x,-y,-z
x,y,-z
-x,y,z
x,-y,z
1/2+x,1/2+y,z
1/2-x,1/2-y,z
1/2+x,1/2-y,-z
1/2-x,1/2+y,-z
1/2-x,1/2-y,-z
1/2+x,1/2+y,-z
1/2-x,1/2+y,z
1/2+x,1/2-y,z
loop_
_atom_site_type_symbol
_atom_site_label
_atom_site_fract_x
_atom_site_fract_y
_atom_site_fract_z
Si Si1 0.294236 0.000000 0.402053
Si Si2 0.315900 0.400098 0.100625
Si Si3 0.132867 0.000000 0.401883
Si Si4 0.075649 0.187261 0.642611
Si Si5 0.576820 0.739637 0.164026
Si Si6 0.336301 0.896289 0.899327
Si Si7 0.808118 0.689764 0.403644
O O1 0.213491 0.000000 0.397114
O O2 0.317081 0.093284 0.364762
O O3 0.316101 0.000000 0.500000
O O4 0.328716 0.500000 0.130690
O O5 0.373521 0.333572 0.126581
O O6 0.240337 0.373977 0.127306
O O7 0.313801 0.402675 0.000000
O O8 0.104049 0.088653 0.362423
O O9 0.114822 0.000000 0.500000
O O10 0.075318 0.220724 0.737549
O O11 0.125472 0.252760 0.595874
O O12 0.000000 0.188288 0.609814
O O13 0.500000 0.734221 0.132538
O O14 0.610215 0.833099 0.143395
O O15 0.346481 0.000000 0.883283
O O16 0.340445 0.883315 0.000000
O O17 0.785772 0.673247 0.500000
O O18 0.750000 0.750000 0.363568
#
# Coordination Sequence:
#
# PCOD9487676 Si02
#       7
#     8  16   8  16  16  16  16
#     4   9  18  35  61  91 113 136 181 243 298 340
#     4   9  19  37  61  86 112 148 192 237 285 342
#     4  11  21  40  67  89 113 148 197 252 297 345
#     4  11  25  40  55  84 121 157 192 236 294 351
#     4  11  24  38  53  81 123 159 187 233 293 346
#     4   9  19  39  65  89 112 147 200 252 288 330
#     4  10  19  36  61  86 114 146 187 239 290 349
#
# _framework density 19.789196
#
# number of rings (size 3 to 8) (size 9 to 14) (size 15 to 20)
#    0.000    2.000    1.667    2.750    1.167    6.333 
#    1.500    2.083    0.000    1.500    0.000    0.000 
#    0.000    0.000    0.000    0.000    0.000    0.000 
#
# Total GULP energy -267956.372697 kJ/mol
# GULP energy per Si atom -5582.424431 kJ/mol
# Density = 1.974415 g / cm^3
# Si number density = 19.789196 Si / 1000 Ang^3
#
#
#
# Elastic Constant Matrix: (Units=GPa)
#
#
# Indices 1 2 3 4 5 6 
#
# 1 114.7839 76.0813 20.5292 0.0000 0.0000 0.0000
# 2 76.0813 165.3704 22.8047 0.0000 0.0000 0.0000
# 3 20.5292 22.8047 27.9187 0.0000 0.0000 0.0000
# 4 0.0000 0.0000 0.0000 42.7869 0.0000 0.0000
# 5 0.0000 0.0000 0.0000 0.0000 31.0172 0.0000
# 6 0.0000 0.0000 0.0000 0.0000 0.0000 1.1553
#
#
#
# Elastic Compliance Matrix: (Units=1/GPa)
#
#
# Indices 1 2 3 4 5 6 
#
# 1 0.013207 -0.005338 -0.005351 0.000000 0.000000 0.000000
# 2 -0.005338 0.008972 -0.003403 0.000000 0.000000 0.000000
# 3 -0.005351 -0.003403 0.042533 0.000000 0.000000 0.000000
# 4 0.000000 0.000000 0.000000 0.023372 0.000000 0.000000
# 5 0.000000 0.000000 0.000000 0.000000 0.032240 0.000000
# 6 0.000000 0.000000 0.000000 0.000000 0.000000 0.865595
#
#
# Mechanical properties :
#
#
# Convention : Reuss Voigt Hill
#
# Bulk Modulus (GPa) = 27.37709 60.76704 44.07206
# Shear Modulus (GPa) = 4.87196 27.56906 16.22051
#
# Velocity S-wave (km/s) = 1.57076 3.73652 2.86608
# Velocity P-wave (km/s) = 4.14175 7.02775 5.76816
#
# Compressibility (1/GPa) = 0.03652690
#
# Stress axis : x y z
#
# Youngs Moduli (GPa) = 75.71462 111.45325 23.51111
#
# Poissons Ratio (x) = 0.59498 0.12581
# Poissons Ratio (y) = 0.40419 0.08002
# Poissons Ratio (z) = 0.40517 0.37932
#
# Static dielectric constant tensor:
#      x y z
#    x 1.672930 0.000000 0.000000 
#    y 0.000000 1.711680 0.000000 
#    z 0.000000 0.000000 1.728520 
# 
# From -- ./inp_files/44161.got.cif
#   From: 2010.05.17/outbox.cif.g08.bks.cpg/sg65_23_cif.got.tgz:44161.got - 2010.06.03 17:01:31.
