data_PCOD9487148
_publ_section_title
;
Structure prediction by ZEFSAII (Michael W. Deem and Ramdas Pophale) SiO2 
 PCOD9487148
Probable space group: C M M M
;
_chemical_formula_sum "Si O2"
_cell_formula_units_Z 72
_cell_length_a 18.947854
_cell_length_b 19.174843
_cell_length_c 11.990186
_cell_angle_alpha 90.000000
_cell_angle_beta 90.000000
_cell_angle_gamma 90.000000
_cell_volume 4356.299864
_symmetry_space_group_name_H-M "C M M M"
_symmetry_group_IT_number 65
_symmetry_cell_setting 'orthorhombic'
loop_
_space_group_symop_operation_xyz
x,y,z
-x,-y,z
x,-y,-z
-x,y,-z
-x,-y,-z
x,y,-z
-x,y,z
x,-y,z
1/2+x,1/2+y,z
1/2-x,1/2-y,z
1/2+x,1/2-y,-z
1/2-x,1/2+y,-z
1/2-x,1/2-y,-z
1/2+x,1/2+y,-z
1/2-x,1/2+y,z
1/2+x,1/2-y,z
loop_
_atom_site_type_symbol
_atom_site_label
_atom_site_fract_x
_atom_site_fract_y
_atom_site_fract_z
Si Si1 0.920847 0.833143 0.500000
Si Si2 0.081144 0.000000 0.135761
Si Si3 0.155287 0.143762 0.866965
Si Si4 0.777336 0.672845 0.700517
Si Si5 0.419306 0.758537 0.274637
Si Si6 0.778729 0.917188 0.500000
O O1 0.914039 0.784640 0.609366
O O2 0.859247 0.889595 0.500000
O O3 0.000000 0.863306 0.500000
O O4 0.121901 0.069891 0.169643
O O5 0.000000 0.000000 0.174738
O O6 0.079360 0.000000 0.000000
O O7 0.230786 0.155506 0.809135
O O8 0.104519 0.204509 0.821073
O O9 0.160157 0.145440 0.000000
O O10 0.750000 0.750000 0.662980
O O11 0.860167 0.681730 0.722063
O O12 0.758503 0.616951 0.607267
O O13 0.500000 0.781194 0.260799
O O14 0.775424 0.000000 0.500000
#
# Coordination Sequence:
#
# PCOD9487148 Si02
#       6
#     8   8  16  16  16   8
#     4  10  19  34  52  77 108 138 174 208 257 318
#     4   9  18  32  48  69 106 146 169 199 253 315
#     4  10  20  32  51  79 109 143 180 213 255 318
#     4  10  20  35  56  74 107 142 177 220 266 314
#     4  10  20  34  55  76 101 139 178 222 267 312
#     4  12  22  35  56  81 106 139 181 220 262 322
#
# _framework density 16.527788000000001
#
# number of rings (size 3 to 8) (size 9 to 14) (size 15 to 20)
#    0.000    1.889    4.444    1.667    1.556    5.556 
#    0.000    0.000    0.000    1.333    0.000    0.000 
#    0.000    2.667    0.000    0.000    0.000    0.000 
#
# Total GULP energy -200875.146670 kJ/mol
# GULP energy per Si atom -5579.865185 kJ/mol
# Density = 1.649017 g / cm^3
# Si number density = 16.527788 Si / 1000 Ang^3
#
#
#
# Elastic Constant Matrix: (Units=GPa)
#
#
# Indices 1 2 3 4 5 6 
#
# 1 188.3412 73.1920 47.5530 0.0000 0.0000 0.0000
# 2 73.1920 88.0239 34.0656 0.0000 0.0000 0.0000
# 3 47.5530 34.0656 80.9143 0.0000 0.0000 0.0000
# 4 0.0000 0.0000 0.0000 23.7868 0.0000 0.0000
# 5 0.0000 0.0000 0.0000 0.0000 14.2573 0.0000
# 6 0.0000 0.0000 0.0000 0.0000 0.0000 18.4595
#
#
#
# Elastic Compliance Matrix: (Units=1/GPa)
#
#
# Indices 1 2 3 4 5 6 
#
# 1 0.008195 -0.005914 -0.002326 0.000000 0.000000 0.000000
# 2 -0.005914 0.017840 -0.004035 0.000000 0.000000 0.000000
# 3 -0.002326 -0.004035 0.015425 0.000000 0.000000 0.000000
# 4 0.000000 0.000000 0.000000 0.042040 0.000000 0.000000
# 5 0.000000 0.000000 0.000000 0.000000 0.070139 0.000000
# 6 0.000000 0.000000 0.000000 0.000000 0.000000 0.054173
#
#
# Mechanical properties :
#
#
# Convention : Reuss Voigt Hill
#
# Bulk Modulus (GPa) = 59.14111 74.10007 66.62059
# Shear Modulus (GPa) = 21.00854 24.79866 22.90360
#
# Velocity S-wave (km/s) = 3.56912 3.87773 3.72662
# Velocity P-wave (km/s) = 7.26948 8.06102 7.67546
#
# Compressibility (1/GPa) = 0.01690871
#
# Stress axis : x y z
#
# Youngs Moduli (GPa) = 122.02372 56.05525 64.83080
#
# Poissons Ratio (x) = 0.33151 0.15082
# Poissons Ratio (y) = 0.72164 0.26159
# Poissons Ratio (z) = 0.28388 0.22618
#
# Static dielectric constant tensor:
#      x y z
#    x 1.571420 0.000000 0.000000 
#    y 0.000000 1.533680 0.000000 
#    z 0.000000 0.000000 1.564760 
# 
# From -- ./inp_files/26587.got.cif
#   From: 2010.05.17/outbox.cif.g08.bks.cpg/sg65_14_cif.got.tgz:26587.got - 2010.06.03 17:01:31.
