data_PCOD9487653
_publ_section_title
;
Structure prediction by ZEFSAII (Michael W. Deem and Ramdas Pophale) SiO2 
 PCOD9487653
Probable space group: C M M M
;
_chemical_formula_sum "Si O2"
_cell_formula_units_Z 88
_cell_length_a 22.516594
_cell_length_b 23.760135
_cell_length_c 8.824025
_cell_angle_alpha 90.000000
_cell_angle_beta 90.000000
_cell_angle_gamma 90.000000
_cell_volume 4720.829666
_symmetry_space_group_name_H-M "C M M M"
_symmetry_group_IT_number 65
_symmetry_cell_setting 'orthorhombic'
loop_
_space_group_symop_operation_xyz
x,y,z
-x,-y,z
x,-y,-z
-x,y,-z
-x,-y,-z
x,y,-z
-x,y,z
x,-y,z
1/2+x,1/2+y,z
1/2-x,1/2-y,z
1/2+x,1/2-y,-z
1/2-x,1/2+y,-z
1/2-x,1/2-y,-z
1/2+x,1/2+y,-z
1/2-x,1/2+y,z
1/2+x,1/2-y,z
loop_
_atom_site_type_symbol
_atom_site_label
_atom_site_fract_x
_atom_site_fract_y
_atom_site_fract_z
Si Si1 0.500000 0.565962 0.815348
Si Si2 0.570731 0.065380 0.327904
Si Si3 0.238810 0.936656 0.680619
Si Si4 0.125988 0.118518 0.816445
Si Si5 0.182098 0.237090 0.816480
Si Si6 0.661124 0.140525 0.823243
O O1 0.500000 0.500000 0.767570
O O2 0.560239 0.598547 0.768199
O O3 0.500000 0.565514 0.000000
O O4 0.589911 0.080088 0.500000
O O5 0.500000 0.070683 0.320539
O O6 0.603594 0.103911 0.209555
O O7 0.585586 0.000000 0.304230
O O8 0.233626 0.933310 0.500000
O O9 0.175499 0.924318 0.756083
O O10 0.285143 0.890110 0.737587
O O11 0.259200 0.000000 0.720615
O O12 0.149298 0.180385 0.763876
O O13 0.126566 0.118381 0.000000
O O14 0.250000 0.250000 0.766695
O O15 0.149808 0.295208 0.776020
O O16 0.184272 0.232025 0.000000
O O17 0.677181 0.141124 0.000000
#
# Coordination Sequence:
#
# PCOD9487653 Si02
#       6
#     8  16  16  16  16  16
#     4   9  18  32  55  87 111 135 182 233 274 324
#     4   9  19  37  57  76 106 147 183 219 271 329
#     4  11  23  36  52  79 112 143 178 221 275 335
#     4  10  19  36  59  80 108 144 183 228 276 327
#     4   9  17  33  54  78 108 140 175 220 273 325
#     4  11  21  34  55  82 109 139 181 228 273 325
#
# _framework density 18.640791
#
# number of rings (size 3 to 8) (size 9 to 14) (size 15 to 20)
#    0.000    2.091    1.818    2.727    0.000    5.091 
#    1.636    4.091    0.000    1.636    0.000    0.000 
#    0.000    0.000    0.000    0.000    0.000    0.000 
#
# Total GULP energy -245383.917425 kJ/mol
# GULP energy per Si atom -5576.907214 kJ/mol
# Density = 1.859836 g / cm^3
# Si number density = 18.640791 Si / 1000 Ang^3
#
#
#
# Elastic Constant Matrix: (Units=GPa)
#
#
# Indices 1 2 3 4 5 6 
#
# 1 84.0980 58.4555 13.4655 0.0000 0.0000 0.0000
# 2 58.4555 115.9630 26.9824 0.0000 0.0000 0.0000
# 3 13.4655 26.9824 16.6569 0.0000 0.0000 0.0000
# 4 0.0000 0.0000 0.0000 116.3452 0.0000 0.0000
# 5 0.0000 0.0000 0.0000 0.0000 10.8988 0.0000
# 6 0.0000 0.0000 0.0000 0.0000 0.0000 -8.6723
#
#
#
# Elastic Compliance Matrix: (Units=1/GPa)
#
#
# Indices 1 2 3 4 5 6 
#
# 1 0.018305 -0.009283 0.000240 0.000000 0.000000 0.000000
# 2 -0.009283 0.018548 -0.022541 0.000000 0.000000 0.000000
# 3 0.000240 -0.022541 0.096355 0.000000 0.000000 0.000000
# 4 0.000000 0.000000 0.000000 0.008595 0.000000 0.000000
# 5 0.000000 0.000000 0.000000 0.000000 0.091753 0.000000
# 6 0.000000 0.000000 0.000000 0.000000 0.000000 -0.115310
#
#
# Mechanical properties :
#
#
# Convention : Reuss Voigt Hill
#
# Bulk Modulus (GPa) = 14.27759 46.05830 30.16795
# Shear Modulus (GPa) = 24.41859 31.56863 27.99361
#
# Velocity S-wave (km/s) = 3.62326 4.11971 3.87943
# Velocity P-wave (km/s) = 5.01796 6.88414 6.02376
#
# Compressibility (1/GPa) = 0.07003982
#
# Stress axis : x y z
#
# Youngs Moduli (GPa) = 54.62948 53.91447 10.37823
#
# Poissons Ratio (x) = 0.50050 -0.00249
# Poissons Ratio (y) = 0.50714 0.23394
# Poissons Ratio (z) = -0.01311 1.21529
#
# Static dielectric constant tensor:
#      x y z
#    x 1.648970 0.000000 0.000000 
#    y 0.000000 1.661220 0.000000 
#    z 0.000000 0.000000 1.633570 
# 
# From -- ./inp_files/11723.got.cif
#   From: 2010.05.17/outbox.cif.g08.bks.cpg/sg65_6_cif.got.tgz:11723.got - 2010.06.03 17:01:31.
