data_PCOD9487663
_publ_section_title
;
Structure prediction by ZEFSAII (Michael W. Deem and Ramdas Pophale) SiO2 
 PCOD9487663
Probable space group: C M M M
;
_chemical_formula_sum "Si O2"
_cell_formula_units_Z 80
_cell_length_a 23.987305
_cell_length_b 19.750952
_cell_length_c 9.166693
_cell_angle_alpha 90.000000
_cell_angle_beta 90.000000
_cell_angle_gamma 90.000000
_cell_volume 4342.923481
_symmetry_space_group_name_H-M "C M M M"
_symmetry_group_IT_number 65
_symmetry_cell_setting 'orthorhombic'
loop_
_space_group_symop_operation_xyz
x,y,z
-x,-y,z
x,-y,-z
-x,y,-z
-x,-y,-z
x,y,-z
-x,y,z
x,-y,z
1/2+x,1/2+y,z
1/2-x,1/2-y,z
1/2+x,1/2-y,-z
1/2-x,1/2+y,-z
1/2-x,1/2-y,-z
1/2+x,1/2+y,-z
1/2-x,1/2+y,z
1/2+x,1/2-y,z
loop_
_atom_site_type_symbol
_atom_site_label
_atom_site_fract_x
_atom_site_fract_y
_atom_site_fract_z
Si Si1 0.621885 0.189384 0.329653
Si Si2 0.840667 0.077737 0.177186
Si Si3 0.934596 0.818267 0.176312
Si Si4 0.566578 0.923625 0.838234
Si Si5 0.735688 0.170371 0.831741
O O1 0.624148 0.203839 0.500000
O O2 0.596610 0.253948 0.245401
O O3 0.583389 0.126299 0.288412
O O4 0.681767 0.166882 0.268396
O O5 0.897916 0.116010 0.218237
O O6 0.787792 0.124579 0.219140
O O7 0.837121 0.000000 0.228363
O O8 0.840001 0.076257 0.000000
O O9 0.000000 0.821344 0.217940
O O10 0.932458 0.811917 0.000000
O O11 0.500000 0.926762 0.842929
O O12 0.588052 0.000000 0.818882
O O13 0.585037 0.898901 0.000000
O O14 0.750000 0.250000 0.833123
O O15 0.723186 0.150885 0.000000
#
# Coordination Sequence:
#
# PCOD9487663 Si02
#       5
#    16  16  16  16  16
#     4  12  24  35  54  84 119 151 189 235 282 342
#     4   9  18  34  58  88 115 142 185 241 293 337
#     4  10  20  36  59  85 114 150 192 236 284 343
#     4   9  19  37  59  81 108 146 192 238 283 333
#     4  10  19  36  60  81 108 146 188 232 281 337
#
# _framework density 18.420771999999999
#
# number of rings (size 3 to 8) (size 9 to 14) (size 15 to 20)
#    0.000    2.000    2.000    3.000    0.000    5.200 
#    0.000    5.000    0.000    1.800    0.000    1.400 
#    0.000    0.000    0.000    0.000    0.000    0.000 
#
# Total GULP energy -223048.747640 kJ/mol
# GULP energy per Si atom -5576.218691 kJ/mol
# Density = 1.837885 g / cm^3
# Si number density = 18.420772 Si / 1000 Ang^3
#
#
#
# Elastic Constant Matrix: (Units=GPa)
#
#
# Indices 1 2 3 4 5 6 
#
# 1 130.7005 62.1521 32.7887 0.0000 0.0000 0.0000
# 2 62.1521 107.1618 24.1058 0.0000 0.0000 0.0000
# 3 32.7887 24.1058 37.0654 0.0000 0.0000 0.0000
# 4 0.0000 0.0000 0.0000 -5.8417 0.0000 0.0000
# 5 0.0000 0.0000 0.0000 0.0000 -680.1730 0.0000
# 6 0.0000 0.0000 0.0000 0.0000 0.0000 28.6182
#
#
#
# Elastic Compliance Matrix: (Units=1/GPa)
#
#
# Indices 1 2 3 4 5 6 
#
# 1 0.011980 -0.005346 -0.007120 0.000000 0.000000 0.000000
# 2 -0.005346 0.013317 -0.003931 0.000000 0.000000 0.000000
# 3 -0.007120 -0.003931 0.035835 0.000000 0.000000 0.000000
# 4 0.000000 0.000000 0.000000 -0.171183 0.000000 0.000000
# 5 0.000000 0.000000 0.000000 0.000000 -0.001470 0.000000
# 6 0.000000 0.000000 0.000000 0.000000 0.000000 0.034943
#
#
# Mechanical properties :
#
#
# Convention : Reuss Voigt Hill
#
# Bulk Modulus (GPa) = 35.29148 57.00233 46.14690
# Shear Modulus (GPa) = -145.61397 -121.08724 -133.35061
#
# Velocity S-wave (km/s) = -8.90058 -8.11645 -8.51755
# Velocity P-wave (km/s) = 9.29662 7.53816 8.46319
#
# Compressibility (1/GPa) = 0.02833545
#
# Stress axis : x y z
#
# Youngs Moduli (GPa) = 83.47431 75.09320 27.90568
#
# Poissons Ratio (x) = 0.40147 0.19870
# Poissons Ratio (y) = 0.44628 0.10970
# Poissons Ratio (z) = 0.59438 0.29521
#
# Static dielectric constant tensor:
#      x y z
#    x 1.711530 0.000000 0.000000 
#    y 0.000000 1.643800 0.000000 
#    z 0.000000 0.000000 1.617860 
# 
# From -- ./inp_files/16046.got.cif
#   From: 2010.05.17/outbox.cif.g08.bks.cpg/sg65_9_cif.got.tgz:16046.got - 2010.06.03 17:01:31.
