data_PCOD9487100
_publ_section_title
;
Structure prediction by ZEFSAII (Michael W. Deem and Ramdas Pophale) SiO2 
 PCOD9487100
Probable space group: C M M M
;
_chemical_formula_sum "Si O2"
_cell_formula_units_Z 66
_cell_length_a 20.577438
_cell_length_b 15.481298
_cell_length_c 10.084440
_cell_angle_alpha 90.000000
_cell_angle_beta 90.000000
_cell_angle_gamma 90.000000
_cell_volume 3212.554164
_symmetry_space_group_name_H-M "C M M M"
_symmetry_group_IT_number 65
_symmetry_cell_setting 'orthorhombic'
loop_
_space_group_symop_operation_xyz
x,y,z
-x,-y,z
x,-y,-z
-x,y,-z
-x,-y,-z
x,y,-z
-x,y,z
x,-y,z
1/2+x,1/2+y,z
1/2-x,1/2-y,z
1/2+x,1/2-y,-z
1/2-x,1/2+y,-z
1/2-x,1/2-y,-z
1/2+x,1/2+y,-z
1/2-x,1/2+y,z
1/2+x,1/2-y,z
loop_
_atom_site_type_symbol
_atom_site_label
_atom_site_fract_x
_atom_site_fract_y
_atom_site_fract_z
Si Si1 0.748576 0.105951 0.848280
Si Si2 0.000000 0.189741 0.654204
Si Si3 0.500000 0.870622 0.249957
Si Si4 0.639265 0.396082 0.649079
Si Si5 0.500000 0.000000 0.000000
Si Si6 0.642434 0.101822 0.355984
O O1 0.810841 0.132889 0.761926
O O2 0.685256 0.135328 0.765827
O O3 0.748001 0.000000 0.852868
O O4 0.749092 0.135627 0.000000
O O5 0.933862 0.136490 0.669518
O O6 0.000000 0.222372 0.500000
O O7 0.000000 0.267449 0.757735
O O8 0.433735 0.891613 0.327347
O O9 0.500000 0.925076 0.116285
O O10 0.660331 0.369882 0.500000
O O11 0.638941 0.500000 0.651396
O O12 0.657489 0.141015 0.500000
O O13 0.658294 0.000000 0.363467
#
# Coordination Sequence:
#
# PCOD9487100 Si02
#       6
#    16   8   8  16   2  16
#     4   9  18  31  53  82 118 157 200 241 287 351
#     4  10  21  38  61  89 120 155 199 258 300 341
#     4  12  24  40  60  84 116 150 200 239 305 360
#     4   9  17  34  60  90 122 159 201 242 293 351
#     4  12  28  44  62  84 118 168 190 242 312 372
#     4  10  19  33  57  85 111 146 196 250 298 351
#
# _framework density 20.544401000000001
#
# number of rings (size 3 to 8) (size 9 to 14) (size 15 to 20)
#    0.000    2.182    1.212    2.182    1.697    5.333 
#    2.182    1.212    0.000    8.727    0.000    0.000 
#    0.000    0.000    0.000    0.000    0.000    0.000 
#
# Total GULP energy -183912.810242 kJ/mol
# GULP energy per Si atom -5573.115462 kJ/mol
# Density = 2.049764 g / cm^3
# Si number density = 20.544401 Si / 1000 Ang^3
#
#
#
# Elastic Constant Matrix: (Units=GPa)
#
#
# Indices 1 2 3 4 5 6 
#
# 1 141.8989 12.1353 112.3804 0.0000 0.0000 0.0000
# 2 12.1353 33.5769 27.8068 0.0000 0.0000 0.0000
# 3 112.3804 27.8068 208.4131 0.0000 0.0000 0.0000
# 4 0.0000 0.0000 0.0000 -0.2500 0.0000 0.0000
# 5 0.0000 0.0000 0.0000 0.0000 -10.7303 0.0000
# 6 0.0000 0.0000 0.0000 0.0000 0.0000 -31.6242
#
#
#
# Elastic Compliance Matrix: (Units=1/GPa)
#
#
# Indices 1 2 3 4 5 6 
#
# 1 0.012341 0.001181 -0.006812 0.000000 0.000000 0.000000
# 2 0.001181 0.033595 -0.005119 0.000000 0.000000 0.000000
# 3 -0.006812 -0.005119 0.009155 0.000000 0.000000 0.000000
# 4 0.000000 0.000000 0.000000 -4.000424 0.000000 0.000000
# 5 0.000000 0.000000 0.000000 0.000000 -0.093194 0.000000
# 6 0.000000 0.000000 0.000000 0.000000 0.000000 -0.031621
#
#
# Mechanical properties :
#
#
# Convention : Reuss Voigt Hill
#
# Bulk Modulus (GPa) = 29.77057 76.50377 53.13717
# Shear Modulus (GPa) = -1.23841 6.91688 2.83924
#
# Velocity S-wave (km/s) = -0.77724 1.83687 1.17686
# Velocity P-wave (km/s) = 3.70362 6.46668 5.26947
#
# Compressibility (1/GPa) = 0.03359022
#
# Stress axis : x y z
#
# Youngs Moduli (GPa) = 81.02758 29.76641 109.23541
#
# Poissons Ratio (x) = -0.03516 0.74415
# Poissons Ratio (y) = -0.09571 0.55920
# Poissons Ratio (z) = 0.55199 0.15238
#
# Static dielectric constant tensor:
#      x y z
#    x 1.722700 0.000000 0.000000 
#    y 0.000000 1.751490 0.000000 
#    z 0.000000 0.000000 1.726180 
# 
# From -- ./inp_files/10980.got.cif
#   From: 2010.05.17/outbox.cif.g08.bks.cpg/sg65_6_cif.got.tgz:10980.got - 2010.06.03 17:01:31.
