data_PCOD9487970
_publ_section_title
;
Structure prediction by ZEFSAII (Michael W. Deem and Ramdas Pophale) SiO2 
 PCOD9487970
Probable space group: C M M M
;
_chemical_formula_sum "Si O2"
_cell_formula_units_Z 128
_cell_length_a 17.651320
_cell_length_b 19.232091
_cell_length_c 21.005966
_cell_angle_alpha 90.000000
_cell_angle_beta 90.000000
_cell_angle_gamma 90.000000
_cell_volume 7130.932931
_symmetry_space_group_name_H-M "C M M M"
_symmetry_group_IT_number 65
_symmetry_cell_setting 'orthorhombic'
loop_
_space_group_symop_operation_xyz
x,y,z
-x,-y,z
x,-y,-z
-x,y,-z
-x,-y,-z
x,y,-z
-x,y,z
x,-y,z
1/2+x,1/2+y,z
1/2-x,1/2-y,z
1/2+x,1/2-y,-z
1/2-x,1/2+y,-z
1/2-x,1/2-y,-z
1/2+x,1/2+y,-z
1/2-x,1/2+y,z
1/2+x,1/2-y,z
loop_
_atom_site_type_symbol
_atom_site_label
_atom_site_fract_x
_atom_site_fract_y
_atom_site_fract_z
Si Si1 0.794863 0.684378 0.142481
Si Si2 0.200823 0.686177 0.428456
Si Si3 0.837115 0.421247 0.678556
Si Si4 0.086050 0.298933 0.746896
Si Si5 0.087081 0.215274 0.616251
Si Si6 0.200878 0.077862 0.780404
Si Si7 0.912141 0.579809 0.076719
Si Si8 0.908703 0.921189 0.670552
O O1 0.750000 0.750000 0.113087
O O2 0.848361 0.710856 0.200916
O O3 0.729658 0.633775 0.169740
O O4 0.852605 0.636100 0.102418
O O5 0.227458 0.671036 0.500000
O O6 0.250000 0.750000 0.399034
O O7 0.189944 0.620505 0.383674
O O8 0.121981 0.727560 0.429189
O O9 0.861257 0.500000 0.665296
O O10 0.899322 0.374467 0.714777
O O11 0.766187 0.423206 0.726504
O O12 0.094040 0.245938 0.687960
O O13 0.000000 0.293883 0.771644
O O14 0.120008 0.137430 0.621565
O O15 0.000000 0.207736 0.600001
O O16 0.125340 0.093339 0.740392
O O17 0.195184 0.000000 0.807759
O O18 0.894239 0.500000 0.097823
O O19 0.000000 0.594089 0.095886
O O20 0.910313 0.580242 0.000000
O O21 0.000000 0.918023 0.672854
O O22 0.886130 0.000000 0.653565
#
# Coordination Sequence:
#
# PCOD9487970 Si02
#       8
#    16  16  16  16  16  16  16  16
#     4  11  20  29  47  77 108 134 161 200 248 295
#     4  10  20  32  46  63  84 114 151 188 233 294
#     4   9  18  31  48  69  91 117 151 197 247 288
#     4   9  18  31  47  69  98 131 160 187 229 289
#     4   9  17  30  46  62  84 114 147 183 225 277
#     4   9  17  29  44  66  97 128 156 188 233 290
#     4   9  19  37  58  76  98 135 181 221 254 291
#     4   9  16  26  43  65  87 115 151 189 229 277
#
# _framework density 17.949964999999999
#
# number of rings (size 3 to 8) (size 9 to 14) (size 15 to 20)
#    0.000    2.625    0.000    2.625    0.000    5.000 
#    0.000    0.625    0.000    1.125    0.000    5.250 
#    0.000    0.000    0.000   12.750    0.000    0.000 
#
# Total GULP energy -356363.031013 kJ/mol
# GULP energy per Si atom -5568.172360 kJ/mol
# Density = 1.790911 g / cm^3
# Si number density = 17.949965 Si / 1000 Ang^3
#
#
#
# Elastic Constant Matrix: (Units=GPa)
#
#
# Indices 1 2 3 4 5 6 
#
# 1 32.5776 28.5110 0.0255 0.0000 0.0000 0.0000
# 2 28.5110 120.1104 17.0608 0.0000 0.0000 0.0000
# 3 0.0255 17.0608 21.4779 0.0000 0.0000 0.0000
# 4 0.0000 0.0000 0.0000 10.3204 0.0000 0.0000
# 5 0.0000 0.0000 0.0000 0.0000 16.1634 0.0000
# 6 0.0000 0.0000 0.0000 0.0000 0.0000 26.9991
#
#
#
# Elastic Compliance Matrix: (Units=1/GPa)
#
#
# Indices 1 2 3 4 5 6 
#
# 1 0.040064 -0.010712 0.008462 0.000000 0.000000 0.000000
# 2 -0.010712 0.012249 -0.009717 0.000000 0.000000 0.000000
# 3 0.008462 -0.009717 0.054268 0.000000 0.000000 0.000000
# 4 0.000000 0.000000 0.000000 0.096895 0.000000 0.000000
# 5 0.000000 0.000000 0.000000 0.000000 0.061868 0.000000
# 6 0.000000 0.000000 0.000000 0.000000 0.000000 0.037038
#
#
# Mechanical properties :
#
#
# Convention : Reuss Voigt Hill
#
# Bulk Modulus (GPa) = 12.09981 29.48450 20.79215
# Shear Modulus (GPa) = 14.12964 19.26784 16.69874
#
# Velocity S-wave (km/s) = 2.80870 3.27986 3.05338
# Velocity P-wave (km/s) = 4.15618 5.55022 4.90300
#
# Compressibility (1/GPa) = 0.08264595
#
# Stress axis : x y z
#
# Youngs Moduli (GPa) = 24.95994 81.64170 18.42706
#
# Poissons Ratio (x) = 0.87455 -0.15592
# Poissons Ratio (y) = 0.26737 0.17905
# Poissons Ratio (z) = -0.21120 0.79330
#
# Static dielectric constant tensor:
#      x y z
#    x 1.699940 0.000000 0.000000 
#    y 0.000000 1.660220 0.000000 
#    z 0.000000 0.000000 1.612130 
# 
# From -- ./inp_files/64148.got.cif
#   From: 2010.05.17/outbox.cif.g08.bks.cpg/sg65_33_cif.got.tgz:64148.got - 2010.06.03 17:01:31.
