data_PCOD9487188
_publ_section_title
;
Structure prediction by ZEFSAII (Michael W. Deem and Ramdas Pophale) SiO2 
 PCOD9487188
Probable space group: C M M M
;
_chemical_formula_sum "Si O2"
_cell_formula_units_Z 104
_cell_length_a 29.693927
_cell_length_b 8.297249
_cell_length_c 24.229854
_cell_angle_alpha 90.000000
_cell_angle_beta 90.000000
_cell_angle_gamma 90.000000
_cell_volume 5969.700694
_symmetry_space_group_name_H-M "C M M M"
_symmetry_group_IT_number 65
_symmetry_cell_setting 'orthorhombic'
loop_
_space_group_symop_operation_xyz
x,y,z
-x,-y,z
x,-y,-z
-x,y,-z
-x,-y,-z
x,y,-z
-x,y,z
x,-y,z
1/2+x,1/2+y,z
1/2-x,1/2-y,z
1/2+x,1/2-y,-z
1/2-x,1/2+y,-z
1/2-x,1/2-y,-z
1/2+x,1/2+y,-z
1/2-x,1/2+y,z
1/2+x,1/2-y,z
loop_
_atom_site_type_symbol
_atom_site_label
_atom_site_fract_x
_atom_site_fract_y
_atom_site_fract_z
Si Si1 0.554716 0.186090 0.500000
Si Si2 0.701098 0.306976 0.101763
Si Si3 0.393191 0.307149 0.274638
Si Si4 0.052083 0.695388 0.832461
Si Si5 0.106516 0.306215 0.939631
Si Si6 0.798701 0.806005 0.230125
Si Si7 0.051858 0.305006 0.379714
O O1 0.500000 0.182558 0.500000
O O2 0.566972 0.257033 0.559661
O O3 0.570401 0.000000 0.500000
O O4 0.699471 0.500000 0.100170
O O5 0.750000 0.250000 0.081667
O O6 0.658527 0.238488 0.069662
O O7 0.696796 0.252767 0.166029
O O8 0.392441 0.500000 0.276723
O O9 0.422402 0.255011 0.221793
O O10 0.342059 0.248890 0.264019
O O11 0.416161 0.244436 0.330101
O O12 0.053189 0.500000 0.832017
O O13 0.077663 0.753555 0.887569
O O14 0.000000 0.745645 0.832265
O O15 0.102712 0.500000 0.939541
O O16 0.091564 0.247281 0.000000
O O17 0.750000 0.750000 0.250576
O O18 0.799046 0.000000 0.229664
O O19 0.050842 0.500000 0.382756
O O20 0.000000 0.252330 0.369482
#
# Coordination Sequence:
#
# PCOD9487188 Si02
#       7
#     8  16  16  16  16  16  16
#     4   7  12  26  47  69  98 135 174 213 242 271
#     4  10  19  34  54  75  98 125 157 196 244 299
#     4  11  21  33  49  75 106 132 160 200 249 295
#     4  10  21  36  53  72  95 127 166 205 244 289
#     4  10  21  36  53  73  96 124 161 204 250 298
#     4   9  19  33  50  72  97 125 158 196 242 294
#     4   9  17  30  49  74 103 138 177 209 239 280
#
# _framework density 17.421309000000001
#
# number of rings (size 3 to 8) (size 9 to 14) (size 15 to 20)
#    0.000    2.385    1.538    2.308    0.000    5.231 
#    0.000    1.923    0.000    1.385    0.000    2.692 
#    0.000    0.000    0.000    0.000    0.000    0.000 
#
# Total GULP energy -290021.294537 kJ/mol
# GULP energy per Si atom -5577.332587 kJ/mol
# Density = 1.738166 g / cm^3
# Si number density = 17.421309 Si / 1000 Ang^3
#
#
#
# Elastic Constant Matrix: (Units=GPa)
#
#
# Indices 1 2 3 4 5 6 
#
# 1 112.5372 7.4769 73.8926 0.0000 0.0000 0.0000
# 2 7.4769 7.5903 13.7124 0.0000 0.0000 0.0000
# 3 73.8926 13.7124 150.7068 0.0000 0.0000 0.0000
# 4 0.0000 0.0000 0.0000 5.1745 0.0000 0.0000
# 5 0.0000 0.0000 0.0000 0.0000 24.8342 0.0000
# 6 0.0000 0.0000 0.0000 0.0000 0.0000 22.2233
#
#
#
# Elastic Compliance Matrix: (Units=1/GPa)
#
#
# Indices 1 2 3 4 5 6 
#
# 1 0.013120 -0.001559 -0.006291 0.000000 0.000000 0.000000
# 2 -0.001559 0.157848 -0.013598 0.000000 0.000000 0.000000
# 3 -0.006291 -0.013598 0.010957 0.000000 0.000000 0.000000
# 4 0.000000 0.000000 0.000000 0.193257 0.000000 0.000000
# 5 0.000000 0.000000 0.000000 0.000000 0.040267 0.000000
# 6 0.000000 0.000000 0.000000 0.000000 0.000000 0.044998
#
#
# Mechanical properties :
#
#
# Convention : Reuss Voigt Hill
#
# Bulk Modulus (GPa) = 7.19269 51.22200 29.20734
# Shear Modulus (GPa) = 9.09609 22.16321 15.62965
#
# Velocity S-wave (km/s) = 2.28748 3.57065 2.99851
# Velocity P-wave (km/s) = 3.33383 6.81653 5.36561
#
# Compressibility (1/GPa) = 0.13903000
#
# Stress axis : x y z
#
# Youngs Moduli (GPa) = 76.21757 6.33520 91.26415
#
# Poissons Ratio (x) = 0.00988 0.57416
# Poissons Ratio (y) = 0.11883 1.24099
# Poissons Ratio (z) = 0.47950 0.08614
#
# Static dielectric constant tensor:
#      x y z
#    x 1.581560 0.000000 0.000000 
#    y 0.000000 1.605110 0.000000 
#    z 0.000000 0.000000 1.608630 
# 
# From -- ./inp_files/72102.got.cif
#   From: 2010.05.17/outbox.cif.g08.bks.cpg/sg65_37_cif.got.tgz:72102.got - 2010.06.03 17:01:31.
