data_PCOD9487385
_publ_section_title
;
Structure prediction by ZEFSAII (Michael W. Deem and Ramdas Pophale) SiO2 
 PCOD9487385
Probable space group: C M M M
;
_chemical_formula_sum "Si O2"
_cell_formula_units_Z 112
_cell_length_a 13.566972
_cell_length_b 28.253634
_cell_length_c 12.215714
_cell_angle_alpha 90.000000
_cell_angle_beta 90.000000
_cell_angle_gamma 90.000000
_cell_volume 4682.481821
_symmetry_space_group_name_H-M "C M M M"
_symmetry_group_IT_number 65
_symmetry_cell_setting 'orthorhombic'
loop_
_space_group_symop_operation_xyz
x,y,z
-x,-y,z
x,-y,-z
-x,y,-z
-x,-y,-z
x,y,-z
-x,y,z
x,-y,z
1/2+x,1/2+y,z
1/2-x,1/2-y,z
1/2+x,1/2-y,-z
1/2-x,1/2+y,-z
1/2-x,1/2-y,-z
1/2+x,1/2+y,-z
1/2-x,1/2+y,z
1/2+x,1/2-y,z
loop_
_atom_site_type_symbol
_atom_site_label
_atom_site_fract_x
_atom_site_fract_y
_atom_site_fract_z
Si Si1 0.618835 0.053905 0.625388
Si Si2 0.882261 0.639295 0.210892
Si Si3 0.883864 0.822726 0.335801
Si Si4 0.717675 0.305151 0.881759
Si Si5 0.613045 0.443449 0.877030
Si Si6 0.380778 0.780854 0.385277
Si Si7 0.119359 0.074127 0.378122
O O1 0.644527 0.068059 0.500000
O O2 0.500000 0.051484 0.625723
O O3 0.640496 0.091789 0.720591
O O4 0.655818 0.000000 0.644714
O O5 0.806680 0.656264 0.118624
O O6 0.857950 0.683066 0.291279
O O7 0.000000 0.639286 0.184003
O O8 0.859253 0.821570 0.208348
O O9 0.844432 0.772741 0.377621
O O10 0.847571 0.871330 0.384374
O O11 0.000000 0.823038 0.356202
O O12 0.750000 0.250000 0.861716
O O13 0.670097 0.304270 0.000000
O O14 0.500000 0.425325 0.874118
O O15 0.611345 0.500000 0.886151
O O16 0.650176 0.437695 0.748967
O O17 0.653689 0.427610 0.000000
O O18 0.352823 0.802789 0.500000
O O19 0.500000 0.777267 0.382169
O O20 0.145939 0.053268 0.500000
O O21 0.000000 0.069405 0.375135
#
# Coordination Sequence:
#
# PCOD9487385 Si02
#       7
#    16  16  16  16  16  16  16
#     4   8  14  27  52  88 126 159 190 229 283 354
#     4  10  19  34  57  85 118 156 194 233 290 357
#     4  10  20  36  55  77 109 149 191 238 296 352
#     4  11  24  40  56  78 110 148 201 259 301 351
#     4   8  14  25  42  67 100 136 178 231 288 348
#     4   9  16  28  49  76 108 147 186 225 273 337
#     4   9  17  29  48  74 104 138 177 228 290 347
#
# _framework density 23.918939999999999
#
# number of rings (size 3 to 8) (size 9 to 14) (size 15 to 20)
#    0.000    2.714    1.429    1.714    0.000    4.857 
#    0.000    7.857    0.000    1.286    0.000    2.000 
#    0.000    0.000    0.000    0.000    0.000    0.000 
#
# Total GULP energy -311800.251593 kJ/mol
# GULP energy per Si atom -5567.861636 kJ/mol
# Density = 2.386450 g / cm^3
# Si number density = 23.918940 Si / 1000 Ang^3
#
#
#
# Elastic Constant Matrix: (Units=GPa)
#
#
# Indices 1 2 3 4 5 6 
#
# 1 70.5466 11.5142 1.2764 0.0000 0.0000 0.0000
# 2 11.5142 113.2822 42.9223 0.0000 0.0000 0.0000
# 3 1.2764 42.9223 191.2992 0.0000 0.0000 0.0000
# 4 0.0000 0.0000 0.0000 -7.1693 0.0000 0.0000
# 5 0.0000 0.0000 0.0000 0.0000 36.1585 0.0000
# 6 0.0000 0.0000 0.0000 0.0000 0.0000 18.4297
#
#
#
# Elastic Compliance Matrix: (Units=1/GPa)
#
#
# Indices 1 2 3 4 5 6 
#
# 1 0.014425 -0.001563 0.000254 0.000000 0.000000 0.000000
# 2 -0.001563 0.009817 -0.002192 0.000000 0.000000 0.000000
# 3 0.000254 -0.002192 0.005718 0.000000 0.000000 0.000000
# 4 0.000000 0.000000 0.000000 -0.139484 0.000000 0.000000
# 5 0.000000 0.000000 0.000000 0.000000 0.027656 0.000000
# 6 0.000000 0.000000 0.000000 0.000000 0.000000 0.054260
#
#
# Mechanical properties :
#
#
# Convention : Reuss Voigt Hill
#
# Bulk Modulus (GPa) = 43.55577 54.06153 48.80865
# Shear Modulus (GPa) = -385.99405 30.77813 -177.60796
#
# Velocity S-wave (km/s) = -12.71716 3.59105 -8.62643
# Velocity P-wave (km/s) = 14.04940 6.31231 8.87526
#
# Compressibility (1/GPa) = 0.02295907
#
# Stress axis : x y z
#
# Youngs Moduli (GPa) = 69.32182 101.86451 174.89877
#
# Poissons Ratio (x) = 0.15917 -0.04449
# Poissons Ratio (y) = 0.10832 0.38342
# Poissons Ratio (z) = -0.01763 0.22331
#
# Static dielectric constant tensor:
#      x y z
#    x 1.955370 0.000000 0.000000 
#    y 0.000000 1.923770 0.000000 
#    z 0.000000 0.000000 1.942490 
# 
# From -- ./inp_files/25556.got.cif
#   From: 2010.05.17/outbox.cif.g08.bks.cpg/sg65_13_cif.got.tgz:25556.got - 2010.06.03 17:01:31.
