data_PCOD9487207
_publ_section_title
;
Structure prediction by ZEFSAII (Michael W. Deem and Ramdas Pophale) SiO2 
 PCOD9487207
Probable space group: C M M M
;
_chemical_formula_sum "Si O2"
_cell_formula_units_Z 104
_cell_length_a 18.399809
_cell_length_b 14.534421
_cell_length_c 18.476395
_cell_angle_alpha 90.000000
_cell_angle_beta 90.000000
_cell_angle_gamma 90.000000
_cell_volume 4941.152852
_symmetry_space_group_name_H-M "C M M M"
_symmetry_group_IT_number 65
_symmetry_cell_setting 'orthorhombic'
loop_
_space_group_symop_operation_xyz
x,y,z
-x,-y,z
x,-y,-z
-x,y,-z
-x,-y,-z
x,y,-z
-x,y,z
x,-y,z
1/2+x,1/2+y,z
1/2-x,1/2-y,z
1/2+x,1/2-y,-z
1/2-x,1/2+y,-z
1/2-x,1/2-y,-z
1/2+x,1/2+y,-z
1/2-x,1/2+y,z
1/2+x,1/2-y,z
loop_
_atom_site_type_symbol
_atom_site_label
_atom_site_fract_x
_atom_site_fract_y
_atom_site_fract_z
Si Si1 0.190906 0.897159 0.698807
Si Si2 0.919574 0.803963 0.912350
Si Si3 0.682812 0.108434 0.584405
Si Si4 0.912968 0.897721 0.500000
Si Si5 0.269052 0.642665 0.854906
Si Si6 0.618021 0.901393 0.085223
Si Si7 0.414179 0.730587 0.362209
O O1 0.247315 0.875412 0.634734
O O2 0.233125 0.896434 0.774334
O O3 0.129905 0.818421 0.701850
O O4 0.160371 0.000000 0.686790
O O5 0.851167 0.862178 0.884325
O O6 0.911378 0.696797 0.887119
O O7 0.000000 0.837343 0.891587
O O8 0.915055 0.802940 0.000000
O O9 0.696800 0.130891 0.500000
O O10 0.619053 0.172092 0.615262
O O11 0.665473 0.000000 0.588735
O O12 0.897417 0.838571 0.570873
O O13 0.000000 0.908037 0.500000
O O14 0.879247 0.000000 0.500000
O O15 0.250000 0.750000 0.851178
O O16 0.205090 0.601849 0.903567
O O17 0.591977 0.000000 0.115884
O O18 0.601173 0.902009 0.000000
O O19 0.500000 0.734736 0.350537
#
# Coordination Sequence:
#
# PCOD9487207 Si02
#       7
#    16  16  16   8  16  16  16
#     4  11  24  39  58  83 111 148 189 233 283 333
#     4   9  18  32  52  80 112 145 181 222 273 329
#     4  10  22  40  61  86 114 144 182 228 280 338
#     4   9  18  32  50  75 107 141 175 214 262 316
#     4  10  19  34  54  77 107 145 188 231 272 324
#     4   9  17  30  52  80 108 141 181 226 273 323
#     4  11  22  37  58  84 112 145 182 226 277 332
#
# _framework density 21.047720000000002
#
# number of rings (size 3 to 8) (size 9 to 14) (size 15 to 20)
#    0.000    2.077    0.769    2.769    1.077    4.615 
#    0.000    2.308    0.000    1.385    0.000    9.692 
#    0.000    0.000    0.000    0.000    0.000    0.000 
#
# Total GULP energy -290267.721447 kJ/mol
# GULP energy per Si atom -5582.071566 kJ/mol
# Density = 2.099981 g / cm^3
# Si number density = 21.047720 Si / 1000 Ang^3
#
#
#
# Elastic Constant Matrix: (Units=GPa)
#
#
# Indices 1 2 3 4 5 6 
#
# 1 99.2756 19.5197 4.9493 0.0000 0.0000 0.0000
# 2 19.5197 66.4191 -1.3031 0.0000 0.0000 0.0000
# 3 4.9493 -1.3031 20.2011 0.0000 0.0000 0.0000
# 4 0.0000 0.0000 0.0000 -8.4989 0.0000 0.0000
# 5 0.0000 0.0000 0.0000 0.0000 10.8511 0.0000
# 6 0.0000 0.0000 0.0000 0.0000 0.0000 12.1403
#
#
#
# Elastic Compliance Matrix: (Units=1/GPa)
#
#
# Indices 1 2 3 4 5 6 
#
# 1 0.010854 -0.003246 -0.002869 0.000000 0.000000 0.000000
# 2 -0.003246 0.016046 0.001830 0.000000 0.000000 0.000000
# 3 -0.002869 0.001830 0.050323 0.000000 0.000000 0.000000
# 4 0.000000 0.000000 0.000000 -0.117663 0.000000 0.000000
# 5 0.000000 0.000000 0.000000 0.000000 0.092156 0.000000
# 6 0.000000 0.000000 0.000000 0.000000 0.000000 0.082370
#
#
# Mechanical properties :
#
#
# Convention : Reuss Voigt Hill
#
# Bulk Modulus (GPa) = 14.56575 25.80307 20.18441
# Shear Modulus (GPa) = 30.20405 13.74717 21.97561
#
# Velocity S-wave (km/s) = 3.79228 2.55844 3.23474
# Velocity P-wave (km/s) = 5.10985 4.58404 4.85407
#
# Compressibility (1/GPa) = 0.06865420
#
# Stress axis : x y z
#
# Youngs Moduli (GPa) = 92.12970 62.32143 19.87154
#
# Poissons Ratio (x) = 0.20231 0.05701
# Poissons Ratio (y) = 0.29907 -0.03637
# Poissons Ratio (z) = 0.26429 -0.11407
#
# Static dielectric constant tensor:
#      x y z
#    x 1.753130 0.000000 0.000000 
#    y 0.000000 1.799780 0.000000 
#    z 0.000000 0.000000 1.764930 
# 
# From -- ./inp_files/63808.got.cif
#   From: 2010.05.17/outbox.cif.g08.bks.cpg/sg65_32_cif.got.tgz:63808.got - 2010.06.03 17:01:31.
