data_PCOD9487398
_publ_section_title
;
Structure prediction by ZEFSAII (Michael W. Deem and Ramdas Pophale) SiO2 
 PCOD9487398
Probable space group: C M M M
;
_chemical_formula_sum "Si O2"
_cell_formula_units_Z 88
_cell_length_a 10.352957
_cell_length_b 20.846153
_cell_length_c 22.794780
_cell_angle_alpha 90.000000
_cell_angle_beta 90.000000
_cell_angle_gamma 90.000000
_cell_volume 4919.554047
_symmetry_space_group_name_H-M "C M M M"
_symmetry_group_IT_number 65
_symmetry_cell_setting 'orthorhombic'
loop_
_space_group_symop_operation_xyz
x,y,z
-x,-y,z
x,-y,-z
-x,y,-z
-x,-y,-z
x,y,-z
-x,y,z
x,-y,z
1/2+x,1/2+y,z
1/2-x,1/2-y,z
1/2+x,1/2-y,-z
1/2-x,1/2+y,-z
1/2-x,1/2-y,-z
1/2+x,1/2+y,-z
1/2-x,1/2+y,z
1/2+x,1/2-y,z
loop_
_atom_site_type_symbol
_atom_site_label
_atom_site_fract_x
_atom_site_fract_y
_atom_site_fract_z
Si Si1 0.655367 0.633732 0.064850
Si Si2 0.648912 0.302167 0.184185
Si Si3 0.145601 0.500000 0.234553
Si Si4 0.154235 0.000000 0.126710
Si Si5 0.750000 0.750000 0.358926
Si Si6 0.500000 0.707568 0.431536
Si Si7 0.000000 0.072984 0.625124
Si Si8 0.727694 0.382038 0.709392
O O1 0.500000 0.639736 0.061684
O O2 0.693748 0.677683 0.119303
O O3 0.680724 0.561875 0.086708
O O4 0.708530 0.647175 0.000000
O O5 0.500000 0.280338 0.183070
O O6 0.750000 0.250000 0.205147
O O7 0.659377 0.360501 0.229829
O O8 0.253148 0.500000 0.183085
O O9 0.168951 0.435821 0.272934
O O10 0.000000 0.500000 0.210834
O O11 0.000000 0.000000 0.142397
O O12 0.625308 0.735388 0.398590
O O13 0.772038 0.684584 0.321324
O O14 0.500000 0.723137 0.500000
O O15 0.500000 0.630440 0.421868
O O16 0.123958 0.085497 0.666401
O O17 0.000000 0.000000 0.603129
#
# Coordination Sequence:
#
# PCOD9487398 Si02
#       8
#    16  16   8   8   8   8   8  16
#     4   9  18  33  54  79 103 140 196 243 289 357
#     4  11  22  35  56  82 113 150 190 249 303 352
#     4  12  26  35  55  89 127 155 187 247 309 360
#     4  10  19  34  58  80 102 145 189 241 298 354
#     4  10  23  38  64  90 119 158 202 238 282 342
#     4  10  22  41  64  93 122 157 198 243 286 330
#     4  10  20  35  62  92 118 153 198 240 281 343
#     4  11  21  37  59  86 120 156 201 237 292 351
#
# _framework density 17.887799000000001
#
# number of rings (size 3 to 8) (size 9 to 14) (size 15 to 20)
#    0.000    1.636    4.545    0.545    2.545    2.364 
#    0.000    0.000    0.000    2.182    0.000    0.636 
#    0.000    0.000    0.000    0.000    0.000    0.000 
#
# Total GULP energy -245274.893776 kJ/mol
# GULP energy per Si atom -5574.429404 kJ/mol
# Density = 1.784709 g / cm^3
# Si number density = 17.887799 Si / 1000 Ang^3
#
#
#
# Elastic Constant Matrix: (Units=GPa)
#
#
# Indices 1 2 3 4 5 6 
#
# 1 77.0228 35.2422 32.1434 0.0000 0.0000 0.0000
# 2 35.2422 93.1096 33.8934 0.0000 0.0000 0.0000
# 3 32.1434 33.8934 109.5206 0.0000 0.0000 0.0000
# 4 0.0000 0.0000 0.0000 -42.2792 0.0000 0.0000
# 5 0.0000 0.0000 0.0000 0.0000 -3.0911 0.0000
# 6 0.0000 0.0000 0.0000 0.0000 0.0000 22.7649
#
#
#
# Elastic Compliance Matrix: (Units=1/GPa)
#
#
# Indices 1 2 3 4 5 6 
#
# 1 0.016710 -0.005116 -0.003321 0.000000 0.000000 0.000000
# 2 -0.005116 0.013670 -0.002729 0.000000 0.000000 0.000000
# 3 -0.003321 -0.002729 0.010950 0.000000 0.000000 0.000000
# 4 0.000000 0.000000 0.000000 -0.023652 0.000000 0.000000
# 5 0.000000 0.000000 0.000000 0.000000 -0.323511 0.000000
# 6 0.000000 0.000000 0.000000 0.000000 0.000000 0.043927
#
#
# Mechanical properties :
#
#
# Convention : Reuss Voigt Hill
#
# Bulk Modulus (GPa) = 52.63712 53.57902 53.10807
# Shear Modulus (GPa) = -21.43694 7.37052 -7.03321
#
# Velocity S-wave (km/s) = -3.46556 2.03208 -1.98504
# Velocity P-wave (km/s) = 3.67105 5.96017 4.94976
#
# Compressibility (1/GPa) = 0.01899800
#
# Stress axis : x y z
#
# Youngs Moduli (GPa) = 59.84487 73.15417 91.32486
#
# Poissons Ratio (x) = 0.37424 0.30329
# Poissons Ratio (y) = 0.30616 0.24922
# Poissons Ratio (z) = 0.19875 0.19963
#
# Static dielectric constant tensor:
#      x y z
#    x 1.583580 0.000000 0.000000 
#    y 0.000000 1.634150 0.000000 
#    z 0.000000 0.000000 1.624380 
# 
# From -- ./inp_files/61545.got.cif
#   From: 2010.05.17/outbox.cif.g08.bks.cpg/sg65_31_cif.got.tgz:61545.got - 2010.06.03 17:01:31.
