data_PCOD9487831
_publ_section_title
;
Structure prediction by ZEFSAII (Michael W. Deem and Ramdas Pophale) SiO2 
 PCOD9487831
Probable space group: C M M M
;
_chemical_formula_sum "Si O2"
_cell_formula_units_Z 104
_cell_length_a 21.483658
_cell_length_b 30.713614
_cell_length_c 9.468701
_cell_angle_alpha 90.000000
_cell_angle_beta 90.000000
_cell_angle_gamma 90.000000
_cell_volume 6247.835045
_symmetry_space_group_name_H-M "C M M M"
_symmetry_group_IT_number 65
_symmetry_cell_setting 'orthorhombic'
loop_
_space_group_symop_operation_xyz
x,y,z
-x,-y,z
x,-y,-z
-x,y,-z
-x,-y,-z
x,y,-z
-x,y,z
x,-y,z
1/2+x,1/2+y,z
1/2-x,1/2-y,z
1/2+x,1/2-y,-z
1/2-x,1/2+y,-z
1/2-x,1/2-y,-z
1/2+x,1/2+y,-z
1/2-x,1/2+y,z
1/2+x,1/2-y,z
loop_
_atom_site_type_symbol
_atom_site_label
_atom_site_fract_x
_atom_site_fract_y
_atom_site_fract_z
Si Si1 0.377933 0.447685 0.663354
Si Si2 0.500000 0.446960 0.162741
Si Si3 0.854536 0.375161 0.835570
Si Si4 0.336098 0.208580 0.337119
Si Si5 0.813899 0.194755 0.663389
Si Si6 0.425473 0.950112 0.667217
Si Si7 0.794363 0.111704 0.836084
O O1 0.381483 0.433953 0.500000
O O2 0.375648 0.500000 0.665914
O O3 0.438694 0.433600 0.751483
O O4 0.318842 0.427680 0.741602
O O5 0.500000 0.500000 0.160632
O O6 0.500000 0.432336 0.000000
O O7 0.864941 0.328492 0.760807
O O8 0.890156 0.413687 0.755779
O O9 0.780242 0.383979 0.826942
O O10 0.871827 0.373638 0.000000
O O11 0.355866 0.202819 0.500000
O O12 0.261046 0.201960 0.334695
O O13 0.344981 0.259158 0.296806
O O14 0.830190 0.184570 0.500000
O O15 0.824708 0.155099 0.768778
O O16 0.412404 0.944694 0.500000
O O17 0.500000 0.946059 0.685746
O O18 0.408276 0.000000 0.706089
O O19 0.811201 0.106381 0.000000
#
# Coordination Sequence:
#
# PCOD9487831 Si02
#       7
#    16   8  16  16  16  16  16
#     4  10  20  33  49  69  93 124 164 204 237 275
#     4   9  17  31  51  71  91 117 151 193 237 277
#     4  10  20  31  46  72 102 129 158 195 242 294
#     4   8  14  26  45  67  92 123 157 193 231 275
#     4   8  14  26  44  66  92 123 159 195 231 275
#     4   9  19  36  55  72  91 121 164 209 250 296
#     4  10  20  31  44  68 102 134 161 194 241 293
#
# _framework density 16.645765999999998
#
# number of rings (size 3 to 8) (size 9 to 14) (size 15 to 20)
#    0.000    2.846    0.000    3.000    0.000    5.538 
#    0.000    6.923    0.000    0.000    2.000    0.000 
#    0.000    0.000    0.000    0.000    0.000    0.000 
#
# Total GULP energy -289672.620612 kJ/mol
# GULP energy per Si atom -5570.627319 kJ/mol
# Density = 1.660788 g / cm^3
# Si number density = 16.645766 Si / 1000 Ang^3
#
#
#
# Elastic Constant Matrix: (Units=GPa)
#
#
# Indices 1 2 3 4 5 6 
#
# 1 16.5554 25.8148 33.3312 0.0000 0.0000 0.0000
# 2 25.8148 95.6735 72.1961 0.0000 0.0000 0.0000
# 3 33.3312 72.1961 127.6862 0.0000 0.0000 0.0000
# 4 0.0000 0.0000 0.0000 19.6936 0.0000 0.0000
# 5 0.0000 0.0000 0.0000 0.0000 19.3629 0.0000
# 6 0.0000 0.0000 0.0000 0.0000 0.0000 5.7456
#
#
#
# Elastic Compliance Matrix: (Units=1/GPa)
#
#
# Indices 1 2 3 4 5 6 
#
# 1 0.143486 -0.018229 -0.027148 0.000000 0.000000 0.000000
# 2 -0.018229 0.020547 -0.006859 0.000000 0.000000 0.000000
# 3 -0.027148 -0.006859 0.018797 0.000000 0.000000 0.000000
# 4 0.000000 0.000000 0.000000 0.050778 0.000000 0.000000
# 5 0.000000 0.000000 0.000000 0.000000 0.051645 0.000000
# 6 0.000000 0.000000 0.000000 0.000000 0.000000 0.174047
#
#
# Mechanical properties :
#
#
# Convention : Reuss Voigt Hill
#
# Bulk Modulus (GPa) = 12.76222 55.84438 34.30330
# Shear Modulus (GPa) = 8.47614 16.19863 12.33739
#
# Velocity S-wave (km/s) = 2.25901 3.12290 2.72540
# Velocity P-wave (km/s) = 3.80628 6.82824 5.52778
#
# Compressibility (1/GPa) = 0.07835629
#
# Stress axis : x y z
#
# Youngs Moduli (GPa) = 6.96931 48.66976 53.20093
#
# Poissons Ratio (x) = 0.88721 1.44432
# Poissons Ratio (y) = 0.12705 0.36490
# Poissons Ratio (z) = 0.18921 0.33382
#
# Static dielectric constant tensor:
#      x y z
#    x 1.550710 0.000000 0.000000 
#    y 0.000000 1.572300 0.000000 
#    z 0.000000 0.000000 1.555760 
# 
# From -- ./inp_files/12777.got.cif
#   From: 2010.05.17/outbox.cif.g08.bks.cpg/sg65_7_cif.got.tgz:12777.got - 2010.06.03 17:01:31.
