data_PCOD9487479
_publ_section_title
;
Structure prediction by ZEFSAII (Michael W. Deem and Ramdas Pophale) SiO2 
 PCOD9487479
Probable space group: C M M M
;
_chemical_formula_sum "Si O2"
_cell_formula_units_Z 68
_cell_length_a 25.315900
_cell_length_b 17.011280
_cell_length_c 7.637831
_cell_angle_alpha 90.000000
_cell_angle_beta 90.000000
_cell_angle_gamma 90.000000
_cell_volume 3289.276703
_symmetry_space_group_name_H-M "C M M M"
_symmetry_group_IT_number 65
_symmetry_cell_setting 'orthorhombic'
loop_
_space_group_symop_operation_xyz
x,y,z
-x,-y,z
x,-y,-z
-x,y,-z
-x,-y,-z
x,y,-z
-x,y,z
x,-y,z
1/2+x,1/2+y,z
1/2-x,1/2-y,z
1/2+x,1/2-y,-z
1/2-x,1/2+y,-z
1/2-x,1/2-y,-z
1/2+x,1/2+y,-z
1/2-x,1/2+y,z
1/2+x,1/2-y,z
loop_
_atom_site_type_symbol
_atom_site_label
_atom_site_fract_x
_atom_site_fract_y
_atom_site_fract_z
Si Si1 0.849175 0.209571 0.798631
Si Si2 0.061071 0.089397 0.711802
Si Si3 0.763624 0.086879 0.212907
Si Si4 0.607344 0.000000 0.000000
Si Si5 0.141910 0.385722 0.305678
O O1 0.899058 0.151893 0.789642
O O2 0.800450 0.158027 0.725879
O O3 0.861406 0.291670 0.709324
O O4 0.836013 0.228745 0.000000
O O5 0.064669 0.093045 0.500000
O O6 0.000000 0.104092 0.759009
O O7 0.074302 0.000000 0.765134
O O8 0.703951 0.094616 0.277511
O O9 0.784077 0.000000 0.263489
O O10 0.762325 0.089061 0.000000
O O11 0.611582 0.931587 0.153945
O O12 0.125486 0.409273 0.500000
#
# Coordination Sequence:
#
# PCOD9487479 Si02
#       5
#    16  16  16   4  16
#     4  11  22  35  55  85 118 151 192 245 289 339
#     4   9  19  37  58  82 117 156 195 240 286 341
#     4  10  19  35  53  77 118 158 193 238 284 333
#     4  12  22  44  58  82 115 148 199 248 286 344
#     4  12  23  38  60  82 113 157 196 239 293 343
#
# _framework density 20.673238000000001
#
# number of rings (size 3 to 8) (size 9 to 14) (size 15 to 20)
#    0.000    1.412    3.529    3.176    0.000    6.588 
#    0.000    1.176    0.000    0.000    0.000    1.647 
#    0.000    3.765    0.000    0.000    0.000    0.000 
#
# Total GULP energy -189537.129246 kJ/mol
# GULP energy per Si atom -5574.621448 kJ/mol
# Density = 2.062618 g / cm^3
# Si number density = 20.673238 Si / 1000 Ang^3
#
#
#
# Elastic Constant Matrix: (Units=GPa)
#
#
# Indices 1 2 3 4 5 6 
#
# 1 16.6743 4.3988 -11.1069 0.0000 0.0000 0.0000
# 2 4.3988 124.7902 24.2043 0.0000 0.0000 0.0000
# 3 -11.1069 24.2043 111.5212 0.0000 0.0000 0.0000
# 4 0.0000 0.0000 0.0000 4.7210 0.0000 0.0000
# 5 0.0000 0.0000 0.0000 0.0000 17.0271 0.0000
# 6 0.0000 0.0000 0.0000 0.0000 0.0000 49.3575
#
#
#
# Elastic Compliance Matrix: (Units=1/GPa)
#
#
# Indices 1 2 3 4 5 6 
#
# 1 0.065875 -0.003753 0.007375 0.000000 0.000000 0.000000
# 2 -0.003753 0.008579 -0.002236 0.000000 0.000000 0.000000
# 3 0.007375 -0.002236 0.010187 0.000000 0.000000 0.000000
# 4 0.000000 0.000000 0.000000 0.211817 0.000000 0.000000
# 5 0.000000 0.000000 0.000000 0.000000 0.058730 0.000000
# 6 0.000000 0.000000 0.000000 0.000000 0.000000 0.020260
#
#
# Mechanical properties :
#
#
# Convention : Reuss Voigt Hill
#
# Bulk Modulus (GPa) = 11.43965 31.99757 21.71861
# Shear Modulus (GPa) = 12.44358 29.92043 21.18201
#
# Velocity S-wave (km/s) = 2.45606 3.80847 3.20443
# Velocity P-wave (km/s) = 3.68627 5.90344 4.92134
#
# Compressibility (1/GPa) = 0.08741526
#
# Stress axis : x y z
#
# Youngs Moduli (GPa) = 15.18017 116.55849 98.16728
#
# Poissons Ratio (x) = 0.43740 -0.72401
# Poissons Ratio (y) = 0.05697 0.21948
# Poissons Ratio (z) = -0.11196 0.26060
#
# Static dielectric constant tensor:
#      x y z
#    x 1.707910 0.000000 0.000000 
#    y 0.000000 1.739760 0.000000 
#    z 0.000000 0.000000 1.782400 
# 
# From -- ./inp_files/9206.got.cif
#   From: 2010.05.17/outbox.cif.g08.bks.cpg/sg65_5_cif.got.tgz:9206.got - 2010.06.03 17:01:31.
