data_PCOD9487641
_publ_section_title
;
Structure prediction by ZEFSAII (Michael W. Deem and Ramdas Pophale) SiO2 
 PCOD9487641
Probable space group: C M M M
;
_chemical_formula_sum "Si O2"
_cell_formula_units_Z 112
_cell_length_a 27.121489
_cell_length_b 19.043115
_cell_length_c 12.820770
_cell_angle_alpha 90.000000
_cell_angle_beta 90.000000
_cell_angle_gamma 90.000000
_cell_volume 6621.640956
_symmetry_space_group_name_H-M "C M M M"
_symmetry_group_IT_number 65
_symmetry_cell_setting 'orthorhombic'
loop_
_space_group_symop_operation_xyz
x,y,z
-x,-y,z
x,-y,-z
-x,y,-z
-x,-y,-z
x,y,-z
-x,y,z
x,-y,z
1/2+x,1/2+y,z
1/2-x,1/2-y,z
1/2+x,1/2-y,-z
1/2-x,1/2+y,-z
1/2-x,1/2-y,-z
1/2+x,1/2+y,-z
1/2-x,1/2+y,z
1/2+x,1/2-y,z
loop_
_atom_site_type_symbol
_atom_site_label
_atom_site_fract_x
_atom_site_fract_y
_atom_site_fract_z
Si Si1 0.133276 0.319928 0.713097
Si Si2 0.689286 0.420476 0.231194
Si Si3 0.692974 0.270503 0.876839
Si Si4 0.593929 0.576965 0.622283
Si Si5 0.784455 0.419594 0.379179
Si Si6 0.441365 0.917010 0.619347
Si Si7 0.447303 0.278779 0.624054
O O1 0.158188 0.283870 0.813555
O O2 0.176361 0.359864 0.650359
O O3 0.089897 0.378648 0.708610
O O4 0.102895 0.257401 0.659427
O O5 0.690427 0.500000 0.183313
O O6 0.686207 0.351745 0.158531
O O7 0.642565 0.418565 0.308018
O O8 0.738098 0.413846 0.302362
O O9 0.750000 0.250000 0.855427
O O10 0.684138 0.264236 0.000000
O O11 0.607446 0.584581 0.500000
O O12 0.571636 0.500000 0.635766
O O13 0.557862 0.639615 0.649781
O O14 0.769613 0.411992 0.500000
O O15 0.804501 0.500000 0.367800
O O16 0.426929 0.893999 0.500000
O O17 0.500000 0.905450 0.628073
O O18 0.433006 0.000000 0.623789
O O19 0.449258 0.271277 0.500000
O O20 0.500000 0.251804 0.666185
#
# Coordination Sequence:
#
# PCOD9487641 Si02
#       7
#    16  16  16  16  16  16  16
#     4  12  20  33  54  76 104 146 183 218 268 320
#     4  10  19  36  57  79 104 137 178 217 267 327
#     4  11  24  42  57  76 105 136 181 241 287 321
#     4   9  17  30  49  74 107 142 170 201 248 314
#     4  10  20  32  50  80 115 144 170 206 253 317
#     4   9  18  33  55  85 121 157 187 216 256 316
#     4  10  20  31  47  76 110 141 175 213 251 306
#
# _framework density 16.914235999999999
#
# number of rings (size 3 to 8) (size 9 to 14) (size 15 to 20)
#    0.000    1.857    2.857    3.000    0.000    4.571 
#    0.000    2.143    0.000    3.429    0.000    1.000 
#    0.000    2.286    0.000    0.000    0.000    0.000 
#
# Total GULP energy -311799.600866 kJ/mol
# GULP energy per Si atom -5567.850015 kJ/mol
# Density = 1.687574 g / cm^3
# Si number density = 16.914236 Si / 1000 Ang^3
#
#
#
# Elastic Constant Matrix: (Units=GPa)
#
#
# Indices 1 2 3 4 5 6 
#
# 1 82.0481 39.5337 41.4527 0.0000 0.0000 0.0000
# 2 39.5337 127.7003 43.3985 0.0000 0.0000 0.0000
# 3 41.4527 43.3985 61.0010 0.0000 0.0000 0.0000
# 4 0.0000 0.0000 0.0000 18.9382 0.0000 0.0000
# 5 0.0000 0.0000 0.0000 0.0000 14.1950 0.0000
# 6 0.0000 0.0000 0.0000 0.0000 0.0000 37.4221
#
#
#
# Elastic Compliance Matrix: (Units=1/GPa)
#
#
# Indices 1 2 3 4 5 6 
#
# 1 0.018926 -0.001963 -0.011464 0.000000 0.000000 0.000000
# 2 -0.001963 0.010532 -0.006159 0.000000 0.000000 0.000000
# 3 -0.011464 -0.006159 0.028565 0.000000 0.000000 0.000000
# 4 0.000000 0.000000 0.000000 0.052803 0.000000 0.000000
# 5 0.000000 0.000000 0.000000 0.000000 0.070447 0.000000
# 6 0.000000 0.000000 0.000000 0.000000 0.000000 0.026722
#
#
# Mechanical properties :
#
#
# Convention : Reuss Voigt Hill
#
# Bulk Modulus (GPa) = 53.04858 57.72435 55.38647
# Shear Modulus (GPa) = 19.72769 23.86868 21.79818
#
# Velocity S-wave (km/s) = 3.41887 3.76062 3.59381
# Velocity P-wave (km/s) = 6.85684 7.28410 7.07370
#
# Compressibility (1/GPa) = 0.01885064
#
# Stress axis : x y z
#
# Youngs Moduli (GPa) = 52.83771 94.95294 35.00764
#
# Poissons Ratio (x) = 0.18639 0.40134
# Poissons Ratio (y) = 0.10372 0.21560
# Poissons Ratio (z) = 0.60575 0.58478
#
# Static dielectric constant tensor:
#      x y z
#    x 1.600320 0.000000 0.000000 
#    y 0.000000 1.642790 0.000000 
#    z 0.000000 0.000000 1.533460 
# 
# From -- ./inp_files/31065.got.cif
#   From: 2010.05.17/outbox.cif.g08.bks.cpg/sg65_16_cif.got.tgz:31065.got - 2010.06.03 17:01:31.
