data_PCOD9487609
_publ_section_title
;
Structure prediction by ZEFSAII (Michael W. Deem and Ramdas Pophale) SiO2 
 PCOD9487609
Probable space group: C M M M
;
_chemical_formula_sum "Si O2"
_cell_formula_units_Z 116
_cell_length_a 17.821006
_cell_length_b 18.379456
_cell_length_c 18.843944
_cell_angle_alpha 90.000000
_cell_angle_beta 90.000000
_cell_angle_gamma 90.000000
_cell_volume 6172.152873
_symmetry_space_group_name_H-M "C M M M"
_symmetry_group_IT_number 65
_symmetry_cell_setting 'orthorhombic'
loop_
_space_group_symop_operation_xyz
x,y,z
-x,-y,z
x,-y,-z
-x,y,-z
-x,-y,-z
x,y,-z
-x,y,z
x,-y,z
1/2+x,1/2+y,z
1/2-x,1/2-y,z
1/2+x,1/2-y,-z
1/2-x,1/2+y,-z
1/2-x,1/2-y,-z
1/2+x,1/2+y,-z
1/2-x,1/2+y,z
1/2+x,1/2-y,z
loop_
_atom_site_type_symbol
_atom_site_label
_atom_site_fract_x
_atom_site_fract_y
_atom_site_fract_z
Si Si1 0.000000 0.000000 0.587816
Si Si2 0.838215 0.727438 0.649567
Si Si3 0.205286 0.581259 0.584882
Si Si4 0.123135 0.117274 0.627269
Si Si5 0.587501 0.642488 0.079597
Si Si6 0.668011 0.585461 0.219721
Si Si7 0.304053 0.814443 0.799765
Si Si8 0.913632 0.318689 0.919854
O O1 0.065052 0.064106 0.590237
O O2 0.750000 0.750000 0.643322
O O3 0.843227 0.648236 0.614980
O O4 0.882859 0.795503 0.617065
O O5 0.850505 0.718892 0.734114
O O6 0.201072 0.583455 0.500000
O O7 0.183572 0.500000 0.609422
O O8 0.292309 0.594334 0.606039
O O9 0.117042 0.104628 0.712387
O O10 0.500000 0.620980 0.085765
O O11 0.633043 0.610751 0.145223
O O12 0.589866 0.730387 0.083083
O O13 0.613655 0.621402 0.000000
O O14 0.678609 0.500000 0.218913
O O15 0.746979 0.625986 0.230077
O O16 0.250000 0.750000 0.828140
O O17 0.356567 0.844967 0.860680
O O18 0.000000 0.339376 0.906696
O O19 0.893495 0.340514 0.000000
#
# Coordination Sequence:
#
# PCOD9487609 Si02
#       8
#     4  16  16  16  16  16  16  16
#     4  12  24  36  57  80 131 174 198 224 286 366
#     4   9  18  33  53  78 114 144 193 246 288 335
#     4  10  19  35  61  88 115 147 190 243 297 344
#     4  11  21  36  51  82 116 162 203 231 283 354
#     4   9  19  33  48  70 103 144 188 231 276 339
#     4  12  22  33  51  75 110 146 187 238 290 345
#     4  11  18  33  53  79 104 140 185 246 289 323
#     4   9  18  33  53  77 105 141 185 230 286 351
#
# _framework density 18.794091000000002
#
# number of rings (size 3 to 8) (size 9 to 14) (size 15 to 20)
#    0.000    1.793    6.897    0.828    0.966    3.862 
#    1.241    1.379    0.000    0.414    0.000    1.448 
#    0.000    1.103    0.000    0.000    0.000    0.000 
#
# Total GULP energy -322959.805614 kJ/mol
# GULP energy per Si atom -5568.272511 kJ/mol
# Density = 1.875131 g / cm^3
# Si number density = 18.794091 Si / 1000 Ang^3
#
#
#
# Elastic Constant Matrix: (Units=GPa)
#
#
# Indices 1 2 3 4 5 6 
#
# 1 32.5815 22.2889 14.8377 0.0000 0.0000 0.0000
# 2 22.2889 96.4843 12.1464 0.0000 0.0000 0.0000
# 3 14.8377 12.1464 58.8870 0.0000 0.0000 0.0000
# 4 0.0000 0.0000 0.0000 12.9129 0.0000 0.0000
# 5 0.0000 0.0000 0.0000 0.0000 -143.0228 0.0000
# 6 0.0000 0.0000 0.0000 0.0000 0.0000 64.5400
#
#
#
# Elastic Compliance Matrix: (Units=1/GPa)
#
#
# Indices 1 2 3 4 5 6 
#
# 1 0.040147 -0.008214 -0.008421 0.000000 0.000000 0.000000
# 2 -0.008214 0.012321 -0.000472 0.000000 0.000000 0.000000
# 3 -0.008421 -0.000472 0.019201 0.000000 0.000000 0.000000
# 4 0.000000 0.000000 0.000000 0.077442 0.000000 0.000000
# 5 0.000000 0.000000 0.000000 0.000000 -0.006992 0.000000
# 6 0.000000 0.000000 0.000000 0.000000 0.000000 0.015494
#
#
# Mechanical properties :
#
#
# Convention : Reuss Voigt Hill
#
# Bulk Modulus (GPa) = 26.69923 31.83321 29.26622
# Shear Modulus (GPa) = 24.47227 -3.86867 10.30180
#
# Velocity S-wave (km/s) = 3.61241 -1.43629 2.34378
# Velocity P-wave (km/s) = 5.62462 3.77148 4.78855
#
# Compressibility (1/GPa) = 0.03745426
#
# Stress axis : x y z
#
# Youngs Moduli (GPa) = 24.90866 81.16007 52.08087
#
# Poissons Ratio (x) = 0.66666 0.43859
# Poissons Ratio (y) = 0.20460 0.02457
# Poissons Ratio (z) = 0.20977 0.03829
#
# Static dielectric constant tensor:
#      x y z
#    x 1.632390 0.000000 0.000000 
#    y 0.000000 1.669420 0.000000 
#    z 0.000000 0.000000 1.689930 
# 
# From -- ./inp_files/54697.got.cif
#   From: 2010.05.17/outbox.cif.g08.bks.cpg/sg65_28_cif.got.tgz:54697.got - 2010.06.03 17:01:31.
