data_PCOD9487779
_publ_section_title
;
Structure prediction by ZEFSAII (Michael W. Deem and Ramdas Pophale) SiO2 
 PCOD9487779
Probable space group: C M M M
;
_chemical_formula_sum "Si O2"
_cell_formula_units_Z 72
_cell_length_a 15.899453
_cell_length_b 16.953713
_cell_length_c 15.030460
_cell_angle_alpha 90.000000
_cell_angle_beta 90.000000
_cell_angle_gamma 90.000000
_cell_volume 4051.532083
_symmetry_space_group_name_H-M "C M M M"
_symmetry_group_IT_number 65
_symmetry_cell_setting 'orthorhombic'
loop_
_space_group_symop_operation_xyz
x,y,z
-x,-y,z
x,-y,-z
-x,y,-z
-x,-y,-z
x,y,-z
-x,y,z
x,-y,z
1/2+x,1/2+y,z
1/2-x,1/2-y,z
1/2+x,1/2-y,-z
1/2-x,1/2+y,-z
1/2-x,1/2-y,-z
1/2+x,1/2+y,-z
1/2-x,1/2+y,z
1/2+x,1/2-y,z
loop_
_atom_site_type_symbol
_atom_site_label
_atom_site_fract_x
_atom_site_fract_y
_atom_site_fract_z
Si Si1 0.832925 0.703559 0.351435
Si Si2 0.905581 0.862776 0.607100
Si Si3 0.772976 0.909495 0.251252
Si Si4 0.594325 0.595749 0.897962
Si Si5 0.100834 0.410247 0.500000
O O1 0.750000 0.750000 0.385930
O O2 0.899787 0.773986 0.352751
O O3 0.799565 0.655325 0.266273
O O4 0.864742 0.636432 0.416205
O O5 0.891905 0.860337 0.500000
O O6 0.832920 0.907700 0.660825
O O7 0.000000 0.894389 0.621955
O O8 0.833650 0.882676 0.171178
O O9 0.744458 0.000000 0.237569
O O10 0.500000 0.622016 0.871898
O O11 0.592770 0.500000 0.897307
O O12 0.609921 0.620213 0.000000
O O13 0.129795 0.500000 0.500000
O O14 0.000000 0.408517 0.500000
#
# Coordination Sequence:
#
# PCOD9487779 Si02
#       5
#    16  16  16  16   8
#     4  10  20  33  47  63  91 125 156 190 231 280
#     4  10  20  33  48  63  88 130 169 193 222 274
#     4  10  20  30  46  73  99 118 148 194 239 282
#     4   8  14  27  47  69  95 125 152 183 229 283
#     4  11  21  32  48  66  85 117 164 208 232 255
#
# _framework density 17.771055
#
# number of rings (size 3 to 8) (size 9 to 14) (size 15 to 20)
#    0.000    2.333    1.111    3.000    4.667    1.778 
#    0.000    1.111    0.000    6.000    0.000    0.000 
#    0.000    2.667    0.000   25.111    0.000    0.000 
#
# Total GULP energy -200495.190921 kJ/mol
# GULP energy per Si atom -5569.310859 kJ/mol
# Density = 1.773061 g / cm^3
# Si number density = 17.771055 Si / 1000 Ang^3
#
#
#
# Elastic Constant Matrix: (Units=GPa)
#
#
# Indices 1 2 3 4 5 6 
#
# 1 33.8633 0.7574 15.0930 0.0000 0.0000 0.0000
# 2 0.7574 73.9307 5.7793 0.0000 0.0000 0.0000
# 3 15.0930 5.7793 67.3565 0.0000 0.0000 0.0000
# 4 0.0000 0.0000 0.0000 2.6777 0.0000 0.0000
# 5 0.0000 0.0000 0.0000 0.0000 48.6719 0.0000
# 6 0.0000 0.0000 0.0000 0.0000 0.0000 17.2159
#
#
#
# Elastic Compliance Matrix: (Units=1/GPa)
#
#
# Indices 1 2 3 4 5 6 
#
# 1 0.032811 0.000240 -0.007373 0.000000 0.000000 0.000000
# 2 0.000240 0.013619 -0.001222 0.000000 0.000000 0.000000
# 3 -0.007373 -0.001222 0.016603 0.000000 0.000000 0.000000
# 4 0.000000 0.000000 0.000000 0.373456 0.000000 0.000000
# 5 0.000000 0.000000 0.000000 0.000000 0.020546 0.000000
# 6 0.000000 0.000000 0.000000 0.000000 0.000000 0.058086
#
#
# Mechanical properties :
#
#
# Convention : Reuss Voigt Hill
#
# Bulk Modulus (GPa) = 21.58715 24.26777 22.92746
# Shear Modulus (GPa) = 9.13621 23.94783 16.54202
#
# Velocity S-wave (km/s) = 2.26985 3.67492 3.05428
# Velocity P-wave (km/s) = 4.36387 5.62957 5.03664
#
# Compressibility (1/GPa) = 0.04632384
#
# Stress axis : x y z
#
# Youngs Moduli (GPa) = 30.47737 73.42534 60.22889
#
# Poissons Ratio (x) = -0.01764 0.44406
# Poissons Ratio (y) = -0.00732 0.07362
# Poissons Ratio (z) = 0.22470 0.08975
#
# Static dielectric constant tensor:
#      x y z
#    x 1.630730 0.000000 0.000000 
#    y 0.000000 1.632320 0.000000 
#    z 0.000000 0.000000 1.615690 
# 
# From -- ./inp_files/39823.got.cif
#   From: 2010.05.17/outbox.cif.g08.bks.cpg/sg65_20_cif.got.tgz:39823.got - 2010.06.03 17:01:31.
