data_PCOD9487738
_publ_section_title
;
Structure prediction by ZEFSAII (Michael W. Deem and Ramdas Pophale) SiO2 
 PCOD9487738
Probable space group: C M M M
;
_chemical_formula_sum "Si O2"
_cell_formula_units_Z 64
_cell_length_a 14.873882
_cell_length_b 10.793930
_cell_length_c 19.138962
_cell_angle_alpha 90.000000
_cell_angle_beta 90.000000
_cell_angle_gamma 90.000000
_cell_volume 3072.715203
_symmetry_space_group_name_H-M "C M M M"
_symmetry_group_IT_number 65
_symmetry_cell_setting 'orthorhombic'
loop_
_space_group_symop_operation_xyz
x,y,z
-x,-y,z
x,-y,-z
-x,y,-z
-x,-y,-z
x,y,-z
-x,y,z
x,-y,z
1/2+x,1/2+y,z
1/2-x,1/2-y,z
1/2+x,1/2-y,-z
1/2-x,1/2+y,-z
1/2-x,1/2-y,-z
1/2+x,1/2+y,-z
1/2-x,1/2+y,z
1/2+x,1/2-y,z
loop_
_atom_site_type_symbol
_atom_site_label
_atom_site_fract_x
_atom_site_fract_y
_atom_site_fract_z
Si Si1 0.171610 0.147922 0.000000
Si Si2 0.597346 0.353762 0.152715
Si Si3 0.394985 0.232449 0.641775
Si Si4 0.174033 0.641420 0.500000
Si Si5 0.393066 0.500000 0.584225
Si Si6 0.250000 0.750000 0.252014
O O1 0.250000 0.250000 0.000000
O O2 0.116952 0.169896 0.928789
O O3 0.198713 0.000000 0.000000
O O4 0.500000 0.298047 0.172437
O O5 0.589946 0.500000 0.160462
O O6 0.681062 0.318236 0.200592
O O7 0.500000 0.232101 0.663005
O O8 0.384100 0.161980 0.569057
O O9 0.364079 0.374068 0.622612
O O10 0.322320 0.183137 0.697072
O O11 0.206663 0.500000 0.500000
O O12 0.250000 0.750000 0.500000
O O13 0.500000 0.500000 0.592806
O O14 0.381501 0.500000 0.500000
#
# Coordination Sequence:
#
# PCOD9487738 Si02
#       6
#     8  16  16   8   8   8
#     4  10  19  39  71 104 134 172 221 275 323 378
#     4  10  22  41  67  97 130 173 224 272 321 386
#     4  11  24  41  64  96 130 169 219 274 335 396
#     4  12  27  45  68  91 121 165 221 280 336 393
#     4   9  18  36  66  94 119 160 219 278 327 386
#     4  12  24  38  60  96 136 172 214 266 332 388
#
# _framework density 20.828485000000001
#
# number of rings (size 3 to 8) (size 9 to 14) (size 15 to 20)
#    0.000    1.375    3.750    1.500    3.500    3.500 
#    0.000    0.000    0.000    5.250    0.000    0.000 
#    0.000    0.000    0.000    0.000    0.000    0.000 
#
# Total GULP energy -178456.455850 kJ/mol
# GULP energy per Si atom -5576.764245 kJ/mol
# Density = 2.078108 g / cm^3
# Si number density = 20.828485 Si / 1000 Ang^3
#
#
#
# Elastic Constant Matrix: (Units=GPa)
#
#
# Indices 1 2 3 4 5 6 
#
# 1 177.7219 38.8374 78.8808 0.0000 0.0000 0.0000
# 2 38.8374 68.3227 18.5087 0.0000 0.0000 0.0000
# 3 78.8808 18.5087 144.5030 0.0000 0.0000 0.0000
# 4 0.0000 0.0000 0.0000 348.7471 0.0000 0.0000
# 5 0.0000 0.0000 0.0000 0.0000 -37.4756 0.0000
# 6 0.0000 0.0000 0.0000 0.0000 0.0000 26.7433
#
#
#
# Elastic Compliance Matrix: (Units=1/GPa)
#
#
# Indices 1 2 3 4 5 6 
#
# 1 0.008187 -0.003567 -0.004012 0.000000 0.000000 0.000000
# 2 -0.003567 0.016717 -0.000194 0.000000 0.000000 0.000000
# 3 -0.004012 -0.000194 0.009135 0.000000 0.000000 0.000000
# 4 0.000000 0.000000 0.000000 0.002867 0.000000 0.000000
# 5 0.000000 0.000000 0.000000 0.000000 -0.026684 0.000000
# 6 0.000000 0.000000 0.000000 0.000000 0.000000 0.037393
#
#
# Mechanical properties :
#
#
# Convention : Reuss Voigt Hill
#
# Bulk Modulus (GPa) = 54.07597 73.66681 63.87139
# Shear Modulus (GPa) = 72.12351 84.55768 78.34059
#
# Velocity S-wave (km/s) = 5.89088 6.37850 6.13953
# Velocity P-wave (km/s) = 8.50229 9.47059 8.99947
#
# Compressibility (1/GPa) = 0.01849250
#
# Stress axis : x y z
#
# Youngs Moduli (GPa) = 122.14395 59.82090 109.46524
#
# Poissons Ratio (x) = 0.21338 0.43920
# Poissons Ratio (y) = 0.43568 0.02124
# Poissons Ratio (z) = 0.49007 0.01161
#
# Static dielectric constant tensor:
#      x y z
#    x 1.764280 0.000000 0.000000 
#    y 0.000000 1.769150 0.000000 
#    z 0.000000 0.000000 1.773360 
# 
# From -- ./inp_files/52570.got.cif
#   From: 2010.05.17/outbox.cif.g08.bks.cpg/sg65_27_cif.got.tgz:52570.got - 2010.06.03 17:01:31.
