data_PCOD9487312
_publ_section_title
;
Structure prediction by ZEFSAII (Michael W. Deem and Ramdas Pophale) SiO2 
 PCOD9487312
Probable space group: C M M M
;
_chemical_formula_sum "Si O2"
_cell_formula_units_Z 104
_cell_length_a 8.520307
_cell_length_b 22.008141
_cell_length_c 28.814277
_cell_angle_alpha 90.000000
_cell_angle_beta 90.000000
_cell_angle_gamma 90.000000
_cell_volume 5403.141361
_symmetry_space_group_name_H-M "C M M M"
_symmetry_group_IT_number 65
_symmetry_cell_setting 'orthorhombic'
loop_
_space_group_symop_operation_xyz
x,y,z
-x,-y,z
x,-y,-z
-x,y,-z
-x,-y,-z
x,y,-z
-x,y,z
x,-y,z
1/2+x,1/2+y,z
1/2-x,1/2-y,z
1/2+x,1/2-y,-z
1/2-x,1/2+y,-z
1/2-x,1/2-y,-z
1/2+x,1/2+y,-z
1/2-x,1/2+y,z
1/2+x,1/2-y,z
loop_
_atom_site_type_symbol
_atom_site_label
_atom_site_fract_x
_atom_site_fract_y
_atom_site_fract_z
Si Si1 0.187411 0.817466 0.549964
Si Si2 0.309624 0.069436 0.727654
Si Si3 0.811320 0.931644 0.055048
Si Si4 0.686947 0.185344 0.890697
Si Si5 0.691649 0.000000 0.552050
Si Si6 0.812866 0.815588 0.785590
Si Si7 0.188695 0.398125 0.623484
O O1 0.239459 0.847927 0.500000
O O2 0.250000 0.750000 0.545707
O O3 0.252183 0.837522 0.599955
O O4 0.000000 0.820841 0.551034
O O5 0.500000 0.070614 0.729167
O O6 0.247696 0.124814 0.758714
O O7 0.258536 0.082930 0.674533
O O8 0.261712 0.000000 0.740381
O O9 0.736411 0.874482 0.080956
O O10 0.000000 0.928499 0.060941
O O11 0.761387 0.000000 0.070526
O O12 0.778637 0.927543 0.000000
O O13 0.500000 0.189001 0.888004
O O14 0.750000 0.250000 0.910197
O O15 0.756175 0.179874 0.838851
O O16 0.742083 0.055985 0.583361
O O17 0.500000 0.000000 0.550369
O O18 0.751347 0.000000 0.500000
O O19 0.750000 0.750000 0.767606
O O20 0.000000 0.814096 0.784068
O O21 0.000000 0.399114 0.625008
#
# Coordination Sequence:
#
# PCOD9487312 Si02
#       7
#    16  16  16  16   8  16  16
#     4  10  21  36  53  75 104 138 176 219 266 318
#     4  10  21  39  61  86 118 151 189 236 288 345
#     4   9  19  37  60  87 123 166 209 254 303 355
#     4  11  22  38  61  88 120 157 200 252 305 358
#     4   9  16  28  51  81 107 135 173 211 254 313
#     4  11  23  41  64  88 116 152 197 246 301 359
#     4  10  19  34  56  81 107 139 175 217 266 321
#
# _framework density 19.248061
#
# number of rings (size 3 to 8) (size 9 to 14) (size 15 to 20)
#    0.000    1.923    0.769    5.077    0.000    4.615 
#    0.000    1.154    0.000    1.385    0.000    0.000 
#    0.000    0.000    0.000    0.000    0.000    0.000 
#
# Total GULP energy -289816.906586 kJ/mol
# GULP energy per Si atom -5573.402050 kJ/mol
# Density = 1.920425 g / cm^3
# Si number density = 19.248061 Si / 1000 Ang^3
#
#
#
# Elastic Constant Matrix: (Units=GPa)
#
#
# Indices 1 2 3 4 5 6 
#
# 1 56.1004 48.3765 33.0054 0.0000 0.0000 0.0000
# 2 48.3765 172.4477 73.6991 0.0000 0.0000 0.0000
# 3 33.0054 73.6991 71.0735 0.0000 0.0000 0.0000
# 4 0.0000 0.0000 0.0000 47.9860 0.0000 0.0000
# 5 0.0000 0.0000 0.0000 0.0000 20.9141 0.0000
# 6 0.0000 0.0000 0.0000 0.0000 0.0000 21.4711
#
#
#
# Elastic Compliance Matrix: (Units=1/GPa)
#
#
# Indices 1 2 3 4 5 6 
#
# 1 0.025848 -0.003809 -0.008053 0.000000 0.000000 0.000000
# 2 -0.003809 0.010975 -0.009612 0.000000 0.000000 0.000000
# 3 -0.008053 -0.009612 0.027777 0.000000 0.000000 0.000000
# 4 0.000000 0.000000 0.000000 0.020839 0.000000 0.000000
# 5 0.000000 0.000000 0.000000 0.000000 0.047815 0.000000
# 6 0.000000 0.000000 0.000000 0.000000 0.000000 0.046574
#
#
# Mechanical properties :
#
#
# Convention : Reuss Voigt Hill
#
# Bulk Modulus (GPa) = 46.18708 67.75374 56.97041
# Shear Modulus (GPa) = 21.73969 27.71027 24.72498
#
# Velocity S-wave (km/s) = 3.36437 3.79837 3.58794
# Velocity P-wave (km/s) = 6.25618 7.38333 6.84300
#
# Compressibility (1/GPa) = 0.02165108
#
# Stress axis : x y z
#
# Youngs Moduli (GPa) = 38.68753 91.11418 36.00156
#
# Poissons Ratio (x) = 0.34709 0.28993
# Poissons Ratio (y) = 0.14737 0.34604
# Poissons Ratio (z) = 0.31157 0.87576
#
# Static dielectric constant tensor:
#      x y z
#    x 1.664490 0.000000 0.000000 
#    y 0.000000 1.970560 0.000000 
#    z 0.000000 0.000000 1.663640 
# 
# From -- ./inp_files/73572.got.cif
#   From: 2010.05.17/outbox.cif.g08.bks.cpg/sg65_37_cif.got.tgz:73572.got - 2010.06.03 17:01:31.
