data_PCOD9487023
_publ_section_title
;
Structure prediction by ZEFSAII (Michael W. Deem and Ramdas Pophale) SiO2 
 PCOD9487023
Probable space group: C M M M
;
_chemical_formula_sum "Si O2"
_cell_formula_units_Z 104
_cell_length_a 26.989311
_cell_length_b 8.733200
_cell_length_c 23.971744
_cell_angle_alpha 90.000000
_cell_angle_beta 90.000000
_cell_angle_gamma 90.000000
_cell_volume 5650.213194
_symmetry_space_group_name_H-M "C M M M"
_symmetry_group_IT_number 65
_symmetry_cell_setting 'orthorhombic'
loop_
_space_group_symop_operation_xyz
x,y,z
-x,-y,z
x,-y,-z
-x,y,-z
-x,-y,-z
x,y,-z
-x,y,z
x,-y,z
1/2+x,1/2+y,z
1/2-x,1/2-y,z
1/2+x,1/2-y,-z
1/2-x,1/2+y,-z
1/2-x,1/2-y,-z
1/2+x,1/2+y,-z
1/2-x,1/2+y,z
1/2+x,1/2-y,z
loop_
_atom_site_type_symbol
_atom_site_label
_atom_site_fract_x
_atom_site_fract_y
_atom_site_fract_z
Si Si1 0.443148 0.831904 0.066288
Si Si2 0.402751 0.185731 0.632343
Si Si3 0.378044 0.325408 0.854338
Si Si4 0.000000 0.686240 0.436820
Si Si5 0.195833 0.315144 0.434878
Si Si6 0.195417 0.318142 0.938248
Si Si7 0.441752 0.685686 0.251592
O O1 0.500000 0.835261 0.083287
O O2 0.417746 0.692183 0.096250
O O3 0.420896 0.000000 0.081486
O O4 0.441247 0.821366 0.000000
O O5 0.449612 0.232078 0.594065
O O6 0.350477 0.232628 0.604069
O O7 0.415623 0.254048 0.692542
O O8 0.402349 0.000000 0.635837
O O9 0.363894 0.500000 0.843460
O O10 0.332836 0.238215 0.883240
O O11 0.407443 0.263797 0.800466
O O12 0.000000 0.500000 0.437481
O O13 0.000000 0.741174 0.500000
O O14 0.186518 0.271953 0.500000
O O15 0.198267 0.500000 0.432875
O O16 0.250000 0.250000 0.419096
O O17 0.197809 0.500000 0.937692
O O18 0.250000 0.250000 0.937301
O O19 0.173429 0.273776 0.000000
O O20 0.500000 0.735124 0.248326
O O21 0.442363 0.500000 0.251406
#
# Coordination Sequence:
#
# PCOD9487023 Si02
#       7
#    16  16  16   8  16  16  16
#     4   9  18  32  49  72 103 135 168 213 268 321
#     4  10  19  33  55  82 108 142 188 231 275 332
#     4  11  22  35  53  77 104 140 183 222 267 323
#     4   9  16  28  51  83 113 137 170 227 288 337
#     4   9  18  33  54  82 114 145 179 221 270 326
#     4  10  21  38  60  85 112 140 173 221 281 338
#     4  10  22  39  55  74 108 150 186 226 274 322
#
# _framework density 18.406386000000001
#
# number of rings (size 3 to 8) (size 9 to 14) (size 15 to 20)
#    0.000    2.231    0.769    2.769    0.000    7.692 
#    0.000    1.538    0.000    3.692    0.000    0.000 
#    0.000    0.000    0.000    0.000    0.000    0.000 
#
# Total GULP energy -289713.686986 kJ/mol
# GULP energy per Si atom -5571.417057 kJ/mol
# Density = 1.836449 g / cm^3
# Si number density = 18.406386 Si / 1000 Ang^3
#
#
#
# Elastic Constant Matrix: (Units=GPa)
#
#
# Indices 1 2 3 4 5 6 
#
# 1 144.8626 30.3909 69.5764 0.0000 0.0000 0.0000
# 2 30.3909 17.7193 27.9414 0.0000 0.0000 0.0000
# 3 69.5764 27.9414 119.2452 0.0000 0.0000 0.0000
# 4 0.0000 0.0000 0.0000 20.4056 0.0000 0.0000
# 5 0.0000 0.0000 0.0000 0.0000 29.6449 0.0000
# 6 0.0000 0.0000 0.0000 0.0000 0.0000 28.4398
#
#
#
# Elastic Compliance Matrix: (Units=1/GPa)
#
#
# Indices 1 2 3 4 5 6 
#
# 1 0.011560 -0.014577 -0.003329 0.000000 0.000000 0.000000
# 2 -0.014577 0.107890 -0.016775 0.000000 0.000000 0.000000
# 3 -0.003329 -0.016775 0.014259 0.000000 0.000000 0.000000
# 4 0.000000 0.000000 0.000000 0.049006 0.000000 0.000000
# 5 0.000000 0.000000 0.000000 0.000000 0.033733 0.000000
# 6 0.000000 0.000000 0.000000 0.000000 0.000000 0.035162
#
#
# Mechanical properties :
#
#
# Convention : Reuss Voigt Hill
#
# Bulk Modulus (GPa) = 15.54098 59.73827 37.63963
# Shear Modulus (GPa) = 14.60180 25.95928 20.28054
#
# Velocity S-wave (km/s) = 2.81962 3.75952 3.32297
# Velocity P-wave (km/s) = 4.36599 7.16736 5.93435
#
# Compressibility (1/GPa) = 0.06434600
#
# Stress axis : x y z
#
# Youngs Moduli (GPa) = 86.50219 9.26869 70.12900
#
# Poissons Ratio (x) = 0.13511 0.23349
# Poissons Ratio (y) = 1.26098 1.17642
# Poissons Ratio (z) = 0.28800 0.15548
#
# Static dielectric constant tensor:
#      x y z
#    x 1.665450 0.000000 0.000000 
#    y 0.000000 1.663960 0.000000 
#    z 0.000000 0.000000 1.629760 
# 
# From -- ./inp_files/65881.got.cif
#   From: 2010.05.17/outbox.cif.g08.bks.cpg/sg65_33_cif.got.tgz:65881.got - 2010.06.03 17:01:31.
