data_PCOD9487143
_publ_section_title
;
Structure prediction by ZEFSAII (Michael W. Deem and Ramdas Pophale) SiO2 
 PCOD9487143
Probable space group: C M M M
;
_chemical_formula_sum "Si O2"
_cell_formula_units_Z 80
_cell_length_a 27.814540
_cell_length_b 7.491052
_cell_length_c 17.615197
_cell_angle_alpha 90.000000
_cell_angle_beta 90.000000
_cell_angle_gamma 90.000000
_cell_volume 3670.305362
_symmetry_space_group_name_H-M "C M M M"
_symmetry_group_IT_number 65
_symmetry_cell_setting 'orthorhombic'
loop_
_space_group_symop_operation_xyz
x,y,z
-x,-y,z
x,-y,-z
-x,y,-z
-x,-y,-z
x,y,-z
-x,y,z
x,-y,z
1/2+x,1/2+y,z
1/2-x,1/2-y,z
1/2+x,1/2-y,-z
1/2-x,1/2+y,-z
1/2-x,1/2-y,-z
1/2+x,1/2+y,-z
1/2-x,1/2+y,z
1/2+x,1/2-y,z
loop_
_atom_site_type_symbol
_atom_site_label
_atom_site_fract_x
_atom_site_fract_y
_atom_site_fract_z
Si Si1 0.305263 0.713799 0.689516
Si Si2 0.193957 0.710423 0.000000
Si Si3 0.852378 0.793059 0.840683
Si Si4 0.394618 0.718437 0.411779
Si Si5 0.000000 0.789576 0.592367
Si Si6 0.054141 0.218287 0.912495
O O1 0.308111 0.500000 0.688410
O O2 0.250000 0.750000 0.669299
O O3 0.319025 0.781354 0.774091
O O4 0.348063 0.778746 0.634815
O O5 0.250000 0.750000 0.000000
O O6 0.172185 0.785854 0.077288
O O7 0.185244 0.500000 0.000000
O O8 0.905219 0.715069 0.855416
O O9 0.860046 0.000000 0.820472
O O10 0.389961 0.769013 0.500000
O O11 0.395695 0.500000 0.409486
O O12 0.447492 0.779980 0.383087
O O13 0.000000 0.776631 0.500000
O O14 0.000000 0.000000 0.611597
O O15 0.000000 0.273021 0.894113
O O16 0.055135 0.000000 0.912284
O O17 0.064643 0.271056 0.000000
#
# Coordination Sequence:
#
# PCOD9487143 Si02
#       6
#    16   8  16  16   8  16
#     4  10  21  34  49  72 101 135 170 209 251 294
#     4  12  24  36  53  74  93 123 168 209 251 300
#     4  10  19  34  52  72 101 131 165 206 248 295
#     4   8  14  27  47  72 103 135 165 200 248 302
#     4   7  10  20  42  70 101 132 157 194 250 301
#     4   8  13  24  46  72  96 123 153 192 244 292
#
# _framework density 21.796551000000001
#
# number of rings (size 3 to 8) (size 9 to 14) (size 15 to 20)
#    0.000    2.900    1.000    3.300    0.000    2.800 
#    1.800    0.000    0.000    1.200    0.000    0.700 
#    0.000    2.400    0.000    0.000    0.000    0.000 
#
# Total GULP energy -223034.744763 kJ/mol
# GULP energy per Si atom -5575.868619 kJ/mol
# Density = 2.174694 g / cm^3
# Si number density = 21.796551 Si / 1000 Ang^3
#
#
#
# Elastic Constant Matrix: (Units=GPa)
#
#
# Indices 1 2 3 4 5 6 
#
# 1 235.5830 3.0447 83.4255 0.0000 0.0000 0.0000
# 2 3.0447 62.6467 -1.7591 0.0000 0.0000 0.0000
# 3 83.4255 -1.7591 78.9128 0.0000 0.0000 0.0000
# 4 0.0000 0.0000 0.0000 -64.3835 0.0000 0.0000
# 5 0.0000 0.0000 0.0000 0.0000 28.6399 0.0000
# 6 0.0000 0.0000 0.0000 0.0000 0.0000 7.2395
#
#
#
# Elastic Compliance Matrix: (Units=1/GPa)
#
#
# Indices 1 2 3 4 5 6 
#
# 1 0.006803 -0.000533 -0.007203 0.000000 0.000000 0.000000
# 2 -0.000533 0.016014 0.000920 0.000000 0.000000 0.000000
# 3 -0.007203 0.000920 0.020308 0.000000 0.000000 0.000000
# 4 0.000000 0.000000 0.000000 -0.015532 0.000000 0.000000
# 5 0.000000 0.000000 0.000000 0.000000 0.034916 0.000000
# 6 0.000000 0.000000 0.000000 0.000000 0.000000 0.138130
#
#
# Mechanical properties :
#
#
# Convention : Reuss Voigt Hill
#
# Bulk Modulus (GPa) = 33.90640 60.72941 47.31791
# Shear Modulus (GPa) = 22.31121 13.79461 18.05291
#
# Velocity S-wave (km/s) = 3.20286 2.51844 2.88105
# Velocity P-wave (km/s) = 5.40994 6.03151 5.72916
#
# Compressibility (1/GPa) = 0.02949295
#
# Stress axis : x y z
#
# Youngs Moduli (GPa) = 147.00262 62.44431 49.24128
#
# Poissons Ratio (x) = 0.03328 0.35471
# Poissons Ratio (y) = 0.07833 -0.04532
# Poissons Ratio (z) = 1.05893 -0.05747
#
# Static dielectric constant tensor:
#      x y z
#    x 1.820860 0.000000 0.000000 
#    y 0.000000 1.880110 0.000000 
#    z 0.000000 0.000000 1.795680 
# 
# From -- ./inp_files/57293.got.cif
#   From: 2010.05.17/outbox.cif.g08.bks.cpg/sg65_29_cif.got.tgz:57293.got - 2010.06.03 17:01:31.
