data_PCOD9487061
_publ_section_title
;
Structure prediction by ZEFSAII (Michael W. Deem and Ramdas Pophale) SiO2 
 PCOD9487061
Probable space group: C M M M
;
_chemical_formula_sum "Si O2"
_cell_formula_units_Z 64
_cell_length_a 7.669919
_cell_length_b 36.805244
_cell_length_c 11.041396
_cell_angle_alpha 90.000000
_cell_angle_beta 90.000000
_cell_angle_gamma 90.000000
_cell_volume 3116.911454
_symmetry_space_group_name_H-M "C M M M"
_symmetry_group_IT_number 65
_symmetry_cell_setting 'orthorhombic'
loop_
_space_group_symop_operation_xyz
x,y,z
-x,-y,z
x,-y,-z
-x,y,-z
-x,-y,-z
x,y,-z
-x,y,z
x,-y,z
1/2+x,1/2+y,z
1/2-x,1/2-y,z
1/2+x,1/2-y,-z
1/2-x,1/2+y,-z
1/2-x,1/2-y,-z
1/2+x,1/2+y,-z
1/2-x,1/2+y,z
1/2+x,1/2-y,z
loop_
_atom_site_type_symbol
_atom_site_label
_atom_site_fract_x
_atom_site_fract_y
_atom_site_fract_z
Si Si1 0.796448 0.669241 0.238995
Si Si2 0.700688 0.424027 0.500000
Si Si3 0.792921 0.085252 0.241046
Si Si4 0.714094 0.161092 0.500000
Si Si5 0.789497 0.292377 0.000000
Si Si6 0.791416 0.541143 0.000000
O O1 0.783539 0.625624 0.225272
O O2 0.727247 0.678307 0.373204
O O3 0.000000 0.679084 0.242405
O O4 0.719278 0.688736 0.121955
O O5 0.500000 0.436734 0.500000
O O6 0.775502 0.432881 0.366704
O O7 0.714018 0.380028 0.500000
O O8 0.763129 0.061972 0.121497
O O9 0.000000 0.090153 0.257439
O O10 0.500000 0.158673 0.500000
O O11 0.750000 0.250000 0.000000
O O12 0.000000 0.297509 0.000000
O O13 0.723581 0.500000 0.000000
O O14 0.000000 0.540164 0.000000
#
# Coordination Sequence:
#
# PCOD9487061 Si02
#       6
#    16   8  16   8   8   8
#     4   9  17  31  51  74  99 128 162 201 245 294
#     4   8  16  30  49  78 109 129 154 198 251 302
#     4  10  19  33  56  82 105 131 164 205 252 302
#     4   8  14  26  47  72  96 124 159 197 239 290
#     4  10  21  34  47  65  94 130 165 204 247 291
#     4  11  24  39  52  70 101 139 176 213 250 291
#
# _framework density 20.533148000000001
#
# number of rings (size 3 to 8) (size 9 to 14) (size 15 to 20)
#    0.000    2.625    0.000    1.875    0.000    4.000 
#    0.000    1.250    0.000    3.750    0.000    0.000 
#    0.000    0.000    0.000    0.000    0.000    0.000 
#
# Total GULP energy -178323.496044 kJ/mol
# GULP energy per Si atom -5572.609251 kJ/mol
# Density = 2.048641 g / cm^3
# Si number density = 20.533148 Si / 1000 Ang^3
#
#
#
# Elastic Constant Matrix: (Units=GPa)
#
#
# Indices 1 2 3 4 5 6 
#
# 1 42.2595 -15.8011 -2.1338 0.0000 0.0000 0.0000
# 2 -15.8011 54.1373 78.9053 0.0000 0.0000 0.0000
# 3 -2.1338 78.9053 269.0963 0.0000 0.0000 0.0000
# 4 0.0000 0.0000 0.0000 -9.8835 0.0000 0.0000
# 5 0.0000 0.0000 0.0000 0.0000 -2.2541 0.0000
# 6 0.0000 0.0000 0.0000 0.0000 0.0000 13.0965
#
#
#
# Elastic Compliance Matrix: (Units=1/GPa)
#
#
# Indices 1 2 3 4 5 6 
#
# 1 0.028724 0.014061 -0.003895 0.000000 0.000000 0.000000
# 2 0.014061 0.039141 -0.011366 0.000000 0.000000 0.000000
# 3 -0.003895 -0.011366 0.007018 0.000000 0.000000 0.000000
# 4 0.000000 0.000000 0.000000 -0.101179 0.000000 0.000000
# 5 0.000000 0.000000 0.000000 0.000000 -0.443642 0.000000
# 6 0.000000 0.000000 0.000000 0.000000 0.000000 0.076356
#
#
# Mechanical properties :
#
#
# Convention : Reuss Voigt Hill
#
# Bulk Modulus (GPa) = 13.79623 54.15933 33.97778
# Shear Modulus (GPa) = -13.62317 20.49331 3.43507
#
# Velocity S-wave (km/s) = -2.57859 3.16264 1.29482
# Velocity P-wave (km/s) = 1.46011 6.30636 4.33810
#
# Compressibility (1/GPa) = 0.07248358
#
# Stress axis : x y z
#
# Youngs Moduli (GPa) = 34.81387 25.54875 142.49294
#
# Poissons Ratio (x) = -0.35924 0.55505
# Poissons Ratio (y) = -0.48952 1.61951
# Poissons Ratio (z) = 0.13561 0.29037
#
# Static dielectric constant tensor:
#      x y z
#    x 1.747660 0.000000 0.000000 
#    y 0.000000 1.659490 0.000000 
#    z 0.000000 0.000000 1.812160 
# 
# From -- ./inp_files/21054.got.cif
#   From: 2010.05.17/outbox.cif.g08.bks.cpg/sg65_11_cif.got.tgz:21054.got - 2010.06.03 17:01:31.
