data_PCOD9487433
_publ_section_title
;
Structure prediction by ZEFSAII (Michael W. Deem and Ramdas Pophale) SiO2 
 PCOD9487433
Probable space group: C M M M
;
_chemical_formula_sum "Si O2"
_cell_formula_units_Z 64
_cell_length_a 16.083674
_cell_length_b 14.714456
_cell_length_c 12.891736
_cell_angle_alpha 90.000000
_cell_angle_beta 90.000000
_cell_angle_gamma 90.000000
_cell_volume 3050.990644
_symmetry_space_group_name_H-M "C M M M"
_symmetry_group_IT_number 65
_symmetry_cell_setting 'orthorhombic'
loop_
_space_group_symop_operation_xyz
x,y,z
-x,-y,z
x,-y,-z
-x,y,-z
-x,-y,-z
x,y,-z
-x,y,z
x,-y,z
1/2+x,1/2+y,z
1/2-x,1/2-y,z
1/2+x,1/2-y,-z
1/2-x,1/2+y,-z
1/2-x,1/2-y,-z
1/2+x,1/2+y,-z
1/2-x,1/2+y,z
1/2+x,1/2-y,z
loop_
_atom_site_type_symbol
_atom_site_label
_atom_site_fract_x
_atom_site_fract_y
_atom_site_fract_z
Si Si1 0.656039 0.145887 0.714513
Si Si2 0.099646 0.500000 0.120011
Si Si3 0.099031 0.000000 0.884720
Si Si4 0.403702 0.190505 0.500000
Si Si5 0.364342 0.395991 0.500000
Si Si6 0.852711 0.143718 0.280660
O O1 0.629150 0.084758 0.810467
O O2 0.613855 0.132205 0.602693
O O3 0.754399 0.133283 0.696431
O O4 0.633725 0.250335 0.738013
O O5 0.000000 0.500000 0.117334
O O6 0.129280 0.500000 0.000000
O O7 0.126491 0.086636 0.819508
O O8 0.000000 0.000000 0.890206
O O9 0.134442 0.000000 0.000000
O O10 0.500000 0.220841 0.500000
O O11 0.345362 0.282936 0.500000
O O12 0.323965 0.500000 0.500000
O O13 0.399686 0.393132 0.617076
#
# Coordination Sequence:
#
# PCOD9487433 Si02
#       6
#    16   8   8   8   8  16
#     4  10  22  40  63  89 121 160 205 249 300 359
#     4  11  25  42  59  82 114 157 210 261 303 349
#     4  11  25  42  61  90 125 159 199 251 314 375
#     4  10  21  37  59  92 130 163 197 243 304 367
#     4  10  19  34  58  93 125 159 193 236 296 365
#     4  10  21  40  63  91 124 160 197 247 303 364
#
# _framework density 20.976793000000001
#
# number of rings (size 3 to 8) (size 9 to 14) (size 15 to 20)
#    0.000    1.750    1.250    2.250    0.000   11.750 
#    0.000    6.250    0.000    0.000    0.000    0.000 
#    0.000    0.000    0.000    0.000    0.000    0.000 
#
# Total GULP energy -178168.019499 kJ/mol
# GULP energy per Si atom -5567.750609 kJ/mol
# Density = 2.092905 g / cm^3
# Si number density = 20.976793 Si / 1000 Ang^3
#
#
#
# Elastic Constant Matrix: (Units=GPa)
#
#
# Indices 1 2 3 4 5 6 
#
# 1 67.0135 28.1750 41.2633 0.0000 0.0000 0.0000
# 2 28.1750 120.0375 93.7799 0.0000 0.0000 0.0000
# 3 41.2633 93.7799 237.2047 0.0000 0.0000 0.0000
# 4 0.0000 0.0000 0.0000 35.1498 0.0000 0.0000
# 5 0.0000 0.0000 0.0000 0.0000 23.4610 0.0000
# 6 0.0000 0.0000 0.0000 0.0000 0.0000 11.3564
#
#
#
# Elastic Compliance Matrix: (Units=1/GPa)
#
#
# Indices 1 2 3 4 5 6 
#
# 1 0.017200 -0.002459 -0.002020 0.000000 0.000000 0.000000
# 2 -0.002459 0.012405 -0.004477 0.000000 0.000000 0.000000
# 3 -0.002020 -0.004477 0.006337 0.000000 0.000000 0.000000
# 4 0.000000 0.000000 0.000000 0.028450 0.000000 0.000000
# 5 0.000000 0.000000 0.000000 0.000000 0.042624 0.000000
# 6 0.000000 0.000000 0.000000 0.000000 0.000000 0.088056
#
#
# Mechanical properties :
#
#
# Convention : Reuss Voigt Hill
#
# Bulk Modulus (GPa) = 55.46008 83.41023 69.43516
# Shear Modulus (GPa) = 22.83167 31.39592 27.11380
#
# Velocity S-wave (km/s) = 3.30271 3.87292 3.59912
# Velocity P-wave (km/s) = 6.40625 7.73620 7.10242
#
# Compressibility (1/GPa) = 0.01803099
#
# Stress axis : x y z
#
# Youngs Moduli (GPa) = 58.13962 80.60986 157.80266
#
# Poissons Ratio (x) = 0.19823 0.31873
# Poissons Ratio (y) = 0.14298 0.70644
# Poissons Ratio (z) = 0.11743 0.36087
#
# Static dielectric constant tensor:
#      x y z
#    x 1.824560 0.000000 0.000000 
#    y 0.000000 1.792430 0.000000 
#    z 0.000000 0.000000 1.748880 
# 
# From -- ./inp_files/26159.got.cif
#   From: 2010.05.17/outbox.cif.g08.bks.cpg/sg65_14_cif.got.tgz:26159.got - 2010.06.03 17:01:31.
