data_PCOD9487494
_publ_section_title
;
Structure prediction by ZEFSAII (Michael W. Deem and Ramdas Pophale) SiO2 
 PCOD9487494
Probable space group: C M M M
;
_chemical_formula_sum "Si O2"
_cell_formula_units_Z 88
_cell_length_a 13.846390
_cell_length_b 14.550203
_cell_length_c 21.588027
_cell_angle_alpha 90.000000
_cell_angle_beta 90.000000
_cell_angle_gamma 90.000000
_cell_volume 4349.291989
_symmetry_space_group_name_H-M "C M M M"
_symmetry_group_IT_number 65
_symmetry_cell_setting 'orthorhombic'
loop_
_space_group_symop_operation_xyz
x,y,z
-x,-y,z
x,-y,-z
-x,y,-z
-x,-y,-z
x,y,-z
-x,y,z
x,-y,z
1/2+x,1/2+y,z
1/2-x,1/2-y,z
1/2+x,1/2-y,-z
1/2-x,1/2+y,-z
1/2-x,1/2-y,-z
1/2+x,1/2+y,-z
1/2-x,1/2+y,z
1/2+x,1/2-y,z
loop_
_atom_site_type_symbol
_atom_site_label
_atom_site_fract_x
_atom_site_fract_y
_atom_site_fract_z
Si Si1 0.224885 0.145250 0.250356
Si Si2 0.701481 0.396216 0.884788
Si Si3 0.890110 0.707224 0.926212
Si Si4 0.382031 0.605580 0.500000
Si Si5 0.884113 0.198275 0.627152
Si Si6 0.114211 0.401695 0.336293
O O1 0.250000 0.250000 0.233728
O O2 0.182289 0.102332 0.188899
O O3 0.158179 0.150119 0.311496
O O4 0.324013 0.100794 0.273720
O O5 0.688982 0.500000 0.909435
O O6 0.811087 0.359259 0.895055
O O7 0.637881 0.313782 0.913285
O O8 0.000000 0.690182 0.905696
O O9 0.883629 0.692645 0.000000
O O10 0.352252 0.500000 0.500000
O O11 0.500000 0.608361 0.500000
O O12 0.350328 0.654037 0.563194
O O13 0.859308 0.306819 0.629692
O O14 0.000000 0.190761 0.629603
O O15 0.134058 0.500000 0.368131
O O16 0.000000 0.397112 0.324328
#
# Coordination Sequence:
#
# PCOD9487494 Si02
#       6
#    16  16  16   8  16  16
#     4  10  19  35  55  84 118 151 186 235 288 344
#     4  11  22  38  62  92 123 157 202 253 302 357
#     4  10  23  43  63  87 124 164 202 247 297 354
#     4   9  18  34  54  77 108 148 195 240 284 343
#     4   9  19  35  57  82 110 147 189 236 291 348
#     4   9  18  33  53  78 110 146 183 227 282 343
#
# _framework density 20.233177999999999
#
# number of rings (size 3 to 8) (size 9 to 14) (size 15 to 20)
#    0.000    2.273    1.818    1.636    0.000    5.091 
#    0.000    6.364    0.000    2.727    0.000    0.000 
#    0.000    0.000    0.000    0.000    0.000    0.000 
#
# Total GULP energy -245393.020547 kJ/mol
# GULP energy per Si atom -5577.114103 kJ/mol
# Density = 2.018713 g / cm^3
# Si number density = 20.233178 Si / 1000 Ang^3
#
#
#
# Elastic Constant Matrix: (Units=GPa)
#
#
# Indices 1 2 3 4 5 6 
#
# 1 52.4127 2.8515 15.3857 0.0000 0.0000 0.0000
# 2 2.8515 99.9153 20.0219 0.0000 0.0000 0.0000
# 3 15.3857 20.0219 84.3151 0.0000 0.0000 0.0000
# 4 0.0000 0.0000 0.0000 -4.5204 0.0000 0.0000
# 5 0.0000 0.0000 0.0000 0.0000 357.5710 0.0000
# 6 0.0000 0.0000 0.0000 0.0000 0.0000 10.1896
#
#
#
# Elastic Compliance Matrix: (Units=1/GPa)
#
#
# Indices 1 2 3 4 5 6 
#
# 1 0.020162 0.000170 -0.003719 0.000000 0.000000 0.000000
# 2 0.000170 0.010510 -0.002527 0.000000 0.000000 0.000000
# 3 -0.003719 -0.002527 0.013139 0.000000 0.000000 0.000000
# 4 0.000000 0.000000 0.000000 -0.221222 0.000000 0.000000
# 5 0.000000 0.000000 0.000000 0.000000 0.002797 0.000000
# 6 0.000000 0.000000 0.000000 0.000000 0.000000 0.098139
#
#
# Mechanical properties :
#
#
# Convention : Reuss Voigt Hill
#
# Bulk Modulus (GPa) = 31.58728 34.79571 33.19149
# Shear Modulus (GPa) = -92.98982 85.87364 -3.55809
#
# Velocity S-wave (km/s) = -6.78667 6.52182 -1.32754
# Velocity P-wave (km/s) = 6.76508 8.59924 3.75370
#
# Compressibility (1/GPa) = 0.03165831
#
# Stress axis : x y z
#
# Youngs Moduli (GPa) = 49.59837 95.14788 76.10920
#
# Poissons Ratio (x) = -0.01617 0.28309
# Poissons Ratio (y) = -0.00843 0.19231
# Poissons Ratio (z) = 0.18448 0.24042
#
# Static dielectric constant tensor:
#      x y z
#    x 1.727430 0.000000 0.000000 
#    y 0.000000 1.766570 0.000000 
#    z 0.000000 0.000000 1.689640 
# 
# From -- ./inp_files/62469.got.cif
#   From: 2010.05.17/outbox.cif.g08.bks.cpg/sg65_32_cif.got.tgz:62469.got - 2010.06.03 17:01:31.
