data_PCOD9487290
_publ_section_title
;
Structure prediction by ZEFSAII (Michael W. Deem and Ramdas Pophale) SiO2 
 PCOD9487290
Probable space group: C M M M
;
_chemical_formula_sum "Si O2"
_cell_formula_units_Z 104
_cell_length_a 29.540928
_cell_length_b 9.036999
_cell_length_c 23.875722
_cell_angle_alpha 90.000000
_cell_angle_beta 90.000000
_cell_angle_gamma 90.000000
_cell_volume 6373.894662
_symmetry_space_group_name_H-M "C M M M"
_symmetry_group_IT_number 65
_symmetry_cell_setting 'orthorhombic'
loop_
_space_group_symop_operation_xyz
x,y,z
-x,-y,z
x,-y,-z
-x,y,-z
-x,-y,-z
x,y,-z
-x,y,z
x,-y,z
1/2+x,1/2+y,z
1/2-x,1/2-y,z
1/2+x,1/2-y,-z
1/2-x,1/2+y,-z
1/2-x,1/2-y,-z
1/2+x,1/2+y,-z
1/2-x,1/2+y,z
1/2+x,1/2-y,z
loop_
_atom_site_type_symbol
_atom_site_label
_atom_site_fract_x
_atom_site_fract_y
_atom_site_fract_z
Si Si1 0.446817 0.821784 0.884397
Si Si2 0.702574 0.824070 0.599424
Si Si3 0.446677 0.177768 0.338630
Si Si4 0.110491 0.176041 0.563198
Si Si5 0.054982 0.829648 0.000000
Si Si6 0.703088 0.175932 0.733373
Si Si7 0.106288 0.319649 0.226147
O O1 0.500000 0.784984 0.875316
O O2 0.417400 0.772096 0.831262
O O3 0.444133 0.000000 0.888689
O O4 0.431240 0.751192 0.942832
O O5 0.750000 0.750000 0.582530
O O6 0.659659 0.749917 0.570504
O O7 0.697023 0.799298 0.666555
O O8 0.703595 0.000000 0.589549
O O9 0.500000 0.209047 0.336928
O O10 0.422313 0.255641 0.390378
O O11 0.422903 0.223517 0.280507
O O12 0.440689 0.000000 0.344108
O O13 0.093947 0.204194 0.500000
O O14 0.114492 0.000000 0.571128
O O15 0.000000 0.825429 0.000000
O O16 0.069271 0.000000 0.000000
O O17 0.750000 0.250000 0.750813
O O18 0.657960 0.229525 0.764646
O O19 0.706793 0.000000 0.741247
O O20 0.106569 0.500000 0.225649
#
# Coordination Sequence:
#
# PCOD9487290 Si02
#       7
#    16  16  16  16   8  16  16
#     4   9  16  27  47  73  99 131 170 204 236 282
#     4  10  19  34  56  79 102 128 160 201 251 307
#     4  10  20  36  57  77  98 127 165 209 257 305
#     4  11  24  39  53  71  98 132 169 208 252 303
#     4   9  17  29  43  63 100 141 170 201 240 279
#     4   9  17  30  49  73 101 128 156 193 242 296
#     4   9  16  30  51  77 103 127 159 204 250 292
#
# _framework density 16.316554
#
# number of rings (size 3 to 8) (size 9 to 14) (size 15 to 20)
#    0.000    2.385    1.538    1.615    0.000    5.538 
#    0.000    3.077    0.000    1.846    0.000    0.538 
#    0.000    0.000    0.000    0.000    0.000    0.000 
#
# Total GULP energy -290066.788572 kJ/mol
# GULP energy per Si atom -5578.207473 kJ/mol
# Density = 1.627942 g / cm^3
# Si number density = 16.316554 Si / 1000 Ang^3
#
#
#
# Elastic Constant Matrix: (Units=GPa)
#
#
# Indices 1 2 3 4 5 6 
#
# 1 110.1076 41.1272 79.5891 0.0000 0.0000 0.0000
# 2 41.1272 29.8616 48.2843 0.0000 0.0000 0.0000
# 3 79.5891 48.2843 137.1900 0.0000 0.0000 0.0000
# 4 0.0000 0.0000 0.0000 10.2498 0.0000 0.0000
# 5 0.0000 0.0000 0.0000 0.0000 23.4808 0.0000
# 6 0.0000 0.0000 0.0000 0.0000 0.0000 25.3369
#
#
#
# Elastic Compliance Matrix: (Units=1/GPa)
#
#
# Indices 1 2 3 4 5 6 
#
# 1 0.019776 -0.020157 -0.004378 0.000000 0.000000 0.000000
# 2 -0.020157 0.098258 -0.022888 0.000000 0.000000 0.000000
# 3 -0.004378 -0.022888 0.017885 0.000000 0.000000 0.000000
# 4 0.000000 0.000000 0.000000 0.097563 0.000000 0.000000
# 5 0.000000 0.000000 0.000000 0.000000 0.042588 0.000000
# 6 0.000000 0.000000 0.000000 0.000000 0.000000 0.039468
#
#
# Mechanical properties :
#
#
# Convention : Reuss Voigt Hill
#
# Bulk Modulus (GPa) = 24.34778 68.35116 46.34947
# Shear Modulus (GPa) = 11.79035 19.02408 15.40721
#
# Velocity S-wave (km/s) = 2.69104 3.41829 3.07623
# Velocity P-wave (km/s) = 4.96086 7.58691 6.40981
#
# Compressibility (1/GPa) = 0.04107151
#
# Stress axis : x y z
#
# Youngs Moduli (GPa) = 50.56665 10.17727 55.91312
#
# Poissons Ratio (x) = 0.20514 0.24482
# Poissons Ratio (y) = 1.01926 1.27976
# Poissons Ratio (z) = 0.22141 0.23294
#
# Static dielectric constant tensor:
#      x y z
#    x 1.535540 0.000000 0.000000 
#    y 0.000000 1.544990 0.000000 
#    z 0.000000 0.000000 1.539670 
# 
# From -- ./inp_files/66416.got.cif
#   From: 2010.05.17/outbox.cif.g08.bks.cpg/sg65_34_cif.got.tgz:66416.got - 2010.06.03 17:01:31.
