data_PCOD9487823
_publ_section_title
;
Structure prediction by ZEFSAII (Michael W. Deem and Ramdas Pophale) SiO2 
 PCOD9487823
Probable space group: C M M M
;
_chemical_formula_sum "Si O2"
_cell_formula_units_Z 96
_cell_length_a 7.709632
_cell_length_b 26.430668
_cell_length_c 19.451832
_cell_angle_alpha 90.000000
_cell_angle_beta 90.000000
_cell_angle_gamma 90.000000
_cell_volume 3963.713886
_symmetry_space_group_name_H-M "C M M M"
_symmetry_group_IT_number 65
_symmetry_cell_setting 'orthorhombic'
loop_
_space_group_symop_operation_xyz
x,y,z
-x,-y,z
x,-y,-z
-x,y,-z
-x,-y,-z
x,y,-z
-x,y,z
x,-y,z
1/2+x,1/2+y,z
1/2-x,1/2-y,z
1/2+x,1/2-y,-z
1/2-x,1/2+y,-z
1/2-x,1/2-y,-z
1/2+x,1/2+y,-z
1/2-x,1/2+y,z
1/2+x,1/2-y,z
loop_
_atom_site_type_symbol
_atom_site_label
_atom_site_fract_x
_atom_site_fract_y
_atom_site_fract_z
Si Si1 0.293340 0.336697 0.725497
Si Si2 0.802969 0.331062 0.576441
Si Si3 0.302997 0.555067 0.418113
Si Si4 0.792534 0.804478 0.873214
Si Si5 0.288131 0.587957 0.925718
Si Si6 0.211402 0.054867 0.776142
O O1 0.500000 0.338728 0.731811
O O2 0.261653 0.312853 0.650726
O O3 0.225742 0.308968 0.794143
O O4 0.231578 0.395253 0.734909
O O5 0.721753 0.320773 0.500000
O O6 0.793659 0.391910 0.587695
O O7 0.000000 0.314310 0.571498
O O8 0.320144 0.550962 0.500000
O O9 0.500000 0.560766 0.389321
O O10 0.233458 0.500000 0.396092
O O11 0.750000 0.750000 0.902559
O O12 0.734275 0.853553 0.915014
O O13 0.000000 0.808349 0.870631
O O14 0.500000 0.585845 0.926089
O O15 0.234238 0.560971 0.855641
O O16 0.229337 0.568911 0.000000
O O17 0.000000 0.055191 0.775601
O O18 0.268943 0.000000 0.751316
#
# Coordination Sequence:
#
# PCOD9487823 Si02
#       6
#    16  16  16  16  16  16
#     4   9  18  32  48  67  93 124 159 198 237 283
#     4  10  20  31  44  65  91 117 148 193 248 297
#     4   8  14  25  40  57  79 111 150 186 222 271
#     4   9  18  32  50  72  97 126 159 195 236 281
#     4   8  14  25  42  68 102 132 157 191 234 276
#     4   8  14  25  42  65  93 127 166 201 230 266
#
# _framework density 24.219709999999999
#
# number of rings (size 3 to 8) (size 9 to 14) (size 15 to 20)
#    0.000    3.333    0.000    3.000    0.000    3.333 
#    0.000    5.000    0.000    0.500    0.000    0.000 
#    0.000    0.000    0.000    7.333    0.000    7.333 
#
# Total GULP energy -267467.276148 kJ/mol
# GULP energy per Si atom -5572.234920 kJ/mol
# Density = 2.416459 g / cm^3
# Si number density = 24.219710 Si / 1000 Ang^3
#
#
#
# Elastic Constant Matrix: (Units=GPa)
#
#
# Indices 1 2 3 4 5 6 
#
# 1 30.4674 -5.9438 1.6801 0.0000 0.0000 0.0000
# 2 -5.9438 70.4145 -0.8974 0.0000 0.0000 0.0000
# 3 1.6801 -0.8974 179.4491 0.0000 0.0000 0.0000
# 4 0.0000 0.0000 0.0000 -17.6951 0.0000 0.0000
# 5 0.0000 0.0000 0.0000 0.0000 12.5474 0.0000
# 6 0.0000 0.0000 0.0000 0.0000 0.0000 6.2153
#
#
#
# Elastic Compliance Matrix: (Units=1/GPa)
#
#
# Indices 1 2 3 4 5 6 
#
# 1 0.033387 0.002814 -0.000299 0.000000 0.000000 0.000000
# 2 0.002814 0.014440 0.000046 0.000000 0.000000 0.000000
# 3 -0.000299 0.000046 0.005576 0.000000 0.000000 0.000000
# 4 0.000000 0.000000 0.000000 -0.056513 0.000000 0.000000
# 5 0.000000 0.000000 0.000000 0.000000 0.079698 0.000000
# 6 0.000000 0.000000 0.000000 0.000000 0.000000 0.160894
#
#
# Mechanical properties :
#
#
# Convention : Reuss Voigt Hill
#
# Bulk Modulus (GPa) = 17.08626 30.00099 23.54362
# Shear Modulus (GPa) = 19.85177 19.24633 19.54905
#
# Velocity S-wave (km/s) = 2.86607 2.82202 2.84413
# Velocity P-wave (km/s) = 4.24529 4.79920 4.53072
#
# Compressibility (1/GPa) = 0.05852656
#
# Stress axis : x y z
#
# Youngs Moduli (GPa) = 29.95134 69.25317 179.35181
#
# Poissons Ratio (x) = -0.19491 0.05354
# Poissons Ratio (y) = -0.08430 -0.00822
# Poissons Ratio (z) = 0.00894 -0.00318
#
# Static dielectric constant tensor:
#      x y z
#    x 2.047950 0.000000 0.000000 
#    y 0.000000 1.993190 0.000000 
#    z 0.000000 0.000000 1.974780 
# 
# From -- ./inp_files/60254.got.cif
#   From: 2010.05.17/outbox.cif.g08.bks.cpg/sg65_31_cif.got.tgz:60254.got - 2010.06.03 17:01:31.
