data_PCOD9487254
_publ_section_title
;
Structure prediction by ZEFSAII (Michael W. Deem and Ramdas Pophale) SiO2 
 PCOD9487254
Probable space group: C M M M
;
_chemical_formula_sum "Si O2"
_cell_formula_units_Z 120
_cell_length_a 27.855707
_cell_length_b 24.754053
_cell_length_c 9.541766
_cell_angle_alpha 90.000000
_cell_angle_beta 90.000000
_cell_angle_gamma 90.000000
_cell_volume 6579.445047
_symmetry_space_group_name_H-M "C M M M"
_symmetry_group_IT_number 65
_symmetry_cell_setting 'orthorhombic'
loop_
_space_group_symop_operation_xyz
x,y,z
-x,-y,z
x,-y,-z
-x,y,-z
-x,-y,-z
x,y,-z
-x,y,z
x,-y,z
1/2+x,1/2+y,z
1/2-x,1/2-y,z
1/2+x,1/2-y,-z
1/2-x,1/2+y,-z
1/2-x,1/2-y,-z
1/2+x,1/2+y,-z
1/2-x,1/2+y,z
1/2+x,1/2-y,z
loop_
_atom_site_type_symbol
_atom_site_label
_atom_site_fract_x
_atom_site_fract_y
_atom_site_fract_z
Si Si1 0.053712 0.565937 0.661599
Si Si2 0.354100 0.223374 0.663576
Si Si3 0.000000 0.064686 0.335405
Si Si4 0.919646 0.127224 0.834448
Si Si5 0.282651 0.126175 0.666343
Si Si6 0.053858 0.745907 0.165145
Si Si7 0.144081 0.564729 0.841757
Si Si8 0.327533 0.348270 0.664855
O O1 0.061629 0.582205 0.500000
O O2 0.053871 0.500000 0.663042
O O3 0.096855 0.584576 0.759260
O O4 0.000000 0.582842 0.705135
O O5 0.366302 0.216841 0.500000
O O6 0.313144 0.180230 0.698162
O O7 0.402507 0.218891 0.752668
O O8 0.333066 0.283636 0.681838
O O9 0.045595 0.089144 0.254439
O O10 0.000000 0.080522 0.500000
O O11 0.000000 0.000000 0.328058
O O12 0.938493 0.189158 0.820056
O O13 0.866945 0.125770 0.766069
O O14 0.919786 0.114365 0.000000
O O15 0.287447 0.115369 0.500000
O O16 0.308864 0.080943 0.756448
O O17 0.226676 0.134256 0.696531
O O18 0.000000 0.732317 0.214473
O O19 0.057072 0.733686 0.000000
O O20 0.140760 0.500000 0.847157
O O21 0.145327 0.585822 0.000000
O O22 0.337513 0.360219 0.500000
#
# Coordination Sequence:
#
# PCOD9487254 Si02
#       8
#    16  16   8  16  16  16  16  16
#     4   8  14  27  49  74  96 120 156 202 250 300
#     4   9  18  32  52  80 107 134 172 218 265 313
#     4  11  23  37  55  81 113 147 185 229 272 319
#     4  10  19  34  55  80 108 140 178 220 265 318
#     4  10  20  35  55  77 105 139 176 219 265 315
#     4   9  17  31  50  75 108 143 176 213 258 316
#     4  10  21  35  51  73 101 133 172 216 260 309
#     4   9  18  34  56  81 107 137 173 217 267 317
#
# _framework density 18.238620000000001
#
# number of rings (size 3 to 8) (size 9 to 14) (size 15 to 20)
#    0.000    2.600    0.667    1.800    0.000    5.067 
#    0.000    2.667    0.000    5.600    0.000    0.000 
#    0.000    0.000    0.000    0.000    0.000    0.000 
#
# Total GULP energy -334779.753307 kJ/mol
# GULP energy per Si atom -5579.662555 kJ/mol
# Density = 1.819711 g / cm^3
# Si number density = 18.238620 Si / 1000 Ang^3
#
#
#
# Elastic Constant Matrix: (Units=GPa)
#
#
# Indices 1 2 3 4 5 6 
#
# 1 158.2884 25.2271 87.3554 0.0000 0.0000 0.0000
# 2 25.2271 33.0486 35.7666 0.0000 0.0000 0.0000
# 3 87.3554 35.7666 92.2946 0.0000 0.0000 0.0000
# 4 0.0000 0.0000 0.0000 17.6131 0.0000 0.0000
# 5 0.0000 0.0000 0.0000 0.0000 -22.0625 0.0000
# 6 0.0000 0.0000 0.0000 0.0000 0.0000 3.8334
#
#
#
# Elastic Compliance Matrix: (Units=1/GPa)
#
#
# Indices 1 2 3 4 5 6 
#
# 1 0.013941 0.006267 -0.015624 0.000000 0.000000 0.000000
# 2 0.006267 0.054933 -0.027219 0.000000 0.000000 0.000000
# 3 -0.015624 -0.027219 0.036171 0.000000 0.000000 0.000000
# 4 0.000000 0.000000 0.000000 0.056776 0.000000 0.000000
# 5 0.000000 0.000000 0.000000 0.000000 -0.045326 0.000000
# 6 0.000000 0.000000 0.000000 0.000000 0.000000 0.260866
#
#
# Mechanical properties :
#
#
# Convention : Reuss Voigt Hill
#
# Bulk Modulus (GPa) = 31.35564 64.48108 47.91836
# Shear Modulus (GPa) = 10.84262 8.89565 9.86913
#
# Velocity S-wave (km/s) = 2.44086 2.21087 2.32870
# Velocity P-wave (km/s) = 5.01726 6.47674 5.79315
#
# Compressibility (1/GPa) = 0.03189219
#
# Stress axis : x y z
#
# Youngs Moduli (GPa) = 71.73046 18.20409 27.64681
#
# Poissons Ratio (x) = -0.11408 0.43194
# Poissons Ratio (y) = -0.44952 0.75253
# Poissons Ratio (z) = 1.12069 0.49550
#
# Static dielectric constant tensor:
#      x y z
#    x 1.605840 0.000000 0.000000 
#    y 0.000000 1.640660 0.000000 
#    z 0.000000 0.000000 1.612570 
# 
# From -- ./inp_files/17118.got.cif
#   From: 2010.05.17/outbox.cif.g08.bks.cpg/sg65_9_cif.got.tgz:17118.got - 2010.06.03 17:01:31.
