data_PCOD9487790
_publ_section_title
;
Structure prediction by ZEFSAII (Michael W. Deem and Ramdas Pophale) SiO2 
 PCOD9487790
Probable space group: C M M M
;
_chemical_formula_sum "Si O2"
_cell_formula_units_Z 80
_cell_length_a 29.244523
_cell_length_b 8.814719
_cell_length_c 21.521945
_cell_angle_alpha 90.000000
_cell_angle_beta 90.000000
_cell_angle_gamma 90.000000
_cell_volume 5547.975461
_symmetry_space_group_name_H-M "C M M M"
_symmetry_group_IT_number 65
_symmetry_cell_setting 'orthorhombic'
loop_
_space_group_symop_operation_xyz
x,y,z
-x,-y,z
x,-y,-z
-x,y,-z
-x,-y,-z
x,y,-z
-x,y,z
x,-y,z
1/2+x,1/2+y,z
1/2-x,1/2-y,z
1/2+x,1/2-y,-z
1/2-x,1/2+y,-z
1/2-x,1/2-y,-z
1/2+x,1/2+y,-z
1/2-x,1/2+y,z
1/2+x,1/2-y,z
loop_
_atom_site_type_symbol
_atom_site_label
_atom_site_fract_x
_atom_site_fract_y
_atom_site_fract_z
Si Si1 0.299163 0.681481 0.926970
Si Si2 0.055607 0.676207 0.365098
Si Si3 0.552963 0.814749 0.500000
Si Si4 0.890801 0.682086 0.121747
Si Si5 0.946341 0.180564 0.764902
Si Si6 0.447631 0.184519 0.000000
O O1 0.298121 0.500000 0.921800
O O2 0.250000 0.750000 0.909690
O O3 0.340556 0.749689 0.887669
O O4 0.307056 0.720815 0.000000
O O5 0.068694 0.500000 0.356412
O O6 0.072758 0.730541 0.432929
O O7 0.068174 0.770846 0.304531
O O8 0.000000 0.679133 0.368746
O O9 0.500000 0.764406 0.500000
O O10 0.552580 0.000000 0.500000
O O11 0.888363 0.500000 0.121673
O O12 0.915894 0.739158 0.183339
O O13 0.920878 0.731609 0.061911
O O14 0.000000 0.224713 0.772597
O O15 0.943283 0.000000 0.771595
O O16 0.500000 0.237630 0.000000
O O17 0.448420 0.000000 0.000000
#
# Coordination Sequence:
#
# PCOD9487790 Si02
#       6
#    16  16   8  16  16   8
#     4  10  20  34  52  71  91 110 135 172 219 269
#     4   8  13  23  39  57  77 106 144 182 218 256
#     4   7  10  18  35  57  77  99 136 183 220 251
#     4  11  20  32  49  66  86 112 146 184 224 265
#     4  10  20  31  41  58  87 120 152 185 221 262
#     4   9  18  30  44  63  84 107 142 185 220 253
#
# _framework density 14.419675
#
# number of rings (size 3 to 8) (size 9 to 14) (size 15 to 20)
#    0.000    2.600    1.000    3.600    0.000    2.800 
#    0.000    0.500    0.000    5.400    0.000    0.000 
#    0.000    0.000    0.000    0.900    0.000   11.500 
#
# Total GULP energy -222848.771556 kJ/mol
# GULP energy per Si atom -5571.219289 kJ/mol
# Density = 1.438686 g / cm^3
# Si number density = 14.419675 Si / 1000 Ang^3
#
#
#
# Elastic Constant Matrix: (Units=GPa)
#
#
# Indices 1 2 3 4 5 6 
#
# 1 80.9148 30.6433 52.5475 0.0000 0.0000 0.0000
# 2 30.6433 39.0474 35.0454 0.0000 0.0000 0.0000
# 3 52.5475 35.0454 120.2093 0.0000 0.0000 0.0000
# 4 0.0000 0.0000 0.0000 12.6829 0.0000 0.0000
# 5 0.0000 0.0000 0.0000 0.0000 2.0991 0.0000
# 6 0.0000 0.0000 0.0000 0.0000 0.0000 17.8495
#
#
#
# Elastic Compliance Matrix: (Units=1/GPa)
#
#
# Indices 1 2 3 4 5 6 
#
# 1 0.020080 -0.010673 -0.005666 0.000000 0.000000 0.000000
# 2 -0.010673 0.040359 -0.007100 0.000000 0.000000 0.000000
# 3 -0.005666 -0.007100 0.012866 0.000000 0.000000 0.000000
# 4 0.000000 0.000000 0.000000 0.078846 0.000000 0.000000
# 5 0.000000 0.000000 0.000000 0.000000 0.476405 0.000000
# 6 0.000000 0.000000 0.000000 0.000000 0.000000 0.056024
#
#
# Mechanical properties :
#
#
# Convention : Reuss Voigt Hill
#
# Bulk Modulus (GPa) = 37.84255 52.96043 45.40149
# Shear Modulus (GPa) = 6.75431 14.65530 10.70481
#
# Velocity S-wave (km/s) = 2.16663 3.19147 2.72761
# Velocity P-wave (km/s) = 5.70611 7.09847 6.44003
#
# Compressibility (1/GPa) = 0.02642528
#
# Stress axis : x y z
#
# Youngs Moduli (GPa) = 49.79973 24.77789 77.72553
#
# Poissons Ratio (x) = 0.26446 0.44041
# Poissons Ratio (y) = 0.53151 0.55189
# Poissons Ratio (z) = 0.28218 0.17593
#
# Static dielectric constant tensor:
#      x y z
#    x 1.447550 0.000000 0.000000 
#    y 0.000000 1.477960 0.000000 
#    z 0.000000 0.000000 1.494200 
# 
# From -- ./inp_files/65086.got.cif
#   From: 2010.05.17/outbox.cif.g08.bks.cpg/sg65_33_cif.got.tgz:65086.got - 2010.06.03 17:01:31.
