data_PCOD9487146
_publ_section_title
;
Structure prediction by ZEFSAII (Michael W. Deem and Ramdas Pophale) SiO2 
 PCOD9487146
Probable space group: C M M M
;
_chemical_formula_sum "Si O2"
_cell_formula_units_Z 64
_cell_length_a 34.644076
_cell_length_b 7.343425
_cell_length_c 11.099111
_cell_angle_alpha 90.000000
_cell_angle_beta 90.000000
_cell_angle_gamma 90.000000
_cell_volume 2823.682362
_symmetry_space_group_name_H-M "C M M M"
_symmetry_group_IT_number 65
_symmetry_cell_setting 'orthorhombic'
loop_
_space_group_symop_operation_xyz
x,y,z
-x,-y,z
x,-y,-z
-x,y,-z
-x,-y,-z
x,y,-z
-x,y,z
x,-y,z
1/2+x,1/2+y,z
1/2-x,1/2-y,z
1/2+x,1/2-y,-z
1/2-x,1/2+y,-z
1/2-x,1/2-y,-z
1/2+x,1/2+y,-z
1/2-x,1/2+y,z
1/2+x,1/2-y,z
loop_
_atom_site_type_symbol
_atom_site_label
_atom_site_fract_x
_atom_site_fract_y
_atom_site_fract_z
Si Si1 0.421737 0.706741 0.244557
Si Si2 0.500000 0.710511 0.857949
Si Si3 0.954722 0.719734 0.500000
Si Si4 0.795276 0.783844 0.000000
Si Si5 0.295986 0.282946 0.500000
Si Si6 0.334570 0.276551 0.247984
O O1 0.419083 0.500000 0.195435
O O2 0.459603 0.793602 0.184520
O O3 0.433210 0.706953 0.383804
O O4 0.378989 0.784041 0.235236
O O5 0.500000 0.500000 0.810502
O O6 0.500000 0.705792 0.000000
O O7 0.952950 0.500000 0.500000
O O8 0.000000 0.770651 0.500000
O O9 0.750000 0.750000 0.000000
O O10 0.812664 0.716781 0.126760
O O11 0.802590 0.000000 0.000000
O O12 0.301678 0.500000 0.500000
O O13 0.250000 0.250000 0.500000
O O14 0.315332 0.216460 0.374653
O O15 0.334292 0.500000 0.251441
#
# Coordination Sequence:
#
# PCOD9487146 Si02
#       6
#    16   8   8   8   8  16
#     4  10  19  34  56  80 106 139 179 222 266 319
#     4   9  18  29  49  82 110 133 172 223 266 305
#     4  11  22  35  51  74 108 143 178 222 268 316
#     4  10  20  36  56  81 109 144 178 217 269 324
#     4  10  19  34  52  74 101 134 170 212 261 313
#     4   9  19  33  54  80 108 136 172 219 268 314
#
# _framework density 22.665438999999999
#
# number of rings (size 3 to 8) (size 9 to 14) (size 15 to 20)
#    0.000    2.250    1.250    1.875    1.750    2.500 
#    0.000    3.750    0.000    1.500    0.000    0.000 
#    0.000    0.000    0.000    0.000    0.000    0.000 
#
# Total GULP energy -178686.705993 kJ/mol
# GULP energy per Si atom -5583.959562 kJ/mol
# Density = 2.261385 g / cm^3
# Si number density = 22.665439 Si / 1000 Ang^3
#
#
#
# Elastic Constant Matrix: (Units=GPa)
#
#
# Indices 1 2 3 4 5 6 
#
# 1 259.1894 3.0921 123.5942 0.0000 0.0000 0.0000
# 2 3.0921 91.4330 5.2157 0.0000 0.0000 0.0000
# 3 123.5942 5.2157 183.8322 0.0000 0.0000 0.0000
# 4 0.0000 0.0000 0.0000 9.1950 0.0000 0.0000
# 5 0.0000 0.0000 0.0000 0.0000 28.7617 0.0000
# 6 0.0000 0.0000 0.0000 0.0000 0.0000 -11.0144
#
#
#
# Elastic Compliance Matrix: (Units=1/GPa)
#
#
# Indices 1 2 3 4 5 6 
#
# 1 0.005679 0.000026 -0.003819 0.000000 0.000000 0.000000
# 2 0.000026 0.010955 -0.000328 0.000000 0.000000 0.000000
# 3 -0.003819 -0.000328 0.008016 0.000000 0.000000 0.000000
# 4 0.000000 0.000000 0.000000 0.108755 0.000000 0.000000
# 5 0.000000 0.000000 0.000000 0.000000 0.034768 0.000000
# 6 0.000000 0.000000 0.000000 0.000000 0.000000 -0.090790
#
#
# Mechanical properties :
#
#
# Convention : Reuss Voigt Hill
#
# Bulk Modulus (GPa) = 60.94614 88.69540 74.82077
# Shear Modulus (GPa) = 54.88769 32.22529 43.55649
#
# Velocity S-wave (km/s) = 4.92636 3.77474 4.38849
# Velocity P-wave (km/s) = 7.70107 7.62992 7.66558
#
# Compressibility (1/GPa) = 0.01640793
#
# Stress axis : x y z
#
# Youngs Moduli (GPa) = 176.09263 91.28407 124.74331
#
# Poissons Ratio (x) = -0.00235 0.47636
# Poissons Ratio (y) = -0.00454 0.04093
# Poissons Ratio (z) = 0.67245 0.02995
#
# Static dielectric constant tensor:
#      x y z
#    x 1.832700 0.000000 0.000000 
#    y 0.000000 2.009820 0.000000 
#    z 0.000000 0.000000 1.774900 
# 
# From -- ./inp_files/21071.got.cif
#   From: 2010.05.17/outbox.cif.g08.bks.cpg/sg65_11_cif.got.tgz:21071.got - 2010.06.03 17:01:31.
