data_PCOD9487782
_publ_section_title
;
Structure prediction by ZEFSAII (Michael W. Deem and Ramdas Pophale) SiO2 
 PCOD9487782
Probable space group: C M M M
;
_chemical_formula_sum "Si O2"
_cell_formula_units_Z 80
_cell_length_a 18.430385
_cell_length_b 10.230387
_cell_length_c 24.191829
_cell_angle_alpha 90.000000
_cell_angle_beta 90.000000
_cell_angle_gamma 90.000000
_cell_volume 4561.368659
_symmetry_space_group_name_H-M "C M M M"
_symmetry_group_IT_number 65
_symmetry_cell_setting 'orthorhombic'
loop_
_space_group_symop_operation_xyz
x,y,z
-x,-y,z
x,-y,-z
-x,y,-z
-x,-y,-z
x,y,-z
-x,y,z
x,-y,z
1/2+x,1/2+y,z
1/2-x,1/2-y,z
1/2+x,1/2-y,-z
1/2-x,1/2+y,-z
1/2-x,1/2-y,-z
1/2+x,1/2+y,-z
1/2-x,1/2+y,z
1/2+x,1/2-y,z
loop_
_atom_site_type_symbol
_atom_site_label
_atom_site_fract_x
_atom_site_fract_y
_atom_site_fract_z
Si Si1 0.161802 0.760881 0.110513
Si Si2 0.587014 0.000000 0.066870
Si Si3 0.819803 0.155385 0.770435
Si Si4 0.181489 0.154375 0.563355
Si Si5 0.189838 0.861872 0.000000
Si Si6 0.418516 0.657898 0.334474
O O1 0.250000 0.750000 0.112760
O O2 0.124438 0.624523 0.095592
O O3 0.142611 0.817680 0.170229
O O4 0.145900 0.847787 0.056486
O O5 0.500000 0.000000 0.075113
O O6 0.598930 0.000000 0.000000
O O7 0.750000 0.250000 0.766821
O O8 0.871874 0.190469 0.719553
O O9 0.801003 0.000000 0.767590
O O10 0.154838 0.165698 0.500000
O O11 0.250000 0.250000 0.569207
O O12 0.123006 0.193101 0.609311
O O13 0.200545 0.000000 0.571861
O O14 0.250000 0.750000 0.000000
O O15 0.228881 0.000000 0.000000
O O16 0.500000 0.710566 0.332240
O O17 0.422831 0.500000 0.334806
#
# Coordination Sequence:
#
# PCOD9487782 Si02
#       6
#    16   8  16  16   8  16
#     4  10  22  33  60  84 113 140 194 230 281 331
#     4  11  24  42  60  88 121 155 182 228 297 358
#     4  10  21  35  56  82 111 144 186 233 283 330
#     4   9  17  30  52  81 109 140 178 223 273 322
#     4  10  20  30  52  83 115 137 177 233 283 327
#     4   9  18  33  52  76 108 146 185 226 273 325
#
# _framework density 17.538595999999998
#
# number of rings (size 3 to 8) (size 9 to 14) (size 15 to 20)
#    0.000    2.300    1.000    1.200   11.200    1.200 
#    0.000    2.000    0.000    4.200    0.000    2.800 
#    0.000    0.000    0.000    0.000    0.000    0.000 
#
# Total GULP energy -222785.872786 kJ/mol
# GULP energy per Si atom -5569.646820 kJ/mol
# Density = 1.749868 g / cm^3
# Si number density = 17.538596 Si / 1000 Ang^3
#
#
#
# Elastic Constant Matrix: (Units=GPa)
#
#
# Indices 1 2 3 4 5 6 
#
# 1 96.6149 47.9401 80.8700 0.0000 0.0000 0.0000
# 2 47.9401 102.0381 45.6412 0.0000 0.0000 0.0000
# 3 80.8700 45.6412 178.7264 0.0000 0.0000 0.0000
# 4 0.0000 0.0000 0.0000 21.1870 0.0000 0.0000
# 5 0.0000 0.0000 0.0000 0.0000 -8.7434 0.0000
# 6 0.0000 0.0000 0.0000 0.0000 0.0000 18.0904
#
#
#
# Elastic Compliance Matrix: (Units=1/GPa)
#
#
# Indices 1 2 3 4 5 6 
#
# 1 0.019311 -0.005830 -0.007249 0.000000 0.000000 0.000000
# 2 -0.005830 0.012824 -0.000637 0.000000 0.000000 0.000000
# 3 -0.007249 -0.000637 0.009038 0.000000 0.000000 0.000000
# 4 0.000000 0.000000 0.000000 0.047199 0.000000 0.000000
# 5 0.000000 0.000000 0.000000 0.000000 -0.114372 0.000000
# 6 0.000000 0.000000 0.000000 0.000000 0.000000 0.055278
#
#
# Mechanical properties :
#
#
# Convention : Reuss Voigt Hill
#
# Bulk Modulus (GPa) = 72.77566 80.69802 76.73684
# Shear Modulus (GPa) = 81.57843 19.63533 50.60688
#
# Velocity S-wave (km/s) = 6.82749 3.34960 5.37747
# Velocity P-wave (km/s) = 10.18516 7.81481 9.07769
#
# Compressibility (1/GPa) = 0.01374086
#
# Stress axis : x y z
#
# Youngs Moduli (GPa) = 51.78395 77.97655 110.64693
#
# Poissons Ratio (x) = 0.45463 0.80207
# Poissons Ratio (y) = 0.30192 0.07046
# Poissons Ratio (z) = 0.37538 0.04966
#
# Static dielectric constant tensor:
#      x y z
#    x 1.556560 0.000000 0.000000 
#    y 0.000000 1.606760 0.000000 
#    z 0.000000 0.000000 1.640740 
# 
# From -- ./inp_files/70855.got.cif
#   From: 2010.05.17/outbox.cif.g08.bks.cpg/sg65_36_cif.got.tgz:70855.got - 2010.06.03 17:01:31.
