data_PCOD9487236
_publ_section_title
;
Structure prediction by ZEFSAII (Michael W. Deem and Ramdas Pophale) SiO2 
 PCOD9487236
Probable space group: C M M M
;
_chemical_formula_sum "Si O2"
_cell_formula_units_Z 80
_cell_length_a 26.055174
_cell_length_b 20.040975
_cell_length_c 8.554176
_cell_angle_alpha 90.000000
_cell_angle_beta 90.000000
_cell_angle_gamma 90.000000
_cell_volume 4466.743412
_symmetry_space_group_name_H-M "C M M M"
_symmetry_group_IT_number 65
_symmetry_cell_setting 'orthorhombic'
loop_
_space_group_symop_operation_xyz
x,y,z
-x,-y,z
x,-y,-z
-x,y,-z
-x,-y,-z
x,y,-z
-x,y,z
x,-y,z
1/2+x,1/2+y,z
1/2-x,1/2-y,z
1/2+x,1/2-y,-z
1/2-x,1/2+y,-z
1/2-x,1/2-y,-z
1/2+x,1/2+y,-z
1/2-x,1/2+y,z
1/2+x,1/2-y,z
loop_
_atom_site_type_symbol
_atom_site_label
_atom_site_fract_x
_atom_site_fract_y
_atom_site_fract_z
Si Si1 0.614233 0.000000 0.324365
Si Si2 0.329819 0.258982 0.311086
Si Si3 0.556288 0.736659 0.683824
Si Si4 0.760648 0.353444 0.186347
Si Si5 0.763945 0.500000 0.323671
Si Si6 0.057629 0.379589 0.178069
O O1 0.674765 0.000000 0.335047
O O2 0.596089 0.935401 0.232360
O O3 0.592096 0.000000 0.500000
O O4 0.329307 0.258175 0.500000
O O5 0.386767 0.281764 0.256235
O O6 0.287312 0.310016 0.247994
O O7 0.310826 0.185558 0.254372
O O8 0.555499 0.720637 0.500000
O O9 0.500000 0.714634 0.749580
O O10 0.557808 0.816204 0.709635
O O11 0.752547 0.429695 0.240062
O O12 0.763723 0.350199 0.000000
O O13 0.742106 0.500000 0.500000
O O14 0.000000 0.408344 0.181509
O O15 0.067707 0.357156 0.000000
#
# Coordination Sequence:
#
# PCOD9487236 Si02
#       6
#     8  16  16  16   8  16
#     4  11  22  32  45  62  84 121 163 202 241 286
#     4  10  19  34  55  77 104 138 172 207 252 302
#     4   9  18  32  50  72  97 126 162 202 242 289
#     4  11  22  35  53  77 104 134 171 213 255 301
#     4  11  23  38  52  71  99 129 166 208 255 307
#     4  10  20  31  43  62  90 124 161 201 243 284
#
# _framework density 17.910139999999998
#
# number of rings (size 3 to 8) (size 9 to 14) (size 15 to 20)
#    0.000    1.800    0.000    6.300    0.000   10.400 
#    0.000    0.000    0.000    0.000    0.000    0.700 
#    0.000    5.600    0.000    0.000    0.000    0.000 
#
# Total GULP energy -222950.578128 kJ/mol
# GULP energy per Si atom -5573.764453 kJ/mol
# Density = 1.786938 g / cm^3
# Si number density = 17.910140 Si / 1000 Ang^3
#
#
#
# Elastic Constant Matrix: (Units=GPa)
#
#
# Indices 1 2 3 4 5 6 
#
# 1 110.3397 18.9234 18.6638 0.0000 0.0000 0.0000
# 2 18.9234 71.8892 20.4147 0.0000 0.0000 0.0000
# 3 18.6638 20.4147 67.0437 0.0000 0.0000 0.0000
# 4 0.0000 0.0000 0.0000 27.2731 0.0000 0.0000
# 5 0.0000 0.0000 0.0000 0.0000 -23.7717 0.0000
# 6 0.0000 0.0000 0.0000 0.0000 0.0000 26.5362
#
#
#
# Elastic Compliance Matrix: (Units=1/GPa)
#
#
# Indices 1 2 3 4 5 6 
#
# 1 0.009759 -0.001967 -0.002118 0.000000 0.000000 0.000000
# 2 -0.001967 0.015624 -0.004210 0.000000 0.000000 0.000000
# 3 -0.002118 -0.004210 0.016787 0.000000 0.000000 0.000000
# 4 0.000000 0.000000 0.000000 0.036666 0.000000 0.000000
# 5 0.000000 0.000000 0.000000 0.000000 -0.042067 0.000000
# 6 0.000000 0.000000 0.000000 0.000000 0.000000 0.037684
#
#
# Mechanical properties :
#
#
# Convention : Reuss Voigt Hill
#
# Bulk Modulus (GPa) = 39.09326 40.58628 39.83977
# Shear Modulus (GPa) = 50.21658 18.75889 34.48774
#
# Velocity S-wave (km/s) = 5.30084 3.23985 4.39292
# Velocity P-wave (km/s) = 7.70325 6.05853 6.92986
#
# Compressibility (1/GPa) = 0.02557986
#
# Stress axis : x y z
#
# Youngs Moduli (GPa) = 102.47462 64.00569 59.57004
#
# Poissons Ratio (x) = 0.12593 0.12614
# Poissons Ratio (y) = 0.20161 0.25077
# Poissons Ratio (z) = 0.21699 0.26944
#
# Static dielectric constant tensor:
#      x y z
#    x 1.683020 0.000000 0.000000 
#    y 0.000000 1.576080 0.000000 
#    z 0.000000 0.000000 1.641080 
# 
# From -- ./inp_files/16058.got.cif
#   From: 2010.05.17/outbox.cif.g08.bks.cpg/sg65_9_cif.got.tgz:16058.got - 2010.06.03 17:01:31.
