data_PCOD9487882
_publ_section_title
;
Structure prediction by ZEFSAII (Michael W. Deem and Ramdas Pophale) SiO2 
 PCOD9487882
Probable space group: C M M M
;
_chemical_formula_sum "Si O2"
_cell_formula_units_Z 88
_cell_length_a 7.405831
_cell_length_b 19.011395
_cell_length_c 31.780296
_cell_angle_alpha 90.000000
_cell_angle_beta 90.000000
_cell_angle_gamma 90.000000
_cell_volume 4474.512446
_symmetry_space_group_name_H-M "C M M M"
_symmetry_group_IT_number 65
_symmetry_cell_setting 'orthorhombic'
loop_
_space_group_symop_operation_xyz
x,y,z
-x,-y,z
x,-y,-z
-x,y,-z
-x,-y,-z
x,y,-z
-x,y,z
x,-y,z
1/2+x,1/2+y,z
1/2-x,1/2-y,z
1/2+x,1/2-y,-z
1/2-x,1/2+y,-z
1/2-x,1/2-y,-z
1/2+x,1/2+y,-z
1/2-x,1/2+y,z
1/2+x,1/2-y,z
loop_
_atom_site_type_symbol
_atom_site_label
_atom_site_fract_x
_atom_site_fract_y
_atom_site_fract_z
Si Si1 0.284498 0.167156 0.300682
Si Si2 0.720172 0.081758 0.220104
Si Si3 0.285465 0.916476 0.616900
Si Si4 0.715961 0.167079 0.953707
Si Si5 0.780094 0.418351 0.873513
Si Si6 0.000000 0.085219 0.452357
O O1 0.500000 0.156886 0.300444
O O2 0.250000 0.250000 0.301544
O O3 0.215617 0.130280 0.258160
O O4 0.221367 0.127643 0.342747
O O5 0.500000 0.082873 0.220090
O O6 0.777843 0.104709 0.173260
O O7 0.771774 0.000000 0.226295
O O8 0.500000 0.906201 0.610966
O O9 0.173904 0.895652 0.575576
O O10 0.256357 0.000000 0.624745
O O11 0.500000 0.156556 0.954444
O O12 0.750000 0.250000 0.949376
O O13 0.785956 0.126265 0.913040
O O14 0.784813 0.145028 0.000000
O O15 0.730567 0.500000 0.878387
O O16 0.000000 0.415322 0.873542
O O17 0.000000 0.112421 0.500000
O O18 0.000000 0.000000 0.454869
#
# Coordination Sequence:
#
# PCOD9487882 Si02
#       6
#    16  16  16  16  16   8
#     4  10  20  31  47  72  97 128 161 200 244 289
#     4   8  14  27  46  66  91 121 156 195 237 293
#     4   9  18  33  53  77 104 137 174 211 254 302
#     4   9  17  28  42  62  88 117 151 190 235 286
#     4   8  14  25  43  66  88 114 150 195 242 282
#     4   9  18  32  54  84 110 134 169 215 262 302
#
# _framework density 19.666947
#
# number of rings (size 3 to 8) (size 9 to 14) (size 15 to 20)
#    0.000    3.182    0.000    1.636    1.273    3.636 
#    0.000    3.636    0.000    1.091    0.000    5.091 
#    0.000    0.000    0.000    0.000    0.000    0.000 
#
# Total GULP energy -245372.875797 kJ/mol
# GULP energy per Si atom -5576.656268 kJ/mol
# Density = 1.962218 g / cm^3
# Si number density = 19.666947 Si / 1000 Ang^3
#
#
#
# Elastic Constant Matrix: (Units=GPa)
#
#
# Indices 1 2 3 4 5 6 
#
# 1 71.1149 16.1976 40.3008 0.0000 0.0000 0.0000
# 2 16.1976 73.5329 105.3267 0.0000 0.0000 0.0000
# 3 40.3008 105.3267 254.6347 0.0000 0.0000 0.0000
# 4 0.0000 0.0000 0.0000 2.6206 0.0000 0.0000
# 5 0.0000 0.0000 0.0000 0.0000 -14.6225 0.0000
# 6 0.0000 0.0000 0.0000 0.0000 0.0000 14.8721
#
#
#
# Elastic Compliance Matrix: (Units=1/GPa)
#
#
# Indices 1 2 3 4 5 6 
#
# 1 0.015449 0.000244 -0.002546 0.000000 0.000000 0.000000
# 2 0.000244 0.033375 -0.013844 0.000000 0.000000 0.000000
# 3 -0.002546 -0.013844 0.010056 0.000000 0.000000 0.000000
# 4 0.000000 0.000000 0.000000 0.381591 0.000000 0.000000
# 5 0.000000 0.000000 0.000000 0.000000 -0.068388 0.000000
# 6 0.000000 0.000000 0.000000 0.000000 0.000000 0.067240
#
#
# Mechanical properties :
#
#
# Convention : Reuss Voigt Hill
#
# Bulk Modulus (GPa) = 37.61028 80.32586 58.96807
# Shear Modulus (GPa) = 10.40628 16.40455 13.40541
#
# Velocity S-wave (km/s) = 2.30277 2.89124 2.61362
# Velocity P-wave (km/s) = 5.12205 7.21647 6.25751
#
# Compressibility (1/GPa) = 0.02658848
#
# Stress axis : x y z
#
# Youngs Moduli (GPa) = 64.72912 29.96227 99.43845
#
# Poissons Ratio (x) = -0.00730 0.25315
# Poissons Ratio (y) = -0.01576 1.37661
# Poissons Ratio (z) = 0.16479 0.41479
#
# Static dielectric constant tensor:
#      x y z
#    x 1.744210 0.000000 0.000000 
#    y 0.000000 1.645340 0.000000 
#    z 0.000000 0.000000 1.696690 
# 
# From -- ./inp_files/76628.got.cif
#   From: 2010.05.17/outbox.cif.g08.bks.cpg/sg65_39_cif.got.tgz:76628.got - 2010.06.03 17:01:31.
