data_PCOD9487908
_publ_section_title
;
Structure prediction by ZEFSAII (Michael W. Deem and Ramdas Pophale) SiO2 
 PCOD9487908
Probable space group: C M M M
;
_chemical_formula_sum "Si O2"
_cell_formula_units_Z 58
_cell_length_a 10.142113
_cell_length_b 24.515007
_cell_length_c 13.232912
_cell_angle_alpha 90.000000
_cell_angle_beta 90.000000
_cell_angle_gamma 90.000000
_cell_volume 3290.151461
_symmetry_space_group_name_H-M "C M M M"
_symmetry_group_IT_number 65
_symmetry_cell_setting 'orthorhombic'
loop_
_space_group_symop_operation_xyz
x,y,z
-x,-y,z
x,-y,-z
-x,y,-z
-x,-y,-z
x,y,-z
-x,y,z
x,-y,z
1/2+x,1/2+y,z
1/2-x,1/2-y,z
1/2+x,1/2-y,-z
1/2-x,1/2+y,-z
1/2-x,1/2-y,-z
1/2+x,1/2+y,-z
1/2-x,1/2+y,z
1/2+x,1/2-y,z
loop_
_atom_site_type_symbol
_atom_site_label
_atom_site_fract_x
_atom_site_fract_y
_atom_site_fract_z
Si Si1 0.500000 0.934881 0.116024
Si Si2 0.000000 0.500000 0.500000
Si Si3 0.228188 0.000000 0.610267
Si Si4 0.657091 0.196787 0.616861
Si Si5 0.754868 0.099204 0.243334
Si Si6 0.500000 0.434428 0.879454
O O1 0.372653 0.917394 0.178941
O O2 0.500000 0.000000 0.110627
O O3 0.500000 0.914047 0.000000
O O4 0.115938 0.500000 0.585781
O O5 0.203908 0.053610 0.674752
O O6 0.162323 0.000000 0.500000
O O7 0.664461 0.176241 0.500000
O O8 0.500000 0.207037 0.636146
O O9 0.750000 0.250000 0.622615
O O10 0.715668 0.152877 0.694314
O O11 0.874759 0.097135 0.165358
O O12 0.500000 0.500000 0.851946
O O13 0.500000 0.433008 0.000000
#
# Coordination Sequence:
#
# PCOD9487908 Si02
#       6
#     8   2   8  16  16   8
#     4  11  21  35  59  92 121 149 205 257 297 366
#     4   8  20  28  52  78 134 148 184 226 312 354
#     4  10  20  31  53  90 122 153 189 239 300 369
#     4  10  23  41  64  92 124 162 204 249 302 367
#     4  12  21  38  61  89 120 163 202 247 309 362
#     4  11  24  42  61  87 129 168 204 251 310 367
#
# _framework density 17.628368999999999
#
# number of rings (size 3 to 8) (size 9 to 14) (size 15 to 20)
#    0.414    0.828    4.138    2.483    1.931    2.207 
#    0.000    2.759    0.000    4.966    0.000    0.000 
#    0.000    0.000    0.000    0.000    0.000    0.000 
#
# Total GULP energy -161446.210808 kJ/mol
# GULP energy per Si atom -5567.110718 kJ/mol
# Density = 1.758825 g / cm^3
# Si number density = 17.628369 Si / 1000 Ang^3
#
#
#
# Elastic Constant Matrix: (Units=GPa)
#
#
# Indices 1 2 3 4 5 6 
#
# 1 140.3845 42.9042 59.5992 0.0000 0.0000 0.0000
# 2 42.9042 76.1232 59.8720 0.0000 0.0000 0.0000
# 3 59.5992 59.8720 137.3040 0.0000 0.0000 0.0000
# 4 0.0000 0.0000 0.0000 32.6964 0.0000 0.0000
# 5 0.0000 0.0000 0.0000 0.0000 59.5184 0.0000
# 6 0.0000 0.0000 0.0000 0.0000 0.0000 36.6542
#
#
#
# Elastic Compliance Matrix: (Units=1/GPa)
#
#
# Indices 1 2 3 4 5 6 
#
# 1 0.009192 -0.003109 -0.002634 0.000000 0.000000 0.000000
# 2 -0.003109 0.021045 -0.007827 0.000000 0.000000 0.000000
# 3 -0.002634 -0.007827 0.011840 0.000000 0.000000 0.000000
# 4 0.000000 0.000000 0.000000 0.030584 0.000000 0.000000
# 5 0.000000 0.000000 0.000000 0.000000 0.016802 0.000000
# 6 0.000000 0.000000 0.000000 0.000000 0.000000 0.027282
#
#
# Mechanical properties :
#
#
# Convention : Reuss Voigt Hill
#
# Bulk Modulus (GPa) = 66.95333 75.39584 71.17458
# Shear Modulus (GPa) = 33.58775 38.53622 36.06199
#
# Velocity S-wave (km/s) = 4.36974 4.68058 4.52783
# Velocity P-wave (km/s) = 7.97009 8.48957 8.23393
#
# Compressibility (1/GPa) = 0.01493578
#
# Stress axis : x y z
#
# Youngs Moduli (GPa) = 108.79340 47.51707 84.46142
#
# Poissons Ratio (x) = 0.14772 0.22249
# Poissons Ratio (y) = 0.33821 0.66111
# Poissons Ratio (z) = 0.28659 0.37193
#
# Static dielectric constant tensor:
#      x y z
#    x 1.263260 0.000000 0.000000 
#    y 0.000000 1.588730 0.000000 
#    z 0.000000 0.000000 1.634910 
# 
# From -- ./inp_files/35894.got.cif
#   From: 2010.05.17/outbox.cif.g08.bks.cpg/sg65_18_cif.got.tgz:35894.got - 2010.06.03 17:01:31.
