data_PCOD9487921
_publ_section_title
;
Structure prediction by ZEFSAII (Michael W. Deem and Ramdas Pophale) SiO2 
 PCOD9487921
Probable space group: C M M M
;
_chemical_formula_sum "Si O2"
_cell_formula_units_Z 88
_cell_length_a 37.155268
_cell_length_b 8.807457
_cell_length_c 20.502988
_cell_angle_alpha 90.000000
_cell_angle_beta 90.000000
_cell_angle_gamma 90.000000
_cell_volume 6709.468021
_symmetry_space_group_name_H-M "C M M M"
_symmetry_group_IT_number 65
_symmetry_cell_setting 'orthorhombic'
loop_
_space_group_symop_operation_xyz
x,y,z
-x,-y,z
x,-y,-z
-x,y,-z
-x,-y,-z
x,y,-z
-x,y,z
x,-y,z
1/2+x,1/2+y,z
1/2-x,1/2-y,z
1/2+x,1/2-y,-z
1/2-x,1/2+y,-z
1/2-x,1/2-y,-z
1/2+x,1/2+y,-z
1/2-x,1/2+y,z
1/2+x,1/2-y,z
loop_
_atom_site_type_symbol
_atom_site_label
_atom_site_fract_x
_atom_site_fract_y
_atom_site_fract_z
Si Si1 0.043392 0.681371 0.070102
Si Si2 0.457415 0.816221 0.786645
Si Si3 0.712833 0.325460 0.579251
Si Si4 0.000000 0.184689 0.574681
Si Si5 0.070690 0.182330 0.344879
Si Si6 0.863138 0.318520 0.576386
O O1 0.050250 0.500000 0.069518
O O2 0.055235 0.737243 0.141290
O O3 0.000000 0.698241 0.070401
O O4 0.056529 0.743535 0.000000
O O5 0.500000 0.777591 0.779174
O O6 0.435478 0.745142 0.727577
O O7 0.455118 0.000000 0.784571
O O8 0.714080 0.323967 0.500000
O O9 0.710632 0.500000 0.600181
O O10 0.750000 0.250000 0.602121
O O11 0.676576 0.236736 0.596871
O O12 0.035841 0.232093 0.612786
O O13 0.000000 0.237600 0.500000
O O14 0.000000 0.000000 0.573741
O O15 0.106184 0.244731 0.379599
O O16 0.071548 0.000000 0.343886
O O17 0.868398 0.274288 0.500000
O O18 0.865047 0.500000 0.580150
#
# Coordination Sequence:
#
# PCOD9487921 Si02
#       6
#    16  16  16   8  16  16
#     4   7  10  18  34  55  74  92 117 150 188 229
#     4   9  16  26  40  56  75  97 124 161 199 235
#     4   9  16  27  44  64  83 102 123 150 188 235
#     4   9  18  30  41  51  64  89 128 170 207 241
#     4  11  20  30  42  55  74 101 132 166 203 245
#     4  10  20  32  44  59  78  99 127 166 206 241
#
# _framework density 13.115793
#
# number of rings (size 3 to 8) (size 9 to 14) (size 15 to 20)
#    0.000    2.818    0.909    3.818    0.000    4.000 
#    0.000    0.000    0.000    2.727    0.000    2.545 
#    0.000    0.000    0.000    0.000    0.000    0.909 
#
# Total GULP energy -244941.140739 kJ/mol
# GULP energy per Si atom -5566.844108 kJ/mol
# Density = 1.308594 g / cm^3
# Si number density = 13.115793 Si / 1000 Ang^3
#
#
#
# Elastic Constant Matrix: (Units=GPa)
#
#
# Indices 1 2 3 4 5 6 
#
# 1 86.3304 27.2960 51.1405 0.0000 0.0000 0.0000
# 2 27.2960 32.2919 27.8123 0.0000 0.0000 0.0000
# 3 51.1405 27.8123 114.2259 0.0000 0.0000 0.0000
# 4 0.0000 0.0000 0.0000 9.8078 0.0000 0.0000
# 5 0.0000 0.0000 0.0000 0.0000 2.2102 0.0000
# 6 0.0000 0.0000 0.0000 0.0000 0.0000 18.2901
#
#
#
# Elastic Compliance Matrix: (Units=1/GPa)
#
#
# Indices 1 2 3 4 5 6 
#
# 1 0.018248 -0.010614 -0.005586 0.000000 0.000000 0.000000
# 2 -0.010614 0.045359 -0.006292 0.000000 0.000000 0.000000
# 3 -0.005586 -0.006292 0.012787 0.000000 0.000000 0.000000
# 4 0.000000 0.000000 0.000000 0.101960 0.000000 0.000000
# 5 0.000000 0.000000 0.000000 0.000000 0.452445 0.000000
# 6 0.000000 0.000000 0.000000 0.000000 0.000000 0.054674
#
#
# Mechanical properties :
#
#
# Convention : Reuss Voigt Hill
#
# Bulk Modulus (GPa) = 31.83639 49.48287 40.65963
# Shear Modulus (GPa) = 6.74829 14.50158 10.62494
#
# Velocity S-wave (km/s) = 2.27076 3.32875 2.84929
# Velocity P-wave (km/s) = 5.58580 7.25146 6.47244
#
# Compressibility (1/GPa) = 0.03141060
#
# Stress axis : x y z
#
# Youngs Moduli (GPa) = 54.79990 22.04643 78.20241
#
# Poissons Ratio (x) = 0.23401 0.43680
# Poissons Ratio (y) = 0.58166 0.49205
# Poissons Ratio (z) = 0.30609 0.13872
#
# Static dielectric constant tensor:
#      x y z
#    x 1.404470 0.000000 0.000000 
#    y 0.000000 1.438950 0.000000 
#    z 0.000000 0.000000 1.446530 
# 
# From -- ./inp_files/66182.got.cif
#   From: 2010.05.17/outbox.cif.g08.bks.cpg/sg65_34_cif.got.tgz:66182.got - 2010.06.03 17:01:31.
