data_PCOD9487959
_publ_section_title
;
Structure prediction by ZEFSAII (Michael W. Deem and Ramdas Pophale) SiO2 
 PCOD9487959
Probable space group: C M M M
;
_chemical_formula_sum "Si O2"
_cell_formula_units_Z 96
_cell_length_a 29.381120
_cell_length_b 13.885154
_cell_length_c 14.709558
_cell_angle_alpha 90.000000
_cell_angle_beta 90.000000
_cell_angle_gamma 90.000000
_cell_volume 6000.931520
_symmetry_space_group_name_H-M "C M M M"
_symmetry_group_IT_number 65
_symmetry_cell_setting 'orthorhombic'
loop_
_space_group_symop_operation_xyz
x,y,z
-x,-y,z
x,-y,-z
-x,y,-z
-x,-y,-z
x,y,-z
-x,y,z
x,-y,z
1/2+x,1/2+y,z
1/2-x,1/2-y,z
1/2+x,1/2-y,-z
1/2-x,1/2+y,-z
1/2-x,1/2-y,-z
1/2+x,1/2+y,-z
1/2-x,1/2+y,z
1/2+x,1/2-y,z
loop_
_atom_site_type_symbol
_atom_site_label
_atom_site_fract_x
_atom_site_fract_y
_atom_site_fract_z
Si Si1 0.718435 0.616045 0.604763
Si Si2 0.309661 0.115087 0.286414
Si Si3 0.264048 0.883885 0.901281
Si Si4 0.552692 0.386758 0.391571
Si Si5 0.343559 0.384519 0.104078
Si Si6 0.365790 0.709663 0.288092
O O1 0.713948 0.646942 0.500000
O O2 0.714633 0.500000 0.607950
O O3 0.768380 0.638889 0.644656
O O4 0.678096 0.657460 0.666253
O O5 0.291381 0.146153 0.186975
O O6 0.354219 0.178196 0.301703
O O7 0.316668 0.000000 0.288871
O O8 0.210601 0.863296 0.891064
O O9 0.267272 0.000000 0.903034
O O10 0.279985 0.847840 0.000000
O O11 0.558502 0.374697 0.500000
O O12 0.500000 0.365311 0.369585
O O13 0.560751 0.500000 0.371658
O O14 0.589049 0.324148 0.338404
O O15 0.348746 0.500000 0.120157
O O16 0.367200 0.324582 0.183451
O O17 0.358151 0.365126 0.000000
#
# Coordination Sequence:
#
# PCOD9487959 Si02
#       6
#    16  16  16  16  16  16
#     4  10  20  32  45  65  95 126 156 193 236 285
#     4  10  21  33  42  63 100 134 165 200 232 267
#     4   8  14  27  44  60  89 132 168 199 232 264
#     4   9  19  36  57  80 100 115 142 194 252 297
#     4   9  17  28  44  70 101 128 159 200 240 282
#     4  12  20  29  51  73  91 126 167 196 233 288
#
# _framework density 15.997517
#
# number of rings (size 3 to 8) (size 9 to 14) (size 15 to 20)
#    0.000    2.333    1.667    4.000    0.000    4.000 
#    0.000    1.667    0.000    1.000    0.000    3.500 
#    0.000    0.000    0.000    5.667    0.000    0.167 
#
# Total GULP energy -267868.564312 kJ/mol
# GULP energy per Si atom -5580.595090 kJ/mol
# Density = 1.596111 g / cm^3
# Si number density = 15.997517 Si / 1000 Ang^3
#
#
#
# Elastic Constant Matrix: (Units=GPa)
#
#
# Indices 1 2 3 4 5 6 
#
# 1 63.1938 34.5526 33.8035 0.0000 0.0000 0.0000
# 2 34.5526 69.0488 31.2547 0.0000 0.0000 0.0000
# 3 33.8035 31.2547 82.8868 0.0000 0.0000 0.0000
# 4 0.0000 0.0000 0.0000 8.7158 0.0000 0.0000
# 5 0.0000 0.0000 0.0000 0.0000 17.8928 0.0000
# 6 0.0000 0.0000 0.0000 0.0000 0.0000 25.1274
#
#
#
# Elastic Compliance Matrix: (Units=1/GPa)
#
#
# Indices 1 2 3 4 5 6 
#
# 1 0.024329 -0.009264 -0.006428 0.000000 0.000000 0.000000
# 2 -0.009264 0.020991 -0.004137 0.000000 0.000000 0.000000
# 3 -0.006428 -0.004137 0.016246 0.000000 0.000000 0.000000
# 4 0.000000 0.000000 0.000000 0.114734 0.000000 0.000000
# 5 0.000000 0.000000 0.000000 0.000000 0.055888 0.000000
# 6 0.000000 0.000000 0.000000 0.000000 0.000000 0.039797
#
#
# Mechanical properties :
#
#
# Convention : Reuss Voigt Hill
#
# Bulk Modulus (GPa) = 45.64902 46.03900 45.84401
# Shear Modulus (GPa) = 15.67656 18.04843 16.86250
#
# Velocity S-wave (km/s) = 3.13379 3.36252 3.25017
# Velocity P-wave (km/s) = 6.45687 6.62697 6.54247
#
# Compressibility (1/GPa) = 0.02190628
#
# Stress axis : x y z
#
# Youngs Moduli (GPa) = 41.10401 47.63930 61.55238
#
# Poissons Ratio (x) = 0.44135 0.39569
# Poissons Ratio (y) = 0.38080 0.25464
# Poissons Ratio (z) = 0.26424 0.19708
#
# Static dielectric constant tensor:
#      x y z
#    x 1.488400 0.000000 0.000000 
#    y 0.000000 1.583810 0.000000 
#    z 0.000000 0.000000 1.568330 
# 
# From -- ./inp_files/41267.got.cif
#   From: 2010.05.17/outbox.cif.g08.bks.cpg/sg65_21_cif.got.tgz:41267.got - 2010.06.03 17:01:31.
