data_PCOD9487390
_publ_section_title
;
Structure prediction by ZEFSAII (Michael W. Deem and Ramdas Pophale) SiO2 
 PCOD9487390
Probable space group: C M M M
;
_chemical_formula_sum "Si O2"
_cell_formula_units_Z 112
_cell_length_a 25.416780
_cell_length_b 14.614971
_cell_length_c 15.295770
_cell_angle_alpha 90.000000
_cell_angle_beta 90.000000
_cell_angle_gamma 90.000000
_cell_volume 5681.850891
_symmetry_space_group_name_H-M "C M M M"
_symmetry_group_IT_number 65
_symmetry_cell_setting 'orthorhombic'
loop_
_space_group_symop_operation_xyz
x,y,z
-x,-y,z
x,-y,-z
-x,y,-z
-x,-y,-z
x,y,-z
-x,y,z
x,-y,z
1/2+x,1/2+y,z
1/2-x,1/2-y,z
1/2+x,1/2-y,-z
1/2-x,1/2+y,-z
1/2-x,1/2-y,-z
1/2+x,1/2+y,-z
1/2-x,1/2+y,z
1/2+x,1/2-y,z
loop_
_atom_site_type_symbol
_atom_site_label
_atom_site_fract_x
_atom_site_fract_y
_atom_site_fract_z
Si Si1 0.063105 0.279769 0.403065
Si Si2 0.768746 0.355099 0.214767
Si Si3 0.367062 0.196981 0.899036
Si Si4 0.128373 0.898645 0.639756
Si Si5 0.563125 0.104464 0.235884
Si Si6 0.250884 0.639693 0.594893
Si Si7 0.655493 0.599548 0.156380
O O1 0.073939 0.317394 0.500000
O O2 0.092687 0.183489 0.393424
O O3 0.080987 0.345648 0.324903
O O4 0.000000 0.266750 0.395518
O O5 0.750000 0.250000 0.224480
O O6 0.819319 0.350929 0.153849
O O7 0.776631 0.389279 0.314238
O O8 0.718622 0.400907 0.169408
O O9 0.417612 0.163303 0.846148
O O10 0.359918 0.307019 0.891736
O O11 0.367314 0.170689 0.000000
O O12 0.188024 0.888151 0.605514
O O13 0.132695 0.892513 0.745095
O O14 0.108989 0.000000 0.616247
O O15 0.500000 0.102379 0.238040
O O16 0.582210 0.000000 0.230495
O O17 0.230940 0.607842 0.500000
O O18 0.250000 0.750000 0.592437
O O19 0.639428 0.500000 0.119960
#
# Coordination Sequence:
#
# PCOD9487390 Si02
#       7
#    16  16  16  16  16  16  16
#     4  10  21  37  61  92 122 154 192 234 285 346
#     4   8  17  32  50  78 116 151 191 238 281 329
#     4  11  22  38  62  88 116 149 193 249 303 352
#     4  10  19  34  57  86 124 165 201 237 281 338
#     4  10  23  44  66  87 113 145 187 242 301 358
#     4   9  17  29  49  75 109 160 205 237 273 320
#     4   9  18  34  56  83 121 164 198 229 279 348
#
# _framework density 19.711887000000001
#
# number of rings (size 3 to 8) (size 9 to 14) (size 15 to 20)
#    0.000    2.429    1.429    1.286    0.000    5.714 
#    0.000    2.857    0.000    0.429    0.000    1.000 
#    0.000    0.000    0.000    0.000    0.000    0.000 
#
# Total GULP energy -312396.402369 kJ/mol
# GULP energy per Si atom -5578.507185 kJ/mol
# Density = 1.966702 g / cm^3
# Si number density = 19.711887 Si / 1000 Ang^3
#
#
#
# Elastic Constant Matrix: (Units=GPa)
#
#
# Indices 1 2 3 4 5 6 
#
# 1 24.6577 24.0060 29.2730 0.0000 0.0000 0.0000
# 2 24.0060 112.4409 40.5951 0.0000 0.0000 0.0000
# 3 29.2730 40.5951 147.3669 0.0000 0.0000 0.0000
# 4 0.0000 0.0000 0.0000 5.7314 0.0000 0.0000
# 5 0.0000 0.0000 0.0000 0.0000 7.2079 0.0000
# 6 0.0000 0.0000 0.0000 0.0000 0.0000 20.8064
#
#
#
# Elastic Compliance Matrix: (Units=1/GPa)
#
#
# Indices 1 2 3 4 5 6 
#
# 1 0.061226 -0.009639 -0.009507 0.000000 0.000000 0.000000
# 2 -0.009639 0.011393 -0.001224 0.000000 0.000000 0.000000
# 3 -0.009507 -0.001224 0.009011 0.000000 0.000000 0.000000
# 4 0.000000 0.000000 0.000000 0.174477 0.000000 0.000000
# 5 0.000000 0.000000 0.000000 0.000000 0.138738 0.000000
# 6 0.000000 0.000000 0.000000 0.000000 0.000000 0.048062
#
#
# Mechanical properties :
#
#
# Convention : Reuss Voigt Hill
#
# Bulk Modulus (GPa) = 24.45528 52.46817 38.46173
# Shear Modulus (GPa) = 10.05476 19.45523 14.75499
#
# Velocity S-wave (km/s) = 2.26096 3.14503 2.73890
# Velocity P-wave (km/s) = 4.38739 6.31376 5.43658
#
# Compressibility (1/GPa) = 0.04089097
#
# Stress axis : x y z
#
# Youngs Moduli (GPa) = 16.33300 87.77024 110.97214
#
# Poissons Ratio (x) = 0.84606 1.05496
# Poissons Ratio (y) = 0.15744 0.13580
# Poissons Ratio (z) = 0.15527 0.10741
#
# Static dielectric constant tensor:
#      x y z
#    x 1.680650 0.000000 0.000000 
#    y 0.000000 1.745500 0.000000 
#    z 0.000000 0.000000 1.703560 
# 
# From -- ./inp_files/40814.got.cif
#   From: 2010.05.17/outbox.cif.g08.bks.cpg/sg65_21_cif.got.tgz:40814.got - 2010.06.03 17:01:31.
