data_PCOD9487930
_publ_section_title
;
Structure prediction by ZEFSAII (Michael W. Deem and Ramdas Pophale) SiO2 
 PCOD9487930
Probable space group: C M M M
;
_chemical_formula_sum "Si O2"
_cell_formula_units_Z 88
_cell_length_a 33.328356
_cell_length_b 7.666996
_cell_length_c 16.990394
_cell_angle_alpha 90.000000
_cell_angle_beta 90.000000
_cell_angle_gamma 90.000000
_cell_volume 4341.527721
_symmetry_space_group_name_H-M "C M M M"
_symmetry_group_IT_number 65
_symmetry_cell_setting 'orthorhombic'
loop_
_space_group_symop_operation_xyz
x,y,z
-x,-y,z
x,-y,-z
-x,y,-z
-x,-y,-z
x,y,-z
-x,y,z
x,-y,z
1/2+x,1/2+y,z
1/2-x,1/2-y,z
1/2+x,1/2-y,-z
1/2-x,1/2+y,-z
1/2-x,1/2-y,-z
1/2+x,1/2+y,-z
1/2-x,1/2+y,z
1/2+x,1/2-y,z
loop_
_atom_site_type_symbol
_atom_site_label
_atom_site_fract_x
_atom_site_fract_y
_atom_site_fract_z
Si Si1 0.205317 0.789996 0.409544
Si Si2 0.850543 0.292869 0.862844
Si Si3 0.456726 0.706121 0.264790
Si Si4 0.130120 0.200916 0.689774
Si Si5 0.059378 0.293502 0.085879
Si Si6 0.296030 0.209127 0.000000
O O1 0.204423 0.727148 0.500000
O O2 0.250000 0.750000 0.376922
O O3 0.166018 0.722688 0.363265
O O4 0.202599 0.000000 0.409924
O O5 0.845168 0.500000 0.847853
O O6 0.853732 0.203732 0.778917
O O7 0.892705 0.273013 0.907720
O O8 0.816750 0.224486 0.920859
O O9 0.500000 0.779310 0.290766
O O10 0.456632 0.500000 0.282029
O O11 0.415102 0.779042 0.301478
O O12 0.455236 0.721933 0.169508
O O13 0.124826 0.000000 0.664105
O O14 0.050243 0.500000 0.086852
O O15 0.046300 0.224823 0.000000
O O16 0.250000 0.250000 0.000000
O O17 0.302960 0.000000 0.000000
#
# Coordination Sequence:
#
# PCOD9487930 Si02
#       6
#    16  16  16  16  16   8
#     4   9  18  33  53  76 101 125 150 186 232 282
#     4   9  17  31  47  62  85 119 157 194 232 273
#     4   9  18  31  45  64  92 124 156 191 232 277
#     4   9  18  32  50  71  94 123 157 190 230 279
#     4   9  16  28  46  63  82 113 154 198 239 275
#     4  10  20  32  44  60  85 118 155 195 236 277
#
# _framework density 20.269362999999998
#
# number of rings (size 3 to 8) (size 9 to 14) (size 15 to 20)
#    0.000    2.909    0.909    0.000    0.000    3.273 
#    0.000    5.455    0.000    0.545    0.000    3.818 
#    0.000    0.000    0.000   13.636    0.000   14.182 
#
# Total GULP energy -245070.056455 kJ/mol
# GULP energy per Si atom -5569.774010 kJ/mol
# Density = 2.022323 g / cm^3
# Si number density = 20.269363 Si / 1000 Ang^3
#
#
#
# Elastic Constant Matrix: (Units=GPa)
#
#
# Indices 1 2 3 4 5 6 
#
# 1 200.4993 9.4109 61.7004 0.0000 0.0000 0.0000
# 2 9.4109 34.3610 2.1245 0.0000 0.0000 0.0000
# 3 61.7004 2.1245 59.1436 0.0000 0.0000 0.0000
# 4 0.0000 0.0000 0.0000 15.0763 0.0000 0.0000
# 5 0.0000 0.0000 0.0000 0.0000 -271.2681 0.0000
# 6 0.0000 0.0000 0.0000 0.0000 0.0000 6.3780
#
#
#
# Elastic Compliance Matrix: (Units=1/GPa)
#
#
# Indices 1 2 3 4 5 6 
#
# 1 0.007428 -0.001559 -0.007693 0.000000 0.000000 0.000000
# 2 -0.001559 0.029495 0.000567 0.000000 0.000000 0.000000
# 3 -0.007693 0.000567 0.024914 0.000000 0.000000 0.000000
# 4 0.000000 0.000000 0.000000 0.066329 0.000000 0.000000
# 5 0.000000 0.000000 0.000000 0.000000 -0.003686 0.000000
# 6 0.000000 0.000000 0.000000 0.000000 0.000000 0.156788
#
#
# Mechanical properties :
#
#
# Convention : Reuss Voigt Hill
#
# Bulk Modulus (GPa) = 22.48931 48.94172 35.71551
# Shear Modulus (GPa) = 15.95100 -35.24487 -9.64694
#
# Velocity S-wave (km/s) = 2.80831 -4.17445 -2.18396
# Velocity P-wave (km/s) = 4.65132 0.98154 3.36141
#
# Compressibility (1/GPa) = 0.04446558
#
# Stress axis : x y z
#
# Youngs Moduli (GPa) = 134.62183 33.90448 40.13878
#
# Poissons Ratio (x) = 0.05285 0.30880
# Poissons Ratio (y) = 0.20985 -0.02275
# Poissons Ratio (z) = 1.03569 -0.01921
#
# Static dielectric constant tensor:
#      x y z
#    x 1.770130 0.000000 0.000000 
#    y 0.000000 1.783090 0.000000 
#    z 0.000000 0.000000 1.697370 
# 
# From -- ./inp_files/50353.got.cif
#   From: 2010.05.17/outbox.cif.g08.bks.cpg/sg65_26_cif.got.tgz:50353.got - 2010.06.03 17:01:31.
