data_PCOD9487744
_publ_section_title
;
Structure prediction by ZEFSAII (Michael W. Deem and Ramdas Pophale) SiO2 
 PCOD9487744
Probable space group: C M M M
;
_chemical_formula_sum "Si O2"
_cell_formula_units_Z 96
_cell_length_a 27.318778
_cell_length_b 14.431152
_cell_length_c 15.245827
_cell_angle_alpha 90.000000
_cell_angle_beta 90.000000
_cell_angle_gamma 90.000000
_cell_volume 6010.536757
_symmetry_space_group_name_H-M "C M M M"
_symmetry_group_IT_number 65
_symmetry_cell_setting 'orthorhombic'
loop_
_space_group_symop_operation_xyz
x,y,z
-x,-y,z
x,-y,-z
-x,y,-z
-x,-y,-z
x,y,-z
-x,y,z
x,-y,z
1/2+x,1/2+y,z
1/2-x,1/2-y,z
1/2+x,1/2-y,-z
1/2-x,1/2+y,-z
1/2-x,1/2-y,-z
1/2+x,1/2+y,-z
1/2-x,1/2+y,z
1/2+x,1/2-y,z
loop_
_atom_site_type_symbol
_atom_site_label
_atom_site_fract_x
_atom_site_fract_y
_atom_site_fract_z
Si Si1 0.865865 0.225607 0.791161
Si Si2 0.332272 0.889982 0.901154
Si Si3 0.241700 0.393670 0.370003
Si Si4 0.770681 0.106131 0.168242
Si Si5 0.441558 0.608889 0.898348
Si Si6 0.166253 0.767410 0.404572
O O1 0.860556 0.328071 0.830934
O O2 0.817305 0.171880 0.826337
O O3 0.911624 0.172454 0.832247
O O4 0.864080 0.224564 0.685361
O O5 0.274055 0.868981 0.894774
O O6 0.336974 0.000000 0.884371
O O7 0.349241 0.869979 0.000000
O O8 0.236492 0.500000 0.396800
O O9 0.245972 0.390474 0.264588
O O10 0.197618 0.327530 0.398262
O O11 0.292364 0.347834 0.401563
O O12 0.786220 0.000000 0.150876
O O13 0.500000 0.620903 0.889865
O O14 0.430746 0.500000 0.883010
O O15 0.428342 0.629490 0.000000
O O16 0.141317 0.771339 0.500000
#
# Coordination Sequence:
#
# PCOD9487744 Si02
#       6
#    16  16  16  16  16  16
#     4  11  19  31  50  69  93 129 161 195 241 290
#     4  10  20  31  43  64  97 132 162 194 231 278
#     4   9  16  29  44  59  90 132 166 200 238 269
#     4   9  17  28  42  65  96 128 162 195 229 279
#     4   9  19  36  57  80  99 114 146 199 249 292
#     4  10  20  29  41  67  95 124 167 206 233 272
#
# _framework density 15.971951000000001
#
# number of rings (size 3 to 8) (size 9 to 14) (size 15 to 20)
#    0.000    2.333    1.667    3.000    0.000    4.000 
#    0.000    1.667    0.000    1.000    0.000    3.500 
#    0.000    0.000    0.000    3.000    0.000    0.167 
#
# Total GULP energy -267625.029357 kJ/mol
# GULP energy per Si atom -5575.521445 kJ/mol
# Density = 1.593560 g / cm^3
# Si number density = 15.971951 Si / 1000 Ang^3
#
#
#
# Elastic Constant Matrix: (Units=GPa)
#
#
# Indices 1 2 3 4 5 6 
#
# 1 34.0143 23.9832 38.0958 0.0000 0.0000 0.0000
# 2 23.9832 79.3317 38.2221 0.0000 0.0000 0.0000
# 3 38.0958 38.2221 118.2125 0.0000 0.0000 0.0000
# 4 0.0000 0.0000 0.0000 9.1236 0.0000 0.0000
# 5 0.0000 0.0000 0.0000 0.0000 5.5553 0.0000
# 6 0.0000 0.0000 0.0000 0.0000 0.0000 21.7787
#
#
#
# Elastic Compliance Matrix: (Units=1/GPa)
#
#
# Indices 1 2 3 4 5 6 
#
# 1 0.050748 -0.008839 -0.013496 0.000000 0.000000 0.000000
# 2 -0.008839 0.016471 -0.002477 0.000000 0.000000 0.000000
# 3 -0.013496 -0.002477 0.013610 0.000000 0.000000 0.000000
# 4 0.000000 0.000000 0.000000 0.109606 0.000000 0.000000
# 5 0.000000 0.000000 0.000000 0.000000 0.180007 0.000000
# 6 0.000000 0.000000 0.000000 0.000000 0.000000 0.045916
#
#
# Mechanical properties :
#
#
# Convention : Reuss Voigt Hill
#
# Bulk Modulus (GPa) = 32.04804 48.01786 40.03295
# Shear Modulus (GPa) = 10.49574 16.04200 13.26887
#
# Velocity S-wave (km/s) = 2.56625 3.17264 2.88542
# Velocity P-wave (km/s) = 5.37490 6.59924 6.01829
#
# Compressibility (1/GPa) = 0.03120316
#
# Stress axis : x y z
#
# Youngs Moduli (GPa) = 19.70539 60.71273 73.47765
#
# Poissons Ratio (x) = 0.53666 0.99166
# Poissons Ratio (y) = 0.17418 0.18201
# Poissons Ratio (z) = 0.26595 0.15039
#
# Static dielectric constant tensor:
#      x y z
#    x 1.495170 0.000000 0.000000 
#    y 0.000000 1.557000 0.000000 
#    z 0.000000 0.000000 1.583350 
# 
# From -- ./inp_files/47871.got.cif
#   From: 2010.05.17/outbox.cif.g08.bks.cpg/sg65_24_cif.got.tgz:47871.got - 2010.06.03 17:01:31.
