data_PCOD9487454
_publ_section_title
;
Structure prediction by ZEFSAII (Michael W. Deem and Ramdas Pophale) SiO2 
 PCOD9487454
Probable space group: C M M M
;
_chemical_formula_sum "Si O2"
_cell_formula_units_Z 66
_cell_length_a 21.440876
_cell_length_b 22.292373
_cell_length_c 7.919172
_cell_angle_alpha 90.000000
_cell_angle_beta 90.000000
_cell_angle_gamma 90.000000
_cell_volume 3785.110844
_symmetry_space_group_name_H-M "C M M M"
_symmetry_group_IT_number 65
_symmetry_cell_setting 'orthorhombic'
loop_
_space_group_symop_operation_xyz
x,y,z
-x,-y,z
x,-y,-z
-x,y,-z
-x,-y,-z
x,y,-z
-x,y,z
x,-y,z
1/2+x,1/2+y,z
1/2-x,1/2-y,z
1/2+x,1/2-y,-z
1/2-x,1/2+y,-z
1/2-x,1/2-y,-z
1/2+x,1/2+y,-z
1/2-x,1/2+y,z
1/2+x,1/2-y,z
loop_
_atom_site_type_symbol
_atom_site_label
_atom_site_fract_x
_atom_site_fract_y
_atom_site_fract_z
Si Si1 0.925208 0.177139 0.190908
Si Si2 0.574483 0.240804 0.500000
Si Si3 0.339674 0.569569 0.296487
Si Si4 0.000000 0.500000 0.500000
Si Si5 0.110461 0.602279 0.500000
Si Si6 0.199605 0.572394 0.189481
O O1 0.903255 0.224248 0.332703
O O2 0.890894 0.114441 0.224605
O O3 0.000000 0.169418 0.206636
O O4 0.912187 0.197636 0.000000
O O5 0.500000 0.246580 0.500000
O O6 0.588674 0.170868 0.500000
O O7 0.340294 0.572357 0.500000
O O8 0.349985 0.500000 0.247105
O O9 0.270996 0.588198 0.233113
O O10 0.944927 0.446773 0.500000
O O11 0.152919 0.593325 0.334038
O O12 0.197182 0.500000 0.191122
O O13 0.183481 0.592939 0.000000
#
# Coordination Sequence:
#
# PCOD9487454 Si02
#       6
#    16   8  16   2   8  16
#     4  10  21  38  58  83 118 158 200 239 282 337
#     4  10  22  39  59  80 112 156 191 236 289 351
#     4  10  19  34  60  89 117 155 198 240 285 335
#     4  12  24  40  70  96 120 146 180 252 302 340
#     4  12  22  41  63  89 118 144 189 238 299 355
#     4  10  20  36  59  86 119 153 187 233 291 352
#
# _framework density 17.436743
#
# number of rings (size 3 to 8) (size 9 to 14) (size 15 to 20)
#    0.000    1.697    4.242    0.727    0.000    2.909 
#    0.000    6.061    0.000    2.909    0.000    0.000 
#    0.000    0.000    0.000    0.000    0.000    0.000 
#
# Total GULP energy -183822.165739 kJ/mol
# GULP energy per Si atom -5570.368659 kJ/mol
# Density = 1.739706 g / cm^3
# Si number density = 17.436743 Si / 1000 Ang^3
#
#
#
# Elastic Constant Matrix: (Units=GPa)
#
#
# Indices 1 2 3 4 5 6 
#
# 1 52.7137 45.8839 54.5632 0.0000 0.0000 0.0000
# 2 45.8839 107.3840 59.8980 0.0000 0.0000 0.0000
# 3 54.5632 59.8980 154.1446 0.0000 0.0000 0.0000
# 4 0.0000 0.0000 0.0000 9.3815 0.0000 0.0000
# 5 0.0000 0.0000 0.0000 0.0000 10.7827 0.0000
# 6 0.0000 0.0000 0.0000 0.0000 0.0000 25.5562
#
#
#
# Elastic Compliance Matrix: (Units=1/GPa)
#
#
# Indices 1 2 3 4 5 6 
#
# 1 0.038231 -0.011219 -0.009173 0.000000 0.000000 0.000000
# 2 -0.011219 0.015182 -0.001928 0.000000 0.000000 0.000000
# 3 -0.009173 -0.001928 0.010484 0.000000 0.000000 0.000000
# 4 0.000000 0.000000 0.000000 0.106593 0.000000 0.000000
# 5 0.000000 0.000000 0.000000 0.000000 0.092741 0.000000
# 6 0.000000 0.000000 0.000000 0.000000 0.000000 0.039129
#
#
# Mechanical properties :
#
#
# Convention : Reuss Voigt Hill
#
# Bulk Modulus (GPa) = 51.93267 70.54803 61.24035
# Shear Modulus (GPa) = 14.14755 19.40390 16.77572
#
# Velocity S-wave (km/s) = 2.85154 3.33951 3.10512
# Velocity P-wave (km/s) = 6.37886 7.44426 6.93206
#
# Compressibility (1/GPa) = 0.01925570
#
# Stress axis : x y z
#
# Youngs Moduli (GPa) = 26.15698 65.86960 95.38573
#
# Poissons Ratio (x) = 0.73897 0.87500
# Poissons Ratio (y) = 0.29345 0.18392
# Poissons Ratio (z) = 0.23994 0.12701
#
# Static dielectric constant tensor:
#      x y z
#    x 1.571090 0.000000 0.000000 
#    y 0.000000 1.561640 0.000000 
#    z 0.000000 0.000000 1.622340 
# 
# From -- ./inp_files/8989.got.cif
#   From: 2010.05.17/outbox.cif.g08.bks.cpg/sg65_5_cif.got.tgz:8989.got - 2010.06.03 17:01:31.
