data_PCOD9487407
_publ_section_title
;
Structure prediction by ZEFSAII (Michael W. Deem and Ramdas Pophale) SiO2 
 PCOD9487407
Probable space group: C M M M
;
_chemical_formula_sum "Si O2"
_cell_formula_units_Z 96
_cell_length_a 8.711701
_cell_length_b 24.201244
_cell_length_c 26.586289
_cell_angle_alpha 90.000000
_cell_angle_beta 90.000000
_cell_angle_gamma 90.000000
_cell_volume 5605.293696
_symmetry_space_group_name_H-M "C M M M"
_symmetry_group_IT_number 65
_symmetry_cell_setting 'orthorhombic'
loop_
_space_group_symop_operation_xyz
x,y,z
-x,-y,z
x,-y,-z
-x,y,-z
-x,-y,-z
x,y,-z
-x,y,z
x,-y,z
1/2+x,1/2+y,z
1/2-x,1/2-y,z
1/2+x,1/2-y,-z
1/2-x,1/2+y,-z
1/2-x,1/2-y,-z
1/2+x,1/2+y,-z
1/2-x,1/2+y,z
1/2+x,1/2-y,z
loop_
_atom_site_type_symbol
_atom_site_label
_atom_site_fract_x
_atom_site_fract_y
_atom_site_fract_z
Si Si1 0.314800 0.120461 0.751868
Si Si2 0.685155 0.000000 0.785881
Si Si3 0.182767 0.812158 0.341130
Si Si4 0.184071 0.687657 0.554979
Si Si5 0.183678 0.311147 0.147930
Si Si6 0.314935 0.500000 0.898518
Si Si7 0.685618 0.618146 0.057262
O O1 0.500000 0.123392 0.746289
O O2 0.238002 0.150865 0.705131
O O3 0.273650 0.151976 0.803570
O O4 0.269455 0.056461 0.758148
O O5 0.750533 0.000000 0.842214
O O6 0.500000 0.000000 0.789817
O O7 0.250000 0.750000 0.335266
O O8 0.244672 0.836270 0.394161
O O9 0.000000 0.808216 0.342780
O O10 0.221176 0.662538 0.500000
O O11 0.250000 0.750000 0.553598
O O12 0.000000 0.689814 0.559704
O O13 0.250000 0.250000 0.153544
O O14 0.246735 0.340026 0.097852
O O15 0.000000 0.308713 0.145607
O O16 0.500000 0.500000 0.896236
O O17 0.267955 0.555927 0.926978
O O18 0.500000 0.620793 0.059413
O O19 0.732963 0.629852 0.000000
#
# Coordination Sequence:
#
# PCOD9487407 Si02
#       7
#    16   8  16  16  16   8  16
#     4  10  21  37  56  78 105 135 171 214 261 314
#     4  10  20  37  59  81 105 133 166 211 264 312
#     4  11  21  32  50  76 109 145 181 219 260 308
#     4   9  16  27  45  70 103 142 181 219 260 306
#     4  11  23  38  57  78 104 137 174 214 259 312
#     4  10  19  34  58  84 108 133 165 209 258 311
#     4  10  21  37  57  81 108 137 170 209 256 310
#
# _framework density 17.126667999999999
#
# number of rings (size 3 to 8) (size 9 to 14) (size 15 to 20)
#    0.000    1.833    1.667    4.250    0.000    6.000 
#    0.000    0.000    0.000    1.500    0.000    0.583 
#    0.000    4.667    0.000    0.000    0.000    0.000 
#
# Total GULP energy -267906.912971 kJ/mol
# GULP energy per Si atom -5581.394020 kJ/mol
# Density = 1.708769 g / cm^3
# Si number density = 17.126668 Si / 1000 Ang^3
#
#
#
# Elastic Constant Matrix: (Units=GPa)
#
#
# Indices 1 2 3 4 5 6 
#
# 1 54.5798 39.1268 58.8160 0.0000 0.0000 0.0000
# 2 39.1268 116.3255 72.3435 0.0000 0.0000 0.0000
# 3 58.8160 72.3435 179.0548 0.0000 0.0000 0.0000
# 4 0.0000 0.0000 0.0000 -0.6915 0.0000 0.0000
# 5 0.0000 0.0000 0.0000 0.0000 31.5759 0.0000
# 6 0.0000 0.0000 0.0000 0.0000 0.0000 7.2583
#
#
#
# Elastic Compliance Matrix: (Units=1/GPa)
#
#
# Indices 1 2 3 4 5 6 
#
# 1 0.030722 -0.005419 -0.007902 0.000000 0.000000 0.000000
# 2 -0.005419 0.012437 -0.003245 0.000000 0.000000 0.000000
# 3 -0.007902 -0.003245 0.009492 0.000000 0.000000 0.000000
# 4 0.000000 0.000000 0.000000 -1.446201 0.000000 0.000000
# 5 0.000000 0.000000 0.000000 0.000000 0.031670 0.000000
# 6 0.000000 0.000000 0.000000 0.000000 0.000000 0.137774
#
#
# Mechanical properties :
#
#
# Convention : Reuss Voigt Hill
#
# Bulk Modulus (GPa) = 51.23322 76.72585 63.97954
# Shear Modulus (GPa) = -4.22130 19.60680 7.69275
#
# Velocity S-wave (km/s) = -1.57166 3.38718 2.12166
# Velocity P-wave (km/s) = 5.16583 7.75845 6.59088
#
# Compressibility (1/GPa) = 0.01951858
#
# Stress axis : x y z
#
# Youngs Moduli (GPa) = 32.54990 80.40255 105.35599
#
# Poissons Ratio (x) = 0.43572 0.83253
# Poissons Ratio (y) = 0.17639 0.34188
# Poissons Ratio (z) = 0.25721 0.26091
#
# Static dielectric constant tensor:
#      x y z
#    x 1.582320 0.000000 0.000000 
#    y 0.000000 1.560370 0.000000 
#    z 0.000000 0.000000 1.588780 
# 
# From -- ./inp_files/73478.got.cif
#   From: 2010.05.17/outbox.cif.g08.bks.cpg/sg65_37_cif.got.tgz:73478.got - 2010.06.03 17:01:31.
