data_PCOD9487766
_publ_section_title
;
Structure prediction by ZEFSAII (Michael W. Deem and Ramdas Pophale) SiO2 
 PCOD9487766
Probable space group: C M M M
;
_chemical_formula_sum "Si O2"
_cell_formula_units_Z 112
_cell_length_a 36.409611
_cell_length_b 14.422197
_cell_length_c 13.280490
_cell_angle_alpha 90.000000
_cell_angle_beta 90.000000
_cell_angle_gamma 90.000000
_cell_volume 6973.672718
_symmetry_space_group_name_H-M "C M M M"
_symmetry_group_IT_number 65
_symmetry_cell_setting 'orthorhombic'
loop_
_space_group_symop_operation_xyz
x,y,z
-x,-y,z
x,-y,-z
-x,y,-z
-x,-y,-z
x,y,-z
-x,y,z
x,-y,z
1/2+x,1/2+y,z
1/2-x,1/2-y,z
1/2+x,1/2-y,-z
1/2-x,1/2+y,-z
1/2-x,1/2-y,-z
1/2+x,1/2+y,-z
1/2-x,1/2+y,z
1/2+x,1/2-y,z
loop_
_atom_site_type_symbol
_atom_site_label
_atom_site_fract_x
_atom_site_fract_y
_atom_site_fract_z
Si Si1 0.455934 0.891877 0.117368
Si Si2 0.409797 0.758243 0.738525
Si Si3 0.805782 0.391431 0.197835
Si Si4 0.845388 0.222498 0.115999
Si Si5 0.956393 0.106910 0.619823
Si Si6 0.356527 0.891425 0.382704
Si Si7 0.227267 0.889460 0.117977
O O1 0.500000 0.882176 0.128167
O O2 0.434771 0.823942 0.191481
O O3 0.446789 0.000000 0.137379
O O4 0.446832 0.872852 0.000000
O O5 0.379604 0.710684 0.810708
O O6 0.433504 0.681672 0.681294
O O7 0.387696 0.824027 0.660913
O O8 0.808921 0.500000 0.171674
O O9 0.831681 0.328390 0.128704
O O10 0.821069 0.378734 0.310792
O O11 0.763583 0.364023 0.180082
O O12 0.810019 0.161980 0.147115
O O13 0.854112 0.202138 0.000000
O O14 0.950261 0.118368 0.500000
O O15 0.000000 0.118950 0.637654
O O16 0.947054 0.000000 0.645577
O O17 0.349287 0.873369 0.500000
O O18 0.367441 0.000000 0.372459
O O19 0.222054 0.000000 0.125964
O O20 0.234552 0.867476 0.000000
#
# Coordination Sequence:
#
# PCOD9487766 Si02
#       7
#    16  16  16  16  16  16  16
#     4   9  18  32  49  71 101 134 164 193 226 271
#     4  11  19  30  50  73  97 126 159 190 232 286
#     4   9  17  29  47  67  87 119 160 195 227 268
#     4  10  20  30  43  68  99 125 150 185 229 276
#     4   9  19  36  56  75  92 115 155 205 249 284
#     4   9  18  31  46  68  98 126 152 187 233 283
#     4   9  17  30  47  65  87 117 154 194 232 269
#
# _framework density 16.060403999999998
#
# number of rings (size 3 to 8) (size 9 to 14) (size 15 to 20)
#    0.000    2.571    0.000    3.429    0.000    3.143 
#    0.000    0.000    0.000    9.000    0.000   13.000 
#    0.000    0.000    0.000    0.000    0.000    0.000 
#
# Total GULP energy -312221.431393 kJ/mol
# GULP energy per Si atom -5575.382703 kJ/mol
# Density = 1.602385 g / cm^3
# Si number density = 16.060404 Si / 1000 Ang^3
#
#
#
# Elastic Constant Matrix: (Units=GPa)
#
#
# Indices 1 2 3 4 5 6 
#
# 1 97.4967 69.9280 67.5058 0.0000 0.0000 0.0000
# 2 69.9280 86.5595 59.7940 0.0000 0.0000 0.0000
# 3 67.5058 59.7940 88.3367 0.0000 0.0000 0.0000
# 4 0.0000 0.0000 0.0000 24.5814 0.0000 0.0000
# 5 0.0000 0.0000 0.0000 0.0000 23.1725 0.0000
# 6 0.0000 0.0000 0.0000 0.0000 0.0000 28.3094
#
#
#
# Elastic Compliance Matrix: (Units=1/GPa)
#
#
# Indices 1 2 3 4 5 6 
#
# 1 0.030151 -0.015855 -0.012309 0.000000 0.000000 0.000000
# 2 -0.015855 0.030036 -0.008215 0.000000 0.000000 0.000000
# 3 -0.012309 -0.008215 0.026287 0.000000 0.000000 0.000000
# 4 0.000000 0.000000 0.000000 0.040681 0.000000 0.000000
# 5 0.000000 0.000000 0.000000 0.000000 0.043155 0.000000
# 6 0.000000 0.000000 0.000000 0.000000 0.000000 0.035324
#
#
# Mechanical properties :
#
#
# Convention : Reuss Voigt Hill
#
# Bulk Modulus (GPa) = 72.90405 74.09429 73.49917
# Shear Modulus (GPa) = 17.67007 20.22368 18.94687
#
# Velocity S-wave (km/s) = 3.32056 3.55241 3.43844
# Velocity P-wave (km/s) = 7.75846 7.94110 7.85031
#
# Compressibility (1/GPa) = 0.01371666
#
# Stress axis : x y z
#
# Youngs Moduli (GPa) = 33.16616 33.29329 38.04118
#
# Poissons Ratio (x) = 0.52787 0.46825
# Poissons Ratio (y) = 0.52585 0.31250
# Poissons Ratio (z) = 0.40825 0.27350
#
# Static dielectric constant tensor:
#      x y z
#    x 1.526560 0.000000 0.000000 
#    y 0.000000 1.541520 0.000000 
#    z 0.000000 0.000000 1.521520 
# 
# From -- ./inp_files/33959.got.cif
#   From: 2010.05.17/outbox.cif.g08.bks.cpg/sg65_17_cif.got.tgz:33959.got - 2010.06.03 17:01:31.
