data_PCOD9487912
_publ_section_title
;
Structure prediction by ZEFSAII (Michael W. Deem and Ramdas Pophale) SiO2 
 PCOD9487912
Probable space group: C M M M
;
_chemical_formula_sum "Si O2"
_cell_formula_units_Z 64
_cell_length_a 14.372563
_cell_length_b 26.056602
_cell_length_c 8.031724
_cell_angle_alpha 90.000000
_cell_angle_beta 90.000000
_cell_angle_gamma 90.000000
_cell_volume 3007.881873
_symmetry_space_group_name_H-M "C M M M"
_symmetry_group_IT_number 65
_symmetry_cell_setting 'orthorhombic'
loop_
_space_group_symop_operation_xyz
x,y,z
-x,-y,z
x,-y,-z
-x,y,-z
-x,-y,-z
x,y,-z
-x,y,z
x,-y,z
1/2+x,1/2+y,z
1/2-x,1/2-y,z
1/2+x,1/2-y,-z
1/2-x,1/2+y,-z
1/2-x,1/2-y,-z
1/2+x,1/2+y,-z
1/2-x,1/2+y,z
1/2+x,1/2-y,z
loop_
_atom_site_type_symbol
_atom_site_label
_atom_site_fract_x
_atom_site_fract_y
_atom_site_fract_z
Si Si1 0.148757 0.631555 0.812553
Si Si2 0.100831 0.081228 0.500000
Si Si3 0.322858 0.059368 0.500000
Si Si4 0.370743 0.351593 0.820502
Si Si5 0.637258 0.243103 0.692636
O O1 0.140543 0.590184 0.663547
O O2 0.259227 0.642431 0.820382
O O3 0.110127 0.687556 0.762304
O O4 0.118575 0.616300 0.000000
O O5 0.207702 0.059318 0.500000
O O6 0.098453 0.116086 0.663764
O O7 0.000000 0.053106 0.500000
O O8 0.351918 0.000000 0.500000
O O9 0.395808 0.292259 0.794208
O O10 0.402165 0.370413 0.000000
O O11 0.609357 0.247004 0.500000
O O12 0.750000 0.250000 0.694742
#
# Coordination Sequence:
#
# PCOD9487912 Si02
#       5
#    16   8   8  16  16
#     4   9  16  26  41  60  80 100 122 154 200 252
#     4  10  20  32  43  55  73 101 142 188 223 246
#     4  10  20  32  43  55  73 101 142 188 223 246
#     4   9  16  26  41  60  80 100 122 154 200 252
#     4   9  13  21  39  62  85 101 114 141 187 247
#
# _framework density 21.277432999999998
#
# number of rings (size 3 to 8) (size 9 to 14) (size 15 to 20)
#    0.000    2.750    2.500    0.750    0.000    4.250 
#    0.000    0.000    0.000    0.000    0.000    7.000 
#    0.000    0.000    0.000    0.000    0.000   10.000 
#
# Total GULP energy -178334.586723 kJ/mol
# GULP energy per Si atom -5572.955835 kJ/mol
# Density = 2.122900 g / cm^3
# Si number density = 21.277433 Si / 1000 Ang^3
#
#
#
# Elastic Constant Matrix: (Units=GPa)
#
#
# Indices 1 2 3 4 5 6 
#
# 1 58.7587 -9.2281 -1.2347 0.0000 0.0000 0.0000
# 2 -9.2281 152.1476 87.3962 0.0000 0.0000 0.0000
# 3 -1.2347 87.3962 214.4958 0.0000 0.0000 0.0000
# 4 0.0000 0.0000 0.0000 15.7511 0.0000 0.0000
# 5 0.0000 0.0000 0.0000 0.0000 0.5325 0.0000
# 6 0.0000 0.0000 0.0000 0.0000 0.0000 -45.4979
#
#
#
# Elastic Compliance Matrix: (Units=1/GPa)
#
#
# Indices 1 2 3 4 5 6 
#
# 1 0.017212 0.001289 -0.000426 0.000000 0.000000 0.000000
# 2 0.001289 0.008677 -0.003528 0.000000 0.000000 0.000000
# 3 -0.000426 -0.003528 0.006097 0.000000 0.000000 0.000000
# 4 0.000000 0.000000 0.000000 0.063488 0.000000 0.000000
# 5 0.000000 0.000000 0.000000 0.000000 1.877831 0.000000
# 6 0.000000 0.000000 0.000000 0.000000 0.000000 -0.021979
#
#
# Mechanical properties :
#
#
# Convention : Reuss Voigt Hill
#
# Bulk Modulus (GPa) = 37.51535 64.36319 50.93927
# Shear Modulus (GPa) = 2.54383 17.38839 9.96611
#
# Velocity S-wave (km/s) = 1.09460 2.86181 2.16658
# Velocity P-wave (km/s) = 4.38946 6.42146 5.50011
#
# Compressibility (1/GPa) = 0.02665576
#
# Stress axis : x y z
#
# Youngs Moduli (GPa) = 58.09836 115.24236 164.00986
#
# Poissons Ratio (x) = -0.14851 0.06987
# Poissons Ratio (y) = -0.07487 0.57865
# Poissons Ratio (z) = 0.02475 0.40659
#
# Static dielectric constant tensor:
#      x y z
#    x 1.863120 0.000000 0.000000 
#    y 0.000000 1.713190 0.000000 
#    z 0.000000 0.000000 1.744920 
# 
# From -- ./inp_files/7111.got.cif
#   From: 2010.05.17/outbox.cif.g08.bks.cpg/sg65_4_cif.got.tgz:7111.got - 2010.06.03 17:01:31.
