data_PCOD9487080
_publ_section_title
;
Structure prediction by ZEFSAII (Michael W. Deem and Ramdas Pophale) SiO2 
 PCOD9487080
Probable space group: C M M M
;
_chemical_formula_sum "Si O2"
_cell_formula_units_Z 88
_cell_length_a 14.907969
_cell_length_b 16.284269
_cell_length_c 18.353405
_cell_angle_alpha 90.000000
_cell_angle_beta 90.000000
_cell_angle_gamma 90.000000
_cell_volume 4455.571292
_symmetry_space_group_name_H-M "C M M M"
_symmetry_group_IT_number 65
_symmetry_cell_setting 'orthorhombic'
loop_
_space_group_symop_operation_xyz
x,y,z
-x,-y,z
x,-y,-z
-x,y,-z
-x,-y,-z
x,y,-z
-x,y,z
x,-y,z
1/2+x,1/2+y,z
1/2-x,1/2-y,z
1/2+x,1/2-y,-z
1/2-x,1/2+y,-z
1/2-x,1/2-y,-z
1/2+x,1/2+y,-z
1/2-x,1/2+y,z
1/2+x,1/2-y,z
loop_
_atom_site_type_symbol
_atom_site_label
_atom_site_fract_x
_atom_site_fract_y
_atom_site_fract_z
Si Si1 0.103607 0.848714 0.709798
Si Si2 0.897157 0.100145 0.000000
Si Si3 0.292251 0.399886 0.855138
Si Si4 0.400000 0.159529 0.336278
Si Si5 0.769317 0.096596 0.582120
Si Si6 0.598022 0.904079 0.177521
O O1 0.158349 0.869891 0.782398
O O2 0.105616 0.751440 0.695040
O O3 0.152584 0.888038 0.640356
O O4 0.000000 0.874955 0.716811
O O5 0.845731 0.125502 0.926976
O O6 0.000000 0.127821 0.000000
O O7 0.897774 0.000000 0.000000
O O8 0.290698 0.500000 0.852158
O O9 0.189214 0.369501 0.856158
O O10 0.500000 0.147309 0.367546
O O11 0.319477 0.143240 0.390980
O O12 0.390821 0.102628 0.264878
O O13 0.794632 0.121190 0.500000
O O14 0.748353 0.000000 0.582312
O O15 0.500000 0.866818 0.159805
O O16 0.594375 0.000000 0.157473
#
# Coordination Sequence:
#
# PCOD9487080 Si02
#       6
#    16   8  16  16  16  16
#     4  11  23  37  57  84 114 152 192 232 282 346
#     4   9  18  32  51  80 117 153 193 243 285 326
#     4  10  19  33  56  84 114 151 193 236 286 340
#     4  10  21  37  58  84 112 145 187 235 285 339
#     4  11  24  40  58  83 114 148 190 239 286 336
#     4   9  17  31  54  82 110 142 185 235 282 334
#
# _framework density 19.750553
#
# number of rings (size 3 to 8) (size 9 to 14) (size 15 to 20)
#    0.000    1.909    1.818    2.182    0.000    5.455 
#    0.000    4.091    0.000    4.909    0.000    3.818 
#    0.000    0.000    0.000    0.000    0.000    0.000 
#
# Total GULP energy -245639.944285 kJ/mol
# GULP energy per Si atom -5582.726006 kJ/mol
# Density = 1.970560 g / cm^3
# Si number density = 19.750553 Si / 1000 Ang^3
#
#
#
# Elastic Constant Matrix: (Units=GPa)
#
#
# Indices 1 2 3 4 5 6 
#
# 1 188.2227 18.1317 103.5547 0.0000 0.0000 0.0000
# 2 18.1317 22.8245 10.0140 0.0000 0.0000 0.0000
# 3 103.5547 10.0140 134.2784 0.0000 0.0000 0.0000
# 4 0.0000 0.0000 0.0000 1.3335 0.0000 0.0000
# 5 0.0000 0.0000 0.0000 0.0000 0.1826 0.0000
# 6 0.0000 0.0000 0.0000 0.0000 0.0000 26.4833
#
#
#
# Elastic Compliance Matrix: (Units=1/GPa)
#
#
# Indices 1 2 3 4 5 6 
#
# 1 0.009666 -0.004557 -0.007115 0.000000 0.000000 0.000000
# 2 -0.004557 0.047443 -0.000024 0.000000 0.000000 0.000000
# 3 -0.007115 -0.000024 0.012936 0.000000 0.000000 0.000000
# 4 0.000000 0.000000 0.000000 0.749931 0.000000 0.000000
# 5 0.000000 0.000000 0.000000 0.000000 5.475332 0.000000
# 6 0.000000 0.000000 0.000000 0.000000 0.000000 0.037760
#
#
# Mechanical properties :
#
#
# Convention : Reuss Voigt Hill
#
# Bulk Modulus (GPa) = 21.43431 67.63626 44.53528
# Shear Modulus (GPa) = 0.78468 19.84155 10.31312
#
# Velocity S-wave (km/s) = 0.63100 3.17299 2.28758
# Velocity P-wave (km/s) = 3.37742 6.90966 5.43831
#
# Compressibility (1/GPa) = 0.04665418
#
# Stress axis : x y z
#
# Youngs Moduli (GPa) = 103.45442 21.07779 77.30549
#
# Poissons Ratio (x) = 0.09606 0.55000
# Poissons Ratio (y) = 0.47147 0.00183
# Poissons Ratio (z) = 0.73603 0.00050
#
# Static dielectric constant tensor:
#      x y z
#    x 1.716200 0.000000 0.000000 
#    y 0.000000 1.714970 0.000000 
#    z 0.000000 0.000000 1.662080 
# 
# From -- ./inp_files/52975.got.cif
#   From: 2010.05.17/outbox.cif.g08.bks.cpg/sg65_27_cif.got.tgz:52975.got - 2010.06.03 17:01:31.
