data_PCOD9487670
_publ_section_title
;
Structure prediction by ZEFSAII (Michael W. Deem and Ramdas Pophale) SiO2 
 PCOD9487670
Probable space group: C M M M
;
_chemical_formula_sum "Si O2"
_cell_formula_units_Z 58
_cell_length_a 26.354264
_cell_length_b 14.976782
_cell_length_c 7.892639
_cell_angle_alpha 90.000000
_cell_angle_beta 90.000000
_cell_angle_gamma 90.000000
_cell_volume 3115.240925
_symmetry_space_group_name_H-M "C M M M"
_symmetry_group_IT_number 65
_symmetry_cell_setting 'orthorhombic'
loop_
_space_group_symop_operation_xyz
x,y,z
-x,-y,z
x,-y,-z
-x,y,-z
-x,-y,-z
x,y,-z
-x,y,z
x,-y,z
1/2+x,1/2+y,z
1/2-x,1/2-y,z
1/2+x,1/2-y,-z
1/2-x,1/2+y,-z
1/2-x,1/2-y,-z
1/2+x,1/2+y,-z
1/2-x,1/2+y,z
1/2+x,1/2-y,z
loop_
_atom_site_type_symbol
_atom_site_label
_atom_site_fract_x
_atom_site_fract_y
_atom_site_fract_z
Si Si1 0.731565 0.500000 0.706766
Si Si2 0.850141 0.500000 0.295918
Si Si3 0.000000 0.644711 0.312086
Si Si4 0.700970 0.693924 0.704449
Si Si5 0.000000 0.500000 0.000000
Si Si6 0.104209 0.309372 0.802848
O O1 0.730636 0.500000 0.500000
O O2 0.790999 0.500000 0.754448
O O3 0.706064 0.591966 0.764526
O O4 0.852659 0.500000 0.500000
O O5 0.876844 0.410858 0.230094
O O6 0.948358 0.700827 0.295382
O O7 0.000000 0.602516 0.500000
O O8 0.000000 0.577016 0.152502
O O9 0.703750 0.692760 0.500000
O O10 0.750000 0.750000 0.765111
O O11 0.649609 0.743959 0.751864
O O12 0.094250 0.298262 0.000000
#
# Coordination Sequence:
#
# PCOD9487670 Si02
#       6
#     8   8   8  16   2  16
#     4   9  18  34  57  86 119 153 207 259 292 363
#     4  11  20  35  57  84 116 161 203 240 298 360
#     4  12  25  43  63  85 124 170 204 252 314 363
#     4  10  19  36  60  86 117 160 209 251 305 368
#     4  12  22  44  60  98 128 158 210 260 288 380
#     4  12  24  39  56  87 125 160 207 258 300 365
#
# _framework density 18.618143
#
# number of rings (size 3 to 8) (size 9 to 14) (size 15 to 20)
#    0.000    1.103    4.138    3.931    0.000    0.552 
#    0.000    0.690    0.000    0.828    0.000    5.793 
#    0.000    0.000    0.000    0.000    0.000    0.000 
#
# Total GULP energy -161785.855250 kJ/mol
# GULP energy per Si atom -5578.822595 kJ/mol
# Density = 1.857577 g / cm^3
# Si number density = 18.618143 Si / 1000 Ang^3
#
#
#
# Elastic Constant Matrix: (Units=GPa)
#
#
# Indices 1 2 3 4 5 6 
#
# 1 166.3023 78.8228 19.4488 0.0000 0.0000 0.0000
# 2 78.8228 133.1843 16.9477 0.0000 0.0000 0.0000
# 3 19.4488 16.9477 89.3053 0.0000 0.0000 0.0000
# 4 0.0000 0.0000 0.0000 16.5119 0.0000 0.0000
# 5 0.0000 0.0000 0.0000 0.0000 35.7951 0.0000
# 6 0.0000 0.0000 0.0000 0.0000 0.0000 21.4191
#
#
#
# Elastic Compliance Matrix: (Units=1/GPa)
#
#
# Indices 1 2 3 4 5 6 
#
# 1 0.008429 -0.004873 -0.000911 0.000000 0.000000 0.000000
# 2 -0.004873 0.010511 -0.000934 0.000000 0.000000 0.000000
# 3 -0.000911 -0.000934 0.011573 0.000000 0.000000 0.000000
# 4 0.000000 0.000000 0.000000 0.060562 0.000000 0.000000
# 5 0.000000 0.000000 0.000000 0.000000 0.027937 0.000000
# 6 0.000000 0.000000 0.000000 0.000000 0.000000 0.046687
#
#
# Mechanical properties :
#
#
# Convention : Reuss Voigt Hill
#
# Bulk Modulus (GPa) = 58.55208 68.80337 63.67772
# Shear Modulus (GPa) = 27.05229 32.98341 30.01785
#
# Velocity S-wave (km/s) = 3.81597 4.21357 4.01969
# Velocity P-wave (km/s) = 7.13671 7.79150 7.47128
#
# Compressibility (1/GPa) = 0.01707881
#
# Stress axis : x y z
#
# Youngs Moduli (GPa) = 118.63450 95.13797 86.40735
#
# Poissons Ratio (x) = 0.46359 0.07872
# Poissons Ratio (y) = 0.57808 0.08066
# Poissons Ratio (z) = 0.10808 0.08881
#
# Static dielectric constant tensor:
#      x y z
#    x 1.657540 0.000000 0.000000 
#    y 0.000000 1.613800 0.000000 
#    z 0.000000 0.000000 1.668400 
# 
# From -- ./inp_files/13302.got.cif
#   From: 2010.05.17/outbox.cif.g08.bks.cpg/sg65_7_cif.got.tgz:13302.got - 2010.06.03 17:01:31.
