data_PCOD9487404
_publ_section_title
;
Structure prediction by ZEFSAII (Michael W. Deem and Ramdas Pophale) SiO2 
 PCOD9487404
Probable space group: C M M M
;
_chemical_formula_sum "Si O2"
_cell_formula_units_Z 72
_cell_length_a 8.751078
_cell_length_b 15.553718
_cell_length_c 26.700360
_cell_angle_alpha 90.000000
_cell_angle_beta 90.000000
_cell_angle_gamma 90.000000
_cell_volume 3634.234044
_symmetry_space_group_name_H-M "C M M M"
_symmetry_group_IT_number 65
_symmetry_cell_setting 'orthorhombic'
loop_
_space_group_symop_operation_xyz
x,y,z
-x,-y,z
x,-y,-z
-x,y,-z
-x,-y,-z
x,y,-z
-x,y,z
x,-y,z
1/2+x,1/2+y,z
1/2-x,1/2-y,z
1/2+x,1/2-y,-z
1/2-x,1/2+y,-z
1/2-x,1/2-y,-z
1/2+x,1/2+y,-z
1/2-x,1/2+y,z
1/2+x,1/2-y,z
loop_
_atom_site_type_symbol
_atom_site_label
_atom_site_fract_x
_atom_site_fract_y
_atom_site_fract_z
Si Si1 0.815741 0.347366 0.765594
Si Si2 0.316189 0.346597 0.869728
Si Si3 0.681690 0.155100 0.657516
Si Si4 0.673412 0.397428 0.445795
Si Si5 0.814037 0.000000 0.057252
O O1 0.750000 0.250000 0.764172
O O2 0.743719 0.382888 0.816397
O O3 0.774843 0.387112 0.711215
O O4 0.000000 0.345747 0.770089
O O5 0.500000 0.340601 0.868091
O O6 0.250000 0.250000 0.876819
O O7 0.269309 0.413930 0.912652
O O8 0.500000 0.158375 0.657176
O O9 0.750000 0.250000 0.659038
O O10 0.736719 0.118953 0.604843
O O11 0.735612 0.366375 0.500000
O O12 0.500000 0.363135 0.440611
O O13 0.663587 0.500000 0.449354
O O14 0.000000 0.000000 0.056649
O O15 0.760210 0.000000 0.000000
#
# Coordination Sequence:
#
# PCOD9487404 Si02
#       5
#    16  16  16  16   8
#     4   9  17  31  51  76 106 138 171 213 263 316
#     4  10  19  34  58  83 110 147 188 227 275 329
#     4  10  20  33  52  77 104 134 170 213 264 317
#     4   9  19  36  54  71  96 132 172 215 263 315
#     4   9  20  38  57  81 115 151 188 229 270 323
#
# _framework density 19.811602000000001
#
# number of rings (size 3 to 8) (size 9 to 14) (size 15 to 20)
#    0.000    2.556    0.000    4.000    0.000    4.444 
#    2.000    3.333    0.000    4.667    0.000    0.000 
#    0.000    0.000    0.000    0.000    0.000    0.000 
#
# Total GULP energy -200506.389350 kJ/mol
# GULP energy per Si atom -5569.621926 kJ/mol
# Density = 1.976651 g / cm^3
# Si number density = 19.811602 Si / 1000 Ang^3
#
#
#
# Elastic Constant Matrix: (Units=GPa)
#
#
# Indices 1 2 3 4 5 6 
#
# 1 60.5163 20.0432 61.8640 0.0000 0.0000 0.0000
# 2 20.0432 59.7561 65.9858 0.0000 0.0000 0.0000
# 3 61.8640 65.9858 244.0117 0.0000 0.0000 0.0000
# 4 0.0000 0.0000 0.0000 40.6709 0.0000 0.0000
# 5 0.0000 0.0000 0.0000 0.0000 33.3376 0.0000
# 6 0.0000 0.0000 0.0000 0.0000 0.0000 16.9878
#
#
#
# Elastic Compliance Matrix: (Units=1/GPa)
#
#
# Indices 1 2 3 4 5 6 
#
# 1 0.022437 -0.001774 -0.005209 0.000000 0.000000 0.000000
# 2 -0.001774 0.024000 -0.006040 0.000000 0.000000 0.000000
# 3 -0.005209 -0.006040 0.007052 0.000000 0.000000 0.000000
# 4 0.000000 0.000000 0.000000 0.024588 0.000000 0.000000
# 5 0.000000 0.000000 0.000000 0.000000 0.029996 0.000000
# 6 0.000000 0.000000 0.000000 0.000000 0.000000 0.058866
#
#
# Mechanical properties :
#
#
# Convention : Reuss Voigt Hill
#
# Bulk Modulus (GPa) = 36.43956 73.34111 54.89034
# Shear Modulus (GPa) = 24.73640 32.62533 28.68087
#
# Velocity S-wave (km/s) = 3.53736 4.06246 3.80897
# Velocity P-wave (km/s) = 5.92595 7.68794 6.86372
#
# Compressibility (1/GPa) = 0.02744270
#
# Stress axis : x y z
#
# Youngs Moduli (GPa) = 44.56994 41.66723 141.80173
#
# Poissons Ratio (x) = 0.07392 0.73859
# Poissons Ratio (y) = 0.07907 0.85652
# Poissons Ratio (z) = 0.23215 0.25168
#
# Static dielectric constant tensor:
#      x y z
#    x 1.685230 0.000000 0.000000 
#    y 0.000000 1.713650 0.000000 
#    z 0.000000 0.000000 1.776740 
# 
# From -- ./inp_files/67074.got.cif
#   From: 2010.05.17/outbox.cif.g08.bks.cpg/sg65_34_cif.got.tgz:67074.got - 2010.06.03 17:01:31.
