data_PCOD9487580
_publ_section_title
;
Structure prediction by ZEFSAII (Michael W. Deem and Ramdas Pophale) SiO2 
 PCOD9487580
Probable space group: C M M M
;
_chemical_formula_sum "Si O2"
_cell_formula_units_Z 112
_cell_length_a 25.135278
_cell_length_b 14.838861
_cell_length_c 15.117964
_cell_angle_alpha 90.000000
_cell_angle_beta 90.000000
_cell_angle_gamma 90.000000
_cell_volume 5638.681529
_symmetry_space_group_name_H-M "C M M M"
_symmetry_group_IT_number 65
_symmetry_cell_setting 'orthorhombic'
loop_
_space_group_symop_operation_xyz
x,y,z
-x,-y,z
x,-y,-z
-x,y,-z
-x,-y,-z
x,y,-z
-x,y,z
x,-y,z
1/2+x,1/2+y,z
1/2-x,1/2-y,z
1/2+x,1/2-y,-z
1/2-x,1/2+y,-z
1/2-x,1/2-y,-z
1/2+x,1/2+y,-z
1/2-x,1/2+y,z
1/2+x,1/2-y,z
loop_
_atom_site_type_symbol
_atom_site_label
_atom_site_fract_x
_atom_site_fract_y
_atom_site_fract_z
Si Si1 0.936089 0.280906 0.402969
Si Si2 0.776935 0.399581 0.207512
Si Si3 0.363163 0.205416 0.898623
Si Si4 0.125725 0.900029 0.635851
Si Si5 0.563906 0.895563 0.232995
Si Si6 0.251591 0.641710 0.597095
Si Si7 0.652453 0.399975 0.159680
O O1 0.923577 0.319756 0.500000
O O2 0.908727 0.183562 0.396346
O O3 0.918303 0.343582 0.321965
O O4 0.000000 0.270969 0.396852
O O5 0.795424 0.500000 0.182873
O O6 0.812759 0.326121 0.159716
O O7 0.777123 0.390912 0.313955
O O8 0.715903 0.391565 0.176183
O O9 0.411910 0.156398 0.850353
O O10 0.367109 0.313332 0.892694
O O11 0.357098 0.177443 0.000000
O O12 0.186857 0.888215 0.605308
O O13 0.127186 0.896311 0.742447
O O14 0.107283 0.000000 0.609161
O O15 0.500000 0.892910 0.230479
O O16 0.580311 0.000000 0.234674
O O17 0.231264 0.613450 0.500000
O O18 0.250000 0.750000 0.600238
O O19 0.642361 0.500000 0.122125
#
# Coordination Sequence:
#
# PCOD9487580 Si02
#       7
#    16  16  16  16  16  16  16
#     4  10  21  37  61  93 124 156 197 241 288 348
#     4  10  21  36  55  84 123 158 195 243 292 347
#     4  12  24  40  64  89 116 150 195 252 307 354
#     4  10  19  35  59  86 124 166 201 241 290 346
#     4  10  23  44  66  88 117 152 193 243 298 356
#     4  10  20  33  53  80 115 165 211 246 285 339
#     4   9  19  37  60  86 120 161 197 233 288 356
#
# _framework density 19.862798999999999
#
# number of rings (size 3 to 8) (size 9 to 14) (size 15 to 20)
#    0.000    1.857    1.429    4.286    0.000    5.429 
#    0.000    4.286    0.000    2.143    0.000    1.000 
#    0.000    0.000    0.000    0.000    0.000    0.000 
#
# Total GULP energy -312791.269683 kJ/mol
# GULP energy per Si atom -5585.558387 kJ/mol
# Density = 1.981759 g / cm^3
# Si number density = 19.862799 Si / 1000 Ang^3
#
#
#
# Elastic Constant Matrix: (Units=GPa)
#
#
# Indices 1 2 3 4 5 6 
#
# 1 33.0857 24.4280 27.0507 0.0000 0.0000 0.0000
# 2 24.4280 145.2120 47.2117 0.0000 0.0000 0.0000
# 3 27.0507 47.2117 127.2450 0.0000 0.0000 0.0000
# 4 0.0000 0.0000 0.0000 -337.1958 0.0000 0.0000
# 5 0.0000 0.0000 0.0000 0.0000 -240.1731 0.0000
# 6 0.0000 0.0000 0.0000 0.0000 0.0000 27.0055
#
#
#
# Elastic Compliance Matrix: (Units=1/GPa)
#
#
# Indices 1 2 3 4 5 6 
#
# 1 0.038891 -0.004383 -0.006641 0.000000 0.000000 0.000000
# 2 -0.004383 0.008325 -0.002157 0.000000 0.000000 0.000000
# 3 -0.006641 -0.002157 0.010071 0.000000 0.000000 0.000000
# 4 0.000000 0.000000 0.000000 -0.002966 0.000000 0.000000
# 5 0.000000 0.000000 0.000000 0.000000 -0.004164 0.000000
# 6 0.000000 0.000000 0.000000 0.000000 0.000000 0.037029
#
#
# Mechanical properties :
#
#
# Convention : Reuss Voigt Hill
#
# Bulk Modulus (GPa) = 32.33757 55.88040 44.10898
# Shear Modulus (GPa) = 40.36875 -96.28253 -27.95689
#
# Velocity S-wave (km/s) = 4.51308 -6.96987 -3.75574
# Velocity P-wave (km/s) = 6.59341 6.04796 1.85678
#
# Compressibility (1/GPa) = 0.03092379
#
# Stress axis : x y z
#
# Youngs Moduli (GPa) = 25.71309 120.11834 99.29405
#
# Poissons Ratio (x) = 0.52648 0.65946
# Poissons Ratio (y) = 0.11270 0.21419
# Poissons Ratio (z) = 0.17077 0.25911
#
# Static dielectric constant tensor:
#      x y z
#    x 1.687950 0.000000 0.000000 
#    y 0.000000 1.710880 0.000000 
#    z 0.000000 0.000000 1.699920 
# 
# From -- ./inp_files/40813.got.cif
#   From: 2010.05.17/outbox.cif.g08.bks.cpg/sg65_21_cif.got.tgz:40813.got - 2010.06.03 17:01:31.
