data_PCOD9487379
_publ_section_title
;
Structure prediction by ZEFSAII (Michael W. Deem and Ramdas Pophale) SiO2 
 PCOD9487379
Probable space group: C M M M
;
_chemical_formula_sum "Si O2"
_cell_formula_units_Z 82
_cell_length_a 16.463483
_cell_length_b 10.540636
_cell_length_c 24.369057
_cell_angle_alpha 90.000000
_cell_angle_beta 90.000000
_cell_angle_gamma 90.000000
_cell_volume 4228.898479
_symmetry_space_group_name_H-M "C M M M"
_symmetry_group_IT_number 65
_symmetry_cell_setting 'orthorhombic'
loop_
_space_group_symop_operation_xyz
x,y,z
-x,-y,z
x,-y,-z
-x,y,-z
-x,-y,-z
x,y,-z
-x,y,z
x,-y,z
1/2+x,1/2+y,z
1/2-x,1/2-y,z
1/2+x,1/2-y,-z
1/2-x,1/2+y,-z
1/2-x,1/2-y,-z
1/2+x,1/2+y,-z
1/2-x,1/2+y,z
1/2+x,1/2-y,z
loop_
_atom_site_type_symbol
_atom_site_label
_atom_site_fract_x
_atom_site_fract_y
_atom_site_fract_z
Si Si1 0.500000 0.500000 0.500000
Si Si2 0.152325 0.750137 0.872909
Si Si3 0.849444 0.000000 0.063600
Si Si4 0.175398 0.500000 0.565320
Si Si5 0.596694 0.857135 0.763033
Si Si6 0.849540 0.500000 0.936698
Si Si7 0.867554 0.000000 0.596369
Si Si8 0.346501 0.769029 0.355833
O O1 0.429212 0.500000 0.546986
O O2 0.250000 0.750000 0.876136
O O3 0.129126 0.736901 0.809490
O O4 0.122692 0.625244 0.904903
O O5 0.123282 0.875447 0.903846
O O6 0.749886 0.000000 0.063566
O O7 0.874500 0.000000 0.000000
O O8 0.159659 0.500000 0.500000
O O9 0.273206 0.500000 0.575596
O O10 0.141620 0.374473 0.596280
O O11 0.500000 0.859799 0.767087
O O12 0.620323 0.819360 0.701591
O O13 0.628681 0.000000 0.774199
O O14 0.874872 0.500000 0.000000
O O15 0.880235 0.869321 0.629326
O O16 0.250000 0.750000 0.350164
#
# Coordination Sequence:
#
# PCOD9487379 Si02
#       8
#     2  16   8   8  16   8   8  16
#     4  12  24  40  56  90 140 156 178 230 298 372
#     4  10  19  34  57  84 114 151 190 234 286 345
#     4   9  18  31  53  89 119 144 183 242 294 331
#     4  10  20  39  65  89 113 150 205 241 284 337
#     4  11  23  40  60  82 115 153 197 245 289 336
#     4   9  16  29  53  83 114 146 189 236 281 337
#     4  10  24  37  61  88 120 160 182 235 295 349
#     4  10  22  41  63  89 116 151 199 246 289 342
#
# _framework density 19.390391999999999
#
# number of rings (size 3 to 8) (size 9 to 14) (size 15 to 20)
#    0.000    1.951    2.439    1.171    2.732    4.293 
#    0.000    1.463    0.000    4.683    0.000    0.000 
#    0.000    0.000    0.000    0.000    0.000    0.000 
#
# Total GULP energy -228634.723226 kJ/mol
# GULP energy per Si atom -5576.456664 kJ/mol
# Density = 1.934626 g / cm^3
# Si number density = 19.390392 Si / 1000 Ang^3
#
#
#
# Elastic Constant Matrix: (Units=GPa)
#
#
# Indices 1 2 3 4 5 6 
#
# 1 7.9811 19.8599 11.2035 0.0000 0.0000 0.0000
# 2 19.8599 168.7962 87.4206 0.0000 0.0000 0.0000
# 3 11.2035 87.4206 169.9573 0.0000 0.0000 0.0000
# 4 0.0000 0.0000 0.0000 165.8988 0.0000 0.0000
# 5 0.0000 0.0000 0.0000 0.0000 1.5095 0.0000
# 6 0.0000 0.0000 0.0000 0.0000 0.0000 -0.5789
#
#
#
# Elastic Compliance Matrix: (Units=1/GPa)
#
#
# Indices 1 2 3 4 5 6 
#
# 1 0.177376 -0.020193 -0.001306 0.000000 0.000000 0.000000
# 2 -0.020193 0.010374 -0.004005 0.000000 0.000000 0.000000
# 3 -0.001306 -0.004005 0.008030 0.000000 0.000000 0.000000
# 4 0.000000 0.000000 0.000000 0.006028 0.000000 0.000000
# 5 0.000000 0.000000 0.000000 0.000000 0.662464 0.000000
# 6 0.000000 0.000000 0.000000 0.000000 0.000000 -1.727496
#
#
# Mechanical properties :
#
#
# Convention : Reuss Voigt Hill
#
# Bulk Modulus (GPa) = 6.90739 64.85586 35.88162
# Shear Modulus (GPa) = -6.54486 48.58259 21.01886
#
# Velocity S-wave (km/s) = -1.83920 5.01093 3.29596
# Velocity P-wave (km/s) = 0.96963 8.18530 5.74713
#
# Compressibility (1/GPa) = 0.14477245
#
# Stress axis : x y z
#
# Youngs Moduli (GPa) = 5.63773 96.39063 124.53232
#
# Poissons Ratio (x) = 1.94643 0.16262
# Poissons Ratio (y) = 0.11384 0.49877
# Poissons Ratio (z) = 0.00736 0.38606
#
# Static dielectric constant tensor:
#      x y z
#    x 1.659200 0.000000 0.000000 
#    y 0.000000 1.687190 0.000000 
#    z 0.000000 0.000000 1.634660 
# 
# From -- ./inp_files/63591.got.cif
#   From: 2010.05.17/outbox.cif.g08.bks.cpg/sg65_32_cif.got.tgz:63591.got - 2010.06.03 17:01:31.
