data_PCOD9487409
_publ_section_title
;
Structure prediction by ZEFSAII (Michael W. Deem and Ramdas Pophale) SiO2 
 PCOD9487409
Probable space group: C M M M
;
_chemical_formula_sum "Si O2"
_cell_formula_units_Z 96
_cell_length_a 22.972347
_cell_length_b 25.018213
_cell_length_c 9.032558
_cell_angle_alpha 90.000000
_cell_angle_beta 90.000000
_cell_angle_gamma 90.000000
_cell_volume 5191.255597
_symmetry_space_group_name_H-M "C M M M"
_symmetry_group_IT_number 65
_symmetry_cell_setting 'orthorhombic'
loop_
_space_group_symop_operation_xyz
x,y,z
-x,-y,z
x,-y,-z
-x,y,-z
-x,-y,-z
x,y,-z
-x,y,z
x,-y,z
1/2+x,1/2+y,z
1/2-x,1/2-y,z
1/2+x,1/2-y,-z
1/2-x,1/2+y,-z
1/2-x,1/2-y,-z
1/2+x,1/2+y,-z
1/2-x,1/2+y,z
1/2+x,1/2-y,z
loop_
_atom_site_type_symbol
_atom_site_label
_atom_site_fract_x
_atom_site_fract_y
_atom_site_fract_z
Si Si1 0.500000 0.377098 0.168154
Si Si2 0.701097 0.683439 0.672809
Si Si3 0.195093 0.500000 0.172006
Si Si4 0.500000 0.263321 0.322441
Si Si5 0.873800 0.283574 0.320450
Si Si6 0.690638 0.121816 0.178998
Si Si7 0.307018 0.500000 0.337470
Si Si8 0.895576 0.096561 0.337135
O O1 0.500000 0.323762 0.266042
O O2 0.557069 0.409286 0.211998
O O3 0.500000 0.361028 0.000000
O O4 0.719979 0.685987 0.500000
O O5 0.678897 0.742178 0.721330
O O6 0.749216 0.648976 0.760486
O O7 0.640519 0.650887 0.677164
O O8 0.179818 0.559992 0.229179
O O9 0.263922 0.500000 0.201519
O O10 0.179093 0.500000 0.000000
O O11 0.500000 0.263322 0.500000
O O12 0.561505 0.236409 0.276399
O O13 0.872510 0.287016 0.500000
O O14 0.858538 0.339436 0.244578
O O15 0.692190 0.122472 0.000000
O O16 0.276218 0.500000 0.500000
O O17 0.347805 0.550937 0.332732
O O18 0.923791 0.095357 0.500000
#
# Coordination Sequence:
#
# PCOD9487409 Si02
#       8
#     8  16   8   8  16  16   8  16
#     4  12  24  35  53  80 110 149 192 231 273 329
#     4  10  19  34  58  84 112 145 183 227 276 328
#     4  10  22  38  55  78 113 152 180 219 280 333
#     4  10  20  40  63  82 109 146 182 227 282 329
#     4  10  21  37  59  85 112 144 182 224 275 332
#     4  11  23  37  55  82 117 150 182 223 273 330
#     4  10  20  35  59  82 100 139 198 243 271 317
#     4  10  20  36  56  78 107 145 190 238 280 320
#
# _framework density 18.492636000000001
#
# number of rings (size 3 to 8) (size 9 to 14) (size 15 to 20)
#    0.000    1.667    3.333    1.750    0.000    5.667 
#    0.000    1.667    0.000    0.500    0.000    3.500 
#    0.000    0.000    0.000    0.000    0.000    0.000 
#
# Total GULP energy -267544.620513 kJ/mol
# GULP energy per Si atom -5573.846261 kJ/mol
# Density = 1.845055 g / cm^3
# Si number density = 18.492636 Si / 1000 Ang^3
#
#
#
# Elastic Constant Matrix: (Units=GPa)
#
#
# Indices 1 2 3 4 5 6 
#
# 1 38.1481 -2.4280 10.7415 0.0000 0.0000 0.0000
# 2 -2.4280 109.4070 16.1737 0.0000 0.0000 0.0000
# 3 10.7415 16.1737 13.0156 0.0000 0.0000 0.0000
# 4 0.0000 0.0000 0.0000 36.7437 0.0000 0.0000
# 5 0.0000 0.0000 0.0000 0.0000 -22.2576 0.0000
# 6 0.0000 0.0000 0.0000 0.0000 0.0000 26.2484
#
#
#
# Elastic Compliance Matrix: (Units=1/GPa)
#
#
# Indices 1 2 3 4 5 6 
#
# 1 0.037741 0.006667 -0.039431 0.000000 0.000000 0.000000
# 2 0.006667 0.012375 -0.020879 0.000000 0.000000 0.000000
# 3 -0.039431 -0.020879 0.135317 0.000000 0.000000 0.000000
# 4 0.000000 0.000000 0.000000 0.027216 0.000000 0.000000
# 5 0.000000 0.000000 0.000000 0.000000 -0.044929 0.000000
# 6 0.000000 0.000000 0.000000 0.000000 0.000000 0.038098
#
#
# Mechanical properties :
#
#
# Convention : Reuss Voigt Hill
#
# Bulk Modulus (GPa) = 12.79656 23.28279 18.03967
# Shear Modulus (GPa) = 14.74270 17.21914 15.98092
#
# Velocity S-wave (km/s) = 2.82657 3.05476 2.94288
# Velocity P-wave (km/s) = 4.19375 5.00597 4.61775
#
# Compressibility (1/GPa) = 0.07814601
#
# Stress axis : x y z
#
# Youngs Moduli (GPa) = 26.49667 80.81024 7.39008
#
# Poissons Ratio (x) = -0.53873 0.29139
# Poissons Ratio (y) = -0.17664 0.15430
# Poissons Ratio (z) = 1.04478 1.68723
#
# Static dielectric constant tensor:
#      x y z
#    x 1.653310 0.000000 0.000000 
#    y 0.000000 1.861660 0.000000 
#    z 0.000000 0.000000 1.645710 
# 
# From -- ./inp_files/14454.got.cif
#   From: 2010.05.17/outbox.cif.g08.bks.cpg/sg65_8_cif.got.tgz:14454.got - 2010.06.03 17:01:31.
