data_PCOD9487243
_publ_section_title
;
Structure prediction by ZEFSAII (Michael W. Deem and Ramdas Pophale) SiO2 
 PCOD9487243
Probable space group: C M M M
;
_chemical_formula_sum "Si O2"
_cell_formula_units_Z 72
_cell_length_a 13.941391
_cell_length_b 30.139385
_cell_length_c 7.472997
_cell_angle_alpha 90.000000
_cell_angle_beta 90.000000
_cell_angle_gamma 90.000000
_cell_volume 3140.040877
_symmetry_space_group_name_H-M "C M M M"
_symmetry_group_IT_number 65
_symmetry_cell_setting 'orthorhombic'
loop_
_space_group_symop_operation_xyz
x,y,z
-x,-y,z
x,-y,-z
-x,y,-z
-x,-y,-z
x,y,-z
-x,y,z
x,-y,z
1/2+x,1/2+y,z
1/2-x,1/2-y,z
1/2+x,1/2-y,-z
1/2-x,1/2+y,-z
1/2-x,1/2-y,-z
1/2+x,1/2+y,-z
1/2-x,1/2+y,z
1/2+x,1/2-y,z
loop_
_atom_site_type_symbol
_atom_site_label
_atom_site_fract_x
_atom_site_fract_y
_atom_site_fract_z
Si Si1 0.335413 0.620024 0.198234
Si Si2 0.500000 0.930679 0.214496
Si Si3 0.208569 0.546892 0.294093
Si Si4 0.786240 0.298795 0.218850
Si Si5 0.500000 0.552224 0.218674
Si Si6 0.000000 0.672843 0.783124
O O1 0.242070 0.589230 0.187381
O O2 0.292329 0.664691 0.282777
O O3 0.410870 0.583989 0.274312
O O4 0.372511 0.631834 0.000000
O O5 0.404933 0.952705 0.286377
O O6 0.500000 0.878919 0.264706
O O7 0.500000 0.934260 0.000000
O O8 0.238163 0.551304 0.500000
O O9 0.246887 0.500000 0.222808
O O10 0.750000 0.250000 0.266622
O O11 0.896706 0.307415 0.276521
O O12 0.786322 0.302399 0.000000
O O13 0.500000 0.500000 0.278483
O O14 0.500000 0.549821 0.000000
O O15 0.000000 0.676488 0.000000
#
# Coordination Sequence:
#
# PCOD9487243 Si02
#       6
#    16   8  16  16   8   8
#     4  10  19  34  55  78 106 143 184 227 279 330
#     4  11  20  34  56  80 107 142 179 217 265 321
#     4  11  23  36  51  77 112 146 181 222 270 328
#     4   9  17  29  49  77 108 139 174 223 276 324
#     4   9  18  31  50  78 107 135 178 234 278 319
#     4   9  16  29  48  76 109 136 171 216 262 322
#
# _framework density 22.929637
#
# number of rings (size 3 to 8) (size 9 to 14) (size 15 to 20)
#    0.000    2.111    2.222    2.000    0.000    4.889 
#    0.000    5.000    0.000    2.667    0.000    0.000 
#    0.000    0.000    0.000    0.000    0.000    0.000 
#
# Total GULP energy -200736.566821 kJ/mol
# GULP energy per Si atom -5576.015745 kJ/mol
# Density = 2.287745 g / cm^3
# Si number density = 22.929637 Si / 1000 Ang^3
#
#
#
# Elastic Constant Matrix: (Units=GPa)
#
#
# Indices 1 2 3 4 5 6 
#
# 1 138.1352 81.4602 2.2275 0.0000 0.0000 0.0000
# 2 81.4602 221.3460 15.7001 0.0000 0.0000 0.0000
# 3 2.2275 15.7001 73.0248 0.0000 0.0000 0.0000
# 4 0.0000 0.0000 0.0000 -1.3269 0.0000 0.0000
# 5 0.0000 0.0000 0.0000 0.0000 1.1699 0.0000
# 6 0.0000 0.0000 0.0000 0.0000 0.0000 31.4771
#
#
#
# Elastic Compliance Matrix: (Units=1/GPa)
#
#
# Indices 1 2 3 4 5 6 
#
# 1 0.009261 -0.003441 0.000457 0.000000 0.000000 0.000000
# 2 -0.003441 0.005866 -0.001156 0.000000 0.000000 0.000000
# 3 0.000457 -0.001156 0.013929 0.000000 0.000000 0.000000
# 4 0.000000 0.000000 0.000000 -0.753641 0.000000 0.000000
# 5 0.000000 0.000000 0.000000 0.000000 0.854757 0.000000
# 6 0.000000 0.000000 0.000000 0.000000 0.000000 0.031769
#
#
# Mechanical properties :
#
#
# Convention : Reuss Voigt Hill
#
# Bulk Modulus (GPa) = 48.13177 70.14241 59.13709
# Shear Modulus (GPa) = 28.22531 28.47191 28.34861
#
# Velocity S-wave (km/s) = 3.51230 3.52761 3.51996
# Velocity P-wave (km/s) = 6.12250 6.87377 6.50898
#
# Compressibility (1/GPa) = 0.02077630
#
# Stress axis : x y z
#
# Youngs Moduli (GPa) = 107.98073 170.47217 71.79467
#
# Poissons Ratio (x) = 0.58654 -0.03283
# Poissons Ratio (y) = 0.37152 0.08301
# Poissons Ratio (z) = -0.04937 0.19711
#
# Static dielectric constant tensor:
#      x y z
#    x 1.920100 0.000000 0.000000 
#    y 0.000000 1.818160 0.000000 
#    z 0.000000 0.000000 1.909110 
# 
# From -- ./inp_files/7421.got.cif
#   From: 2010.05.17/outbox.cif.g08.bks.cpg/sg65_4_cif.got.tgz:7421.got - 2010.06.03 17:01:31.
