data_PCOD9487560
_publ_section_title
;
Structure prediction by ZEFSAII (Michael W. Deem and Ramdas Pophale) SiO2 
 PCOD9487560
Probable space group: C M M M
;
_chemical_formula_sum "Si O2"
_cell_formula_units_Z 80
_cell_length_a 26.671187
_cell_length_b 7.828855
_cell_length_c 18.799940
_cell_angle_alpha 90.000000
_cell_angle_beta 90.000000
_cell_angle_gamma 90.000000
_cell_volume 3925.518759
_symmetry_space_group_name_H-M "C M M M"
_symmetry_group_IT_number 65
_symmetry_cell_setting 'orthorhombic'
loop_
_space_group_symop_operation_xyz
x,y,z
-x,-y,z
x,-y,-z
-x,y,-z
-x,-y,-z
x,y,-z
-x,y,z
x,-y,z
1/2+x,1/2+y,z
1/2-x,1/2-y,z
1/2+x,1/2-y,-z
1/2-x,1/2+y,-z
1/2-x,1/2-y,-z
1/2+x,1/2+y,-z
1/2-x,1/2+y,z
1/2+x,1/2-y,z
loop_
_atom_site_type_symbol
_atom_site_label
_atom_site_fract_x
_atom_site_fract_y
_atom_site_fract_z
Si Si1 0.694092 0.294248 0.331491
Si Si2 0.000000 0.702040 0.331211
Si Si3 0.401291 0.294774 0.419449
Si Si4 0.194279 0.205342 0.831453
Si Si5 0.902137 0.790472 0.081951
Si Si6 0.500000 0.703942 0.833772
O O1 0.690641 0.500000 0.329214
O O2 0.750000 0.250000 0.356939
O O3 0.648813 0.229895 0.380253
O O4 0.689027 0.230867 0.249977
O O5 0.950420 0.759477 0.373060
O O6 0.000000 0.765093 0.250170
O O7 0.000000 0.500000 0.329263
O O8 0.406296 0.228818 0.500000
O O9 0.396637 0.500000 0.423673
O O10 0.250000 0.250000 0.856938
O O11 0.149332 0.266915 0.881033
O O12 0.190868 0.000000 0.828777
O O13 0.949799 0.731594 0.127794
O O14 0.902028 0.000000 0.082584
O O15 0.905837 0.737686 0.000000
O O16 0.500000 0.500000 0.844082
#
# Coordination Sequence:
#
# PCOD9487560 Si02
#       6
#    16   8  16  16  16   8
#     4   9  18  33  53  78 107 141 180 219 260 308
#     4  12  25  38  55  80 109 140 177 222 270 320
#     4  10  21  38  59  81 107 141 180 220 265 320
#     4   9  17  30  48  71 102 137 173 212 251 298
#     4   9  17  30  52  81 106 130 169 220 265 306
#     4  10  19  35  59  80 101 133 173 216 264 320
#
# _framework density 20.379472
#
# number of rings (size 3 to 8) (size 9 to 14) (size 15 to 20)
#    0.000    2.400    0.000    2.700    0.000    7.600 
#    0.000    5.000    0.000    2.400    0.000    0.000 
#    0.000    0.000    0.000    0.000    0.000    0.000 
#
# Total GULP energy -223360.102952 kJ/mol
# GULP energy per Si atom -5584.002574 kJ/mol
# Density = 2.033309 g / cm^3
# Si number density = 20.379472 Si / 1000 Ang^3
#
#
#
# Elastic Constant Matrix: (Units=GPa)
#
#
# Indices 1 2 3 4 5 6 
#
# 1 232.4232 0.2804 139.6334 0.0000 0.0000 0.0000
# 2 0.2804 20.5469 1.0842 0.0000 0.0000 0.0000
# 3 139.6334 1.0842 176.1727 0.0000 0.0000 0.0000
# 4 0.0000 0.0000 0.0000 0.7718 0.0000 0.0000
# 5 0.0000 0.0000 0.0000 0.0000 -30.6768 0.0000
# 6 0.0000 0.0000 0.0000 0.0000 0.0000 23.9189
#
#
#
# Elastic Compliance Matrix: (Units=1/GPa)
#
#
# Indices 1 2 3 4 5 6 
#
# 1 0.008215 0.000232 -0.006512 0.000000 0.000000 0.000000
# 2 0.000232 0.048692 -0.000483 0.000000 0.000000 0.000000
# 3 -0.006512 -0.000483 0.010841 0.000000 0.000000 0.000000
# 4 0.000000 0.000000 0.000000 1.295709 0.000000 0.000000
# 5 0.000000 0.000000 0.000000 0.000000 -0.032598 0.000000
# 6 0.000000 0.000000 0.000000 0.000000 0.000000 0.041808
#
#
# Mechanical properties :
#
#
# Convention : Reuss Voigt Hill
#
# Bulk Modulus (GPa) = 18.44368 79.01542 48.72955
# Shear Modulus (GPa) = 3.56058 18.01242 10.78650
#
# Velocity S-wave (km/s) = 1.32323 2.97619 2.30311
# Velocity P-wave (km/s) = 3.37703 7.11804 5.57094
#
# Compressibility (1/GPa) = 0.05421911
#
# Stress axis : x y z
#
# Youngs Moduli (GPa) = 121.73428 20.53746 92.24403
#
# Poissons Ratio (x) = -0.00475 0.60072
# Poissons Ratio (y) = -0.02818 0.04457
# Poissons Ratio (z) = 0.79277 0.00992
#
# Static dielectric constant tensor:
#      x y z
#    x 1.713270 0.000000 0.000000 
#    y 0.000000 1.749490 0.000000 
#    z 0.000000 0.000000 1.640470 
# 
# From -- ./inp_files/57316.got.cif
#   From: 2010.05.17/outbox.cif.g08.bks.cpg/sg65_29_cif.got.tgz:57316.got - 2010.06.03 17:01:31.
