data_PCOD9487434
_publ_section_title
;
Structure prediction by ZEFSAII (Michael W. Deem and Ramdas Pophale) SiO2 
 PCOD9487434
Probable space group: C M M M
;
_chemical_formula_sum "Si O2"
_cell_formula_units_Z 72
_cell_length_a 20.798262
_cell_length_b 20.758378
_cell_length_c 7.340598
_cell_angle_alpha 90.000000
_cell_angle_beta 90.000000
_cell_angle_gamma 90.000000
_cell_volume 3169.216452
_symmetry_space_group_name_H-M "C M M M"
_symmetry_group_IT_number 65
_symmetry_cell_setting 'orthorhombic'
loop_
_space_group_symop_operation_xyz
x,y,z
-x,-y,z
x,-y,-z
-x,y,-z
-x,-y,-z
x,y,-z
-x,y,z
x,-y,z
1/2+x,1/2+y,z
1/2-x,1/2-y,z
1/2+x,1/2-y,-z
1/2-x,1/2+y,-z
1/2-x,1/2-y,-z
1/2+x,1/2+y,-z
1/2-x,1/2+y,z
1/2+x,1/2-y,z
loop_
_atom_site_type_symbol
_atom_site_label
_atom_site_fract_x
_atom_site_fract_y
_atom_site_fract_z
Si Si1 0.500000 0.617615 0.211393
Si Si2 0.740451 0.320437 0.790355
Si Si3 0.576450 0.000000 0.710560
Si Si4 0.000000 0.269257 0.279922
Si Si5 0.860449 0.926893 0.776972
Si Si6 0.616562 0.861201 0.721683
O O1 0.500000 0.695147 0.221831
O O2 0.432661 0.590718 0.284960
O O3 0.500000 0.598147 0.000000
O O4 0.750000 0.250000 0.704391
O O5 0.689493 0.371848 0.714800
O O6 0.811749 0.348414 0.784844
O O7 0.719399 0.309628 0.000000
O O8 0.597976 0.067828 0.788123
O O9 0.500000 0.000000 0.709655
O O10 0.599010 0.000000 0.500000
O O11 0.063689 0.308326 0.220569
O O12 0.000000 0.269338 0.500000
O O13 0.843544 0.000000 0.722723
O O14 0.859441 0.926020 0.000000
O O15 0.615210 0.860545 0.500000
#
# Coordination Sequence:
#
# PCOD9487434 Si02
#       6
#     8  16   8   8  16  16
#     4  10  19  34  59  81  99 129 176 224 259 303
#     4  10  21  36  53  77 111 144 173 214 267 314
#     4   9  16  32  55  77 103 136 175 218 260 307
#     4  10  20  34  53  79 108 139 172 212 266 316
#     4   9  18  33  54  79 105 136 175 216 261 313
#     4  10  20  34  55  79 104 138 179 218 258 310
#
# _framework density 22.71855
#
# number of rings (size 3 to 8) (size 9 to 14) (size 15 to 20)
#    0.000    2.333    1.111    1.667    1.556    4.444 
#    0.000    1.111    0.000    3.333    0.000    0.000 
#    0.000    0.000    0.000    0.000    0.000    0.000 
#
# Total GULP energy -201081.119407 kJ/mol
# GULP energy per Si atom -5585.586650 kJ/mol
# Density = 2.266684 g / cm^3
# Si number density = 22.718550 Si / 1000 Ang^3
#
#
#
# Elastic Constant Matrix: (Units=GPa)
#
#
# Indices 1 2 3 4 5 6 
#
# 1 135.4276 72.1582 -0.5329 0.0000 0.0000 0.0000
# 2 72.1582 188.9407 3.0496 0.0000 0.0000 0.0000
# 3 -0.5329 3.0496 89.1674 0.0000 0.0000 0.0000
# 4 0.0000 0.0000 0.0000 20.1047 0.0000 0.0000
# 5 0.0000 0.0000 0.0000 0.0000 25.8079 0.0000
# 6 0.0000 0.0000 0.0000 0.0000 0.0000 -24.8555
#
#
#
# Elastic Compliance Matrix: (Units=1/GPa)
#
#
# Indices 1 2 3 4 5 6 
#
# 1 0.009273 -0.003544 0.000177 0.000000 0.000000 0.000000
# 2 -0.003544 0.006650 -0.000249 0.000000 0.000000 0.000000
# 3 0.000177 -0.000249 0.011224 0.000000 0.000000 0.000000
# 4 0.000000 0.000000 0.000000 0.049740 0.000000 0.000000
# 5 0.000000 0.000000 0.000000 0.000000 0.038748 0.000000
# 6 0.000000 0.000000 0.000000 0.000000 0.000000 -0.040232
#
#
# Mechanical properties :
#
#
# Convention : Reuss Voigt Hill
#
# Bulk Modulus (GPa) = 50.21287 62.54283 56.37785
# Shear Modulus (GPa) = 56.00733 26.80213 41.40473
#
# Velocity S-wave (km/s) = 4.97053 3.43847 4.27371
# Velocity P-wave (km/s) = 7.42238 6.58432 7.01588
#
# Compressibility (1/GPa) = 0.01991521
#
# Stress axis : x y z
#
# Youngs Moduli (GPa) = 107.83738 150.36894 89.09146
#
# Poissons Ratio (x) = 0.53296 -0.01574
# Poissons Ratio (y) = 0.38222 0.02215
# Poissons Ratio (z) = -0.01905 0.03739
#
# Static dielectric constant tensor:
#      x y z
#    x 1.734220 0.000000 0.000000 
#    y 0.000000 1.806000 0.000000 
#    z 0.000000 0.000000 1.902360 
# 
# From -- ./inp_files/11337.got.cif
#   From: 2010.05.17/outbox.cif.g08.bks.cpg/sg65_6_cif.got.tgz:11337.got - 2010.06.03 17:01:31.
