data_PCOD9487820
_publ_section_title
;
Structure prediction by ZEFSAII (Michael W. Deem and Ramdas Pophale) SiO2 
 PCOD9487820
Probable space group: C M M M
;
_chemical_formula_sum "Si O2"
_cell_formula_units_Z 96
_cell_length_a 28.488096
_cell_length_b 7.680622
_cell_length_c 24.776099
_cell_angle_alpha 90.000000
_cell_angle_beta 90.000000
_cell_angle_gamma 90.000000
_cell_volume 5421.166473
_symmetry_space_group_name_H-M "C M M M"
_symmetry_group_IT_number 65
_symmetry_cell_setting 'orthorhombic'
loop_
_space_group_symop_operation_xyz
x,y,z
-x,-y,z
x,-y,-z
-x,y,-z
-x,-y,-z
x,y,-z
-x,y,z
x,-y,z
1/2+x,1/2+y,z
1/2-x,1/2-y,z
1/2+x,1/2-y,-z
1/2-x,1/2+y,-z
1/2-x,1/2-y,-z
1/2+x,1/2+y,-z
1/2-x,1/2+y,z
1/2+x,1/2-y,z
loop_
_atom_site_type_symbol
_atom_site_label
_atom_site_fract_x
_atom_site_fract_y
_atom_site_fract_z
Si Si1 0.389177 0.295569 0.662380
Si Si2 0.195919 0.790674 0.729619
Si Si3 0.195958 0.790464 0.939125
Si Si4 0.946843 0.707373 0.768285
Si Si5 0.945932 0.787071 0.560849
Si Si6 0.641924 0.290269 0.835562
O O1 0.381728 0.500000 0.651574
O O2 0.339811 0.222454 0.683986
O O3 0.424485 0.281308 0.713215
O O4 0.412696 0.221614 0.608604
O O5 0.250000 0.750000 0.721505
O O6 0.176195 0.727349 0.787378
O O7 0.191157 0.000000 0.730425
O O8 0.250000 0.750000 0.924601
O O9 0.160814 0.725053 0.892942
O O10 0.191824 0.000000 0.941043
O O11 0.187560 0.723735 0.000000
O O12 0.948132 0.500000 0.761754
O O13 0.910612 0.746799 0.816564
O O14 0.000000 0.770567 0.776872
O O15 0.932598 0.734724 0.500000
O O16 0.000000 0.734686 0.570451
O O17 0.945715 0.000000 0.561882
O O18 0.644968 0.500000 0.836825
#
# Coordination Sequence:
#
# PCOD9487820 Si02
#       6
#    16  16  16  16  16  16
#     4   9  17  29  45  65  88 114 144 177 215 259
#     4   9  17  27  40  60  84 111 143 175 209 250
#     4   9  17  29  46  69  95 120 147 180 217 259
#     4  10  20  31  44  65  90 114 143 179 218 261
#     4   8  13  22  40  66  89 108 136 176 217 254
#     4   9  18  31  46  65  88 115 147 179 213 256
#
# _framework density 17.708366999999999
#
# number of rings (size 3 to 8) (size 9 to 14) (size 15 to 20)
#    0.000    3.000    0.000    3.000    0.000    5.333 
#    0.000    0.000    0.000    1.500    0.000    5.833 
#    0.000    0.000    0.000    0.000    0.000    0.333 
#
# Total GULP energy -267496.997372 kJ/mol
# GULP energy per Si atom -5572.854112 kJ/mol
# Density = 1.766806 g / cm^3
# Si number density = 17.708367 Si / 1000 Ang^3
#
#
#
# Elastic Constant Matrix: (Units=GPa)
#
#
# Indices 1 2 3 4 5 6 
#
# 1 155.0673 -5.6991 85.8212 0.0000 0.0000 0.0000
# 2 -5.6991 27.5454 -1.5185 0.0000 0.0000 0.0000
# 3 85.8212 -1.5185 110.2370 0.0000 0.0000 0.0000
# 4 0.0000 0.0000 0.0000 -1.2392 0.0000 0.0000
# 5 0.0000 0.0000 0.0000 0.0000 27.6387 0.0000
# 6 0.0000 0.0000 0.0000 0.0000 0.0000 19.0410
#
#
#
# Elastic Compliance Matrix: (Units=1/GPa)
#
#
# Indices 1 2 3 4 5 6 
#
# 1 0.011427 0.001875 -0.008870 0.000000 0.000000 0.000000
# 2 0.001875 0.036639 -0.000955 0.000000 0.000000 0.000000
# 3 -0.008870 -0.000955 0.015964 0.000000 0.000000 0.000000
# 4 0.000000 0.000000 0.000000 -0.807004 0.000000 0.000000
# 5 0.000000 0.000000 0.000000 0.000000 0.036181 0.000000
# 6 0.000000 0.000000 0.000000 0.000000 0.000000 0.052518
#
#
# Mechanical properties :
#
#
# Convention : Reuss Voigt Hill
#
# Bulk Modulus (GPa) = 20.77730 50.00632 35.39181
# Shear Modulus (GPa) = -8.03431 23.37118 7.66844
#
# Velocity S-wave (km/s) = -2.13234 3.63682 2.08322
# Velocity P-wave (km/s) = 2.38664 6.77757 5.08092
#
# Compressibility (1/GPa) = 0.04812946
#
# Stress axis : x y z
#
# Youngs Moduli (GPa) = 87.51290 27.29327 62.64180
#
# Poissons Ratio (x) = -0.05118 0.55564
# Poissons Ratio (y) = -0.16411 0.05983
# Poissons Ratio (z) = 0.77626 0.02607
#
# Static dielectric constant tensor:
#      x y z
#    x 1.596130 0.000000 0.000000 
#    y 0.000000 1.650670 0.000000 
#    z 0.000000 0.000000 1.616190 
# 
# From -- ./inp_files/68010.got.cif
#   From: 2010.05.17/outbox.cif.g08.bks.cpg/sg65_35_cif.got.tgz:68010.got - 2010.06.03 17:01:31.
