data_PCOD9487050
_publ_section_title
;
Structure prediction by ZEFSAII (Michael W. Deem and Ramdas Pophale) SiO2 
 PCOD9487050
Probable space group: C M M M
;
_chemical_formula_sum "Si O2"
_cell_formula_units_Z 104
_cell_length_a 21.665638
_cell_length_b 17.297845
_cell_length_c 13.616103
_cell_angle_alpha 90.000000
_cell_angle_beta 90.000000
_cell_angle_gamma 90.000000
_cell_volume 5102.891235
_symmetry_space_group_name_H-M "C M M M"
_symmetry_group_IT_number 65
_symmetry_cell_setting 'orthorhombic'
loop_
_space_group_symop_operation_xyz
x,y,z
-x,-y,z
x,-y,-z
-x,y,-z
-x,-y,-z
x,y,-z
-x,y,z
x,-y,z
1/2+x,1/2+y,z
1/2-x,1/2-y,z
1/2+x,1/2-y,-z
1/2-x,1/2+y,-z
1/2-x,1/2-y,-z
1/2+x,1/2+y,-z
1/2-x,1/2+y,z
1/2+x,1/2-y,z
loop_
_atom_site_type_symbol
_atom_site_label
_atom_site_fract_x
_atom_site_fract_y
_atom_site_fract_z
Si Si1 0.573866 0.000000 0.616249
Si Si2 0.884211 0.804285 0.381930
Si Si3 0.365182 0.588958 0.119578
Si Si4 0.266763 0.159647 0.886032
Si Si5 0.645561 0.857379 0.706469
Si Si6 0.729365 0.587854 0.383266
Si Si7 0.500000 0.587035 0.616920
Si Si8 0.000000 0.094398 0.885447
O O1 0.599902 0.925615 0.673990
O O2 0.500000 0.000000 0.616123
O O3 0.594144 0.000000 0.500000
O O4 0.883009 0.787038 0.500000
O O5 0.883235 0.724948 0.321936
O O6 0.824977 0.854933 0.353976
O O7 0.941082 0.860789 0.362698
O O8 0.366274 0.500000 0.149533
O O9 0.297724 0.620473 0.146148
O O10 0.432459 0.621776 0.151917
O O11 0.366261 0.593126 0.000000
O O12 0.250000 0.250000 0.881140
O O13 0.324637 0.141315 0.815653
O O14 0.279445 0.139238 0.000000
O O15 0.706344 0.872326 0.641186
O O16 0.723384 0.580933 0.500000
O O17 0.727072 0.500000 0.343149
O O18 0.500000 0.500000 0.660441
O O19 0.500000 0.576757 0.500000
O O20 0.000000 0.000000 0.882055
O O21 0.000000 0.115414 0.000000
#
# Coordination Sequence:
#
# PCOD9487050 Si02
#       8
#     8  16  16  16  16  16   8   8
#     4  11  26  46  71 101 133 164 208 279 356 425
#     4  10  20  33  57  90 126 167 209 255 316 402
#     4   8  14  26  50  82 115 153 199 254 318 383
#     4  10  22  39  60  89 127 171 221 276 329 381
#     4  12  23  39  63  91 123 168 217 274 337 396
#     4  10  19  33  55  88 127 162 201 255 320 390
#     4   9  18  34  56  90 135 174 202 237 300 388
#     4   7  10  20  42  77 113 142 180 235 302 367
#
# _framework density 20.380602
#
# number of rings (size 3 to 8) (size 9 to 14) (size 15 to 20)
#    0.000    2.231    0.769    4.154    2.154    3.077 
#    0.000    0.000    1.692    1.846    0.000    4.308 
#    0.000    1.846    0.000    0.077    0.000    0.077 
#
# Total GULP energy -290185.275203 kJ/mol
# GULP energy per Si atom -5580.486062 kJ/mol
# Density = 2.033422 g / cm^3
# Si number density = 20.380602 Si / 1000 Ang^3
#
#
#
# Elastic Constant Matrix: (Units=GPa)
#
#
# Indices 1 2 3 4 5 6 
#
# 1 130.7278 69.5189 39.5531 0.0000 0.0000 0.0000
# 2 69.5189 127.4550 36.2050 0.0000 0.0000 0.0000
# 3 39.5531 36.2050 133.5496 0.0000 0.0000 0.0000
# 4 0.0000 0.0000 0.0000 -54.4374 0.0000 0.0000
# 5 0.0000 0.0000 0.0000 0.0000 27.9474 0.0000
# 6 0.0000 0.0000 0.0000 0.0000 0.0000 83.3905
#
#
#
# Elastic Compliance Matrix: (Units=1/GPa)
#
#
# Indices 1 2 3 4 5 6 
#
# 1 0.011157 -0.005576 -0.001793 0.000000 0.000000 0.000000
# 2 -0.005576 0.011288 -0.001408 0.000000 0.000000 0.000000
# 3 -0.001793 -0.001408 0.008401 0.000000 0.000000 0.000000
# 4 0.000000 0.000000 0.000000 -0.018370 0.000000 0.000000
# 5 0.000000 0.000000 0.000000 0.000000 0.035781 0.000000
# 6 0.000000 0.000000 0.000000 0.000000 0.000000 0.011992
#
#
# Mechanical properties :
#
#
# Convention : Reuss Voigt Hill
#
# Bulk Modulus (GPa) = 75.24241 75.80960 75.52600
# Shear Modulus (GPa) = 60.80182 27.81045 44.30614
#
# Velocity S-wave (km/s) = 5.46790 3.69800 4.66761
# Velocity P-wave (km/s) = 8.76714 7.45059 8.13554
#
# Compressibility (1/GPa) = 0.01329038
#
# Stress axis : x y z
#
# Youngs Moduli (GPa) = 89.62716 88.59282 119.03866
#
# Poissons Ratio (x) = 0.49403 0.21340
# Poissons Ratio (y) = 0.49980 0.16766
# Poissons Ratio (z) = 0.16067 0.12478
#
# Static dielectric constant tensor:
#      x y z
#    x 1.723360 0.000000 0.000000 
#    y 0.000000 1.713580 0.000000 
#    z 0.000000 0.000000 1.808870 
# 
# From -- ./inp_files/44449.got.cif
#   From: 2010.05.17/outbox.cif.g08.bks.cpg/sg65_23_cif.got.tgz:44449.got - 2010.06.03 17:01:31.
