data_PCOD9487488
_publ_section_title
;
Structure prediction by ZEFSAII (Michael W. Deem and Ramdas Pophale) SiO2 
 PCOD9487488
Probable space group: C M M M
;
_chemical_formula_sum "Si O2"
_cell_formula_units_Z 72
_cell_length_a 16.378951
_cell_length_b 16.333863
_cell_length_c 14.234388
_cell_angle_alpha 90.000000
_cell_angle_beta 90.000000
_cell_angle_gamma 90.000000
_cell_volume 3808.147767
_symmetry_space_group_name_H-M "C M M M"
_symmetry_group_IT_number 65
_symmetry_cell_setting 'orthorhombic'
loop_
_space_group_symop_operation_xyz
x,y,z
-x,-y,z
x,-y,-z
-x,y,-z
-x,-y,-z
x,y,-z
-x,y,z
x,-y,z
1/2+x,1/2+y,z
1/2-x,1/2-y,z
1/2+x,1/2-y,-z
1/2-x,1/2+y,-z
1/2-x,1/2-y,-z
1/2+x,1/2+y,-z
1/2-x,1/2+y,z
1/2+x,1/2-y,z
loop_
_atom_site_type_symbol
_atom_site_label
_atom_site_fract_x
_atom_site_fract_y
_atom_site_fract_z
Si Si1 0.096160 0.000000 0.394166
Si Si2 0.594204 0.200950 0.391277
Si Si3 0.150352 0.746282 0.893789
Si Si4 0.152865 0.595558 0.766642
Si Si5 0.337351 0.348511 0.279365
O O1 0.120333 0.921093 0.334659
O O2 0.132750 0.000000 0.500000
O O3 0.000000 0.000000 0.404265
O O4 0.613359 0.186346 0.500000
O O5 0.500000 0.230146 0.385053
O O6 0.603938 0.121230 0.326625
O O7 0.652992 0.269303 0.346114
O O8 0.250000 0.750000 0.895424
O O9 0.127317 0.658409 0.849215
O O10 0.125476 0.816310 0.819382
O O11 0.121195 0.756897 0.000000
O O12 0.145914 0.500000 0.789223
O O13 0.246541 0.619798 0.742856
#
# Coordination Sequence:
#
# PCOD9487488 Si02
#       5
#     8  16  16  16  16
#     4  11  22  34  53  81 112 148 185 220 267 327
#     4  10  21  36  53  73 102 144 187 222 264 320
#     4   8  16  32  55  79 104 137 176 219 267 317
#     4  10  20  34  53  81 111 137 173 224 273 322
#     4  10  19  35  55  78 109 139 178 228 268 317
#
# _framework density 18.906828999999998
#
# number of rings (size 3 to 8) (size 9 to 14) (size 15 to 20)
#    0.000    2.333    1.111    3.333    0.000    5.778 
#    0.000    1.667    0.000   17.333    0.000    6.222 
#    0.000    0.000    0.000    0.000    0.000    0.000 
#
# Total GULP energy -200667.394763 kJ/mol
# GULP energy per Si atom -5574.094299 kJ/mol
# Density = 1.886380 g / cm^3
# Si number density = 18.906829 Si / 1000 Ang^3
#
#
#
# Elastic Constant Matrix: (Units=GPa)
#
#
# Indices 1 2 3 4 5 6 
#
# 1 18.8170 10.1698 18.8119 0.0000 0.0000 0.0000
# 2 10.1698 135.2529 71.5699 0.0000 0.0000 0.0000
# 3 18.8119 71.5699 187.6054 0.0000 0.0000 0.0000
# 4 0.0000 0.0000 0.0000 144.2082 0.0000 0.0000
# 5 0.0000 0.0000 0.0000 0.0000 109.9229 0.0000
# 6 0.0000 0.0000 0.0000 0.0000 0.0000 16.3788
#
#
#
# Elastic Compliance Matrix: (Units=1/GPa)
#
#
# Indices 1 2 3 4 5 6 
#
# 1 0.059355 -0.001646 -0.005324 0.000000 0.000000 0.000000
# 2 -0.001646 0.009309 -0.003386 0.000000 0.000000 0.000000
# 3 -0.005324 -0.003386 0.007156 0.000000 0.000000 0.000000
# 4 0.000000 0.000000 0.000000 0.006934 0.000000 0.000000
# 5 0.000000 0.000000 0.000000 0.000000 0.009097 0.000000
# 6 0.000000 0.000000 0.000000 0.000000 0.000000 0.061055
#
#
# Mechanical properties :
#
#
# Convention : Reuss Voigt Hill
#
# Bulk Modulus (GPa) = 18.14605 60.30874 39.22740
# Shear Modulus (GPa) = 26.04320 70.17688 48.11004
#
# Velocity S-wave (km/s) = 3.71543 6.09900 5.04986
# Velocity P-wave (km/s) = 5.29380 9.03129 7.40231
#
# Compressibility (1/GPa) = 0.05510841
#
# Stress axis : x y z
#
# Youngs Moduli (GPa) = 16.84769 107.42039 139.74180
#
# Poissons Ratio (x) = 0.17679 0.74398
# Poissons Ratio (y) = 0.02773 0.47322
# Poissons Ratio (z) = 0.08970 0.36376
#
# Static dielectric constant tensor:
#      x y z
#    x 1.684510 0.000000 0.000000 
#    y 0.000000 1.664470 0.000000 
#    z 0.000000 0.000000 1.663000 
# 
# From -- ./inp_files/42149.got.cif
#   From: 2010.05.17/outbox.cif.g08.bks.cpg/sg65_22_cif.got.tgz:42149.got - 2010.06.03 17:01:31.
