data_PCOD9487497
_publ_section_title
;
Structure prediction by ZEFSAII (Michael W. Deem and Ramdas Pophale) SiO2 
 PCOD9487497
Probable space group: C M M M
;
_chemical_formula_sum "Si O2"
_cell_formula_units_Z 88
_cell_length_a 28.641663
_cell_length_b 19.270279
_cell_length_c 9.187254
_cell_angle_alpha 90.000000
_cell_angle_beta 90.000000
_cell_angle_gamma 90.000000
_cell_volume 5070.747165
_symmetry_space_group_name_H-M "C M M M"
_symmetry_group_IT_number 65
_symmetry_cell_setting 'orthorhombic'
loop_
_space_group_symop_operation_xyz
x,y,z
-x,-y,z
x,-y,-z
-x,y,-z
-x,-y,-z
x,y,-z
-x,y,z
x,-y,z
1/2+x,1/2+y,z
1/2-x,1/2-y,z
1/2+x,1/2-y,-z
1/2-x,1/2+y,-z
1/2-x,1/2-y,-z
1/2+x,1/2+y,-z
1/2-x,1/2+y,z
1/2+x,1/2-y,z
loop_
_atom_site_type_symbol
_atom_site_label
_atom_site_fract_x
_atom_site_fract_y
_atom_site_fract_z
Si Si1 0.000000 0.082708 0.171749
Si Si2 0.717400 0.915644 0.332487
Si Si3 0.377079 0.081891 0.826883
Si Si4 0.086104 0.841998 0.324563
Si Si5 0.679662 0.419826 0.677142
Si Si6 0.445137 0.187006 0.674154
O O1 0.045429 0.114938 0.247523
O O2 0.000000 0.000000 0.189998
O O3 0.000000 0.098658 0.000000
O O4 0.711222 0.892542 0.500000
O O5 0.672895 0.895131 0.238417
O O6 0.768782 0.894817 0.276880
O O7 0.718929 0.000000 0.334369
O O8 0.417823 0.126512 0.755273
O O9 0.382753 0.000000 0.792699
O O10 0.377118 0.089687 0.000000
O O11 0.081614 0.850008 0.500000
O O12 0.136482 0.871853 0.280126
O O13 0.078099 0.761218 0.291017
O O14 0.681318 0.420875 0.500000
O O15 0.672251 0.500000 0.723822
O O16 0.441626 0.176818 0.500000
O O17 0.500000 0.189507 0.711718
#
# Coordination Sequence:
#
# PCOD9487497 Si02
#       6
#     8  16  16  16  16  16
#     4  11  23  35  49  75 110 145 182 221 261 306
#     4   8  14  28  51  78 106 134 166 209 260 307
#     4  10  21  36  55  79 103 132 173 214 258 319
#     4  10  19  35  56  78 104 138 181 223 260 306
#     4   8  14  26  50  82 108 133 171 217 260 299
#     4  10  21  37  55  77 104 135 173 217 268 320
#
# _framework density 17.354444000000001
#
# number of rings (size 3 to 8) (size 9 to 14) (size 15 to 20)
#    0.000    2.636    0.909    2.455    0.000    4.000 
#    0.000    3.636    0.000    8.727    0.000    0.000 
#    0.000    0.000    0.000    0.000    0.000    0.000 
#
# Total GULP energy -245322.429237 kJ/mol
# GULP energy per Si atom -5575.509755 kJ/mol
# Density = 1.731494 g / cm^3
# Si number density = 17.354444 Si / 1000 Ang^3
#
#
#
# Elastic Constant Matrix: (Units=GPa)
#
#
# Indices 1 2 3 4 5 6 
#
# 1 151.1334 80.3460 46.1824 0.0000 0.0000 0.0000
# 2 80.3460 79.8599 46.7157 0.0000 0.0000 0.0000
# 3 46.1824 46.7157 31.7574 0.0000 0.0000 0.0000
# 4 0.0000 0.0000 0.0000 19.8697 0.0000 0.0000
# 5 0.0000 0.0000 0.0000 0.0000 -3.3963 0.0000
# 6 0.0000 0.0000 0.0000 0.0000 0.0000 -48.3589
#
#
#
# Elastic Compliance Matrix: (Units=1/GPa)
#
#
# Indices 1 2 3 4 5 6 
#
# 1 0.014256 -0.015882 0.002631 0.000000 0.000000 0.000000
# 2 -0.015882 0.107456 -0.134975 0.000000 0.000000 0.000000
# 3 0.002631 -0.134975 0.226213 0.000000 0.000000 0.000000
# 4 0.000000 0.000000 0.000000 0.050328 0.000000 0.000000
# 5 0.000000 0.000000 0.000000 0.000000 -0.294435 0.000000
# 6 0.000000 0.000000 0.000000 0.000000 0.000000 -0.020679
#
#
# Mechanical properties :
#
#
# Convention : Reuss Voigt Hill
#
# Bulk Modulus (GPa) = 19.42714 67.69321 43.56017
# Shear Modulus (GPa) = 12.60243 -0.41000 6.09621
#
# Velocity S-wave (km/s) = 2.69769 -0.48658 1.87627
# Velocity P-wave (km/s) = 4.57406 6.22698 5.46339
#
# Compressibility (1/GPa) = 0.05147438
#
# Stress axis : x y z
#
# Youngs Moduli (GPa) = 70.14743 9.30609 4.42061
#
# Poissons Ratio (x) = 0.14779 -0.01163
# Poissons Ratio (y) = 1.11405 0.59667
# Poissons Ratio (z) = -0.18456 1.25609
#
# Static dielectric constant tensor:
#      x y z
#    x 1.592010 0.000000 0.000000 
#    y 0.000000 1.575770 0.000000 
#    z 0.000000 0.000000 1.571990 
# 
# From -- ./inp_files/18270.got.cif
#   From: 2010.05.17/outbox.cif.g08.bks.cpg/sg65_10_cif.got.tgz:18270.got - 2010.06.03 17:01:31.
