data_PCOD9487993
_publ_section_title
;
Structure prediction by ZEFSAII (Michael W. Deem and Ramdas Pophale) SiO2 
 PCOD9487993
Probable space group: C M M M
;
_chemical_formula_sum "Si O2"
_cell_formula_units_Z 104
_cell_length_a 27.922887
_cell_length_b 8.723074
_cell_length_c 27.325269
_cell_angle_alpha 90.000000
_cell_angle_beta 90.000000
_cell_angle_gamma 90.000000
_cell_volume 6655.708938
_symmetry_space_group_name_H-M "C M M M"
_symmetry_group_IT_number 65
_symmetry_cell_setting 'orthorhombic'
loop_
_space_group_symop_operation_xyz
x,y,z
-x,-y,z
x,-y,-z
-x,y,-z
-x,-y,-z
x,y,-z
-x,y,z
x,-y,z
1/2+x,1/2+y,z
1/2-x,1/2-y,z
1/2+x,1/2-y,-z
1/2-x,1/2+y,-z
1/2-x,1/2-y,-z
1/2+x,1/2+y,-z
1/2-x,1/2+y,z
1/2+x,1/2-y,z
loop_
_atom_site_type_symbol
_atom_site_label
_atom_site_fract_x
_atom_site_fract_y
_atom_site_fract_z
Si Si1 0.803821 0.817420 0.154216
Si Si2 0.944648 0.812703 0.500000
Si Si3 0.802389 0.683206 0.350419
Si Si4 0.853762 0.316760 0.751004
Si Si5 0.195984 0.683780 0.053544
Si Si6 0.054976 0.815385 0.298684
Si Si7 0.893874 0.184536 0.400038
O O1 0.750000 0.750000 0.159200
O O2 0.834107 0.762077 0.200445
O O3 0.825108 0.755168 0.102882
O O4 0.800709 0.000000 0.152528
O O5 0.917249 0.764130 0.549131
O O6 0.000000 0.763150 0.500000
O O7 0.945135 0.000000 0.500000
O O8 0.800946 0.500000 0.352604
O O9 0.750000 0.750000 0.359214
O O10 0.821033 0.727529 0.295960
O O11 0.842365 0.744873 0.387735
O O12 0.851644 0.500000 0.756311
O O13 0.907115 0.263727 0.737041
O O14 0.198035 0.500000 0.058241
O O15 0.250000 0.750000 0.052222
O O16 0.174286 0.720450 0.000000
O O17 0.071747 0.777848 0.354062
O O18 0.000000 0.770653 0.290876
O O19 0.058619 0.000000 0.293424
O O20 0.889228 0.000000 0.401389
#
# Coordination Sequence:
#
# PCOD9487993 Si02
#       7
#    16   8  16  16  16  16  16
#     4  11  20  29  43  63  90 122 155 191 229 269
#     4   9  16  28  50  77  98 117 146 183 222 265
#     4  10  20  33  49  67  89 119 153 188 225 267
#     4  10  20  32  46  66  91 118 151 189 227 270
#     4   9  16  26  40  58  83 117 155 191 226 265
#     4   9  17  30  48  69  93 120 148 180 222 270
#     4   9  17  30  49  72  96 120 148 182 219 264
#
# _framework density 15.625684
#
# number of rings (size 3 to 8) (size 9 to 14) (size 15 to 20)
#    0.000    2.385    0.000    4.615    0.000    6.154 
#    0.000    0.769    0.000    1.846    0.000    0.000 
#    0.000    0.615    0.000    6.462    0.000    2.769 
#
# Total GULP energy -289946.655127 kJ/mol
# GULP energy per Si atom -5575.897214 kJ/mol
# Density = 1.559012 g / cm^3
# Si number density = 15.625684 Si / 1000 Ang^3
#
#
#
# Elastic Constant Matrix: (Units=GPa)
#
#
# Indices 1 2 3 4 5 6 
#
# 1 111.1816 37.1999 68.1968 0.0000 0.0000 0.0000
# 2 37.1999 55.7372 50.2370 0.0000 0.0000 0.0000
# 3 68.1968 50.2370 148.6504 0.0000 0.0000 0.0000
# 4 0.0000 0.0000 0.0000 16.5696 0.0000 0.0000
# 5 0.0000 0.0000 0.0000 0.0000 17.3709 0.0000
# 6 0.0000 0.0000 0.0000 0.0000 0.0000 20.8988
#
#
#
# Elastic Compliance Matrix: (Units=1/GPa)
#
#
# Indices 1 2 3 4 5 6 
#
# 1 0.013382 -0.004886 -0.004488 0.000000 0.000000 0.000000
# 2 -0.004886 0.027584 -0.007081 0.000000 0.000000 0.000000
# 3 -0.004488 -0.007081 0.011179 0.000000 0.000000 0.000000
# 4 0.000000 0.000000 0.000000 0.060351 0.000000 0.000000
# 5 0.000000 0.000000 0.000000 0.000000 0.057567 0.000000
# 6 0.000000 0.000000 0.000000 0.000000 0.000000 0.047850
#
#
# Mechanical properties :
#
#
# Convention : Reuss Voigt Hill
#
# Bulk Modulus (GPa) = 51.98636 69.64854 60.81745
# Shear Modulus (GPa) = 19.43744 21.63023 20.53384
#
# Velocity S-wave (km/s) = 3.53078 3.72462 3.62900
# Velocity P-wave (km/s) = 7.06852 7.94776 7.52100
#
# Compressibility (1/GPa) = 0.01923581
#
# Stress axis : x y z
#
# Youngs Moduli (GPa) = 74.72712 36.25244 89.45295
#
# Poissons Ratio (x) = 0.17714 0.40146
# Poissons Ratio (y) = 0.36514 0.63338
# Poissons Ratio (z) = 0.33537 0.25669
#
# Static dielectric constant tensor:
#      x y z
#    x 1.491150 0.000000 0.000000 
#    y 0.000000 1.526370 0.000000 
#    z 0.000000 0.000000 1.540370 
# 
# From -- ./inp_files/71838.got.cif
#   From: 2010.05.17/outbox.cif.g08.bks.cpg/sg65_36_cif.got.tgz:71838.got - 2010.06.03 17:01:31.
