data_PCOD9487006
_publ_section_title
;
Structure prediction by ZEFSAII (Michael W. Deem and Ramdas Pophale) SiO2 
 PCOD9487006
Probable space group: C M M M
;
_chemical_formula_sum "Si O2"
_cell_formula_units_Z 88
_cell_length_a 7.536441
_cell_length_b 16.558963
_cell_length_c 31.537539
_cell_angle_alpha 90.000000
_cell_angle_beta 90.000000
_cell_angle_gamma 90.000000
_cell_volume 3935.747605
_symmetry_space_group_name_H-M "C M M M"
_symmetry_group_IT_number 65
_symmetry_cell_setting 'orthorhombic'
loop_
_space_group_symop_operation_xyz
x,y,z
-x,-y,z
x,-y,-z
-x,y,-z
-x,-y,-z
x,y,-z
-x,y,z
x,-y,z
1/2+x,1/2+y,z
1/2-x,1/2-y,z
1/2+x,1/2-y,-z
1/2-x,1/2+y,-z
1/2-x,1/2-y,-z
1/2+x,1/2+y,-z
1/2-x,1/2+y,z
1/2+x,1/2-y,z
loop_
_atom_site_type_symbol
_atom_site_label
_atom_site_fract_x
_atom_site_fract_y
_atom_site_fract_z
Si Si1 0.716022 0.908532 0.185187
Si Si2 0.287597 0.159966 0.098890
Si Si3 0.788084 0.408110 0.636915
Si Si4 0.217236 0.500000 0.950978
Si Si5 0.212293 0.343194 0.726142
Si Si6 0.212564 0.906013 0.454572
O O1 0.500000 0.903517 0.186784
O O2 0.777970 0.850646 0.147423
O O3 0.780859 0.889585 0.232488
O O4 0.760988 0.000000 0.173286
O O5 0.500000 0.152490 0.100102
O O6 0.250000 0.250000 0.082689
O O7 0.223694 0.082790 0.071973
O O8 0.718067 0.500000 0.635416
O O9 0.718121 0.367673 0.679736
O O10 0.756528 0.368503 0.590950
O O11 0.000000 0.412281 0.640802
O O12 0.000000 0.500000 0.949561
O O13 0.269982 0.500000 0.000000
O O14 0.250000 0.250000 0.733234
O O15 0.000000 0.356314 0.725017
O O16 0.275263 0.871435 0.500000
O O17 0.000000 0.908136 0.456116
O O18 0.275728 0.000000 0.453334
#
# Coordination Sequence:
#
# PCOD9487006 Si02
#       6
#    16  16  16   8  16  16
#     4   9  16  30  53  76  98 130 173 212 249 305
#     4  10  19  33  55  81 108 142 184 227 273 323
#     4   9  17  29  45  66  90 117 151 190 233 280
#     4   9  18  34  55  79 109 147 191 231 268 323
#     4  10  20  32  47  68  95 125 158 198 242 291
#     4   8  14  25  42  65  91 117 146 184 233 286
#
# _framework density 22.359155999999999
#
# number of rings (size 3 to 8) (size 9 to 14) (size 15 to 20)
#    0.000    2.818    0.909    1.636    0.000    3.636 
#    0.000    2.273    0.000    3.818    0.000    0.000 
#    0.000    0.000    0.000    0.000    0.000    0.000 
#
# Total GULP energy -245348.467375 kJ/mol
# GULP energy per Si atom -5576.101531 kJ/mol
# Density = 2.230827 g / cm^3
# Si number density = 22.359156 Si / 1000 Ang^3
#
#
#
# Elastic Constant Matrix: (Units=GPa)
#
#
# Indices 1 2 3 4 5 6 
#
# 1 54.8901 -4.4076 10.5980 0.0000 0.0000 0.0000
# 2 -4.4076 99.6026 63.0940 0.0000 0.0000 0.0000
# 3 10.5980 63.0940 175.7006 0.0000 0.0000 0.0000
# 4 0.0000 0.0000 0.0000 5.7704 0.0000 0.0000
# 5 0.0000 0.0000 0.0000 0.0000 152.8691 0.0000
# 6 0.0000 0.0000 0.0000 0.0000 0.0000 15.6081
#
#
#
# Elastic Compliance Matrix: (Units=1/GPa)
#
#
# Indices 1 2 3 4 5 6 
#
# 1 0.018736 0.002000 -0.001848 0.000000 0.000000 0.000000
# 2 0.002000 0.013210 -0.004864 0.000000 0.000000 0.000000
# 3 -0.001848 -0.004864 0.007550 0.000000 0.000000 0.000000
# 4 0.000000 0.000000 0.000000 0.173297 0.000000 0.000000
# 5 0.000000 0.000000 0.000000 0.000000 0.006542 0.000000
# 6 0.000000 0.000000 0.000000 0.000000 0.000000 0.064069
#
#
# Mechanical properties :
#
#
# Convention : Reuss Voigt Hill
#
# Bulk Modulus (GPa) = 33.25591 52.08470 42.67030
# Shear Modulus (GPa) = 16.50973 52.24346 34.37659
#
# Velocity S-wave (km/s) = 2.72028 4.83904 3.92532
# Velocity P-wave (km/s) = 4.97718 7.38694 6.29838
#
# Compressibility (1/GPa) = 0.03006985
#
# Stress axis : x y z
#
# Youngs Moduli (GPa) = 53.37414 75.70215 132.45526
#
# Poissons Ratio (x) = -0.15139 0.24481
# Poissons Ratio (y) = -0.10674 0.64429
# Poissons Ratio (z) = 0.09865 0.36823
#
# Static dielectric constant tensor:
#      x y z
#    x 1.852570 0.000000 0.000000 
#    y 0.000000 1.796240 0.000000 
#    z 0.000000 0.000000 1.872950 
# 
# From -- ./inp_files/68925.got.cif
#   From: 2010.05.17/outbox.cif.g08.bks.cpg/sg65_35_cif.got.tgz:68925.got - 2010.06.03 17:01:31.
