data_PCOD9487386
_publ_section_title
;
Structure prediction by ZEFSAII (Michael W. Deem and Ramdas Pophale) SiO2 
 PCOD9487386
Probable space group: C M M M
;
_chemical_formula_sum "Si O2"
_cell_formula_units_Z 104
_cell_length_a 19.040886
_cell_length_b 17.399435
_cell_length_c 16.278821
_cell_angle_alpha 90.000000
_cell_angle_beta 90.000000
_cell_angle_gamma 90.000000
_cell_volume 5393.184114
_symmetry_space_group_name_H-M "C M M M"
_symmetry_group_IT_number 65
_symmetry_cell_setting 'orthorhombic'
loop_
_space_group_symop_operation_xyz
x,y,z
-x,-y,z
x,-y,-z
-x,y,-z
-x,-y,-z
x,y,-z
-x,y,z
x,-y,z
1/2+x,1/2+y,z
1/2-x,1/2-y,z
1/2+x,1/2-y,-z
1/2-x,1/2+y,-z
1/2-x,1/2-y,-z
1/2+x,1/2+y,-z
1/2-x,1/2+y,z
1/2+x,1/2-y,z
loop_
_atom_site_type_symbol
_atom_site_label
_atom_site_fract_x
_atom_site_fract_y
_atom_site_fract_z
Si Si1 0.179256 0.299532 0.907329
Si Si2 0.345870 0.133659 0.258739
Si Si3 0.500000 0.230874 0.590221
Si Si4 0.583716 0.662065 0.843017
Si Si5 0.749891 0.586719 0.594925
Si Si6 0.132797 0.198556 0.666446
Si Si7 0.000000 0.411920 0.712247
Si Si8 0.919844 0.000000 0.902948
O O1 0.250000 0.250000 0.908251
O O2 0.186236 0.360036 0.832474
O O3 0.119212 0.237501 0.882256
O O4 0.167049 0.329469 0.000000
O O5 0.308591 0.088491 0.333058
O O6 0.341885 0.220160 0.295962
O O7 0.425423 0.104324 0.244468
O O8 0.500000 0.200528 0.500000
O O9 0.431161 0.280644 0.607229
O O10 0.500000 0.156269 0.646624
O O11 0.500000 0.667507 0.856212
O O12 0.600851 0.658260 0.746645
O O13 0.612088 0.581675 0.878483
O O14 0.774130 0.602207 0.500000
O O15 0.720223 0.500000 0.594719
O O16 0.692345 0.649227 0.622438
O O17 0.000000 0.500000 0.683126
O O18 0.000000 0.000000 0.868258
O O19 0.924657 0.000000 0.000000
#
# Coordination Sequence:
#
# PCOD9487386 Si02
#       8
#    16  16   8  16  16  16   8   8
#     4  10  21  37  60  90 122 157 203 251 295 352
#     4  10  21  39  62  87 117 159 198 249 304 356
#     4  10  20  35  57  85 118 152 193 244 299 357
#     4  10  19  34  57  85 118 161 199 242 297 351
#     4  11  24  40  60  87 118 156 204 250 306 373
#     4  10  20  36  57  84 116 154 200 244 293 359
#     4  10  22  39  61  89 119 150 195 252 306 360
#     4   9  18  30  48  82 118 148 193 243 292 347
#
# _framework density 19.283598000000001
#
# number of rings (size 3 to 8) (size 9 to 14) (size 15 to 20)
#    0.000    1.923    0.769    3.692    4.308    4.769 
#    0.000    0.385    0.000    3.692    0.000    0.000 
#    0.000    0.000    0.000    0.000    0.000    0.000 
#
# Total GULP energy -289698.460358 kJ/mol
# GULP energy per Si atom -5571.124238 kJ/mol
# Density = 1.923971 g / cm^3
# Si number density = 19.283598 Si / 1000 Ang^3
#
#
#
# Elastic Constant Matrix: (Units=GPa)
#
#
# Indices 1 2 3 4 5 6 
#
# 1 66.0975 15.4702 32.8474 0.0000 0.0000 0.0000
# 2 15.4702 70.2483 10.1715 0.0000 0.0000 0.0000
# 3 32.8474 10.1715 93.2712 0.0000 0.0000 0.0000
# 4 0.0000 0.0000 0.0000 -169.0737 0.0000 0.0000
# 5 0.0000 0.0000 0.0000 0.0000 37.8515 0.0000
# 6 0.0000 0.0000 0.0000 0.0000 0.0000 20.7817
#
#
#
# Elastic Compliance Matrix: (Units=1/GPa)
#
#
# Indices 1 2 3 4 5 6 
#
# 1 0.019053 -0.003276 -0.006353 0.000000 0.000000 0.000000
# 2 -0.003276 0.015027 -0.000485 0.000000 0.000000 0.000000
# 3 -0.006353 -0.000485 0.013012 0.000000 0.000000 0.000000
# 4 0.000000 0.000000 0.000000 -0.005915 0.000000 0.000000
# 5 0.000000 0.000000 0.000000 0.000000 0.026419 0.000000
# 6 0.000000 0.000000 0.000000 0.000000 0.000000 0.048119
#
#
# Mechanical properties :
#
#
# Convention : Reuss Voigt Hill
#
# Bulk Modulus (GPa) = 37.22454 38.51057 37.86756
# Shear Modulus (GPa) = 34.50730 -10.67958 11.91386
#
# Velocity S-wave (km/s) = 4.23479 -2.35588 2.48830
# Velocity P-wave (km/s) = 6.57700 3.55158 5.28539
#
# Compressibility (1/GPa) = 0.02686400
#
# Stress axis : x y z
#
# Youngs Moduli (GPa) = 52.48557 66.54730 76.85506
#
# Poissons Ratio (x) = 0.21801 0.48823
# Poissons Ratio (y) = 0.17194 0.03727
# Poissons Ratio (z) = 0.33342 0.03228
#
# Static dielectric constant tensor:
#      x y z
#    x 1.754270 0.000000 0.000000 
#    y 0.000000 1.659280 0.000000 
#    z 0.000000 0.000000 1.695680 
# 
# From -- ./inp_files/44470.got.cif
#   From: 2010.05.17/outbox.cif.g08.bks.cpg/sg65_23_cif.got.tgz:44470.got - 2010.06.03 17:01:31.
