data_PCOD9487803
_publ_section_title
;
Structure prediction by ZEFSAII (Michael W. Deem and Ramdas Pophale) SiO2 
 PCOD9487803
Probable space group: C M M M
;
_chemical_formula_sum "Si O2"
_cell_formula_units_Z 80
_cell_length_a 28.262149
_cell_length_b 18.589961
_cell_length_c 7.467918
_cell_angle_alpha 90.000000
_cell_angle_beta 90.000000
_cell_angle_gamma 90.000000
_cell_volume 3923.586224
_symmetry_space_group_name_H-M "C M M M"
_symmetry_group_IT_number 65
_symmetry_cell_setting 'orthorhombic'
loop_
_space_group_symop_operation_xyz
x,y,z
-x,-y,z
x,-y,-z
-x,y,-z
-x,-y,-z
x,y,-z
-x,y,z
x,-y,z
1/2+x,1/2+y,z
1/2-x,1/2-y,z
1/2+x,1/2-y,-z
1/2-x,1/2+y,-z
1/2-x,1/2-y,-z
1/2+x,1/2+y,-z
1/2-x,1/2+y,z
1/2+x,1/2-y,z
loop_
_atom_site_type_symbol
_atom_site_label
_atom_site_fract_x
_atom_site_fract_y
_atom_site_fract_z
Si Si1 0.080223 0.578272 0.707551
Si Si2 0.684538 0.126068 0.783344
Si Si3 0.051200 0.263200 0.207433
Si Si4 0.652612 0.717133 0.218946
Si Si5 0.288388 0.579646 0.218762
O O1 0.066240 0.579541 0.500000
O O2 0.067027 0.500000 0.782707
O O3 0.137133 0.587068 0.718674
O O4 0.059268 0.650596 0.790400
O O5 0.680313 0.209977 0.731424
O O6 0.734216 0.093425 0.724971
O O7 0.682982 0.122495 0.000000
O O8 0.098748 0.227805 0.283595
O O9 0.000000 0.246938 0.288662
O O10 0.049634 0.241090 0.000000
O O11 0.678488 0.645009 0.278346
O O12 0.651803 0.716565 0.000000
O O13 0.303727 0.500000 0.274045
O O14 0.288341 0.581238 0.000000
#
# Coordination Sequence:
#
# PCOD9487803 Si02
#       5
#    16  16  16  16  16
#     4  10  20  31  43  63  92 120 142 170 213 259
#     4   9  16  27  44  64  87 118 153 180 202 240
#     4   9  18  32  49  65  80 107 148 186 217 253
#     4   8  14  25  41  61  86 113 142 180 219 252
#     4   9  15  22  38  66  93 115 143 179 216 253
#
# _framework density 20.389510000000001
#
# number of rings (size 3 to 8) (size 9 to 14) (size 15 to 20)
#    0.000    3.000    0.000    3.000    0.000    5.600 
#    0.000    2.000    0.000   10.200    0.000    4.200 
#    0.000    0.000    0.000    7.200    0.000    8.000 
#
# Total GULP energy -223201.733418 kJ/mol
# GULP energy per Si atom -5580.043335 kJ/mol
# Density = 2.034310 g / cm^3
# Si number density = 20.389510 Si / 1000 Ang^3
#
#
#
# Elastic Constant Matrix: (Units=GPa)
#
#
# Indices 1 2 3 4 5 6 
#
# 1 79.4545 25.8548 -3.4228 0.0000 0.0000 0.0000
# 2 25.8548 86.5372 -2.1261 0.0000 0.0000 0.0000
# 3 -3.4228 -2.1261 59.0618 0.0000 0.0000 0.0000
# 4 0.0000 0.0000 0.0000 30.5672 0.0000 0.0000
# 5 0.0000 0.0000 0.0000 0.0000 -35.1974 0.0000
# 6 0.0000 0.0000 0.0000 0.0000 0.0000 -1.3617
#
#
#
# Elastic Compliance Matrix: (Units=1/GPa)
#
#
# Indices 1 2 3 4 5 6 
#
# 1 0.013967 -0.004157 0.000660 0.000000 0.000000 0.000000
# 2 -0.004157 0.012803 0.000220 0.000000 0.000000 0.000000
# 3 0.000660 0.000220 0.016978 0.000000 0.000000 0.000000
# 4 0.000000 0.000000 0.000000 0.032715 0.000000 0.000000
# 5 0.000000 0.000000 0.000000 0.000000 -0.028411 0.000000
# 6 0.000000 0.000000 0.000000 0.000000 0.000000 -0.734385
#
#
# Mechanical properties :
#
#
# Convention : Reuss Voigt Hill
#
# Bulk Modulus (GPa) = 26.88630 29.51836 28.20233
# Shear Modulus (GPa) = -7.49196 12.45146 2.47975
#
# Velocity S-wave (km/s) = -1.91896 2.47387 1.10401
# Velocity P-wave (km/s) = 2.88186 4.76117 3.93534
#
# Compressibility (1/GPa) = 0.03719366
#
# Stress axis : x y z
#
# Youngs Moduli (GPa) = 71.59820 78.10661 58.90119
#
# Poissons Ratio (x) = 0.32466 -0.03886
# Poissons Ratio (y) = 0.29761 -0.01296
# Poissons Ratio (z) = -0.04724 -0.01718
#
# Static dielectric constant tensor:
#      x y z
#    x 1.730080 0.000000 0.000000 
#    y 0.000000 1.698700 0.000000 
#    z 0.000000 0.000000 1.788520 
# 
# From -- ./inp_files/9611.got.cif
#   From: 2010.05.17/outbox.cif.g08.bks.cpg/sg65_5_cif.got.tgz:9611.got - 2010.06.03 17:01:31.
