data_PCOD9487605
_publ_section_title
;
Structure prediction by ZEFSAII (Michael W. Deem and Ramdas Pophale) SiO2 
 PCOD9487605
Probable space group: C M M M
;
_chemical_formula_sum "Si O2"
_cell_formula_units_Z 66
_cell_length_a 8.905756
_cell_length_b 31.606778
_cell_length_c 11.911188
_cell_angle_alpha 90.000000
_cell_angle_beta 90.000000
_cell_angle_gamma 90.000000
_cell_volume 3352.788032
_symmetry_space_group_name_H-M "C M M M"
_symmetry_group_IT_number 65
_symmetry_cell_setting 'orthorhombic'
loop_
_space_group_symop_operation_xyz
x,y,z
-x,-y,z
x,-y,-z
-x,y,-z
-x,-y,-z
x,y,-z
-x,y,z
x,-y,z
1/2+x,1/2+y,z
1/2-x,1/2-y,z
1/2+x,1/2-y,-z
1/2-x,1/2+y,-z
1/2-x,1/2-y,-z
1/2+x,1/2+y,-z
1/2-x,1/2+y,z
1/2+x,1/2-y,z
loop_
_atom_site_type_symbol
_atom_site_label
_atom_site_fract_x
_atom_site_fract_y
_atom_site_fract_z
Si Si1 0.229786 0.066859 0.500000
Si Si2 0.500000 0.000000 0.500000
Si Si3 0.169831 0.046247 0.752099
Si Si4 0.180044 0.295418 0.273757
Si Si5 0.177974 0.130803 0.866235
Si Si6 0.317665 0.665946 0.500000
O O1 0.158251 0.055005 0.619463
O O2 0.241383 0.117618 0.500000
O O3 0.373594 0.037368 0.500000
O O4 0.238115 0.087294 0.810835
O O5 0.000000 0.043847 0.797554
O O6 0.242444 0.000000 0.768984
O O7 0.250000 0.250000 0.245096
O O8 0.230652 0.330044 0.182816
O O9 0.254268 0.310759 0.390524
O O10 0.000000 0.293089 0.283570
O O11 0.000000 0.135573 0.834837
O O12 0.186894 0.128384 0.000000
O O13 0.500000 0.665066 0.500000
#
# Coordination Sequence:
#
# PCOD9487605 Si02
#       6
#     8   2  16  16  16   8
#     4  12  22  36  58  90 131 174 211 261 314 382
#     4  12  28  36  54  96 146 176 222 256 324 386
#     4  10  19  35  60  91 124 165 212 263 318 377
#     4  12  26  44  68  97 132 170 213 267 332 398
#     4  10  22  41  65  94 129 172 223 275 326 385
#     4  12  24  42  70 101 135 171 215 263 327 397
#
# _framework density 19.685110999999999
#
# number of rings (size 3 to 8) (size 9 to 14) (size 15 to 20)
#    0.000    0.970    3.636    4.000    1.697    2.424 
#    0.000    2.424    0.000    0.000    0.000    2.545 
#    0.000    0.000    0.000    0.000    0.000    0.000 
#
# Total GULP energy -183942.551558 kJ/mol
# GULP energy per Si atom -5574.016714 kJ/mol
# Density = 1.964031 g / cm^3
# Si number density = 19.685111 Si / 1000 Ang^3
#
#
#
# Elastic Constant Matrix: (Units=GPa)
#
#
# Indices 1 2 3 4 5 6 
#
# 1 102.4532 59.7675 38.7088 0.0000 0.0000 0.0000
# 2 59.7675 216.7249 56.4382 0.0000 0.0000 0.0000
# 3 38.7088 56.4382 79.1854 0.0000 0.0000 0.0000
# 4 0.0000 0.0000 0.0000-1299.6511 0.0000 0.0000
# 5 0.0000 0.0000 0.0000 0.0000 15.2313 0.0000
# 6 0.0000 0.0000 0.0000 0.0000 0.0000 26.9639
#
#
#
# Elastic Compliance Matrix: (Units=1/GPa)
#
#
# Indices 1 2 3 4 5 6 
#
# 1 0.012876 -0.002347 -0.004621 0.000000 0.000000 0.000000
# 2 -0.002347 0.006094 -0.003196 0.000000 0.000000 0.000000
# 3 -0.004621 -0.003196 0.017165 0.000000 0.000000 0.000000
# 4 0.000000 0.000000 0.000000 -0.000769 0.000000 0.000000
# 5 0.000000 0.000000 0.000000 0.000000 0.065654 0.000000
# 6 0.000000 0.000000 0.000000 0.000000 0.000000 0.037087
#
#
# Mechanical properties :
#
#
# Convention : Reuss Voigt Hill
#
# Bulk Modulus (GPa) = 63.26566 78.68806 70.97686
# Shear Modulus (GPa) = 30.54298 -235.26126 -102.35914
#
# Velocity S-wave (km/s) = 3.94328 -10.94403 -7.21880
# Velocity P-wave (km/s) = 7.27607 10.93780 5.77470
#
# Compressibility (1/GPa) = 0.01580636
#
# Stress axis : x y z
#
# Youngs Moduli (GPa) = 77.66423 164.10340 58.25723
#
# Poissons Ratio (x) = 0.38523 0.26921
# Poissons Ratio (y) = 0.18231 0.18617
# Poissons Ratio (z) = 0.35890 0.52442
#
# Static dielectric constant tensor:
#      x y z
#    x 1.702140 0.000000 0.000000 
#    y 0.000000 1.708020 0.000000 
#    z 0.000000 0.000000 1.673490 
# 
# From -- ./inp_files/21117.got.cif
#   From: 2010.05.17/outbox.cif.g08.bks.cpg/sg65_11_cif.got.tgz:21117.got - 2010.06.03 17:01:31.
