data_PCOD9487626
_publ_section_title
;
Structure prediction by ZEFSAII (Michael W. Deem and Ramdas Pophale) SiO2 
 PCOD9487626
Probable space group: C M M M
;
_chemical_formula_sum "Si O2"
_cell_formula_units_Z 90
_cell_length_a 7.718378
_cell_length_b 24.798675
_cell_length_c 24.335863
_cell_angle_alpha 90.000000
_cell_angle_beta 90.000000
_cell_angle_gamma 90.000000
_cell_volume 4658.019183
_symmetry_space_group_name_H-M "C M M M"
_symmetry_group_IT_number 65
_symmetry_cell_setting 'orthorhombic'
loop_
_space_group_symop_operation_xyz
x,y,z
-x,-y,z
x,-y,-z
-x,y,-z
-x,-y,-z
x,y,-z
-x,y,z
x,-y,z
1/2+x,1/2+y,z
1/2-x,1/2-y,z
1/2+x,1/2-y,-z
1/2-x,1/2+y,-z
1/2-x,1/2-y,-z
1/2+x,1/2+y,-z
1/2-x,1/2+y,z
1/2+x,1/2-y,z
loop_
_atom_site_type_symbol
_atom_site_label
_atom_site_fract_x
_atom_site_fract_y
_atom_site_fract_z
Si Si1 0.500000 0.563715 0.792362
Si Si2 0.000000 0.104070 0.082070
Si Si3 0.792506 0.189306 0.339427
Si Si4 0.305347 0.140686 0.773924
Si Si5 0.000000 0.000000 0.000000
Si Si6 0.204386 0.687233 0.105357
Si Si7 0.304096 0.000000 0.566347
Si Si8 0.202036 0.882185 0.562004
O O1 0.500000 0.500000 0.785745
O O2 0.500000 0.581448 0.856016
O O3 0.669299 0.592498 0.768302
O O4 0.000000 0.049579 0.046408
O O5 0.167426 0.144011 0.076143
O O6 0.750000 0.250000 0.353994
O O7 0.711039 0.175835 0.280648
O O8 0.722417 0.152857 0.389052
O O9 0.000000 0.181642 0.333996
O O10 0.500000 0.119747 0.779968
O O11 0.268587 0.175214 0.829262
O O12 0.250000 0.750000 0.093991
O O13 0.000000 0.678521 0.093058
O O14 0.214239 0.055716 0.580281
O O15 0.500000 0.000000 0.587327
O O16 0.309267 0.000000 0.500000
O O17 0.276684 0.876605 0.500000
O O18 0.000000 0.867613 0.557763
#
# Coordination Sequence:
#
# PCOD9487626 Si02
#       8
#     8   8  16  16   2  16   8  16
#     4  10  20  40  64  90 127 166 206 253 290 359
#     4  10  22  40  66  96 132 173 217 262 311 368
#     4  11  22  36  54  79 114 149 188 241 303 369
#     4  10  21  36  58  90 124 159 200 247 315 370
#     4  12  24  48  70  92 132 194 224 254 320 372
#     4  10  19  35  64  98 128 162 212 267 323 377
#     4   9  17  31  53  76  95 119 165 226 276 325
#     4   9  19  36  55  74 101 143 190 233 286 355
#
# _framework density 19.321518999999999
#
# number of rings (size 3 to 8) (size 9 to 14) (size 15 to 20)
#    0.000    2.044    2.222    1.333    0.000    4.622 
#    1.600    1.778    0.000    0.000    0.000    0.000 
#    0.000    0.000    0.000    0.000    0.000    0.000 
#
# Total GULP energy -250645.259182 kJ/mol
# GULP energy per Si atom -5569.894648 kJ/mol
# Density = 1.927754 g / cm^3
# Si number density = 19.321519 Si / 1000 Ang^3
#
#
#
# Elastic Constant Matrix: (Units=GPa)
#
#
# Indices 1 2 3 4 5 6 
#
# 1 91.9941 40.6595 15.5340 0.0000 0.0000 0.0000
# 2 40.6595 160.9334 41.9829 0.0000 0.0000 0.0000
# 3 15.5340 41.9829 61.2450 0.0000 0.0000 0.0000
# 4 0.0000 0.0000 0.0000 31.6130 0.0000 0.0000
# 5 0.0000 0.0000 0.0000 0.0000 -5.5271 0.0000
# 6 0.0000 0.0000 0.0000 0.0000 0.0000 1.3136
#
#
#
# Elastic Compliance Matrix: (Units=1/GPa)
#
#
# Indices 1 2 3 4 5 6 
#
# 1 0.012309 -0.002795 -0.001206 0.000000 0.000000 0.000000
# 2 -0.002795 0.008202 -0.004913 0.000000 0.000000 0.000000
# 3 -0.001206 -0.004913 0.020002 0.000000 0.000000 0.000000
# 4 0.000000 0.000000 0.000000 0.031633 0.000000 0.000000
# 5 0.000000 0.000000 0.000000 0.000000 -0.180926 0.000000
# 6 0.000000 0.000000 0.000000 0.000000 0.000000 0.761280
#
#
# Mechanical properties :
#
#
# Convention : Reuss Voigt Hill
#
# Bulk Modulus (GPa) = 44.08430 56.72505 50.40467
# Shear Modulus (GPa) = 7.37583 19.87964 13.62774
#
# Velocity S-wave (km/s) = 1.95594 3.21111 2.65866
# Velocity P-wave (km/s) = 5.28835 6.57042 5.96394
#
# Compressibility (1/GPa) = 0.02268382
#
# Stress axis : x y z
#
# Youngs Moduli (GPa) = 81.23889 121.92601 49.99584
#
# Poissons Ratio (x) = 0.34083 0.06029
# Poissons Ratio (y) = 0.22709 0.24564
# Poissons Ratio (z) = 0.09797 0.59905
#
# Static dielectric constant tensor:
#      x y z
#    x 1.713050 0.000000 0.000000 
#    y 0.000000 1.638940 0.000000 
#    z 0.000000 0.000000 1.683530 
# 
# From -- ./inp_files/67709.got.cif
#   From: 2010.05.17/outbox.cif.g08.bks.cpg/sg65_34_cif.got.tgz:67709.got - 2010.06.03 17:01:31.
