data_PCOD9487799
_publ_section_title
;
Structure prediction by ZEFSAII (Michael W. Deem and Ramdas Pophale) SiO2 
 PCOD9487799
Probable space group: C M M M
;
_chemical_formula_sum "Si O2"
_cell_formula_units_Z 96
_cell_length_a 28.038025
_cell_length_b 8.411084
_cell_length_c 25.127007
_cell_angle_alpha 90.000000
_cell_angle_beta 90.000000
_cell_angle_gamma 90.000000
_cell_volume 5925.706671
_symmetry_space_group_name_H-M "C M M M"
_symmetry_group_IT_number 65
_symmetry_cell_setting 'orthorhombic'
loop_
_space_group_symop_operation_xyz
x,y,z
-x,-y,z
x,-y,-z
-x,y,-z
-x,-y,-z
x,y,-z
-x,y,z
x,-y,z
1/2+x,1/2+y,z
1/2-x,1/2-y,z
1/2+x,1/2-y,-z
1/2-x,1/2+y,-z
1/2-x,1/2-y,-z
1/2+x,1/2+y,-z
1/2-x,1/2+y,z
1/2+x,1/2-y,z
loop_
_atom_site_type_symbol
_atom_site_label
_atom_site_fract_x
_atom_site_fract_y
_atom_site_fract_z
Si Si1 0.057628 0.810439 0.442769
Si Si2 0.898832 0.690472 0.219071
Si Si3 0.444310 0.307440 0.673413
Si Si4 0.698370 0.810439 0.835205
Si Si5 0.349556 0.307640 0.059779
Si Si6 0.947108 0.191666 0.113808
O O1 0.074478 0.744159 0.500000
O O2 0.073333 0.749726 0.384890
O O3 0.000000 0.795304 0.442198
O O4 0.067506 0.000000 0.443470
O O5 0.900504 0.500000 0.216646
O O6 0.914383 0.746621 0.277011
O O7 0.845719 0.744166 0.201739
O O8 0.934059 0.757670 0.173762
O O9 0.500000 0.260454 0.679922
O O10 0.443325 0.500000 0.672967
O O11 0.750000 0.750000 0.818561
O O12 0.685725 0.752707 0.894711
O O13 0.698657 0.000000 0.835033
O O14 0.348852 0.500000 0.060661
O O15 0.403006 0.254951 0.077049
O O16 0.338353 0.254567 0.000000
O O17 0.000000 0.248976 0.098960
O O18 0.947624 0.000000 0.111625
#
# Coordination Sequence:
#
# PCOD9487799 Si02
#       6
#    16  16  16  16  16  16
#     4   7  10  18  33  54  81 113 149 185 212 232
#     4  10  20  31  43  62  87 112 140 175 214 257
#     4   9  16  25  40  63  89 119 153 182 207 239
#     4  10  21  36  52  67  83 106 136 172 216 262
#     4   9  18  32  49  69  91 113 138 169 206 249
#     4   9  17  29  45  64  87 116 147 176 204 237
#
# _framework density 16.200600000000001
#
# number of rings (size 3 to 8) (size 9 to 14) (size 15 to 20)
#    0.000    3.000    0.000    3.000    0.000    5.667 
#    0.000    1.667    0.000    0.500    0.000    7.000 
#    0.000    0.667    0.000    1.500    0.000    2.333 
#
# Total GULP energy -267297.655430 kJ/mol
# GULP energy per Si atom -5568.701155 kJ/mol
# Density = 1.616373 g / cm^3
# Si number density = 16.200600 Si / 1000 Ang^3
#
#
#
# Elastic Constant Matrix: (Units=GPa)
#
#
# Indices 1 2 3 4 5 6 
#
# 1 59.9748 8.1749 16.7492 0.0000 0.0000 0.0000
# 2 8.1749 5.6960 6.0850 0.0000 0.0000 0.0000
# 3 16.7492 6.0850 108.5791 0.0000 0.0000 0.0000
# 4 0.0000 0.0000 0.0000 -1.2012 0.0000 0.0000
# 5 0.0000 0.0000 0.0000 0.0000 9.9055 0.0000
# 6 0.0000 0.0000 0.0000 0.0000 0.0000 17.1052
#
#
#
# Elastic Compliance Matrix: (Units=1/GPa)
#
#
# Indices 1 2 3 4 5 6 
#
# 1 0.021003 -0.028381 -0.001649 0.000000 0.000000 0.000000
# 2 -0.028381 0.225093 -0.008237 0.000000 0.000000 0.000000
# 3 -0.001649 -0.008237 0.009926 0.000000 0.000000 0.000000
# 4 0.000000 0.000000 0.000000 -0.832507 0.000000 0.000000
# 5 0.000000 0.000000 0.000000 0.000000 0.100954 0.000000
# 6 0.000000 0.000000 0.000000 0.000000 0.000000 0.058462
#
#
# Mechanical properties :
#
#
# Convention : Reuss Voigt Hill
#
# Bulk Modulus (GPa) = 5.57143 26.25202 15.91172
# Shear Modulus (GPa) = -17.81215 14.71130 -1.55042
#
# Velocity S-wave (km/s) = -3.31943 3.01669 -0.97933
# Velocity P-wave (km/s) = 3.35336 5.32667 2.92647
#
# Compressibility (1/GPa) = 0.17948724
#
# Stress axis : x y z
#
# Youngs Moduli (GPa) = 47.61277 4.44262 100.74658
#
# Poissons Ratio (x) = 0.12609 0.16616
# Poissons Ratio (y) = 1.35130 0.82981
# Poissons Ratio (z) = 0.07853 0.03659
#
# Static dielectric constant tensor:
#      x y z
#    x 1.537120 0.000000 0.000000 
#    y 0.000000 1.555620 0.000000 
#    z 0.000000 0.000000 1.566540 
# 
# From -- ./inp_files/68072.got.cif
#   From: 2010.05.17/outbox.cif.g08.bks.cpg/sg65_35_cif.got.tgz:68072.got - 2010.06.03 17:01:31.
