data_PCOD9487119
_publ_section_title
;
Structure prediction by ZEFSAII (Michael W. Deem and Ramdas Pophale) SiO2 
 PCOD9487119
Probable space group: C M M M
;
_chemical_formula_sum "Si O2"
_cell_formula_units_Z 88
_cell_length_a 15.776762
_cell_length_b 11.091017
_cell_length_c 24.314324
_cell_angle_alpha 90.000000
_cell_angle_beta 90.000000
_cell_angle_gamma 90.000000
_cell_volume 4254.528572
_symmetry_space_group_name_H-M "C M M M"
_symmetry_group_IT_number 65
_symmetry_cell_setting 'orthorhombic'
loop_
_space_group_symop_operation_xyz
x,y,z
-x,-y,z
x,-y,-z
-x,y,-z
-x,-y,-z
x,y,-z
-x,y,z
x,-y,z
1/2+x,1/2+y,z
1/2-x,1/2-y,z
1/2+x,1/2-y,-z
1/2-x,1/2+y,-z
1/2-x,1/2-y,-z
1/2+x,1/2+y,-z
1/2-x,1/2+y,z
1/2+x,1/2-y,z
loop_
_atom_site_type_symbol
_atom_site_label
_atom_site_fract_x
_atom_site_fract_y
_atom_site_fract_z
Si Si1 0.397568 0.743537 0.392134
Si Si2 0.601946 0.746313 0.168701
Si Si3 0.682369 0.640486 0.939173
Si Si4 0.896855 0.500000 0.348708
Si Si5 0.816270 0.859666 0.500000
Si Si6 0.903304 0.141256 0.279981
Si Si7 0.396669 0.000000 0.218014
O O1 0.500000 0.739342 0.392826
O O2 0.371642 0.882815 0.383957
O O3 0.368037 0.669691 0.444645
O O4 0.363116 0.686108 0.335815
O O5 0.500000 0.745489 0.168149
O O6 0.628662 0.679586 0.113455
O O7 0.635713 0.676487 0.222247
O O8 0.629319 0.882928 0.182766
O O9 0.712391 0.500000 0.932804
O O10 0.750000 0.750000 0.940691
O O11 0.640162 0.643857 0.000000
O O12 0.869510 0.500000 0.283358
O O13 0.000000 0.500000 0.345778
O O14 0.750000 0.750000 0.500000
O O15 0.788446 0.000000 0.500000
O O16 0.000000 0.193544 0.279498
O O17 0.909780 0.000000 0.282841
O O18 0.500000 0.000000 0.220497
#
# Coordination Sequence:
#
# PCOD9487119 Si02
#       7
#    16  16  16   8   8  16   8
#     4  10  20  37  65  92 117 151 199 247 289 344
#     4  10  19  33  58  91 122 154 191 240 297 351
#     4  10  23  42  61  82 114 158 204 249 296 350
#     4   9  16  31  60  96 124 151 187 237 296 349
#     4  12  29  47  62  84 120 161 198 245 303 357
#     4   9  16  28  52  86 118 145 182 239 297 345
#     4   9  16  30  54  92 132 156 180 230 300 357
#
# _framework density 20.683843
#
# number of rings (size 3 to 8) (size 9 to 14) (size 15 to 20)
#    0.000    2.182    1.818    1.364    2.545    2.909 
#    0.000    3.182    0.000    1.636    0.000    0.000 
#    0.000    0.000    0.000    0.000    0.000    0.000 
#
# Total GULP energy -245007.661311 kJ/mol
# GULP energy per Si atom -5568.355939 kJ/mol
# Density = 2.063677 g / cm^3
# Si number density = 20.683843 Si / 1000 Ang^3
#
#
#
# Elastic Constant Matrix: (Units=GPa)
#
#
# Indices 1 2 3 4 5 6 
#
# 1 12.1741 21.5787 18.7212 0.0000 0.0000 0.0000
# 2 21.5787 155.1493 69.6644 0.0000 0.0000 0.0000
# 3 18.7212 69.6644 164.8191 0.0000 0.0000 0.0000
# 4 0.0000 0.0000 0.0000 40.2775 0.0000 0.0000
# 5 0.0000 0.0000 0.0000 0.0000 38.1082 0.0000
# 6 0.0000 0.0000 0.0000 0.0000 0.0000 16.4839
#
#
#
# Elastic Compliance Matrix: (Units=1/GPa)
#
#
# Indices 1 2 3 4 5 6 
#
# 1 0.116796 -0.012697 -0.007900 0.000000 0.000000 0.000000
# 2 -0.012697 0.009336 -0.002504 0.000000 0.000000 0.000000
# 3 -0.007900 -0.002504 0.008023 0.000000 0.000000 0.000000
# 4 0.000000 0.000000 0.000000 0.024828 0.000000 0.000000
# 5 0.000000 0.000000 0.000000 0.000000 0.026241 0.000000
# 6 0.000000 0.000000 0.000000 0.000000 0.000000 0.060665
#
#
# Mechanical properties :
#
#
# Convention : Reuss Voigt Hill
#
# Bulk Modulus (GPa) = 11.36968 61.34123 36.35545
# Shear Modulus (GPa) = 15.55658 33.78581 24.67120
#
# Velocity S-wave (km/s) = 2.74544 4.04597 3.45741
# Velocity P-wave (km/s) = 3.94446 7.17966 5.79250
#
# Compressibility (1/GPa) = 0.08795325
#
# Stress axis : x y z
#
# Youngs Moduli (GPa) = 8.56193 107.11721 124.64532
#
# Poissons Ratio (x) = 1.36010 0.98465
# Poissons Ratio (y) = 0.10871 0.31207
# Poissons Ratio (z) = 0.06764 0.26818
#
# Static dielectric constant tensor:
#      x y z
#    x 1.802500 0.000000 0.000000 
#    y 0.000000 1.772130 0.000000 
#    z 0.000000 0.000000 1.772660 
# 
# From -- ./inp_files/63673.got.cif
#   From: 2010.05.17/outbox.cif.g08.bks.cpg/sg65_32_cif.got.tgz:63673.got - 2010.06.03 17:01:31.
