data_PCOD9487200
_publ_section_title
;
Structure prediction by ZEFSAII (Michael W. Deem and Ramdas Pophale) SiO2 
 PCOD9487200
Probable space group: C M M M
;
_chemical_formula_sum "Si O2"
_cell_formula_units_Z 120
_cell_length_a 7.690795
_cell_length_b 28.547416
_cell_length_c 27.370956
_cell_angle_alpha 90.000000
_cell_angle_beta 90.000000
_cell_angle_gamma 90.000000
_cell_volume 6009.357006
_symmetry_space_group_name_H-M "C M M M"
_symmetry_group_IT_number 65
_symmetry_cell_setting 'orthorhombic'
loop_
_space_group_symop_operation_xyz
x,y,z
-x,-y,z
x,-y,-z
-x,y,-z
-x,-y,-z
x,y,-z
-x,y,z
x,-y,z
1/2+x,1/2+y,z
1/2-x,1/2-y,z
1/2+x,1/2-y,-z
1/2-x,1/2+y,-z
1/2-x,1/2-y,-z
1/2+x,1/2+y,-z
1/2-x,1/2+y,z
1/2+x,1/2-y,z
loop_
_atom_site_type_symbol
_atom_site_label
_atom_site_fract_x
_atom_site_fract_y
_atom_site_fract_z
Si Si1 0.705959 0.895038 0.600480
Si Si2 0.705344 0.851270 0.053867
Si Si3 0.206557 0.052756 0.896273
Si Si4 0.708932 0.802340 0.444127
Si Si5 0.209897 0.396336 0.796114
Si Si6 0.708674 0.553544 0.500000
Si Si7 0.709110 0.196313 0.151843
Si Si8 0.713407 0.053960 0.697557
O O1 0.500000 0.890519 0.609391
O O2 0.777596 0.843124 0.590566
O O3 0.729251 0.921793 0.549359
O O4 0.775357 0.923000 0.646939
O O5 0.500000 0.841161 0.051330
O O6 0.722622 0.905577 0.069840
O O7 0.776619 0.819787 0.098304
O O8 0.780812 0.843496 0.000000
O O9 0.242251 0.069399 0.840814
O O10 0.000000 0.051862 0.903622
O O11 0.274228 0.000000 0.904610
O O12 0.774816 0.808170 0.500000
O O13 0.500000 0.806849 0.446499
O O14 0.750000 0.750000 0.427951
O O15 0.270797 0.344058 0.810740
O O16 0.271260 0.416534 0.744612
O O17 0.000000 0.395143 0.794172
O O18 0.768389 0.500000 0.500000
O O19 0.500000 0.554673 0.500000
O O20 0.500000 0.192469 0.150595
O O21 0.750000 0.250000 0.163110
O O22 0.500000 0.053768 0.697487
O O23 0.768034 0.000000 0.701128
#
# Coordination Sequence:
#
# PCOD9487200 Si02
#       8
#    16  16  16  16  16   8  16  16
#     4  10  19  34  54  77 102 130 170 214 252 296
#     4   9  19  35  52  72 100 134 173 212 250 298
#     4  10  20  32  48  73 103 134 169 209 255 303
#     4   9  17  30  48  71  97 128 165 203 245 291
#     4   9  18  34  54  75  99 129 169 212 252 299
#     4  11  23  35  48  71 104 139 170 201 246 305
#     4   9  18  32  51  74 100 131 166 207 252 298
#     4   9  17  30  53  81 102 126 165 212 256 295
#
# _framework density 19.968857
#
# number of rings (size 3 to 8) (size 9 to 14) (size 15 to 20)
#    0.000    2.600    0.667    2.200    0.000    6.133 
#    0.000    2.667    0.000    2.400    0.000    0.000 
#    0.000    0.000    0.000    0.000    0.000    0.000 
#
# Total GULP energy -334722.522764 kJ/mol
# GULP energy per Si atom -5578.708713 kJ/mol
# Density = 1.992341 g / cm^3
# Si number density = 19.968857 Si / 1000 Ang^3
#
#
#
# Elastic Constant Matrix: (Units=GPa)
#
#
# Indices 1 2 3 4 5 6 
#
# 1 30.9895 1.8361 3.9603 0.0000 0.0000 0.0000
# 2 1.8361 151.6854 61.2805 0.0000 0.0000 0.0000
# 3 3.9603 61.2805 124.5835 0.0000 0.0000 0.0000
# 4 0.0000 0.0000 0.0000 2.4850 0.0000 0.0000
# 5 0.0000 0.0000 0.0000 0.0000 -25.1152 0.0000
# 6 0.0000 0.0000 0.0000 0.0000 0.0000 21.8534
#
#
#
# Elastic Compliance Matrix: (Units=1/GPa)
#
#
# Indices 1 2 3 4 5 6 
#
# 1 0.032401 0.000030 -0.001045 0.000000 0.000000 0.000000
# 2 0.000030 0.008228 -0.004048 0.000000 0.000000 0.000000
# 3 -0.001045 -0.004048 0.010051 0.000000 0.000000 0.000000
# 4 0.000000 0.000000 0.000000 0.402414 0.000000 0.000000
# 5 0.000000 0.000000 0.000000 0.000000 -0.039817 0.000000
# 6 0.000000 0.000000 0.000000 0.000000 0.000000 0.045759
#
#
# Mechanical properties :
#
#
# Convention : Reuss Voigt Hill
#
# Bulk Modulus (GPa) = 24.65857 49.04579 36.85218
# Shear Modulus (GPa) = 10.35883 15.85675 13.10779
#
# Velocity S-wave (km/s) = 2.28008 2.82099 2.56483
# Velocity P-wave (km/s) = 4.39397 5.93507 5.22169
#
# Compressibility (1/GPa) = 0.04055386
#
# Stress axis : x y z
#
# Youngs Moduli (GPa) = 30.86353 121.54216 99.49177
#
# Poissons Ratio (x) = -0.00363 0.10393
# Poissons Ratio (y) = -0.00092 0.40274
# Poissons Ratio (z) = 0.03224 0.49200
#
# Static dielectric constant tensor:
#      x y z
#    x 1.715500 0.000000 0.000000 
#    y 0.000000 1.708570 0.000000 
#    z 0.000000 0.000000 1.728080 
# 
# From -- ./inp_files/74018.got.cif
#   From: 2010.05.17/outbox.cif.g08.bks.cpg/sg65_38_cif.got.tgz:74018.got - 2010.06.03 17:01:31.
