data_PCOD9487966
_publ_section_title
;
Structure prediction by ZEFSAII (Michael W. Deem and Ramdas Pophale) SiO2 
 PCOD9487966
Probable space group: C M M M
;
_chemical_formula_sum "Si O2"
_cell_formula_units_Z 104
_cell_length_a 20.803109
_cell_length_b 24.462634
_cell_length_c 9.974796
_cell_angle_alpha 90.000000
_cell_angle_beta 90.000000
_cell_angle_gamma 90.000000
_cell_volume 5076.162129
_symmetry_space_group_name_H-M "C M M M"
_symmetry_group_IT_number 65
_symmetry_cell_setting 'orthorhombic'
loop_
_space_group_symop_operation_xyz
x,y,z
-x,-y,z
x,-y,-z
-x,y,-z
-x,-y,-z
x,y,-z
-x,y,z
x,-y,z
1/2+x,1/2+y,z
1/2-x,1/2-y,z
1/2+x,1/2-y,-z
1/2-x,1/2+y,-z
1/2-x,1/2-y,-z
1/2+x,1/2+y,-z
1/2-x,1/2+y,z
1/2+x,1/2-y,z
loop_
_atom_site_type_symbol
_atom_site_label
_atom_site_fract_x
_atom_site_fract_y
_atom_site_fract_z
Si Si1 0.756524 0.060357 0.344475
Si Si2 0.423171 0.380781 0.348276
Si Si3 0.260426 0.657835 0.151428
Si Si4 0.885497 0.782758 0.842220
Si Si5 0.926689 0.000000 0.337096
Si Si6 0.394435 0.838089 0.843728
Si Si7 0.399868 0.061949 0.655056
O O1 0.775445 0.063957 0.500000
O O2 0.777730 0.112025 0.259329
O O3 0.678187 0.061601 0.342899
O O4 0.774313 0.000000 0.293327
O O5 0.400232 0.368318 0.500000
O O6 0.500000 0.387475 0.357667
O O7 0.411166 0.331917 0.246728
O O8 0.398555 0.440743 0.302717
O O9 0.307807 0.709321 0.169303
O O10 0.183820 0.664922 0.160766
O O11 0.273128 0.637673 0.000000
O O12 0.911888 0.723482 0.800117
O O13 0.900809 0.788813 0.000000
O O14 0.928459 0.000000 0.500000
O O15 0.000000 0.000000 0.285545
O O16 0.418212 0.888061 0.752207
O O17 0.412311 0.846161 0.000000
O O18 0.419367 0.070876 0.500000
O O19 0.420200 0.000000 0.694302
#
# Coordination Sequence:
#
# PCOD9487966 Si02
#       7
#    16  16  16  16   8  16  16
#     4   8  14  25  39  55  78 109 146 188 230 265
#     4   9  18  34  55  74  91 115 151 194 238 287
#     4   9  17  29  43  59  84 121 158 189 223 266
#     4  10  20  32  45  66  94 121 151 189 232 275
#     4   7  12  28  53  73  87 109 145 189 235 281
#     4   9  17  29  45  63  88 124 161 191 221 265
#     4   8  14  25  41  61  85 113 147 189 230 260
#
# _framework density 20.487919999999999
#
# number of rings (size 3 to 8) (size 9 to 14) (size 15 to 20)
#    0.000    3.308    0.000    2.308    0.000    4.000 
#    1.385    3.462    0.000    6.000    0.000    0.000 
#    0.000    0.615    0.000    6.769    0.000    5.231 
#
# Total GULP energy -289805.726579 kJ/mol
# GULP energy per Si atom -5573.187050 kJ/mol
# Density = 2.044129 g / cm^3
# Si number density = 20.487920 Si / 1000 Ang^3
#
#
#
# Elastic Constant Matrix: (Units=GPa)
#
#
# Indices 1 2 3 4 5 6 
#
# 1 42.9543 7.3250 2.7612 0.0000 0.0000 0.0000
# 2 7.3250 208.7836 98.6704 0.0000 0.0000 0.0000
# 3 2.7612 98.6704 71.1799 0.0000 0.0000 0.0000
# 4 0.0000 0.0000 0.0000 39.4430 0.0000 0.0000
# 5 0.0000 0.0000 0.0000 0.0000 -0.8722 0.0000
# 6 0.0000 0.0000 0.0000 0.0000 0.0000 15.6892
#
#
#
# Elastic Compliance Matrix: (Units=1/GPa)
#
#
# Indices 1 2 3 4 5 6 
#
# 1 0.023432 -0.001138 0.000669 0.000000 0.000000 0.000000
# 2 -0.001138 0.013943 -0.019284 0.000000 0.000000 0.000000
# 3 0.000669 -0.019284 0.040755 0.000000 0.000000 0.000000
# 4 0.000000 0.000000 0.000000 0.025353 0.000000 0.000000
# 5 0.000000 0.000000 0.000000 0.000000 -1.146499 0.000000
# 6 0.000000 0.000000 0.000000 0.000000 0.000000 0.063738
#
#
# Mechanical properties :
#
#
# Convention : Reuss Voigt Hill
#
# Bulk Modulus (GPa) = 25.89156 60.04790 42.96973
# Shear Modulus (GPa) = -5.39434 25.12941 9.86754
#
# Velocity S-wave (km/s) = -1.62439 3.50601 2.19698
# Velocity P-wave (km/s) = 3.02435 6.76476 5.23969
#
# Compressibility (1/GPa) = 0.03862262
#
# Stress axis : x y z
#
# Youngs Moduli (GPa) = 42.67736 71.72005 24.53711
#
# Poissons Ratio (x) = 0.08162 -0.01641
# Poissons Ratio (y) = 0.04857 0.47317
# Poissons Ratio (z) = -0.02854 1.38305
#
# Static dielectric constant tensor:
#      x y z
#    x 1.841520 0.000000 0.000000 
#    y 0.000000 1.727800 0.000000 
#    z 0.000000 0.000000 1.673180 
# 
# From -- ./inp_files/16732.got.cif
#   From: 2010.05.17/outbox.cif.g08.bks.cpg/sg65_9_cif.got.tgz:16732.got - 2010.06.03 17:01:31.
