data_PCOD9487748
_publ_section_title
;
Structure prediction by ZEFSAII (Michael W. Deem and Ramdas Pophale) SiO2 
 PCOD9487748
Probable space group: C M M M
;
_chemical_formula_sum "Si O2"
_cell_formula_units_Z 72
_cell_length_a 14.285724
_cell_length_b 13.996440
_cell_length_c 13.189204
_cell_angle_alpha 90.000000
_cell_angle_beta 90.000000
_cell_angle_gamma 90.000000
_cell_volume 2637.171828
_symmetry_space_group_name_H-M "C M M M"
_symmetry_group_IT_number 65
_symmetry_cell_setting 'orthorhombic'
loop_
_space_group_symop_operation_xyz
x,y,z
-x,-y,z
x,-y,-z
-x,y,-z
-x,-y,-z
x,y,-z
-x,y,z
x,-y,z
1/2+x,1/2+y,z
1/2-x,1/2-y,z
1/2+x,1/2-y,-z
1/2-x,1/2+y,-z
1/2-x,1/2-y,-z
1/2+x,1/2+y,-z
1/2-x,1/2+y,z
1/2+x,1/2-y,z
loop_
_atom_site_type_symbol
_atom_site_label
_atom_site_fract_x
_atom_site_fract_y
_atom_site_fract_z
Si Si1 0.110533 0.201315 0.620914
Si Si2 0.649331 0.388959 0.882187
Si Si3 0.132170 0.327751 0.882906
Si Si4 0.605276 0.099546 0.673231
Si Si5 0.885080 0.000000 0.379155
O O1 0.113049 0.192388 0.500000
O O2 0.155327 0.302993 0.643948
O O3 0.147736 0.101530 0.664763
O O4 0.000000 0.205895 0.648536
O O5 0.631926 0.500000 0.846369
O O6 0.759400 0.361674 0.882453
O O7 0.611988 0.282977 0.848975
O O8 0.619467 0.392959 0.000000
O O9 0.094321 0.393011 0.793691
O O10 0.102497 0.338255 0.000000
O O11 0.500000 0.100218 0.628299
O O12 0.651214 0.000000 0.643115
O O13 0.864145 0.000000 0.500000
O O14 0.000000 0.000000 0.372495
#
# Coordination Sequence:
#
# PCOD9487748 Si02
#       5
#    16  16  16  16   8
#     4   8  14  26  43  61  82 110 145 184 220 251
#     4   8  14  27  48  68  82 103 143 193 234 259
#     4   9  17  29  45  65  89 116 147 184 221 256
#     4  10  20  30  40  61  93 124 152 177 208 263
#     4   7  10  20  40  60  75  97 135 181 220 250
#
# _framework density 27.301974999999999
#
# number of rings (size 3 to 8) (size 9 to 14) (size 15 to 20)
#    0.000    3.444    0.000    3.333    0.000    2.222 
#    2.000    3.333    0.000    0.000    0.000    6.222 
#    0.000    1.778    0.000    0.000    0.000    0.000 
#
# Total GULP energy -200762.705578 kJ/mol
# GULP energy per Si atom -5576.741822 kJ/mol
# Density = 2.723983 g / cm^3
# Si number density = 27.301975 Si / 1000 Ang^3
#
#
#
# Elastic Constant Matrix: (Units=GPa)
#
#
# Indices 1 2 3 4 5 6 
#
# 1 75.8851 9.8936 -0.3047 0.0000 0.0000 0.0000
# 2 9.8936 337.4428 37.5546 0.0000 0.0000 0.0000
# 3 -0.3047 37.5546 59.6776 0.0000 0.0000 0.0000
# 4 0.0000 0.0000 0.0000 10.1405 0.0000 0.0000
# 5 0.0000 0.0000 0.0000 0.0000 6.7408 0.0000
# 6 0.0000 0.0000 0.0000 0.0000 0.0000 9.1345
#
#
#
# Elastic Compliance Matrix: (Units=1/GPa)
#
#
# Indices 1 2 3 4 5 6 
#
# 1 0.013235 -0.000425 0.000335 0.000000 0.000000 0.000000
# 2 -0.000425 0.003200 -0.002016 0.000000 0.000000 0.000000
# 3 0.000335 -0.002016 0.018027 0.000000 0.000000 0.000000
# 4 0.000000 0.000000 0.000000 0.098614 0.000000 0.000000
# 5 0.000000 0.000000 0.000000 0.000000 0.148351 0.000000
# 6 0.000000 0.000000 0.000000 0.000000 0.000000 0.109475
#
#
# Mechanical properties :
#
#
# Convention : Reuss Voigt Hill
#
# Bulk Modulus (GPa) = 33.05826 63.03253 48.04540
# Shear Modulus (GPa) = 12.33967 33.59397 22.96682
#
# Velocity S-wave (km/s) = 2.12827 3.51160 2.90352
# Velocity P-wave (km/s) = 4.26310 6.29119 5.37369
#
# Compressibility (1/GPa) = 0.03024962
#
# Stress axis : x y z
#
# Youngs Moduli (GPa) = 75.55940 312.46962 55.47197
#
# Poissons Ratio (x) = 0.13291 -0.01860
# Poissons Ratio (y) = 0.03214 0.11184
# Poissons Ratio (z) = -0.02533 0.62997
#
# Static dielectric constant tensor:
#      x y z
#    x 2.207930 0.000000 0.000000 
#    y 0.000000 2.186330 0.000000 
#    z 0.000000 0.000000 2.121100 
# 
# From -- ./inp_files/30305.got.cif
#   From: 2010.05.17/outbox.cif.g08.bks.cpg/sg65_16_cif.got.tgz:30305.got - 2010.06.03 17:01:31.
