data_PCOD9487432
_publ_section_title
;
Structure prediction by ZEFSAII (Michael W. Deem and Ramdas Pophale) SiO2 
 PCOD9487432
Probable space group: C M M M
;
_chemical_formula_sum "Si O2"
_cell_formula_units_Z 80
_cell_length_a 27.677996
_cell_length_b 18.326228
_cell_length_c 7.475595
_cell_angle_alpha 90.000000
_cell_angle_beta 90.000000
_cell_angle_gamma 90.000000
_cell_volume 3791.870462
_symmetry_space_group_name_H-M "C M M M"
_symmetry_group_IT_number 65
_symmetry_cell_setting 'orthorhombic'
loop_
_space_group_symop_operation_xyz
x,y,z
-x,-y,z
x,-y,-z
-x,y,-z
-x,-y,-z
x,y,-z
-x,y,z
x,-y,z
1/2+x,1/2+y,z
1/2-x,1/2-y,z
1/2+x,1/2-y,-z
1/2-x,1/2+y,-z
1/2-x,1/2-y,-z
1/2+x,1/2+y,-z
1/2-x,1/2+y,z
1/2+x,1/2-y,z
loop_
_atom_site_type_symbol
_atom_site_label
_atom_site_fract_x
_atom_site_fract_y
_atom_site_fract_z
Si Si1 0.785723 0.183998 0.783563
Si Si2 0.441998 0.585755 0.000000
Si Si3 0.443608 0.000000 0.282446
Si Si4 0.602177 0.310000 0.705947
Si Si5 0.396473 0.148651 0.708961
Si Si6 0.203334 0.581854 0.215893
O O1 0.750000 0.250000 0.731034
O O2 0.839452 0.186212 0.709812
O O3 0.755619 0.111991 0.733002
O O4 0.790250 0.187127 0.000000
O O5 0.420217 0.627923 0.170637
O O6 0.429113 0.500000 0.000000
O O7 0.500000 0.591676 0.000000
O O8 0.420014 0.075048 0.214363
O O9 0.500000 0.000000 0.243358
O O10 0.437445 0.000000 0.500000
O O11 0.586136 0.316360 0.500000
O O12 0.590120 0.228466 0.779083
O O13 0.409583 0.151038 0.500000
O O14 0.339193 0.135204 0.723612
O O15 0.193975 0.500000 0.280921
O O16 0.201648 0.581513 0.000000
#
# Coordination Sequence:
#
# PCOD9487432 Si02
#       6
#    16   8   8  16  16  16
#     4  10  19  34  58  90 131 183 224 265 322 382
#     4  11  28  54  79  99 127 167 212 282 367 431
#     4   9  18  34  55  81 121 171 217 263 315 369
#     4  11  24  42  71 105 135 169 220 279 333 403
#     4  10  20  34  57  88 125 170 216 264 315 375
#     4  10  20  32  52  82 123 175 220 260 309 375
#
# _framework density 21.097767999999999
#
# number of rings (size 3 to 8) (size 9 to 14) (size 15 to 20)
#    0.000    1.800    4.000    0.000    1.400    3.600 
#    0.000    3.000    0.000    0.600    0.000    0.000 
#    0.000    0.000    0.000    0.000    0.000    0.000 
#
# Total GULP energy -223455.958367 kJ/mol
# GULP energy per Si atom -5586.398959 kJ/mol
# Density = 2.104975 g / cm^3
# Si number density = 21.097768 Si / 1000 Ang^3
#
#
#
# Elastic Constant Matrix: (Units=GPa)
#
#
# Indices 1 2 3 4 5 6 
#
# 1 80.4372 59.4363 17.7640 0.0000 0.0000 0.0000
# 2 59.4363 190.0039 50.4996 0.0000 0.0000 0.0000
# 3 17.7640 50.4996 90.5679 0.0000 0.0000 0.0000
# 4 0.0000 0.0000 0.0000 25.6105 0.0000 0.0000
# 5 0.0000 0.0000 0.0000 0.0000 8.1508 0.0000
# 6 0.0000 0.0000 0.0000 0.0000 0.0000 31.1770
#
#
#
# Elastic Compliance Matrix: (Units=1/GPa)
#
#
# Indices 1 2 3 4 5 6 
#
# 1 0.016183 -0.004953 -0.000413 0.000000 0.000000 0.000000
# 2 -0.004953 0.007694 -0.003319 0.000000 0.000000 0.000000
# 3 -0.000413 -0.003319 0.012973 0.000000 0.000000 0.000000
# 4 0.000000 0.000000 0.000000 0.039046 0.000000 0.000000
# 5 0.000000 0.000000 0.000000 0.000000 0.122687 0.000000
# 6 0.000000 0.000000 0.000000 0.000000 0.000000 0.032075
#
#
# Mechanical properties :
#
#
# Convention : Reuss Voigt Hill
#
# Bulk Modulus (GPa) = 51.32961 68.48988 59.90974
# Shear Modulus (GPa) = 19.64481 28.54161 24.09321
#
# Velocity S-wave (km/s) = 3.05476 3.68207 3.38298
# Velocity P-wave (km/s) = 6.06830 7.11410 6.61191
#
# Compressibility (1/GPa) = 0.01948193
#
# Stress axis : x y z
#
# Youngs Moduli (GPa) = 61.79435 129.96469 77.08345
#
# Poissons Ratio (x) = 0.64366 0.03180
# Poissons Ratio (y) = 0.30604 0.25583
# Poissons Ratio (z) = 0.02550 0.43134
#
# Static dielectric constant tensor:
#      x y z
#    x 1.724870 0.000000 0.000000 
#    y 0.000000 1.789580 0.000000 
#    z 0.000000 0.000000 1.797730 
# 
# From -- ./inp_files/16070.got.cif
#   From: 2010.05.17/outbox.cif.g08.bks.cpg/sg65_9_cif.got.tgz:16070.got - 2010.06.03 17:01:31.
