data_PCOD9487818
_publ_section_title
;
Structure prediction by ZEFSAII (Michael W. Deem and Ramdas Pophale) SiO2 
 PCOD9487818
Probable space group: C M M M
;
_chemical_formula_sum "Si O2"
_cell_formula_units_Z 64
_cell_length_a 21.484177
_cell_length_b 7.308557
_cell_length_c 18.244496
_cell_angle_alpha 90.000000
_cell_angle_beta 90.000000
_cell_angle_gamma 90.000000
_cell_volume 2864.720334
_symmetry_space_group_name_H-M "C M M M"
_symmetry_group_IT_number 65
_symmetry_cell_setting 'orthorhombic'
loop_
_space_group_symop_operation_xyz
x,y,z
-x,-y,z
x,-y,-z
-x,y,-z
-x,-y,-z
x,y,-z
-x,y,z
x,-y,z
1/2+x,1/2+y,z
1/2-x,1/2-y,z
1/2+x,1/2-y,-z
1/2-x,1/2+y,-z
1/2-x,1/2-y,-z
1/2+x,1/2+y,-z
1/2-x,1/2+y,z
1/2+x,1/2-y,z
loop_
_atom_site_type_symbol
_atom_site_label
_atom_site_fract_x
_atom_site_fract_y
_atom_site_fract_z
Si Si1 0.000000 0.704207 0.911459
Si Si2 0.071570 0.724254 0.338283
Si Si3 0.075329 0.707949 0.500000
Si Si4 0.818125 0.282548 0.766024
Si Si5 0.362478 0.776049 0.082753
O O1 0.932732 0.785183 0.896142
O O2 0.000000 0.500000 0.877951
O O3 0.000000 0.688272 0.000000
O O4 0.071052 0.500000 0.339836
O O5 0.090209 0.786934 0.420384
O O6 0.123478 0.785384 0.280872
O O7 0.000000 0.778413 0.322006
O O8 0.099747 0.500000 0.500000
O O9 0.000000 0.699733 0.500000
O O10 0.826419 0.500000 0.769909
O O11 0.750000 0.250000 0.733585
O O12 0.820415 0.214887 0.850010
O O13 0.364104 0.000000 0.079947
O O14 0.346813 0.716360 0.000000
#
# Coordination Sequence:
#
# PCOD9487818 Si02
#       5
#     8  16   8  16  16
#     4   7  10  18  34  58  83 100 124 174 227 255
#     4   8  14  25  44  68  89 112 145 184 221 256
#     4   7  10  20  39  64  91 111 134 177 226 260
#     4  10  20  31  44  64  92 120 147 181 218 261
#     4   8  14  24  39  60  85 112 142 179 222 260
#
# _framework density 22.340751999999998
#
# number of rings (size 3 to 8) (size 9 to 14) (size 15 to 20)
#    0.000    3.750    0.000    3.000    1.750    0.500 
#    0.000    0.625    0.000    0.750    0.000    0.000 
#    0.000    6.000    0.000    0.000    0.000    0.000 
#
# Total GULP energy -178288.487579 kJ/mol
# GULP energy per Si atom -5571.515237 kJ/mol
# Density = 2.228990 g / cm^3
# Si number density = 22.340752 Si / 1000 Ang^3
#
#
#
# Elastic Constant Matrix: (Units=GPa)
#
#
# Indices 1 2 3 4 5 6 
#
# 1 131.1032 -1.7892 86.6975 0.0000 0.0000 0.0000
# 2 -1.7892 89.6447 7.9557 0.0000 0.0000 0.0000
# 3 86.6975 7.9557 154.8555 0.0000 0.0000 0.0000
# 4 0.0000 0.0000 0.0000 -17.7070 0.0000 0.0000
# 5 0.0000 0.0000 0.0000 0.0000 5.0674 0.0000
# 6 0.0000 0.0000 0.0000 0.0000 0.0000 -1.8140
#
#
#
# Elastic Compliance Matrix: (Units=1/GPa)
#
#
# Indices 1 2 3 4 5 6 
#
# 1 0.012176 0.000852 -0.006861 0.000000 0.000000 0.000000
# 2 0.000852 0.011266 -0.001056 0.000000 0.000000 0.000000
# 3 -0.006861 -0.001056 0.010353 0.000000 0.000000 0.000000
# 4 0.000000 0.000000 0.000000 -0.056475 0.000000 0.000000
# 5 0.000000 0.000000 0.000000 0.000000 0.197338 0.000000
# 6 0.000000 0.000000 0.000000 0.000000 0.000000 -0.551259
#
#
# Mechanical properties :
#
#
# Convention : Reuss Voigt Hill
#
# Bulk Modulus (GPa) = 50.84967 62.37016 56.60991
# Shear Modulus (GPa) = -14.04824 15.95856 0.95516
#
# Velocity S-wave (km/s) = -2.51034 2.67559 0.65458
# Velocity P-wave (km/s) = 3.79578 6.12563 5.09565
#
# Compressibility (1/GPa) = 0.01966581
#
# Stress axis : x y z
#
# Youngs Moduli (GPa) = 82.12783 88.76386 96.59114
#
# Poissons Ratio (x) = -0.07562 0.66268
# Poissons Ratio (y) = -0.06996 0.10197
# Poissons Ratio (z) = 0.56346 0.09371
#
# Static dielectric constant tensor:
#      x y z
#    x 1.801350 0.000000 0.000000 
#    y 0.000000 1.938260 0.000000 
#    z 0.000000 0.000000 1.842580 
# 
# From -- ./inp_files/55283.got.cif
#   From: 2010.05.17/outbox.cif.g08.bks.cpg/sg65_28_cif.got.tgz:55283.got - 2010.06.03 17:01:31.
