data_PCOD9487190
_publ_section_title
;
Structure prediction by ZEFSAII (Michael W. Deem and Ramdas Pophale) SiO2 
 PCOD9487190
Probable space group: C M M M
;
_chemical_formula_sum "Si O2"
_cell_formula_units_Z 104
_cell_length_a 9.198754
_cell_length_b 29.734264
_cell_length_c 23.239371
_cell_angle_alpha 90.000000
_cell_angle_beta 90.000000
_cell_angle_gamma 90.000000
_cell_volume 6356.390458
_symmetry_space_group_name_H-M "C M M M"
_symmetry_group_IT_number 65
_symmetry_cell_setting 'orthorhombic'
loop_
_space_group_symop_operation_xyz
x,y,z
-x,-y,z
x,-y,-z
-x,y,-z
-x,-y,-z
x,y,-z
-x,y,z
x,-y,z
1/2+x,1/2+y,z
1/2-x,1/2-y,z
1/2+x,1/2-y,-z
1/2-x,1/2+y,-z
1/2-x,1/2-y,-z
1/2+x,1/2+y,-z
1/2-x,1/2+y,z
1/2+x,1/2-y,z
loop_
_atom_site_type_symbol
_atom_site_label
_atom_site_fract_x
_atom_site_fract_y
_atom_site_fract_z
Si Si1 0.674148 0.553390 0.000000
Si Si2 0.168506 0.053949 0.339897
Si Si3 0.172886 0.447148 0.221696
Si Si4 0.175091 0.605083 0.895095
Si Si5 0.333385 0.705549 0.569906
Si Si6 0.173390 0.386879 0.432379
Si Si7 0.673573 0.795940 0.068052
O O1 0.744163 0.577103 0.055553
O O2 0.705770 0.500000 0.000000
O O3 0.500000 0.559168 0.000000
O O4 0.238920 0.066023 0.278498
O O5 0.257547 0.076003 0.391470
O O6 0.000000 0.067675 0.342599
O O7 0.175788 0.000000 0.344401
O O8 0.202726 0.500000 0.208951
O O9 0.207700 0.416821 0.166584
O O10 0.000000 0.443389 0.233214
O O11 0.214901 0.657753 0.900428
O O12 0.000000 0.601930 0.904512
O O13 0.337020 0.707721 0.500000
O O14 0.500000 0.703864 0.589851
O O15 0.250000 0.750000 0.590235
O O16 0.245220 0.660710 0.584134
O O17 0.205552 0.395202 0.500000
O O18 0.000000 0.384811 0.426002
O O19 0.500000 0.790459 0.073009
O O20 0.750000 0.750000 0.087586
O O21 0.707681 0.802126 0.000000
#
# Coordination Sequence:
#
# PCOD9487190 Si02
#       7
#     8  16  16  16  16  16  16
#     4  11  23  33  44  71 108 137 162 201 252 301
#     4  10  21  36  53  73 100 134 170 210 256 308
#     4   9  18  33  54  76  96 125 167 211 253 302
#     4  10  19  34  54  75  99 132 172 210 250 298
#     4   9  16  27  45  70 101 134 166 200 242 296
#     4  10  20  33  51  76 104 133 168 212 259 305
#     4   9  17  30  48  72 101 132 168 208 249 297
#
# _framework density 16.361485999999999
#
# number of rings (size 3 to 8) (size 9 to 14) (size 15 to 20)
#    0.000    2.385    0.769    2.077    0.000    6.462 
#    0.000    3.077    0.000    0.923    0.000    4.308 
#    0.000    0.000    0.000    0.000    0.000    0.000 
#
# Total GULP energy -290006.401449 kJ/mol
# GULP energy per Si atom -5577.046182 kJ/mol
# Density = 1.632425 g / cm^3
# Si number density = 16.361486 Si / 1000 Ang^3
#
#
#
# Elastic Constant Matrix: (Units=GPa)
#
#
# Indices 1 2 3 4 5 6 
#
# 1 80.0548 57.7160 62.2760 0.0000 0.0000 0.0000
# 2 57.7160 101.7415 62.4932 0.0000 0.0000 0.0000
# 3 62.2760 62.4932 87.2123 0.0000 0.0000 0.0000
# 4 0.0000 0.0000 0.0000 2.8866 0.0000 0.0000
# 5 0.0000 0.0000 0.0000 0.0000 18.4203 0.0000
# 6 0.0000 0.0000 0.0000 0.0000 0.0000 31.0551
#
#
#
# Elastic Compliance Matrix: (Units=1/GPa)
#
#
# Indices 1 2 3 4 5 6 
#
# 1 0.030697 -0.007055 -0.016865 0.000000 0.000000 0.000000
# 2 -0.007055 0.019177 -0.008704 0.000000 0.000000 0.000000
# 3 -0.016865 -0.008704 0.029746 0.000000 0.000000 0.000000
# 4 0.000000 0.000000 0.000000 0.346429 0.000000 0.000000
# 5 0.000000 0.000000 0.000000 0.000000 0.054288 0.000000
# 6 0.000000 0.000000 0.000000 0.000000 0.000000 0.032201
#
#
# Mechanical properties :
#
#
# Convention : Reuss Voigt Hill
#
# Bulk Modulus (GPa) = 69.57490 70.44209 70.00849
# Shear Modulus (GPa) = 8.58258 16.24062 12.41160
#
# Velocity S-wave (km/s) = 2.29281 3.15399 2.75723
# Velocity P-wave (km/s) = 7.04452 7.51070 7.28134
#
# Compressibility (1/GPa) = 0.01437300
#
# Stress axis : x y z
#
# Youngs Moduli (GPa) = 32.57644 52.14498 33.61824
#
# Poissons Ratio (x) = 0.36788 0.56696
# Poissons Ratio (y) = 0.22983 0.29261
# Poissons Ratio (z) = 0.54939 0.45387
#
# Static dielectric constant tensor:
#      x y z
#    x 1.547390 0.000000 0.000000 
#    y 0.000000 1.544170 0.000000 
#    z 0.000000 0.000000 1.520220 
# 
# From -- ./inp_files/68199.got.cif
#   From: 2010.05.17/outbox.cif.g08.bks.cpg/sg65_35_cif.got.tgz:68199.got - 2010.06.03 17:01:31.
