data_PCOD9487078
_publ_section_title
;
Structure prediction by ZEFSAII (Michael W. Deem and Ramdas Pophale) SiO2 
 PCOD9487078
Probable space group: C M M M
;
_chemical_formula_sum "Si O2"
_cell_formula_units_Z 80
_cell_length_a 8.055712
_cell_length_b 27.946961
_cell_length_c 20.110521
_cell_angle_alpha 90.000000
_cell_angle_beta 90.000000
_cell_angle_gamma 90.000000
_cell_volume 4527.535270
_symmetry_space_group_name_H-M "C M M M"
_symmetry_group_IT_number 65
_symmetry_cell_setting 'orthorhombic'
loop_
_space_group_symop_operation_xyz
x,y,z
-x,-y,z
x,-y,-z
-x,y,-z
-x,-y,-z
x,y,-z
-x,y,z
x,-y,z
1/2+x,1/2+y,z
1/2-x,1/2-y,z
1/2+x,1/2-y,-z
1/2-x,1/2+y,-z
1/2-x,1/2-y,-z
1/2+x,1/2+y,-z
1/2-x,1/2+y,z
1/2+x,1/2-y,z
loop_
_atom_site_type_symbol
_atom_site_label
_atom_site_fract_x
_atom_site_fract_y
_atom_site_fract_z
Si Si1 0.195914 0.445461 0.292098
Si Si2 0.803251 0.694697 0.500000
Si Si3 0.000000 0.556067 0.920493
Si Si4 0.806560 0.898847 0.156984
Si Si5 0.698163 0.354469 0.363551
Si Si6 0.301562 0.696311 0.770013
O O1 0.239772 0.500000 0.308830
O O2 0.292757 0.427550 0.226796
O O3 0.230724 0.407190 0.349803
O O4 0.000000 0.443771 0.275834
O O5 0.750000 0.750000 0.500000
O O6 0.740895 0.668478 0.566259
O O7 0.000000 0.692963 0.500000
O O8 0.832417 0.579608 0.891209
O O9 0.000000 0.500000 0.901407
O O10 0.000000 0.559775 0.000000
O O11 0.757255 0.844457 0.176700
O O12 0.000000 0.900547 0.134586
O O13 0.500000 0.357762 0.357939
O O14 0.761590 0.321245 0.302378
O O15 0.500000 0.695522 0.766384
O O16 0.250000 0.750000 0.785432
#
# Coordination Sequence:
#
# PCOD9487078 Si02
#       6
#    16   8   8  16  16  16
#     4  10  19  33  56  84 113 145 184 232 282 333
#     4  12  24  38  55  74 103 146 184 229 285 347
#     4  11  24  40  60  88 118 153 195 233 280 343
#     4  10  21  37  57  87 120 152 190 236 287 340
#     4  10  21  36  52  78 112 143 187 232 282 339
#     4   9  19  32  54  86 112 144 186 236 287 337
#
# _framework density 17.669657999999998
#
# number of rings (size 3 to 8) (size 9 to 14) (size 15 to 20)
#    0.000    1.900    1.000    4.500    1.400    6.400 
#    0.000    1.500    0.000    3.600    0.000    0.000 
#    0.000    0.000    0.000    0.000    0.000    0.000 
#
# Total GULP energy -223238.826466 kJ/mol
# GULP energy per Si atom -5580.970662 kJ/mol
# Density = 1.762944 g / cm^3
# Si number density = 17.669658 Si / 1000 Ang^3
#
#
#
# Elastic Constant Matrix: (Units=GPa)
#
#
# Indices 1 2 3 4 5 6 
#
# 1 81.8496 48.5394 34.9844 0.0000 0.0000 0.0000
# 2 48.5394 176.3799 58.2710 0.0000 0.0000 0.0000
# 3 34.9844 58.2710 72.7469 0.0000 0.0000 0.0000
# 4 0.0000 0.0000 0.0000 20.6902 0.0000 0.0000
# 5 0.0000 0.0000 0.0000 0.0000 18.9410 0.0000
# 6 0.0000 0.0000 0.0000 0.0000 0.0000 30.3372
#
#
#
# Elastic Compliance Matrix: (Units=1/GPa)
#
#
# Indices 1 2 3 4 5 6 
#
# 1 0.016186 -0.002560 -0.005733 0.000000 0.000000 0.000000
# 2 -0.002560 0.008115 -0.005269 0.000000 0.000000 0.000000
# 3 -0.005733 -0.005269 0.020724 0.000000 0.000000 0.000000
# 4 0.000000 0.000000 0.000000 0.048332 0.000000 0.000000
# 5 0.000000 0.000000 0.000000 0.000000 0.052796 0.000000
# 6 0.000000 0.000000 0.000000 0.000000 0.000000 0.032963
#
#
# Mechanical properties :
#
#
# Convention : Reuss Voigt Hill
#
# Bulk Modulus (GPa) = 55.86515 68.28511 62.07513
# Shear Modulus (GPa) = 23.56189 26.60578 25.08384
#
# Velocity S-wave (km/s) = 3.65563 3.88459 3.77184
# Velocity P-wave (km/s) = 7.03585 7.67133 7.36045
#
# Compressibility (1/GPa) = 0.01790025
#
# Stress axis : x y z
#
# Youngs Moduli (GPa) = 61.78010 123.23104 48.25378
#
# Poissons Ratio (x) = 0.31552 0.27665
# Poissons Ratio (y) = 0.15818 0.25424
# Poissons Ratio (z) = 0.35420 0.64928
#
# Static dielectric constant tensor:
#      x y z
#    x 1.615380 0.000000 0.000000 
#    y 0.000000 1.624250 0.000000 
#    z 0.000000 0.000000 1.880680 
# 
# From -- ./inp_files/60077.got.cif
#   From: 2010.05.17/outbox.cif.g08.bks.cpg/sg65_31_cif.got.tgz:60077.got - 2010.06.03 17:01:31.
