data_PCOD9487986
_publ_section_title
;
Structure prediction by ZEFSAII (Michael W. Deem and Ramdas Pophale) SiO2 
 PCOD9487986
Probable space group: C M M M
;
_chemical_formula_sum "Si O2"
_cell_formula_units_Z 96
_cell_length_a 7.496195
_cell_length_b 19.081228
_cell_length_c 32.834337
_cell_angle_alpha 90.000000
_cell_angle_beta 90.000000
_cell_angle_gamma 90.000000
_cell_volume 4696.512122
_symmetry_space_group_name_H-M "C M M M"
_symmetry_group_IT_number 65
_symmetry_cell_setting 'orthorhombic'
loop_
_space_group_symop_operation_xyz
x,y,z
-x,-y,z
x,-y,-z
-x,y,-z
-x,-y,-z
x,y,-z
-x,y,z
x,-y,z
1/2+x,1/2+y,z
1/2-x,1/2-y,z
1/2+x,1/2-y,-z
1/2-x,1/2+y,-z
1/2-x,1/2-y,-z
1/2+x,1/2+y,-z
1/2-x,1/2+y,z
1/2+x,1/2-y,z
loop_
_atom_site_type_symbol
_atom_site_label
_atom_site_fract_x
_atom_site_fract_y
_atom_site_fract_z
Si Si1 0.714053 0.420158 0.121363
Si Si2 0.213436 0.419811 0.787837
Si Si3 0.785525 0.584084 0.456268
Si Si4 0.281784 0.081790 0.367304
Si Si5 0.713922 0.332302 0.955040
Si Si6 0.786129 0.667707 0.710911
O O1 0.500000 0.422834 0.117764
O O2 0.782079 0.500000 0.119662
O O3 0.751674 0.392337 0.166645
O O4 0.783281 0.375118 0.083588
O O5 0.282461 0.500000 0.785114
O O6 0.281834 0.371126 0.751528
O O7 0.000000 0.423801 0.783551
O O8 0.716880 0.611175 0.500000
O O9 0.755758 0.500000 0.456074
O O10 0.721219 0.608301 0.411961
O O11 0.000000 0.593981 0.456694
O O12 0.500000 0.082403 0.367836
O O13 0.220191 0.128815 0.329780
O O14 0.230833 0.000000 0.362051
O O15 0.500000 0.341301 0.955852
O O16 0.750000 0.250000 0.950054
O O17 0.781490 0.353615 0.000000
O O18 0.750000 0.750000 0.710982
O O19 0.000000 0.659378 0.710712
#
# Coordination Sequence:
#
# PCOD9487986 Si02
#       6
#    16  16  16  16  16  16
#     4   9  18  32  50  72  95 118 146 182 224 266
#     4   9  18  33  51  68  87 114 149 186 222 262
#     4   7   9  14  28  54  84 107 131 172 222 260
#     4   8  13  23  41  62  83 111 147 183 218 258
#     4   9  18  32  49  69  94 124 155 185 217 256
#     4  10  20  32  46  65  89 117 148 182 220 262
#
# _framework density 20.440702999999999
#
# number of rings (size 3 to 8) (size 9 to 14) (size 15 to 20)
#    0.000    3.333    0.000    2.000    0.000    4.333 
#    0.000    5.000    0.000    2.000    0.000    4.667 
#    0.000    0.000    0.000    4.167    0.000    3.333 
#
# Total GULP energy -267491.287175 kJ/mol
# GULP energy per Si atom -5572.735149 kJ/mol
# Density = 2.039418 g / cm^3
# Si number density = 20.440703 Si / 1000 Ang^3
#
#
#
# Elastic Constant Matrix: (Units=GPa)
#
#
# Indices 1 2 3 4 5 6 
#
# 1 55.4978 0.0879 8.5365 0.0000 0.0000 0.0000
# 2 0.0879 75.2117 109.3796 0.0000 0.0000 0.0000
# 3 8.5365 109.3796 277.5667 0.0000 0.0000 0.0000
# 4 0.0000 0.0000 0.0000 3.6190 0.0000 0.0000
# 5 0.0000 0.0000 0.0000 0.0000 21.2123 0.0000
# 6 0.0000 0.0000 0.0000 0.0000 0.0000 13.2892
#
#
#
# Elastic Compliance Matrix: (Units=1/GPa)
#
#
# Indices 1 2 3 4 5 6 
#
# 1 0.018215 0.001858 -0.001293 0.000000 0.000000 0.000000
# 2 0.001858 0.031334 -0.012405 0.000000 0.000000 0.000000
# 3 -0.001293 -0.012405 0.008531 0.000000 0.000000 0.000000
# 4 0.000000 0.000000 0.000000 0.276317 0.000000 0.000000
# 5 0.000000 0.000000 0.000000 0.000000 0.047142 0.000000
# 6 0.000000 0.000000 0.000000 0.000000 0.000000 0.075249
#
#
# Mechanical properties :
#
#
# Convention : Reuss Voigt Hill
#
# Bulk Modulus (GPa) = 29.06859 71.58714 50.32786
# Shear Modulus (GPa) = 10.16401 26.97559 18.56980
#
# Velocity S-wave (km/s) = 2.23232 3.63671 3.01736
# Velocity P-wave (km/s) = 4.57123 7.26169 6.06746
#
# Compressibility (1/GPa) = 0.03440139
#
# Stress axis : x y z
#
# Youngs Moduli (GPa) = 54.90104 31.91461 117.22310
#
# Poissons Ratio (x) = -0.05931 0.15151
# Poissons Ratio (y) = -0.10203 1.45411
# Poissons Ratio (z) = 0.07096 0.39589
#
# Static dielectric constant tensor:
#      x y z
#    x 1.821080 0.000000 0.000000 
#    y 0.000000 1.677260 0.000000 
#    z 0.000000 0.000000 1.768910 
# 
# From -- ./inp_files/74366.got.cif
#   From: 2010.05.17/outbox.cif.g08.bks.cpg/sg65_38_cif.got.tgz:74366.got - 2010.06.03 17:01:31.
