data_PCOD9487071
_publ_section_title
;
Structure prediction by ZEFSAII (Michael W. Deem and Ramdas Pophale) SiO2 
 PCOD9487071
Probable space group: C M M M
;
_chemical_formula_sum "Si O2"
_cell_formula_units_Z 42
_cell_length_a 10.656932
_cell_length_b 23.414742
_cell_length_c 7.622702
_cell_angle_alpha 90.000000
_cell_angle_beta 90.000000
_cell_angle_gamma 90.000000
_cell_volume 1902.087595
_symmetry_space_group_name_H-M "C M M M"
_symmetry_group_IT_number 65
_symmetry_cell_setting 'orthorhombic'
loop_
_space_group_symop_operation_xyz
x,y,z
-x,-y,z
x,-y,-z
-x,y,-z
-x,-y,-z
x,y,-z
-x,y,z
x,-y,z
1/2+x,1/2+y,z
1/2-x,1/2-y,z
1/2+x,1/2-y,-z
1/2-x,1/2+y,-z
1/2-x,1/2-y,-z
1/2+x,1/2+y,-z
1/2-x,1/2+y,z
1/2+x,1/2-y,z
loop_
_atom_site_type_symbol
_atom_site_label
_atom_site_fract_x
_atom_site_fract_y
_atom_site_fract_z
Si Si1 0.500000 0.500000 0.500000
Si Si2 0.237472 0.500000 0.309013
Si Si3 0.500000 0.331680 0.785616
Si Si4 0.265624 0.873719 0.204899
Si Si5 0.000000 0.698641 0.215140
O O1 0.387109 0.500000 0.349786
O O2 0.174789 0.500000 0.500000
O O3 0.204894 0.559480 0.219522
O O4 0.372359 0.360894 0.719400
O O5 0.500000 0.265049 0.738251
O O6 0.500000 0.335721 0.000000
O O7 0.376089 0.834348 0.278238
O O8 0.257742 0.858640 0.000000
O O9 0.000000 0.696447 0.000000
#
# Coordination Sequence:
#
# PCOD9487071 Si02
#       5
#     2   8   8  16   8
#     4   8  20  36  54  70 100 144 170 218 268 306
#     4  10  21  36  54  76 104 145 176 217 273 314
#     4   9  17  30  53  82 109 140 177 216 260 313
#     4  10  19  33  56  83 109 138 178 220 259 316
#     4   9  18  32  52  82 116 141 166 216 275 312
#
# _framework density 22.081001000000001
#
# number of rings (size 3 to 8) (size 9 to 14) (size 15 to 20)
#    0.571    1.905    0.000    2.857    0.000    5.333 
#    0.000    8.571    0.000    6.857    0.000    0.000 
#    0.000    0.000    0.000    0.000    0.000    0.000 
#
# Total GULP energy -116921.713989 kJ/mol
# GULP energy per Si atom -5567.700666 kJ/mol
# Density = 2.203074 g / cm^3
# Si number density = 22.081001 Si / 1000 Ang^3
#
#
#
# Elastic Constant Matrix: (Units=GPa)
#
#
# Indices 1 2 3 4 5 6 
#
# 1 108.6573 64.0224 10.3834 0.0000 0.0000 0.0000
# 2 64.0224 147.5779 -16.5020 0.0000 0.0000 0.0000
# 3 10.3834 -16.5020 38.8899 0.0000 0.0000 0.0000
# 4 0.0000 0.0000 0.0000 -60.0085 0.0000 0.0000
# 5 0.0000 0.0000 0.0000 0.0000 -3.5347 0.0000
# 6 0.0000 0.0000 0.0000 0.0000 0.0000 -19.5239
#
#
#
# Elastic Compliance Matrix: (Units=1/GPa)
#
#
# Indices 1 2 3 4 5 6 
#
# 1 0.013779 -0.006707 -0.006525 0.000000 0.000000 0.000000
# 2 -0.006707 0.010378 0.006195 0.000000 0.000000 0.000000
# 3 -0.006525 0.006195 0.030084 0.000000 0.000000 0.000000
# 4 0.000000 0.000000 0.000000 -0.016664 0.000000 0.000000
# 5 0.000000 0.000000 0.000000 0.000000 -0.282908 0.000000
# 6 0.000000 0.000000 0.000000 0.000000 0.000000 -0.051219
#
#
# Mechanical properties :
#
#
# Convention : Reuss Voigt Hill
#
# Bulk Modulus (GPa) = 24.89624 45.65918 35.27771
# Shear Modulus (GPa) = -18.58140 -0.79866 -9.69003
#
# Velocity S-wave (km/s) = -2.90403 -0.60207 -2.09712
# Velocity P-wave (km/s) = 0.23439 4.49885 3.18548
#
# Compressibility (1/GPa) = 0.04016671
#
# Stress axis : x y z
#
# Youngs Moduli (GPa) = 72.57601 96.35382 33.24003
#
# Poissons Ratio (x) = 0.64625 0.21688
# Poissons Ratio (y) = 0.48677 -0.20591
# Poissons Ratio (z) = 0.47354 -0.59687
#
# Static dielectric constant tensor:
#      x y z
#    x 1.822760 0.000000 0.000000 
#    y 0.000000 1.760800 0.000000 
#    z 0.000000 0.000000 1.842730 
# 
# From -- ./inp_files/3883.got.cif
#   From: 2010.05.17/outbox.cif.g08.bks.cpg/sg65_2_cif.got.tgz:3883.got - 2010.06.03 17:01:31.
