data_PCOD9487737
_publ_section_title
;
Structure prediction by ZEFSAII (Michael W. Deem and Ramdas Pophale) SiO2 
 PCOD9487737
Probable space group: C M M M
;
_chemical_formula_sum "Si O2"
_cell_formula_units_Z 64
_cell_length_a 11.900414
_cell_length_b 14.167289
_cell_length_c 19.483471
_cell_angle_alpha 90.000000
_cell_angle_beta 90.000000
_cell_angle_gamma 90.000000
_cell_volume 3284.847052
_symmetry_space_group_name_H-M "C M M M"
_symmetry_group_IT_number 65
_symmetry_cell_setting 'orthorhombic'
loop_
_space_group_symop_operation_xyz
x,y,z
-x,-y,z
x,-y,-z
-x,y,-z
-x,-y,-z
x,y,-z
-x,y,z
x,-y,z
1/2+x,1/2+y,z
1/2-x,1/2-y,z
1/2+x,1/2-y,-z
1/2-x,1/2+y,-z
1/2-x,1/2-y,-z
1/2+x,1/2+y,-z
1/2-x,1/2+y,z
1/2+x,1/2-y,z
loop_
_atom_site_type_symbol
_atom_site_label
_atom_site_fract_x
_atom_site_fract_y
_atom_site_fract_z
Si Si1 0.634728 0.813984 0.000000
Si Si2 0.750000 0.250000 0.246148
Si Si3 0.868715 0.397019 0.849838
Si Si4 0.627241 0.614377 0.500000
Si Si5 0.243228 0.386461 0.362874
Si Si6 0.500000 0.114285 0.580753
O O1 0.750000 0.750000 0.000000
O O2 0.644310 0.873710 0.930216
O O3 0.500000 0.777135 0.000000
O O4 0.826740 0.310825 0.195743
O O5 0.706950 0.330122 0.298785
O O6 0.816813 0.500000 0.833703
O O7 0.000000 0.404130 0.835909
O O8 0.627208 0.500000 0.500000
O O9 0.500000 0.646944 0.500000
O O10 0.691121 0.641601 0.431444
O O11 0.249621 0.500000 0.353819
O O12 0.112959 0.360438 0.378083
O O13 0.500000 0.143712 0.500000
O O14 0.500000 0.000000 0.577678
#
# Coordination Sequence:
#
# PCOD9487737 Si02
#       6
#     8   8  16   8  16   8
#     4  10  19  39  71 104 132 166 215 267 313 368
#     4  12  24  36  56  90 128 160 198 252 320 374
#     4  10  22  41  66  94 126 168 215 258 303 364
#     4   9  18  36  57  75 106 151 199 251 311 375
#     4  10  21  37  57  84 114 154 204 258 315 368
#     4   9  16  34  62  84 109 146 203 270 319 362
#
# _framework density 19.483404
#
# number of rings (size 3 to 8) (size 9 to 14) (size 15 to 20)
#    0.000    2.000    2.500    1.125    1.750    3.000 
#    0.000    0.000    0.000    5.250    0.000    0.000 
#    0.000    0.000    0.000    0.000    0.000    0.000 
#
# Total GULP energy -178320.951430 kJ/mol
# GULP energy per Si atom -5572.529732 kJ/mol
# Density = 1.943906 g / cm^3
# Si number density = 19.483404 Si / 1000 Ang^3
#
#
#
# Elastic Constant Matrix: (Units=GPa)
#
#
# Indices 1 2 3 4 5 6 
#
# 1 100.8500 50.1295 40.4773 0.0000 0.0000 0.0000
# 2 50.1295 125.9480 59.5343 0.0000 0.0000 0.0000
# 3 40.4773 59.5343 138.9280 0.0000 0.0000 0.0000
# 4 0.0000 0.0000 0.0000 443.4925 0.0000 0.0000
# 5 0.0000 0.0000 0.0000 0.0000 125.6563 0.0000
# 6 0.0000 0.0000 0.0000 0.0000 0.0000 19.2727
#
#
#
# Elastic Compliance Matrix: (Units=1/GPa)
#
#
# Indices 1 2 3 4 5 6 
#
# 1 0.012762 -0.004166 -0.001933 0.000000 0.000000 0.000000
# 2 -0.004166 0.011316 -0.003636 0.000000 0.000000 0.000000
# 3 -0.001933 -0.003636 0.009319 0.000000 0.000000 0.000000
# 4 0.000000 0.000000 0.000000 0.002255 0.000000 0.000000
# 5 0.000000 0.000000 0.000000 0.000000 0.007958 0.000000
# 6 0.000000 0.000000 0.000000 0.000000 0.000000 0.051887
#
#
# Mechanical properties :
#
#
# Convention : Reuss Voigt Hill
#
# Bulk Modulus (GPa) = 71.79481 74.00090 72.89786
# Shear Modulus (GPa) = 41.80256 132.05664 86.92960
#
# Velocity S-wave (km/s) = 4.63703 8.24173 6.68686
# Velocity P-wave (km/s) = 8.09930 11.34161 9.85471
#
# Compressibility (1/GPa) = 0.01392858
#
# Stress axis : x y z
#
# Youngs Moduli (GPa) = 78.35553 88.36745 107.30553
#
# Poissons Ratio (x) = 0.36812 0.20744
# Poissons Ratio (y) = 0.32642 0.39012
# Poissons Ratio (z) = 0.15148 0.32127
#
# Static dielectric constant tensor:
#      x y z
#    x 1.692210 0.000000 0.000000 
#    y 0.000000 1.704820 0.000000 
#    z 0.000000 0.000000 1.675480 
# 
# From -- ./inp_files/50977.got.cif
#   From: 2010.05.17/outbox.cif.g08.bks.cpg/sg65_26_cif.got.tgz:50977.got - 2010.06.03 17:01:31.
