data_PCOD9487329
_publ_section_title
;
Structure prediction by ZEFSAII (Michael W. Deem and Ramdas Pophale) SiO2 
 PCOD9487329
Probable space group: C M M M
;
_chemical_formula_sum "Si O2"
_cell_formula_units_Z 90
_cell_length_a 8.718860
_cell_length_b 23.965887
_cell_length_c 23.136983
_cell_angle_alpha 90.000000
_cell_angle_beta 90.000000
_cell_angle_gamma 90.000000
_cell_volume 4834.593223
_symmetry_space_group_name_H-M "C M M M"
_symmetry_group_IT_number 65
_symmetry_cell_setting 'orthorhombic'
loop_
_space_group_symop_operation_xyz
x,y,z
-x,-y,z
x,-y,-z
-x,y,-z
-x,-y,-z
x,y,-z
-x,y,z
x,-y,z
1/2+x,1/2+y,z
1/2-x,1/2-y,z
1/2+x,1/2-y,-z
1/2-x,1/2+y,-z
1/2-x,1/2-y,-z
1/2+x,1/2+y,-z
1/2-x,1/2+y,z
1/2+x,1/2-y,z
loop_
_atom_site_type_symbol
_atom_site_label
_atom_site_fract_x
_atom_site_fract_y
_atom_site_fract_z
Si Si1 0.314702 0.123307 0.700856
Si Si2 0.500000 0.000000 0.500000
Si Si3 0.821541 0.876864 0.170706
Si Si4 0.682831 0.310519 0.401641
Si Si5 0.173988 0.000000 0.190190
Si Si6 0.177189 0.500000 0.309633
Si Si7 0.329502 0.882998 0.500000
Si Si8 0.683275 0.187909 0.063459
O O1 0.500000 0.123781 0.699154
O O2 0.258203 0.129672 0.766746
O O3 0.245988 0.171144 0.660893
O O4 0.261699 0.061951 0.676201
O O5 0.367665 0.949167 0.500000
O O6 0.812754 0.942762 0.156576
O O7 0.745958 0.844117 0.118690
O O8 0.000000 0.861345 0.176691
O O9 0.500000 0.307967 0.401966
O O10 0.750000 0.250000 0.417930
O O11 0.742119 0.358486 0.444899
O O12 0.301013 0.000000 0.240277
O O13 0.000000 0.000000 0.217105
O O14 0.000000 0.500000 0.328704
O O15 0.500000 0.856470 0.500000
O O16 0.500000 0.190077 0.066307
O O17 0.750000 0.250000 0.065410
O O18 0.726523 0.163970 0.000000
#
# Coordination Sequence:
#
# PCOD9487329 Si02
#       8
#    16   2  16  16   8   8   8  16
#     4  10  20  36  57  88 122 159 203 248 303 363
#     4   8  24  44  78 100 132 164 210 258 314 368
#     4  10  19  34  56  82 115 153 192 245 299 354
#     4  12  25  42  64  94 128 169 215 258 306 369
#     4   8  16  30  50  76 108 144 185 228 278 343
#     4   8  16  31  53  79 110 152 192 234 292 352
#     4  10  22  46  70  96 123 166 202 251 304 361
#     4  10  21  37  56  78 104 140 188 240 297 364
#
# _framework density 18.615836000000002
#
# number of rings (size 3 to 8) (size 9 to 14) (size 15 to 20)
#    0.267    1.778    0.000    3.733    0.000    3.911 
#    1.600    5.778    0.000    2.667    0.000    0.000 
#    0.000    0.000    0.000    0.000    0.000    0.000 
#
# Total GULP energy -250526.742825 kJ/mol
# GULP energy per Si atom -5567.260952 kJ/mol
# Density = 1.857347 g / cm^3
# Si number density = 18.615836 Si / 1000 Ang^3
#
#
#
# Elastic Constant Matrix: (Units=GPa)
#
#
# Indices 1 2 3 4 5 6 
#
# 1 108.3850 43.4928 44.5332 0.0000 0.0000 0.0000
# 2 43.4928 106.2693 55.9832 0.0000 0.0000 0.0000
# 3 44.5332 55.9832 101.2390 0.0000 0.0000 0.0000
# 4 0.0000 0.0000 0.0000 16.3562 0.0000 0.0000
# 5 0.0000 0.0000 0.0000 0.0000 23.0115 0.0000
# 6 0.0000 0.0000 0.0000 0.0000 0.0000 25.6196
#
#
#
# Elastic Compliance Matrix: (Units=1/GPa)
#
#
# Indices 1 2 3 4 5 6 
#
# 1 0.011895 -0.002980 -0.003585 0.000000 0.000000 0.000000
# 2 -0.002980 0.014025 -0.006445 0.000000 0.000000 0.000000
# 3 -0.003585 -0.006445 0.015018 0.000000 0.000000 0.000000
# 4 0.000000 0.000000 0.000000 0.061139 0.000000 0.000000
# 5 0.000000 0.000000 0.000000 0.000000 0.043457 0.000000
# 6 0.000000 0.000000 0.000000 0.000000 0.000000 0.039033
#
#
# Mechanical properties :
#
#
# Convention : Reuss Voigt Hill
#
# Bulk Modulus (GPa) = 67.02540 67.10131 67.06335
# Shear Modulus (GPa) = 23.19573 24.45640 23.82606
#
# Velocity S-wave (km/s) = 3.53373 3.62849 3.58142
# Velocity P-wave (km/s) = 7.26170 7.32654 7.29419
#
# Compressibility (1/GPa) = 0.01491972
#
# Stress axis : x y z
#
# Youngs Moduli (GPa) = 84.06926 71.30293 66.58623
#
# Poissons Ratio (x) = 0.21247 0.23868
# Poissons Ratio (y) = 0.25052 0.42912
# Poissons Ratio (z) = 0.30135 0.45952
#
# Static dielectric constant tensor:
#      x y z
#    x 1.642290 0.000000 0.000000 
#    y 0.000000 1.661720 0.000000 
#    z 0.000000 0.000000 1.640710 
# 
# From -- ./inp_files/67697.got.cif
#   From: 2010.05.17/outbox.cif.g08.bks.cpg/sg65_34_cif.got.tgz:67697.got - 2010.06.03 17:01:31.
