data_PCOD9487458
_publ_section_title
;
Structure prediction by ZEFSAII (Michael W. Deem and Ramdas Pophale) SiO2 
 PCOD9487458
Probable space group: C M M M
;
_chemical_formula_sum "Si O2"
_cell_formula_units_Z 66
_cell_length_a 26.325780
_cell_length_b 15.849363
_cell_length_c 8.409770
_cell_angle_alpha 90.000000
_cell_angle_beta 90.000000
_cell_angle_gamma 90.000000
_cell_volume 3508.949987
_symmetry_space_group_name_H-M "C M M M"
_symmetry_group_IT_number 65
_symmetry_cell_setting 'orthorhombic'
loop_
_space_group_symop_operation_xyz
x,y,z
-x,-y,z
x,-y,-z
-x,y,-z
-x,-y,-z
x,y,-z
-x,y,z
x,-y,z
1/2+x,1/2+y,z
1/2-x,1/2-y,z
1/2+x,1/2-y,-z
1/2-x,1/2+y,-z
1/2-x,1/2-y,-z
1/2+x,1/2+y,-z
1/2-x,1/2+y,z
1/2+x,1/2-y,z
loop_
_atom_site_type_symbol
_atom_site_label
_atom_site_fract_x
_atom_site_fract_y
_atom_site_fract_z
Si Si1 0.244659 0.096569 0.806523
Si Si2 0.058199 0.000000 0.309926
Si Si3 0.368856 0.646769 0.192756
Si Si4 0.000000 0.500000 0.500000
Si Si5 0.895148 0.500000 0.674258
Si Si6 0.348816 0.831266 0.191073
O O1 0.187801 0.118752 0.755308
O O2 0.290437 0.156720 0.753107
O O3 0.256811 0.000000 0.762633
O O4 0.243918 0.100370 0.000000
O O5 0.089231 0.917792 0.254132
O O6 0.057095 0.000000 0.500000
O O7 0.000000 0.000000 0.250677
O O8 0.373879 0.743944 0.246005
O O9 0.370177 0.643177 0.000000
O O10 0.045295 0.500000 0.635656
O O11 0.869252 0.500000 0.500000
O O12 0.878537 0.584915 0.761342
O O13 0.346845 0.826673 0.000000
#
# Coordination Sequence:
#
# PCOD9487458 Si02
#       6
#    16   8  16   2   8  16
#     4   9  15  28  55  87 121 152 175 216 281 345
#     4  11  25  44  59  77 108 155 200 242 286 334
#     4  10  20  36  60  88 117 147 186 233 282 334
#     4   8  24  44  58  72 100 162 194 224 290 344
#     4  10  21  40  58  75 110 149 194 228 278 336
#     4  10  19  34  60  92 117 144 184 232 281 338
#
# _framework density 18.809045000000001
#
# number of rings (size 3 to 8) (size 9 to 14) (size 15 to 20)
#    0.364    1.818    2.424    1.455    0.000    4.848 
#    2.182    3.636    0.000    2.909    0.000    0.000 
#    0.000    0.000    0.000    0.000    0.000    0.000 
#
# Total GULP energy -183725.408648 kJ/mol
# GULP energy per Si atom -5567.436626 kJ/mol
# Density = 1.876623 g / cm^3
# Si number density = 18.809045 Si / 1000 Ang^3
#
#
#
# Elastic Constant Matrix: (Units=GPa)
#
#
# Indices 1 2 3 4 5 6 
#
# 1 162.2480 89.7688 20.2983 0.0000 0.0000 0.0000
# 2 89.7688 177.4409 23.7736 0.0000 0.0000 0.0000
# 3 20.2983 23.7736 13.8795 0.0000 0.0000 0.0000
# 4 0.0000 0.0000 0.0000 1.3665 0.0000 0.0000
# 5 0.0000 0.0000 0.0000 0.0000 41.6697 0.0000
# 6 0.0000 0.0000 0.0000 0.0000 0.0000 10.3802
#
#
#
# Elastic Compliance Matrix: (Units=1/GPa)
#
#
# Indices 1 2 3 4 5 6 
#
# 1 0.009055 -0.003643 -0.007003 0.000000 0.000000 0.000000
# 2 -0.003643 0.008780 -0.009711 0.000000 0.000000 0.000000
# 3 -0.007003 -0.009711 0.098924 0.000000 0.000000 0.000000
# 4 0.000000 0.000000 0.000000 0.731773 0.000000 0.000000
# 5 0.000000 0.000000 0.000000 0.000000 0.023998 0.000000
# 6 0.000000 0.000000 0.000000 0.000000 0.000000 0.096337
#
#
# Mechanical properties :
#
#
# Convention : Reuss Voigt Hill
#
# Bulk Modulus (GPa) = 13.15015 69.02777 41.08896
# Shear Modulus (GPa) = 4.83126 25.33181 15.08153
#
# Velocity S-wave (km/s) = 1.60442 3.67384 2.83472
# Velocity P-wave (km/s) = 3.23091 7.40102 5.71025
#
# Compressibility (1/GPa) = 0.07604476
#
# Stress axis : x y z
#
# Youngs Moduli (GPa) = 110.43632 113.90017 10.10881
#
# Poissons Ratio (x) = 0.41491 0.07079
# Poissons Ratio (y) = 0.40229 0.09817
# Poissons Ratio (z) = 0.77341 1.10607
#
# Static dielectric constant tensor:
#      x y z
#    x 1.636500 0.000000 0.000000 
#    y 0.000000 1.674990 0.000000 
#    z 0.000000 0.000000 1.663950 
# 
# From -- ./inp_files/15702.got.cif
#   From: 2010.05.17/outbox.cif.g08.bks.cpg/sg65_8_cif.got.tgz:15702.got - 2010.06.03 17:01:31.
