data_PCOD9487884
_publ_section_title
;
Structure prediction by ZEFSAII (Michael W. Deem and Ramdas Pophale) SiO2 
 PCOD9487884
Probable space group: C M M M
;
_chemical_formula_sum "Si O2"
_cell_formula_units_Z 72
_cell_length_a 26.123361
_cell_length_b 18.653113
_cell_length_c 7.697722
_cell_angle_alpha 90.000000
_cell_angle_beta 90.000000
_cell_angle_gamma 90.000000
_cell_volume 3750.961408
_symmetry_space_group_name_H-M "C M M M"
_symmetry_group_IT_number 65
_symmetry_cell_setting 'orthorhombic'
loop_
_space_group_symop_operation_xyz
x,y,z
-x,-y,z
x,-y,-z
-x,y,-z
-x,-y,-z
x,y,-z
-x,y,z
x,-y,z
1/2+x,1/2+y,z
1/2-x,1/2-y,z
1/2+x,1/2-y,-z
1/2-x,1/2+y,-z
1/2-x,1/2-y,-z
1/2+x,1/2+y,-z
1/2-x,1/2+y,z
1/2+x,1/2-y,z
loop_
_atom_site_type_symbol
_atom_site_label
_atom_site_fract_x
_atom_site_fract_y
_atom_site_fract_z
Si Si1 0.166366 0.917845 0.295375
Si Si2 0.638227 0.914527 0.792971
Si Si3 0.558177 0.086939 0.500000
Si Si4 0.237128 0.673117 0.798245
Si Si5 0.944843 0.083975 0.209287
O O1 0.176473 0.919836 0.500000
O O2 0.211786 0.873923 0.210912
O O3 0.109492 0.885920 0.268982
O O4 0.166004 0.000000 0.228646
O O5 0.590535 0.893529 0.671720
O O6 0.688341 0.870988 0.731798
O O7 0.647606 0.000000 0.770733
O O8 0.629105 0.903246 0.000000
O O9 0.500000 0.114104 0.500000
O O10 0.555706 0.000000 0.500000
O O11 0.250000 0.750000 0.716060
O O12 0.224174 0.686074 0.000000
O O13 0.000000 0.114408 0.267262
O O14 0.944648 0.000000 0.263955
O O15 0.944476 0.085330 0.000000
#
# Coordination Sequence:
#
# PCOD9487884 Si02
#       5
#    16  16   8  16  16
#     4  10  20  31  47  74 104 134 167 207 255 305
#     4   9  18  33  54  80 110 142 174 216 269 320
#     4   9  18  32  53  82 110 136 171 218 268 323
#     4  10  21  36  53  74 101 135 175 217 259 306
#     4   8  14  26  45  68  94 126 164 205 247 289
#
# _framework density 19.195079
#
# number of rings (size 3 to 8) (size 9 to 14) (size 15 to 20)
#    0.000    2.778    0.000    2.000    1.556    3.556 
#    0.000    4.444    0.000    1.333    0.000    3.111 
#    0.000    0.000    0.000    0.000    0.000    0.000 
#
# Total GULP energy -200533.530058 kJ/mol
# GULP energy per Si atom -5570.375835 kJ/mol
# Density = 1.915139 g / cm^3
# Si number density = 19.195079 Si / 1000 Ang^3
#
#
#
# Elastic Constant Matrix: (Units=GPa)
#
#
# Indices 1 2 3 4 5 6 
#
# 1 178.7761 54.8853 33.1624 0.0000 0.0000 0.0000
# 2 54.8853 50.0489 20.2141 0.0000 0.0000 0.0000
# 3 33.1624 20.2141 58.7872 0.0000 0.0000 0.0000
# 4 0.0000 0.0000 0.0000 4.6037 0.0000 0.0000
# 5 0.0000 0.0000 0.0000 0.0000 39.0157 0.0000
# 6 0.0000 0.0000 0.0000 0.0000 0.0000 -3.5868
#
#
#
# Elastic Compliance Matrix: (Units=1/GPa)
#
#
# Indices 1 2 3 4 5 6 
#
# 1 0.008606 -0.008683 -0.001869 0.000000 0.000000 0.000000
# 2 -0.008683 0.031963 -0.006092 0.000000 0.000000 0.000000
# 3 -0.001869 -0.006092 0.020160 0.000000 0.000000 0.000000
# 4 0.000000 0.000000 0.000000 0.217218 0.000000 0.000000
# 5 0.000000 0.000000 0.000000 0.000000 0.025631 0.000000
# 6 0.000000 0.000000 0.000000 0.000000 0.000000 -0.278802
#
#
# Mechanical properties :
#
#
# Convention : Reuss Voigt Hill
#
# Bulk Modulus (GPa) = 36.44316 56.01509 46.22913
# Shear Modulus (GPa) = 74.39254 19.96321 47.17787
#
# Velocity S-wave (km/s) = 6.23219 3.22843 4.96301
# Velocity P-wave (km/s) = 8.41509 6.56828 7.54838
#
# Compressibility (1/GPa) = 0.02743999
#
# Stress axis : x y z
#
# Youngs Moduli (GPa) = 116.19908 31.28644 49.60358
#
# Poissons Ratio (x) = 0.27165 0.09272
# Poissons Ratio (y) = 1.00891 0.30221
# Poissons Ratio (z) = 0.21719 0.19061
#
# Static dielectric constant tensor:
#      x y z
#    x 1.682890 0.000000 0.000000 
#    y 0.000000 1.667290 0.000000 
#    z 0.000000 0.000000 1.693470 
# 
# From -- ./inp_files/13759.got.cif
#   From: 2010.05.17/outbox.cif.g08.bks.cpg/sg65_7_cif.got.tgz:13759.got - 2010.06.03 17:01:31.
