data_PCOD9487792
_publ_section_title
;
Structure prediction by ZEFSAII (Michael W. Deem and Ramdas Pophale) SiO2 
 PCOD9487792
Probable space group: C M M M
;
_chemical_formula_sum "Si O2"
_cell_formula_units_Z 88
_cell_length_a 8.683119
_cell_length_b 29.146352
_cell_length_c 24.644218
_cell_angle_alpha 90.000000
_cell_angle_beta 90.000000
_cell_angle_gamma 90.000000
_cell_volume 6236.989320
_symmetry_space_group_name_H-M "C M M M"
_symmetry_group_IT_number 65
_symmetry_cell_setting 'orthorhombic'
loop_
_space_group_symop_operation_xyz
x,y,z
-x,-y,z
x,-y,-z
-x,y,-z
-x,-y,-z
x,y,-z
-x,y,z
x,-y,z
1/2+x,1/2+y,z
1/2-x,1/2-y,z
1/2+x,1/2-y,-z
1/2-x,1/2+y,-z
1/2-x,1/2-y,-z
1/2+x,1/2+y,-z
1/2-x,1/2+y,z
1/2+x,1/2-y,z
loop_
_atom_site_type_symbol
_atom_site_label
_atom_site_fract_x
_atom_site_fract_y
_atom_site_fract_z
Si Si1 0.685324 0.552165 0.936171
Si Si2 0.685098 0.697983 0.675979
Si Si3 0.684022 0.144612 0.896937
Si Si4 0.814108 0.801937 0.441557
Si Si5 0.183583 0.801231 0.000000
Si Si6 0.184536 0.698393 0.211677
O O1 0.500000 0.555960 0.932080
O O2 0.728510 0.500000 0.921364
O O3 0.763299 0.592086 0.902071
O O4 0.724385 0.558774 0.000000
O O5 0.500000 0.699176 0.679822
O O6 0.750000 0.750000 0.674975
O O7 0.730155 0.677312 0.617073
O O8 0.752931 0.678225 0.731524
O O9 0.500000 0.147577 0.902162
O O10 0.728840 0.168113 0.840188
O O11 0.759077 0.172068 0.946773
O O12 0.766557 0.822777 0.500000
O O13 0.750000 0.750000 0.441683
O O14 0.000000 0.799687 0.441330
O O15 0.250000 0.750000 0.000000
O O16 0.000000 0.799723 0.000000
O O17 0.250000 0.750000 0.205148
O O18 0.000000 0.701380 0.214525
#
# Coordination Sequence:
#
# PCOD9487792 Si02
#       6
#    16  16  16  16   8  16
#     4   9  18  33  52  72  90 107 128 158 201 248
#     4   9  15  23  36  51  69  97 131 165 201 238
#     4  11  22  34  48  67  86 107 137 168 205 248
#     4   8  13  20  30  46  67  90 120 160 201 236
#     4  12  24  36  49  64  85 110 136 171 209 245
#     4  10  20  31  42  57  79 107 139 173 203 238
#
# _framework density 14.109370999999999
#
# number of rings (size 3 to 8) (size 9 to 14) (size 15 to 20)
#    0.000    2.364    0.909    4.636    0.000    5.455 
#    0.000    0.909    0.000    0.000    0.000    0.000 
#    0.000    0.000    0.000    0.000    0.000    0.909 
#
# Total GULP energy -245012.607078 kJ/mol
# GULP energy per Si atom -5568.468343 kJ/mol
# Density = 1.407726 g / cm^3
# Si number density = 14.109371 Si / 1000 Ang^3
#
#
#
# Elastic Constant Matrix: (Units=GPa)
#
#
# Indices 1 2 3 4 5 6 
#
# 1 37.3773 21.2853 41.7039 0.0000 0.0000 0.0000
# 2 21.2853 61.5112 48.5534 0.0000 0.0000 0.0000
# 3 41.7039 48.5534 160.9330 0.0000 0.0000 0.0000
# 4 0.0000 0.0000 0.0000 1.2255 0.0000 0.0000
# 5 0.0000 0.0000 0.0000 0.0000 16.1785 0.0000
# 6 0.0000 0.0000 0.0000 0.0000 0.0000 17.6434
#
#
#
# Elastic Compliance Matrix: (Units=1/GPa)
#
#
# Indices 1 2 3 4 5 6 
#
# 1 0.040074 -0.007442 -0.008139 0.000000 0.000000 0.000000
# 2 -0.007442 0.022721 -0.004926 0.000000 0.000000 0.000000
# 3 -0.008139 -0.004926 0.009809 0.000000 0.000000 0.000000
# 4 0.000000 0.000000 0.000000 0.815971 0.000000 0.000000
# 5 0.000000 0.000000 0.000000 0.000000 0.061810 0.000000
# 6 0.000000 0.000000 0.000000 0.000000 0.000000 0.056678
#
#
# Mechanical properties :
#
#
# Convention : Reuss Voigt Hill
#
# Bulk Modulus (GPa) = 31.65745 53.65630 42.65687
# Shear Modulus (GPa) = 4.72318 16.89475 10.80897
#
# Velocity S-wave (km/s) = 1.83162 3.46412 2.77083
# Velocity P-wave (km/s) = 5.19220 7.35606 6.36673
#
# Compressibility (1/GPa) = 0.03158814
#
# Stress axis : x y z
#
# Youngs Moduli (GPa) = 24.95387 44.01179 101.94466
#
# Poissons Ratio (x) = 0.32756 0.82976
# Poissons Ratio (y) = 0.18572 0.50221
# Poissons Ratio (z) = 0.20311 0.21682
#
# Static dielectric constant tensor:
#      x y z
#    x 1.474990 0.000000 0.000000 
#    y 0.000000 1.428480 0.000000 
#    z 0.000000 0.000000 1.522440 
# 
# From -- ./inp_files/74030.got.cif
#   From: 2010.05.17/outbox.cif.g08.bks.cpg/sg65_38_cif.got.tgz:74030.got - 2010.06.03 17:01:31.
