data_PCOD9487235
_publ_section_title
;
Structure prediction by ZEFSAII (Michael W. Deem and Ramdas Pophale) SiO2 
 PCOD9487235
Probable space group: C M M M
;
_chemical_formula_sum "Si O2"
_cell_formula_units_Z 104
_cell_length_a 7.707796
_cell_length_b 27.359456
_cell_length_c 21.559192
_cell_angle_alpha 90.000000
_cell_angle_beta 90.000000
_cell_angle_gamma 90.000000
_cell_volume 4546.426243
_symmetry_space_group_name_H-M "C M M M"
_symmetry_group_IT_number 65
_symmetry_cell_setting 'orthorhombic'
loop_
_space_group_symop_operation_xyz
x,y,z
-x,-y,z
x,-y,-z
-x,y,-z
-x,-y,-z
x,y,-z
-x,y,z
x,-y,z
1/2+x,1/2+y,z
1/2-x,1/2-y,z
1/2+x,1/2-y,-z
1/2-x,1/2+y,-z
1/2-x,1/2-y,-z
1/2+x,1/2+y,-z
1/2-x,1/2+y,z
1/2+x,1/2-y,z
loop_
_atom_site_type_symbol
_atom_site_label
_atom_site_fract_x
_atom_site_fract_y
_atom_site_fract_z
Si Si1 0.702140 0.596310 0.872753
Si Si2 0.703539 0.442152 0.000000
Si Si3 0.301000 0.303674 0.300211
Si Si4 0.793213 0.694026 0.928284
Si Si5 0.212465 0.908987 0.262133
Si Si6 0.295582 0.052874 0.394046
Si Si7 0.210475 0.339823 0.431772
O O1 0.500000 0.581527 0.872708
O O2 0.783812 0.576495 0.936061
O O3 0.713473 0.654803 0.881460
O O4 0.771643 0.578224 0.807064
O O5 0.705165 0.500000 0.000000
O O6 0.500000 0.425716 0.000000
O O7 0.500000 0.308293 0.284287
O O8 0.250000 0.250000 0.278874
O O9 0.220007 0.353548 0.274205
O O10 0.277001 0.308433 0.374379
O O11 0.750000 0.750000 0.913239
O O12 0.000000 0.688220 0.927270
O O13 0.732990 0.685183 0.000000
O O14 0.274288 0.940807 0.319921
O O15 0.000000 0.910207 0.263726
O O16 0.500000 0.052127 0.409165
O O17 0.227852 0.103846 0.422066
O O18 0.222313 0.000000 0.413125
O O19 0.262638 0.322748 0.500000
O O20 0.000000 0.339805 0.428398
#
# Coordination Sequence:
#
# PCOD9487235 Si02
#       7
#    16   8  16  16  16  16  16
#     4  10  19  34  55  77 103 135 173 217 263 309
#     4   9  18  32  52  77 102 131 168 211 258 309
#     4  10  20  35  53  74 103 137 175 214 256 303
#     4  10  20  33  51  75 103 133 166 202 250 308
#     4   9  20  35  52  76 103 135 175 218 260 307
#     4   9  18  33  53  77 105 137 173 214 260 307
#     4   9  18  33  53  78 107 138 173 212 255 303
#
# _framework density 22.875109999999999
#
# number of rings (size 3 to 8) (size 9 to 14) (size 15 to 20)
#    0.000    2.538    0.769    0.923    0.000    4.308 
#    0.000    4.615    0.000    0.923    0.000    4.308 
#    0.000    0.000    0.000    0.000    0.000    0.000 
#
# Total GULP energy -290209.991830 kJ/mol
# GULP energy per Si atom -5580.961381 kJ/mol
# Density = 2.282305 g / cm^3
# Si number density = 22.875110 Si / 1000 Ang^3
#
#
#
# Elastic Constant Matrix: (Units=GPa)
#
#
# Indices 1 2 3 4 5 6 
#
# 1 39.0784 -2.2918 -15.4236 0.0000 0.0000 0.0000
# 2 -2.2918 49.6464 -23.2748 0.0000 0.0000 0.0000
# 3 -15.4236 -23.2748 56.5081 0.0000 0.0000 0.0000
# 4 0.0000 0.0000 0.0000 -3.5490 0.0000 0.0000
# 5 0.0000 0.0000 0.0000 0.0000 -6.4059 0.0000
# 6 0.0000 0.0000 0.0000 0.0000 0.0000 7.5709
#
#
#
# Elastic Compliance Matrix: (Units=1/GPa)
#
#
# Indices 1 2 3 4 5 6 
#
# 1 0.030300 0.006538 0.010963 0.000000 0.000000 0.000000
# 2 0.006538 0.026374 0.012647 0.000000 0.000000 0.000000
# 3 0.010963 0.012647 0.025898 0.000000 0.000000 0.000000
# 4 0.000000 0.000000 0.000000 -0.281772 0.000000 0.000000
# 5 0.000000 0.000000 0.000000 0.000000 -0.156105 0.000000
# 6 0.000000 0.000000 0.000000 0.000000 0.000000 0.132085
#
#
# Mechanical properties :
#
#
# Convention : Reuss Voigt Hill
#
# Bulk Modulus (GPa) = 6.99935 7.02806 7.01370
# Shear Modulus (GPa) = -21.19584 11.93807 -4.62888
#
# Velocity S-wave (km/s) = -3.04730 2.28695 -1.42406
# Velocity P-wave (km/s) = 3.05203 3.17057 0.60731
#
# Compressibility (1/GPa) = 0.14287051
#
# Stress axis : x y z
#
# Youngs Moduli (GPa) = 33.00320 37.91678 38.61261
#
# Poissons Ratio (x) = -0.24792 -0.42332
# Poissons Ratio (y) = -0.21579 -0.48835
# Poissons Ratio (z) = -0.36183 -0.47955
#
# Static dielectric constant tensor:
#      x y z
#    x 1.847800 0.000000 0.000000 
#    y 0.000000 1.870110 0.000000 
#    z 0.000000 0.000000 1.873010 
# 
# From -- ./inp_files/65860.got.cif
#   From: 2010.05.17/outbox.cif.g08.bks.cpg/sg65_33_cif.got.tgz:65860.got - 2010.06.03 17:01:31.
