data_PCOD9487402
_publ_section_title
;
Structure prediction by ZEFSAII (Michael W. Deem and Ramdas Pophale) SiO2 
 PCOD9487402
Probable space group: C M M M
;
_chemical_formula_sum "Si O2"
_cell_formula_units_Z 88
_cell_length_a 18.775698
_cell_length_b 28.872377
_cell_length_c 8.606168
_cell_angle_alpha 90.000000
_cell_angle_beta 90.000000
_cell_angle_gamma 90.000000
_cell_volume 4665.395334
_symmetry_space_group_name_H-M "C M M M"
_symmetry_group_IT_number 65
_symmetry_cell_setting 'orthorhombic'
loop_
_space_group_symop_operation_xyz
x,y,z
-x,-y,z
x,-y,-z
-x,y,-z
-x,-y,-z
x,y,-z
-x,y,z
x,-y,z
1/2+x,1/2+y,z
1/2-x,1/2-y,z
1/2+x,1/2-y,-z
1/2-x,1/2+y,-z
1/2-x,1/2-y,-z
1/2+x,1/2+y,-z
1/2-x,1/2+y,z
1/2+x,1/2-y,z
loop_
_atom_site_type_symbol
_atom_site_label
_atom_site_fract_x
_atom_site_fract_y
_atom_site_fract_z
Si Si1 0.136242 0.390411 0.184643
Si Si2 0.920248 0.054942 0.813749
Si Si3 0.314661 0.283195 0.688751
Si Si4 0.000000 0.445750 0.313618
Si Si5 0.211132 0.112002 0.685848
Si Si6 0.082109 0.705436 0.687801
O O1 0.070935 0.420465 0.251749
O O2 0.214228 0.405154 0.243520
O O3 0.124364 0.337686 0.241968
O O4 0.133567 0.392363 0.000000
O O5 0.856141 0.081256 0.732437
O O6 0.000000 0.070294 0.765240
O O7 0.915283 0.000000 0.783821
O O8 0.915004 0.061387 0.000000
O O9 0.313720 0.285217 0.500000
O O10 0.250000 0.250000 0.736958
O O11 0.304519 0.335474 0.743195
O O12 0.385008 0.254841 0.734054
O O13 0.000000 0.500000 0.270139
O O14 0.000000 0.442072 0.500000
O O15 0.219015 0.112954 0.500000
O O16 0.087253 0.701804 0.500000
O O17 0.000000 0.701400 0.732664
#
# Coordination Sequence:
#
# PCOD9487402 Si02
#       6
#    16  16  16   8  16  16
#     4  12  24  38  59  87 121 158 198 243 301 363
#     4   9  20  41  65  87 118 159 196 237 302 373
#     4   9  17  32  54  82 114 152 196 240 288 339
#     4  11  25  45  67  89 115 151 201 257 308 359
#     4  11  22  37  62  92 123 157 204 254 295 349
#     4  10  19  34  58  82 111 155 205 246 287 347
#
# _framework density 18.862280999999999
#
# number of rings (size 3 to 8) (size 9 to 14) (size 15 to 20)
#    0.000    1.727    2.727    3.000    0.000    2.909 
#    0.000    5.455    0.000    0.000    0.000    0.000 
#    0.000    0.000    0.000    0.000    0.000    0.000 
#
# Total GULP energy -245687.350204 kJ/mol
# GULP energy per Si atom -5583.803414 kJ/mol
# Density = 1.881935 g / cm^3
# Si number density = 18.862281 Si / 1000 Ang^3
#
#
#
# Elastic Constant Matrix: (Units=GPa)
#
#
# Indices 1 2 3 4 5 6 
#
# 1 150.0857 52.5995 37.2290 0.0000 0.0000 0.0000
# 2 52.5995 75.9486 25.0788 0.0000 0.0000 0.0000
# 3 37.2290 25.0788 36.1332 0.0000 0.0000 0.0000
# 4 0.0000 0.0000 0.0000 -7.4613 0.0000 0.0000
# 5 0.0000 0.0000 0.0000 0.0000 29.2933 0.0000
# 6 0.0000 0.0000 0.0000 0.0000 0.0000 34.4177
#
#
#
# Elastic Compliance Matrix: (Units=1/GPa)
#
#
# Indices 1 2 3 4 5 6 
#
# 1 0.010051 -0.004594 -0.007167 0.000000 0.000000 0.000000
# 2 -0.004594 0.019182 -0.008580 0.000000 0.000000 0.000000
# 3 -0.007167 -0.008580 0.041014 0.000000 0.000000 0.000000
# 4 0.000000 0.000000 0.000000 -0.134024 0.000000 0.000000
# 5 0.000000 0.000000 0.000000 0.000000 0.034137 0.000000
# 6 0.000000 0.000000 0.000000 0.000000 0.000000 0.029055
#
#
# Mechanical properties :
#
#
# Convention : Reuss Voigt Hill
#
# Bulk Modulus (GPa) = 33.82352 54.66468 44.24410
# Shear Modulus (GPa) = 100.09627 21.06729 60.58178
#
# Velocity S-wave (km/s) = 7.29261 3.34563 5.67342
# Velocity P-wave (km/s) = 9.42763 6.63085 8.15011
#
# Compressibility (1/GPa) = 0.02956522
#
# Stress axis : x y z
#
# Youngs Moduli (GPa) = 99.49532 52.13289 24.38164
#
# Poissons Ratio (x) = 0.23951 0.17474
# Poissons Ratio (y) = 0.45711 0.20919
# Poissons Ratio (z) = 0.71306 0.44729
#
# Static dielectric constant tensor:
#      x y z
#    x 1.656580 0.000000 0.000000 
#    y 0.000000 1.645650 0.000000 
#    z 0.000000 0.000000 1.646590 
# 
# From -- ./inp_files/10092.got.cif
#   From: 2010.05.17/outbox.cif.g08.bks.cpg/sg65_6_cif.got.tgz:10092.got - 2010.06.03 17:01:31.
