data_PCOD9487780
_publ_section_title
;
Structure prediction by ZEFSAII (Michael W. Deem and Ramdas Pophale) SiO2 
 PCOD9487780
Probable space group: C M M M
;
_chemical_formula_sum "Si O2"
_cell_formula_units_Z 96
_cell_length_a 26.558725
_cell_length_b 22.545731
_cell_length_c 7.361776
_cell_angle_alpha 90.000000
_cell_angle_beta 90.000000
_cell_angle_gamma 90.000000
_cell_volume 4408.127444
_symmetry_space_group_name_H-M "C M M M"
_symmetry_group_IT_number 65
_symmetry_cell_setting 'orthorhombic'
loop_
_space_group_symop_operation_xyz
x,y,z
-x,-y,z
x,-y,-z
-x,y,-z
-x,-y,-z
x,y,-z
-x,y,z
x,-y,z
1/2+x,1/2+y,z
1/2-x,1/2-y,z
1/2+x,1/2-y,-z
1/2-x,1/2+y,-z
1/2-x,1/2-y,-z
1/2+x,1/2+y,-z
1/2-x,1/2+y,z
1/2+x,1/2-y,z
loop_
_atom_site_type_symbol
_atom_site_label
_atom_site_fract_x
_atom_site_fract_y
_atom_site_fract_z
Si Si1 0.581080 0.000000 0.721067
Si Si2 0.353523 0.659669 0.283699
Si Si3 0.945856 0.369820 0.278548
Si Si4 0.650185 0.794380 0.722010
Si Si5 0.243050 0.624991 0.721963
Si Si6 0.443021 0.567191 0.782618
Si Si7 0.302498 0.000000 0.721105
O O1 0.557511 0.938185 0.779748
O O2 0.639391 0.000000 0.774064
O O3 0.578534 0.000000 0.500000
O O4 0.348411 0.664445 0.500000
O O5 0.358521 0.727105 0.216744
O O6 0.299965 0.635297 0.216091
O O7 0.400423 0.615799 0.255363
O O8 0.944498 0.369531 0.500000
O O9 0.896721 0.334586 0.218904
O O10 0.000000 0.344354 0.223765
O O11 0.650487 0.794791 0.500000
O O12 0.702974 0.824473 0.777244
O O13 0.242888 0.625251 0.500000
O O14 0.223577 0.560591 0.780080
O O15 0.500000 0.581933 0.718077
O O16 0.430443 0.500000 0.718037
O O17 0.445686 0.564040 0.000000
O O18 0.301694 0.000000 0.500000
#
# Coordination Sequence:
#
# PCOD9487780 Si02
#       7
#     8  16  16  16  16  16   8
#     4   9  13  20  31  46  72 112 160 202 234 265
#     4  10  20  30  49  78 103 126 158 201 243 287
#     4   9  15  21  31  48  74 114 163 203 231 269
#     4   9  16  27  39  58  95 137 164 189 236 293
#     4   9  16  26  40  62  96 132 165 198 239 288
#     4   9  20  40  60  74  94 127 162 197 245 305
#     4   9  14  21  36  55  80 120 165 203 232 271
#
# _framework density 21.777956
#
# number of rings (size 3 to 8) (size 9 to 14) (size 15 to 20)
#    0.000    2.833    1.667    1.250    1.167    4.333 
#    0.000    2.500    0.000    2.000    0.000    0.000 
#    0.000    0.000    0.000    0.000    0.000   10.083 
#
# Total GULP energy -267969.849996 kJ/mol
# GULP energy per Si atom -5582.705208 kJ/mol
# Density = 2.172839 g / cm^3
# Si number density = 21.777956 Si / 1000 Ang^3
#
#
#
# Elastic Constant Matrix: (Units=GPa)
#
#
# Indices 1 2 3 4 5 6 
#
# 1 206.1300 120.5065 1.2520 0.0000 0.0000 0.0000
# 2 120.5065 174.0558 1.5285 0.0000 0.0000 0.0000
# 3 1.2520 1.5285 77.3998 0.0000 0.0000 0.0000
# 4 0.0000 0.0000 0.0000 6.9714 0.0000 0.0000
# 5 0.0000 0.0000 0.0000 0.0000 30.5786 0.0000
# 6 0.0000 0.0000 0.0000 0.0000 0.0000 6.2290
#
#
#
# Elastic Compliance Matrix: (Units=1/GPa)
#
#
# Indices 1 2 3 4 5 6 
#
# 1 0.008150 -0.005643 -0.000020 0.000000 0.000000 0.000000
# 2 -0.005643 0.009653 -0.000099 0.000000 0.000000 0.000000
# 3 -0.000020 -0.000099 0.012922 0.000000 0.000000 0.000000
# 4 0.000000 0.000000 0.000000 0.143443 0.000000 0.000000
# 5 0.000000 0.000000 0.000000 0.000000 0.032703 0.000000
# 6 0.000000 0.000000 0.000000 0.000000 0.000000 0.160539
#
#
# Mechanical properties :
#
#
# Convention : Reuss Voigt Hill
#
# Bulk Modulus (GPa) = 52.08190 78.23996 65.16093
# Shear Modulus (GPa) = 12.97572 31.04237 22.00905
#
# Velocity S-wave (km/s) = 2.44359 3.77955 3.18246
# Velocity P-wave (km/s) = 5.65052 7.41963 6.59467
#
# Compressibility (1/GPa) = 0.01920053
#
# Stress axis : x y z
#
# Youngs Moduli (GPa) = 122.69751 103.59776 77.38606
#
# Poissons Ratio (x) = 0.58455 0.00158
# Poissons Ratio (y) = 0.69232 0.00769
# Poissons Ratio (z) = 0.00250 0.01029
#
# Static dielectric constant tensor:
#      x y z
#    x 1.768450 0.000000 0.000000 
#    y 0.000000 1.762760 0.000000 
#    z 0.000000 0.000000 1.860750 
# 
# From -- ./inp_files/14337.got.cif
#   From: 2010.05.17/outbox.cif.g08.bks.cpg/sg65_8_cif.got.tgz:14337.got - 2010.06.03 17:01:31.
