data_PCOD9487449
_publ_section_title
;
Structure prediction by ZEFSAII (Michael W. Deem and Ramdas Pophale) SiO2 
 PCOD9487449
Probable space group: C M M M
;
_chemical_formula_sum "Si O2"
_cell_formula_units_Z 66
_cell_length_a 30.896682
_cell_length_b 13.165007
_cell_length_c 7.973638
_cell_angle_alpha 90.000000
_cell_angle_beta 90.000000
_cell_angle_gamma 90.000000
_cell_volume 3243.317402
_symmetry_space_group_name_H-M "C M M M"
_symmetry_group_IT_number 65
_symmetry_cell_setting 'orthorhombic'
loop_
_space_group_symop_operation_xyz
x,y,z
-x,-y,z
x,-y,-z
-x,y,-z
-x,-y,-z
x,y,-z
-x,y,z
x,-y,z
1/2+x,1/2+y,z
1/2-x,1/2-y,z
1/2+x,1/2-y,-z
1/2-x,1/2+y,-z
1/2-x,1/2-y,-z
1/2+x,1/2+y,-z
1/2-x,1/2+y,z
1/2+x,1/2-y,z
loop_
_atom_site_type_symbol
_atom_site_label
_atom_site_fract_x
_atom_site_fract_y
_atom_site_fract_z
Si Si1 0.866642 0.621892 0.681860
Si Si2 0.500000 0.000000 0.000000
Si Si3 0.177977 0.877229 0.690486
Si Si4 0.273717 0.876408 0.194866
Si Si5 0.613165 0.378434 0.000000
Si Si6 0.575585 0.174699 0.000000
O O1 0.883438 0.654186 0.500000
O O2 0.865373 0.500000 0.682417
O O3 0.817051 0.655951 0.708903
O O4 0.896367 0.652142 0.835011
O O5 0.462697 0.907889 0.000000
O O6 0.166556 0.847798 0.500000
O O7 0.226877 0.844803 0.737564
O O8 0.143297 0.855505 0.836844
O O9 0.179940 0.000000 0.690191
O O10 0.273629 0.000000 0.201826
O O11 0.278359 0.848522 0.000000
O O12 0.602999 0.500000 0.000000
O O13 0.573076 0.298834 0.000000
#
# Coordination Sequence:
#
# PCOD9487449 Si02
#       6
#    16   2  16  16   8   8
#     4  10  19  34  59  91 127 169 217 266 321 382
#     4  12  28  52  80 104 124 158 192 266 362 408
#     4   9  16  29  51  83 127 178 226 265 300 350
#     4   9  14  24  48  81 125 176 222 266 310 355
#     4  10  22  39  62  92 127 171 212 255 306 374
#     4  12  24  45  69  94 128 154 201 262 332 404
#
# _framework density 20.349536000000001
#
# number of rings (size 3 to 8) (size 9 to 14) (size 15 to 20)
#    0.000    2.182    3.636    0.727    0.000    3.879 
#    0.000    3.939    0.000    2.909    0.000    0.000 
#    0.000    5.818    0.000    0.000    0.000    0.000 
#
# Total GULP energy -184029.495564 kJ/mol
# GULP energy per Si atom -5576.651381 kJ/mol
# Density = 2.030322 g / cm^3
# Si number density = 20.349536 Si / 1000 Ang^3
#
#
#
# Elastic Constant Matrix: (Units=GPa)
#
#
# Indices 1 2 3 4 5 6 
#
# 1 91.2971 63.2362 43.1339 0.0000 0.0000 0.0000
# 2 63.2362 126.3913 32.4254 0.0000 0.0000 0.0000
# 3 43.1339 32.4254 162.2094 0.0000 0.0000 0.0000
# 4 0.0000 0.0000 0.0000 -17.5822 0.0000 0.0000
# 5 0.0000 0.0000 0.0000 0.0000 -4.4405 0.0000
# 6 0.0000 0.0000 0.0000 0.0000 0.0000 36.5552
#
#
#
# Elastic Compliance Matrix: (Units=1/GPa)
#
#
# Indices 1 2 3 4 5 6 
#
# 1 0.018197 -0.008288 -0.003182 0.000000 0.000000 0.000000
# 2 -0.008288 0.012115 -0.000218 0.000000 0.000000 0.000000
# 3 -0.003182 -0.000218 0.007055 0.000000 0.000000 0.000000
# 4 0.000000 0.000000 0.000000 -0.056876 0.000000 0.000000
# 5 0.000000 0.000000 0.000000 0.000000 -0.225201 0.000000
# 6 0.000000 0.000000 0.000000 0.000000 0.000000 0.027356
#
#
# Mechanical properties :
#
#
# Convention : Reuss Voigt Hill
#
# Bulk Modulus (GPa) = 71.47762 73.05433 72.26597
# Shear Modulus (GPa) = -26.41111 18.97998 -3.71557
#
# Velocity S-wave (km/s) = -3.60651 3.05732 -1.35271
# Velocity P-wave (km/s) = 4.22595 6.95993 5.75757
#
# Compressibility (1/GPa) = 0.01399039
#
# Stress axis : x y z
#
# Youngs Moduli (GPa) = 54.95285 82.54544 141.75181
#
# Poissons Ratio (x) = 0.68415 0.45108
# Poissons Ratio (y) = 0.45546 0.03086
# Poissons Ratio (z) = 0.17487 0.01797
#
# Static dielectric constant tensor:
#      x y z
#    x 1.652630 0.000000 0.000000 
#    y 0.000000 1.859040 0.000000 
#    z 0.000000 0.000000 1.943760 
# 
# From -- ./inp_files/15667.got.cif
#   From: 2010.05.17/outbox.cif.g08.bks.cpg/sg65_8_cif.got.tgz:15667.got - 2010.06.03 17:01:31.
