data_PCOD9487842
_publ_section_title
;
Structure prediction by ZEFSAII (Michael W. Deem and Ramdas Pophale) SiO2 
 PCOD9487842
Probable space group: C M M M
;
_chemical_formula_sum "Si O2"
_cell_formula_units_Z 120
_cell_length_a 14.552942
_cell_length_b 17.748022
_cell_length_c 21.321445
_cell_angle_alpha 90.000000
_cell_angle_beta 90.000000
_cell_angle_gamma 90.000000
_cell_volume 5507.029353
_symmetry_space_group_name_H-M "C M M M"
_symmetry_group_IT_number 65
_symmetry_cell_setting 'orthorhombic'
loop_
_space_group_symop_operation_xyz
x,y,z
-x,-y,z
x,-y,-z
-x,y,-z
-x,-y,-z
x,y,-z
-x,y,z
x,-y,z
1/2+x,1/2+y,z
1/2-x,1/2-y,z
1/2+x,1/2-y,-z
1/2-x,1/2+y,-z
1/2-x,1/2-y,-z
1/2+x,1/2+y,-z
1/2-x,1/2+y,z
1/2+x,1/2-y,z
loop_
_atom_site_type_symbol
_atom_site_label
_atom_site_fract_x
_atom_site_fract_y
_atom_site_fract_z
Si Si1 0.112261 0.913860 0.069049
Si Si2 0.612844 0.000000 0.926094
Si Si3 0.389625 0.693497 0.822613
Si Si4 0.394589 0.140397 0.158243
Si Si5 0.633195 0.913931 0.702048
Si Si6 0.141295 0.090124 0.567221
Si Si7 0.354516 0.412028 0.705176
Si Si8 0.362048 0.090852 0.567601
O O1 0.146094 0.862247 0.124231
O O2 0.000000 0.914030 0.070538
O O3 0.141344 0.000000 0.077245
O O4 0.139861 0.887507 0.000000
O O5 0.643557 0.074097 0.886466
O O6 0.500000 0.000000 0.924839
O O7 0.639669 0.000000 0.000000
O O8 0.500000 0.699584 0.828255
O O9 0.351892 0.776562 0.836976
O O10 0.375368 0.650294 0.757197
O O11 0.500000 0.148618 0.136215
O O12 0.396361 0.117471 0.231415
O O13 0.743987 0.914631 0.701809
O O14 0.605034 0.878644 0.634898
O O15 0.602373 0.000000 0.700961
O O16 0.106844 0.120491 0.500000
O O17 0.109497 0.112987 0.636495
O O18 0.251642 0.101008 0.566812
O O19 0.125563 0.000000 0.566385
O O20 0.383948 0.500000 0.718653
O O21 0.396267 0.119275 0.500000
O O22 0.377727 0.000000 0.568265
#
# Coordination Sequence:
#
# PCOD9487842 Si02
#       8
#    16   8  16  16  16  16  16  16
#     4   8  14  26  45  67  90 118 150 183 223 269
#     4   9  18  34  56  78  95 115 152 200 245 288
#     4  10  20  31  45  69 100 129 158 194 233 278
#     4  10  20  33  50  72  96 124 156 192 241 289
#     4   9  16  28  48  71  96 124 158 197 239 287
#     4   7  10  19  37  62  91 120 155 200 239 270
#     4   9  17  28  46  73  99 128 164 196 234 283
#     4   7  10  18  36  64  92 116 147 192 239 278
#
# _framework density 21.790331999999999
#
# number of rings (size 3 to 8) (size 9 to 14) (size 15 to 20)
#    0.000    3.400    0.667    3.200    0.000    1.867 
#    0.000    2.667    0.000    2.400    0.000   11.200 
#    0.000    0.000    0.000    0.000    0.000    0.000 
#
# Total GULP energy -334079.908959 kJ/mol
# GULP energy per Si atom -5567.998483 kJ/mol
# Density = 2.174074 g / cm^3
# Si number density = 21.790332 Si / 1000 Ang^3
#
#
#
# Elastic Constant Matrix: (Units=GPa)
#
#
# Indices 1 2 3 4 5 6 
#
# 1 67.7191 12.2305 3.9500 0.0000 0.0000 0.0000
# 2 12.2305 86.8136 100.5292 0.0000 0.0000 0.0000
# 3 3.9500 100.5292 229.4923 0.0000 0.0000 0.0000
# 4 0.0000 0.0000 0.0000 -17.6976 0.0000 0.0000
# 5 0.0000 0.0000 0.0000 0.0000 19.0530 0.0000
# 6 0.0000 0.0000 0.0000 0.0000 0.0000 14.4777
#
#
#
# Elastic Compliance Matrix: (Units=1/GPa)
#
#
# Indices 1 2 3 4 5 6 
#
# 1 0.015367 -0.003772 0.001388 0.000000 0.000000 0.000000
# 2 -0.003772 0.024303 -0.010581 0.000000 0.000000 0.000000
# 3 0.001388 -0.010581 0.008969 0.000000 0.000000 0.000000
# 4 0.000000 0.000000 0.000000 -0.056505 0.000000 0.000000
# 5 0.000000 0.000000 0.000000 0.000000 0.052485 0.000000
# 6 0.000000 0.000000 0.000000 0.000000 0.000000 0.069072
#
#
# Mechanical properties :
#
#
# Convention : Reuss Voigt Hill
#
# Bulk Modulus (GPa) = 44.03678 68.60493 56.32085
# Shear Modulus (GPa) = 33.96949 20.98765 27.47857
#
# Velocity S-wave (km/s) = 3.95261 3.10685 3.55497
# Velocity P-wave (km/s) = 6.40968 6.66502 6.53860
#
# Compressibility (1/GPa) = 0.02270829
#
# Stress axis : x y z
#
# Youngs Moduli (GPa) = 65.07367 41.14703 111.50024
#
# Poissons Ratio (x) = 0.15521 -0.15475
# Poissons Ratio (y) = 0.24547 1.17979
# Poissons Ratio (z) = -0.09031 0.43538
#
# Static dielectric constant tensor:
#      x y z
#    x 1.878670 0.000000 0.000000 
#    y 0.000000 1.774330 0.000000 
#    z 0.000000 0.000000 1.838300 
# 
# From -- ./inp_files/64029.got.cif
#   From: 2010.05.17/outbox.cif.g08.bks.cpg/sg65_33_cif.got.tgz:64029.got - 2010.06.03 17:01:31.
