data_PCOD9487946
_publ_section_title
;
Structure prediction by ZEFSAII (Michael W. Deem and Ramdas Pophale) SiO2 
 PCOD9487946
Probable space group: C M M M
;
_chemical_formula_sum "Si O2"
_cell_formula_units_Z 96
_cell_length_a 8.061150
_cell_length_b 28.085673
_cell_length_c 25.190643
_cell_angle_alpha 90.000000
_cell_angle_beta 90.000000
_cell_angle_gamma 90.000000
_cell_volume 5703.232686
_symmetry_space_group_name_H-M "C M M M"
_symmetry_group_IT_number 65
_symmetry_cell_setting 'orthorhombic'
loop_
_space_group_symop_operation_xyz
x,y,z
-x,-y,z
x,-y,-z
-x,y,-z
-x,-y,-z
x,y,-z
-x,y,z
x,-y,z
1/2+x,1/2+y,z
1/2-x,1/2-y,z
1/2+x,1/2-y,-z
1/2-x,1/2+y,-z
1/2-x,1/2-y,-z
1/2+x,1/2+y,-z
1/2-x,1/2+y,z
1/2+x,1/2-y,z
loop_
_atom_site_type_symbol
_atom_site_label
_atom_site_fract_x
_atom_site_fract_y
_atom_site_fract_z
Si Si1 0.801771 0.942502 0.557094
Si Si2 0.803717 0.946793 0.888799
Si Si3 0.299138 0.444746 0.672596
Si Si4 0.800445 0.697232 0.834687
Si Si5 0.197985 0.600558 0.217940
Si Si6 0.197644 0.349821 0.941287
O O1 0.733236 0.925588 0.500000
O O2 0.738624 0.926495 0.614768
O O3 0.000000 0.933164 0.556294
O O4 0.784025 0.000000 0.557788
O O5 0.774122 0.933685 0.827053
O O6 0.725320 0.904236 0.922780
O O7 0.000000 0.946194 0.898915
O O8 0.739975 0.000000 0.899940
O O9 0.500000 0.444663 0.671279
O O10 0.246632 0.500000 0.678933
O O11 0.242425 0.415293 0.723167
O O12 0.750000 0.750000 0.819159
O O13 0.746049 0.654200 0.796427
O O14 0.736549 0.683252 0.893668
O O15 0.000000 0.695757 0.836222
O O16 0.000000 0.598250 0.211108
O O17 0.000000 0.342175 0.943640
O O18 0.267584 0.341445 0.000000
#
# Coordination Sequence:
#
# PCOD9487946 Si02
#       6
#    16  16  16  16  16  16
#     4   7  10  18  33  54  82 116 151 184 214 241
#     4  10  20  32  46  65  89 116 147 182 213 241
#     4   9  16  25  40  64  91 119 153 187 213 242
#     4   9  19  34  50  67  85 107 136 172 215 261
#     4  10  20  32  45  63  88 115 144 177 215 263
#     4   9  19  35  51  68  91 115 139 167 203 255
#
# _framework density 16.832559
#
# number of rings (size 3 to 8) (size 9 to 14) (size 15 to 20)
#    0.000    3.000    0.000    4.000    0.000    8.000 
#    0.000    1.667    0.000    0.500    0.000    2.333 
#    0.000    0.667    0.000    1.500    0.000    2.333 
#
# Total GULP energy -267315.188600 kJ/mol
# GULP energy per Si atom -5569.066429 kJ/mol
# Density = 1.679425 g / cm^3
# Si number density = 16.832559 Si / 1000 Ang^3
#
#
#
# Elastic Constant Matrix: (Units=GPa)
#
#
# Indices 1 2 3 4 5 6 
#
# 1 10.1224 -0.5911 2.0931 0.0000 0.0000 0.0000
# 2 -0.5911 60.1229 18.4520 0.0000 0.0000 0.0000
# 3 2.0931 18.4520 113.6127 0.0000 0.0000 0.0000
# 4 0.0000 0.0000 0.0000 8.7312 0.0000 0.0000
# 5 0.0000 0.0000 0.0000 0.0000 22.1348 0.0000
# 6 0.0000 0.0000 0.0000 0.0000 0.0000 16.0603
#
#
#
# Elastic Compliance Matrix: (Units=1/GPa)
#
#
# Indices 1 2 3 4 5 6 
#
# 1 0.099318 0.001619 -0.002093 0.000000 0.000000 0.000000
# 2 0.001619 0.017532 -0.002877 0.000000 0.000000 0.000000
# 3 -0.002093 -0.002877 0.009308 0.000000 0.000000 0.000000
# 4 0.000000 0.000000 0.000000 0.114532 0.000000 0.000000
# 5 0.000000 0.000000 0.000000 0.000000 0.045178 0.000000
# 6 0.000000 0.000000 0.000000 0.000000 0.000000 0.062265
#
#
# Mechanical properties :
#
#
# Convention : Reuss Voigt Hill
#
# Bulk Modulus (GPa) = 8.37132 24.86289 16.61711
# Shear Modulus (GPa) = 12.66935 20.31218 16.49077
#
# Velocity S-wave (km/s) = 2.74646 3.47756 3.13340
# Velocity P-wave (km/s) = 3.87833 5.56123 4.79420
#
# Compressibility (1/GPa) = 0.11945543
#
# Stress axis : x y z
#
# Youngs Moduli (GPa) = 10.06862 57.04008 107.43826
#
# Poissons Ratio (x) = -0.09233 0.22483
# Poissons Ratio (y) = -0.01630 0.30912
# Poissons Ratio (z) = 0.02107 0.16411
#
# Static dielectric constant tensor:
#      x y z
#    x 1.606980 0.000000 0.000000 
#    y 0.000000 1.548420 0.000000 
#    z 0.000000 0.000000 1.610520 
# 
# From -- ./inp_files/67837.got.cif
#   From: 2010.05.17/outbox.cif.g08.bks.cpg/sg65_34_cif.got.tgz:67837.got - 2010.06.03 17:01:31.
