data_PCOD9487096
_publ_section_title
;
Structure prediction by ZEFSAII (Michael W. Deem and Ramdas Pophale) SiO2 
 PCOD9487096
Probable space group: C M M M
;
_chemical_formula_sum "Si O2"
_cell_formula_units_Z 120
_cell_length_a 13.057740
_cell_length_b 13.448420
_cell_length_c 32.347548
_cell_angle_alpha 90.000000
_cell_angle_beta 90.000000
_cell_angle_gamma 90.000000
_cell_volume 5680.422601
_symmetry_space_group_name_H-M "C M M M"
_symmetry_group_IT_number 65
_symmetry_cell_setting 'orthorhombic'
loop_
_space_group_symop_operation_xyz
x,y,z
-x,-y,z
x,-y,-z
-x,y,-z
-x,-y,-z
x,y,-z
-x,y,z
x,-y,z
1/2+x,1/2+y,z
1/2-x,1/2-y,z
1/2+x,1/2-y,-z
1/2-x,1/2+y,-z
1/2-x,1/2-y,-z
1/2+x,1/2+y,-z
1/2-x,1/2+y,z
1/2+x,1/2-y,z
loop_
_atom_site_type_symbol
_atom_site_label
_atom_site_fract_x
_atom_site_fract_y
_atom_site_fract_z
Si Si1 0.624465 0.614563 0.952733
Si Si2 0.617098 0.814154 0.365440
Si Si3 0.875986 0.384221 0.454812
Si Si4 0.819796 0.111134 0.328084
Si Si5 0.875870 0.500000 0.047373
Si Si6 0.882904 0.682869 0.193683
Si Si7 0.375770 0.194023 0.098512
Si Si8 0.178244 0.111126 0.769741
O O1 0.500000 0.615122 0.952944
O O2 0.653269 0.500000 0.943720
O O3 0.654898 0.699622 0.920369
O O4 0.655336 0.640249 0.000000
O O5 0.500000 0.849428 0.361137
O O6 0.651368 0.827797 0.413015
O O7 0.699235 0.872143 0.337573
O O8 0.624606 0.699533 0.352051
O O9 0.839659 0.348462 0.500000
O O10 0.845530 0.500000 0.450409
O O11 0.000000 0.382385 0.456156
O O12 0.838656 0.122104 0.279234
O O13 0.849710 0.000000 0.340660
O O14 0.845524 0.601194 0.070111
O O15 0.000000 0.500000 0.047634
O O16 0.843924 0.500000 0.000000
O O17 0.848055 0.676047 0.146060
O O18 0.876356 0.798611 0.206906
O O19 0.799071 0.625973 0.220870
O O20 0.000000 0.647963 0.197887
O O21 0.500000 0.195226 0.098620
O O22 0.146670 0.000000 0.782359
#
# Coordination Sequence:
#
# PCOD9487096 Si02
#       8
#    16  16  16  16   8  16  16  16
#     4   8  13  22  37  60  94 132 167 207 255 305
#     4  10  19  33  57  82 108 146 190 234 281 335
#     4   8  14  26  47  78 113 147 186 232 280 332
#     4  10  22  38  54  79 113 143 180 238 287 339
#     4   9  16  26  42  70 110 144 171 213 267 323
#     4  10  21  37  58  84 112 141 181 232 275 326
#     4   9  17  27  44  72 104 136 172 216 265 318
#     4  10  23  41  58  79 112 149 186 225 286 349
#
# _framework density 21.125188000000001
#
# number of rings (size 3 to 8) (size 9 to 14) (size 15 to 20)
#    0.000    2.733    0.000    3.200    0.933    5.867 
#    0.000    5.333    0.000    1.200    0.000    9.333 
#    0.000    0.000    0.000    0.000    0.000    0.000 
#
# Total GULP energy -335159.166625 kJ/mol
# GULP energy per Si atom -5585.986110 kJ/mol
# Density = 2.107711 g / cm^3
# Si number density = 21.125188 Si / 1000 Ang^3
#
#
#
# Elastic Constant Matrix: (Units=GPa)
#
#
# Indices 1 2 3 4 5 6 
#
# 1 54.4041 -16.5690 -11.0784 0.0000 0.0000 0.0000
# 2 -16.5690 100.0854 51.6284 0.0000 0.0000 0.0000
# 3 -11.0784 51.6284 100.1775 0.0000 0.0000 0.0000
# 4 0.0000 0.0000 0.0000 20.5252 0.0000 0.0000
# 5 0.0000 0.0000 0.0000 0.0000 19.3392 0.0000
# 6 0.0000 0.0000 0.0000 0.0000 0.0000 20.8899
#
#
#
# Elastic Compliance Matrix: (Units=1/GPa)
#
#
# Indices 1 2 3 4 5 6 
#
# 1 0.019390 0.002866 0.000667 0.000000 0.000000 0.000000
# 2 0.002866 0.014033 -0.006915 0.000000 0.000000 0.000000
# 3 0.000667 -0.006915 0.013620 0.000000 0.000000 0.000000
# 4 0.000000 0.000000 0.000000 0.048721 0.000000 0.000000
# 5 0.000000 0.000000 0.000000 0.000000 0.051708 0.000000
# 6 0.000000 0.000000 0.000000 0.000000 0.000000 0.047870
#
#
# Mechanical properties :
#
#
# Convention : Reuss Voigt Hill
#
# Bulk Modulus (GPa) = 24.82733 33.62544 29.22639
# Shear Modulus (GPa) = 23.19836 27.52993 25.36414
#
# Velocity S-wave (km/s) = 3.31741 3.61387 3.46881
# Velocity P-wave (km/s) = 5.14311 5.77627 5.46886
#
# Compressibility (1/GPa) = 0.04027819
#
# Stress axis : x y z
#
# Youngs Moduli (GPa) = 51.57400 71.26012 73.42124
#
# Poissons Ratio (x) = -0.20421 -0.04900
# Poissons Ratio (y) = -0.14779 0.50773
# Poissons Ratio (z) = -0.03442 0.49279
#
# Static dielectric constant tensor:
#      x y z
#    x 1.832590 0.000000 0.000000 
#    y 0.000000 1.729780 0.000000 
#    z 0.000000 0.000000 1.731780 
# 
# From -- ./inp_files/77752.got.cif
#   From: 2010.05.17/outbox.cif.g08.bks.cpg/sg65_39_cif.got.tgz:77752.got - 2010.06.03 17:01:31.
