data_PCOD9487246
_publ_section_title
;
Structure prediction by ZEFSAII (Michael W. Deem and Ramdas Pophale) SiO2 
 PCOD9487246
Probable space group: C M M M
;
_chemical_formula_sum "Si O2"
_cell_formula_units_Z 104
_cell_length_a 27.367545
_cell_length_b 24.018771
_cell_length_c 7.866981
_cell_angle_alpha 90.000000
_cell_angle_beta 90.000000
_cell_angle_gamma 90.000000
_cell_volume 5171.240352
_symmetry_space_group_name_H-M "C M M M"
_symmetry_group_IT_number 65
_symmetry_cell_setting 'orthorhombic'
loop_
_space_group_symop_operation_xyz
x,y,z
-x,-y,z
x,-y,-z
-x,y,-z
-x,-y,-z
x,y,-z
-x,y,z
x,-y,z
1/2+x,1/2+y,z
1/2-x,1/2-y,z
1/2+x,1/2-y,-z
1/2-x,1/2+y,-z
1/2-x,1/2-y,-z
1/2+x,1/2+y,-z
1/2-x,1/2+y,z
1/2+x,1/2-y,z
loop_
_atom_site_type_symbol
_atom_site_label
_atom_site_fract_x
_atom_site_fract_y
_atom_site_fract_z
Si Si1 0.945330 0.566270 0.802142
Si Si2 0.823621 0.061787 0.704407
Si Si3 0.210487 0.562854 0.708192
Si Si4 0.944023 0.260020 0.203550
Si Si5 0.368445 0.145461 0.311669
Si Si6 0.910810 0.138990 0.203882
Si Si7 0.000000 0.063211 0.208265
O O1 0.944458 0.500000 0.790857
O O2 0.905737 0.593805 0.685652
O O3 0.000000 0.585579 0.760849
O O4 0.935822 0.581365 0.000000
O O5 0.823535 0.060224 0.500000
O O6 0.767202 0.068719 0.757449
O O7 0.858810 0.111626 0.757029
O O8 0.840442 0.000000 0.764936
O O9 0.207810 0.563564 0.500000
O O10 0.194119 0.500000 0.760642
O O11 0.178396 0.615077 0.771569
O O12 0.902588 0.306176 0.237325
O O13 0.923971 0.200553 0.268653
O O14 0.000000 0.270939 0.266650
O O15 0.948238 0.256619 0.000000
O O16 0.353994 0.163977 0.500000
O O17 0.952224 0.096334 0.265137
O O18 0.914761 0.141956 0.000000
O O19 0.000000 0.000000 0.266469
O O20 0.000000 0.062875 0.000000
#
# Coordination Sequence:
#
# PCOD9487246 Si02
#       7
#    16  16  16  16  16  16   8
#     4   9  18  32  48  68  98 134 167 205 263 328
#     4   9  18  34  56  80 107 138 167 202 259 321
#     4   8  16  33  54  75 103 138 172 209 259 318
#     4  10  21  38  55  71 101 145 183 212 255 316
#     4  11  21  32  51  77 100 130 178 227 265 300
#     4  10  19  34  55  79 104 136 176 214 253 302
#     4   9  16  28  51  81 107 129 160 205 254 305
#
# _framework density 20.111228000000001
#
# number of rings (size 3 to 8) (size 9 to 14) (size 15 to 20)
#    0.000    2.538    0.769    3.231    0.000    4.923 
#    0.000    3.462    0.000    7.846    0.000    0.000 
#    0.000    0.000    0.000    0.000    0.000    0.000 
#
# Total GULP energy -289817.309732 kJ/mol
# GULP energy per Si atom -5573.409803 kJ/mol
# Density = 2.006545 g / cm^3
# Si number density = 20.111228 Si / 1000 Ang^3
#
#
#
# Elastic Constant Matrix: (Units=GPa)
#
#
# Indices 1 2 3 4 5 6 
#
# 1 112.0403 82.9088 7.4071 0.0000 0.0000 0.0000
# 2 82.9088 140.1731 8.0075 0.0000 0.0000 0.0000
# 3 7.4071 8.0075 14.5368 0.0000 0.0000 0.0000
# 4 0.0000 0.0000 0.0000 13.7894 0.0000 0.0000
# 5 0.0000 0.0000 0.0000 0.0000 19.6824 0.0000
# 6 0.0000 0.0000 0.0000 0.0000 0.0000 29.6937
#
#
#
# Elastic Compliance Matrix: (Units=1/GPa)
#
#
# Indices 1 2 3 4 5 6 
#
# 1 0.016001 -0.009291 -0.003035 0.000000 0.000000 0.000000
# 2 -0.009291 0.012760 -0.002295 0.000000 0.000000 0.000000
# 3 -0.003035 -0.002295 0.071602 0.000000 0.000000 0.000000
# 4 0.000000 0.000000 0.000000 0.072519 0.000000 0.000000
# 5 0.000000 0.000000 0.000000 0.000000 0.050807 0.000000
# 6 0.000000 0.000000 0.000000 0.000000 0.000000 0.033677
#
#
# Mechanical properties :
#
#
# Convention : Reuss Voigt Hill
#
# Bulk Modulus (GPa) = 14.06059 51.48855 32.77457
# Shear Modulus (GPa) = 16.11261 23.86155 19.98708
#
# Velocity S-wave (km/s) = 2.83357 3.44827 3.15592
# Velocity P-wave (km/s) = 4.20858 6.44294 5.44167
#
# Compressibility (1/GPa) = 0.07112077
#
# Stress axis : x y z
#
# Youngs Moduli (GPa) = 62.49527 78.36706 13.96618
#
# Poissons Ratio (x) = 0.72810 0.04239
# Poissons Ratio (y) = 0.58064 0.03205
# Poissons Ratio (z) = 0.18970 0.17985
#
# Static dielectric constant tensor:
#      x y z
#    x 1.722830 0.000000 0.000000 
#    y 0.000000 1.727200 0.000000 
#    z 0.000000 0.000000 1.775200 
# 
# From -- ./inp_files/16745.got.cif
#   From: 2010.05.17/outbox.cif.g08.bks.cpg/sg65_9_cif.got.tgz:16745.got - 2010.06.03 17:01:31.
