data_PCOD9487245
_publ_section_title
;
Structure prediction by ZEFSAII (Michael W. Deem and Ramdas Pophale) SiO2 
 PCOD9487245
Probable space group: C M M M
;
_chemical_formula_sum "Si O2"
_cell_formula_units_Z 104
_cell_length_a 13.124826
_cell_length_b 22.733584
_cell_length_c 18.342266
_cell_angle_alpha 90.000000
_cell_angle_beta 90.000000
_cell_angle_gamma 90.000000
_cell_volume 5472.861408
_symmetry_space_group_name_H-M "C M M M"
_symmetry_group_IT_number 65
_symmetry_cell_setting 'orthorhombic'
loop_
_space_group_symop_operation_xyz
x,y,z
-x,-y,z
x,-y,-z
-x,y,-z
-x,-y,-z
x,y,-z
-x,y,z
x,-y,z
1/2+x,1/2+y,z
1/2-x,1/2-y,z
1/2+x,1/2-y,-z
1/2-x,1/2+y,-z
1/2-x,1/2-y,-z
1/2+x,1/2+y,-z
1/2-x,1/2+y,z
1/2+x,1/2-y,z
loop_
_atom_site_type_symbol
_atom_site_label
_atom_site_fract_x
_atom_site_fract_y
_atom_site_fract_z
Si Si1 0.620414 0.668783 0.658098
Si Si2 0.617878 0.708840 0.175074
Si Si3 0.500000 0.929330 0.087015
Si Si4 0.623189 0.217916 0.420157
Si Si5 0.324325 0.153384 0.156127
Si Si6 0.236971 0.934964 0.414586
Si Si7 0.119568 0.614216 0.311083
O O1 0.500000 0.662436 0.650486
O O2 0.635924 0.693905 0.739395
O O3 0.657236 0.717250 0.600494
O O4 0.669824 0.608513 0.633533
O O5 0.500000 0.693881 0.157246
O O6 0.630667 0.779651 0.164252
O O7 0.706810 0.670413 0.135287
O O8 0.599430 0.889618 0.110803
O O9 0.500000 0.000000 0.112615
O O10 0.500000 0.932357 0.000000
O O11 0.656838 0.198975 0.500000
O O12 0.500000 0.219878 0.422875
O O13 0.642522 0.174507 0.353895
O O14 0.324828 0.120165 0.234177
O O15 0.246553 0.919431 0.500000
O O16 0.343162 0.932702 0.370262
O O17 0.193605 0.000000 0.411997
O O18 0.000000 0.609168 0.295941
#
# Coordination Sequence:
#
# PCOD9487245 Si02
#       7
#    16  16   8  16  16  16  16
#     4  10  19  34  55  78 110 149 202 263 325 374
#     4  10  19  35  63  99 135 169 209 272 332 384
#     4  11  26  48  74 106 141 175 212 249 293 371
#     4   9  17  28  47  76 106 140 189 247 313 378
#     4  11  20  38  67  97 133 171 211 258 320 383
#     4  11  25  39  48  68 107 158 218 271 319 381
#     4  11  20  35  55  81 110 145 198 256 322 390
#
# _framework density 19.002856000000001
#
# number of rings (size 3 to 8) (size 9 to 14) (size 15 to 20)
#    0.000    1.615    4.615    0.923    0.000    3.692 
#    0.000    4.615    0.000    0.462    0.000    1.077 
#    0.000    0.000    0.000    0.000    0.000    0.000 
#
# Total GULP energy -289614.749161 kJ/mol
# GULP energy per Si atom -5569.514407 kJ/mol
# Density = 1.895960 g / cm^3
# Si number density = 19.002856 Si / 1000 Ang^3
#
#
#
# Elastic Constant Matrix: (Units=GPa)
#
#
# Indices 1 2 3 4 5 6 
#
# 1 109.9105 40.2238 22.6724 0.0000 0.0000 0.0000
# 2 40.2238 123.1639 29.1045 0.0000 0.0000 0.0000
# 3 22.6724 29.1045 55.0929 0.0000 0.0000 0.0000
# 4 0.0000 0.0000 0.0000 24.8595 0.0000 0.0000
# 5 0.0000 0.0000 0.0000 0.0000 18.2672 0.0000
# 6 0.0000 0.0000 0.0000 0.0000 0.0000 16.1658
#
#
#
# Elastic Compliance Matrix: (Units=1/GPa)
#
#
# Indices 1 2 3 4 5 6 
#
# 1 0.010732 -0.002812 -0.002931 0.000000 0.000000 0.000000
# 2 -0.002812 0.010014 -0.004133 0.000000 0.000000 0.000000
# 3 -0.002931 -0.004133 0.021541 0.000000 0.000000 0.000000
# 4 0.000000 0.000000 0.000000 0.040226 0.000000 0.000000
# 5 0.000000 0.000000 0.000000 0.000000 0.054743 0.000000
# 6 0.000000 0.000000 0.000000 0.000000 0.000000 0.061859
#
#
# Mechanical properties :
#
#
# Convention : Reuss Voigt Hill
#
# Bulk Modulus (GPa) = 44.37607 52.46318 48.41962
# Shear Modulus (GPa) = 22.08681 24.93628 23.51154
#
# Velocity S-wave (km/s) = 3.41293 3.62641 3.52129
# Velocity P-wave (km/s) = 6.23970 6.72328 6.48600
#
# Compressibility (1/GPa) = 0.02253467
#
# Stress axis : x y z
#
# Youngs Moduli (GPa) = 93.17808 99.85598 46.42372
#
# Poissons Ratio (x) = 0.28083 0.13606
# Poissons Ratio (y) = 0.26205 0.19187
# Poissons Ratio (z) = 0.27309 0.41271
#
# Static dielectric constant tensor:
#      x y z
#    x 1.787410 0.000000 0.000000 
#    y 0.000000 1.687670 0.000000 
#    z 0.000000 0.000000 1.643140 
# 
# From -- ./inp_files/53305.got.cif
#   From: 2010.05.17/outbox.cif.g08.bks.cpg/sg65_27_cif.got.tgz:53305.got - 2010.06.03 17:01:31.
