data_PCOD9487860
_publ_section_title
;
Structure prediction by ZEFSAII (Michael W. Deem and Ramdas Pophale) SiO2 
 PCOD9487860
Probable space group: C M M M
;
_chemical_formula_sum "Si O2"
_cell_formula_units_Z 104
_cell_length_a 8.839837
_cell_length_b 31.335777
_cell_length_c 23.728078
_cell_angle_alpha 90.000000
_cell_angle_beta 90.000000
_cell_angle_gamma 90.000000
_cell_volume 6572.752609
_symmetry_space_group_name_H-M "C M M M"
_symmetry_group_IT_number 65
_symmetry_cell_setting 'orthorhombic'
loop_
_space_group_symop_operation_xyz
x,y,z
-x,-y,z
x,-y,-z
-x,y,-z
-x,-y,-z
x,y,-z
-x,y,z
x,-y,z
1/2+x,1/2+y,z
1/2-x,1/2-y,z
1/2+x,1/2-y,-z
1/2-x,1/2+y,-z
1/2-x,1/2-y,-z
1/2+x,1/2+y,-z
1/2-x,1/2+y,z
1/2+x,1/2-y,z
loop_
_atom_site_type_symbol
_atom_site_label
_atom_site_fract_x
_atom_site_fract_y
_atom_site_fract_z
Si Si1 0.683891 0.000000 0.562831
Si Si2 0.320583 0.821890 0.563209
Si Si3 0.680323 0.049768 0.180412
Si Si4 0.820794 0.588676 0.383270
Si Si5 0.178988 0.883592 0.731949
Si Si6 0.824565 0.948387 0.062043
Si Si7 0.681452 0.294730 0.317445
O O1 0.726100 0.043346 0.592963
O O2 0.500000 0.000000 0.560626
O O3 0.743430 0.000000 0.500000
O O4 0.267975 0.809778 0.500000
O O5 0.500000 0.811806 0.566948
O O6 0.305117 0.872988 0.572028
O O7 0.239284 0.802770 0.618238
O O8 0.500000 0.049336 0.184984
O O9 0.745275 0.085043 0.222896
O O10 0.729604 0.062529 0.117112
O O11 0.732280 0.000000 0.190765
O O12 0.721400 0.598239 0.329152
O O13 0.000000 0.587612 0.367669
O O14 0.228374 0.834041 0.723409
O O15 0.000000 0.883896 0.741780
O O16 0.000000 0.935345 0.069157
O O17 0.823348 0.000000 0.060109
O O18 0.771671 0.933518 0.000000
O O19 0.500000 0.293383 0.318675
O O20 0.750000 0.250000 0.298404
#
# Coordination Sequence:
#
# PCOD9487860 Si02
#       7
#     8  16  16  16  16  16  16
#     4   9  16  26  43  65  85 109 146 189 228 269
#     4   9  17  30  48  68  90 116 145 180 227 283
#     4  10  20  31  46  70  99 132 169 203 233 267
#     4   9  17  29  45  64  87 115 149 190 230 273
#     4  10  21  35  49  67  92 122 155 192 235 282
#     4   8  14  26  44  66  95 132 169 201 235 272
#     4  10  21  36  53  71  90 115 148 188 238 291
#
# _framework density 15.822898
#
# number of rings (size 3 to 8) (size 9 to 14) (size 15 to 20)
#    0.000    2.692    0.000    2.308    1.077    5.538 
#    0.000    1.538    0.000    1.846    0.000    0.000 
#    0.000    0.615    0.000    2.000    0.000    2.462 
#
# Total GULP energy -289566.804765 kJ/mol
# GULP energy per Si atom -5568.592399 kJ/mol
# Density = 1.578688 g / cm^3
# Si number density = 15.822898 Si / 1000 Ang^3
#
#
#
# Elastic Constant Matrix: (Units=GPa)
#
#
# Indices 1 2 3 4 5 6 
#
# 1 32.6218 30.2559 30.1389 0.0000 0.0000 0.0000
# 2 30.2559 107.4585 46.4098 0.0000 0.0000 0.0000
# 3 30.1389 46.4098 90.4933 0.0000 0.0000 0.0000
# 4 0.0000 0.0000 0.0000 9.6124 0.0000 0.0000
# 5 0.0000 0.0000 0.0000 0.0000 26.1903 0.0000
# 6 0.0000 0.0000 0.0000 0.0000 0.0000 16.9762
#
#
#
# Elastic Compliance Matrix: (Units=1/GPa)
#
#
# Indices 1 2 3 4 5 6 
#
# 1 0.050085 -0.008860 -0.012137 0.000000 0.000000 0.000000
# 2 -0.008860 0.013521 -0.003983 0.000000 0.000000 0.000000
# 3 -0.012137 -0.003983 0.017136 0.000000 0.000000 0.000000
# 4 0.000000 0.000000 0.000000 0.104032 0.000000 0.000000
# 5 0.000000 0.000000 0.000000 0.000000 0.038182 0.000000
# 6 0.000000 0.000000 0.000000 0.000000 0.000000 0.058906
#
#
# Mechanical properties :
#
#
# Convention : Reuss Voigt Hill
#
# Bulk Modulus (GPa) = 32.48782 49.35364 40.92073
# Shear Modulus (GPa) = 14.61635 18.80705 16.71170
#
# Velocity S-wave (km/s) = 3.04262 3.45134 3.25341
# Velocity P-wave (km/s) = 5.73760 6.86596 6.32698
#
# Compressibility (1/GPa) = 0.03078077
#
# Stress axis : x y z
#
# Youngs Moduli (GPa) = 19.96601 73.95946 58.35775
#
# Poissons Ratio (x) = 0.65529 0.70829
# Poissons Ratio (y) = 0.17690 0.23246
# Poissons Ratio (z) = 0.24233 0.29461
#
# Static dielectric constant tensor:
#      x y z
#    x 1.539150 0.000000 0.000000 
#    y 0.000000 1.537860 0.000000 
#    z 0.000000 0.000000 1.521580 
# 
# From -- ./inp_files/68513.got.cif
#   From: 2010.05.17/outbox.cif.g08.bks.cpg/sg65_35_cif.got.tgz:68513.got - 2010.06.03 17:01:31.
