data_PCOD9487248
_publ_section_title
;
Structure prediction by ZEFSAII (Michael W. Deem and Ramdas Pophale) SiO2 
 PCOD9487248
Probable space group: C M M M
;
_chemical_formula_sum "Si O2"
_cell_formula_units_Z 92
_cell_length_a 26.277835
_cell_length_b 11.365957
_cell_length_c 19.010457
_cell_angle_alpha 90.000000
_cell_angle_beta 90.000000
_cell_angle_gamma 90.000000
_cell_volume 5677.905331
_symmetry_space_group_name_H-M "C M M M"
_symmetry_group_IT_number 65
_symmetry_cell_setting 'orthorhombic'
loop_
_space_group_symop_operation_xyz
x,y,z
-x,-y,z
x,-y,-z
-x,y,-z
-x,-y,-z
x,y,-z
-x,y,z
x,-y,z
1/2+x,1/2+y,z
1/2-x,1/2-y,z
1/2+x,1/2-y,-z
1/2-x,1/2+y,-z
1/2-x,1/2-y,-z
1/2+x,1/2+y,-z
1/2-x,1/2+y,z
1/2+x,1/2-y,z
loop_
_atom_site_type_symbol
_atom_site_label
_atom_site_fract_x
_atom_site_fract_y
_atom_site_fract_z
Si Si1 0.559948 0.000000 0.641283
Si Si2 0.396928 0.639032 0.850002
Si Si3 0.846626 0.136414 0.640033
Si Si4 0.128315 0.500000 0.500000
Si Si5 0.189634 0.737940 0.500000
Si Si6 0.058541 0.142484 0.000000
Si Si7 0.059443 0.249728 0.287989
Si Si8 0.786934 0.861436 0.214613
O O1 0.569319 0.883997 0.688211
O O2 0.500000 0.000000 0.621747
O O3 0.593493 0.000000 0.570411
O O4 0.410700 0.500000 0.839480
O O5 0.425329 0.717246 0.791689
O O6 0.336641 0.646670 0.835334
O O7 0.413146 0.675696 0.928114
O O8 0.830337 0.203982 0.571185
O O9 0.902748 0.172676 0.664885
O O10 0.809171 0.156252 0.706451
O O11 0.845358 0.000000 0.624098
O O12 0.165826 0.609671 0.500000
O O13 0.250000 0.750000 0.500000
O O14 0.000000 0.183500 0.000000
O O15 0.057490 0.000000 0.000000
O O16 0.000000 0.224768 0.298974
O O17 0.750000 0.750000 0.200292
O O18 0.768211 0.000000 0.210092
#
# Coordination Sequence:
#
# PCOD9487248 Si02
#       8
#     8  16  16   4   8   8  16  16
#     4  10  21  38  58  79 106 139 183 227 262 316
#     4   9  18  32  52  80 114 138 171 219 265 314
#     4  10  21  37  53  74 106 133 169 220 271 320
#     4  12  23  42  60  76 104 144 185 218 274 318
#     4  12  25  39  54  76 101 135 176 219 268 319
#     4   9  16  28  51  83 111 141 173 206 258 323
#     4  10  19  34  55  79 105 137 174 216 263 315
#     4   9  18  35  53  77 106 141 180 224 270 312
#
# _framework density 16.203157999999998
#
# number of rings (size 3 to 8) (size 9 to 14) (size 15 to 20)
#    0.000    2.174    1.739    3.000    1.217    2.087 
#    7.826    0.870    0.000    1.565    0.000    2.435 
#    0.000    0.000    0.000    0.000    0.000    0.000 
#
# Total GULP energy -256315.926785 kJ/mol
# GULP energy per Si atom -5572.085365 kJ/mol
# Density = 1.616628 g / cm^3
# Si number density = 16.203158 Si / 1000 Ang^3
#
#
#
# Elastic Constant Matrix: (Units=GPa)
#
#
# Indices 1 2 3 4 5 6 
#
# 1 86.2023 58.9384 66.6749 0.0000 0.0000 0.0000
# 2 58.9384 95.6329 63.4781 0.0000 0.0000 0.0000
# 3 66.6749 63.4781 149.9265 0.0000 0.0000 0.0000
# 4 0.0000 0.0000 0.0000 27.2608 0.0000 0.0000
# 5 0.0000 0.0000 0.0000 0.0000 5.1419 0.0000
# 6 0.0000 0.0000 0.0000 0.0000 0.0000 29.5192
#
#
#
# Elastic Compliance Matrix: (Units=1/GPa)
#
#
# Indices 1 2 3 4 5 6 
#
# 1 0.023345 -0.010427 -0.005967 0.000000 0.000000 0.000000
# 2 -0.010427 0.019201 -0.003493 0.000000 0.000000 0.000000
# 3 -0.005967 -0.003493 0.010803 0.000000 0.000000 0.000000
# 4 0.000000 0.000000 0.000000 0.036683 0.000000 0.000000
# 5 0.000000 0.000000 0.000000 0.000000 0.194481 0.000000
# 6 0.000000 0.000000 0.000000 0.000000 0.000000 0.033876
#
#
# Mechanical properties :
#
#
# Convention : Reuss Voigt Hill
#
# Bulk Modulus (GPa) = 73.66385 78.88272 76.27328
# Shear Modulus (GPa) = 13.78601 21.89573 17.84087
#
# Velocity S-wave (km/s) = 2.92005 3.68003 3.32184
# Velocity P-wave (km/s) = 7.54521 8.17594 7.86690
#
# Compressibility (1/GPa) = 0.01357518
#
# Stress axis : x y z
#
# Youngs Moduli (GPa) = 42.83553 52.08098 92.57098
#
# Poissons Ratio (x) = 0.54303 0.55241
# Poissons Ratio (y) = 0.44663 0.32332
# Poissons Ratio (z) = 0.25562 0.18190
#
# Static dielectric constant tensor:
#      x y z
#    x 1.547590 0.000000 0.000000 
#    y 0.000000 1.433940 0.000000 
#    z 0.000000 0.000000 1.536020 
# 
# From -- ./inp_files/57519.got.cif
#   From: 2010.05.17/outbox.cif.g08.bks.cpg/sg65_29_cif.got.tgz:57519.got - 2010.06.03 17:01:31.
