data_PCOD9487049
_publ_section_title
;
Structure prediction by ZEFSAII (Michael W. Deem and Ramdas Pophale) SiO2 
 PCOD9487049
Probable space group: C M M M
;
_chemical_formula_sum "Si O2"
_cell_formula_units_Z 50
_cell_length_a 15.464015
_cell_length_b 8.933174
_cell_length_c 19.318727
_cell_angle_alpha 90.000000
_cell_angle_beta 90.000000
_cell_angle_gamma 90.000000
_cell_volume 2668.741818
_symmetry_space_group_name_H-M "C M M M"
_symmetry_group_IT_number 65
_symmetry_cell_setting 'orthorhombic'
loop_
_space_group_symop_operation_xyz
x,y,z
-x,-y,z
x,-y,-z
-x,y,-z
-x,-y,-z
x,y,-z
-x,y,z
x,-y,z
1/2+x,1/2+y,z
1/2-x,1/2-y,z
1/2+x,1/2-y,-z
1/2-x,1/2+y,-z
1/2-x,1/2-y,-z
1/2+x,1/2+y,-z
1/2-x,1/2+y,z
1/2+x,1/2-y,z
loop_
_atom_site_type_symbol
_atom_site_label
_atom_site_fract_x
_atom_site_fract_y
_atom_site_fract_z
Si Si1 0.605649 0.827423 0.000000
Si Si2 0.000000 0.000000 0.500000
Si Si3 0.000000 0.165713 0.643136
Si Si4 0.604968 0.326350 0.856856
Si Si5 0.159680 0.678291 0.285283
O O1 0.632417 0.742398 0.069663
O O2 0.500000 0.827492 0.000000
O O3 0.633935 0.000000 0.000000
O O4 0.000000 0.872301 0.437861
O O5 0.916525 0.254895 0.668018
O O6 0.000000 0.000000 0.678720
O O7 0.500000 0.319797 0.853827
O O8 0.630877 0.500000 0.850993
O O9 0.641030 0.232079 0.793039
O O10 0.162132 0.500000 0.288636
O O11 0.250000 0.750000 0.307617
#
# Coordination Sequence:
#
# PCOD9487049 Si02
#       5
#     8   2   8  16  16
#     4   9  17  29  48  77 120 164 221 274 324 380
#     4   8  24  44  82  96 136 164 206 244 320 392
#     4  10  21  45  71  98 130 165 202 258 310 377
#     4  10  19  33  55  85 121 170 218 273 326 380
#     4  12  24  39  65  98 132 171 219 265 318 379
#
# _framework density 18.735420000000001
#
# number of rings (size 3 to 8) (size 9 to 14) (size 15 to 20)
#    0.480    1.120    1.600    4.800    0.000    3.200 
#    0.000    3.200    0.000    0.000    0.000    0.000 
#    0.000    0.000    0.000    0.000    0.000    0.000 
#
# Total GULP energy -139448.114922 kJ/mol
# GULP energy per Si atom -5577.924597 kJ/mol
# Density = 1.869278 g / cm^3
# Si number density = 18.735420 Si / 1000 Ang^3
#
#
#
# Elastic Constant Matrix: (Units=GPa)
#
#
# Indices 1 2 3 4 5 6 
#
# 1 109.0247 75.0569 60.1702 0.0000 0.0000 0.0000
# 2 75.0569 212.0209 73.9175 0.0000 0.0000 0.0000
# 3 60.1702 73.9175 147.6696 0.0000 0.0000 0.0000
# 4 0.0000 0.0000 0.0000 20.7499 0.0000 0.0000
# 5 0.0000 0.0000 0.0000 0.0000 -10.0553 0.0000
# 6 0.0000 0.0000 0.0000 0.0000 0.0000 24.2830
#
#
#
# Elastic Compliance Matrix: (Units=1/GPa)
#
#
# Indices 1 2 3 4 5 6 
#
# 1 0.013704 -0.003519 -0.003823 0.000000 0.000000 0.000000
# 2 -0.003519 0.006617 -0.001878 0.000000 0.000000 0.000000
# 3 -0.003823 -0.001878 0.009270 0.000000 0.000000 0.000000
# 4 0.000000 0.000000 0.000000 0.048193 0.000000 0.000000
# 5 0.000000 0.000000 0.000000 0.000000 -0.099450 0.000000
# 6 0.000000 0.000000 0.000000 0.000000 0.000000 0.041181
#
#
# Mechanical properties :
#
#
# Convention : Reuss Voigt Hill
#
# Bulk Modulus (GPa) = 89.67489 98.55604 94.11546
# Shear Modulus (GPa) = 119.98444 24.30023 72.14233
#
# Velocity S-wave (km/s) = 8.01127 3.60532 6.21204
# Velocity P-wave (km/s) = 11.55603 8.36956 10.08938
#
# Compressibility (1/GPa) = 0.01115139
#
# Stress axis : x y z
#
# Youngs Moduli (GPa) = 72.96923 151.12427 107.87722
#
# Poissons Ratio (x) = 0.53177 0.41239
# Poissons Ratio (y) = 0.25676 0.20265
# Poissons Ratio (z) = 0.27894 0.28388
#
# Static dielectric constant tensor:
#      x y z
#    x 1.571390 0.000000 0.000000 
#    y 0.000000 1.626640 0.000000 
#    z 0.000000 0.000000 1.611010 
# 
# From -- ./inp_files/48678.got.cif
#   From: 2010.05.17/outbox.cif.g08.bks.cpg/sg65_25_cif.got.tgz:48678.got - 2010.06.03 17:01:31.
