data_PCOD9487273
_publ_section_title
;
Structure prediction by ZEFSAII (Michael W. Deem and Ramdas Pophale) SiO2 
 PCOD9487273
Probable space group: C M M M
;
_chemical_formula_sum "Si O2"
_cell_formula_units_Z 120
_cell_length_a 8.713494
_cell_length_b 26.735029
_cell_length_c 27.978138
_cell_angle_alpha 90.000000
_cell_angle_beta 90.000000
_cell_angle_gamma 90.000000
_cell_volume 6517.661540
_symmetry_space_group_name_H-M "C M M M"
_symmetry_group_IT_number 65
_symmetry_cell_setting 'orthorhombic'
loop_
_space_group_symop_operation_xyz
x,y,z
-x,-y,z
x,-y,-z
-x,y,-z
-x,-y,-z
x,y,-z
-x,y,z
x,-y,z
1/2+x,1/2+y,z
1/2-x,1/2-y,z
1/2+x,1/2-y,-z
1/2-x,1/2+y,-z
1/2-x,1/2-y,-z
1/2+x,1/2+y,-z
1/2-x,1/2+y,z
1/2+x,1/2-y,z
loop_
_atom_site_type_symbol
_atom_site_label
_atom_site_fract_x
_atom_site_fract_y
_atom_site_fract_z
Si Si1 0.684621 0.055828 0.912764
Si Si2 0.683994 0.557718 0.289602
Si Si3 0.815235 0.158247 0.051844
Si Si4 0.813099 0.000000 0.444909
Si Si5 0.317291 0.096525 0.191210
Si Si6 0.816431 0.802306 0.153543
Si Si7 0.814111 0.899260 0.389329
Si Si8 0.316240 0.195836 0.555810
O O1 0.500000 0.059644 0.918225
O O2 0.762307 0.101065 0.940828
O O3 0.720466 0.064763 0.856556
O O4 0.731815 0.000000 0.927168
O O5 0.500000 0.561933 0.284395
O O6 0.717836 0.500000 0.301903
O O7 0.759943 0.571761 0.239667
O O8 0.731386 0.592072 0.334190
O O9 0.760917 0.187770 0.098787
O O10 0.000000 0.159783 0.052320
O O11 0.760752 0.176684 0.000000
O O12 0.765374 0.050902 0.418381
O O13 0.763522 0.000000 0.500000
O O14 0.000000 0.000000 0.444075
O O15 0.500000 0.101976 0.192382
O O16 0.241055 0.150521 0.183588
O O17 0.750000 0.750000 0.170706
O O18 0.000000 0.800979 0.153797
O O19 0.747454 0.849526 0.412805
O O20 0.000000 0.897058 0.391232
O O21 0.272442 0.187604 0.500000
O O22 0.500000 0.197267 0.558671
O O23 0.250000 0.250000 0.570035
#
# Coordination Sequence:
#
# PCOD9487273 Si02
#       8
#    16  16  16   8  16  16  16  16
#     4   9  18  32  49  71 100 133 172 216 258 306
#     4  10  20  35  55  81 114 147 180 220 268 321
#     4   9  19  34  50  72 103 136 170 208 254 312
#     4   9  16  28  51  81 111 147 187 221 260 317
#     4  10  20  35  55  78 103 136 178 221 266 318
#     4  10  20  36  57  79 104 134 170 216 267 317
#     4  10  19  34  55  82 114 148 186 227 271 325
#     4  10  21  37  57  81 109 144 187 233 279 326
#
# _framework density 18.411511999999998
#
# number of rings (size 3 to 8) (size 9 to 14) (size 15 to 20)
#    0.000    2.333    0.667    2.000    0.000    4.800 
#    0.000    2.333    0.000    4.400    0.000    0.000 
#    0.000    0.000    0.000    0.000    0.000    0.000 
#
# Total GULP energy -334868.189941 kJ/mol
# GULP energy per Si atom -5581.136499 kJ/mol
# Density = 1.836961 g / cm^3
# Si number density = 18.411512 Si / 1000 Ang^3
#
#
#
# Elastic Constant Matrix: (Units=GPa)
#
#
# Indices 1 2 3 4 5 6 
#
# 1 19.2655 19.1178 18.9164 0.0000 0.0000 0.0000
# 2 19.1178 81.4760 6.7298 0.0000 0.0000 0.0000
# 3 18.9164 6.7298 67.3929 0.0000 0.0000 0.0000
# 4 0.0000 0.0000 0.0000 -3.6294 0.0000 0.0000
# 5 0.0000 0.0000 0.0000 0.0000 21.6428 0.0000
# 6 0.0000 0.0000 0.0000 0.0000 0.0000 28.6383
#
#
#
# Elastic Compliance Matrix: (Units=1/GPa)
#
#
# Indices 1 2 3 4 5 6 
#
# 1 0.097253 -0.020736 -0.025227 0.000000 0.000000 0.000000
# 2 -0.020736 0.016797 0.004143 0.000000 0.000000 0.000000
# 3 -0.025227 0.004143 0.021506 0.000000 0.000000 0.000000
# 4 0.000000 0.000000 0.000000 -0.275526 0.000000 0.000000
# 5 0.000000 0.000000 0.000000 0.000000 0.046205 0.000000
# 6 0.000000 0.000000 0.000000 0.000000 0.000000 0.034918
#
#
# Mechanical properties :
#
#
# Convention : Reuss Voigt Hill
#
# Bulk Modulus (GPa) = 19.26210 28.62916 23.94563
# Shear Modulus (GPa) = 118.76687 17.55501 68.16094
#
# Velocity S-wave (km/s) = 8.04033 3.09120 6.09108
# Velocity P-wave (km/s) = 9.83263 5.32203 7.90584
#
# Compressibility (1/GPa) = 0.05191541
#
# Stress axis : x y z
#
# Youngs Moduli (GPa) = 10.28241 59.53461 46.49950
#
# Poissons Ratio (x) = 1.23452 1.17305
# Poissons Ratio (y) = 0.21322 -0.19265
# Poissons Ratio (z) = 0.25940 -0.24666
#
# Static dielectric constant tensor:
#      x y z
#    x 1.620110 0.000000 0.000000 
#    y 0.000000 1.605990 0.000000 
#    z 0.000000 0.000000 1.638340 
# 
# From -- ./inp_files/73965.got.cif
#   From: 2010.05.17/outbox.cif.g08.bks.cpg/sg65_37_cif.got.tgz:73965.got - 2010.06.03 17:01:31.
