data_PCOD9487467
_publ_section_title
;
Structure prediction by ZEFSAII (Michael W. Deem and Ramdas Pophale) SiO2 
 PCOD9487467
Probable space group: C M M M
;
_chemical_formula_sum "Si O2"
_cell_formula_units_Z 120
_cell_length_a 28.870954
_cell_length_b 13.902171
_cell_length_c 17.413653
_cell_angle_alpha 90.000000
_cell_angle_beta 90.000000
_cell_angle_gamma 90.000000
_cell_volume 6989.299436
_symmetry_space_group_name_H-M "C M M M"
_symmetry_group_IT_number 65
_symmetry_cell_setting 'orthorhombic'
loop_
_space_group_symop_operation_xyz
x,y,z
-x,-y,z
x,-y,-z
-x,y,-z
-x,-y,-z
x,y,-z
-x,y,z
x,-y,z
1/2+x,1/2+y,z
1/2-x,1/2-y,z
1/2+x,1/2-y,-z
1/2-x,1/2+y,-z
1/2-x,1/2-y,-z
1/2+x,1/2+y,-z
1/2-x,1/2+y,z
1/2+x,1/2-y,z
loop_
_atom_site_type_symbol
_atom_site_label
_atom_site_fract_x
_atom_site_fract_y
_atom_site_fract_z
Si Si1 0.446791 0.386160 0.209639
Si Si2 0.500000 0.885034 0.591010
Si Si3 0.584159 0.753052 0.348833
Si Si4 0.635169 0.613786 0.911018
Si Si5 0.659886 0.608416 0.649236
Si Si6 0.195913 0.226641 0.200048
Si Si7 0.162341 0.608481 0.288276
Si Si8 0.258038 0.136506 0.585071
O O1 0.500000 0.371509 0.185286
O O2 0.442889 0.500000 0.231509
O O3 0.435495 0.312499 0.278793
O O4 0.409884 0.368478 0.142026
O O5 0.500000 0.894570 0.500000
O O6 0.456586 0.815641 0.613336
O O7 0.500000 0.000000 0.619970
O O8 0.619226 0.673960 0.387465
O O9 0.619878 0.835642 0.324851
O O10 0.645476 0.500000 0.905285
O O11 0.677184 0.673583 0.874565
O O12 0.626948 0.636832 0.000000
O O13 0.643876 0.500000 0.666487
O O14 0.677856 0.661911 0.727366
O O15 0.706200 0.600261 0.599223
O O16 0.250000 0.250000 0.203094
O O17 0.173755 0.330715 0.213002
O O18 0.151142 0.500000 0.271395
O O19 0.205783 0.611540 0.347902
O O20 0.275234 0.109939 0.500000
O O21 0.250000 0.250000 0.587668
#
# Coordination Sequence:
#
# PCOD9487467 Si02
#       8
#    16   8  16  16  16  16  16  16
#     4  10  19  34  62  92 116 143 178 227 289 354
#     4  11  26  46  63  81 112 153 199 253 297 330
#     4  11  21  38  59  85 110 146 191 240 287 338
#     4  10  21  37  59  88 120 150 182 229 291 350
#     4  11  20  34  58  86 114 149 187 232 293 354
#     4  11  20  34  53  82 113 157 195 234 268 326
#     4  11  21  34  55  83 108 146 198 240 281 329
#     4  11  21  36  53  78 116 150 187 240 294 340
#
# _framework density 17.169103
#
# number of rings (size 3 to 8) (size 9 to 14) (size 15 to 20)
#    0.000    1.267    7.333    1.600    0.000    3.200 
#    0.000    1.333    0.000    3.200    0.000    0.000 
#    0.000    1.600    0.000    0.000    0.000    0.000 
#
# Total GULP energy -334109.636769 kJ/mol
# GULP energy per Si atom -5568.493946 kJ/mol
# Density = 1.713002 g / cm^3
# Si number density = 17.169103 Si / 1000 Ang^3
#
#
#
# Elastic Constant Matrix: (Units=GPa)
#
#
# Indices 1 2 3 4 5 6 
#
# 1 111.9757 39.9178 16.7690 0.0000 0.0000 0.0000
# 2 39.9178 143.0345 28.2524 0.0000 0.0000 0.0000
# 3 16.7690 28.2524 63.7818 0.0000 0.0000 0.0000
# 4 0.0000 0.0000 0.0000 14.2961 0.0000 0.0000
# 5 0.0000 0.0000 0.0000 0.0000 17.7615 0.0000
# 6 0.0000 0.0000 0.0000 0.0000 0.0000 -868.3744
#
#
#
# Elastic Compliance Matrix: (Units=1/GPa)
#
#
# Indices 1 2 3 4 5 6 
#
# 1 0.010052 -0.002502 -0.001534 0.000000 0.000000 0.000000
# 2 -0.002502 0.008285 -0.003012 0.000000 0.000000 0.000000
# 3 -0.001534 -0.003012 0.017416 0.000000 0.000000 0.000000
# 4 0.000000 0.000000 0.000000 0.069949 0.000000 0.000000
# 5 0.000000 0.000000 0.000000 0.000000 0.056302 0.000000
# 6 0.000000 0.000000 0.000000 0.000000 0.000000 -0.001152
#
#
# Mechanical properties :
#
#
# Convention : Reuss Voigt Hill
#
# Bulk Modulus (GPa) = 46.17715 54.29670 50.23692
# Shear Modulus (GPa) = 27.44726 -151.67318 -62.11296
#
# Velocity S-wave (km/s) = 4.00264 -9.40917 -6.02127
# Velocity P-wave (km/s) = 6.95093 9.29248 4.36089
#
# Compressibility (1/GPa) = 0.02165573
#
# Stress axis : x y z
#
# Youngs Moduli (GPa) = 99.47930 120.70665 57.41859
#
# Poissons Ratio (x) = 0.30204 0.08811
# Poissons Ratio (y) = 0.24893 0.17293
# Poissons Ratio (z) = 0.15265 0.36354
#
# Static dielectric constant tensor:
#      x y z
#    x 1.632130 0.000000 0.000000 
#    y 0.000000 1.597950 0.000000 
#    z 0.000000 0.000000 1.588980 
# 
# From -- ./inp_files/48101.got.cif
#   From: 2010.05.17/outbox.cif.g08.bks.cpg/sg65_25_cif.got.tgz:48101.got - 2010.06.03 17:01:31.
