data_PCOD9487798
_publ_section_title
;
Structure prediction by ZEFSAII (Michael W. Deem and Ramdas Pophale) SiO2 
 PCOD9487798
Probable space group: C M M M
;
_chemical_formula_sum "Si O2"
_cell_formula_units_Z 72
_cell_length_a 18.240781
_cell_length_b 24.468385
_cell_length_c 7.320230
_cell_angle_alpha 90.000000
_cell_angle_beta 90.000000
_cell_angle_gamma 90.000000
_cell_volume 3267.183004
_symmetry_space_group_name_H-M "C M M M"
_symmetry_group_IT_number 65
_symmetry_cell_setting 'orthorhombic'
loop_
_space_group_symop_operation_xyz
x,y,z
-x,-y,z
x,-y,-z
-x,y,-z
-x,-y,-z
x,y,-z
-x,y,z
x,-y,z
1/2+x,1/2+y,z
1/2-x,1/2-y,z
1/2+x,1/2-y,-z
1/2-x,1/2+y,-z
1/2-x,1/2-y,-z
1/2+x,1/2+y,-z
1/2-x,1/2+y,z
1/2+x,1/2-y,z
loop_
_atom_site_type_symbol
_atom_site_label
_atom_site_fract_x
_atom_site_fract_y
_atom_site_fract_z
Si Si1 0.179623 0.278853 0.293411
Si Si2 0.086154 0.823687 0.219687
Si Si3 0.910953 0.500000 0.288688
Si Si4 0.412944 0.558582 0.221403
Si Si5 0.585250 0.120194 0.723968
O O1 0.202016 0.294761 0.500000
O O2 0.250000 0.250000 0.204617
O O3 0.121724 0.229858 0.299844
O O4 0.139315 0.331810 0.214239
O O5 0.117334 0.882722 0.281646
O O6 0.000000 0.823823 0.259908
O O7 0.094348 0.820699 0.000000
O O8 0.887369 0.500000 0.500000
O O9 0.890586 0.559530 0.213817
O O10 0.000000 0.500000 0.286168
O O11 0.500000 0.558441 0.265872
O O12 0.382192 0.500000 0.283975
O O13 0.409089 0.558842 0.000000
O O14 0.584839 0.120115 0.500000
O O15 0.500000 0.129665 0.777408
#
# Coordination Sequence:
#
# PCOD9487798 Si02
#       5
#    16  16   8  16  16
#     4  10  20  31  43  61  92 127 153 177 216 273
#     4   9  17  29  47  70  90 111 148 193 230 265
#     4   7  10  18  36  62  83  97 130 187 232 256
#     4   7  10  19  38  63  86 106 134 177 221 255
#     4   8  13  23  41  63  83 106 141 185 226 259
#
# _framework density 22.037333
#
# number of rings (size 3 to 8) (size 9 to 14) (size 15 to 20)
#    0.000    3.667    0.000    4.000    0.000    1.778 
#    0.000    0.000    2.444    0.667    0.000    3.889 
#    0.000    4.444    0.000    0.000    0.000    0.000 
#
# Total GULP energy -200471.318084 kJ/mol
# GULP energy per Si atom -5568.647725 kJ/mol
# Density = 2.198718 g / cm^3
# Si number density = 22.037333 Si / 1000 Ang^3
#
#
#
# Elastic Constant Matrix: (Units=GPa)
#
#
# Indices 1 2 3 4 5 6 
#
# 1 51.1681 67.6692 10.1180 0.0000 0.0000 0.0000
# 2 67.6692 242.4811 12.3110 0.0000 0.0000 0.0000
# 3 10.1180 12.3110 81.4093 0.0000 0.0000 0.0000
# 4 0.0000 0.0000 0.0000 1.6894 0.0000 0.0000
# 5 0.0000 0.0000 0.0000 0.0000 -7.3735 0.0000
# 6 0.0000 0.0000 0.0000 0.0000 0.0000 5.0642
#
#
#
# Elastic Compliance Matrix: (Units=1/GPa)
#
#
# Indices 1 2 3 4 5 6 
#
# 1 0.031515 -0.008663 -0.002607 0.000000 0.000000 0.000000
# 2 -0.008663 0.006537 0.000088 0.000000 0.000000 0.000000
# 3 -0.002607 0.000088 0.012594 0.000000 0.000000 0.000000
# 4 0.000000 0.000000 0.000000 0.591917 0.000000 0.000000
# 5 0.000000 0.000000 0.000000 0.000000 -0.135621 0.000000
# 6 0.000000 0.000000 0.000000 0.000000 0.000000 0.197465
#
#
# Mechanical properties :
#
#
# Convention : Reuss Voigt Hill
#
# Bulk Modulus (GPa) = 35.35613 61.69498 48.52556
# Shear Modulus (GPa) = 6.79165 18.87338 12.83252
#
# Velocity S-wave (km/s) = 1.75743 2.92965 2.41572
# Velocity P-wave (km/s) = 4.49407 6.28492 5.46338
#
# Compressibility (1/GPa) = 0.02828363
#
# Stress axis : x y z
#
# Youngs Moduli (GPa) = 31.73092 152.97503 79.40106
#
# Poissons Ratio (x) = 1.32515 0.20699
# Poissons Ratio (y) = 0.27487 -0.00699
# Poissons Ratio (z) = 0.08272 -0.01347
#
# Static dielectric constant tensor:
#      x y z
#    x 1.765610 0.000000 0.000000 
#    y 0.000000 1.858350 0.000000 
#    z 0.000000 0.000000 1.858500 
# 
# From -- ./inp_files/11459.got.cif
#   From: 2010.05.17/outbox.cif.g08.bks.cpg/sg65_6_cif.got.tgz:11459.got - 2010.06.03 17:01:31.
