data_PCOD9487705
_publ_section_title
;
Structure prediction by ZEFSAII (Michael W. Deem and Ramdas Pophale) SiO2 
 PCOD9487705
Probable space group: C M M M
;
_chemical_formula_sum "Si O2"
_cell_formula_units_Z 116
_cell_length_a 25.944925
_cell_length_b 29.188365
_cell_length_c 7.705629
_cell_angle_alpha 90.000000
_cell_angle_beta 90.000000
_cell_angle_gamma 90.000000
_cell_volume 5835.395329
_symmetry_space_group_name_H-M "C M M M"
_symmetry_group_IT_number 65
_symmetry_cell_setting 'orthorhombic'
loop_
_space_group_symop_operation_xyz
x,y,z
-x,-y,z
x,-y,-z
-x,y,-z
-x,-y,-z
x,y,-z
-x,y,z
x,-y,z
1/2+x,1/2+y,z
1/2-x,1/2-y,z
1/2+x,1/2-y,-z
1/2-x,1/2+y,-z
1/2-x,1/2-y,-z
1/2+x,1/2+y,-z
1/2-x,1/2+y,z
1/2+x,1/2-y,z
loop_
_atom_site_type_symbol
_atom_site_label
_atom_site_fract_x
_atom_site_fract_y
_atom_site_fract_z
Si Si1 0.700007 0.776852 0.709615
Si Si2 0.745725 0.446499 0.211380
Si Si3 0.608428 0.500000 0.000000
Si Si4 0.832671 0.621659 0.206837
Si Si5 0.556534 0.351015 0.795811
Si Si6 0.868611 0.072440 0.693769
Si Si7 0.587100 0.249913 0.708305
Si Si8 0.944143 0.351894 0.206087
O O1 0.701102 0.776263 0.500000
O O2 0.750000 0.750000 0.774058
O O3 0.695300 0.829697 0.763749
O O4 0.646826 0.752920 0.765008
O O5 0.746584 0.500000 0.260926
O O6 0.795846 0.418740 0.271694
O O7 0.692940 0.424528 0.279187
O O8 0.743369 0.445174 0.000000
O O9 0.611405 0.539622 0.153486
O O10 0.891043 0.626423 0.277940
O O11 0.837310 0.615172 0.000000
O O12 0.500000 0.365142 0.728503
O O13 0.602439 0.379187 0.709919
O O14 0.562659 0.296775 0.771483
O O15 0.558070 0.360805 0.000000
O O16 0.878124 0.054481 0.500000
O O17 0.584893 0.249534 0.500000
O O18 0.561517 0.202848 0.770940
O O19 0.000000 0.366307 0.277777
O O20 0.944682 0.361107 0.000000
#
# Coordination Sequence:
#
# PCOD9487705 Si02
#       8
#    16  16   4  16  16  16  16  16
#     4   9  19  34  48  71 111 149 181 230 288 345
#     4  10  19  37  59  83 117 149 190 246 299 359
#     4  12  22  48  65  92 124 144 199 250 292 370
#     4   9  19  32  52  80 107 146 192 236 291 346
#     4  11  24  42  60  83 118 155 194 245 297 347
#     4  12  24  41  68  92 117 155 193 242 304 355
#     4  10  20  33  52  79 110 149 196 238 286 349
#     4   9  17  32  52  76 109 151 198 242 287 344
#
# _framework density 19.878688
#
# number of rings (size 3 to 8) (size 9 to 14) (size 15 to 20)
#    0.000    1.931    2.069    1.448    1.931    4.414 
#    0.000    0.690    0.000    1.241    0.000    2.897 
#    0.000    0.000    0.000    8.138    0.000   10.207 
#
# Total GULP energy -323223.696893 kJ/mol
# GULP energy per Si atom -5572.822360 kJ/mol
# Density = 1.983344 g / cm^3
# Si number density = 19.878688 Si / 1000 Ang^3
#
#
#
# Elastic Constant Matrix: (Units=GPa)
#
#
# Indices 1 2 3 4 5 6 
#
# 1 159.8007 74.2933 11.4996 0.0000 0.0000 0.0000
# 2 74.2933 75.5109 7.4693 0.0000 0.0000 0.0000
# 3 11.4996 7.4693 74.5748 0.0000 0.0000 0.0000
# 4 0.0000 0.0000 0.0000 -697.8955 0.0000 0.0000
# 5 0.0000 0.0000 0.0000 0.0000 3.5936 0.0000
# 6 0.0000 0.0000 0.0000 0.0000 0.0000 -10.0172
#
#
#
# Elastic Compliance Matrix: (Units=1/GPa)
#
#
# Indices 1 2 3 4 5 6 
#
# 1 0.011564 -0.011314 -0.000650 0.000000 0.000000 0.000000
# 2 -0.011314 0.024444 -0.000704 0.000000 0.000000 0.000000
# 3 -0.000650 -0.000704 0.013580 0.000000 0.000000 0.000000
# 4 0.000000 0.000000 0.000000 -0.001433 0.000000 0.000000
# 5 0.000000 0.000000 0.000000 0.000000 0.278271 0.000000
# 6 0.000000 0.000000 0.000000 0.000000 0.000000 -0.099829
#
#
# Mechanical properties :
#
#
# Convention : Reuss Voigt Hill
#
# Bulk Modulus (GPa) = 41.23101 55.15676 48.19389
# Shear Modulus (GPa) = 19.22949 -126.42220 -53.59636
#
# Velocity S-wave (km/s) = 3.11359 -7.98342 -5.19810
# Velocity P-wave (km/s) = 5.80622 7.56128 3.42496
#
# Compressibility (1/GPa) = 0.02425359
#
# Stress axis : x y z
#
# Youngs Moduli (GPa) = 86.47195 40.90987 73.63729
#
# Poissons Ratio (x) = 0.46284 0.04787
# Poissons Ratio (y) = 0.97832 0.05182
# Poissons Ratio (z) = 0.05622 0.02879
#
# Static dielectric constant tensor:
#      x y z
#    x 1.735150 0.000000 0.000000 
#    y 0.000000 1.665810 0.000000 
#    z 0.000000 0.000000 1.717270 
# 
# From -- ./inp_files/17320.got.cif
#   From: 2010.05.17/outbox.cif.g08.bks.cpg/sg65_9_cif.got.tgz:17320.got - 2010.06.03 17:01:31.
