data_PCOD9487249
_publ_section_title
;
Structure prediction by ZEFSAII (Michael W. Deem and Ramdas Pophale) SiO2 
 PCOD9487249
Probable space group: C M M M
;
_chemical_formula_sum "Si O2"
_cell_formula_units_Z 88
_cell_length_a 8.963824
_cell_length_b 26.122708
_cell_length_c 22.557191
_cell_angle_alpha 90.000000
_cell_angle_beta 90.000000
_cell_angle_gamma 90.000000
_cell_volume 5281.977338
_symmetry_space_group_name_H-M "C M M M"
_symmetry_group_IT_number 65
_symmetry_cell_setting 'orthorhombic'
loop_
_space_group_symop_operation_xyz
x,y,z
-x,-y,z
x,-y,-z
-x,y,-z
-x,-y,-z
x,y,-z
-x,y,z
x,-y,z
1/2+x,1/2+y,z
1/2-x,1/2-y,z
1/2+x,1/2-y,-z
1/2-x,1/2+y,-z
1/2-x,1/2-y,-z
1/2+x,1/2+y,-z
1/2-x,1/2+y,z
1/2+x,1/2-y,z
loop_
_atom_site_type_symbol
_atom_site_label
_atom_site_fract_x
_atom_site_fract_y
_atom_site_fract_z
Si Si1 0.168076 0.059140 0.723959
Si Si2 0.173832 0.653801 0.682218
Si Si3 0.675655 0.000000 0.929211
Si Si4 0.819912 0.695014 0.187751
Si Si5 0.322253 0.694054 0.435421
Si Si6 0.173612 0.907225 0.140252
O O1 0.291761 0.094827 0.695711
O O2 0.176816 0.066896 0.794611
O O3 0.000000 0.076029 0.706166
O O4 0.185270 0.000000 0.709375
O O5 0.220361 0.682984 0.742995
O O6 0.261994 0.667842 0.623400
O O7 0.000000 0.664094 0.673160
O O8 0.749835 0.948514 0.902665
O O9 0.500000 0.000000 0.913881
O O10 0.691366 0.000000 0.000000
O O11 0.750000 0.750000 0.171776
O O12 0.755242 0.647550 0.149315
O O13 0.000000 0.695966 0.183473
O O14 0.284847 0.669976 0.500000
O O15 0.500000 0.698285 0.431974
O O16 0.250000 0.750000 0.435519
O O17 0.000000 0.899321 0.124095
#
# Coordination Sequence:
#
# PCOD9487249 Si02
#       6
#    16  16   8  16  16  16
#     4   9  17  31  50  73 101 132 164 204 253 301
#     4  10  20  31  47  73 101 132 167 206 253 304
#     4  11  23  37  55  81 113 145 176 215 258 301
#     4  10  20  33  50  77 109 142 175 212 260 314
#     4  10  20  33  49  68  92 125 163 205 252 301
#     4  10  19  34  55  79 106 139 177 217 259 305
#
# _framework density 16.660428
#
# number of rings (size 3 to 8) (size 9 to 14) (size 15 to 20)
#    0.000    2.091    0.909    3.000    0.000    6.545 
#    0.000    0.000    0.000    1.091    0.000    3.818 
#    0.000    0.000    0.000    0.000    0.000    0.000 
#
# Total GULP energy -245282.436508 kJ/mol
# GULP energy per Si atom -5574.600830 kJ/mol
# Density = 1.662251 g / cm^3
# Si number density = 16.660428 Si / 1000 Ang^3
#
#
#
# Elastic Constant Matrix: (Units=GPa)
#
#
# Indices 1 2 3 4 5 6 
#
# 1 85.9625 49.7504 48.4854 0.0000 0.0000 0.0000
# 2 49.7504 105.8675 41.7319 0.0000 0.0000 0.0000
# 3 48.4854 41.7319 67.1531 0.0000 0.0000 0.0000
# 4 0.0000 0.0000 0.0000 6.3718 0.0000 0.0000
# 5 0.0000 0.0000 0.0000 0.0000 25.1246 0.0000
# 6 0.0000 0.0000 0.0000 0.0000 0.0000 32.2808
#
#
#
# Elastic Compliance Matrix: (Units=1/GPa)
#
#
# Indices 1 2 3 4 5 6 
#
# 1 0.021673 -0.005320 -0.012342 0.000000 0.000000 0.000000
# 2 -0.005320 0.013816 -0.004745 0.000000 0.000000 0.000000
# 3 -0.012342 -0.004745 0.026752 0.000000 0.000000 0.000000
# 4 0.000000 0.000000 0.000000 0.156940 0.000000 0.000000
# 5 0.000000 0.000000 0.000000 0.000000 0.039802 0.000000
# 6 0.000000 0.000000 0.000000 0.000000 0.000000 0.030978
#
#
# Mechanical properties :
#
#
# Convention : Reuss Voigt Hill
#
# Bulk Modulus (GPa) = 57.38393 59.87985 58.63189
# Shear Modulus (GPa) = 14.68065 20.68979 17.68522
#
# Velocity S-wave (km/s) = 2.97167 3.52782 3.26162
# Velocity P-wave (km/s) = 6.80386 7.25351 7.03228
#
# Compressibility (1/GPa) = 0.01742648
#
# Stress axis : x y z
#
# Youngs Moduli (GPa) = 46.13993 72.37934 37.38094
#
# Poissons Ratio (x) = 0.38503 0.46137
# Poissons Ratio (y) = 0.24545 0.17738
# Poissons Ratio (z) = 0.56948 0.34345
#
# Static dielectric constant tensor:
#      x y z
#    x 1.577430 0.000000 0.000000 
#    y 0.000000 1.558000 0.000000 
#    z 0.000000 0.000000 1.560030 
# 
# From -- ./inp_files/59786.got.cif
#   From: 2010.05.17/outbox.cif.g08.bks.cpg/sg65_30_cif.got.tgz:59786.got - 2010.06.03 17:01:31.
