data_PCOD9487425
_publ_section_title
;
Structure prediction by ZEFSAII (Michael W. Deem and Ramdas Pophale) SiO2 
 PCOD9487425
Probable space group: C M M M
;
_chemical_formula_sum "Si O2"
_cell_formula_units_Z 80
_cell_length_a 29.573703
_cell_length_b 15.849727
_cell_length_c 8.778071
_cell_angle_alpha 90.000000
_cell_angle_beta 90.000000
_cell_angle_gamma 90.000000
_cell_volume 4114.590154
_symmetry_space_group_name_H-M "C M M M"
_symmetry_group_IT_number 65
_symmetry_cell_setting 'orthorhombic'
loop_
_space_group_symop_operation_xyz
x,y,z
-x,-y,z
x,-y,-z
-x,y,-z
-x,-y,-z
x,y,-z
-x,y,z
x,-y,z
1/2+x,1/2+y,z
1/2-x,1/2-y,z
1/2+x,1/2-y,-z
1/2-x,1/2+y,-z
1/2-x,1/2-y,-z
1/2+x,1/2+y,-z
1/2-x,1/2+y,z
1/2+x,1/2-y,z
loop_
_atom_site_type_symbol
_atom_site_label
_atom_site_fract_x
_atom_site_fract_y
_atom_site_fract_z
Si Si1 0.703022 0.158529 0.182384
Si Si2 0.203602 0.847425 0.681960
Si Si3 0.111170 0.094343 0.181045
Si Si4 0.603817 0.905548 0.816984
Si Si5 0.947166 0.754385 0.317966
O O1 0.748850 0.120308 0.251014
O O2 0.698468 0.251730 0.254898
O O3 0.657027 0.108854 0.215299
O O4 0.707721 0.166420 0.000000
O O5 0.205224 0.846287 0.500000
O O6 0.160082 0.896563 0.741328
O O7 0.079081 0.167086 0.244751
O O8 0.093227 0.000000 0.209420
O O9 0.116674 0.105842 0.000000
O O10 0.575595 0.831893 0.738947
O O11 0.590361 0.000000 0.770564
O O12 0.598486 0.898349 0.000000
O O13 0.942953 0.759715 0.500000
O O14 0.000000 0.756032 0.276826
#
# Coordination Sequence:
#
# PCOD9487425 Si02
#       5
#    16  16  16  16  16
#     4  10  19  34  58  87 124 168 210 250 296 353
#     4  11  21  34  57  89 126 165 205 250 303 358
#     4  11  24  42  65  92 122 160 206 254 305 364
#     4  10  22  40  64  93 124 162 208 254 300 356
#     4  11  25  44  66  92 123 158 197 251 316 373
#
# _framework density 19.443006
#
# number of rings (size 3 to 8) (size 9 to 14) (size 15 to 20)
#    0.000    1.400    2.000    4.800    0.000    6.000 
#    0.000    6.000    0.000    0.000    0.000    0.000 
#    0.000    0.000    0.000    0.000    0.000    0.000 
#
# Total GULP energy -223644.010518 kJ/mol
# GULP energy per Si atom -5591.100263 kJ/mol
# Density = 1.939875 g / cm^3
# Si number density = 19.443006 Si / 1000 Ang^3
#
#
#
# Elastic Constant Matrix: (Units=GPa)
#
#
# Indices 1 2 3 4 5 6 
#
# 1 134.8709 76.7181 71.2394 0.0000 0.0000 0.0000
# 2 76.7181 130.9782 63.2788 0.0000 0.0000 0.0000
# 3 71.2394 63.2788 95.8302 0.0000 0.0000 0.0000
# 4 0.0000 0.0000 0.0000 -420.1599 0.0000 0.0000
# 5 0.0000 0.0000 0.0000 0.0000 35.3164 0.0000
# 6 0.0000 0.0000 0.0000 0.0000 0.0000 -8.2645
#
#
#
# Elastic Compliance Matrix: (Units=1/GPa)
#
#
# Indices 1 2 3 4 5 6 
#
# 1 0.013882 -0.004619 -0.007270 0.000000 0.000000 0.000000
# 2 -0.004619 0.012748 -0.004984 0.000000 0.000000 0.000000
# 3 -0.007270 -0.004984 0.019131 0.000000 0.000000 0.000000
# 4 0.000000 0.000000 0.000000 -0.002380 0.000000 0.000000
# 5 0.000000 0.000000 0.000000 0.000000 0.028315 0.000000
# 6 0.000000 0.000000 0.000000 0.000000 0.000000 -0.121000
#
#
# Mechanical properties :
#
#
# Convention : Reuss Voigt Hill
#
# Bulk Modulus (GPa) = 83.22980 87.12800 85.17890
# Shear Modulus (GPa) = -432.78139 -68.59205 -250.68672
#
# Velocity S-wave (km/s) = -14.93563 -5.94602 -11.36724
# Velocity P-wave (km/s) = 15.95402 1.49361 11.33052
#
# Compressibility (1/GPa) = 0.01201493
#
# Stress axis : x y z
#
# Youngs Moduli (GPa) = 72.03772 78.44167 52.27224
#
# Poissons Ratio (x) = 0.36231 0.38000
# Poissons Ratio (y) = 0.33273 0.26055
# Poissons Ratio (z) = 0.52369 0.39099
#
# Static dielectric constant tensor:
#      x y z
#    x 1.669600 0.000000 0.000000 
#    y 0.000000 1.681950 0.000000 
#    z 0.000000 0.000000 1.649030 
# 
# From -- ./inp_files/16034.got.cif
#   From: 2010.05.17/outbox.cif.g08.bks.cpg/sg65_9_cif.got.tgz:16034.got - 2010.06.03 17:01:31.
