data_PCOD9487304
_publ_section_title
;
Structure prediction by ZEFSAII (Michael W. Deem and Ramdas Pophale) SiO2 
 PCOD9487304
Probable space group: C M M M
;
_chemical_formula_sum "Si O2"
_cell_formula_units_Z 104
_cell_length_a 14.590352
_cell_length_b 20.983256
_cell_length_c 17.015074
_cell_angle_alpha 90.000000
_cell_angle_beta 90.000000
_cell_angle_gamma 90.000000
_cell_volume 5209.217501
_symmetry_space_group_name_H-M "C M M M"
_symmetry_group_IT_number 65
_symmetry_cell_setting 'orthorhombic'
loop_
_space_group_symop_operation_xyz
x,y,z
-x,-y,z
x,-y,-z
-x,y,-z
-x,-y,-z
x,y,-z
-x,y,z
x,-y,z
1/2+x,1/2+y,z
1/2-x,1/2-y,z
1/2+x,1/2-y,-z
1/2-x,1/2+y,-z
1/2-x,1/2-y,-z
1/2+x,1/2+y,-z
1/2-x,1/2+y,z
1/2+x,1/2-y,z
loop_
_atom_site_type_symbol
_atom_site_label
_atom_site_fract_x
_atom_site_fract_y
_atom_site_fract_z
Si Si1 0.397068 0.876850 0.591520
Si Si2 0.393868 0.500000 0.094411
Si Si3 0.250680 0.392189 0.856234
Si Si4 0.738485 0.430762 0.312938
Si Si5 0.890678 0.138654 0.589129
Si Si6 0.106623 0.252001 0.299806
Si Si7 0.750000 0.250000 0.839313
Si Si8 0.607032 0.000000 0.094589
O O1 0.382663 0.859900 0.500000
O O2 0.500000 0.903556 0.597877
O O3 0.319776 0.922318 0.625174
O O4 0.391771 0.815903 0.648442
O O5 0.500000 0.500000 0.122232
O O6 0.337518 0.563504 0.119951
O O7 0.394156 0.500000 0.000000
O O8 0.252868 0.385397 0.761674
O O9 0.251763 0.318438 0.884750
O O10 0.162828 0.436353 0.878710
O O11 0.741876 0.500000 0.276540
O O12 0.646784 0.420337 0.362063
O O13 0.856281 0.139973 0.500000
O O14 0.856898 0.198420 0.640078
O O15 0.000000 0.140456 0.586474
O O16 0.162817 0.253092 0.219652
O O17 0.000000 0.237736 0.282319
O O18 0.500000 0.000000 0.120762
O O19 0.608473 0.000000 0.000000
#
# Coordination Sequence:
#
# PCOD9487304 Si02
#       8
#    16   8  16  16  16  16   8   8
#     4  10  21  36  54  76 108 155 209 263 312 358
#     4  10  23  47  76  99 123 162 206 240 282 360
#     4  11  22  40  65  99 134 163 200 248 303 369
#     4  12  23  37  53  81 113 155 202 254 308 369
#     4  10  21  36  54  76 108 155 209 263 312 358
#     4  10  19  34  56  79 112 154 207 258 304 366
#     4  12  22  36  58  98 136 162 196 250 324 366
#     4  10  23  47  76  99 123 162 206 240 282 360
#
# _framework density 19.964611999999999
#
# number of rings (size 3 to 8) (size 9 to 14) (size 15 to 20)
#    0.000    1.385    4.615    1.846    0.000    6.154 
#    0.000    5.385    0.000    1.846    0.000    0.000 
#    0.000    0.000    0.000    0.000    0.000    0.000 
#
# Total GULP energy -289984.917385 kJ/mol
# GULP energy per Si atom -5576.633027 kJ/mol
# Density = 1.991917 g / cm^3
# Si number density = 19.964612 Si / 1000 Ang^3
#
#
#
# Elastic Constant Matrix: (Units=GPa)
#
#
# Indices 1 2 3 4 5 6 
#
# 1 87.5231 31.7112 28.5012 0.0000 0.0000 0.0000
# 2 31.7112 118.8669 9.5836 0.0000 0.0000 0.0000
# 3 28.5012 9.5836 58.1010 0.0000 0.0000 0.0000
# 4 0.0000 0.0000 0.0000 21.0023 0.0000 0.0000
# 5 0.0000 0.0000 0.0000 0.0000 30.6485 0.0000
# 6 0.0000 0.0000 0.0000 0.0000 0.0000 31.2836
#
#
#
# Elastic Compliance Matrix: (Units=1/GPa)
#
#
# Indices 1 2 3 4 5 6 
#
# 1 0.014854 -0.003421 -0.006722 0.000000 0.000000 0.000000
# 2 -0.003421 0.009314 0.000142 0.000000 0.000000 0.000000
# 3 -0.006722 0.000142 0.020486 0.000000 0.000000 0.000000
# 4 0.000000 0.000000 0.000000 0.047614 0.000000 0.000000
# 5 0.000000 0.000000 0.000000 0.000000 0.032628 0.000000
# 6 0.000000 0.000000 0.000000 0.000000 0.000000 0.031966
#
#
# Mechanical properties :
#
#
# Convention : Reuss Voigt Hill
#
# Bulk Modulus (GPa) = 40.56654 44.89812 42.73233
# Shear Modulus (GPa) = 27.01524 29.56655 28.29089
#
# Velocity S-wave (km/s) = 3.68252 3.85248 3.76846
# Velocity P-wave (km/s) = 6.20037 6.50588 6.35496
#
# Compressibility (1/GPa) = 0.02465086
#
# Stress axis : x y z
#
# Youngs Moduli (GPa) = 67.32172 107.36600 48.81469
#
# Poissons Ratio (x) = 0.36727 0.32815
# Poissons Ratio (y) = 0.23029 -0.00692
# Poissons Ratio (z) = 0.45256 -0.01522
#
# Static dielectric constant tensor:
#      x y z
#    x 1.723420 0.000000 0.000000 
#    y 0.000000 1.768770 0.000000 
#    z 0.000000 0.000000 1.676380 
# 
# From -- ./inp_files/53364.got.cif
#   From: 2010.05.17/outbox.cif.g08.bks.cpg/sg65_27_cif.got.tgz:53364.got - 2010.06.03 17:01:31.
