data_PCOD9487508
_publ_section_title
;
Structure prediction by ZEFSAII (Michael W. Deem and Ramdas Pophale) SiO2 
 PCOD9487508
Probable space group: C M M M
;
_chemical_formula_sum "Si O2"
_cell_formula_units_Z 66
_cell_length_a 28.078583
_cell_length_b 13.208787
_cell_length_c 10.185008
_cell_angle_alpha 90.000000
_cell_angle_beta 90.000000
_cell_angle_gamma 90.000000
_cell_volume 3777.456732
_symmetry_space_group_name_H-M "C M M M"
_symmetry_group_IT_number 65
_symmetry_cell_setting 'orthorhombic'
loop_
_space_group_symop_operation_xyz
x,y,z
-x,-y,z
x,-y,-z
-x,y,-z
-x,-y,-z
x,y,-z
-x,y,z
x,-y,z
1/2+x,1/2+y,z
1/2-x,1/2-y,z
1/2+x,1/2-y,-z
1/2-x,1/2+y,-z
1/2-x,1/2-y,-z
1/2+x,1/2+y,-z
1/2-x,1/2+y,z
1/2+x,1/2-y,z
loop_
_atom_site_type_symbol
_atom_site_label
_atom_site_fract_x
_atom_site_fract_y
_atom_site_fract_z
Si Si1 0.082867 0.000000 0.722569
Si Si2 0.292943 0.671669 0.853829
Si Si3 0.306542 0.500000 0.650588
Si Si4 0.000000 0.000000 0.500000
Si Si5 0.557435 0.883701 0.348673
Si Si6 0.596934 0.716986 0.150303
O O1 0.081177 0.103773 0.806681
O O2 0.135812 0.000000 0.659388
O O3 0.041806 0.000000 0.614712
O O4 0.250000 0.750000 0.848728
O O5 0.288896 0.595224 0.733926
O O6 0.345525 0.719802 0.843932
O O7 0.291780 0.622836 0.000000
O O8 0.291689 0.500000 0.500000
O O9 0.571633 0.861887 0.500000
O O10 0.500000 0.880327 0.344839
O O11 0.576996 0.800553 0.249509
O O12 0.571671 0.000000 0.317907
O O13 0.582136 0.735951 0.000000
#
# Coordination Sequence:
#
# PCOD9487508 Si02
#       6
#     8  16   8   2  16  16
#     4  10  23  36  55  83 116 149 187 223 277 336
#     4   9  19  37  58  79 105 146 186 218 270 337
#     4  10  19  35  56  81 113 142 176 228 281 319
#     4  12  24  36  54  88 110 160 198 220 260 354
#     4   9  20  38  58  78 106 149 191 224 269 332
#     4  10  21  37  58  83 114 144 182 235 283 327
#
# _framework density 17.472073000000002
#
# number of rings (size 3 to 8) (size 9 to 14) (size 15 to 20)
#    0.000    2.424    0.606    1.455    3.394    5.333 
#    2.182    1.818    0.000    0.000    0.000    0.000 
#    0.000    0.000    0.000    0.000    0.000    0.000 
#
# Total GULP energy -183703.407262 kJ/mol
# GULP energy per Si atom -5566.769917 kJ/mol
# Density = 1.743231 g / cm^3
# Si number density = 17.472073 Si / 1000 Ang^3
#
#
#
# Elastic Constant Matrix: (Units=GPa)
#
#
# Indices 1 2 3 4 5 6 
#
# 1 65.4331 47.1377 49.3607 0.0000 0.0000 0.0000
# 2 47.1377 134.9774 107.0416 0.0000 0.0000 0.0000
# 3 49.3607 107.0416 181.9895 0.0000 0.0000 0.0000
# 4 0.0000 0.0000 0.0000 20.2240 0.0000 0.0000
# 5 0.0000 0.0000 0.0000 0.0000 9.3209 0.0000
# 6 0.0000 0.0000 0.0000 0.0000 0.0000 6.1641
#
#
#
# Elastic Compliance Matrix: (Units=1/GPa)
#
#
# Indices 1 2 3 4 5 6 
#
# 1 0.021055 -0.005293 -0.002597 0.000000 0.000000 0.000000
# 2 -0.005293 0.015216 -0.007514 0.000000 0.000000 0.000000
# 3 -0.002597 -0.007514 0.010619 0.000000 0.000000 0.000000
# 4 0.000000 0.000000 0.000000 0.049446 0.000000 0.000000
# 5 0.000000 0.000000 0.000000 0.000000 0.107285 0.000000
# 6 0.000000 0.000000 0.000000 0.000000 0.000000 0.162229
#
#
# Mechanical properties :
#
#
# Convention : Reuss Voigt Hill
#
# Bulk Modulus (GPa) = 62.18550 87.71999 74.95275
# Shear Modulus (GPa) = 12.43716 19.06582 15.75149
#
# Velocity S-wave (km/s) = 2.67091 3.30694 3.00580
# Velocity P-wave (km/s) = 6.72163 8.05580 7.41877
#
# Compressibility (1/GPa) = 0.01608092
#
# Stress axis : x y z
#
# Youngs Moduli (GPa) = 47.49364 65.72008 94.17175
#
# Poissons Ratio (x) = 0.34787 0.24461
# Poissons Ratio (y) = 0.25139 0.70761
# Poissons Ratio (z) = 0.12336 0.49382
#
# Static dielectric constant tensor:
#      x y z
#    x 1.574930 0.000000 0.000000 
#    y 0.000000 1.592490 0.000000 
#    z 0.000000 0.000000 1.590460 
# 
# From -- ./inp_files/15706.got.cif
#   From: 2010.05.17/outbox.cif.g08.bks.cpg/sg65_8_cif.got.tgz:15706.got - 2010.06.03 17:01:31.
