data_PCOD9487230
_publ_section_title
;
Structure prediction by ZEFSAII (Michael W. Deem and Ramdas Pophale) SiO2 
 PCOD9487230
Probable space group: C M M M
;
_chemical_formula_sum "Si O2"
_cell_formula_units_Z 120
_cell_length_a 28.581562
_cell_length_b 8.824131
_cell_length_c 27.093492
_cell_angle_alpha 90.000000
_cell_angle_beta 90.000000
_cell_angle_gamma 90.000000
_cell_volume 6833.180455
_symmetry_space_group_name_H-M "C M M M"
_symmetry_group_IT_number 65
_symmetry_cell_setting 'orthorhombic'
loop_
_space_group_symop_operation_xyz
x,y,z
-x,-y,z
x,-y,-z
-x,y,-z
-x,-y,-z
x,y,-z
-x,y,z
x,-y,z
1/2+x,1/2+y,z
1/2-x,1/2-y,z
1/2+x,1/2-y,-z
1/2-x,1/2+y,-z
1/2-x,1/2-y,-z
1/2+x,1/2+y,-z
1/2-x,1/2+y,z
1/2+x,1/2-y,z
loop_
_atom_site_type_symbol
_atom_site_label
_atom_site_fract_x
_atom_site_fract_y
_atom_site_fract_z
Si Si1 0.357548 0.318209 0.354501
Si Si2 0.601963 0.317119 0.207601
Si Si3 0.200267 0.319327 0.057839
Si Si4 0.199042 0.818536 0.256240
Si Si5 0.446610 0.684845 0.000000
Si Si6 0.608191 0.317239 0.097571
Si Si7 0.553903 0.181626 0.697674
Si Si8 0.698889 0.181021 0.557444
O O1 0.359493 0.500000 0.356166
O O2 0.321229 0.275745 0.310376
O O3 0.408079 0.254174 0.339090
O O4 0.338187 0.251464 0.405154
O O5 0.598211 0.500000 0.213478
O O6 0.656316 0.277004 0.219491
O O7 0.589579 0.275722 0.151580
O O8 0.569725 0.239000 0.248286
O O9 0.201339 0.500000 0.061645
O O10 0.250000 0.250000 0.071622
O O11 0.159488 0.249305 0.090100
O O12 0.191632 0.279168 0.000000
O O13 0.250000 0.750000 0.246610
O O14 0.203572 0.000000 0.254822
O O15 0.421486 0.734622 0.949740
O O16 0.445600 0.500000 0.000000
O O17 0.500000 0.733754 0.000000
O O18 0.610611 0.500000 0.096108
O O19 0.500000 0.224606 0.687895
O O20 0.557543 0.000000 0.695529
O O21 0.688303 0.214921 0.500000
O O22 0.750000 0.250000 0.568359
O O23 0.700719 0.000000 0.563405
#
# Coordination Sequence:
#
# PCOD9487230 Si02
#       8
#    16  16  16  16   8  16  16  16
#     4  10  20  34  54  79 107 142 184 229 273 321
#     4   9  20  35  51  75 104 135 170 210 258 315
#     4  10  20  33  51  74 100 131 168 204 244 295
#     4   9  18  31  46  69 100 132 169 207 250 302
#     4   9  18  32  52  77  98 121 160 207 254 305
#     4  10  19  34  55  76 102 133 167 210 256 306
#     4  10  21  37  57  80 105 135 175 224 276 329
#     4  10  20  33  51  79 117 158 196 232 270 314
#
# _framework density 17.561368999999999
#
# number of rings (size 3 to 8) (size 9 to 14) (size 15 to 20)
#    0.000    2.333    0.667    2.800    0.000    7.733 
#    0.000    2.667    0.000    1.200    0.000    2.800 
#    0.000    0.000    0.000    0.000    0.000    0.000 
#
# Total GULP energy -334797.181429 kJ/mol
# GULP energy per Si atom -5579.953024 kJ/mol
# Density = 1.752140 g / cm^3
# Si number density = 17.561369 Si / 1000 Ang^3
#
#
#
# Elastic Constant Matrix: (Units=GPa)
#
#
# Indices 1 2 3 4 5 6 
#
# 1 105.7554 32.1959 66.0506 0.0000 0.0000 0.0000
# 2 32.1959 27.8286 41.7760 0.0000 0.0000 0.0000
# 3 66.0506 41.7760 118.7015 0.0000 0.0000 0.0000
# 4 0.0000 0.0000 0.0000 22.0214 0.0000 0.0000
# 5 0.0000 0.0000 0.0000 0.0000 11.3720 0.0000
# 6 0.0000 0.0000 0.0000 0.0000 0.0000 25.7256
#
#
#
# Elastic Compliance Matrix: (Units=1/GPa)
#
#
# Indices 1 2 3 4 5 6 
#
# 1 0.015898 -0.010840 -0.005031 0.000000 0.000000 0.000000
# 2 -0.010840 0.083577 -0.023382 0.000000 0.000000 0.000000
# 3 -0.005031 -0.023382 0.019453 0.000000 0.000000 0.000000
# 4 0.000000 0.000000 0.000000 0.045410 0.000000 0.000000
# 5 0.000000 0.000000 0.000000 0.000000 0.087935 0.000000
# 6 0.000000 0.000000 0.000000 0.000000 0.000000 0.038872
#
#
# Mechanical properties :
#
#
# Convention : Reuss Voigt Hill
#
# Bulk Modulus (GPa) = 24.73979 59.14782 41.94380
# Shear Modulus (GPa) = 13.05051 19.30800 16.17925
#
# Velocity S-wave (km/s) = 2.72901 3.31941 3.03858
# Velocity P-wave (km/s) = 4.90390 6.96025 6.02052
#
# Compressibility (1/GPa) = 0.04042072
#
# Stress axis : x y z
#
# Youngs Moduli (GPa) = 62.89953 11.96508 51.40518
#
# Poissons Ratio (x) = 0.12971 0.25864
# Poissons Ratio (y) = 0.68185 1.20196
# Poissons Ratio (z) = 0.31647 0.27977
#
# Static dielectric constant tensor:
#      x y z
#    x 1.584170 0.000000 0.000000 
#    y 0.000000 1.582550 0.000000 
#    z 0.000000 0.000000 1.611040 
# 
# From -- ./inp_files/76090.got.cif
#   From: 2010.05.17/outbox.cif.g08.bks.cpg/sg65_39_cif.got.tgz:76090.got - 2010.06.03 17:01:31.
