data_PCOD9487002
_publ_section_title
;
Structure prediction by ZEFSAII (Michael W. Deem and Ramdas Pophale) SiO2 
 PCOD9487002
Probable space group: C M M M
;
_chemical_formula_sum "Si O2"
_cell_formula_units_Z 104
_cell_length_a 7.645199
_cell_length_b 27.420679
_cell_length_c 23.771090
_cell_angle_alpha 90.000000
_cell_angle_beta 90.000000
_cell_angle_gamma 90.000000
_cell_volume 4983.289242
_symmetry_space_group_name_H-M "C M M M"
_symmetry_group_IT_number 65
_symmetry_cell_setting 'orthorhombic'
loop_
_space_group_symop_operation_xyz
x,y,z
-x,-y,z
x,-y,-z
-x,y,-z
-x,-y,-z
x,y,-z
-x,y,z
x,-y,z
1/2+x,1/2+y,z
1/2-x,1/2-y,z
1/2+x,1/2-y,-z
1/2-x,1/2+y,-z
1/2-x,1/2-y,-z
1/2+x,1/2+y,-z
1/2-x,1/2+y,z
1/2+x,1/2-y,z
loop_
_atom_site_type_symbol
_atom_site_label
_atom_site_fract_x
_atom_site_fract_y
_atom_site_fract_z
Si Si1 0.289723 0.692547 0.123551
Si Si2 0.207928 0.193107 0.000000
Si Si3 0.209699 0.442391 0.500000
Si Si4 0.208070 0.194242 0.435994
Si Si5 0.297292 0.587630 0.852110
Si Si6 0.798682 0.599808 0.616766
Si Si7 0.705169 0.056519 0.729894
Si Si8 0.785377 0.000000 0.933375
O O1 0.500000 0.693386 0.124200
O O2 0.250000 0.750000 0.136387
O O3 0.228777 0.643573 0.155578
O O4 0.224989 0.678073 0.060608
O O5 0.250000 0.250000 0.000000
O O6 0.000000 0.183976 0.000000
O O7 0.232310 0.500000 0.500000
O O8 0.280720 0.421456 0.558874
O O9 0.000000 0.431419 0.500000
O O10 0.270759 0.184062 0.500000
O O11 0.250000 0.250000 0.423863
O O12 0.293709 0.157283 0.393079
O O13 0.000000 0.187471 0.434930
O O14 0.500000 0.593230 0.868933
O O15 0.288464 0.564394 0.790472
O O16 0.225957 0.548505 0.898166
O O17 0.720029 0.585523 0.676544
O O18 0.000000 0.581788 0.618763
O O19 0.500000 0.069288 0.737269
O O20 0.716975 0.000000 0.714366
O O21 0.000000 0.000000 0.932090
O O22 0.735946 0.000000 0.000000
#
# Coordination Sequence:
#
# PCOD9487002 Si02
#       8
#    16   8   8  16  16  16  16   8
#     4   9  18  31  50  76 105 136 173 215 264 320
#     4   8  14  26  44  69 101 132 164 207 256 310
#     4   9  16  28  50  79 106 131 168 219 264 309
#     4  10  20  34  54  80 112 146 181 223 275 330
#     4  10  20  35  56  81 108 144 187 229 276 331
#     4  10  19  33  55  81 107 140 181 224 269 317
#     4  10  21  37  56  79 109 146 185 222 267 326
#     4   9  18  32  55  85 111 138 183 240 290 334
#
# _framework density 20.869751000000001
#
# number of rings (size 3 to 8) (size 9 to 14) (size 15 to 20)
#    0.000    2.462    1.538    0.923    1.077    3.692 
#    0.000    0.769    0.000    4.615    0.000    0.000 
#    0.000    0.000    0.000    0.000    0.000    0.000 
#
# Total GULP energy -289490.788215 kJ/mol
# GULP energy per Si atom -5567.130543 kJ/mol
# Density = 2.082225 g / cm^3
# Si number density = 20.869751 Si / 1000 Ang^3
#
#
#
# Elastic Constant Matrix: (Units=GPa)
#
#
# Indices 1 2 3 4 5 6 
#
# 1 42.7384 12.2870 3.2844 0.0000 0.0000 0.0000
# 2 12.2870 122.8563 61.0388 0.0000 0.0000 0.0000
# 3 3.2844 61.0388 119.8403 0.0000 0.0000 0.0000
# 4 0.0000 0.0000 0.0000 37.3098 0.0000 0.0000
# 5 0.0000 0.0000 0.0000 0.0000 12.1311 0.0000
# 6 0.0000 0.0000 0.0000 0.0000 0.0000 10.9024
#
#
#
# Elastic Compliance Matrix: (Units=1/GPa)
#
#
# Indices 1 2 3 4 5 6 
#
# 1 0.024143 -0.002792 0.000761 0.000000 0.000000 0.000000
# 2 -0.002792 0.011220 -0.005638 0.000000 0.000000 0.000000
# 3 0.000761 -0.005638 0.011195 0.000000 0.000000 0.000000
# 4 0.000000 0.000000 0.000000 0.026803 0.000000 0.000000
# 5 0.000000 0.000000 0.000000 0.000000 0.082433 0.000000
# 6 0.000000 0.000000 0.000000 0.000000 0.000000 0.091723
#
#
# Mechanical properties :
#
#
# Convention : Reuss Voigt Hill
#
# Bulk Modulus (GPa) = 32.03294 48.73949 40.38621
# Shear Modulus (GPa) = 18.29742 25.99031 22.14387
#
# Velocity S-wave (km/s) = 2.96420 3.53279 3.26091
# Velocity P-wave (km/s) = 5.20553 6.32816 5.79410
#
# Compressibility (1/GPa) = 0.03121787
#
# Stress axis : x y z
#
# Youngs Moduli (GPa) = 41.42068 89.12553 89.32274
#
# Poissons Ratio (x) = 0.24888 -0.06794
# Poissons Ratio (y) = 0.11566 0.50363
# Poissons Ratio (z) = -0.03151 0.50251
#
# Static dielectric constant tensor:
#      x y z
#    x 1.813250 0.000000 0.000000 
#    y 0.000000 1.767100 0.000000 
#    z 0.000000 0.000000 1.790320 
# 
# From -- ./inp_files/68293.got.cif
#   From: 2010.05.17/outbox.cif.g08.bks.cpg/sg65_35_cif.got.tgz:68293.got - 2010.06.03 17:01:31.
