data_PCOD9487817
_publ_section_title
;
Structure prediction by ZEFSAII (Michael W. Deem and Ramdas Pophale) SiO2 
 PCOD9487817
Probable space group: C M M M
;
_chemical_formula_sum "Si O2"
_cell_formula_units_Z 72
_cell_length_a 8.793165
_cell_length_b 29.072790
_cell_length_c 18.804981
_cell_angle_alpha 90.000000
_cell_angle_beta 90.000000
_cell_angle_gamma 90.000000
_cell_volume 4807.339934
_symmetry_space_group_name_H-M "C M M M"
_symmetry_group_IT_number 65
_symmetry_cell_setting 'orthorhombic'
loop_
_space_group_symop_operation_xyz
x,y,z
-x,-y,z
x,-y,-z
-x,y,-z
-x,-y,-z
x,y,-z
-x,y,z
x,-y,z
1/2+x,1/2+y,z
1/2-x,1/2-y,z
1/2+x,1/2-y,-z
1/2-x,1/2+y,-z
1/2-x,1/2-y,-z
1/2+x,1/2+y,-z
1/2-x,1/2+y,z
1/2+x,1/2-y,z
loop_
_atom_site_type_symbol
_atom_site_label
_atom_site_fract_x
_atom_site_fract_y
_atom_site_fract_z
Si Si1 0.318583 0.644582 0.633438
Si Si2 0.817970 0.801335 0.776869
Si Si3 0.318460 0.801031 0.500000
Si Si4 0.817454 0.447525 0.415964
Si Si5 0.682245 0.198340 0.077750
O O1 0.500000 0.647524 0.623884
O O2 0.279520 0.668123 0.708437
O O3 0.238712 0.672064 0.569567
O O4 0.265080 0.592001 0.627655
O O5 0.750000 0.750000 0.767601
O O6 0.752306 0.821935 0.850374
O O7 0.000000 0.797520 0.782526
O O8 0.500000 0.799018 0.500000
O O9 0.250000 0.750000 0.500000
O O10 0.782189 0.441208 0.500000
O O11 0.776576 0.500000 0.396900
O O12 0.000000 0.442821 0.408910
O O13 0.500000 0.200742 0.084140
O O14 0.750000 0.250000 0.076104
O O15 0.718669 0.177421 0.000000
#
# Coordination Sequence:
#
# PCOD9487817 Si02
#       5
#    16  16   8  16  16
#     4  11  22  34  48  69  93 119 155 192 230 274
#     4  10  20  31  44  64  91 123 156 189 224 266
#     4  12  24  36  49  64  87 122 160 195 229 267
#     4   9  18  33  52  72  91 114 148 189 235 282
#     4   9  16  26  42  63  86 115 151 187 223 264
#
# _framework density 14.977099000000001
#
# number of rings (size 3 to 8) (size 9 to 14) (size 15 to 20)
#    0.000    2.000    1.111    5.667    0.000    7.111 
#    0.000    1.111    0.000    0.000    0.000    0.000 
#    0.000    0.889    0.000    9.778    0.000    7.111 
#
# Total GULP energy -200766.981723 kJ/mol
# GULP energy per Si atom -5576.860603 kJ/mol
# Density = 1.494301 g / cm^3
# Si number density = 14.977099 Si / 1000 Ang^3
#
#
#
# Elastic Constant Matrix: (Units=GPa)
#
#
# Indices 1 2 3 4 5 6 
#
# 1 65.3898 37.7315 63.0811 0.0000 0.0000 0.0000
# 2 37.7315 83.6657 58.9139 0.0000 0.0000 0.0000
# 3 63.0811 58.9139 149.4333 0.0000 0.0000 0.0000
# 4 0.0000 0.0000 0.0000 1.8348 0.0000 0.0000
# 5 0.0000 0.0000 0.0000 0.0000 25.5857 0.0000
# 6 0.0000 0.0000 0.0000 0.0000 0.0000 23.2706
#
#
#
# Elastic Compliance Matrix: (Units=1/GPa)
#
#
# Indices 1 2 3 4 5 6 
#
# 1 0.027759 -0.005907 -0.009389 0.000000 0.000000 0.000000
# 2 -0.005907 0.017803 -0.004525 0.000000 0.000000 0.000000
# 3 -0.009389 -0.004525 0.012439 0.000000 0.000000 0.000000
# 4 0.000000 0.000000 0.000000 0.545016 0.000000 0.000000
# 5 0.000000 0.000000 0.000000 0.000000 0.039084 0.000000
# 6 0.000000 0.000000 0.000000 0.000000 0.000000 0.042973
#
#
# Mechanical properties :
#
#
# Convention : Reuss Voigt Hill
#
# Bulk Modulus (GPa) = 54.47119 68.66020 61.56569
# Shear Modulus (GPa) = 6.84147 19.38904 13.11526
#
# Velocity S-wave (km/s) = 2.13960 3.60193 2.96241
# Velocity P-wave (km/s) = 6.52322 7.95245 7.27303
#
# Compressibility (1/GPa) = 0.01835833
#
# Stress axis : x y z
#
# Youngs Moduli (GPa) = 36.02386 56.17106 80.38936
#
# Poissons Ratio (x) = 0.33182 0.75480
# Poissons Ratio (y) = 0.21281 0.36376
# Poissons Ratio (z) = 0.33824 0.25417
#
# Static dielectric constant tensor:
#      x y z
#    x 1.500930 0.000000 0.000000 
#    y 0.000000 1.473870 0.000000 
#    z 0.000000 0.000000 1.523370 
# 
# From -- ./inp_files/49752.got.cif
#   From: 2010.05.17/outbox.cif.g08.bks.cpg/sg65_25_cif.got.tgz:49752.got - 2010.06.03 17:01:31.
