data_PCOD9487401
_publ_section_title
;
Structure prediction by ZEFSAII (Michael W. Deem and Ramdas Pophale) SiO2 
 PCOD9487401
Probable space group: C M M M
;
_chemical_formula_sum "Si O2"
_cell_formula_units_Z 56
_cell_length_a 14.806515
_cell_length_b 27.066387
_cell_length_c 7.237595
_cell_angle_alpha 90.000000
_cell_angle_beta 90.000000
_cell_angle_gamma 90.000000
_cell_volume 2900.530358
_symmetry_space_group_name_H-M "C M M M"
_symmetry_group_IT_number 65
_symmetry_cell_setting 'orthorhombic'
loop_
_space_group_symop_operation_xyz
x,y,z
-x,-y,z
x,-y,-z
-x,y,-z
-x,-y,-z
x,y,-z
-x,y,z
x,-y,z
1/2+x,1/2+y,z
1/2-x,1/2-y,z
1/2+x,1/2-y,-z
1/2-x,1/2+y,-z
1/2-x,1/2-y,-z
1/2+x,1/2+y,-z
1/2-x,1/2+y,z
1/2+x,1/2-y,z
loop_
_atom_site_type_symbol
_atom_site_label
_atom_site_fract_x
_atom_site_fract_y
_atom_site_fract_z
Si Si1 0.397759 0.834689 0.775496
Si Si2 0.788174 0.125357 0.777561
Si Si3 0.893518 0.941064 0.500000
Si Si4 0.896739 0.222423 0.223673
O O1 0.500000 0.846460 0.716564
O O2 0.317038 0.870948 0.723221
O O3 0.375805 0.778304 0.716805
O O4 0.398441 0.833925 0.000000
O O5 0.843788 0.083254 0.675244
O O6 0.831987 0.178098 0.722143
O O7 0.794819 0.120617 0.000000
O O8 0.000000 0.928533 0.500000
O O9 0.884969 0.000000 0.500000
O O10 0.000000 0.211530 0.277798
O O11 0.893890 0.223579 0.000000
#
# Coordination Sequence:
#
# PCOD9487401 Si02
#       4
#    16  16   8  16
#     4   8  14  26  48  81 118 149 175 207 247 297
#     4  10  19  34  58  81 105 143 182 212 255 315
#     4  11  26  44  58  77 103 127 166 230 286 321
#     4   8  13  23  44  77 113 145 176 208 246 299
#
# _framework density 19.306813999999999
#
# number of rings (size 3 to 8) (size 9 to 14) (size 15 to 20)
#    0.000    3.000    0.000    3.429    0.000    5.714 
#    0.000    5.000    0.000    5.143    0.000    4.000 
#    0.000    0.000    0.000    0.000    0.000    0.000 
#
# Total GULP energy -156252.171948 kJ/mol
# GULP energy per Si atom -5580.434712 kJ/mol
# Density = 1.926287 g / cm^3
# Si number density = 19.306814 Si / 1000 Ang^3
#
#
#
# Elastic Constant Matrix: (Units=GPa)
#
#
# Indices 1 2 3 4 5 6 
#
# 1 156.8985 88.7246 38.0763 0.0000 0.0000 0.0000
# 2 88.7246 76.1480 28.5705 0.0000 0.0000 0.0000
# 3 38.0763 28.5705 102.6725 0.0000 0.0000 0.0000
# 4 0.0000 0.0000 0.0000 21.4323 0.0000 0.0000
# 5 0.0000 0.0000 0.0000 0.0000 -4.2490 0.0000
# 6 0.0000 0.0000 0.0000 0.0000 0.0000 27.9154
#
#
#
# Elastic Compliance Matrix: (Units=1/GPa)
#
#
# Indices 1 2 3 4 5 6 
#
# 1 0.018772 -0.021506 -0.000977 0.000000 0.000000 0.000000
# 2 -0.021506 0.039301 -0.002961 0.000000 0.000000 0.000000
# 3 -0.000977 -0.002961 0.010926 0.000000 0.000000 0.000000
# 4 0.000000 0.000000 0.000000 0.046659 0.000000 0.000000
# 5 0.000000 0.000000 0.000000 0.000000 -0.235350 0.000000
# 6 0.000000 0.000000 0.000000 0.000000 0.000000 0.035823
#
#
# Mechanical properties :
#
#
# Convention : Reuss Voigt Hill
#
# Bulk Modulus (GPa) = 55.21399 71.82912 63.52155
# Shear Modulus (GPa) = -185.56062 21.04291 -82.25886
#
# Velocity S-wave (km/s) = -9.81428 3.30498 -6.53442
# Velocity P-wave (km/s) = 9.98832 7.20060 4.89479
#
# Compressibility (1/GPa) = 0.01811135
#
# Stress axis : x y z
#
# Youngs Moduli (GPa) = 53.27090 25.44480 91.52475
#
# Poissons Ratio (x) = 0.54721 0.08944
# Poissons Ratio (y) = 1.14563 0.27098
# Poissons Ratio (z) = 0.05206 0.07534
#
# Static dielectric constant tensor:
#      x y z
#    x 1.694880 0.000000 0.000000 
#    y 0.000000 1.612910 0.000000 
#    z 0.000000 0.000000 1.758860 
# 
# From -- ./inp_files/6223.got.cif
#   From: 2010.05.17/outbox.cif.g08.bks.cpg/sg65_4_cif.got.tgz:6223.got - 2010.06.03 17:01:31.
