data_PCOD9487909
_publ_section_title
;
Structure prediction by ZEFSAII (Michael W. Deem and Ramdas Pophale) SiO2 
 PCOD9487909
Probable space group: C M M M
;
_chemical_formula_sum "Si O2"
_cell_formula_units_Z 96
_cell_length_a 29.937310
_cell_length_b 16.551111
_cell_length_c 10.610280
_cell_angle_alpha 90.000000
_cell_angle_beta 90.000000
_cell_angle_gamma 90.000000
_cell_volume 5257.348549
_symmetry_space_group_name_H-M "C M M M"
_symmetry_group_IT_number 65
_symmetry_cell_setting 'orthorhombic'
loop_
_space_group_symop_operation_xyz
x,y,z
-x,-y,z
x,-y,-z
-x,y,-z
-x,-y,-z
x,y,-z
-x,y,z
x,-y,z
1/2+x,1/2+y,z
1/2-x,1/2-y,z
1/2+x,1/2-y,-z
1/2-x,1/2+y,-z
1/2-x,1/2-y,-z
1/2+x,1/2+y,-z
1/2-x,1/2+y,z
1/2+x,1/2-y,z
loop_
_atom_site_type_symbol
_atom_site_label
_atom_site_fract_x
_atom_site_fract_y
_atom_site_fract_z
Si Si1 0.133924 0.094375 0.349874
Si Si2 0.814023 0.404335 0.751350
Si Si3 0.051294 0.709933 0.000000
Si Si4 0.362221 0.097386 0.500000
Si Si5 0.864810 0.598156 0.000000
Si Si6 0.949837 0.303614 0.500000
Si Si7 0.729438 0.660279 0.354673
Si Si8 0.448783 0.688053 0.256024
O O1 0.125018 0.103036 0.500000
O O2 0.177627 0.148614 0.321184
O O3 0.090142 0.123130 0.276085
O O4 0.144232 0.000000 0.326394
O O5 0.821229 0.500000 0.750723
O O6 0.837223 0.371430 0.624646
O O7 0.837659 0.373836 0.876732
O O8 0.761708 0.388505 0.737589
O O9 0.086711 0.637947 0.000000
O O10 0.057312 0.763631 0.874303
O O11 0.000000 0.680540 0.000000
O O12 0.412280 0.128810 0.500000
O O13 0.360695 0.000000 0.500000
O O14 0.867609 0.500000 0.000000
O O15 0.944853 0.248818 0.375180
O O16 0.000000 0.337283 0.500000
O O17 0.733757 0.629965 0.500000
O O18 0.750000 0.750000 0.352001
O O19 0.500000 0.656062 0.258019
#
# Coordination Sequence:
#
# PCOD9487909 Si02
#       8
#    16  16   8   8   8   8  16  16
#     4  10  21  36  58  88 120 151 190 243 291 341
#     4  10  20  36  54  78 113 147 185 233 280 335
#     4  10  22  39  60  83 116 155 191 239 291 349
#     4  10  20  31  54  79 104 149 189 228 282 338
#     4  10  22  37  58  85 114 155 195 236 290 340
#     4  10  20  33  54  79 112 143 179 239 289 339
#     4  10  21  33  55  88 116 150 188 232 283 342
#     4  10  21  38  59  85 113 149 189 237 300 348
#
# _framework density 18.260155000000001
#
# number of rings (size 3 to 8) (size 9 to 14) (size 15 to 20)
#    0.000    2.000    1.667    1.500    4.667    1.333 
#    0.000    2.500    0.000    7.500    0.000    0.000 
#    0.000    0.000    0.000    0.000    0.000    0.000 
#
# Total GULP energy -267764.257698 kJ/mol
# GULP energy per Si atom -5578.422035 kJ/mol
# Density = 1.821859 g / cm^3
# Si number density = 18.260155 Si / 1000 Ang^3
#
#
#
# Elastic Constant Matrix: (Units=GPa)
#
#
# Indices 1 2 3 4 5 6 
#
# 1 134.2509 42.8049 46.3746 0.0000 0.0000 0.0000
# 2 42.8049 32.2266 25.8756 0.0000 0.0000 0.0000
# 3 46.3746 25.8756 115.3352 0.0000 0.0000 0.0000
# 4 0.0000 0.0000 0.0000 3.4543 0.0000 0.0000
# 5 0.0000 0.0000 0.0000 0.0000 18.4368 0.0000
# 6 0.0000 0.0000 0.0000 0.0000 0.0000 34.0102
#
#
#
# Elastic Compliance Matrix: (Units=1/GPa)
#
#
# Indices 1 2 3 4 5 6 
#
# 1 0.013180 -0.016163 -0.001673 0.000000 0.000000 0.000000
# 2 -0.016163 0.057669 -0.006439 0.000000 0.000000 0.000000
# 3 -0.001673 -0.006439 0.010788 0.000000 0.000000 0.000000
# 4 0.000000 0.000000 0.000000 0.289496 0.000000 0.000000
# 5 0.000000 0.000000 0.000000 0.000000 0.054239 0.000000
# 6 0.000000 0.000000 0.000000 0.000000 0.000000 0.029403
#
#
# Mechanical properties :
#
#
# Convention : Reuss Voigt Hill
#
# Bulk Modulus (GPa) = 30.22440 56.88031 43.55236
# Shear Modulus (GPa) = 9.72091 22.29744 16.00917
#
# Velocity S-wave (km/s) = 2.30979 3.49821 2.96417
# Velocity P-wave (km/s) = 4.86842 6.89451 5.96807
#
# Compressibility (1/GPa) = 0.03308585
#
# Stress axis : x y z
#
# Youngs Moduli (GPa) = 75.87121 17.34037 92.69675
#
# Poissons Ratio (x) = 0.28027 0.15512
# Poissons Ratio (y) = 1.22631 0.59689
# Poissons Ratio (z) = 0.12696 0.11166
#
# Static dielectric constant tensor:
#      x y z
#    x 1.628960 0.000000 0.000000 
#    y 0.000000 1.627210 0.000000 
#    z 0.000000 0.000000 1.627200 
# 
# From -- ./inp_files/30889.got.cif
#   From: 2010.05.17/outbox.cif.g08.bks.cpg/sg65_16_cif.got.tgz:30889.got - 2010.06.03 17:01:31.
