data_PCOD9487423
_publ_section_title
;
Structure prediction by ZEFSAII (Michael W. Deem and Ramdas Pophale) SiO2 
 PCOD9487423
Probable space group: C M M M
;
_chemical_formula_sum "Si O2"
_cell_formula_units_Z 96
_cell_length_a 14.321874
_cell_length_b 23.142396
_cell_length_c 15.155353
_cell_angle_alpha 90.000000
_cell_angle_beta 90.000000
_cell_angle_gamma 90.000000
_cell_volume 5023.127777
_symmetry_space_group_name_H-M "C M M M"
_symmetry_group_IT_number 65
_symmetry_cell_setting 'orthorhombic'
loop_
_space_group_symop_operation_xyz
x,y,z
-x,-y,z
x,-y,-z
-x,y,-z
-x,-y,-z
x,y,-z
-x,y,z
x,-y,z
1/2+x,1/2+y,z
1/2-x,1/2-y,z
1/2+x,1/2-y,-z
1/2-x,1/2+y,-z
1/2-x,1/2-y,-z
1/2+x,1/2+y,-z
1/2-x,1/2+y,z
1/2+x,1/2-y,z
loop_
_atom_site_type_symbol
_atom_site_label
_atom_site_fract_x
_atom_site_fract_y
_atom_site_fract_z
Si Si1 0.696538 0.932511 0.898758
Si Si2 0.607302 0.359946 0.646316
Si Si3 0.603624 0.566246 0.822566
Si Si4 0.112278 0.726981 0.398763
Si Si5 0.888765 0.373527 0.265824
Si Si6 0.778110 0.565229 0.593455
O O1 0.808475 0.928078 0.886311
O O2 0.651570 0.887571 0.830386
O O3 0.671651 0.000000 0.878085
O O4 0.670645 0.921618 0.000000
O O5 0.500000 0.369201 0.615646
O O6 0.611544 0.386315 0.745245
O O7 0.628184 0.292364 0.633264
O O8 0.687908 0.394746 0.598173
O O9 0.500000 0.571844 0.862643
O O10 0.608963 0.500000 0.785762
O O11 0.147534 0.718310 0.500000
O O12 0.144081 0.682607 0.322512
O O13 0.000000 0.719579 0.403723
O O14 0.847886 0.423852 0.327120
O O15 0.000000 0.372717 0.261262
O O16 0.827934 0.575145 0.500000
O O17 0.744451 0.500000 0.597241
#
# Coordination Sequence:
#
# PCOD9487423 Si02
#       6
#    16  16  16  16  16  16
#     4  10  21  38  61  89 117 144 184 239 295 353
#     4  10  19  34  58  86 119 153 187 230 281 339
#     4   9  17  32  57  87 120 156 188 224 282 350
#     4   9  19  36  58  84 113 151 200 242 278 330
#     4  11  23  40  59  78 110 152 195 245 293 330
#     4  11  23  36  53  82 117 153 194 234 282 345
#
# _framework density 19.111598000000001
#
# number of rings (size 3 to 8) (size 9 to 14) (size 15 to 20)
#    0.000    2.000    1.667    2.000    0.000    5.667 
#    0.000    5.833    0.000    2.000    0.000    4.667 
#    0.000    0.000    0.000    0.000    0.000    0.000 
#
# Total GULP energy -267609.991357 kJ/mol
# GULP energy per Si atom -5575.208153 kJ/mol
# Density = 1.906810 g / cm^3
# Si number density = 19.111598 Si / 1000 Ang^3
#
#
#
# Elastic Constant Matrix: (Units=GPa)
#
#
# Indices 1 2 3 4 5 6 
#
# 1 65.1272 20.8931 27.5137 0.0000 0.0000 0.0000
# 2 20.8931 108.7441 48.5496 0.0000 0.0000 0.0000
# 3 27.5137 48.5496 112.0615 0.0000 0.0000 0.0000
# 4 0.0000 0.0000 0.0000 28.2131 0.0000 0.0000
# 5 0.0000 0.0000 0.0000 0.0000 6.3962 0.0000
# 6 0.0000 0.0000 0.0000 0.0000 0.0000 26.5643
#
#
#
# Elastic Compliance Matrix: (Units=1/GPa)
#
#
# Indices 1 2 3 4 5 6 
#
# 1 0.017405 -0.001781 -0.003502 0.000000 0.000000 0.000000
# 2 -0.001781 0.011583 -0.004581 0.000000 0.000000 0.000000
# 3 -0.003502 -0.004581 0.011768 0.000000 0.000000 0.000000
# 4 0.000000 0.000000 0.000000 0.035445 0.000000 0.000000
# 5 0.000000 0.000000 0.000000 0.000000 0.156343 0.000000
# 6 0.000000 0.000000 0.000000 0.000000 0.000000 0.037644
#
#
# Mechanical properties :
#
#
# Convention : Reuss Voigt Hill
#
# Bulk Modulus (GPa) = 47.55271 53.31617 50.43444
# Shear Modulus (GPa) = 16.83921 24.83315 20.83618
#
# Velocity S-wave (km/s) = 2.97155 3.60860 3.30546
# Velocity P-wave (km/s) = 6.05880 6.73205 6.40428
#
# Compressibility (1/GPa) = 0.02102930
#
# Stress axis : x y z
#
# Youngs Moduli (GPa) = 57.45400 86.33112 84.97448
#
# Poissons Ratio (x) = 0.15372 0.29758
# Poissons Ratio (y) = 0.10230 0.38928
# Poissons Ratio (z) = 0.20120 0.39550
#
# Static dielectric constant tensor:
#      x y z
#    x 1.686710 0.000000 0.000000 
#    y 0.000000 1.672570 0.000000 
#    z 0.000000 0.000000 1.668070 
# 
# From -- ./inp_files/40355.got.cif
#   From: 2010.05.17/outbox.cif.g08.bks.cpg/sg65_21_cif.got.tgz:40355.got - 2010.06.03 17:01:31.
