data_PCOD9487316
_publ_section_title
;
Structure prediction by ZEFSAII (Michael W. Deem and Ramdas Pophale) SiO2 
 PCOD9487316
Probable space group: C M M M
;
_chemical_formula_sum "Si O2"
_cell_formula_units_Z 88
_cell_length_a 18.894901
_cell_length_b 29.178619
_cell_length_c 8.300827
_cell_angle_alpha 90.000000
_cell_angle_beta 90.000000
_cell_angle_gamma 90.000000
_cell_volume 4576.471021
_symmetry_space_group_name_H-M "C M M M"
_symmetry_group_IT_number 65
_symmetry_cell_setting 'orthorhombic'
loop_
_space_group_symop_operation_xyz
x,y,z
-x,-y,z
x,-y,-z
-x,y,-z
-x,-y,-z
x,y,-z
-x,y,z
x,-y,z
1/2+x,1/2+y,z
1/2-x,1/2-y,z
1/2+x,1/2-y,-z
1/2-x,1/2+y,-z
1/2-x,1/2-y,-z
1/2+x,1/2+y,-z
1/2-x,1/2+y,z
1/2+x,1/2-y,z
loop_
_atom_site_type_symbol
_atom_site_label
_atom_site_fract_x
_atom_site_fract_y
_atom_site_fract_z
Si Si1 0.186641 0.717480 0.306075
Si Si2 0.921159 0.553291 0.194420
Si Si3 0.863606 0.111846 0.805818
Si Si4 0.290798 0.886039 0.307815
Si Si5 0.081433 0.790299 0.805716
Si Si6 0.500000 0.446952 0.196998
O O1 0.190081 0.716129 0.500000
O O2 0.250000 0.750000 0.245868
O O3 0.195571 0.665805 0.245696
O O4 0.115943 0.743821 0.256694
O O5 0.913624 0.500000 0.241741
O O6 0.856531 0.582744 0.258517
O O7 0.000000 0.568926 0.246557
O O8 0.919822 0.554984 0.000000
O O9 0.785404 0.097127 0.754292
O O10 0.877323 0.164134 0.748608
O O11 0.928933 0.079939 0.751405
O O12 0.866054 0.112275 0.000000
O O13 0.286903 0.884363 0.500000
O O14 0.000000 0.794777 0.757011
O O15 0.084206 0.789983 0.000000
O O16 0.500000 0.500000 0.247704
O O17 0.500000 0.446388 0.000000
#
# Coordination Sequence:
#
# PCOD9487316 Si02
#       6
#    16  16  16  16  16   8
#     4  10  21  37  53  75 111 151 189 225 269 328
#     4   9  20  41  66  88 112 145 185 230 283 343
#     4  10  19  34  56  81 110 147 192 238 284 336
#     4  11  23  37  57  86 119 152 189 233 281 336
#     4  10  20  34  54  80 108 142 189 239 282 327
#     4   9  18  34  57  83 111 145 187 237 288 337
#
# _framework density 19.228788999999999
#
# number of rings (size 3 to 8) (size 9 to 14) (size 15 to 20)
#    0.000    2.091    2.727    1.091    0.000    4.364 
#    0.000    6.818    0.000    0.545    0.000    0.000 
#    0.000    0.000    0.000    0.000    0.000    0.000 
#
# Total GULP energy -245585.373096 kJ/mol
# GULP energy per Si atom -5581.485752 kJ/mol
# Density = 1.918502 g / cm^3
# Si number density = 19.228789 Si / 1000 Ang^3
#
#
#
# Elastic Constant Matrix: (Units=GPa)
#
#
# Indices 1 2 3 4 5 6 
#
# 1 174.4204 81.2307 18.3731 0.0000 0.0000 0.0000
# 2 81.2307 107.1998 16.6512 0.0000 0.0000 0.0000
# 3 18.3731 16.6512 8.6751 0.0000 0.0000 0.0000
# 4 0.0000 0.0000 0.0000 17.6950 0.0000 0.0000
# 5 0.0000 0.0000 0.0000 0.0000 -934.0974 0.0000
# 6 0.0000 0.0000 0.0000 0.0000 0.0000 36.8417
#
#
#
# Elastic Compliance Matrix: (Units=1/GPa)
#
#
# Indices 1 2 3 4 5 6 
#
# 1 0.009309 -0.005687 -0.008799 0.000000 0.000000 0.000000
# 2 -0.005687 0.016765 -0.020135 0.000000 0.000000 0.000000
# 3 -0.008799 -0.020135 0.172557 0.000000 0.000000 0.000000
# 4 0.000000 0.000000 0.000000 0.056513 0.000000 0.000000
# 5 0.000000 0.000000 0.000000 0.000000 -0.001071 0.000000
# 6 0.000000 0.000000 0.000000 0.000000 0.000000 0.027143
#
#
# Mechanical properties :
#
#
# Convention : Reuss Voigt Hill
#
# Bulk Modulus (GPa) = 7.72870 58.08948 32.90909
# Shear Modulus (GPa) = 12.70361 -164.30943 -75.80291
#
# Velocity S-wave (km/s) = 2.57311 -9.25393 -6.28547
# Velocity P-wave (km/s) = 3.58552 9.15997 5.96025
#
# Compressibility (1/GPa) = 0.12938786
#
# Stress axis : x y z
#
# Youngs Moduli (GPa) = 107.42704 59.64757 5.79518
#
# Poissons Ratio (x) = 0.33920 0.05099
# Poissons Ratio (y) = 0.61092 0.11669
# Poissons Ratio (z) = 0.94530 1.20102
#
# Static dielectric constant tensor:
#      x y z
#    x 1.665580 0.000000 0.000000 
#    y 0.000000 1.665450 0.000000 
#    z 0.000000 0.000000 1.668660 
# 
# From -- ./inp_files/10138.got.cif
#   From: 2010.05.17/outbox.cif.g08.bks.cpg/sg65_6_cif.got.tgz:10138.got - 2010.06.03 17:01:31.
