data_PCOD9487360
_publ_section_title
;
Structure prediction by ZEFSAII (Michael W. Deem and Ramdas Pophale) SiO2 
 PCOD9487360
Probable space group: C M M M
;
_chemical_formula_sum "Si O2"
_cell_formula_units_Z 56
_cell_length_a 19.140068
_cell_length_b 8.743413
_cell_length_c 18.478251
_cell_angle_alpha 90.000000
_cell_angle_beta 90.000000
_cell_angle_gamma 90.000000
_cell_volume 3092.326424
_symmetry_space_group_name_H-M "C M M M"
_symmetry_group_IT_number 65
_symmetry_cell_setting 'orthorhombic'
loop_
_space_group_symop_operation_xyz
x,y,z
-x,-y,z
x,-y,-z
-x,y,-z
-x,-y,-z
x,y,-z
-x,y,z
x,-y,z
1/2+x,1/2+y,z
1/2-x,1/2-y,z
1/2+x,1/2-y,-z
1/2-x,1/2+y,-z
1/2-x,1/2-y,-z
1/2+x,1/2+y,-z
1/2-x,1/2+y,z
1/2+x,1/2-y,z
loop_
_atom_site_type_symbol
_atom_site_label
_atom_site_fract_x
_atom_site_fract_y
_atom_site_fract_z
Si Si1 0.671975 0.183664 0.000000
Si Si2 0.418619 0.683266 0.289806
Si Si3 0.673730 0.817077 0.415608
Si Si4 0.671294 0.815855 0.841138
O O1 0.750000 0.250000 0.000000
O O2 0.642323 0.227710 0.078578
O O3 0.675631 0.000000 0.000000
O O4 0.500000 0.726148 0.286348
O O5 0.413126 0.500000 0.289042
O O6 0.383011 0.746838 0.362336
O O7 0.376493 0.750644 0.222006
O O8 0.659949 0.780445 0.500000
O O9 0.750000 0.750000 0.397108
O O10 0.675506 0.000000 0.407746
O O11 0.750000 0.750000 0.834644
O O12 0.674586 0.000000 0.836119
#
# Coordination Sequence:
#
# PCOD9487360 Si02
#       4
#     8  16  16  16
#     4   8  16  30  51  80 107 135 173 219 269 316
#     4  11  24  39  54  76 109 147 184 221 265 317
#     4  10  21  38  61  86 110 138 175 219 266 317
#     4  10  19  34  57  82 109 140 178 223 269 319
#
# _framework density 18.109344
#
# number of rings (size 3 to 8) (size 9 to 14) (size 15 to 20)
#    0.000    2.000    0.000    3.429    0.000    5.714 
#    0.000    3.571    0.000    4.286    0.000    0.000 
#    0.000    0.000    0.000    0.000    0.000    0.000 
#
# Total GULP energy -156276.982713 kJ/mol
# GULP energy per Si atom -5581.320811 kJ/mol
# Density = 1.806813 g / cm^3
# Si number density = 18.109344 Si / 1000 Ang^3
#
#
#
# Elastic Constant Matrix: (Units=GPa)
#
#
# Indices 1 2 3 4 5 6 
#
# 1 124.7053 52.7230 100.9293 0.0000 0.0000 0.0000
# 2 52.7230 55.0048 55.1892 0.0000 0.0000 0.0000
# 3 100.9293 55.1892 138.1997 0.0000 0.0000 0.0000
# 4 0.0000 0.0000 0.0000 12.7454 0.0000 0.0000
# 5 0.0000 0.0000 0.0000 0.0000 -10.7848 0.0000
# 6 0.0000 0.0000 0.0000 0.0000 0.0000 28.0003
#
#
#
# Elastic Compliance Matrix: (Units=1/GPa)
#
#
# Indices 1 2 3 4 5 6 
#
# 1 0.021590 -0.008133 -0.012520 0.000000 0.000000 0.000000
# 2 -0.008133 0.033398 -0.007398 0.000000 0.000000 0.000000
# 3 -0.012520 -0.007398 0.019334 0.000000 0.000000 0.000000
# 4 0.000000 0.000000 0.000000 0.078460 0.000000 0.000000
# 5 0.000000 0.000000 0.000000 0.000000 -0.092723 0.000000
# 6 0.000000 0.000000 0.000000 0.000000 0.000000 0.035714
#
#
# Mechanical properties :
#
#
# Convention : Reuss Voigt Hill
#
# Bulk Modulus (GPa) = 54.88148 81.73253 68.30701
# Shear Modulus (GPa) = 31.65618 13.26341 22.45979
#
# Velocity S-wave (km/s) = 4.18551 2.70924 3.52551
# Velocity P-wave (km/s) = 7.33004 7.41737 7.37383
#
# Compressibility (1/GPa) = 0.01822108
#
# Stress axis : x y z
#
# Youngs Moduli (GPa) = 46.31772 29.94166 51.72320
#
# Poissons Ratio (x) = 0.24350 0.64756
# Poissons Ratio (y) = 0.37668 0.38265
# Poissons Ratio (z) = 0.57989 0.22151
#
# Static dielectric constant tensor:
#      x y z
#    x 1.572750 0.000000 0.000000 
#    y 0.000000 1.603550 0.000000 
#    z 0.000000 0.000000 1.648110 
# 
# From -- ./inp_files/48749.got.cif
#   From: 2010.05.17/outbox.cif.g08.bks.cpg/sg65_25_cif.got.tgz:48749.got - 2010.06.03 17:01:31.
