data_PCOD9487464
_publ_section_title
;
Structure prediction by ZEFSAII (Michael W. Deem and Ramdas Pophale) SiO2 
 PCOD9487464
Probable space group: C M M M
;
_chemical_formula_sum "Si O2"
_cell_formula_units_Z 72
_cell_length_a 20.902555
_cell_length_b 20.535074
_cell_length_c 7.536459
_cell_angle_alpha 90.000000
_cell_angle_beta 90.000000
_cell_angle_gamma 90.000000
_cell_volume 3234.915850
_symmetry_space_group_name_H-M "C M M M"
_symmetry_group_IT_number 65
_symmetry_cell_setting 'orthorhombic'
loop_
_space_group_symop_operation_xyz
x,y,z
-x,-y,z
x,-y,-z
-x,y,-z
-x,-y,-z
x,y,-z
-x,y,z
x,-y,z
1/2+x,1/2+y,z
1/2-x,1/2-y,z
1/2+x,1/2-y,-z
1/2-x,1/2+y,-z
1/2-x,1/2-y,-z
1/2+x,1/2+y,-z
1/2-x,1/2+y,z
1/2+x,1/2-y,z
loop_
_atom_site_type_symbol
_atom_site_label
_atom_site_fract_x
_atom_site_fract_y
_atom_site_fract_z
Si Si1 0.500000 0.371228 0.287100
Si Si2 0.738693 0.320705 0.702061
Si Si3 0.574580 0.000000 0.712860
Si Si4 0.000000 0.282189 0.211725
Si Si5 0.863274 0.925929 0.717543
Si Si6 0.623885 0.859327 0.795130
O O1 0.500000 0.377358 0.500000
O O2 0.500000 0.294608 0.244332
O O3 0.565554 0.404749 0.225211
O O4 0.715673 0.308212 0.500000
O O5 0.750000 0.250000 0.787362
O O6 0.687936 0.371860 0.778858
O O7 0.808956 0.351122 0.699605
O O8 0.604283 0.065760 0.785658
O O9 0.500000 0.000000 0.757768
O O10 0.581231 0.000000 0.500000
O O11 0.064891 0.316484 0.279380
O O12 0.000000 0.294074 0.000000
O O13 0.861872 0.926061 0.500000
O O14 0.848790 0.000000 0.773111
O O15 0.633655 0.839950 0.000000
#
# Coordination Sequence:
#
# PCOD9487464 Si02
#       6
#     8  16   8   8  16  16
#     4  10  19  34  61  87 108 141 191 243 287 345
#     4  10  21  37  57  85 120 155 197 251 298 343
#     4  11  23  39  61  89 117 150 193 244 297 351
#     4  10  22  38  56  81 115 153 186 231 292 344
#     4   9  18  33  55  84 116 148 187 239 296 347
#     4  11  23  39  59  83 117 157 197 239 290 356
#
# _framework density 22.257148000000001
#
# number of rings (size 3 to 8) (size 9 to 14) (size 15 to 20)
#    0.000    1.889    1.111    2.667    1.556    5.778 
#    0.000    1.111    0.000    2.667    0.000    0.000 
#    0.000    0.000    0.000    0.000    0.000    0.000 
#
# Total GULP energy -201179.131598 kJ/mol
# GULP energy per Si atom -5588.309211 kJ/mol
# Density = 2.220649 g / cm^3
# Si number density = 22.257148 Si / 1000 Ang^3
#
#
#
# Elastic Constant Matrix: (Units=GPa)
#
#
# Indices 1 2 3 4 5 6 
#
# 1 164.8647 89.5372 11.2086 0.0000 0.0000 0.0000
# 2 89.5372 191.4906 1.3991 0.0000 0.0000 0.0000
# 3 11.2086 1.3991 53.9535 0.0000 0.0000 0.0000
# 4 0.0000 0.0000 0.0000 20.8705 0.0000 0.0000
# 5 0.0000 0.0000 0.0000 0.0000 -5.0566 0.0000
# 6 0.0000 0.0000 0.0000 0.0000 0.0000 21.8217
#
#
#
# Elastic Compliance Matrix: (Units=1/GPa)
#
#
# Indices 1 2 3 4 5 6 
#
# 1 0.008269 -0.003855 -0.001618 0.000000 0.000000 0.000000
# 2 -0.003855 0.007020 0.000619 0.000000 0.000000 0.000000
# 3 -0.001618 0.000619 0.018855 0.000000 0.000000 0.000000
# 4 0.000000 0.000000 0.000000 0.047915 0.000000 0.000000
# 5 0.000000 0.000000 0.000000 0.000000 -0.197760 0.000000
# 6 0.000000 0.000000 0.000000 0.000000 0.000000 0.045826
#
#
# Mechanical properties :
#
#
# Convention : Reuss Voigt Hill
#
# Bulk Modulus (GPa) = 40.92319 68.28875 54.60597
# Shear Modulus (GPa) = -96.11158 28.07137 -34.02011
#
# Velocity S-wave (km/s) = -6.57846 3.55523 -3.91385
# Velocity P-wave (km/s) = 6.26698 6.89936 2.04037
#
# Compressibility (1/GPa) = 0.02443603
#
# Stress axis : x y z
#
# Youngs Moduli (GPa) = 120.93385 142.45021 53.03763
#
# Poissons Ratio (x) = 0.54909 0.08581
# Poissons Ratio (y) = 0.46615 -0.03282
# Poissons Ratio (z) = 0.19566 -0.08814
#
# Static dielectric constant tensor:
#      x y z
#    x 1.811820 0.000000 0.000000 
#    y 0.000000 1.775150 0.000000 
#    z 0.000000 0.000000 1.855630 
# 
# From -- ./inp_files/11333.got.cif
#   From: 2010.05.17/outbox.cif.g08.bks.cpg/sg65_6_cif.got.tgz:11333.got - 2010.06.03 17:01:31.
