data_PCOD9487615
_publ_section_title
;
Structure prediction by ZEFSAII (Michael W. Deem and Ramdas Pophale) SiO2 
 PCOD9487615
Probable space group: C M M M
;
_chemical_formula_sum "Si O2"
_cell_formula_units_Z 96
_cell_length_a 23.009655
_cell_length_b 15.614835
_cell_length_c 14.519216
_cell_angle_alpha 90.000000
_cell_angle_beta 90.000000
_cell_angle_gamma 90.000000
_cell_volume 5216.637665
_symmetry_space_group_name_H-M "C M M M"
_symmetry_group_IT_number 65
_symmetry_cell_setting 'orthorhombic'
loop_
_space_group_symop_operation_xyz
x,y,z
-x,-y,z
x,-y,-z
-x,y,-z
-x,-y,-z
x,y,-z
-x,y,z
x,-y,z
1/2+x,1/2+y,z
1/2-x,1/2-y,z
1/2+x,1/2-y,-z
1/2-x,1/2+y,-z
1/2-x,1/2-y,-z
1/2+x,1/2+y,-z
1/2-x,1/2+y,z
1/2+x,1/2-y,z
loop_
_atom_site_type_symbol
_atom_site_label
_atom_site_fract_x
_atom_site_fract_y
_atom_site_fract_z
Si Si1 0.107658 0.401666 0.610141
Si Si2 0.565524 0.855638 0.891282
Si Si3 0.344545 0.592452 0.733033
Si Si4 0.435449 0.258973 0.723643
Si Si5 0.845001 0.500000 0.111657
Si Si6 0.758438 0.647717 0.393116
Si Si7 0.208676 0.000000 0.889891
O O1 0.097299 0.394445 0.500000
O O2 0.094122 0.500000 0.637155
O O3 0.074390 0.327027 0.663912
O O4 0.176004 0.382278 0.625751
O O5 0.500000 0.892706 0.878625
O O6 0.567877 0.771834 0.829371
O O7 0.617014 0.918237 0.859377
O O8 0.572289 0.839741 0.000000
O O9 0.372450 0.500000 0.711542
O O10 0.386525 0.670234 0.710753
O O11 0.286991 0.602727 0.672743
O O12 0.322388 0.580275 0.838691
O O13 0.500000 0.292354 0.704448
O O14 0.777273 0.500000 0.136077
O O15 0.846715 0.500000 0.000000
O O16 0.746078 0.627864 0.500000
O O17 0.750000 0.750000 0.381192
O O18 0.203178 0.000000 0.000000
#
# Coordination Sequence:
#
# PCOD9487615 Si02
#       7
#    16  16  16  16   8  16   8
#     4  10  22  39  61  90 125 161 194 236 293 363
#     4   9  19  34  53  81 117 156 197 241 289 349
#     4  10  23  39  61  85 115 160 198 255 302 358
#     4  11  24  39  59  85 114 155 208 255 298 352
#     4   9  17  32  55  82 115 150 185 230 289 357
#     4  10  19  35  62  93 123 155 195 243 298 360
#     4   9  22  39  58  90 122 155 197 253 315 366
#
# _framework density 18.402657999999999
#
# number of rings (size 3 to 8) (size 9 to 14) (size 15 to 20)
#    0.500    1.667    1.667    0.750    3.500    3.667 
#    0.000    0.833    0.000    4.000    0.000    2.333 
#    0.000    0.000    0.000    0.000    0.000    0.000 
#
# Total GULP energy -267561.147919 kJ/mol
# GULP energy per Si atom -5574.190582 kJ/mol
# Density = 1.836077 g / cm^3
# Si number density = 18.402658 Si / 1000 Ang^3
#
#
#
# Elastic Constant Matrix: (Units=GPa)
#
#
# Indices 1 2 3 4 5 6 
#
# 1 66.4809 20.9631 27.9093 0.0000 0.0000 0.0000
# 2 20.9631 66.8234 28.1839 0.0000 0.0000 0.0000
# 3 27.9093 28.1839 53.3646 0.0000 0.0000 0.0000
# 4 0.0000 0.0000 0.0000 23.5207 0.0000 0.0000
# 5 0.0000 0.0000 0.0000 0.0000 18.1339 0.0000
# 6 0.0000 0.0000 0.0000 0.0000 0.0000 1.7713
#
#
#
# Elastic Compliance Matrix: (Units=1/GPa)
#
#
# Indices 1 2 3 4 5 6 
#
# 1 0.019555 -0.002343 -0.008990 0.000000 0.000000 0.000000
# 2 -0.002343 0.019534 -0.009091 0.000000 0.000000 0.000000
# 3 -0.008990 -0.009091 0.028242 0.000000 0.000000 0.000000
# 4 0.000000 0.000000 0.000000 0.042516 0.000000 0.000000
# 5 0.000000 0.000000 0.000000 0.000000 0.055145 0.000000
# 6 0.000000 0.000000 0.000000 0.000000 0.000000 0.564554
#
#
# Mechanical properties :
#
#
# Convention : Reuss Voigt Hill
#
# Bulk Modulus (GPa) = 37.76003 37.86463 37.81233
# Shear Modulus (GPa) = 6.41667 15.99270 11.20468
#
# Velocity S-wave (km/s) = 1.86933 2.95115 2.47019
# Velocity P-wave (km/s) = 5.02220 5.67738 5.35981
#
# Compressibility (1/GPa) = 0.02648303
#
# Stress axis : x y z
#
# Youngs Moduli (GPa) = 51.13885 51.19198 35.40823
#
# Poissons Ratio (x) = 0.11994 0.31830
# Poissons Ratio (y) = 0.11982 0.32191
# Poissons Ratio (z) = 0.45971 0.46541
#
# Static dielectric constant tensor:
#      x y z
#    x 1.619680 0.000000 0.000000 
#    y 0.000000 1.635290 0.000000 
#    z 0.000000 0.000000 1.650260 
# 
# From -- ./inp_files/45657.got.cif
#   From: 2010.05.17/outbox.cif.g08.bks.cpg/sg65_23_cif.got.tgz:45657.got - 2010.06.03 17:01:31.
