data_PCOD9487178
_publ_section_title
;
Structure prediction by ZEFSAII (Michael W. Deem and Ramdas Pophale) SiO2 
 PCOD9487178
Probable space group: C M M M
;
_chemical_formula_sum "Si O2"
_cell_formula_units_Z 64
_cell_length_a 20.314413
_cell_length_b 13.652111
_cell_length_c 13.960658
_cell_angle_alpha 90.000000
_cell_angle_beta 90.000000
_cell_angle_gamma 90.000000
_cell_volume 3871.773798
_symmetry_space_group_name_H-M "C M M M"
_symmetry_group_IT_number 65
_symmetry_cell_setting 'orthorhombic'
loop_
_space_group_symop_operation_xyz
x,y,z
-x,-y,z
x,-y,-z
-x,y,-z
-x,-y,-z
x,y,-z
-x,y,z
x,-y,z
1/2+x,1/2+y,z
1/2-x,1/2-y,z
1/2+x,1/2-y,-z
1/2-x,1/2+y,-z
1/2-x,1/2-y,-z
1/2+x,1/2+y,-z
1/2-x,1/2+y,z
1/2+x,1/2-y,z
loop_
_atom_site_type_symbol
_atom_site_label
_atom_site_fract_x
_atom_site_fract_y
_atom_site_fract_z
Si Si1 0.137816 0.000000 0.229135
Si Si2 0.253974 0.000000 0.613553
Si Si3 0.805331 0.665408 0.742867
Si Si4 0.264861 0.000000 0.112413
Si Si5 0.579426 0.385737 0.500000
Si Si6 0.077798 0.803582 0.294573
O O1 0.187928 0.000000 0.320810
O O2 0.187311 0.000000 0.139812
O O3 0.094588 0.097344 0.236617
O O4 0.292651 0.904060 0.650980
O O5 0.244801 0.000000 0.500000
O O6 0.750000 0.750000 0.743685
O O7 0.794543 0.594805 0.833864
O O8 0.875983 0.716498 0.740626
O O9 0.275692 0.000000 0.000000
O O10 0.598948 0.500000 0.500000
O O11 0.500000 0.387435 0.500000
O O12 0.598891 0.330267 0.403668
O O13 0.000000 0.783421 0.291999
#
# Coordination Sequence:
#
# PCOD9487178 Si02
#       6
#     8   8  16   8   8  16
#     4  10  19  34  53  88 113 137 181 222 293 331
#     4  10  22  33  51  79 117 149 182 236 268 303
#     4  10  20  38  55  83 108 142 191 221 274 330
#     4  10  22  41  63  82 105 134 183 240 281 339
#     4   9  18  28  45  77 117 163 188 202 253 320
#     4  11  20  33  54  82 121 153 183 224 265 324
#
# _framework density 16.529890999999999
#
# number of rings (size 3 to 8) (size 9 to 14) (size 15 to 20)
#    0.000    2.125    6.250    0.375    3.500    1.000 
#    0.000    2.500    0.000    5.250    0.000    0.000 
#    0.000    0.000    0.000    0.000    0.000    0.000 
#
# Total GULP energy -178440.673306 kJ/mol
# GULP energy per Si atom -5576.271041 kJ/mol
# Density = 1.649227 g / cm^3
# Si number density = 16.529891 Si / 1000 Ang^3
#
#
#
# Elastic Constant Matrix: (Units=GPa)
#
#
# Indices 1 2 3 4 5 6 
#
# 1 100.7239 53.7128 23.9717 0.0000 0.0000 0.0000
# 2 53.7128 119.7956 45.1148 0.0000 0.0000 0.0000
# 3 23.9717 45.1148 104.4059 0.0000 0.0000 0.0000
# 4 0.0000 0.0000 0.0000 6.0183 0.0000 0.0000
# 5 0.0000 0.0000 0.0000 0.0000 15.8506 0.0000
# 6 0.0000 0.0000 0.0000 0.0000 0.0000 27.8250
#
#
#
# Elastic Compliance Matrix: (Units=1/GPa)
#
#
# Indices 1 2 3 4 5 6 
#
# 1 0.013075 -0.005652 -0.000560 0.000000 0.000000 0.000000
# 2 -0.005652 0.012413 -0.004066 0.000000 0.000000 0.000000
# 3 -0.000560 -0.004066 0.011464 0.000000 0.000000 0.000000
# 4 0.000000 0.000000 0.000000 0.166159 0.000000 0.000000
# 5 0.000000 0.000000 0.000000 0.000000 0.063089 0.000000
# 6 0.000000 0.000000 0.000000 0.000000 0.000000 0.035939
#
#
# Mechanical properties :
#
#
# Convention : Reuss Voigt Hill
#
# Bulk Modulus (GPa) = 60.98953 63.39156 62.19054
# Shear Modulus (GPa) = 15.23648 23.41387 19.32517
#
# Velocity S-wave (km/s) = 3.03933 3.76767 3.42293
# Velocity P-wave (km/s) = 7.02092 7.57364 7.30251
#
# Compressibility (1/GPa) = 0.01639626
#
# Stress axis : x y z
#
# Youngs Moduli (GPa) = 76.48032 80.56143 87.23296
#
# Poissons Ratio (x) = 0.45531 0.04885
# Poissons Ratio (y) = 0.43224 0.35470
# Poissons Ratio (z) = 0.04282 0.32757
#
# Static dielectric constant tensor:
#      x y z
#    x 1.564160 0.000000 0.000000 
#    y 0.000000 1.556260 0.000000 
#    z 0.000000 0.000000 1.559250 
# 
# From -- ./inp_files/42094.got.cif
#   From: 2010.05.17/outbox.cif.g08.bks.cpg/sg65_22_cif.got.tgz:42094.got - 2010.06.03 17:01:31.
