data_PCOD9487212
_publ_section_title
;
Structure prediction by ZEFSAII (Michael W. Deem and Ramdas Pophale) SiO2 
 PCOD9487212
Probable space group: C M M M
;
_chemical_formula_sum "Si O2"
_cell_formula_units_Z 88
_cell_length_a 17.472648
_cell_length_b 15.575053
_cell_length_c 16.954334
_cell_angle_alpha 90.000000
_cell_angle_beta 90.000000
_cell_angle_gamma 90.000000
_cell_volume 4613.908690
_symmetry_space_group_name_H-M "C M M M"
_symmetry_group_IT_number 65
_symmetry_cell_setting 'orthorhombic'
loop_
_space_group_symop_operation_xyz
x,y,z
-x,-y,z
x,-y,-z
-x,y,-z
-x,-y,-z
x,y,-z
-x,y,z
x,-y,z
1/2+x,1/2+y,z
1/2-x,1/2-y,z
1/2+x,1/2-y,-z
1/2-x,1/2+y,-z
1/2-x,1/2-y,-z
1/2+x,1/2+y,-z
1/2-x,1/2+y,z
1/2+x,1/2-y,z
loop_
_atom_site_type_symbol
_atom_site_label
_atom_site_fract_x
_atom_site_fract_y
_atom_site_fract_z
Si Si1 0.156899 0.829054 0.591035
Si Si2 0.090566 0.361667 0.412307
Si Si3 0.215948 0.596355 0.297698
Si Si4 0.172953 0.900871 0.000000
Si Si5 0.591902 0.216515 0.000000
Si Si6 0.500000 0.399398 0.411164
Si Si7 0.687795 0.101861 0.880588
O O1 0.173526 0.858237 0.500000
O O2 0.131092 0.731039 0.586109
O O3 0.225966 0.849746 0.648671
O O4 0.080419 0.873563 0.624378
O O5 0.100558 0.399392 0.500000
O O6 0.135893 0.408181 0.343945
O O7 0.000000 0.353376 0.398244
O O8 0.248250 0.500000 0.291070
O O9 0.200326 0.628386 0.209756
O O10 0.118694 0.816876 0.000000
O O11 0.231135 0.893341 0.073991
O O12 0.141405 0.000000 0.000000
O O13 0.629119 0.164309 0.073930
O O14 0.500000 0.211500 0.000000
O O15 0.500000 0.500000 0.419059
O O16 0.500000 0.358961 0.500000
O O17 0.664247 0.000000 0.883761
#
# Coordination Sequence:
#
# PCOD9487212 Si02
#       7
#    16  16  16   8   8   8  16
#     4  10  19  34  54  78 108 145 193 243 289 340
#     4  10  21  37  53  72 106 152 198 241 290 344
#     4  11  23  36  55  84 114 145 190 240 287 338
#     4   9  19  39  65  87 118 155 183 218 272 343
#     4  11  22  36  63  97 119 145 187 229 280 344
#     4   9  16  28  50  76 103 136 174 228 292 338
#     4   9  20  39  60  84 116 153 190 235 284 335
#
# _framework density 19.072766000000001
#
# number of rings (size 3 to 8) (size 9 to 14) (size 15 to 20)
#    0.000    2.091    0.909    3.545    0.000    8.545 
#    0.000    2.727    2.000    0.000    0.000    0.000 
#    0.000    0.000    0.000    0.000    0.000    0.000 
#
# Total GULP energy -245275.095883 kJ/mol
# GULP energy per Si atom -5574.433997 kJ/mol
# Density = 1.902936 g / cm^3
# Si number density = 19.072766 Si / 1000 Ang^3
#
#
#
# Elastic Constant Matrix: (Units=GPa)
#
#
# Indices 1 2 3 4 5 6 
#
# 1 130.8920 53.4530 75.3147 0.0000 0.0000 0.0000
# 2 53.4530 104.5507 38.8352 0.0000 0.0000 0.0000
# 3 75.3147 38.8352 146.7961 0.0000 0.0000 0.0000
# 4 0.0000 0.0000 0.0000 6.7316 0.0000 0.0000
# 5 0.0000 0.0000 0.0000 0.0000 6.0666 0.0000
# 6 0.0000 0.0000 0.0000 0.0000 0.0000 15.8450
#
#
#
# Elastic Compliance Matrix: (Units=1/GPa)
#
#
# Indices 1 2 3 4 5 6 
#
# 1 0.012449 -0.004427 -0.005216 0.000000 0.000000 0.000000
# 2 -0.004427 0.012182 -0.000951 0.000000 0.000000 0.000000
# 3 -0.005216 -0.000951 0.009740 0.000000 0.000000 0.000000
# 4 0.000000 0.000000 0.000000 0.148553 0.000000 0.000000
# 5 0.000000 0.000000 0.000000 0.000000 0.164838 0.000000
# 6 0.000000 0.000000 0.000000 0.000000 0.000000 0.063111
#
#
# Mechanical properties :
#
#
# Convention : Reuss Voigt Hill
#
# Bulk Modulus (GPa) = 75.86229 79.71609 77.78919
# Shear Modulus (GPa) = 11.45591 20.03769 15.74680
#
# Velocity S-wave (km/s) = 2.45346 3.24480 2.87647
# Velocity P-wave (km/s) = 6.92008 7.47829 7.20459
#
# Compressibility (1/GPa) = 0.01318178
#
# Stress axis : x y z
#
# Youngs Moduli (GPa) = 80.32742 82.09109 102.67135
#
# Poissons Ratio (x) = 0.36345 0.53551
# Poissons Ratio (y) = 0.35564 0.09766
# Poissons Ratio (z) = 0.41897 0.07808
#
# Static dielectric constant tensor:
#      x y z
#    x 1.676380 0.000000 0.000000 
#    y 0.000000 1.717260 0.000000 
#    z 0.000000 0.000000 1.670320 
# 
# From -- ./inp_files/54389.got.cif
#   From: 2010.05.17/outbox.cif.g08.bks.cpg/sg65_28_cif.got.tgz:54389.got - 2010.06.03 17:01:31.
