data_PCOD9487013
_publ_section_title
;
Structure prediction by ZEFSAII (Michael W. Deem and Ramdas Pophale) SiO2 
 PCOD9487013
Probable space group: C M M M
;
_chemical_formula_sum "Si O2"
_cell_formula_units_Z 104
_cell_length_a 29.788549
_cell_length_b 9.789185
_cell_length_c 20.395870
_cell_angle_alpha 90.000000
_cell_angle_beta 90.000000
_cell_angle_gamma 90.000000
_cell_volume 5947.550256
_symmetry_space_group_name_H-M "C M M M"
_symmetry_group_IT_number 65
_symmetry_cell_setting 'orthorhombic'
loop_
_space_group_symop_operation_xyz
x,y,z
-x,-y,z
x,-y,-z
-x,y,-z
-x,-y,-z
x,y,-z
-x,y,z
x,-y,z
1/2+x,1/2+y,z
1/2-x,1/2-y,z
1/2+x,1/2-y,-z
1/2-x,1/2+y,-z
1/2-x,1/2-y,-z
1/2+x,1/2+y,-z
1/2-x,1/2+y,z
1/2+x,1/2-y,z
loop_
_atom_site_type_symbol
_atom_site_label
_atom_site_fract_x
_atom_site_fract_y
_atom_site_fract_z
Si Si1 0.790907 0.344294 0.096746
Si Si2 0.418016 0.344498 0.575485
Si Si3 0.552671 0.338506 0.183117
Si Si4 0.000000 0.652636 0.579292
Si Si5 0.605714 0.163314 0.924736
Si Si6 0.872463 0.155509 0.290986
Si Si7 0.290842 0.156024 0.254617
O O1 0.785719 0.500000 0.073564
O O2 0.750000 0.250000 0.074042
O O3 0.841411 0.297758 0.079701
O O4 0.788403 0.347706 0.175702
O O5 0.403972 0.318610 0.500000
O O6 0.436267 0.500000 0.577152
O O7 0.456147 0.238424 0.595577
O O8 0.380855 0.337452 0.631375
O O9 0.500000 0.303672 0.191225
O O10 0.555169 0.500000 0.165813
O O11 0.576539 0.248223 0.127062
O O12 0.581682 0.322584 0.249787
O O13 0.000000 0.500000 0.606294
O O14 0.000000 0.644659 0.500000
O O15 0.603370 0.000000 0.910547
O O16 0.590862 0.184584 0.000000
O O17 0.836754 0.268133 0.271382
O O18 0.857121 0.000000 0.274703
O O19 0.250000 0.250000 0.278949
O O20 0.288703 0.000000 0.278458
#
# Coordination Sequence:
#
# PCOD9487013 Si02
#       7
#    16  16  16   8  16  16  16
#     4   9  18  32  51  77 107 136 167 208 258 314
#     4   9  18  32  51  75 105 143 182 219 265 323
#     4  10  22  38  55  77 106 139 178 224 267 310
#     4   9  17  29  45  69 103 139 176 217 260 311
#     4  10  21  38  57  77 105 140 178 220 265 315
#     4  10  20  34  56  81 108 140 178 221 267 316
#     4  10  19  33  55  81 110 139 174 216 265 318
#
# _framework density 17.486191000000002
#
# number of rings (size 3 to 8) (size 9 to 14) (size 15 to 20)
#    0.000    2.385    1.538    0.692    1.077    4.000 
#    0.000    1.538    0.000    0.462    0.000    0.000 
#    0.000    0.000    0.000    0.000    0.000    0.000 
#
# Total GULP energy -289843.840758 kJ/mol
# GULP energy per Si atom -5573.920015 kJ/mol
# Density = 1.744639 g / cm^3
# Si number density = 17.486191 Si / 1000 Ang^3
#
#
#
# Elastic Constant Matrix: (Units=GPa)
#
#
# Indices 1 2 3 4 5 6 
#
# 1 109.4503 69.8089 34.6919 0.0000 0.0000 0.0000
# 2 69.8089 105.8296 44.9230 0.0000 0.0000 0.0000
# 3 34.6919 44.9230 71.5759 0.0000 0.0000 0.0000
# 4 0.0000 0.0000 0.0000 -17.0500 0.0000 0.0000
# 5 0.0000 0.0000 0.0000 0.0000 -19.7506 0.0000
# 6 0.0000 0.0000 0.0000 0.0000 0.0000 75.7459
#
#
#
# Elastic Compliance Matrix: (Units=1/GPa)
#
#
# Indices 1 2 3 4 5 6 
#
# 1 0.015895 -0.009835 -0.001531 0.000000 0.000000 0.000000
# 2 -0.009835 0.018966 -0.007137 0.000000 0.000000 0.000000
# 3 -0.001531 -0.007137 0.019193 0.000000 0.000000 0.000000
# 4 0.000000 0.000000 0.000000 -0.058651 0.000000 0.000000
# 5 0.000000 0.000000 0.000000 0.000000 -0.050631 0.000000
# 6 0.000000 0.000000 0.000000 0.000000 0.000000 0.013202
#
#
# Mechanical properties :
#
#
# Convention : Reuss Voigt Hill
#
# Bulk Modulus (GPa) = 58.65959 65.07814 61.86886
# Shear Modulus (GPa) = 7565.60983 16.95119 3791.28051
#
# Velocity S-wave (km/s) = 65.84841 3.11690 46.61399
# Velocity P-wave (km/s) = 76.25594 7.08880 54.15358
#
# Compressibility (1/GPa) = 0.01704751
#
# Stress axis : x y z
#
# Youngs Moduli (GPa) = 62.91448 52.72651 52.10309
#
# Poissons Ratio (x) = 0.51854 0.07980
# Poissons Ratio (y) = 0.61873 0.37185
# Poissons Ratio (z) = 0.09635 0.37630
#
# Static dielectric constant tensor:
#      x y z
#    x 1.580590 0.000000 0.000000 
#    y 0.000000 1.605530 0.000000 
#    z 0.000000 0.000000 1.598630 
# 
# From -- ./inp_files/66404.got.cif
#   From: 2010.05.17/outbox.cif.g08.bks.cpg/sg65_34_cif.got.tgz:66404.got - 2010.06.03 17:01:31.
