data_PCOD9487870
_publ_section_title
;
Structure prediction by ZEFSAII (Michael W. Deem and Ramdas Pophale) SiO2 
 PCOD9487870
Probable space group: C M M M
;
_chemical_formula_sum "Si O2"
_cell_formula_units_Z 104
_cell_length_a 9.089419
_cell_length_b 30.706041
_cell_length_c 23.084295
_cell_angle_alpha 90.000000
_cell_angle_beta 90.000000
_cell_angle_gamma 90.000000
_cell_volume 6442.828408
_symmetry_space_group_name_H-M "C M M M"
_symmetry_group_IT_number 65
_symmetry_cell_setting 'orthorhombic'
loop_
_space_group_symop_operation_xyz
x,y,z
-x,-y,z
x,-y,-z
-x,y,-z
-x,-y,-z
x,y,-z
-x,y,z
x,-y,z
1/2+x,1/2+y,z
1/2-x,1/2-y,z
1/2+x,1/2-y,-z
1/2-x,1/2+y,-z
1/2-x,1/2-y,-z
1/2+x,1/2+y,-z
1/2-x,1/2+y,z
1/2+x,1/2-y,z
loop_
_atom_site_type_symbol
_atom_site_label
_atom_site_fract_x
_atom_site_fract_y
_atom_site_fract_z
Si Si1 0.662180 0.500000 0.430820
Si Si2 0.169800 0.447305 0.064492
Si Si3 0.323161 0.705400 0.685829
Si Si4 0.170460 0.380833 0.730381
Si Si5 0.322678 0.181713 0.435168
Si Si6 0.675717 0.551443 0.816742
Si Si7 0.166097 0.414061 0.598973
O O1 0.500000 0.500000 0.405606
O O2 0.657143 0.500000 0.500000
O O3 0.739525 0.456054 0.412049
O O4 0.169255 0.500000 0.062476
O O5 0.272377 0.436114 0.118353
O O6 0.000000 0.433797 0.074763
O O7 0.214671 0.432177 0.000000
O O8 0.500000 0.706730 0.687158
O O9 0.250000 0.750000 0.707900
O O10 0.260303 0.664000 0.721268
O O11 0.266194 0.700607 0.619076
O O12 0.244724 0.415467 0.773232
O O13 0.168299 0.402109 0.666573
O O14 0.000000 0.372149 0.746613
O O15 0.290288 0.198264 0.500000
O O16 0.500000 0.186352 0.424721
O O17 0.288652 0.130085 0.433299
O O18 0.500000 0.554737 0.811272
O O19 0.715723 0.500000 0.806947
O O20 0.000000 0.423921 0.580724
#
# Coordination Sequence:
#
# PCOD9487870 Si02
#       7
#     8  16  16  16  16  16  16
#     4  11  23  33  43  63  89 117 152 195 240 287
#     4   8  14  26  44  66  95 135 179 215 247 285
#     4  11  22  37  56  76  99 125 156 196 248 303
#     4  10  21  37  54  72  96 127 166 206 248 294
#     4   9  18  34  54  74  95 119 151 192 239 295
#     4  10  20  31  46  73 106 139 174 211 252 293
#     4   9  19  34  50  66  85 117 157 196 239 286
#
# _framework density 16.141978999999999
#
# number of rings (size 3 to 8) (size 9 to 14) (size 15 to 20)
#    0.000    2.385    0.000    4.385    1.077    6.154 
#    0.000    1.538    0.000    0.000    0.000    0.000 
#    0.000    0.615    0.000    2.308    0.000    3.538 
#
# Total GULP energy -289881.953337 kJ/mol
# GULP energy per Si atom -5574.652949 kJ/mol
# Density = 1.610524 g / cm^3
# Si number density = 16.141979 Si / 1000 Ang^3
#
#
#
# Elastic Constant Matrix: (Units=GPa)
#
#
# Indices 1 2 3 4 5 6 
#
# 1 93.3452 67.7396 35.4160 0.0000 0.0000 0.0000
# 2 67.7396 104.5616 34.3883 0.0000 0.0000 0.0000
# 3 35.4160 34.3883 79.6531 0.0000 0.0000 0.0000
# 4 0.0000 0.0000 0.0000 -26.1806 0.0000 0.0000
# 5 0.0000 0.0000 0.0000 0.0000 24.3314 0.0000
# 6 0.0000 0.0000 0.0000 0.0000 0.0000 23.6120
#
#
#
# Elastic Compliance Matrix: (Units=1/GPa)
#
#
# Indices 1 2 3 4 5 6 
#
# 1 0.021306 -0.012456 -0.004096 0.000000 0.000000 0.000000
# 2 -0.012456 0.018428 -0.002418 0.000000 0.000000 0.000000
# 3 -0.004096 -0.002418 0.015419 0.000000 0.000000 0.000000
# 4 0.000000 0.000000 0.000000 -0.038196 0.000000 0.000000
# 5 0.000000 0.000000 0.000000 0.000000 0.041099 0.000000
# 6 0.000000 0.000000 0.000000 0.000000 0.000000 0.042351
#
#
# Mechanical properties :
#
#
# Convention : Reuss Voigt Hill
#
# Bulk Modulus (GPa) = 58.08916 61.40530 59.74723
# Shear Modulus (GPa) = 34.70165 13.68695 24.19430
#
# Velocity S-wave (km/s) = 4.64160 2.91505 3.87569
# Velocity P-wave (km/s) = 8.04925 7.03231 7.55790
#
# Compressibility (1/GPa) = 0.01721491
#
# Stress axis : x y z
#
# Youngs Moduli (GPa) = 46.93497 54.26394 64.85382
#
# Poissons Ratio (x) = 0.67591 0.26562
# Poissons Ratio (y) = 0.58462 0.15680
# Poissons Ratio (z) = 0.19223 0.13120
#
# Static dielectric constant tensor:
#      x y z
#    x 1.554100 0.000000 0.000000 
#    y 0.000000 1.554300 0.000000 
#    z 0.000000 0.000000 1.542200 
# 
# From -- ./inp_files/68521.got.cif
#   From: 2010.05.17/outbox.cif.g08.bks.cpg/sg65_35_cif.got.tgz:68521.got - 2010.06.03 17:01:31.
