data_PCOD9487418
_publ_section_title
;
Structure prediction by ZEFSAII (Michael W. Deem and Ramdas Pophale) SiO2 
 PCOD9487418
Probable space group: C M M M
;
_chemical_formula_sum "Si O2"
_cell_formula_units_Z 96
_cell_length_a 15.637202
_cell_length_b 22.075280
_cell_length_c 15.084809
_cell_angle_alpha 90.000000
_cell_angle_beta 90.000000
_cell_angle_gamma 90.000000
_cell_volume 5207.209883
_symmetry_space_group_name_H-M "C M M M"
_symmetry_group_IT_number 65
_symmetry_cell_setting 'orthorhombic'
loop_
_space_group_symop_operation_xyz
x,y,z
-x,-y,z
x,-y,-z
-x,y,-z
-x,-y,-z
x,y,-z
-x,y,z
x,-y,z
1/2+x,1/2+y,z
1/2-x,1/2-y,z
1/2+x,1/2-y,-z
1/2-x,1/2+y,-z
1/2-x,1/2-y,-z
1/2+x,1/2+y,-z
1/2-x,1/2+y,z
1/2+x,1/2-y,z
loop_
_atom_site_type_symbol
_atom_site_label
_atom_site_fract_x
_atom_site_fract_y
_atom_site_fract_z
Si Si1 0.406922 0.866591 0.228593
Si Si2 0.903473 0.879365 0.105478
Si Si3 0.775717 0.929297 0.753334
Si Si4 0.126407 0.707767 0.399690
Si Si5 0.677684 0.661562 0.600600
Si Si6 0.150074 0.742817 0.105618
O O1 0.500000 0.895334 0.210785
O O2 0.322341 0.908074 0.230859
O O3 0.411004 0.833900 0.323985
O O4 0.389773 0.812687 0.158570
O O5 0.831980 0.914129 0.160425
O O6 0.893277 0.807448 0.123799
O O7 0.000000 0.898500 0.128264
O O8 0.891187 0.887139 0.000000
O O9 0.818206 0.890217 0.673912
O O10 0.777515 0.000000 0.732854
O O11 0.094765 0.699554 0.500000
O O12 0.225879 0.687903 0.401854
O O13 0.121549 0.779137 0.376661
O O14 0.656299 0.641762 0.500000
O O15 0.250000 0.750000 0.131175
O O16 0.145902 0.731656 0.000000
#
# Coordination Sequence:
#
# PCOD9487418 Si02
#       6
#    16  16  16  16  16  16
#     4  11  22  34  54  82 113 150 187 222 266 326
#     4  10  21  38  61  87 110 134 173 228 286 339
#     4  11  23  37  54  76 109 153 195 232 268 310
#     4   8  15  29  52  80 109 138 172 223 281 331
#     4   8  15  30  53  79 105 137 178 224 276 328
#     4  10  19  34  58  85 113 139 165 212 281 345
#
# _framework density 18.435977000000001
#
# number of rings (size 3 to 8) (size 9 to 14) (size 15 to 20)
#    0.000    2.333    1.667    2.500    2.333    2.667 
#    0.000    0.833    0.000    1.500    0.000    8.167 
#    0.000    0.000    0.000    0.000    0.000    0.000 
#
# Total GULP energy -267704.550904 kJ/mol
# GULP energy per Si atom -5577.178144 kJ/mol
# Density = 1.839402 g / cm^3
# Si number density = 18.435977 Si / 1000 Ang^3
#
#
#
# Elastic Constant Matrix: (Units=GPa)
#
#
# Indices 1 2 3 4 5 6 
#
# 1 90.9545 25.8125 35.1267 0.0000 0.0000 0.0000
# 2 25.8125 84.3540 39.5603 0.0000 0.0000 0.0000
# 3 35.1267 39.5603 57.4789 0.0000 0.0000 0.0000
# 4 0.0000 0.0000 0.0000 6.3829 0.0000 0.0000
# 5 0.0000 0.0000 0.0000 0.0000 39.0872 0.0000
# 6 0.0000 0.0000 0.0000 0.0000 0.0000 1.7941
#
#
#
# Elastic Compliance Matrix: (Units=1/GPa)
#
#
# Indices 1 2 3 4 5 6 
#
# 1 0.014401 -0.000412 -0.008517 0.000000 0.000000 0.000000
# 2 -0.000412 0.017517 -0.011804 0.000000 0.000000 0.000000
# 3 -0.008517 -0.011804 0.030727 0.000000 0.000000 0.000000
# 4 0.000000 0.000000 0.000000 0.156669 0.000000 0.000000
# 5 0.000000 0.000000 0.000000 0.000000 0.025584 0.000000
# 6 0.000000 0.000000 0.000000 0.000000 0.000000 0.557383
#
#
# Mechanical properties :
#
#
# Convention : Reuss Voigt Hill
#
# Bulk Modulus (GPa) = 47.21929 48.19848 47.70888
# Shear Modulus (GPa) = 5.87678 18.27204 12.07441
#
# Velocity S-wave (km/s) = 1.78734 3.15160 2.56195
# Velocity P-wave (km/s) = 5.47062 6.28044 5.88946
#
# Compressibility (1/GPa) = 0.02117778
#
# Stress axis : x y z
#
# Youngs Moduli (GPa) = 69.44085 57.08784 32.54495
#
# Poissons Ratio (x) = 0.02355 0.27718
# Poissons Ratio (y) = 0.02864 0.38416
# Poissons Ratio (z) = 0.59141 0.67387
#
# Static dielectric constant tensor:
#      x y z
#    x 1.680550 0.000000 0.000000 
#    y 0.000000 1.601590 0.000000 
#    z 0.000000 0.000000 1.642380 
# 
# From -- ./inp_files/40308.got.cif
#   From: 2010.05.17/outbox.cif.g08.bks.cpg/sg65_21_cif.got.tgz:40308.got - 2010.06.03 17:01:31.
