data_PCOD9487093
_publ_section_title
;
Structure prediction by ZEFSAII (Michael W. Deem and Ramdas Pophale) SiO2 
 PCOD9487093
Probable space group: C M M M
;
_chemical_formula_sum "Si O2"
_cell_formula_units_Z 120
_cell_length_a 14.500853
_cell_length_b 21.043928
_cell_length_c 22.444908
_cell_angle_alpha 90.000000
_cell_angle_beta 90.000000
_cell_angle_gamma 90.000000
_cell_volume 6849.173801
_symmetry_space_group_name_H-M "C M M M"
_symmetry_group_IT_number 65
_symmetry_cell_setting 'orthorhombic'
loop_
_space_group_symop_operation_xyz
x,y,z
-x,-y,z
x,-y,-z
-x,y,-z
-x,-y,-z
x,y,-z
-x,y,z
x,-y,z
1/2+x,1/2+y,z
1/2-x,1/2-y,z
1/2+x,1/2-y,-z
1/2-x,1/2+y,-z
1/2-x,1/2-y,-z
1/2+x,1/2+y,-z
1/2-x,1/2+y,z
1/2+x,1/2-y,z
loop_
_atom_site_type_symbol
_atom_site_label
_atom_site_fract_x
_atom_site_fract_y
_atom_site_fract_z
Si Si1 0.606821 0.356914 0.676863
Si Si2 0.222390 0.572507 0.284844
Si Si3 0.855853 0.771653 0.568345
Si Si4 0.391860 0.074635 0.928955
Si Si5 0.214006 0.350332 0.168622
Si Si6 0.103380 0.639258 0.619046
Si Si7 0.111842 0.573651 0.500000
Si Si8 0.390040 0.722385 0.795286
O O1 0.500000 0.373707 0.679427
O O2 0.672895 0.413917 0.695811
O O3 0.631070 0.331319 0.611301
O O4 0.622569 0.301289 0.726694
O O5 0.195000 0.500000 0.295530
O O6 0.211275 0.593406 0.216919
O O7 0.163362 0.620921 0.324806
O O8 0.887821 0.779317 0.500000
O O9 0.750000 0.750000 0.566083
O O10 0.902233 0.712815 0.602396
O O11 0.500000 0.086253 0.914016
O O12 0.326720 0.121448 0.891993
O O13 0.372917 0.000000 0.915933
O O14 0.381716 0.083208 0.000000
O O15 0.318721 0.322769 0.168058
O O16 0.149248 0.292790 0.192692
O O17 0.145146 0.606661 0.559956
O O18 0.000000 0.614265 0.628601
O O19 0.133799 0.500000 0.500000
O O20 0.000000 0.581253 0.500000
O O21 0.500000 0.717829 0.808618
#
# Coordination Sequence:
#
# PCOD9487093 Si02
#       8
#    16  16  16  16  16  16   8  16
#     4  10  21  37  56  74 100 137 174 217 270 320
#     4  11  23  37  53  77 106 133 173 220 260 313
#     4  11  21  34  55  79 100 126 168 220 270 318
#     4   9  18  33  54  82 116 152 189 226 264 310
#     4  10  19  33  57  80 107 144 178 216 268 319
#     4  11  21  34  51  73 101 130 159 203 261 315
#     4   9  18  32  47  64  93 133 165 186 233 313
#     4   9  19  34  53  81 111 140 174 219 272 325
#
# _framework density 17.520361000000001
#
# number of rings (size 3 to 8) (size 9 to 14) (size 15 to 20)
#    0.000    1.933    2.000    2.800    1.867    4.000 
#    0.000    1.333    0.000    2.400    0.000    1.867 
#    0.000    0.000    0.000    0.000    0.000    0.000 
#
# Total GULP energy -334626.738352 kJ/mol
# GULP energy per Si atom -5577.112306 kJ/mol
# Density = 1.748048 g / cm^3
# Si number density = 17.520361 Si / 1000 Ang^3
#
#
#
# Elastic Constant Matrix: (Units=GPa)
#
#
# Indices 1 2 3 4 5 6 
#
# 1 100.1213 11.6436 34.3603 0.0000 0.0000 0.0000
# 2 11.6436 45.2061 25.8549 0.0000 0.0000 0.0000
# 3 34.3603 25.8549 66.0193 0.0000 0.0000 0.0000
# 4 0.0000 0.0000 0.0000 21.1622 0.0000 0.0000
# 5 0.0000 0.0000 0.0000 0.0000 47.1613 0.0000
# 6 0.0000 0.0000 0.0000 0.0000 0.0000 14.7569
#
#
#
# Elastic Compliance Matrix: (Units=1/GPa)
#
#
# Indices 1 2 3 4 5 6 
#
# 1 0.012174 0.000629 -0.006582 0.000000 0.000000 0.000000
# 2 0.000629 0.028538 -0.011504 0.000000 0.000000 0.000000
# 3 -0.006582 -0.011504 0.023078 0.000000 0.000000 0.000000
# 4 0.000000 0.000000 0.000000 0.047254 0.000000 0.000000
# 5 0.000000 0.000000 0.000000 0.000000 0.021204 0.000000
# 6 0.000000 0.000000 0.000000 0.000000 0.000000 0.067765
#
#
# Mechanical properties :
#
#
# Convention : Reuss Voigt Hill
#
# Bulk Modulus (GPa) = 34.63068 39.45160 37.04114
# Shear Modulus (GPa) = 20.44555 25.91528 23.18041
#
# Velocity S-wave (km/s) = 3.41978 3.85015 3.64133
# Velocity P-wave (km/s) = 5.94997 6.50625 6.23432
#
# Compressibility (1/GPa) = 0.02887613
#
# Stress axis : x y z
#
# Youngs Moduli (GPa) = 82.14448 35.04067 43.33121
#
# Poissons Ratio (x) = -0.02204 0.28522
# Poissons Ratio (y) = -0.05168 0.49847
# Poissons Ratio (z) = 0.54070 0.40310
#
# Static dielectric constant tensor:
#      x y z
#    x 1.629200 0.000000 0.000000 
#    y 0.000000 1.600320 0.000000 
#    z 0.000000 0.000000 1.589140 
# 
# From -- ./inp_files/63041.got.cif
#   From: 2010.05.17/outbox.cif.g08.bks.cpg/sg65_32_cif.got.tgz:63041.got - 2010.06.03 17:01:31.
