data_PCOD9487977
_publ_section_title
;
Structure prediction by ZEFSAII (Michael W. Deem and Ramdas Pophale) SiO2 
 PCOD9487977
Probable space group: C M M M
;
_chemical_formula_sum "Si O2"
_cell_formula_units_Z 104
_cell_length_a 25.104630
_cell_length_b 25.364576
_cell_length_c 9.268655
_cell_angle_alpha 90.000000
_cell_angle_beta 90.000000
_cell_angle_gamma 90.000000
_cell_volume 5901.985647
_symmetry_space_group_name_H-M "C M M M"
_symmetry_group_IT_number 65
_symmetry_cell_setting 'orthorhombic'
loop_
_space_group_symop_operation_xyz
x,y,z
-x,-y,z
x,-y,-z
-x,y,-z
-x,-y,-z
x,y,-z
-x,y,z
x,-y,z
1/2+x,1/2+y,z
1/2-x,1/2-y,z
1/2+x,1/2-y,-z
1/2-x,1/2+y,-z
1/2-x,1/2-y,-z
1/2+x,1/2+y,-z
1/2-x,1/2+y,z
1/2+x,1/2-y,z
loop_
_atom_site_type_symbol
_atom_site_label
_atom_site_fract_x
_atom_site_fract_y
_atom_site_fract_z
Si Si1 0.279581 0.940843 0.332950
Si Si2 0.277178 0.836493 0.833664
Si Si3 0.851558 0.163226 0.833297
Si Si4 0.141279 0.730931 0.671043
Si Si5 0.937599 0.657122 0.835697
Si Si6 0.435136 0.940917 0.000000
Si Si7 0.149998 0.941163 0.667296
O O1 0.295193 0.930946 0.500000
O O2 0.295094 0.892910 0.230237
O O3 0.214781 0.941425 0.330462
O O4 0.297222 0.000000 0.291657
O O5 0.213217 0.834686 0.827948
O O6 0.304033 0.791294 0.739039
O O7 0.293933 0.830680 0.000000
O O8 0.870999 0.212345 0.739612
O O9 0.867857 0.107202 0.765603
O O10 0.867376 0.167853 0.000000
O O11 0.144637 0.733896 0.500000
O O12 0.097623 0.689049 0.725297
O O13 0.000000 0.659059 0.799039
O O14 0.931574 0.679551 0.000000
O O15 0.921446 0.595931 0.862757
O O16 0.500000 0.942918 0.000000
O O17 0.414278 0.000000 0.000000
O O18 0.134645 0.933170 0.500000
O O19 0.132888 0.000000 0.712935
#
# Coordination Sequence:
#
# PCOD9487977 Si02
#       7
#    16  16  16  16  16   8  16
#     4   8  14  26  43  61  84 116 154 196 241 287
#     4  10  20  32  46  64  90 125 166 208 248 287
#     4  10  20  32  47  68  94 127 168 212 248 286
#     4  12  23  33  48  68  96 131 163 199 243 296
#     4   8  17  34  56  78  99 123 151 193 243 295
#     4   7  12  28  58  86  99 116 151 195 244 295
#     4   8  14  26  44  65  90 121 157 197 241 287
#
# _framework density 17.621189000000001
#
# number of rings (size 3 to 8) (size 9 to 14) (size 15 to 20)
#    0.462    2.385    0.000    3.692    0.000    4.615 
#    0.000    3.846    0.000    1.385    0.000    2.154 
#    0.000    0.615    0.000    6.462    0.000    3.077 
#
# Total GULP energy -289678.996952 kJ/mol
# GULP energy per Si atom -5570.749941 kJ/mol
# Density = 1.758108 g / cm^3
# Si number density = 17.621189 Si / 1000 Ang^3
#
#
#
# Elastic Constant Matrix: (Units=GPa)
#
#
# Indices 1 2 3 4 5 6 
#
# 1 19.7801 10.4385 9.7696 0.0000 0.0000 0.0000
# 2 10.4385 148.7305 84.2037 0.0000 0.0000 0.0000
# 3 9.7696 84.2037 122.8455 0.0000 0.0000 0.0000
# 4 0.0000 0.0000 0.0000 24.0908 0.0000 0.0000
# 5 0.0000 0.0000 0.0000 0.0000 13.7797 0.0000
# 6 0.0000 0.0000 0.0000 0.0000 0.0000 10.1344
#
#
#
# Elastic Compliance Matrix: (Units=1/GPa)
#
#
# Indices 1 2 3 4 5 6 
#
# 1 0.053052 -0.002181 -0.002724 0.000000 0.000000 0.000000
# 2 -0.002181 0.011077 -0.007419 0.000000 0.000000 0.000000
# 3 -0.002724 -0.007419 0.013442 0.000000 0.000000 0.000000
# 4 0.000000 0.000000 0.000000 0.041510 0.000000 0.000000
# 5 0.000000 0.000000 0.000000 0.000000 0.072570 0.000000
# 6 0.000000 0.000000 0.000000 0.000000 0.000000 0.098673
#
#
# Mechanical properties :
#
#
# Convention : Reuss Voigt Hill
#
# Bulk Modulus (GPa) = 18.89544 55.57553 37.23548
# Shear Modulus (GPa) = 15.03239 22.06394 18.54816
#
# Velocity S-wave (km/s) = 2.92393 3.54238 3.24791
# Velocity P-wave (km/s) = 4.70591 6.95261 5.93651
#
# Compressibility (1/GPa) = 0.05292283
#
# Stress axis : x y z
#
# Youngs Moduli (GPa) = 18.84932 90.27677 74.39147
#
# Poissons Ratio (x) = 0.19691 0.20264
# Poissons Ratio (y) = 0.04111 0.55193
# Poissons Ratio (z) = 0.05135 0.66978
#
# Static dielectric constant tensor:
#      x y z
#    x 1.605040 0.000000 0.000000 
#    y 0.000000 1.629430 0.000000 
#    z 0.000000 0.000000 1.587500 
# 
# From -- ./inp_files/16793.got.cif
#   From: 2010.05.17/outbox.cif.g08.bks.cpg/sg65_9_cif.got.tgz:16793.got - 2010.06.03 17:01:31.
