data_PCOD9487712
_publ_section_title
;
Structure prediction by ZEFSAII (Michael W. Deem and Ramdas Pophale) SiO2 
 PCOD9487712
Probable space group: C M M M
;
_chemical_formula_sum "Si O2"
_cell_formula_units_Z 104
_cell_length_a 18.378537
_cell_length_b 16.739609
_cell_length_c 18.541287
_cell_angle_alpha 90.000000
_cell_angle_beta 90.000000
_cell_angle_gamma 90.000000
_cell_volume 5704.218108
_symmetry_space_group_name_H-M "C M M M"
_symmetry_group_IT_number 65
_symmetry_cell_setting 'orthorhombic'
loop_
_space_group_symop_operation_xyz
x,y,z
-x,-y,z
x,-y,-z
-x,y,-z
-x,-y,-z
x,y,-z
-x,y,z
x,-y,z
1/2+x,1/2+y,z
1/2-x,1/2-y,z
1/2+x,1/2-y,-z
1/2-x,1/2+y,-z
1/2-x,1/2-y,-z
1/2+x,1/2+y,-z
1/2-x,1/2+y,z
1/2+x,1/2-y,z
loop_
_atom_site_type_symbol
_atom_site_label
_atom_site_fract_x
_atom_site_fract_y
_atom_site_fract_z
Si Si1 0.913299 0.412122 0.789608
Si Si2 0.823168 0.850111 0.860818
Si Si3 0.583956 0.500000 0.086446
Si Si4 0.199975 0.592402 0.582401
Si Si5 0.586906 0.798606 0.656273
Si Si6 0.839592 0.673689 0.085130
Si Si7 0.303653 0.326315 0.306464
O O1 0.883878 0.500000 0.770343
O O2 0.893671 0.345676 0.730678
O O3 0.887215 0.386408 0.868060
O O4 0.000000 0.415926 0.788641
O O5 0.873842 0.921265 0.887402
O O6 0.852822 0.762528 0.882851
O O7 0.743943 0.850259 0.898362
O O8 0.813191 0.856756 0.774769
O O9 0.500000 0.500000 0.111225
O O10 0.584298 0.500000 0.000000
O O11 0.224740 0.604195 0.500000
O O12 0.178315 0.500000 0.591312
O O13 0.131659 0.650472 0.597751
O O14 0.263601 0.614538 0.638641
O O15 0.500000 0.799064 0.646395
O O16 0.621264 0.710713 0.663509
O O17 0.852741 0.673069 0.000000
O O18 0.250000 0.250000 0.301773
#
# Coordination Sequence:
#
# PCOD9487712 Si02
#       7
#    16  16   8  16  16  16  16
#     4  10  21  36  54  81 117 155 194 236 289 351
#     4  11  21  39  59  84 110 146 198 249 290 343
#     4  11  26  42  56  82 120 158 194 243 304 354
#     4  10  22  38  59  89 122 153 186 228 283 345
#     4  10  20  36  59  86 116 151 194 238 284 337
#     4  11  21  36  58  82 110 149 195 245 298 345
#     4  10  19  37  62  86 112 151 193 239 284 338
#
# _framework density 18.232122
#
# number of rings (size 3 to 8) (size 9 to 14) (size 15 to 20)
#    0.000    1.615    3.077    3.231    2.154    5.846 
#    0.000    1.538    0.000    0.000    0.000    1.077 
#    0.000    0.000    0.000    0.000    0.000    0.000 
#
# Total GULP energy -290244.913019 kJ/mol
# GULP energy per Si atom -5581.632943 kJ/mol
# Density = 1.819062 g / cm^3
# Si number density = 18.232122 Si / 1000 Ang^3
#
#
#
# Elastic Constant Matrix: (Units=GPa)
#
#
# Indices 1 2 3 4 5 6 
#
# 1 58.1628 37.0268 21.7927 0.0000 0.0000 0.0000
# 2 37.0268 43.3894 12.7958 0.0000 0.0000 0.0000
# 3 21.7927 12.7958 104.5404 0.0000 0.0000 0.0000
# 4 0.0000 0.0000 0.0000 46.8576 0.0000 0.0000
# 5 0.0000 0.0000 0.0000 0.0000 8.3536 0.0000
# 6 0.0000 0.0000 0.0000 0.0000 0.0000 15.5288
#
#
#
# Elastic Compliance Matrix: (Units=1/GPa)
#
#
# Indices 1 2 3 4 5 6 
#
# 1 0.039382 -0.032354 -0.004250 0.000000 0.000000 0.000000
# 2 -0.032354 0.050490 0.000565 0.000000 0.000000 0.000000
# 3 -0.004250 0.000565 0.010382 0.000000 0.000000 0.000000
# 4 0.000000 0.000000 0.000000 0.021341 0.000000 0.000000
# 5 0.000000 0.000000 0.000000 0.000000 0.119709 0.000000
# 6 0.000000 0.000000 0.000000 0.000000 0.000000 0.064396
#
#
# Mechanical properties :
#
#
# Convention : Reuss Voigt Hill
#
# Bulk Modulus (GPa) = 35.49007 38.81370 37.15189
# Shear Modulus (GPa) = 12.91416 23.11315 18.01365
#
# Velocity S-wave (km/s) = 2.66431 3.56436 3.14668
# Velocity P-wave (km/s) = 5.38263 6.18663 5.79858
#
# Compressibility (1/GPa) = 0.02817689
#
# Stress axis : x y z
#
# Youngs Moduli (GPa) = 25.39226 19.80580 96.31643
#
# Poissons Ratio (x) = 0.64080 0.40930
# Poissons Ratio (y) = 0.82154 -0.05437
# Poissons Ratio (z) = 0.10790 -0.01118
#
# Static dielectric constant tensor:
#      x y z
#    x 1.636200 0.000000 0.000000 
#    y 0.000000 1.650740 0.000000 
#    z 0.000000 0.000000 1.619960 
# 
# From -- ./inp_files/54589.got.cif
#   From: 2010.05.17/outbox.cif.g08.bks.cpg/sg65_28_cif.got.tgz:54589.got - 2010.06.03 17:01:31.
