data_PCOD9487342
_publ_section_title
;
Structure prediction by ZEFSAII (Michael W. Deem and Ramdas Pophale) SiO2 
 PCOD9487342
Probable space group: C M M M
;
_chemical_formula_sum "Si O2"
_cell_formula_units_Z 84
_cell_length_a 25.126116
_cell_length_b 14.759193
_cell_length_c 12.289306
_cell_angle_alpha 90.000000
_cell_angle_beta 90.000000
_cell_angle_gamma 90.000000
_cell_volume 4557.380927
_symmetry_space_group_name_H-M "C M M M"
_symmetry_group_IT_number 65
_symmetry_cell_setting 'orthorhombic'
loop_
_space_group_symop_operation_xyz
x,y,z
-x,-y,z
x,-y,-z
-x,y,-z
-x,-y,-z
x,y,-z
-x,y,z
x,-y,z
1/2+x,1/2+y,z
1/2-x,1/2-y,z
1/2+x,1/2-y,-z
1/2-x,1/2+y,-z
1/2-x,1/2-y,-z
1/2+x,1/2+y,-z
1/2-x,1/2+y,z
1/2+x,1/2-y,z
loop_
_atom_site_type_symbol
_atom_site_label
_atom_site_fract_x
_atom_site_fract_y
_atom_site_fract_z
Si Si1 0.000000 0.247974 0.000000
Si Si2 0.743053 0.641814 0.374903
Si Si3 0.335422 0.899539 0.210931
Si Si4 0.266714 0.144813 0.000000
Si Si5 0.905777 0.775588 0.820696
Si Si6 0.648333 0.601489 0.000000
Si Si7 0.880197 0.894136 0.371564
O O1 0.953847 0.244694 0.096998
O O2 0.748017 0.613196 0.500000
O O3 0.750000 0.750000 0.368213
O O4 0.791218 0.603200 0.305252
O O5 0.682664 0.617961 0.341233
O O6 0.301504 0.880416 0.103151
O O7 0.377114 0.817483 0.214815
O O8 0.359904 0.000000 0.206778
O O9 0.250000 0.250000 0.000000
O O10 0.211248 0.094188 0.000000
O O11 0.868471 0.840834 0.894662
O O12 0.914410 0.832668 0.710071
O O13 0.624137 0.500000 0.000000
O O14 0.885000 0.869629 0.500000
O O15 0.893531 0.000000 0.359789
#
# Coordination Sequence:
#
# PCOD9487342 Si02
#       7
#     4  16  16   8  16   8  16
#     4  10  26  46  68  80 102 144 192 260 328 350
#     4  10  19  34  56  88 130 168 196 223 263 328
#     4  12  23  35  56  84 118 156 193 235 282 339
#     4  12  20  35  49  77 115 153 187 227 278 342
#     4  11  22  42  59  81 110 142 195 248 296 352
#     4  11  21  33  55  80 110 149 183 226 285 347
#     4  10  20  35  59  90 126 163 190 222 276 343
#
# _framework density 18.431639000000001
#
# number of rings (size 3 to 8) (size 9 to 14) (size 15 to 20)
#    0.000    1.143    3.810    4.286    0.000    1.143 
#    0.000   10.000    0.000    1.143    0.000    0.000 
#    0.000    3.048    0.000    0.000    0.000    0.000 
#
# Total GULP energy -233894.629066 kJ/mol
# GULP energy per Si atom -5568.919740 kJ/mol
# Density = 1.838969 g / cm^3
# Si number density = 18.431639 Si / 1000 Ang^3
#
#
#
# Elastic Constant Matrix: (Units=GPa)
#
#
# Indices 1 2 3 4 5 6 
#
# 1 40.9931 0.9157 27.4549 0.0000 0.0000 0.0000
# 2 0.9157 122.2632 32.7615 0.0000 0.0000 0.0000
# 3 27.4549 32.7615 104.7102 0.0000 0.0000 0.0000
# 4 0.0000 0.0000 0.0000 -6.5679 0.0000 0.0000
# 5 0.0000 0.0000 0.0000 0.0000 88.5831 0.0000
# 6 0.0000 0.0000 0.0000 0.0000 0.0000 -3.9680
#
#
#
# Elastic Compliance Matrix: (Units=1/GPa)
#
#
# Indices 1 2 3 4 5 6 
#
# 1 0.030058 0.002059 -0.008526 0.000000 0.000000 0.000000
# 2 0.002059 0.009069 -0.003377 0.000000 0.000000 0.000000
# 3 -0.008526 -0.003377 0.012842 0.000000 0.000000 0.000000
# 4 0.000000 0.000000 0.000000 -0.152256 0.000000 0.000000
# 5 0.000000 0.000000 0.000000 0.000000 0.011289 0.000000
# 6 0.000000 0.000000 0.000000 0.000000 0.000000 -0.252017
#
#
# Mechanical properties :
#
#
# Convention : Reuss Voigt Hill
#
# Bulk Modulus (GPa) = 30.97693 43.35898 37.16795
# Shear Modulus (GPa) = -16.09958 29.39842 6.64942
#
# Velocity S-wave (km/s) = -2.95867 3.99807 1.90143
# Velocity P-wave (km/s) = 2.27404 6.69986 5.00297
#
# Compressibility (1/GPa) = 0.03228209
#
# Stress axis : x y z
#
# Youngs Moduli (GPa) = 33.26870 110.27015 77.86793
#
# Poissons Ratio (x) = -0.22709 0.66387
# Poissons Ratio (y) = -0.06851 0.26299
# Poissons Ratio (z) = 0.28364 0.37242
#
# Static dielectric constant tensor:
#      x y z
#    x 1.600160 0.000000 0.000000 
#    y 0.000000 1.680840 0.000000 
#    z 0.000000 0.000000 1.635090 
# 
# From -- ./inp_files/24868.got.cif
#   From: 2010.05.17/outbox.cif.g08.bks.cpg/sg65_13_cif.got.tgz:24868.got - 2010.06.03 17:01:31.
