data_PCOD9487027
_publ_section_title
;
Structure prediction by ZEFSAII (Michael W. Deem and Ramdas Pophale) SiO2 
 PCOD9487027
Probable space group: C M M M
;
_chemical_formula_sum "Si O2"
_cell_formula_units_Z 72
_cell_length_a 8.888633
_cell_length_b 15.708712
_cell_length_c 27.403367
_cell_angle_alpha 90.000000
_cell_angle_beta 90.000000
_cell_angle_gamma 90.000000
_cell_volume 3826.304070
_symmetry_space_group_name_H-M "C M M M"
_symmetry_group_IT_number 65
_symmetry_cell_setting 'orthorhombic'
loop_
_space_group_symop_operation_xyz
x,y,z
-x,-y,z
x,-y,-z
-x,y,-z
-x,-y,-z
x,y,-z
-x,y,z
x,-y,z
1/2+x,1/2+y,z
1/2-x,1/2-y,z
1/2+x,1/2-y,-z
1/2-x,1/2+y,-z
1/2-x,1/2-y,-z
1/2+x,1/2+y,-z
1/2-x,1/2+y,z
1/2+x,1/2-y,z
loop_
_atom_site_type_symbol
_atom_site_label
_atom_site_fract_x
_atom_site_fract_y
_atom_site_fract_z
Si Si1 0.324537 0.603194 0.898730
Si Si2 0.683170 0.000000 0.733930
Si Si3 0.673317 0.103992 0.000000
Si Si4 0.681271 0.841409 0.443569
Si Si5 0.319825 0.161023 0.798477
Si Si6 0.316210 0.000000 0.378027
O O1 0.500000 0.625943 0.895668
O O2 0.312766 0.500000 0.896211
O O3 0.256275 0.630800 0.950557
O O4 0.236023 0.641135 0.853115
O O5 0.729891 0.083686 0.763650
O O6 0.500000 0.000000 0.733577
O O7 0.734039 0.000000 0.677993
O O8 0.500000 0.131209 0.000000
O O9 0.675167 0.000000 0.000000
O O10 0.721401 0.861205 0.500000
O O11 0.500000 0.835949 0.441302
O O12 0.750000 0.750000 0.431082
O O13 0.731251 0.916129 0.407556
O O14 0.500000 0.165510 0.798021
O O15 0.250000 0.250000 0.782247
O O16 0.500000 0.000000 0.378005
#
# Coordination Sequence:
#
# PCOD9487027 Si02
#       6
#    16   8   8  16  16   8
#     4  10  19  33  55  82 112 144 181 224 271 325
#     4   9  20  37  57  79 107 142 182 231 281 330
#     4   9  17  29  50  81 114 148 181 216 267 327
#     4   9  17  30  51  79 111 146 184 225 270 323
#     4  11  22  38  58  81 107 141 184 228 279 333
#     4   9  17  32  54  78 105 143 188 227 270 326
#
# _framework density 18.817115000000001
#
# number of rings (size 3 to 8) (size 9 to 14) (size 15 to 20)
#    0.000    2.333    1.111    2.000    0.000    4.444 
#    0.000    1.111    0.000    6.667    0.000    0.000 
#    0.000    0.000    0.000    0.000    0.000    0.000 
#
# Total GULP energy -201026.085359 kJ/mol
# GULP energy per Si atom -5584.057927 kJ/mol
# Density = 1.877429 g / cm^3
# Si number density = 18.817115 Si / 1000 Ang^3
#
#
#
# Elastic Constant Matrix: (Units=GPa)
#
#
# Indices 1 2 3 4 5 6 
#
# 1 57.3608 43.8649 36.0995 0.0000 0.0000 0.0000
# 2 43.8649 136.0382 106.9706 0.0000 0.0000 0.0000
# 3 36.0995 106.9706 161.8316 0.0000 0.0000 0.0000
# 4 0.0000 0.0000 0.0000 -8.6057 0.0000 0.0000
# 5 0.0000 0.0000 0.0000 0.0000 13.2274 0.0000
# 6 0.0000 0.0000 0.0000 0.0000 0.0000 28.2055
#
#
#
# Elastic Compliance Matrix: (Units=1/GPa)
#
#
# Indices 1 2 3 4 5 6 
#
# 1 0.023157 -0.007090 -0.000479 0.000000 0.000000 0.000000
# 2 -0.007090 0.017478 -0.009971 0.000000 0.000000 0.000000
# 3 -0.000479 -0.009971 0.012877 0.000000 0.000000 0.000000
# 4 0.000000 0.000000 0.000000 -0.116202 0.000000 0.000000
# 5 0.000000 0.000000 0.000000 0.000000 0.075600 0.000000
# 6 0.000000 0.000000 0.000000 0.000000 0.000000 0.035454
#
#
# Mechanical properties :
#
#
# Convention : Reuss Voigt Hill
#
# Bulk Modulus (GPa) = 54.25633 81.01119 67.63376
# Shear Modulus (GPa) = 55.81104 17.78515 36.79810
#
# Velocity S-wave (km/s) = 5.45198 3.07768 4.42697
# Velocity P-wave (km/s) = 8.27818 7.46825 7.88362
#
# Compressibility (1/GPa) = 0.01843103
#
# Stress axis : x y z
#
# Youngs Moduli (GPa) = 43.18346 57.21584 77.65788
#
# Poissons Ratio (x) = 0.40568 0.03719
# Poissons Ratio (y) = 0.30618 0.77434
# Poissons Ratio (z) = 0.02068 0.57051
#
# Static dielectric constant tensor:
#      x y z
#    x 1.630940 0.000000 0.000000 
#    y 0.000000 1.658580 0.000000 
#    z 0.000000 0.000000 1.625720 
# 
# From -- ./inp_files/72636.got.cif
#   From: 2010.05.17/outbox.cif.g08.bks.cpg/sg65_37_cif.got.tgz:72636.got - 2010.06.03 17:01:31.
