data_PCOD9487135
_publ_section_title
;
Structure prediction by ZEFSAII (Michael W. Deem and Ramdas Pophale) SiO2 
 PCOD9487135
Probable space group: C M M M
;
_chemical_formula_sum "Si O2"
_cell_formula_units_Z 104
_cell_length_a 9.763908
_cell_length_b 30.402490
_cell_length_c 19.865665
_cell_angle_alpha 90.000000
_cell_angle_beta 90.000000
_cell_angle_gamma 90.000000
_cell_volume 5897.065349
_symmetry_space_group_name_H-M "C M M M"
_symmetry_group_IT_number 65
_symmetry_cell_setting 'orthorhombic'
loop_
_space_group_symop_operation_xyz
x,y,z
-x,-y,z
x,-y,-z
-x,y,-z
-x,-y,-z
x,y,-z
-x,y,z
x,-y,z
1/2+x,1/2+y,z
1/2-x,1/2-y,z
1/2+x,1/2-y,-z
1/2-x,1/2+y,-z
1/2-x,1/2-y,-z
1/2+x,1/2+y,-z
1/2-x,1/2+y,z
1/2+x,1/2-y,z
loop_
_atom_site_type_symbol
_atom_site_label
_atom_site_fract_x
_atom_site_fract_y
_atom_site_fract_z
Si Si1 0.838808 0.049190 0.281890
Si Si2 0.347002 0.159391 0.632933
Si Si3 0.161806 0.082313 0.423071
Si Si4 0.835061 0.391964 0.817053
Si Si5 0.163363 0.293993 0.227742
Si Si6 0.339789 0.448170 0.919748
Si Si7 0.364645 0.216401 0.500000
O O1 0.819840 0.047865 0.362642
O O2 0.738865 0.084223 0.246621
O O3 0.000000 0.060274 0.269906
O O4 0.814154 0.000000 0.254818
O O5 0.500000 0.141104 0.649359
O O6 0.240758 0.123165 0.609172
O O7 0.306264 0.189576 0.695906
O O8 0.360727 0.187968 0.566296
O O9 0.207591 0.072230 0.500000
O O10 0.000000 0.091312 0.426974
O O11 0.809838 0.339132 0.814286
O O12 0.761420 0.416415 0.879220
O O13 0.000000 0.398410 0.816157
O O14 0.250000 0.250000 0.211842
O O15 0.000000 0.284519 0.223392
O O16 0.500000 0.440354 0.901208
O O17 0.311312 0.500000 0.906835
O O18 0.327711 0.441520 0.000000
O O19 0.500000 0.244878 0.500000
O O20 0.250000 0.250000 0.500000
#
# Coordination Sequence:
#
# PCOD9487135 Si02
#       7
#    16  16  16  16  16  16   8
#     4  10  21  36  54  77 106 143 186 229 277 334
#     4  10  19  34  51  69  97 132 169 217 278 337
#     4  10  20  33  51  74  98 132 180 231 280 330
#     4  11  22  36  57  86 118 148 182 228 277 323
#     4  10  22  37  54  78 107 141 182 228 276 327
#     4   9  19  37  61  90 124 159 191 221 259 314
#     4  10  20  30  46  68  91 124 165 215 276 335
#
# _framework density 17.635891000000001
#
# number of rings (size 3 to 8) (size 9 to 14) (size 15 to 20)
#    0.000    2.000    2.308    1.846    0.000    5.538 
#    0.000    2.308    0.000    0.462    0.000    2.154 
#    0.000    0.000    0.000    0.000    0.000    0.000 
#
# Total GULP energy -289497.143922 kJ/mol
# GULP energy per Si atom -5567.252768 kJ/mol
# Density = 1.759575 g / cm^3
# Si number density = 17.635891 Si / 1000 Ang^3
#
#
#
# Elastic Constant Matrix: (Units=GPa)
#
#
# Indices 1 2 3 4 5 6 
#
# 1 89.7613 81.4912 42.8881 0.0000 0.0000 0.0000
# 2 81.4912 124.6980 47.4146 0.0000 0.0000 0.0000
# 3 42.8881 47.4146 101.6358 0.0000 0.0000 0.0000
# 4 0.0000 0.0000 0.0000 33.1096 0.0000 0.0000
# 5 0.0000 0.0000 0.0000 0.0000 26.2441 0.0000
# 6 0.0000 0.0000 0.0000 0.0000 0.0000 22.5446
#
#
#
# Elastic Compliance Matrix: (Units=1/GPa)
#
#
# Indices 1 2 3 4 5 6 
#
# 1 0.028726 -0.017218 -0.004089 0.000000 0.000000 0.000000
# 2 -0.017218 0.020069 -0.002097 0.000000 0.000000 0.000000
# 3 -0.004089 -0.002097 0.012543 0.000000 0.000000 0.000000
# 4 0.000000 0.000000 0.000000 0.030203 0.000000 0.000000
# 5 0.000000 0.000000 0.000000 0.000000 0.038104 0.000000
# 6 0.000000 0.000000 0.000000 0.000000 0.000000 0.044356
#
#
# Mechanical properties :
#
#
# Convention : Reuss Voigt Hill
#
# Bulk Modulus (GPa) = 68.82511 73.29809 71.06160
# Shear Modulus (GPa) = 22.15808 25.99976 24.07892
#
# Velocity S-wave (km/s) = 3.54845 3.84376 3.69905
# Velocity P-wave (km/s) = 7.47656 7.83272 7.65671
#
# Compressibility (1/GPa) = 0.01452958
#
# Stress axis : x y z
#
# Youngs Moduli (GPa) = 34.81172 49.82918 79.72649
#
# Poissons Ratio (x) = 0.85794 0.32604
# Poissons Ratio (y) = 0.59938 0.16717
# Poissons Ratio (z) = 0.14236 0.10448
#
# Static dielectric constant tensor:
#      x y z
#    x 1.619280 0.000000 0.000000 
#    y 0.000000 1.595670 0.000000 
#    z 0.000000 0.000000 1.626790 
# 
# From -- ./inp_files/60920.got.cif
#   From: 2010.05.17/outbox.cif.g08.bks.cpg/sg65_31_cif.got.tgz:60920.got - 2010.06.03 17:01:31.
