data_PCOD9487042
_publ_section_title
;
Structure prediction by ZEFSAII (Michael W. Deem and Ramdas Pophale) SiO2 
 PCOD9487042
Probable space group: C M M M
;
_chemical_formula_sum "Si O2"
_cell_formula_units_Z 76
_cell_length_a 25.672167
_cell_length_b 20.276466
_cell_length_c 7.365361
_cell_angle_alpha 90.000000
_cell_angle_beta 90.000000
_cell_angle_gamma 90.000000
_cell_volume 3833.971064
_symmetry_space_group_name_H-M "C M M M"
_symmetry_group_IT_number 65
_symmetry_cell_setting 'orthorhombic'
loop_
_space_group_symop_operation_xyz
x,y,z
-x,-y,z
x,-y,-z
-x,y,-z
-x,-y,-z
x,y,-z
-x,y,z
x,-y,z
1/2+x,1/2+y,z
1/2-x,1/2-y,z
1/2+x,1/2-y,-z
1/2-x,1/2+y,-z
1/2-x,1/2-y,-z
1/2+x,1/2+y,-z
1/2-x,1/2+y,z
1/2+x,1/2-y,z
loop_
_atom_site_type_symbol
_atom_site_label
_atom_site_fract_x
_atom_site_fract_y
_atom_site_fract_z
Si Si1 0.000000 0.693732 0.500000
Si Si2 0.091091 0.280743 0.206857
Si Si3 0.719516 0.423825 0.219465
Si Si4 0.892222 0.866857 0.710052
Si Si5 0.209453 0.692758 0.220804
Si Si6 0.061430 0.000000 0.711716
O O1 0.046020 0.696502 0.658905
O O2 0.091738 0.201001 0.200815
O O3 0.149700 0.297305 0.275142
O O4 0.084706 0.305700 0.000000
O O5 0.718883 0.500000 0.282072
O O6 0.668787 0.383316 0.280610
O O7 0.768250 0.378712 0.273644
O O8 0.717968 0.425537 0.000000
O O9 0.908887 0.860314 0.500000
O O10 0.917994 0.932271 0.791242
O O11 0.250000 0.750000 0.280842
O O12 0.209381 0.696241 0.000000
O O13 0.079692 0.000000 0.500000
O O14 0.000000 0.000000 0.713986
#
# Coordination Sequence:
#
# PCOD9487042 Si02
#       6
#     4  16  16  16  16   8
#     4  12  26  44  58  87 115 150 204 250 286 354
#     4  11  23  40  62  85 116 154 193 246 300 347
#     4  10  19  33  55  83 118 156 195 238 292 359
#     4  11  20  33  52  78 115 152 200 246 288 338
#     4   9  17  33  57  86 118 151 189 240 301 356
#     4   9  20  32  47  65 105 161 202 248 283 312
#
# _framework density 19.822789
#
# number of rings (size 3 to 8) (size 9 to 14) (size 15 to 20)
#    0.000    1.789    4.211    0.947    1.474    0.000 
#    1.895    1.579    0.000    2.526    0.000    1.474 
#    0.000    5.053    0.000    0.000    0.000    0.000 
#
# Total GULP energy -211636.371001 kJ/mol
# GULP energy per Si atom -5569.378184 kJ/mol
# Density = 1.977767 g / cm^3
# Si number density = 19.822789 Si / 1000 Ang^3
#
#
#
# Elastic Constant Matrix: (Units=GPa)
#
#
# Indices 1 2 3 4 5 6 
#
# 1 105.0621 -10.8126 26.1695 0.0000 0.0000 0.0000
# 2 -10.8126 13.8068 -2.0300 0.0000 0.0000 0.0000
# 3 26.1695 -2.0300 104.2044 0.0000 0.0000 0.0000
# 4 0.0000 0.0000 0.0000 -2.2433 0.0000 0.0000
# 5 0.0000 0.0000 0.0000 0.0000 24.0522 0.0000
# 6 0.0000 0.0000 0.0000 0.0000 0.0000 -24.1778
#
#
#
# Elastic Compliance Matrix: (Units=1/GPa)
#
#
# Indices 1 2 3 4 5 6 
#
# 1 0.011016 0.008244 -0.002606 0.000000 0.000000 0.000000
# 2 0.008244 0.078805 -0.000535 0.000000 0.000000 0.000000
# 3 -0.002606 -0.000535 0.010241 0.000000 0.000000 0.000000
# 4 0.000000 0.000000 0.000000 -0.445771 0.000000 0.000000
# 5 0.000000 0.000000 0.000000 0.000000 0.041576 0.000000
# 6 0.000000 0.000000 0.000000 0.000000 0.000000 -0.041360
#
#
# Mechanical properties :
#
#
# Convention : Reuss Voigt Hill
#
# Bulk Modulus (GPa) = 9.06893 27.74746 18.40819
# Shear Modulus (GPa) = -15.67674 13.50931 -1.08372
#
# Velocity S-wave (km/s) = -2.81525 2.61339 -0.74020
# Velocity P-wave (km/s) = 2.44593 4.80984 2.92848
#
# Compressibility (1/GPa) = 0.11026665
#
# Stress axis : x y z
#
# Youngs Moduli (GPa) = 90.77987 12.68954 97.65131
#
# Poissons Ratio (x) = -0.10461 0.25446
# Poissons Ratio (y) = -0.74836 0.05225
# Poissons Ratio (z) = 0.23656 0.00679
#
# Static dielectric constant tensor:
#      x y z
#    x 1.692710 0.000000 0.000000 
#    y 0.000000 1.706880 0.000000 
#    z 0.000000 0.000000 1.756940 
# 
# From -- ./inp_files/16115.got.cif
#   From: 2010.05.17/outbox.cif.g08.bks.cpg/sg65_9_cif.got.tgz:16115.got - 2010.06.03 17:01:31.
