data_PCOD9487353
_publ_section_title
;
Structure prediction by ZEFSAII (Michael W. Deem and Ramdas Pophale) SiO2 
 PCOD9487353
Probable space group: C M M M
;
_chemical_formula_sum "Si O2"
_cell_formula_units_Z 80
_cell_length_a 18.739397
_cell_length_b 8.461990
_cell_length_c 26.563909
_cell_angle_alpha 90.000000
_cell_angle_beta 90.000000
_cell_angle_gamma 90.000000
_cell_volume 4212.307851
_symmetry_space_group_name_H-M "C M M M"
_symmetry_group_IT_number 65
_symmetry_cell_setting 'orthorhombic'
loop_
_space_group_symop_operation_xyz
x,y,z
-x,-y,z
x,-y,-z
-x,y,-z
-x,-y,-z
x,y,-z
-x,y,z
x,-y,z
1/2+x,1/2+y,z
1/2-x,1/2-y,z
1/2+x,1/2-y,-z
1/2-x,1/2+y,-z
1/2-x,1/2-y,-z
1/2+x,1/2+y,-z
1/2-x,1/2+y,z
1/2+x,1/2-y,z
loop_
_atom_site_type_symbol
_atom_site_label
_atom_site_fract_x
_atom_site_fract_y
_atom_site_fract_z
Si Si1 0.669031 0.191167 0.400891
Si Si2 0.082458 0.692985 0.500000
Si Si3 0.582428 0.191205 0.301906
Si Si4 0.169448 0.689774 0.902365
Si Si5 0.830861 0.811957 0.206668
Si Si6 0.418439 0.807023 0.000000
O O1 0.750000 0.250000 0.402048
O O2 0.624924 0.243113 0.450105
O O3 0.628132 0.243234 0.350367
O O4 0.669943 0.000000 0.400995
O O5 0.081502 0.500000 0.500000
O O6 0.000000 0.744659 0.500000
O O7 0.500000 0.241639 0.305861
O O8 0.619178 0.251900 0.251278
O O9 0.583384 0.000000 0.301197
O O10 0.170054 0.500000 0.900945
O O11 0.250000 0.750000 0.909491
O O12 0.144495 0.751286 0.848057
O O13 0.122067 0.743308 0.949418
O O14 0.750000 0.750000 0.214361
O O15 0.828770 0.000000 0.206255
O O16 0.500000 0.754616 0.000000
O O17 0.417888 0.000000 0.000000
#
# Coordination Sequence:
#
# PCOD9487353 Si02
#       6
#    16   8  16  16  16   8
#     4  10  20  34  55  81 108 141 180 222 267 318
#     4   9  17  32  55  81 108 139 178 222 266 317
#     4  10  21  37  56  79 108 143 182 223 271 325
#     4  10  19  34  57  81 107 140 178 220 265 316
#     4  11  22  37  57  81 109 141 181 225 271 322
#     4   9  19  34  53  79 108 139 176 216 262 317
#
# _framework density 18.991963999999999
#
# number of rings (size 3 to 8) (size 9 to 14) (size 15 to 20)
#    0.000    2.000    0.000    5.400    0.000    6.000 
#    0.000    3.500    0.000    6.600    0.000    0.000 
#    0.000    0.000    0.000    0.000    0.000    0.000 
#
# Total GULP energy -223456.822670 kJ/mol
# GULP energy per Si atom -5586.420567 kJ/mol
# Density = 1.894874 g / cm^3
# Si number density = 18.991964 Si / 1000 Ang^3
#
#
#
# Elastic Constant Matrix: (Units=GPa)
#
#
# Indices 1 2 3 4 5 6 
#
# 1 166.7503 29.3164 140.9825 0.0000 0.0000 0.0000
# 2 29.3164 34.0598 33.8944 0.0000 0.0000 0.0000
# 3 140.9825 33.8944 225.6151 0.0000 0.0000 0.0000
# 4 0.0000 0.0000 0.0000 3.9667 0.0000 0.0000
# 5 0.0000 0.0000 0.0000 0.0000 16.2916 0.0000
# 6 0.0000 0.0000 0.0000 0.0000 0.0000 28.2001
#
#
#
# Elastic Compliance Matrix: (Units=1/GPa)
#
#
# Indices 1 2 3 4 5 6 
#
# 1 0.013095 -0.003678 -0.007630 0.000000 0.000000 0.000000
# 2 -0.003678 0.035554 -0.003043 0.000000 0.000000 0.000000
# 3 -0.007630 -0.003043 0.009657 0.000000 0.000000 0.000000
# 4 0.000000 0.000000 0.000000 0.252099 0.000000 0.000000
# 5 0.000000 0.000000 0.000000 0.000000 0.061381 0.000000
# 6 0.000000 0.000000 0.000000 0.000000 0.000000 0.035461
#
#
# Mechanical properties :
#
#
# Convention : Reuss Voigt Hill
#
# Bulk Modulus (GPa) = 33.77926 92.75686 63.26806
# Shear Modulus (GPa) = 11.21537 24.50714 17.86126
#
# Velocity S-wave (km/s) = 2.43272 3.59610 3.07003
# Velocity P-wave (km/s) = 5.07105 8.13564 6.77880
#
# Compressibility (1/GPa) = 0.02960397
#
# Stress axis : x y z
#
# Youngs Moduli (GPa) = 76.36763 28.12617 103.54845
#
# Poissons Ratio (x) = 0.10345 0.79007
# Poissons Ratio (y) = 0.28088 0.31510
# Poissons Ratio (z) = 0.58268 0.08559
#
# Static dielectric constant tensor:
#      x y z
#    x 1.622650 0.000000 0.000000 
#    y 0.000000 1.654540 0.000000 
#    z 0.000000 0.000000 1.646790 
# 
# From -- ./inp_files/70782.got.cif
#   From: 2010.05.17/outbox.cif.g08.bks.cpg/sg65_36_cif.got.tgz:70782.got - 2010.06.03 17:01:31.
