data_PCOD9487106
_publ_section_title
;
Structure prediction by ZEFSAII (Michael W. Deem and Ramdas Pophale) SiO2 
 PCOD9487106
Probable space group: C M M M
;
_chemical_formula_sum "Si O2"
_cell_formula_units_Z 96
_cell_length_a 16.291390
_cell_length_b 15.351679
_cell_length_c 19.173324
_cell_angle_alpha 90.000000
_cell_angle_beta 90.000000
_cell_angle_gamma 90.000000
_cell_volume 4795.251970
_symmetry_space_group_name_H-M "C M M M"
_symmetry_group_IT_number 65
_symmetry_cell_setting 'orthorhombic'
loop_
_space_group_symop_operation_xyz
x,y,z
-x,-y,z
x,-y,-z
-x,y,-z
-x,-y,-z
x,y,-z
-x,y,z
x,-y,z
1/2+x,1/2+y,z
1/2-x,1/2-y,z
1/2+x,1/2-y,-z
1/2-x,1/2+y,-z
1/2-x,1/2-y,-z
1/2+x,1/2+y,-z
1/2-x,1/2+y,z
1/2+x,1/2-y,z
loop_
_atom_site_type_symbol
_atom_site_label
_atom_site_fract_x
_atom_site_fract_y
_atom_site_fract_z
Si Si1 0.750004 0.643363 0.419508
Si Si2 0.846573 0.900500 0.817724
Si Si3 0.846537 0.400497 0.182269
Si Si4 0.909283 0.144618 0.666331
Si Si5 0.098450 0.749994 0.079822
Si Si6 0.590721 0.855373 0.333654
O O1 0.750009 0.616807 0.500000
O O2 0.750000 0.750000 0.417920
O O3 0.667602 0.614112 0.379778
O O4 0.832401 0.614116 0.379770
O O5 0.750017 0.888412 0.802053
O O6 0.894475 0.882173 0.746223
O O7 0.871685 0.833719 0.877417
O O8 0.860280 0.000000 0.839400
O O9 0.860247 0.500000 0.160604
O O10 0.871639 0.333724 0.122567
O O11 0.894453 0.382152 0.253762
O O12 0.908381 0.249996 0.664238
O O13 0.000000 0.115610 0.643161
O O14 0.000000 0.749966 0.079715
O O15 0.127761 0.750015 0.000000
O O16 0.500000 0.884388 0.356809
#
# Coordination Sequence:
#
# PCOD9487106 Si02
#       6
#    16  16  16  16  16  16
#     4   9  18  32  53  85 123 161 203 252 309 372
#     4  11  23  39  63  92 122 161 211 260 306 365
#     4  11  23  39  63  92 122 161 211 260 306 365
#     4  10  19  33  57  86 119 161 207 256 309 364
#     4  11  25  43  63  91 127 164 203 253 313 373
#     4  10  19  33  57  86 119 161 207 256 309 364
#
# _framework density 20.019803
#
# number of rings (size 3 to 8) (size 9 to 14) (size 15 to 20)
#    0.000    1.667    3.333    1.500    0.000    5.333 
#    0.000    6.667    0.000    2.000    0.000    2.333 
#    0.000    0.000    0.000    0.000    0.000    0.000 
#
# Total GULP energy -268311.908960 kJ/mol
# GULP energy per Si atom -5589.831437 kJ/mol
# Density = 1.997424 g / cm^3
# Si number density = 20.019803 Si / 1000 Ang^3
#
#
#
# Elastic Constant Matrix: (Units=GPa)
#
#
# Indices 1 2 3 4 5 6 
#
# 1 158.2175 52.4634 76.5183 0.0000 0.0000 0.0000
# 2 52.4634 58.6109 34.3764 0.0000 0.0000 0.0000
# 3 76.5183 34.3764 146.0243 0.0000 0.0000 0.0000
# 4 0.0000 0.0000 0.0000 -15.1890 0.0000 0.0000
# 5 0.0000 0.0000 0.0000 0.0000 5.8951 0.0000
# 6 0.0000 0.0000 0.0000 0.0000 0.0000 0.2215
#
#
#
# Elastic Compliance Matrix: (Units=1/GPa)
#
#
# Indices 1 2 3 4 5 6 
#
# 1 0.010568 -0.007206 -0.003841 0.000000 0.000000 0.000000
# 2 -0.007206 0.024709 -0.002041 0.000000 0.000000 0.000000
# 3 -0.003841 -0.002041 0.009341 0.000000 0.000000 0.000000
# 4 0.000000 0.000000 0.000000 -0.065837 0.000000 0.000000
# 5 0.000000 0.000000 0.000000 0.000000 0.169631 0.000000
# 6 0.000000 0.000000 0.000000 0.000000 0.000000 4.513756
#
#
# Mechanical properties :
#
#
# Convention : Reuss Voigt Hill
#
# Bulk Modulus (GPa) = 54.22458 76.61876 65.42167
# Shear Modulus (GPa) = 1.06508 11.48517 6.27513
#
# Velocity S-wave (km/s) = 0.73018 2.39778 1.77236
# Velocity P-wave (km/s) = 5.27780 6.78383 6.07765
#
# Compressibility (1/GPa) = 0.01844182
#
# Stress axis : x y z
#
# Youngs Moduli (GPa) = 94.62873 40.47100 107.05096
#
# Poissons Ratio (x) = 0.29165 0.41119
# Poissons Ratio (y) = 0.68193 0.21846
# Poissons Ratio (z) = 0.36347 0.08259
#
# Static dielectric constant tensor:
#      x y z
#    x 1.723310 0.000000 0.000000 
#    y 0.000000 1.706150 0.000000 
#    z 0.000000 0.000000 1.651420 
# 
# From -- ./inp_files/62626.got.cif
#   From: 2010.05.17/outbox.cif.g08.bks.cpg/sg65_32_cif.got.tgz:62626.got - 2010.06.03 17:01:31.
