data_PCOD9487029
_publ_section_title
;
Structure prediction by ZEFSAII (Michael W. Deem and Ramdas Pophale) SiO2 
 PCOD9487029
Probable space group: C M M M
;
_chemical_formula_sum "Si O2"
_cell_formula_units_Z 104
_cell_length_a 8.445640
_cell_length_b 27.156665
_cell_length_c 23.311005
_cell_angle_alpha 90.000000
_cell_angle_beta 90.000000
_cell_angle_gamma 90.000000
_cell_volume 5346.505254
_symmetry_space_group_name_H-M "C M M M"
_symmetry_group_IT_number 65
_symmetry_cell_setting 'orthorhombic'
loop_
_space_group_symop_operation_xyz
x,y,z
-x,-y,z
x,-y,-z
-x,y,-z
-x,-y,-z
x,y,-z
-x,y,z
x,-y,z
1/2+x,1/2+y,z
1/2-x,1/2-y,z
1/2+x,1/2-y,-z
1/2-x,1/2+y,-z
1/2-x,1/2-y,-z
1/2+x,1/2+y,-z
1/2-x,1/2+y,z
1/2+x,1/2-y,z
loop_
_atom_site_type_symbol
_atom_site_label
_atom_site_fract_x
_atom_site_fract_y
_atom_site_fract_z
Si Si1 0.193251 0.000000 0.565619
Si Si2 0.811025 0.654244 0.064156
Si Si3 0.188115 0.198273 0.178938
Si Si4 0.692143 0.598393 0.631798
Si Si5 0.189822 0.695608 0.566896
Si Si6 0.308300 0.445433 0.118489
Si Si7 0.307435 0.401387 0.237798
O O1 0.244014 0.949492 0.596020
O O2 0.244584 0.000000 0.500000
O O3 0.000000 0.000000 0.566992
O O4 0.741739 0.688446 0.113843
O O5 0.762907 0.598712 0.081616
O O6 0.000000 0.658405 0.065268
O O7 0.753689 0.665580 0.000000
O O8 0.250000 0.250000 0.200276
O O9 0.245178 0.152495 0.216730
O O10 0.000000 0.197878 0.180176
O O11 0.500000 0.599697 0.631372
O O12 0.749321 0.649844 0.604605
O O13 0.746019 0.590451 0.697523
O O14 0.240301 0.688584 0.500000
O O15 0.250000 0.750000 0.584975
O O16 0.000000 0.696013 0.568628
O O17 0.500000 0.441410 0.115591
O O18 0.262165 0.500000 0.099576
O O19 0.262158 0.437108 0.185363
O O20 0.500000 0.402496 0.239139
#
# Coordination Sequence:
#
# PCOD9487029 Si02
#       7
#     8  16  16  16  16  16  16
#     4   9  18  30  49  81 115 147 182 221 266 316
#     4  10  21  36  53  76 106 138 176 220 265 314
#     4  10  20  36  56  78 105 138 176 216 266 323
#     4  10  19  33  55  82 112 145 183 226 269 321
#     4  10  21  37  56  78 105 139 179 225 276 327
#     4   9  18  33  54  77 104 138 176 217 264 316
#     4   8  17  32  51  78 106 136 174 216 261 308
#
# _framework density 19.451958999999999
#
# number of rings (size 3 to 8) (size 9 to 14) (size 15 to 20)
#    0.000    2.538    0.000    2.769    1.077    4.308 
#    0.000    7.308    0.000    1.385    0.000    0.000 
#    0.000    0.000    0.000    0.000    0.000    0.000 
#
# Total GULP energy -290107.110768 kJ/mol
# GULP energy per Si atom -5578.982899 kJ/mol
# Density = 1.940769 g / cm^3
# Si number density = 19.451959 Si / 1000 Ang^3
#
#
#
# Elastic Constant Matrix: (Units=GPa)
#
#
# Indices 1 2 3 4 5 6 
#
# 1 19.1616 5.7304 4.0149 0.0000 0.0000 0.0000
# 2 5.7304 68.8929 1.2932 0.0000 0.0000 0.0000
# 3 4.0149 1.2932 83.4868 0.0000 0.0000 0.0000
# 4 0.0000 0.0000 0.0000 4.0159 0.0000 0.0000
# 5 0.0000 0.0000 0.0000 0.0000 11.1597 0.0000
# 6 0.0000 0.0000 0.0000 0.0000 0.0000 26.3964
#
#
#
# Elastic Compliance Matrix: (Units=1/GPa)
#
#
# Indices 1 2 3 4 5 6 
#
# 1 0.054048 -0.004448 -0.002530 0.000000 0.000000 0.000000
# 2 -0.004448 0.014886 -0.000017 0.000000 0.000000 0.000000
# 3 -0.002530 -0.000017 0.012100 0.000000 0.000000 0.000000
# 4 0.000000 0.000000 0.000000 0.249010 0.000000 0.000000
# 5 0.000000 0.000000 0.000000 0.000000 0.089608 0.000000
# 6 0.000000 0.000000 0.000000 0.000000 0.000000 0.037884
#
#
# Mechanical properties :
#
#
# Convention : Reuss Voigt Hill
#
# Bulk Modulus (GPa) = 14.91570 21.51314 18.21442
# Shear Modulus (GPa) = 10.12405 19.01459 14.56932
#
# Velocity S-wave (km/s) = 2.28384 3.12992 2.73974
# Velocity P-wave (km/s) = 3.82612 4.91380 4.40367
#
# Compressibility (1/GPa) = 0.06704343
#
# Stress axis : x y z
#
# Youngs Moduli (GPa) = 18.50203 67.17908 82.64542
#
# Poissons Ratio (x) = 0.29882 0.20912
# Poissons Ratio (y) = 0.08230 0.00138
# Poissons Ratio (z) = 0.04682 0.00112
#
# Static dielectric constant tensor:
#      x y z
#    x 1.672840 0.000000 0.000000 
#    y 0.000000 1.660940 0.000000 
#    z 0.000000 0.000000 1.682840 
# 
# From -- ./inp_files/60406.got.cif
#   From: 2010.05.17/outbox.cif.g08.bks.cpg/sg65_31_cif.got.tgz:60406.got - 2010.06.03 17:01:31.
