data_PCOD9487599
_publ_section_title
;
Structure prediction by ZEFSAII (Michael W. Deem and Ramdas Pophale) SiO2 
 PCOD9487599
Probable space group: C M M M
;
_chemical_formula_sum "Si O2"
_cell_formula_units_Z 48
_cell_length_a 16.012589
_cell_length_b 7.785405
_cell_length_c 19.552732
_cell_angle_alpha 90.000000
_cell_angle_beta 90.000000
_cell_angle_gamma 90.000000
_cell_volume 2437.531372
_symmetry_space_group_name_H-M "C M M M"
_symmetry_group_IT_number 65
_symmetry_cell_setting 'orthorhombic'
loop_
_space_group_symop_operation_xyz
x,y,z
-x,-y,z
x,-y,-z
-x,y,-z
-x,-y,-z
x,y,-z
-x,y,z
x,-y,z
1/2+x,1/2+y,z
1/2-x,1/2-y,z
1/2+x,1/2-y,-z
1/2-x,1/2+y,-z
1/2-x,1/2-y,-z
1/2+x,1/2+y,-z
1/2-x,1/2+y,z
1/2+x,1/2-y,z
loop_
_atom_site_type_symbol
_atom_site_label
_atom_site_fract_x
_atom_site_fract_y
_atom_site_fract_z
Si Si1 0.000000 0.709795 0.421596
Si Si2 0.153362 0.802676 0.826315
Si Si3 0.652065 0.794096 0.325265
Si Si4 0.597847 0.000000 0.924219
O O1 0.915342 0.762033 0.381879
O O2 0.000000 0.500000 0.421734
O O3 0.000000 0.767741 0.500000
O O4 0.250000 0.750000 0.821740
O O5 0.123612 0.779189 0.748267
O O6 0.117758 0.668257 0.879999
O O7 0.143202 0.000000 0.847237
O O8 0.750000 0.750000 0.338731
O O9 0.648540 0.000000 0.319543
O O10 0.500000 0.000000 0.932987
O O11 0.638380 0.000000 0.000000
#
# Coordination Sequence:
#
# PCOD9487599 Si02
#       4
#     8  16  16   8
#     4   9  20  36  57  87 121 165 207 246 315 382
#     4  11  21  40  66  93 122 162 216 259 307 371
#     4  10  19  35  60  87 121 159 209 261 307 366
#     4  11  26  44  62  92 131 165 202 257 324 376
#
# _framework density 19.692053999999999
#
# number of rings (size 3 to 8) (size 9 to 14) (size 15 to 20)
#    0.000    1.667    3.333    3.000    2.333    2.667 
#    0.000    4.167    0.000    7.000    0.000    0.000 
#    0.000    0.000    0.000    0.000    0.000    0.000 
#
# Total GULP energy -133928.186819 kJ/mol
# GULP energy per Si atom -5580.341117 kJ/mol
# Density = 1.964723 g / cm^3
# Si number density = 19.692054 Si / 1000 Ang^3
#
#
#
# Elastic Constant Matrix: (Units=GPa)
#
#
# Indices 1 2 3 4 5 6 
#
# 1 77.8519 26.3620 78.9784 0.0000 0.0000 0.0000
# 2 26.3620 145.7534 68.7540 0.0000 0.0000 0.0000
# 3 78.9784 68.7540 188.7665 0.0000 0.0000 0.0000
# 4 0.0000 0.0000 0.0000 17.7994 0.0000 0.0000
# 5 0.0000 0.0000 0.0000 0.0000 105.1698 0.0000
# 6 0.0000 0.0000 0.0000 0.0000 0.0000 2.2516
#
#
#
# Elastic Compliance Matrix: (Units=1/GPa)
#
#
# Indices 1 2 3 4 5 6 
#
# 1 0.022341 0.000445 -0.009510 0.000000 0.000000 0.000000
# 2 0.000445 0.008293 -0.003207 0.000000 0.000000 0.000000
# 3 -0.009510 -0.003207 0.010444 0.000000 0.000000 0.000000
# 4 0.000000 0.000000 0.000000 0.056182 0.000000 0.000000
# 5 0.000000 0.000000 0.000000 0.000000 0.009508 0.000000
# 6 0.000000 0.000000 0.000000 0.000000 0.000000 0.444137
#
#
# Mechanical properties :
#
#
# Convention : Reuss Voigt Hill
#
# Bulk Modulus (GPa) = 60.47377 84.50673 72.49025
# Shear Modulus (GPa) = 8.60644 40.92930 24.76787
#
# Velocity S-wave (km/s) = 2.09285 4.56397 3.55034
# Velocity P-wave (km/s) = 6.05115 8.41311 7.32792
#
# Compressibility (1/GPa) = 0.01653610
#
# Stress axis : x y z
#
# Youngs Moduli (GPa) = 44.76006 120.58228 95.74663
#
# Poissons Ratio (x) = -0.05365 0.91050
# Poissons Ratio (y) = -0.01992 0.30703
# Poissons Ratio (z) = 0.42565 0.38668
#
# Static dielectric constant tensor:
#      x y z
#    x 1.649740 0.000000 0.000000 
#    y 0.000000 1.681050 0.000000 
#    z 0.000000 0.000000 1.764900 
# 
# From -- ./inp_files/41653.got.cif
#   From: 2010.05.17/outbox.cif.g08.bks.cpg/sg65_21_cif.got.tgz:41653.got - 2010.06.03 17:01:31.
