data_PCOD9487922
_publ_section_title
;
Structure prediction by ZEFSAII (Michael W. Deem and Ramdas Pophale) SiO2 
 PCOD9487922
Probable space group: C M M M
;
_chemical_formula_sum "Si O2"
_cell_formula_units_Z 88
_cell_length_a 9.138070
_cell_length_b 28.919398
_cell_length_c 23.924818
_cell_angle_alpha 90.000000
_cell_angle_beta 90.000000
_cell_angle_gamma 90.000000
_cell_volume 6322.551441
_symmetry_space_group_name_H-M "C M M M"
_symmetry_group_IT_number 65
_symmetry_cell_setting 'orthorhombic'
loop_
_space_group_symop_operation_xyz
x,y,z
-x,-y,z
x,-y,-z
-x,y,-z
-x,-y,-z
x,y,-z
-x,y,z
x,-y,z
1/2+x,1/2+y,z
1/2-x,1/2-y,z
1/2+x,1/2-y,-z
1/2-x,1/2+y,-z
1/2-x,1/2-y,-z
1/2+x,1/2+y,-z
1/2-x,1/2+y,z
1/2+x,1/2-y,z
loop_
_atom_site_type_symbol
_atom_site_label
_atom_site_fract_x
_atom_site_fract_y
_atom_site_fract_z
Si Si1 0.826879 0.055482 0.212097
Si Si2 0.674919 0.202741 0.065368
Si Si3 0.176077 0.602283 0.106725
Si Si4 0.329074 0.443809 0.437877
Si Si5 0.672727 0.555447 0.000000
Si Si6 0.332331 0.943757 0.326404
O O1 0.740533 0.081341 0.163327
O O2 0.764129 0.069019 0.272763
O O3 0.000000 0.064519 0.208539
O O4 0.805771 0.000000 0.205640
O O5 0.500000 0.208459 0.067117
O O6 0.750000 0.250000 0.084507
O O7 0.712248 0.156553 0.099124
O O8 0.716187 0.195183 0.000000
O O9 0.000000 0.597289 0.104564
O O10 0.248808 0.575845 0.054586
O O11 0.280279 0.428846 0.500000
O O12 0.500000 0.431562 0.430978
O O13 0.323087 0.500000 0.437775
O O14 0.235683 0.427604 0.385118
O O15 0.684628 0.500000 0.000000
O O16 0.500000 0.567379 0.000000
O O17 0.500000 0.928830 0.319783
O O18 0.331874 0.000000 0.328096
#
# Coordination Sequence:
#
# PCOD9487922 Si02
#       6
#    16  16  16  16   8  16
#     4  10  20  32  44  59  81 110 144 177 208 248
#     4   9  18  33  50  69  88 105 128 160 202 251
#     4  11  21  34  49  66  86 107 135 170 209 250
#     4   8  13  21  33  49  70  97 129 167 210 249
#     4  11  23  35  46  63  86 111 140 171 204 245
#     4   9  16  25  37  53  73 100 135 173 211 246
#
# _framework density 13.918431
#
# number of rings (size 3 to 8) (size 9 to 14) (size 15 to 20)
#    0.000    2.455    0.909    3.000    0.000    8.000 
#    0.000    1.818    0.000    0.000    0.000    0.000 
#    0.000    0.000    0.000    0.000    0.000    0.909 
#
# Total GULP energy -245211.160508 kJ/mol
# GULP energy per Si atom -5572.980921 kJ/mol
# Density = 1.388675 g / cm^3
# Si number density = 13.918431 Si / 1000 Ang^3
#
#
#
# Elastic Constant Matrix: (Units=GPa)
#
#
# Indices 1 2 3 4 5 6 
#
# 1 81.8990 42.9561 61.2555 0.0000 0.0000 0.0000
# 2 42.9561 52.0511 39.8368 0.0000 0.0000 0.0000
# 3 61.2555 39.8368 118.4210 0.0000 0.0000 0.0000
# 4 0.0000 0.0000 0.0000 0.1700 0.0000 0.0000
# 5 0.0000 0.0000 0.0000 0.0000 25.8458 0.0000
# 6 0.0000 0.0000 0.0000 0.0000 0.0000 17.8769
#
#
#
# Elastic Compliance Matrix: (Units=1/GPa)
#
#
# Indices 1 2 3 4 5 6 
#
# 1 0.026817 -0.015507 -0.008655 0.000000 0.000000 0.000000
# 2 -0.015507 0.034841 -0.003699 0.000000 0.000000 0.000000
# 3 -0.008655 -0.003699 0.014166 0.000000 0.000000 0.000000
# 4 0.000000 0.000000 0.000000 5.883995 0.000000 0.000000
# 5 0.000000 0.000000 0.000000 0.000000 0.038691 0.000000
# 6 0.000000 0.000000 0.000000 0.000000 0.000000 0.055938
#
#
# Mechanical properties :
#
#
# Convention : Reuss Voigt Hill
#
# Bulk Modulus (GPa) = 49.74894 60.05199 54.90046
# Shear Modulus (GPa) = 0.81741 16.00005 8.40873
#
# Velocity S-wave (km/s) = 0.76718 3.39419 2.46060
# Velocity P-wave (km/s) = 6.05025 7.65507 6.89948
#
# Compressibility (1/GPa) = 0.02010093
#
# Stress axis : x y z
#
# Youngs Moduli (GPa) = 37.28944 28.70219 70.59285
#
# Poissons Ratio (x) = 0.44510 0.61098
# Poissons Ratio (y) = 0.57826 0.26112
# Poissons Ratio (z) = 0.32274 0.10617
#
# Static dielectric constant tensor:
#      x y z
#    x 1.465640 0.000000 0.000000 
#    y 0.000000 1.429150 0.000000 
#    z 0.000000 0.000000 1.457500 
# 
# From -- ./inp_files/60677.got.cif
#   From: 2010.05.17/outbox.cif.g08.bks.cpg/sg65_31_cif.got.tgz:60677.got - 2010.06.03 17:01:31.
