data_PCOD9487397
_publ_section_title
;
Structure prediction by ZEFSAII (Michael W. Deem and Ramdas Pophale) SiO2 
 PCOD9487397
Probable space group: C M M M
;
_chemical_formula_sum "Si O2"
_cell_formula_units_Z 88
_cell_length_a 26.944056
_cell_length_b 16.144428
_cell_length_c 12.103489
_cell_angle_alpha 90.000000
_cell_angle_beta 90.000000
_cell_angle_gamma 90.000000
_cell_volume 5264.973805
_symmetry_space_group_name_H-M "C M M M"
_symmetry_group_IT_number 65
_symmetry_cell_setting 'orthorhombic'
loop_
_space_group_symop_operation_xyz
x,y,z
-x,-y,z
x,-y,-z
-x,y,-z
-x,-y,-z
x,y,-z
-x,y,z
x,-y,z
1/2+x,1/2+y,z
1/2-x,1/2-y,z
1/2+x,1/2-y,-z
1/2-x,1/2+y,-z
1/2-x,1/2-y,-z
1/2+x,1/2+y,-z
1/2-x,1/2+y,z
1/2+x,1/2-y,z
loop_
_atom_site_type_symbol
_atom_site_label
_atom_site_fract_x
_atom_site_fract_y
_atom_site_fract_z
Si Si1 0.189991 0.404082 0.369432
Si Si2 0.191041 0.264714 0.000000
Si Si3 0.383816 0.096481 0.000000
Si Si4 0.559246 0.846182 0.780881
Si Si5 0.352242 0.745060 0.239362
Si Si6 0.440190 0.000000 0.375809
Si Si7 0.690661 0.408214 0.369851
O O1 0.178443 0.389252 0.500000
O O2 0.175014 0.500000 0.342380
O O3 0.169960 0.330465 0.291956
O O4 0.249744 0.401380 0.358946
O O5 0.250000 0.250000 0.000000
O O6 0.169407 0.358352 0.000000
O O7 0.167716 0.231979 0.885329
O O8 0.416204 0.122360 0.894286
O O9 0.376257 0.000000 0.000000
O O10 0.500000 0.838315 0.788662
O O11 0.588882 0.762031 0.756779
O O12 0.571658 0.916357 0.689972
O O13 0.335039 0.667166 0.309145
O O14 0.500000 0.000000 0.381762
O O15 0.420603 0.000000 0.500000
O O16 0.679785 0.403825 0.500000
O O17 0.676186 0.500000 0.329273
#
# Coordination Sequence:
#
# PCOD9487397 Si02
#       7
#    16   8   8  16  16   8  16
#     4   9  18  31  50  77 104 131 169 212 256 311
#     4  10  22  35  47  72 111 137 164 202 256 316
#     4  10  19  34  58  79  98 136 188 224 245 294
#     4  10  21  34  50  73 102 137 177 218 257 297
#     4  11  21  33  52  73 102 140 174 207 258 315
#     4   9  18  31  45  67 103 138 165 201 255 309
#     4   9  18  34  55  77  98 125 169 222 265 306
#
# _framework density 16.714234000000001
#
# number of rings (size 3 to 8) (size 9 to 14) (size 15 to 20)
#    0.000    2.273    0.909    3.545    1.273    4.000 
#    0.000    1.364    0.000    0.545    0.000    1.273 
#    0.000    4.364    0.000    0.000    0.000    0.000 
#
# Total GULP energy -245348.433972 kJ/mol
# GULP energy per Si atom -5576.100772 kJ/mol
# Density = 1.667619 g / cm^3
# Si number density = 16.714234 Si / 1000 Ang^3
#
#
#
# Elastic Constant Matrix: (Units=GPa)
#
#
# Indices 1 2 3 4 5 6 
#
# 1 110.2502 56.8512 38.6513 0.0000 0.0000 0.0000
# 2 56.8512 109.4964 51.0427 0.0000 0.0000 0.0000
# 3 38.6513 51.0427 93.5462 0.0000 0.0000 0.0000
# 4 0.0000 0.0000 0.0000 18.9314 0.0000 0.0000
# 5 0.0000 0.0000 0.0000 0.0000 9.8761 0.0000
# 6 0.0000 0.0000 0.0000 0.0000 0.0000 32.2045
#
#
#
# Elastic Compliance Matrix: (Units=1/GPa)
#
#
# Indices 1 2 3 4 5 6 
#
# 1 0.012720 -0.005571 -0.002216 0.000000 0.000000 0.000000
# 2 -0.005571 0.014688 -0.005713 0.000000 0.000000 0.000000
# 3 -0.002216 -0.005713 0.014722 0.000000 0.000000 0.000000
# 4 0.000000 0.000000 0.000000 0.052822 0.000000 0.000000
# 5 0.000000 0.000000 0.000000 0.000000 0.101254 0.000000
# 6 0.000000 0.000000 0.000000 0.000000 0.000000 0.031052
#
#
# Mechanical properties :
#
#
# Convention : Reuss Voigt Hill
#
# Bulk Modulus (GPa) = 66.08757 67.37592 66.73174
# Shear Modulus (GPa) = 19.28254 23.31892 21.30073
#
# Velocity S-wave (km/s) = 3.40024 3.73923 3.57376
# Velocity P-wave (km/s) = 7.41897 7.68378 7.55253
#
# Compressibility (1/GPa) = 0.01513144
#
# Stress axis : x y z
#
# Youngs Moduli (GPa) = 78.61649 68.08076 67.92373
#
# Poissons Ratio (x) = 0.37931 0.15049
# Poissons Ratio (y) = 0.43801 0.38802
# Poissons Ratio (z) = 0.17418 0.38892
#
# Static dielectric constant tensor:
#      x y z
#    x 1.582320 0.000000 0.000000 
#    y 0.000000 1.542790 0.000000 
#    z 0.000000 0.000000 1.580920 
# 
# From -- ./inp_files/32286.got.cif
#   From: 2010.05.17/outbox.cif.g08.bks.cpg/sg65_17_cif.got.tgz:32286.got - 2010.06.03 17:01:31.
