data_PCOD9487899
_publ_section_title
;
Structure prediction by ZEFSAII (Michael W. Deem and Ramdas Pophale) SiO2 
 PCOD9487899
Probable space group: C M M M
;
_chemical_formula_sum "Si O2"
_cell_formula_units_Z 88
_cell_length_a 29.163957
_cell_length_b 7.734486
_cell_length_c 20.022484
_cell_angle_alpha 90.000000
_cell_angle_beta 90.000000
_cell_angle_gamma 90.000000
_cell_volume 4516.436018
_symmetry_space_group_name_H-M "C M M M"
_symmetry_group_IT_number 65
_symmetry_cell_setting 'orthorhombic'
loop_
_space_group_symop_operation_xyz
x,y,z
-x,-y,z
x,-y,-z
-x,y,-z
-x,-y,-z
x,y,-z
-x,y,z
x,-y,z
1/2+x,1/2+y,z
1/2-x,1/2-y,z
1/2+x,1/2-y,-z
1/2-x,1/2+y,-z
1/2-x,1/2-y,-z
1/2+x,1/2+y,-z
1/2-x,1/2+y,z
1/2+x,1/2-y,z
loop_
_atom_site_type_symbol
_atom_site_label
_atom_site_fract_x
_atom_site_fract_y
_atom_site_fract_z
Si Si1 0.951019 0.000000 0.875438
Si Si2 0.398024 0.207034 0.636744
Si Si3 0.929726 0.696539 0.776822
Si Si4 0.799053 0.292585 0.319399
Si Si5 0.051742 0.794639 0.500000
Si Si6 0.675961 0.197113 0.824250
Si Si7 0.154505 0.000000 0.921979
O O1 0.950675 0.832153 0.827687
O O2 0.901469 0.000000 0.912212
O O3 0.000000 0.000000 0.913301
O O4 0.428028 0.264662 0.700662
O O5 0.345503 0.271491 0.644910
O O6 0.420916 0.245380 0.566551
O O7 0.396105 0.000000 0.644093
O O8 0.947904 0.500000 0.779548
O O9 0.876550 0.685558 0.798842
O O10 0.802338 0.500000 0.315713
O O11 0.750000 0.250000 0.350818
O O12 0.799557 0.231121 0.242284
O O13 0.000000 0.721147 0.500000
O O14 0.048209 0.000000 0.500000
O O15 0.675056 0.331856 0.884573
O O16 0.691030 0.000000 0.840473
O O17 0.164522 0.000000 0.000000
#
# Coordination Sequence:
#
# PCOD9487899 Si02
#       7
#     8  16  16  16   8  16   8
#     4  10  20  31  48  75 104 132 169 229 286 324
#     4   9  19  37  56  76 107 142 182 223 267 329
#     4   8  16  32  52  72  98 132 172 221 274 321
#     4   9  18  32  56  89 112 135 172 220 274 326
#     4  11  25  39  52  75 106 145 190 231 272 321
#     4   8  16  32  51  76 105 133 175 221 259 313
#     4  10  20  33  52  74  99 145 188 212 263 330
#
# _framework density 19.484390000000001
#
# number of rings (size 3 to 8) (size 9 to 14) (size 15 to 20)
#    0.000    3.000    0.000    2.455    2.545    3.091 
#    0.000    2.273    0.000    0.545    0.000    5.091 
#    0.000    0.000    0.000    0.000    0.000    0.000 
#
# Total GULP energy -245120.051695 kJ/mol
# GULP energy per Si atom -5570.910266 kJ/mol
# Density = 1.944004 g / cm^3
# Si number density = 19.484390 Si / 1000 Ang^3
#
#
#
# Elastic Constant Matrix: (Units=GPa)
#
#
# Indices 1 2 3 4 5 6 
#
# 1 90.1063 6.1625 23.6566 0.0000 0.0000 0.0000
# 2 6.1625 62.0088 27.4492 0.0000 0.0000 0.0000
# 3 23.6566 27.4492 116.2771 0.0000 0.0000 0.0000
# 4 0.0000 0.0000 0.0000 22.8963 0.0000 0.0000
# 5 0.0000 0.0000 0.0000 0.0000 -29.9626 0.0000
# 6 0.0000 0.0000 0.0000 0.0000 0.0000 9.1479
#
#
#
# Elastic Compliance Matrix: (Units=1/GPa)
#
#
# Indices 1 2 3 4 5 6 
#
# 1 0.011725 -0.000122 -0.002357 0.000000 0.000000 0.000000
# 2 -0.000122 0.018010 -0.004227 0.000000 0.000000 0.000000
# 3 -0.002357 -0.004227 0.010077 0.000000 0.000000 0.000000
# 4 0.000000 0.000000 0.000000 0.043675 0.000000 0.000000
# 5 0.000000 0.000000 0.000000 0.000000 -0.033375 0.000000
# 6 0.000000 0.000000 0.000000 0.000000 0.000000 0.109314
#
#
# Mechanical properties :
#
#
# Convention : Reuss Voigt Hill
#
# Bulk Modulus (GPa) = 37.87658 42.54765 40.21211
# Shear Modulus (GPa) = 27.52725 14.49125 21.00925
#
# Velocity S-wave (km/s) = 3.76278 2.73011 3.28725
# Velocity P-wave (km/s) = 6.19352 5.64112 5.92376
#
# Compressibility (1/GPa) = 0.02640154
#
# Stress axis : x y z
#
# Youngs Moduli (GPa) = 85.28738 55.52500 99.23197
#
# Poissons Ratio (x) = 0.00678 0.23386
# Poissons Ratio (y) = 0.01041 0.41943
# Poissons Ratio (z) = 0.20099 0.23469
#
# Static dielectric constant tensor:
#      x y z
#    x 1.747310 0.000000 0.000000 
#    y 0.000000 1.699800 0.000000 
#    z 0.000000 0.000000 1.674770 
# 
# From -- ./inp_files/58092.got.cif
#   From: 2010.05.17/outbox.cif.g08.bks.cpg/sg65_30_cif.got.tgz:58092.got - 2010.06.03 17:01:31.
