data_PCOD9487120
_publ_section_title
;
Structure prediction by ZEFSAII (Michael W. Deem and Ramdas Pophale) SiO2 
 PCOD9487120
Probable space group: C M M M
;
_chemical_formula_sum "Si O2"
_cell_formula_units_Z 88
_cell_length_a 22.589889
_cell_length_b 21.749112
_cell_length_c 10.023507
_cell_angle_alpha 90.000000
_cell_angle_beta 90.000000
_cell_angle_gamma 90.000000
_cell_volume 4924.649484
_symmetry_space_group_name_H-M "C M M M"
_symmetry_group_IT_number 65
_symmetry_cell_setting 'orthorhombic'
loop_
_space_group_symop_operation_xyz
x,y,z
-x,-y,z
x,-y,-z
-x,y,-z
-x,-y,-z
x,y,-z
-x,y,z
x,-y,z
1/2+x,1/2+y,z
1/2-x,1/2-y,z
1/2+x,1/2-y,-z
1/2-x,1/2+y,-z
1/2-x,1/2-y,-z
1/2+x,1/2+y,-z
1/2-x,1/2+y,z
1/2+x,1/2-y,z
loop_
_atom_site_type_symbol
_atom_site_label
_atom_site_fract_x
_atom_site_fract_y
_atom_site_fract_z
Si Si1 0.570587 0.071499 0.500000
Si Si2 0.570795 0.925875 0.000000
Si Si3 0.241667 0.176128 0.660643
Si Si4 0.864968 0.874695 0.158014
Si Si5 0.130668 0.362613 0.745924
Si Si6 0.066984 0.751602 0.843283
Si Si7 0.568611 0.500000 0.838229
O O1 0.500000 0.075240 0.500000
O O2 0.597195 0.105266 0.373965
O O3 0.587412 0.000000 0.500000
O O4 0.606154 0.898644 0.874387
O O5 0.500000 0.908565 0.000000
O O6 0.572614 0.000000 0.000000
O O7 0.235124 0.167438 0.500000
O O8 0.250000 0.250000 0.682866
O O9 0.187410 0.148735 0.746274
O O10 0.300023 0.141118 0.714525
O O11 0.914990 0.822197 0.166904
O O12 0.894399 0.939201 0.198507
O O13 0.846702 0.877863 0.000000
O O14 0.109847 0.292352 0.762581
O O15 0.000000 0.741062 0.800224
O O16 0.071835 0.735076 0.000000
O O17 0.500000 0.500000 0.790932
O O18 0.565611 0.500000 0.000000
#
# Coordination Sequence:
#
# PCOD9487120 Si02
#       7
#     8   8  16  16  16  16   8
#     4  11  24  42  61  84 118 155 200 249 301 369
#     4  11  24  42  63  90 124 157 192 247 313 365
#     4  11  24  43  60  83 125 165 203 252 306 361
#     4  10  21  37  63  94 120 162 206 248 305 362
#     4  12  22  39  60  89 116 158 204 245 306 363
#     4  10  19  33  58  92 122 147 194 256 311 364
#     4   9  18  38  65  97 133 163 198 251 314 373
#
# _framework density 17.869291
#
# number of rings (size 3 to 8) (size 9 to 14) (size 15 to 20)
#    0.000    1.364    3.636    2.727    1.273    4.000 
#    3.273    0.455    0.000    2.182    0.000    0.000 
#    0.000    0.000    0.000    0.000    0.000    0.000 
#
# Total GULP energy -245512.204926 kJ/mol
# GULP energy per Si atom -5579.822839 kJ/mol
# Density = 1.782862 g / cm^3
# Si number density = 17.869291 Si / 1000 Ang^3
#
#
#
# Elastic Constant Matrix: (Units=GPa)
#
#
# Indices 1 2 3 4 5 6 
#
# 1 100.0842 35.8562 43.8021 0.0000 0.0000 0.0000
# 2 35.8562 115.2352 38.7051 0.0000 0.0000 0.0000
# 3 43.8021 38.7051 104.3555 0.0000 0.0000 0.0000
# 4 0.0000 0.0000 0.0000 29.4717 0.0000 0.0000
# 5 0.0000 0.0000 0.0000 0.0000 37.8960 0.0000
# 6 0.0000 0.0000 0.0000 0.0000 0.0000 22.2695
#
#
#
# Elastic Compliance Matrix: (Units=1/GPa)
#
#
# Indices 1 2 3 4 5 6 
#
# 1 0.012839 -0.002496 -0.004463 0.000000 0.000000 0.000000
# 2 -0.002496 0.010398 -0.002809 0.000000 0.000000 0.000000
# 3 -0.004463 -0.002809 0.012498 0.000000 0.000000 0.000000
# 4 0.000000 0.000000 0.000000 0.033931 0.000000 0.000000
# 5 0.000000 0.000000 0.000000 0.000000 0.026388 0.000000
# 6 0.000000 0.000000 0.000000 0.000000 0.000000 0.044904
#
#
# Mechanical properties :
#
#
# Convention : Reuss Voigt Hill
#
# Bulk Modulus (GPa) = 61.73355 61.82243 61.77799
# Shear Modulus (GPa) = 30.13966 31.34821 30.74393
#
# Velocity S-wave (km/s) = 4.11137 4.19299 4.15238
# Velocity P-wave (km/s) = 7.56043 7.62323 7.59190
#
# Compressibility (1/GPa) = 0.01619865
#
# Stress axis : x y z
#
# Youngs Moduli (GPa) = 77.88670 96.17256 80.01325
#
# Poissons Ratio (x) = 0.24003 0.35713
# Poissons Ratio (y) = 0.19439 0.22476
# Poissons Ratio (z) = 0.34764 0.27015
#
# Static dielectric constant tensor:
#      x y z
#    x 1.598620 0.000000 0.000000 
#    y 0.000000 1.617440 0.000000 
#    z 0.000000 0.000000 0.302460 
# 
# From -- ./inp_files/14076.got.cif
#   From: 2010.05.17/outbox.cif.g08.bks.cpg/sg65_8_cif.got.tgz:14076.got - 2010.06.03 17:01:31.
