data_PCOD9487665
_publ_section_title
;
Structure prediction by ZEFSAII (Michael W. Deem and Ramdas Pophale) SiO2 
 PCOD9487665
Probable space group: C M M M
;
_chemical_formula_sum "Si O2"
_cell_formula_units_Z 112
_cell_length_a 17.766157
_cell_length_b 19.025120
_cell_length_c 17.933364
_cell_angle_alpha 90.000000
_cell_angle_beta 90.000000
_cell_angle_gamma 90.000000
_cell_volume 6061.535654
_symmetry_space_group_name_H-M "C M M M"
_symmetry_group_IT_number 65
_symmetry_cell_setting 'orthorhombic'
loop_
_space_group_symop_operation_xyz
x,y,z
-x,-y,z
x,-y,-z
-x,y,-z
-x,-y,-z
x,y,-z
-x,y,z
x,-y,z
1/2+x,1/2+y,z
1/2-x,1/2-y,z
1/2+x,1/2-y,-z
1/2-x,1/2+y,-z
1/2-x,1/2-y,-z
1/2+x,1/2+y,-z
1/2-x,1/2+y,z
1/2+x,1/2-y,z
loop_
_atom_site_type_symbol
_atom_site_label
_atom_site_fract_x
_atom_site_fract_y
_atom_site_fract_z
Si Si1 0.411666 0.662862 0.143668
Si Si2 0.235050 0.082184 0.912047
Si Si3 0.335423 0.193994 0.661362
Si Si4 0.178337 0.704238 0.161682
Si Si5 0.588263 0.420465 0.295559
Si Si6 0.910568 0.421746 0.418342
Si Si7 0.673538 0.664628 0.588960
O O1 0.500000 0.650071 0.124640
O O2 0.347389 0.617981 0.101079
O O3 0.391441 0.745952 0.137804
O O4 0.399747 0.635101 0.228766
O O5 0.299667 0.127660 0.869790
O O6 0.233432 0.000000 0.889038
O O7 0.250807 0.085376 0.000000
O O8 0.322652 0.203045 0.748620
O O9 0.390084 0.130141 0.646503
O O10 0.364660 0.264112 0.620702
O O11 0.258202 0.172910 0.619706
O O12 0.250000 0.750000 0.137000
O O13 0.500000 0.418419 0.313892
O O14 0.606452 0.500000 0.270330
O O15 0.635474 0.399263 0.367704
O O16 0.883964 0.395631 0.500000
O O17 0.879497 0.500000 0.407630
O O18 0.000000 0.426683 0.422105
O O19 0.671009 0.660778 0.500000
#
# Coordination Sequence:
#
# PCOD9487665 Si02
#       7
#    16  16  16  16  16  16  16
#     4  10  20  36  59  88 118 151 191 238 287 336
#     4  10  22  39  60  89 121 152 187 228 279 341
#     4  11  19  34  53  76 102 136 181 232 278 325
#     4  10  19  36  60  81 112 150 188 230 277 335
#     4  10  21  37  55  76 107 148 190 231 279 337
#     4   9  19  34  49  69 100 136 175 223 279 332
#     4  11  21  33  50  75 106 141 183 233 284 328
#
# _framework density 18.477166
#
# number of rings (size 3 to 8) (size 9 to 14) (size 15 to 20)
#    0.000    1.857    2.857    3.429    0.000    6.571 
#    0.000    1.429    0.000    0.429    0.000    1.000 
#    0.000    0.000    0.000    0.000    0.000    0.000 
#
# Total GULP energy -311946.063456 kJ/mol
# GULP energy per Si atom -5570.465419 kJ/mol
# Density = 1.843511 g / cm^3
# Si number density = 18.477166 Si / 1000 Ang^3
#
#
#
# Elastic Constant Matrix: (Units=GPa)
#
#
# Indices 1 2 3 4 5 6 
#
# 1 34.1736 40.0680 14.2073 0.0000 0.0000 0.0000
# 2 40.0680 105.4424 26.0460 0.0000 0.0000 0.0000
# 3 14.2073 26.0460 47.1675 0.0000 0.0000 0.0000
# 4 0.0000 0.0000 0.0000 28.1618 0.0000 0.0000
# 5 0.0000 0.0000 0.0000 0.0000 5.0688 0.0000
# 6 0.0000 0.0000 0.0000 0.0000 0.0000 29.1465
#
#
#
# Elastic Compliance Matrix: (Units=1/GPa)
#
#
# Indices 1 2 3 4 5 6 
#
# 1 0.054078 -0.019136 -0.005722 0.000000 0.000000 0.000000
# 2 -0.019136 0.017753 -0.004039 0.000000 0.000000 0.000000
# 3 -0.005722 -0.004039 0.025155 0.000000 0.000000 0.000000
# 4 0.000000 0.000000 0.000000 0.035509 0.000000 0.000000
# 5 0.000000 0.000000 0.000000 0.000000 0.197284 0.000000
# 6 0.000000 0.000000 0.000000 0.000000 0.000000 0.034309
#
#
# Mechanical properties :
#
#
# Convention : Reuss Voigt Hill
#
# Bulk Modulus (GPa) = 25.51560 38.60288 32.05924
# Shear Modulus (GPa) = 11.49562 19.57290 15.53426
#
# Velocity S-wave (km/s) = 2.49700 3.25822 2.90268
# Velocity P-wave (km/s) = 4.70666 5.92387 5.34999
#
# Compressibility (1/GPa) = 0.03919172
#
# Stress axis : x y z
#
# Youngs Moduli (GPa) = 18.49174 56.32710 39.75343
#
# Poissons Ratio (x) = 1.07789 0.22746
# Poissons Ratio (y) = 0.35386 0.16058
# Poissons Ratio (z) = 0.10580 0.22753
#
# Static dielectric constant tensor:
#      x y z
#    x 1.662150 0.000000 0.000000 
#    y 0.000000 1.704610 0.000000 
#    z 0.000000 0.000000 1.644790 
# 
# From -- ./inp_files/54866.got.cif
#   From: 2010.05.17/outbox.cif.g08.bks.cpg/sg65_28_cif.got.tgz:54866.got - 2010.06.03 17:01:31.
