data_PCOD9487422
_publ_section_title
;
Structure prediction by ZEFSAII (Michael W. Deem and Ramdas Pophale) SiO2 
 PCOD9487422
Probable space group: C M M M
;
_chemical_formula_sum "Si O2"
_cell_formula_units_Z 104
_cell_length_a 22.188270
_cell_length_b 9.077134
_cell_length_c 27.211970
_cell_angle_alpha 90.000000
_cell_angle_beta 90.000000
_cell_angle_gamma 90.000000
_cell_volume 5480.651309
_symmetry_space_group_name_H-M "C M M M"
_symmetry_group_IT_number 65
_symmetry_cell_setting 'orthorhombic'
loop_
_space_group_symop_operation_xyz
x,y,z
-x,-y,z
x,-y,-z
-x,y,-z
-x,-y,-z
x,y,-z
-x,y,z
x,-y,z
1/2+x,1/2+y,z
1/2-x,1/2-y,z
1/2+x,1/2-y,-z
1/2-x,1/2+y,-z
1/2-x,1/2-y,-z
1/2+x,1/2+y,-z
1/2-x,1/2+y,z
1/2+x,1/2-y,z
loop_
_atom_site_type_symbol
_atom_site_label
_atom_site_fract_x
_atom_site_fract_y
_atom_site_fract_z
Si Si1 0.187214 0.176130 0.167891
Si Si2 0.427563 0.833235 0.000000
Si Si3 0.500000 0.676380 0.385489
Si Si4 0.500000 0.177509 0.278419
Si Si5 0.370092 0.826073 0.256508
Si Si6 0.929815 0.177643 0.897295
Si Si7 0.622065 0.323053 0.443216
Si Si8 0.809852 0.672338 0.358081
O O1 0.250000 0.250000 0.150668
O O2 0.173893 0.231727 0.223069
O O3 0.125589 0.218768 0.138716
O O4 0.193413 0.000000 0.165960
O O5 0.413359 0.746310 0.950201
O O6 0.500000 0.843574 0.000000
O O7 0.403028 0.000000 0.000000
O O8 0.500000 0.500000 0.377464
O O9 0.500000 0.753697 0.332766
O O10 0.441706 0.713650 0.417956
O O11 0.560494 0.218995 0.249725
O O12 0.500000 0.000000 0.283906
O O13 0.357836 0.807861 0.314505
O O14 0.362322 0.000000 0.245092
O O15 0.000000 0.222347 0.884895
O O16 0.930481 0.000000 0.900320
O O17 0.624236 0.277519 0.500000
O O18 0.629150 0.500000 0.441409
O O19 0.670628 0.246840 0.408642
O O20 0.800294 0.500000 0.365400
O O21 0.750000 0.750000 0.339730
#
# Coordination Sequence:
#
# PCOD9487422 Si02
#       8
#    16   8   8   8  16  16  16  16
#     4  11  24  40  61  87 121 160 202 247 296 354
#     4   9  17  31  56  91 124 157 199 249 300 349
#     4  10  19  34  58  86 112 140 171 213 269 330
#     4  10  20  37  59  87 118 145 179 230 285 340
#     4  10  22  39  60  85 116 150 187 232 287 344
#     4   9  19  37  60  87 120 160 203 248 296 348
#     4  10  21  37  57  82 111 141 175 218 270 329
#     4  11  23  39  59  80 106 142 186 230 276 334
#
# _framework density 18.975846000000001
#
# number of rings (size 3 to 8) (size 9 to 14) (size 15 to 20)
#    0.000    1.923    1.538    1.846    1.077    6.769 
#    0.000    0.385    0.000    1.385    0.000    0.000 
#    0.000    0.000    0.000    0.000    0.000    0.000 
#
# Total GULP energy -290092.707024 kJ/mol
# GULP energy per Si atom -5578.705904 kJ/mol
# Density = 1.893266 g / cm^3
# Si number density = 18.975846 Si / 1000 Ang^3
#
#
#
# Elastic Constant Matrix: (Units=GPa)
#
#
# Indices 1 2 3 4 5 6 
#
# 1 108.9330 36.1573 28.9029 0.0000 0.0000 0.0000
# 2 36.1573 21.6554 27.9090 0.0000 0.0000 0.0000
# 3 28.9029 27.9090 82.0899 0.0000 0.0000 0.0000
# 4 0.0000 0.0000 0.0000 18.4355 0.0000 0.0000
# 5 0.0000 0.0000 0.0000 0.0000 19.8335 0.0000
# 6 0.0000 0.0000 0.0000 0.0000 0.0000 24.6847
#
#
#
# Elastic Compliance Matrix: (Units=1/GPa)
#
#
# Indices 1 2 3 4 5 6 
#
# 1 0.023939 -0.051808 0.009185 0.000000 0.000000 0.000000
# 2 -0.051808 0.194311 -0.047821 0.000000 0.000000 0.000000
# 3 0.009185 -0.047821 0.025206 0.000000 0.000000 0.000000
# 4 0.000000 0.000000 0.000000 0.054243 0.000000 0.000000
# 5 0.000000 0.000000 0.000000 0.000000 0.050420 0.000000
# 6 0.000000 0.000000 0.000000 0.000000 0.000000 0.040511
#
#
# Mechanical properties :
#
#
# Convention : Reuss Voigt Hill
#
# Bulk Modulus (GPa) = 15.98261 44.29077 30.13669
# Shear Modulus (GPa) = 8.46922 20.57133 14.52027
#
# Velocity S-wave (km/s) = 2.11491 3.29611 2.76922
# Velocity P-wave (km/s) = 3.79535 6.15443 5.11281
#
# Compressibility (1/GPa) = 0.06256800
#
# Stress axis : x y z
#
# Youngs Moduli (GPa) = 41.77260 5.14640 39.67296
#
# Poissons Ratio (x) = 0.26662 -0.36440
# Poissons Ratio (y) = 2.16415 1.89720
# Poissons Ratio (z) = -0.38368 0.24611
#
# Static dielectric constant tensor:
#      x y z
#    x 1.686690 0.000000 0.000000 
#    y 0.000000 1.635290 0.000000 
#    z 0.000000 0.000000 1.628880 
# 
# From -- ./inp_files/78294.got.cif
#   From: 2010.05.17/outbox.cif.g08.bks.cpg/sg65_40_cif.got.tgz:78294.got - 2010.06.03 17:01:31.
