data_PCOD9487037
_publ_section_title
;
Structure prediction by ZEFSAII (Michael W. Deem and Ramdas Pophale) SiO2 
 PCOD9487037
Probable space group: C M M M
;
_chemical_formula_sum "Si O2"
_cell_formula_units_Z 88
_cell_length_a 10.083838
_cell_length_b 24.179784
_cell_length_c 20.661465
_cell_angle_alpha 90.000000
_cell_angle_beta 90.000000
_cell_angle_gamma 90.000000
_cell_volume 5037.782215
_symmetry_space_group_name_H-M "C M M M"
_symmetry_group_IT_number 65
_symmetry_cell_setting 'orthorhombic'
loop_
_space_group_symop_operation_xyz
x,y,z
-x,-y,z
x,-y,-z
-x,y,-z
-x,-y,-z
x,y,-z
-x,y,z
x,-y,z
1/2+x,1/2+y,z
1/2-x,1/2-y,z
1/2+x,1/2-y,-z
1/2-x,1/2+y,-z
1/2-x,1/2-y,-z
1/2+x,1/2+y,-z
1/2-x,1/2+y,z
1/2+x,1/2-y,z
loop_
_atom_site_type_symbol
_atom_site_label
_atom_site_fract_x
_atom_site_fract_y
_atom_site_fract_z
Si Si1 0.222097 0.382216 0.245734
Si Si2 0.500000 0.202711 0.205717
Si Si3 0.500000 0.332376 0.208383
Si Si4 0.283811 0.937442 0.890204
Si Si5 0.000000 0.649728 0.930286
Si Si6 0.346109 0.432675 0.500000
Si Si7 0.500000 0.608151 0.925173
Si Si8 0.847601 0.433311 0.616089
O O1 0.126415 0.330152 0.232940
O O2 0.371211 0.360857 0.238642
O O3 0.201209 0.425214 0.186565
O O4 0.188257 0.408847 0.314166
O O5 0.500000 0.267130 0.219985
O O6 0.500000 0.192081 0.128663
O O7 0.500000 0.345149 0.130969
O O8 0.374663 0.891091 0.923058
O O9 0.132612 0.927062 0.911503
O O10 0.323707 0.000000 0.905305
O O11 0.000000 0.677106 0.000000
O O12 0.348743 0.500000 0.500000
O O13 0.500000 0.414266 0.500000
O O14 0.260333 0.415677 0.437324
O O15 0.500000 0.626770 0.000000
O O16 0.843099 0.500000 0.619542
O O17 0.000000 0.418235 0.598774
#
# Coordination Sequence:
#
# PCOD9487037 Si02
#       8
#    16   8   8  16   8   8   8  16
#     4  10  20  35  53  80 104 135 180 221 267 320
#     4  10  20  38  55  73 101 132 174 231 281 322
#     4  10  22  36  55  75 101 132 174 235 285 318
#     4  10  20  33  49  72 105 138 170 213 262 316
#     4  10  21  33  50  75 100 130 175 220 265 326
#     4   9  19  33  51  83 122 155 182 208 240 292
#     4  10  21  35  50  71  98 134 179 216 263 334
#     4  10  19  33  55  82 116 152 180 208 249 305
#
# _framework density 17.468004000000001
#
# number of rings (size 3 to 8) (size 9 to 14) (size 15 to 20)
#    0.000    2.091    0.909    2.455    1.273    3.636 
#    0.000    0.909    0.000    6.545    0.000    3.818 
#    0.000    0.000    0.000    0.000    0.000    0.000 
#
# Total GULP energy -245535.544998 kJ/mol
# GULP energy per Si atom -5580.353295 kJ/mol
# Density = 1.742825 g / cm^3
# Si number density = 17.468004 Si / 1000 Ang^3
#
#
#
# Elastic Constant Matrix: (Units=GPa)
#
#
# Indices 1 2 3 4 5 6 
#
# 1 116.7683 7.1289 47.1133 0.0000 0.0000 0.0000
# 2 7.1289 29.0682 -0.7755 0.0000 0.0000 0.0000
# 3 47.1133 -0.7755 121.6612 0.0000 0.0000 0.0000
# 4 0.0000 0.0000 0.0000 3.8374 0.0000 0.0000
# 5 0.0000 0.0000 0.0000 0.0000 -90.4684 0.0000
# 6 0.0000 0.0000 0.0000 0.0000 0.0000 4.3980
#
#
#
# Elastic Compliance Matrix: (Units=1/GPa)
#
#
# Indices 1 2 3 4 5 6 
#
# 1 0.010349 -0.002646 -0.004025 0.000000 0.000000 0.000000
# 2 -0.002646 0.035084 0.001248 0.000000 0.000000 0.000000
# 3 -0.004025 0.001248 0.009786 0.000000 0.000000 0.000000
# 4 0.000000 0.000000 0.000000 0.260592 0.000000 0.000000
# 5 0.000000 0.000000 0.000000 0.000000 -0.011054 0.000000
# 6 0.000000 0.000000 0.000000 0.000000 0.000000 0.227374
#
#
# Mechanical properties :
#
#
# Convention : Reuss Voigt Hill
#
# Bulk Modulus (GPa) = 22.53508 41.60347 32.06928
# Shear Modulus (GPa) = 8.96431 -2.17785 3.39323
#
# Velocity S-wave (km/s) = 2.26781 -1.11780 1.39526
# Velocity P-wave (km/s) = 4.44816 4.71197 4.58196
#
# Compressibility (1/GPa) = 0.04437525
#
# Stress axis : x y z
#
# Youngs Moduli (GPa) = 96.62463 28.50304 102.18633
#
# Poissons Ratio (x) = 0.07541 0.41126
# Poissons Ratio (y) = 0.25562 -0.12754
# Poissons Ratio (z) = 0.38888 -0.03557
#
# Static dielectric constant tensor:
#      x y z
#    x 1.623450 0.000000 0.000000 
#    y 0.000000 1.543110 0.000000 
#    z 0.000000 0.000000 1.591630 
# 
# From -- ./inp_files/59956.got.cif
#   From: 2010.05.17/outbox.cif.g08.bks.cpg/sg65_30_cif.got.tgz:59956.got - 2010.06.03 17:01:31.
