data_PCOD9487974
_publ_section_title
;
Structure prediction by ZEFSAII (Michael W. Deem and Ramdas Pophale) SiO2 
 PCOD9487974
Probable space group: C M M M
;
_chemical_formula_sum "Si O2"
_cell_formula_units_Z 128
_cell_length_a 30.475978
_cell_length_b 25.048827
_cell_length_c 7.406331
_cell_angle_alpha 90.000000
_cell_angle_beta 90.000000
_cell_angle_gamma 90.000000
_cell_volume 5653.900511
_symmetry_space_group_name_H-M "C M M M"
_symmetry_group_IT_number 65
_symmetry_cell_setting 'orthorhombic'
loop_
_space_group_symop_operation_xyz
x,y,z
-x,-y,z
x,-y,-z
-x,y,-z
-x,-y,-z
x,y,-z
-x,y,z
x,-y,z
1/2+x,1/2+y,z
1/2-x,1/2-y,z
1/2+x,1/2-y,-z
1/2-x,1/2+y,-z
1/2-x,1/2-y,-z
1/2+x,1/2+y,-z
1/2-x,1/2+y,z
1/2+x,1/2-y,z
loop_
_atom_site_type_symbol
_atom_site_label
_atom_site_fract_x
_atom_site_fract_y
_atom_site_fract_z
Si Si1 0.715652 0.939984 0.280165
Si Si2 0.358382 0.442476 0.288860
Si Si3 0.320750 0.248682 0.706098
Si Si4 0.355884 0.136979 0.285040
Si Si5 0.417671 0.715517 0.219212
Si Si6 0.290745 0.357013 0.279337
Si Si7 0.451544 0.599899 0.217958
Si Si8 0.452607 0.829257 0.783900
O O1 0.717274 0.942139 0.500000
O O2 0.668808 0.915973 0.223347
O O3 0.750937 0.895330 0.227003
O O4 0.724158 0.000000 0.216463
O O5 0.346453 0.444053 0.500000
O O6 0.345308 0.500000 0.210929
O O7 0.333498 0.390494 0.216847
O O8 0.410369 0.435203 0.275107
O O9 0.305879 0.239091 0.500000
O O10 0.331930 0.190785 0.788140
O O11 0.368815 0.276893 0.705466
O O12 0.290621 0.295778 0.785395
O O13 0.349763 0.139911 0.500000
O O14 0.407859 0.139698 0.257081
O O15 0.440290 0.660559 0.274233
O O16 0.444355 0.768107 0.275083
O O17 0.414567 0.715549 0.000000
O O18 0.291039 0.353113 0.500000
O O19 0.500000 0.584016 0.280555
O O20 0.452060 0.599073 0.000000
O O21 0.500000 0.848628 0.716497
O O22 0.454768 0.828024 0.000000
#
# Coordination Sequence:
#
# PCOD9487974 Si02
#       8
#    16  16  16  16  16  16  16  16
#     4   9  17  30  49  73 100 131 166 200 238 289
#     4  10  20  33  48  65  86 116 158 204 243 281
#     4   9  16  27  45  71 101 124 150 192 243 286
#     4   9  18  30  47  75 106 131 158 199 246 287
#     4   9  16  28  46  68  94 124 158 193 231 283
#     4   9  16  28  48  71  95 124 158 198 242 289
#     4  10  20  32  46  64  87 118 156 197 242 290
#     4   9  17  30  50  74 100 132 166 196 232 286
#
# _framework density 22.639237000000001
#
# number of rings (size 3 to 8) (size 9 to 14) (size 15 to 20)
#    0.000    2.750    1.250    0.750    0.000    4.500 
#    0.000    3.750    0.000    4.500    0.000    6.125 
#    0.000    0.000    0.000    0.000    0.000    0.000 
#
# Total GULP energy -357213.853106 kJ/mol
# GULP energy per Si atom -5581.466455 kJ/mol
# Density = 2.258771 g / cm^3
# Si number density = 22.639237 Si / 1000 Ang^3
#
#
#
# Elastic Constant Matrix: (Units=GPa)
#
#
# Indices 1 2 3 4 5 6 
#
# 1 104.1190 56.3993 -6.5282 0.0000 0.0000 0.0000
# 2 56.3993 70.1273 1.1896 0.0000 0.0000 0.0000
# 3 -6.5282 1.1896 74.3091 0.0000 0.0000 0.0000
# 4 0.0000 0.0000 0.0000 -2.5622 0.0000 0.0000
# 5 0.0000 0.0000 0.0000 0.0000 18.5463 0.0000
# 6 0.0000 0.0000 0.0000 0.0000 0.0000 -36.3395
#
#
#
# Elastic Compliance Matrix: (Units=1/GPa)
#
#
# Indices 1 2 3 4 5 6 
#
# 1 0.017240 -0.013894 0.001737 0.000000 0.000000 0.000000
# 2 -0.013894 0.025462 -0.001628 0.000000 0.000000 0.000000
# 3 0.001737 -0.001628 0.013636 0.000000 0.000000 0.000000
# 4 0.000000 0.000000 0.000000 -0.390287 0.000000 0.000000
# 5 0.000000 0.000000 0.000000 0.000000 0.053919 0.000000
# 6 0.000000 0.000000 0.000000 0.000000 0.000000 -0.027518
#
#
# Mechanical properties :
#
#
# Convention : Reuss Voigt Hill
#
# Bulk Modulus (GPa) = 34.76303 38.96409 36.86356
# Shear Modulus (GPa) = -18.49183 9.09523 -4.69830
#
# Velocity S-wave (km/s) = -2.86108 2.00654 -1.44215
# Velocity P-wave (km/s) = 2.11523 4.75568 3.68040
#
# Compressibility (1/GPa) = 0.02876619
#
# Stress axis : x y z
#
# Youngs Moduli (GPa) = 58.00618 39.27465 73.33553
#
# Poissons Ratio (x) = 0.54569 -0.12738
# Poissons Ratio (y) = 0.80595 0.11941
# Poissons Ratio (z) = -0.10075 0.06395
#
# Static dielectric constant tensor:
#      x y z
#    x 1.867540 0.000000 0.000000 
#    y 0.000000 1.830570 0.000000 
#    z 0.000000 0.000000 1.888970 
# 
# From -- ./inp_files/32986.got.cif
#   From: 2010.05.17/outbox.cif.g08.bks.cpg/sg65_17_cif.got.tgz:32986.got - 2010.06.03 17:01:31.
