data_PCOD9487761
_publ_section_title
;
Structure prediction by ZEFSAII (Michael W. Deem and Ramdas Pophale) SiO2 
 PCOD9487761
Probable space group: C M M M
;
_chemical_formula_sum "Si O2"
_cell_formula_units_Z 104
_cell_length_a 27.978042
_cell_length_b 7.732602
_cell_length_c 29.422824
_cell_angle_alpha 90.000000
_cell_angle_beta 90.000000
_cell_angle_gamma 90.000000
_cell_volume 6365.423882
_symmetry_space_group_name_H-M "C M M M"
_symmetry_group_IT_number 65
_symmetry_cell_setting 'orthorhombic'
loop_
_space_group_symop_operation_xyz
x,y,z
-x,-y,z
x,-y,-z
-x,y,-z
-x,-y,-z
x,y,-z
-x,y,z
x,-y,z
1/2+x,1/2+y,z
1/2-x,1/2-y,z
1/2+x,1/2-y,-z
1/2-x,1/2+y,-z
1/2-x,1/2-y,-z
1/2+x,1/2+y,-z
1/2-x,1/2+y,z
1/2+x,1/2-y,z
loop_
_atom_site_type_symbol
_atom_site_label
_atom_site_fract_x
_atom_site_fract_y
_atom_site_fract_z
Si Si1 0.849154 0.795828 0.857143
Si Si2 0.694126 0.291609 0.050320
Si Si3 0.553105 0.204979 0.811669
Si Si4 0.195905 0.207811 0.235523
Si Si5 0.399120 0.291217 0.282824
Si Si6 0.942513 0.203158 0.621311
Si Si7 0.058034 0.500000 0.551838
O O1 0.835115 0.723959 0.906315
O O2 0.904172 0.776585 0.842553
O O3 0.818131 0.724351 0.814832
O O4 0.838585 0.000000 0.859063
O O5 0.689209 0.500000 0.048949
O O6 0.750000 0.250000 0.057172
O O7 0.680380 0.225778 0.000000
O O8 0.500000 0.274700 0.820686
O O9 0.567477 0.238002 0.759264
O O10 0.552469 0.000000 0.818711
O O11 0.250000 0.250000 0.247590
O O12 0.154328 0.268758 0.269671
O O13 0.191875 0.000000 0.234012
O O14 0.399400 0.500000 0.283508
O O15 0.418280 0.236411 0.331730
O O16 0.928282 0.329390 0.580316
O O17 0.000000 0.214583 0.626964
O O18 0.931220 0.000000 0.613216
O O19 0.075430 0.500000 0.500000
O O20 0.000000 0.500000 0.550214
#
# Coordination Sequence:
#
# PCOD9487761 Si02
#       7
#    16  16  16  16  16  16   8
#     4   9  18  31  45  61  85 117 147 175 215 264
#     4   9  17  29  46  68  90 111 140 180 222 266
#     4  10  20  30  43  65  88 111 145 186 221 259
#     4   9  17  28  41  60  87 117 145 175 213 261
#     4   9  18  31  45  63  89 121 152 184 218 265
#     4   9  17  29  46  66  91 126 159 191 232 274
#     4   9  18  30  44  66  96 126 158 196 231 273
#
# _framework density 16.338267999999999
#
# number of rings (size 3 to 8) (size 9 to 14) (size 15 to 20)
#    0.000    2.846    0.000    2.308    1.077    5.231 
#    0.000    1.538    0.000    0.462    0.000    3.231 
#    0.000    0.615    0.308    0.000    0.000    0.000 
#
# Total GULP energy -289718.599395 kJ/mol
# GULP energy per Si atom -5571.511527 kJ/mol
# Density = 1.630108 g / cm^3
# Si number density = 16.338268 Si / 1000 Ang^3
#
#
#
# Elastic Constant Matrix: (Units=GPa)
#
#
# Indices 1 2 3 4 5 6 
#
# 1 60.1139 4.1320 40.5494 0.0000 0.0000 0.0000
# 2 4.1320 37.2745 33.2519 0.0000 0.0000 0.0000
# 3 40.5494 33.2519 144.1350 0.0000 0.0000 0.0000
# 4 0.0000 0.0000 0.0000 7.0476 0.0000 0.0000
# 5 0.0000 0.0000 0.0000 0.0000 17.1206 0.0000
# 6 0.0000 0.0000 0.0000 0.0000 0.0000 18.6948
#
#
#
# Elastic Compliance Matrix: (Units=1/GPa)
#
#
# Indices 1 2 3 4 5 6 
#
# 1 0.020927 0.003692 -0.006739 0.000000 0.000000 0.000000
# 2 0.003692 0.034431 -0.008982 0.000000 0.000000 0.000000
# 3 -0.006739 -0.008982 0.010906 0.000000 0.000000 0.000000
# 4 0.000000 0.000000 0.000000 0.141892 0.000000 0.000000
# 5 0.000000 0.000000 0.000000 0.000000 0.058409 0.000000
# 6 0.000000 0.000000 0.000000 0.000000 0.000000 0.053491
#
#
# Mechanical properties :
#
#
# Convention : Reuss Voigt Hill
#
# Bulk Modulus (GPa) = 23.69312 44.15443 33.92377
# Shear Modulus (GPa) = 13.95934 19.47863 16.71898
#
# Velocity S-wave (km/s) = 2.92617 3.45658 3.20238
# Velocity P-wave (km/s) = 5.09409 6.55854 5.87215
#
# Compressibility (1/GPa) = 0.04220635
#
# Stress axis : x y z
#
# Youngs Moduli (GPa) = 47.78472 29.04331 91.69258
#
# Poissons Ratio (x) = -0.10723 0.61793
# Poissons Ratio (y) = -0.17642 0.82358
# Poissons Ratio (z) = 0.32203 0.26087
#
# Static dielectric constant tensor:
#      x y z
#    x 1.548090 0.000000 0.000000 
#    y 0.000000 1.565250 0.000000 
#    z 0.000000 0.000000 1.556030 
# 
# From -- ./inp_files/78358.got.cif
#   From: 2010.05.17/outbox.cif.g08.bks.cpg/sg65_40_cif.got.tgz:78358.got - 2010.06.03 17:01:31.
