data_PCOD9487556
_publ_section_title
;
Structure prediction by ZEFSAII (Michael W. Deem and Ramdas Pophale) SiO2 
 PCOD9487556
Probable space group: C M M M
;
_chemical_formula_sum "Si O2"
_cell_formula_units_Z 66
_cell_length_a 16.266301
_cell_length_b 23.970094
_cell_length_c 7.759255
_cell_angle_alpha 90.000000
_cell_angle_beta 90.000000
_cell_angle_gamma 90.000000
_cell_volume 3025.370490
_symmetry_space_group_name_H-M "C M M M"
_symmetry_group_IT_number 65
_symmetry_cell_setting 'orthorhombic'
loop_
_space_group_symop_operation_xyz
x,y,z
-x,-y,z
x,-y,-z
-x,y,-z
-x,-y,-z
x,y,-z
-x,y,z
x,-y,z
1/2+x,1/2+y,z
1/2-x,1/2-y,z
1/2+x,1/2-y,-z
1/2-x,1/2+y,-z
1/2-x,1/2-y,-z
1/2+x,1/2+y,-z
1/2-x,1/2+y,z
1/2+x,1/2-y,z
loop_
_atom_site_type_symbol
_atom_site_label
_atom_site_fract_x
_atom_site_fract_y
_atom_site_fract_z
Si Si1 0.660031 0.379782 0.796405
Si Si2 0.666248 0.879940 0.295991
Si Si3 0.000000 0.500000 0.500000
Si Si4 0.332464 0.000000 0.308478
Si Si5 0.500000 0.691045 0.293981
Si Si6 0.500000 0.181097 0.288052
Si Si7 0.403915 0.500000 0.789256
O O1 0.743907 0.353354 0.722125
O O2 0.580963 0.341814 0.762674
O O3 0.638343 0.442403 0.730384
O O4 0.671355 0.383685 0.000000
O O5 0.650257 0.888899 0.500000
O O6 0.584584 0.849183 0.231657
O O7 0.681342 0.941419 0.217552
O O8 0.071517 0.500000 0.353918
O O9 0.290268 0.000000 0.500000
O O10 0.500000 0.692716 0.500000
O O11 0.500000 0.754841 0.231654
O O12 0.500000 0.180004 0.500000
O O13 0.500000 0.500000 0.739203
O O14 0.402053 0.500000 0.000000
#
# Coordination Sequence:
#
# PCOD9487556 Si02
#       7
#    16  16   2   8   8   8   8
#     4  11  22  38  60  86 116 150 185 230 290 347
#     4  10  19  35  58  88 118 149 188 233 280 338
#     4   8  12  24  48  84 114 146 180 224 274 314
#     4   8  15  25  52  87 118 138 180 227 279 324
#     4  11  23  41  59  81 108 149 199 246 281 329
#     4   9  21  38  60  82 111 153 197 235 282 332
#     4   9  17  34  59  83 110 149 184 216 276 354
#
# _framework density 21.815511000000001
#
# number of rings (size 3 to 8) (size 9 to 14) (size 15 to 20)
#    0.364    1.818    1.212    2.545    1.697    0.970 
#    0.000   10.303    0.000    0.000    0.000    5.091 
#    0.000    0.000    0.000    0.000    0.000    0.000 
#
# Total GULP energy -183789.273441 kJ/mol
# GULP energy per Si atom -5569.371922 kJ/mol
# Density = 2.176586 g / cm^3
# Si number density = 21.815511 Si / 1000 Ang^3
#
#
#
# Elastic Constant Matrix: (Units=GPa)
#
#
# Indices 1 2 3 4 5 6 
#
# 1 219.1490 85.6327 3.7238 0.0000 0.0000 0.0000
# 2 85.6327 146.0288 12.4874 0.0000 0.0000 0.0000
# 3 3.7238 12.4874 41.9074 0.0000 0.0000 0.0000
# 4 0.0000 0.0000 0.0000 11.7231 0.0000 0.0000
# 5 0.0000 0.0000 0.0000 0.0000 -154.1899 0.0000
# 6 0.0000 0.0000 0.0000 0.0000 0.0000 -1.7737
#
#
#
# Elastic Compliance Matrix: (Units=1/GPa)
#
#
# Indices 1 2 3 4 5 6 
#
# 1 0.005931 -0.003522 0.000523 0.000000 0.000000 0.000000
# 2 -0.003522 0.009119 -0.002404 0.000000 0.000000 0.000000
# 3 0.000523 -0.002404 0.024532 0.000000 0.000000 0.000000
# 4 0.000000 0.000000 0.000000 0.085302 0.000000 0.000000
# 5 0.000000 0.000000 0.000000 0.000000 -0.006486 0.000000
# 6 0.000000 0.000000 0.000000 0.000000 0.000000 -0.563790
#
#
# Mechanical properties :
#
#
# Convention : Reuss Voigt Hill
#
# Bulk Modulus (GPa) = 34.75400 67.86365 51.30882
# Shear Modulus (GPa) = -11.76492 -8.49869 -10.13180
#
# Velocity S-wave (km/s) = -2.32478 -1.97590 -2.15740
# Velocity P-wave (km/s) = 2.95961 5.09607 4.16709
#
# Compressibility (1/GPa) = 0.02877367
#
# Stress axis : x y z
#
# Youngs Moduli (GPa) = 168.61600 109.65902 40.76287
#
# Poissons Ratio (x) = 0.38627 -0.02130
# Poissons Ratio (y) = 0.59395 0.09801
# Poissons Ratio (z) = -0.08812 0.26365
#
# Static dielectric constant tensor:
#      x y z
#    x 1.835050 0.000000 0.000000 
#    y 0.000000 1.849110 0.000000 
#    z 0.000000 0.000000 1.803240 
# 
# From -- ./inp_files/6894.got.cif
#   From: 2010.05.17/outbox.cif.g08.bks.cpg/sg65_4_cif.got.tgz:6894.got - 2010.06.03 17:01:31.
