data_PCOD9487962
_publ_section_title
;
Structure prediction by ZEFSAII (Michael W. Deem and Ramdas Pophale) SiO2 
 PCOD9487962
Probable space group: C M M M
;
_chemical_formula_sum "Si O2"
_cell_formula_units_Z 104
_cell_length_a 9.025931
_cell_length_b 27.383561
_cell_length_c 23.141995
_cell_angle_alpha 90.000000
_cell_angle_beta 90.000000
_cell_angle_gamma 90.000000
_cell_volume 5719.824826
_symmetry_space_group_name_H-M "C M M M"
_symmetry_group_IT_number 65
_symmetry_cell_setting 'orthorhombic'
loop_
_space_group_symop_operation_xyz
x,y,z
-x,-y,z
x,-y,-z
-x,y,-z
-x,-y,-z
x,y,-z
-x,y,z
x,-y,z
1/2+x,1/2+y,z
1/2-x,1/2-y,z
1/2+x,1/2-y,-z
1/2-x,1/2+y,-z
1/2-x,1/2-y,-z
1/2+x,1/2+y,-z
1/2-x,1/2+y,z
1/2+x,1/2-y,z
loop_
_atom_site_type_symbol
_atom_site_label
_atom_site_fract_x
_atom_site_fract_y
_atom_site_fract_z
Si Si1 0.327739 0.000000 0.429698
Si Si2 0.824519 0.376934 0.146014
Si Si3 0.322994 0.801861 0.377490
Si Si4 0.330768 0.558264 0.064013
Si Si5 0.173090 0.101785 0.569767
Si Si6 0.323444 0.198939 0.759637
Si Si7 0.168990 0.200041 0.931009
O O1 0.248597 0.050529 0.411228
O O2 0.500000 0.000000 0.412181
O O3 0.323348 0.000000 0.500000
O O4 0.752003 0.426031 0.122184
O O5 0.773487 0.348193 0.203578
O O6 0.771255 0.341353 0.095050
O O7 0.000000 0.382385 0.149106
O O8 0.500000 0.799925 0.387161
O O9 0.250000 0.750000 0.395795
O O10 0.253886 0.849653 0.407240
O O11 0.295451 0.806931 0.308574
O O12 0.500000 0.577301 0.066594
O O13 0.335867 0.500000 0.062704
O O14 0.270220 0.573279 0.000000
O O15 0.180569 0.102708 0.500000
O O16 0.000000 0.102295 0.586508
O O17 0.500000 0.203534 0.768079
O O18 0.250000 0.250000 0.778214
O O19 0.250000 0.250000 0.915895
O O20 0.000000 0.198383 0.909006
O O21 0.163289 0.196429 0.000000
#
# Coordination Sequence:
#
# PCOD9487962 Si02
#       7
#     8  16  16  16  16  16  16
#     4   9  17  31  53  81 111 145 183 219 260 313
#     4  11  21  32  50  75 100 126 162 205 251 303
#     4  10  20  36  56  77 106 143 185 228 273 326
#     4   9  19  36  55  74  98 129 166 209 258 311
#     4  10  20  34  54  82 115 147 181 225 274 323
#     4   9  20  36  53  75 102 134 173 214 257 304
#     4  10  20  32  45  65  96 129 159 194 239 290
#
# _framework density 18.182375
#
# number of rings (size 3 to 8) (size 9 to 14) (size 15 to 20)
#    0.000    2.231    0.000    3.462    0.000    8.615 
#    0.000    0.769    1.692    0.000    0.000    0.000 
#    0.000    0.000    0.000    0.000    0.000    0.000 
#
# Total GULP energy -289827.632973 kJ/mol
# GULP energy per Si atom -5573.608326 kJ/mol
# Density = 1.814099 g / cm^3
# Si number density = 18.182375 Si / 1000 Ang^3
#
#
#
# Elastic Constant Matrix: (Units=GPa)
#
#
# Indices 1 2 3 4 5 6 
#
# 1 78.4324 59.0317 31.6362 0.0000 0.0000 0.0000
# 2 59.0317 128.6038 32.7681 0.0000 0.0000 0.0000
# 3 31.6362 32.7681 32.9270 0.0000 0.0000 0.0000
# 4 0.0000 0.0000 0.0000 19.3998 0.0000 0.0000
# 5 0.0000 0.0000 0.0000 0.0000 10.6164 0.0000
# 6 0.0000 0.0000 0.0000 0.0000 0.0000 32.9835
#
#
#
# Elastic Compliance Matrix: (Units=1/GPa)
#
#
# Indices 1 2 3 4 5 6 
#
# 1 0.024919 -0.007151 -0.016825 0.000000 0.000000 0.000000
# 2 -0.007151 0.012470 -0.005539 0.000000 0.000000 0.000000
# 3 -0.016825 -0.005539 0.052048 0.000000 0.000000 0.000000
# 4 0.000000 0.000000 0.000000 0.051547 0.000000 0.000000
# 5 0.000000 0.000000 0.000000 0.000000 0.094194 0.000000
# 6 0.000000 0.000000 0.000000 0.000000 0.000000 0.030318
#
#
# Mechanical properties :
#
#
# Convention : Reuss Voigt Hill
#
# Bulk Modulus (GPa) = 32.88818 54.09281 43.49050
# Shear Modulus (GPa) = 14.94054 20.36842 17.65448
#
# Velocity S-wave (km/s) = 2.86965 3.35061 3.11941
# Velocity P-wave (km/s) = 5.39510 6.69205 6.07826
#
# Compressibility (1/GPa) = 0.03040606
#
# Stress axis : x y z
#
# Youngs Moduli (GPa) = 40.13070 80.19542 19.21320
#
# Poissons Ratio (x) = 0.57349 0.32326
# Poissons Ratio (y) = 0.28698 0.10641
# Poissons Ratio (z) = 0.67520 0.44417
#
# Static dielectric constant tensor:
#      x y z
#    x 1.691890 0.000000 0.000000 
#    y 0.000000 1.160460 0.000000 
#    z 0.000000 0.000000 1.632210 
# 
# From -- ./inp_files/65904.got.cif
#   From: 2010.05.17/outbox.cif.g08.bks.cpg/sg65_33_cif.got.tgz:65904.got - 2010.06.03 17:01:31.
