data_PCOD9487154
_publ_section_title
;
Structure prediction by ZEFSAII (Michael W. Deem and Ramdas Pophale) SiO2 
 PCOD9487154
Probable space group: C M M M
;
_chemical_formula_sum "Si O2"
_cell_formula_units_Z 88
_cell_length_a 9.154248
_cell_length_b 31.653597
_cell_length_c 17.181453
_cell_angle_alpha 90.000000
_cell_angle_beta 90.000000
_cell_angle_gamma 90.000000
_cell_volume 4978.581616
_symmetry_space_group_name_H-M "C M M M"
_symmetry_group_IT_number 65
_symmetry_cell_setting 'orthorhombic'
loop_
_space_group_symop_operation_xyz
x,y,z
-x,-y,z
x,-y,-z
-x,y,-z
-x,-y,-z
x,y,-z
-x,y,z
x,-y,z
1/2+x,1/2+y,z
1/2-x,1/2-y,z
1/2+x,1/2-y,-z
1/2-x,1/2+y,-z
1/2-x,1/2-y,-z
1/2+x,1/2+y,-z
1/2-x,1/2+y,z
1/2+x,1/2-y,z
loop_
_atom_site_type_symbol
_atom_site_label
_atom_site_fract_x
_atom_site_fract_y
_atom_site_fract_z
Si Si1 0.824873 0.886151 0.705179
Si Si2 0.174109 0.208136 0.751054
Si Si3 0.662771 0.450289 0.000000
Si Si4 0.167490 0.407017 0.135558
Si Si5 0.673843 0.951843 0.406994
Si Si6 0.331496 0.190169 0.911902
O O1 0.787669 0.835867 0.707394
O O2 0.755360 0.903819 0.784564
O O3 0.758988 0.914777 0.636854
O O4 0.000000 0.889369 0.706308
O O5 0.250000 0.250000 0.717621
O O6 0.231312 0.204309 0.840279
O O7 0.000000 0.212555 0.750697
O O8 0.751123 0.436612 0.924452
O O9 0.649421 0.500000 0.000000
O O10 0.500000 0.430778 0.000000
O O11 0.165891 0.360550 0.096623
O O12 0.000000 0.419587 0.149602
O O13 0.694927 0.948858 0.500000
O O14 0.500000 0.947750 0.391813
O O15 0.717134 0.000000 0.383387
O O16 0.500000 0.204870 0.901037
O O17 0.284507 0.201010 0.000000
#
# Coordination Sequence:
#
# PCOD9487154 Si02
#       6
#    16  16   8  16  16  16
#     4  10  21  36  56  84 113 144 181 223 275 328
#     4  10  21  35  51  75 105 141 183 226 272 323
#     4  11  23  35  47  67  98 135 176 227 281 325
#     4  10  19  34  53  72  96 134 182 225 267 321
#     4   9  19  37  61  89 118 146 178 216 262 323
#     4   9  17  31  50  71  95 127 171 223 274 323
#
# _framework density 17.675716999999999
#
# number of rings (size 3 to 8) (size 9 to 14) (size 15 to 20)
#    0.000    2.273    0.909    2.455    0.000    5.818 
#    0.000    0.909    0.000    0.545    0.000    0.000 
#    0.000    0.000    0.000    0.000    0.000    0.000 
#
# Total GULP energy -245422.253007 kJ/mol
# GULP energy per Si atom -5577.778477 kJ/mol
# Density = 1.763549 g / cm^3
# Si number density = 17.675717 Si / 1000 Ang^3
#
#
#
# Elastic Constant Matrix: (Units=GPa)
#
#
# Indices 1 2 3 4 5 6 
#
# 1 88.0910 70.9999 42.2430 0.0000 0.0000 0.0000
# 2 70.9999 121.9301 55.3331 0.0000 0.0000 0.0000
# 3 42.2430 55.3331 63.5851 0.0000 0.0000 0.0000
# 4 0.0000 0.0000 0.0000 36.6684 0.0000 0.0000
# 5 0.0000 0.0000 0.0000 0.0000 77.3808 0.0000
# 6 0.0000 0.0000 0.0000 0.0000 0.0000 30.6697
#
#
#
# Elastic Compliance Matrix: (Units=1/GPa)
#
#
# Indices 1 2 3 4 5 6 
#
# 1 0.022657 -0.010515 -0.005902 0.000000 0.000000 0.000000
# 2 -0.010515 0.018434 -0.009056 0.000000 0.000000 0.000000
# 3 -0.005902 -0.009056 0.027529 0.000000 0.000000 0.000000
# 4 0.000000 0.000000 0.000000 0.027271 0.000000 0.000000
# 5 0.000000 0.000000 0.000000 0.000000 0.012923 0.000000
# 6 0.000000 0.000000 0.000000 0.000000 0.000000 0.032605
#
#
# Mechanical properties :
#
#
# Convention : Reuss Voigt Hill
#
# Bulk Modulus (GPa) = 56.58067 67.86202 62.22135
# Shear Modulus (GPa) = 25.21989 35.94580 30.58284
#
# Velocity S-wave (km/s) = 3.78141 4.51447 4.16410
# Velocity P-wave (km/s) = 7.15160 8.10247 7.64184
#
# Compressibility (1/GPa) = 0.01767388
#
# Stress axis : x y z
#
# Youngs Moduli (GPa) = 44.13690 54.24809 36.32561
#
# Poissons Ratio (x) = 0.57040 0.21440
# Poissons Ratio (y) = 0.46408 0.32897
# Poissons Ratio (z) = 0.26050 0.49127
#
# Static dielectric constant tensor:
#      x y z
#    x 1.604400 0.000000 0.000000 
#    y 0.000000 1.629290 0.000000 
#    z 0.000000 0.000000 1.575340 
# 
# From -- ./inp_files/50312.got.cif
#   From: 2010.05.17/outbox.cif.g08.bks.cpg/sg65_26_cif.got.tgz:50312.got - 2010.06.03 17:01:31.
