data_PCOD9487111
_publ_section_title
;
Structure prediction by ZEFSAII (Michael W. Deem and Ramdas Pophale) SiO2 
 PCOD9487111
Probable space group: C M M M
;
_chemical_formula_sum "Si O2"
_cell_formula_units_Z 76
_cell_length_a 12.172668
_cell_length_b 23.589187
_cell_length_c 14.712047
_cell_angle_alpha 90.000000
_cell_angle_beta 90.000000
_cell_angle_gamma 90.000000
_cell_volume 4224.466339
_symmetry_space_group_name_H-M "C M M M"
_symmetry_group_IT_number 65
_symmetry_cell_setting 'orthorhombic'
loop_
_space_group_symop_operation_xyz
x,y,z
-x,-y,z
x,-y,-z
-x,y,-z
-x,-y,-z
x,y,-z
-x,y,z
x,-y,z
1/2+x,1/2+y,z
1/2-x,1/2-y,z
1/2+x,1/2-y,-z
1/2-x,1/2+y,-z
1/2-x,1/2-y,-z
1/2+x,1/2+y,-z
1/2-x,1/2+y,z
1/2+x,1/2-y,z
loop_
_atom_site_type_symbol
_atom_site_label
_atom_site_fract_x
_atom_site_fract_y
_atom_site_fract_z
Si Si1 0.630190 0.500000 0.206404
Si Si2 0.630593 0.875057 0.602085
Si Si3 0.368865 0.386257 0.102311
Si Si4 0.000000 0.633056 0.890356
Si Si5 0.500000 0.000000 0.825395
Si Si6 0.788249 0.315002 0.781629
Si Si7 0.822230 0.500000 0.666820
O O1 0.500000 0.500000 0.222820
O O2 0.659296 0.553546 0.145190
O O3 0.697464 0.500000 0.298947
O O4 0.663503 0.858337 0.500000
O O5 0.500000 0.865474 0.612245
O O6 0.690581 0.841673 0.682458
O O7 0.650697 0.942267 0.614952
O O8 0.500000 0.381222 0.100042
O O9 0.315074 0.342123 0.168319
O O10 0.326392 0.380950 0.000000
O O11 0.105908 0.663726 0.842281
O O12 0.000000 0.563469 0.872639
O O13 0.000000 0.641448 0.000000
O O14 0.604946 0.000000 0.758677
O O15 0.750000 0.250000 0.774602
#
# Coordination Sequence:
#
# PCOD9487111 Si02
#       7
#     8  16  16   8   4  16   8
#     4  10  19  33  58  85 118 165 200 247 301 361
#     4  11  22  40  67  95 120 153 203 265 330 389
#     4  10  21  37  59  87 118 161 210 251 297 361
#     4  12  25  42  64  98 132 169 213 262 324 382
#     4  12  19  38  69  98 126 164 195 276 339 376
#     4  12  25  42  62  87 126 168 208 259 310 369
#     4  12  17  35  63  92 129 150 198 254 337 390
#
# _framework density 17.990438000000001
#
# number of rings (size 3 to 8) (size 9 to 14) (size 15 to 20)
#    0.000    0.842    6.316    1.421    1.474    4.211 
#    0.000    3.158    0.000    3.158    0.000    0.000 
#    0.000    0.000    0.000    0.000    0.000    0.000 
#
# Total GULP energy -211948.304255 kJ/mol
# GULP energy per Si atom -5577.586954 kJ/mol
# Density = 1.794949 g / cm^3
# Si number density = 17.990438 Si / 1000 Ang^3
#
#
#
# Elastic Constant Matrix: (Units=GPa)
#
#
# Indices 1 2 3 4 5 6 
#
# 1 -0.6107 41.9618 40.1915 0.0000 0.0000 0.0000
# 2 41.9618 179.6252 106.4210 0.0000 0.0000 0.0000
# 3 40.1915 106.4210 206.5872 0.0000 0.0000 0.0000
# 4 0.0000 0.0000 0.0000 23.3682 0.0000 0.0000
# 5 0.0000 0.0000 0.0000 0.0000 27.1267 0.0000
# 6 0.0000 0.0000 0.0000 0.0000 0.0000 23.6074
#
#
#
# Elastic Compliance Matrix: (Units=1/GPa)
#
#
# Indices 1 2 3 4 5 6 
#
# 1 -0.082982 0.014134 0.008863 0.000000 0.000000 0.000000
# 2 0.014134 0.005605 -0.005637 0.000000 0.000000 0.000000
# 3 0.008863 -0.005637 0.006020 0.000000 0.000000 0.000000
# 4 0.000000 0.000000 0.000000 0.042793 0.000000 0.000000
# 5 0.000000 0.000000 0.000000 0.000000 0.036864 0.000000
# 6 0.000000 0.000000 0.000000 0.000000 0.000000 0.042360
#
#
# Mechanical properties :
#
#
# Convention : Reuss Voigt Hill
#
# Bulk Modulus (GPa) = -27.29499 84.75003 28.72752
# Shear Modulus (GPa) = 1341.48539 27.95562 684.72050
#
# Velocity S-wave (km/s) = 27.33651 3.94625 19.53020
# Velocity P-wave (km/s) = 31.32371 8.24466 22.90359
#
# Compressibility (1/GPa) = -0.03663676
#
# Stress axis : x y z
#
# Youngs Moduli (GPa) = -12.05075 178.40837 166.10726
#
# Poissons Ratio (x) = -2.52167 -1.47223
# Poissons Ratio (y) = 0.17033 0.93639
# Poissons Ratio (z) = 0.10681 1.00573
#
# Static dielectric constant tensor:
#      x y z
#    x 1.512460 0.000000 0.000000 
#    y 0.000000 1.561920 0.000000 
#    z 0.000000 0.000000 1.611080 
# 
# From -- ./inp_files/38367.got.cif
#   From: 2010.05.17/outbox.cif.g08.bks.cpg/sg65_20_cif.got.tgz:38367.got - 2010.06.03 17:01:31.
