data_PCOD9487058
_publ_section_title
;
Structure prediction by ZEFSAII (Michael W. Deem and Ramdas Pophale) SiO2 
 PCOD9487058
Probable space group: C M M M
;
_chemical_formula_sum "Si O2"
_cell_formula_units_Z 104
_cell_length_a 19.772733
_cell_length_b 33.789679
_cell_length_c 9.163335
_cell_angle_alpha 90.000000
_cell_angle_beta 90.000000
_cell_angle_gamma 90.000000
_cell_volume 6122.155159
_symmetry_space_group_name_H-M "C M M M"
_symmetry_group_IT_number 65
_symmetry_cell_setting 'orthorhombic'
loop_
_space_group_symop_operation_xyz
x,y,z
-x,-y,z
x,-y,-z
-x,y,-z
-x,-y,-z
x,y,-z
-x,y,z
x,-y,z
1/2+x,1/2+y,z
1/2-x,1/2-y,z
1/2+x,1/2-y,-z
1/2-x,1/2+y,-z
1/2-x,1/2-y,-z
1/2+x,1/2+y,-z
1/2-x,1/2+y,z
1/2+x,1/2-y,z
loop_
_atom_site_type_symbol
_atom_site_label
_atom_site_fract_x
_atom_site_fract_y
_atom_site_fract_z
Si Si1 0.579140 0.186985 0.175021
Si Si2 0.131463 0.921361 0.826234
Si Si3 0.168705 0.377154 0.327169
Si Si4 0.171442 0.762124 0.828159
Si Si5 0.319128 0.343952 0.672390
Si Si6 0.720442 0.954749 0.824983
Si Si7 0.500000 0.452900 0.334573
O O1 0.500000 0.192244 0.208587
O O2 0.610538 0.148901 0.253732
O O3 0.623094 0.225755 0.214859
O O4 0.586213 0.181970 0.000000
O O5 0.142785 0.877780 0.761937
O O6 0.200308 0.945765 0.794150
O O7 0.066697 0.939632 0.749863
O O8 0.123082 0.920335 0.000000
O O9 0.158406 0.381026 0.500000
O O10 0.239324 0.353276 0.303743
O O11 0.178993 0.420256 0.255210
O O12 0.250000 0.750000 0.813459
O O13 0.161741 0.801132 0.732711
O O14 0.159429 0.770809 0.000000
O O15 0.332158 0.347403 0.500000
O O16 0.704232 0.000000 0.783161
O O17 0.711432 0.950920 0.000000
O O18 0.500000 0.500000 0.341223
O O19 0.500000 0.436996 0.500000
#
# Coordination Sequence:
#
# PCOD9487058 Si02
#       7
#    16  16  16  16  16  16   8
#     4  10  21  37  56  79 107 141 181 224 269 320
#     4  10  20  35  55  77 104 141 185 228 269 321
#     4  10  20  33  53  80 109 141 174 213 265 323
#     4  10  19  33  56  81 106 140 183 228 270 317
#     4  10  20  34  53  78 108 140 177 222 274 325
#     4   9  18  33  55  82 108 135 174 223 269 316
#     4  11  23  37  53  75 107 145 183 227 281 335
#
# _framework density 16.987483000000001
#
# number of rings (size 3 to 8) (size 9 to 14) (size 15 to 20)
#    0.000    2.077    1.538    2.077    0.000    4.615 
#    1.385    0.000    0.000    0.462    0.000    3.231 
#    0.000    0.000    0.000    0.000    0.000    0.000 
#
# Total GULP energy -290220.410988 kJ/mol
# GULP energy per Si atom -5581.161750 kJ/mol
# Density = 1.694882 g / cm^3
# Si number density = 16.987483 Si / 1000 Ang^3
#
#
#
# Elastic Constant Matrix: (Units=GPa)
#
#
# Indices 1 2 3 4 5 6 
#
# 1 91.7854 61.7876 47.2680 0.0000 0.0000 0.0000
# 2 61.7876 144.5807 61.4781 0.0000 0.0000 0.0000
# 3 47.2680 61.4781 60.9482 0.0000 0.0000 0.0000
# 4 0.0000 0.0000 0.0000 27.1933 0.0000 0.0000
# 5 0.0000 0.0000 0.0000 0.0000 65.0127 0.0000
# 6 0.0000 0.0000 0.0000 0.0000 0.0000 22.5616
#
#
#
# Elastic Compliance Matrix: (Units=1/GPa)
#
#
# Indices 1 2 3 4 5 6 
#
# 1 0.018970 -0.003241 -0.011442 0.000000 0.000000 0.000000
# 2 -0.003241 0.012665 -0.010261 0.000000 0.000000 0.000000
# 3 -0.011442 -0.010261 0.035632 0.000000 0.000000 0.000000
# 4 0.000000 0.000000 0.000000 0.036774 0.000000 0.000000
# 5 0.000000 0.000000 0.000000 0.000000 0.015382 0.000000
# 6 0.000000 0.000000 0.000000 0.000000 0.000000 0.044323
#
#
# Mechanical properties :
#
#
# Convention : Reuss Voigt Hill
#
# Bulk Modulus (GPa) = 57.54838 70.93131 64.23985
# Shear Modulus (GPa) = 22.78662 31.40557 27.09610
#
# Velocity S-wave (km/s) = 3.66646 4.30437 3.99816
# Velocity P-wave (km/s) = 7.20238 8.15777 7.69492
#
# Compressibility (1/GPa) = 0.01737668
#
# Stress axis : x y z
#
# Youngs Moduli (GPa) = 52.71614 78.95722 28.06473
#
# Poissons Ratio (x) = 0.25593 0.32112
# Poissons Ratio (y) = 0.17087 0.28798
# Poissons Ratio (z) = 0.60319 0.81021
#
# Static dielectric constant tensor:
#      x y z
#    x 1.558440 0.000000 0.000000 
#    y 0.000000 1.556660 0.000000 
#    z 0.000000 0.000000 1.563790 
# 
# From -- ./inp_files/12751.got.cif
#   From: 2010.05.17/outbox.cif.g08.bks.cpg/sg65_7_cif.got.tgz:12751.got - 2010.06.03 17:01:31.
