data_PCOD9487866
_publ_section_title
;
Structure prediction by ZEFSAII (Michael W. Deem and Ramdas Pophale) SiO2 
 PCOD9487866
Probable space group: C M M M
;
_chemical_formula_sum "Si O2"
_cell_formula_units_Z 104
_cell_length_a 30.828424
_cell_length_b 9.000967
_cell_length_c 23.243527
_cell_angle_alpha 90.000000
_cell_angle_beta 90.000000
_cell_angle_gamma 90.000000
_cell_volume 6449.744665
_symmetry_space_group_name_H-M "C M M M"
_symmetry_group_IT_number 65
_symmetry_cell_setting 'orthorhombic'
loop_
_space_group_symop_operation_xyz
x,y,z
-x,-y,z
x,-y,-z
-x,y,-z
-x,-y,-z
x,y,-z
-x,y,z
x,-y,z
1/2+x,1/2+y,z
1/2-x,1/2-y,z
1/2+x,1/2-y,-z
1/2-x,1/2+y,-z
1/2-x,1/2-y,-z
1/2+x,1/2+y,-z
1/2-x,1/2+y,z
1/2+x,1/2-y,z
loop_
_atom_site_type_symbol
_atom_site_label
_atom_site_fract_x
_atom_site_fract_y
_atom_site_fract_z
Si Si1 0.411418 0.671026 0.598558
Si Si2 0.118427 0.172167 0.730610
Si Si3 0.324186 0.178778 0.562456
Si Si4 0.500000 0.831470 0.431166
Si Si5 0.794926 0.321207 0.689508
Si Si6 0.051011 0.322633 0.182634
Si Si7 0.552511 0.327910 0.936193
O O1 0.411486 0.500000 0.579369
O O2 0.401189 0.674906 0.666339
O O3 0.372928 0.759828 0.567716
O O4 0.457178 0.746457 0.587893
O O5 0.163838 0.259580 0.724578
O O6 0.083658 0.245908 0.772988
O O7 0.125979 0.000000 0.746411
O O8 0.306069 0.226969 0.500000
O O9 0.301375 0.225555 0.622003
O O10 0.324966 0.000000 0.563094
O O11 0.500000 0.836984 0.500000
O O12 0.500000 0.000000 0.408551
O O13 0.793755 0.500000 0.691989
O O14 0.750000 0.250000 0.709687
O O15 0.053505 0.500000 0.187832
O O16 0.064116 0.271410 0.118313
O O17 0.000000 0.279590 0.191827
O O18 0.500000 0.326766 0.938001
O O19 0.565601 0.500000 0.927264
O O20 0.567540 0.280120 0.000000
#
# Coordination Sequence:
#
# PCOD9487866 Si02
#       7
#    16  16  16   8  16  16  16
#     4  10  21  34  48  67  88 115 153 198 242 282
#     4  10  21  36  52  70  95 126 162 202 245 290
#     4   9  18  33  51  70  93 120 148 182 232 293
#     4  11  23  35  47  63  85 117 154 191 236 291
#     4  10  20  35  54  74  97 123 154 194 242 296
#     4  10  20  31  46  72 103 136 172 208 246 287
#     4   8  14  26  44  66  95 134 175 209 242 280
#
# _framework density 16.124669000000001
#
# number of rings (size 3 to 8) (size 9 to 14) (size 15 to 20)
#    0.000    2.385    0.000    3.000    1.077    6.769 
#    0.000    1.538    0.000    0.000    0.000    0.000 
#    0.000    0.615    0.000    2.308    0.000    3.538 
#
# Total GULP energy -289927.686869 kJ/mol
# GULP energy per Si atom -5575.532440 kJ/mol
# Density = 1.608797 g / cm^3
# Si number density = 16.124669 Si / 1000 Ang^3
#
#
#
# Elastic Constant Matrix: (Units=GPa)
#
#
# Indices 1 2 3 4 5 6 
#
# 1 98.3773 36.4778 32.2663 0.0000 0.0000 0.0000
# 2 36.4778 48.1578 33.3513 0.0000 0.0000 0.0000
# 3 32.2663 33.3513 78.0725 0.0000 0.0000 0.0000
# 4 0.0000 0.0000 0.0000 24.0659 0.0000 0.0000
# 5 0.0000 0.0000 0.0000 0.0000 14.2783 0.0000
# 6 0.0000 0.0000 0.0000 0.0000 0.0000 2.1255
#
#
#
# Elastic Compliance Matrix: (Units=1/GPa)
#
#
# Indices 1 2 3 4 5 6 
#
# 1 0.014316 -0.009580 -0.001824 0.000000 0.000000 0.000000
# 2 -0.009580 0.035901 -0.011377 0.000000 0.000000 0.000000
# 3 -0.001824 -0.011377 0.018422 0.000000 0.000000 0.000000
# 4 0.000000 0.000000 0.000000 0.041553 0.000000 0.000000
# 5 0.000000 0.000000 0.000000 0.000000 0.070036 0.000000
# 6 0.000000 0.000000 0.000000 0.000000 0.000000 0.470468
#
#
# Mechanical properties :
#
#
# Convention : Reuss Voigt Hill
#
# Bulk Modulus (GPa) = 43.33392 47.64429 45.48911
# Shear Modulus (GPa) = 7.10278 16.26141 11.68210
#
# Velocity S-wave (km/s) = 2.10107 3.17910 2.69455
# Velocity P-wave (km/s) = 5.72875 6.56408 6.16059
#
# Compressibility (1/GPa) = 0.02307661
#
# Stress axis : x y z
#
# Youngs Moduli (GPa) = 69.85430 27.85454 54.28186
#
# Poissons Ratio (x) = 0.26686 0.09900
# Poissons Ratio (y) = 0.66923 0.61755
# Poissons Ratio (z) = 0.12740 0.31690
#
# Static dielectric constant tensor:
#      x y z
#    x 1.520460 0.000000 0.000000 
#    y 0.000000 1.543870 0.000000 
#    z 0.000000 0.000000 1.550840 
# 
# From -- ./inp_files/60873.got.cif
#   From: 2010.05.17/outbox.cif.g08.bks.cpg/sg65_31_cif.got.tgz:60873.got - 2010.06.03 17:01:31.
