data_PCOD9487613
_publ_section_title
;
Structure prediction by ZEFSAII (Michael W. Deem and Ramdas Pophale) SiO2 
 PCOD9487613
Probable space group: C M M M
;
_chemical_formula_sum "Si O2"
_cell_formula_units_Z 64
_cell_length_a 16.029578
_cell_length_b 15.668039
_cell_length_c 12.283037
_cell_angle_alpha 90.000000
_cell_angle_beta 90.000000
_cell_angle_gamma 90.000000
_cell_volume 3084.909963
_symmetry_space_group_name_H-M "C M M M"
_symmetry_group_IT_number 65
_symmetry_cell_setting 'orthorhombic'
loop_
_space_group_symop_operation_xyz
x,y,z
-x,-y,z
x,-y,-z
-x,y,-z
-x,-y,-z
x,y,-z
-x,y,z
x,-y,z
1/2+x,1/2+y,z
1/2-x,1/2-y,z
1/2+x,1/2-y,-z
1/2-x,1/2+y,-z
1/2-x,1/2-y,-z
1/2+x,1/2+y,-z
1/2-x,1/2+y,z
1/2+x,1/2-y,z
loop_
_atom_site_type_symbol
_atom_site_label
_atom_site_fract_x
_atom_site_fract_y
_atom_site_fract_z
Si Si1 0.095033 0.131068 0.500000
Si Si2 0.899564 0.092239 0.738076
Si Si3 0.599296 0.100004 0.291518
Si Si4 0.334107 0.807275 0.500000
Si Si5 0.849774 0.743576 0.875930
O O1 0.133474 0.102304 0.385659
O O2 0.096279 0.233199 0.500000
O O3 0.000000 0.099683 0.500000
O O4 0.877377 0.172734 0.810295
O O5 0.000000 0.091849 0.731230
O O6 0.871932 0.000000 0.781741
O O7 0.500000 0.108299 0.315452
O O8 0.651871 0.136284 0.393180
O O9 0.621025 0.160088 0.189441
O O10 0.616729 0.000000 0.272962
O O11 0.250000 0.750000 0.500000
O O12 0.750000 0.750000 0.878015
O O13 0.881048 0.743440 0.000000
#
# Coordination Sequence:
#
# PCOD9487613 Si02
#       5
#     8  16  16   8  16
#     4  10  19  35  61  91 127 164 197 243 304 371
#     4  10  21  38  63  94 126 162 205 255 313 377
#     4  11  24  43  68  96 128 170 218 266 317 378
#     4  12  23  39  63  96 133 167 204 251 315 383
#     4  11  25  44  63  89 126 167 214 269 326 382
#
# _framework density 20.746148000000002
#
# number of rings (size 3 to 8) (size 9 to 14) (size 15 to 20)
#    0.000    1.250    2.500    3.375    0.000    6.500 
#    0.000    6.250    0.000    0.000    0.000    0.000 
#    0.000    0.000    0.000    0.000    0.000    0.000 
#
# Total GULP energy -178834.537715 kJ/mol
# GULP energy per Si atom -5588.579304 kJ/mol
# Density = 2.069893 g / cm^3
# Si number density = 20.746148 Si / 1000 Ang^3
#
#
#
# Elastic Constant Matrix: (Units=GPa)
#
#
# Indices 1 2 3 4 5 6 
#
# 1 69.8610 41.7893 35.1230 0.0000 0.0000 0.0000
# 2 41.7893 220.8221 110.5334 0.0000 0.0000 0.0000
# 3 35.1230 110.5334 185.0403 0.0000 0.0000 0.0000
# 4 0.0000 0.0000 0.0000 -14.1109 0.0000 0.0000
# 5 0.0000 0.0000 0.0000 0.0000 26.0877 0.0000
# 6 0.0000 0.0000 0.0000 0.0000 0.0000 15.5406
#
#
#
# Elastic Compliance Matrix: (Units=1/GPa)
#
#
# Indices 1 2 3 4 5 6 
#
# 1 0.016557 -0.002226 -0.001813 0.000000 0.000000 0.000000
# 2 -0.002226 0.006759 -0.003615 0.000000 0.000000 0.000000
# 3 -0.001813 -0.003615 0.007908 0.000000 0.000000 0.000000
# 4 0.000000 0.000000 0.000000 -0.070867 0.000000 0.000000
# 5 0.000000 0.000000 0.000000 0.000000 0.038332 0.000000
# 6 0.000000 0.000000 0.000000 0.000000 0.000000 0.064347
#
#
# Mechanical properties :
#
#
# Convention : Reuss Voigt Hill
#
# Bulk Modulus (GPa) = 62.82949 94.51276 78.67112
# Shear Modulus (GPa) = 59.77259 24.72201 42.24730
#
# Velocity S-wave (km/s) = 5.37345 3.45576 4.51754
# Velocity P-wave (km/s) = 8.29755 7.84721 8.07552
#
# Compressibility (1/GPa) = 0.01591609
#
# Stress axis : x y z
#
# Youngs Moduli (GPa) = 60.39698 147.94333 126.45519
#
# Poissons Ratio (x) = 0.32928 0.22929
# Poissons Ratio (y) = 0.13443 0.45716
# Poissons Ratio (z) = 0.10951 0.53485
#
# Static dielectric constant tensor:
#      x y z
#    x 1.829200 0.000000 0.000000 
#    y 0.000000 1.727320 0.000000 
#    z 0.000000 0.000000 1.734100 
# 
# From -- ./inp_files/26117.got.cif
#   From: 2010.05.17/outbox.cif.g08.bks.cpg/sg65_14_cif.got.tgz:26117.got - 2010.06.03 17:01:31.
