data_PCOD9487836
_publ_section_title
;
Structure prediction by ZEFSAII (Michael W. Deem and Ramdas Pophale) SiO2 
 PCOD9487836
Probable space group: C M M M
;
_chemical_formula_sum "Si O2"
_cell_formula_units_Z 104
_cell_length_a 21.261479
_cell_length_b 33.130690
_cell_length_c 7.725500
_cell_angle_alpha 90.000000
_cell_angle_beta 90.000000
_cell_angle_gamma 90.000000
_cell_volume 5441.899907
_symmetry_space_group_name_H-M "C M M M"
_symmetry_group_IT_number 65
_symmetry_cell_setting 'orthorhombic'
loop_
_space_group_symop_operation_xyz
x,y,z
-x,-y,z
x,-y,-z
-x,y,-z
-x,-y,-z
x,y,-z
-x,y,z
x,-y,z
1/2+x,1/2+y,z
1/2-x,1/2-y,z
1/2+x,1/2-y,-z
1/2-x,1/2+y,-z
1/2-x,1/2-y,-z
1/2+x,1/2+y,-z
1/2-x,1/2+y,z
1/2+x,1/2-y,z
loop_
_atom_site_type_symbol
_atom_site_label
_atom_site_fract_x
_atom_site_fract_y
_atom_site_fract_z
Si Si1 0.429639 0.178611 0.211673
Si Si2 0.321374 0.334433 0.705541
Si Si3 0.570269 0.271594 0.207909
Si Si4 0.000000 0.046301 0.711527
Si Si5 0.762994 0.544240 0.205551
Si Si6 0.808701 0.631448 0.793873
Si Si7 0.132424 0.078945 0.289997
O O1 0.500000 0.165717 0.262897
O O2 0.421131 0.225257 0.265979
O O3 0.373081 0.150585 0.274314
O O4 0.428029 0.178560 0.000000
O O5 0.317450 0.336645 0.500000
O O6 0.369708 0.298707 0.746485
O O7 0.249340 0.337439 0.767945
O O8 0.351452 0.376177 0.771834
O O9 0.500000 0.285456 0.268956
O O10 0.567431 0.271118 0.000000
O O11 0.936022 0.066549 0.771197
O O12 0.000000 0.047877 0.500000
O O13 0.000000 0.000000 0.762508
O O14 0.782253 0.500000 0.275503
O O15 0.791850 0.586526 0.276089
O O16 0.688323 0.549868 0.231498
O O17 0.775633 0.543660 0.000000
O O18 0.815465 0.626741 0.000000
O O19 0.132537 0.078594 0.500000
#
# Coordination Sequence:
#
# PCOD9487836 Si02
#       7
#    16  16  16   8  16  16  16
#     4   8  15  30  52  74  91 115 156 197 228 269
#     4  10  20  31  45  67  96 125 156 194 233 277
#     4   9  18  32  49  68  91 121 160 199 232 272
#     4   9  16  26  41  59  77 103 145 191 227 257
#     4   9  17  29  45  66  92 118 145 181 227 277
#     4   9  17  31  51  70  92 122 155 191 231 276
#     4   9  18  30  44  61  83 116 154 190 224 266
#
# _framework density 19.110972
#
# number of rings (size 3 to 8) (size 9 to 14) (size 15 to 20)
#    0.000    3.000    0.000    1.846    1.077    2.462 
#    0.000    4.231    0.000    3.231    0.000    3.231 
#    0.000    0.000    0.000    7.692    0.000    8.000 
#
# Total GULP energy -289706.181606 kJ/mol
# GULP energy per Si atom -5571.272723 kJ/mol
# Density = 1.906747 g / cm^3
# Si number density = 19.110972 Si / 1000 Ang^3
#
#
#
# Elastic Constant Matrix: (Units=GPa)
#
#
# Indices 1 2 3 4 5 6 
#
# 1 167.4393 93.8020 1.7852 0.0000 0.0000 0.0000
# 2 93.8020 100.5402 4.0682 0.0000 0.0000 0.0000
# 3 1.7852 4.0682 28.5476 0.0000 0.0000 0.0000
# 4 0.0000 0.0000 0.0000 0.1148 0.0000 0.0000
# 5 0.0000 0.0000 0.0000 0.0000 44.2477 0.0000
# 6 0.0000 0.0000 0.0000 0.0000 0.0000 14.0362
#
#
#
# Elastic Compliance Matrix: (Units=1/GPa)
#
#
# Indices 1 2 3 4 5 6 
#
# 1 0.012534 -0.011730 0.000888 0.000000 0.000000 0.000000
# 2 -0.011730 0.020982 -0.002256 0.000000 0.000000 0.000000
# 3 0.000888 -0.002256 0.035295 0.000000 0.000000 0.000000
# 4 0.000000 0.000000 0.000000 8.707898 0.000000 0.000000
# 5 0.000000 0.000000 0.000000 0.000000 0.022600 0.000000
# 6 0.000000 0.000000 0.000000 0.000000 0.000000 0.071244
#
#
# Mechanical properties :
#
#
# Convention : Reuss Voigt Hill
#
# Bulk Modulus (GPa) = 23.46673 55.09310 39.27991
# Shear Modulus (GPa) = 0.56111 24.80452 12.68281
#
# Velocity S-wave (km/s) = 0.54244 3.60657 2.57892
# Velocity P-wave (km/s) = 3.56345 6.79954 5.42826
#
# Compressibility (1/GPa) = 0.04261352
#
# Stress axis : x y z
#
# Youngs Moduli (GPa) = 79.78157 47.66101 28.33238
#
# Poissons Ratio (x) = 0.55907 -0.02515
# Poissons Ratio (y) = 0.93585 0.06393
# Poissons Ratio (z) = -0.07083 0.10754
#
# Static dielectric constant tensor:
#      x y z
#    x 1.789770 0.000000 0.000000 
#    y 0.000000 1.684300 0.000000 
#    z 0.000000 0.000000 1.697690 
# 
# From -- ./inp_files/12811.got.cif
#   From: 2010.05.17/outbox.cif.g08.bks.cpg/sg65_7_cif.got.tgz:12811.got - 2010.06.03 17:01:31.
