data_PCOD9487801
_publ_section_title
;
Structure prediction by ZEFSAII (Michael W. Deem and Ramdas Pophale) SiO2 
 PCOD9487801
Probable space group: C M M M
;
_chemical_formula_sum "Si O2"
_cell_formula_units_Z 104
_cell_length_a 28.191042
_cell_length_b 9.133598
_cell_length_c 28.249391
_cell_angle_alpha 90.000000
_cell_angle_beta 90.000000
_cell_angle_gamma 90.000000
_cell_volume 7273.812658
_symmetry_space_group_name_H-M "C M M M"
_symmetry_group_IT_number 65
_symmetry_cell_setting 'orthorhombic'
loop_
_space_group_symop_operation_xyz
x,y,z
-x,-y,z
x,-y,-z
-x,y,-z
-x,-y,-z
x,y,-z
-x,y,z
x,-y,z
1/2+x,1/2+y,z
1/2-x,1/2-y,z
1/2+x,1/2-y,-z
1/2-x,1/2+y,-z
1/2-x,1/2-y,-z
1/2+x,1/2+y,-z
1/2-x,1/2+y,z
1/2+x,1/2-y,z
loop_
_atom_site_type_symbol
_atom_site_label
_atom_site_fract_x
_atom_site_fract_y
_atom_site_fract_z
Si Si1 0.137849 0.326319 0.866960
Si Si2 0.500000 0.174726 0.554682
Si Si3 0.300874 0.173870 0.772120
Si Si4 0.552843 0.671488 0.632414
Si Si5 0.055162 0.824966 0.812983
Si Si6 0.384543 0.675751 0.280799
Si Si7 0.199825 0.826969 0.056097
O O1 0.134388 0.500000 0.874444
O O2 0.174024 0.300437 0.823021
O O3 0.087923 0.259531 0.850286
O O4 0.159493 0.246423 0.912300
O O5 0.500000 0.219933 0.500000
O O6 0.455377 0.239080 0.584239
O O7 0.500000 0.000000 0.557255
O O8 0.250000 0.250000 0.770817
O O9 0.336631 0.242781 0.733714
O O10 0.296410 0.000000 0.765510
O O11 0.500000 0.680965 0.655849
O O12 0.560554 0.500000 0.621720
O O13 0.592145 0.721218 0.669472
O O14 0.077690 0.795412 0.761268
O O15 0.000000 0.784340 0.814804
O O16 0.059058 0.000000 0.820883
O O17 0.376919 0.500000 0.282002
O O18 0.250000 0.750000 0.067230
O O19 0.203185 0.000000 0.065991
O O20 0.191142 0.807679 0.000000
#
# Coordination Sequence:
#
# PCOD9487801 Si02
#       7
#    16   8  16  16  16  16  16
#     4  10  20  32  47  67  91 118 147 179 217 261
#     4   9  17  27  39  59  89 123 155 187 224 261
#     4  10  20  31  43  62  88 118 150 181 216 258
#     4   8  15  26  42  62  85 115 149 183 218 259
#     4   9  17  29  47  67  89 118 150 182 216 258
#     4   9  16  28  45  64  87 115 149 184 220 261
#     4  10  20  33  50  71  92 113 140 176 219 267
#
# _framework density 14.297867
#
# number of rings (size 3 to 8) (size 9 to 14) (size 15 to 20)
#    0.462    2.231    0.000    2.308    0.000    7.385 
#    0.000    0.000    0.000    0.462    0.000    3.231 
#    0.000    0.615    0.000    2.000    0.000    2.923 
#
# Total GULP energy -289601.453454 kJ/mol
# GULP energy per Si atom -5569.258720 kJ/mol
# Density = 1.426532 g / cm^3
# Si number density = 14.297867 Si / 1000 Ang^3
#
#
#
# Elastic Constant Matrix: (Units=GPa)
#
#
# Indices 1 2 3 4 5 6 
#
# 1 113.3247 55.6976 47.1897 0.0000 0.0000 0.0000
# 2 55.6976 58.6734 48.8628 0.0000 0.0000 0.0000
# 3 47.1897 48.8628 69.4869 0.0000 0.0000 0.0000
# 4 0.0000 0.0000 0.0000 20.9729 0.0000 0.0000
# 5 0.0000 0.0000 0.0000 0.0000 19.8139 0.0000
# 6 0.0000 0.0000 0.0000 0.0000 0.0000 24.1769
#
#
#
# Elastic Compliance Matrix: (Units=1/GPa)
#
#
# Indices 1 2 3 4 5 6 
#
# 1 0.016548 -0.015324 -0.000463 0.000000 0.000000 0.000000
# 2 -0.015324 0.055319 -0.028494 0.000000 0.000000 0.000000
# 3 -0.000463 -0.028494 0.034742 0.000000 0.000000 0.000000
# 4 0.000000 0.000000 0.000000 0.047681 0.000000 0.000000
# 5 0.000000 0.000000 0.000000 0.000000 0.050470 0.000000
# 6 0.000000 0.000000 0.000000 0.000000 0.000000 0.041362
#
#
# Mechanical properties :
#
#
# Convention : Reuss Voigt Hill
#
# Bulk Modulus (GPa) = 55.40309 60.55393 57.97851
# Shear Modulus (GPa) = 14.67573 18.97505 16.82539
#
# Velocity S-wave (km/s) = 3.20727 3.64692 3.43414
# Velocity P-wave (km/s) = 7.24905 7.75739 7.50752
#
# Compressibility (1/GPa) = 0.01804954
#
# Stress axis : x y z
#
# Youngs Moduli (GPa) = 60.42939 18.07684 28.78348
#
# Poissons Ratio (x) = 0.27700 0.01332
# Poissons Ratio (y) = 0.92600 0.82015
# Poissons Ratio (z) = 0.02796 0.51508
#
# Static dielectric constant tensor:
#      x y z
#    x 1.452450 0.000000 0.000000 
#    y 0.000000 1.474230 0.000000 
#    z 0.000000 0.000000 1.459290 
# 
# From -- ./inp_files/78460.got.cif
#   From: 2010.05.17/outbox.cif.g08.bks.cpg/sg65_40_cif.got.tgz:78460.got - 2010.06.03 17:01:31.
