data_PCOD9487983
_publ_section_title
;
Structure prediction by ZEFSAII (Michael W. Deem and Ramdas Pophale) SiO2 
 PCOD9487983
Probable space group: C M M M
;
_chemical_formula_sum "Si O2"
_cell_formula_units_Z 88
_cell_length_a 28.436169
_cell_length_b 7.756552
_cell_length_c 22.046889
_cell_angle_alpha 90.000000
_cell_angle_beta 90.000000
_cell_angle_gamma 90.000000
_cell_volume 4862.807866
_symmetry_space_group_name_H-M "C M M M"
_symmetry_group_IT_number 65
_symmetry_cell_setting 'orthorhombic'
loop_
_space_group_symop_operation_xyz
x,y,z
-x,-y,z
x,-y,-z
-x,y,-z
-x,-y,-z
x,y,-z
-x,y,z
x,-y,z
1/2+x,1/2+y,z
1/2-x,1/2-y,z
1/2+x,1/2-y,-z
1/2-x,1/2+y,-z
1/2-x,1/2-y,-z
1/2+x,1/2+y,-z
1/2-x,1/2+y,z
1/2+x,1/2-y,z
loop_
_atom_site_type_symbol
_atom_site_label
_atom_site_fract_x
_atom_site_fract_y
_atom_site_fract_z
Si Si1 0.552546 0.710520 0.251830
Si Si2 0.804382 0.704655 0.932923
Si Si3 0.303615 0.292950 0.311245
Si Si4 0.396889 0.289852 0.375906
Si Si5 0.353956 0.705999 0.809550
Si Si6 0.554692 0.288687 0.500000
O O1 0.500000 0.771924 0.239137
O O2 0.551530 0.500000 0.250258
O O3 0.569826 0.758132 0.319346
O O4 0.593643 0.769145 0.206410
O O5 0.807516 0.500000 0.936242
O O6 0.750000 0.750000 0.920873
O O7 0.835794 0.758891 0.876479
O O8 0.816584 0.776187 0.000000
O O9 0.306565 0.500000 0.310409
O O10 0.250000 0.250000 0.325459
O O11 0.344113 0.232872 0.357912
O O12 0.319163 0.229518 0.243992
O O13 0.396327 0.500000 0.377703
O O14 0.418200 0.231210 0.439456
O O15 0.355169 0.500000 0.802796
O O16 0.554729 0.500000 0.500000
O O17 0.500000 0.236029 0.500000
#
# Coordination Sequence:
#
# PCOD9487983 Si02
#       6
#    16  16  16  16  16   8
#     4   8  13  23  40  61  85 111 140 177 218 255
#     4  10  20  32  46  65  89 115 141 171 210 254
#     4   9  17  28  41  59  85 114 142 174 211 249
#     4   8  14  23  35  56  85 112 139 174 215 255
#     4   9  17  28  44  66  88 112 143 177 213 252
#     4   9  14  20  35  58  83 111 139 169 212 261
#
# _framework density 18.096540999999998
#
# number of rings (size 3 to 8) (size 9 to 14) (size 15 to 20)
#    0.000    3.182    0.000    3.818    0.000    5.455 
#    0.000    0.455    0.000    1.091    0.000    3.818 
#    0.000    2.909    0.000    0.000    0.000    0.364 
#
# Total GULP energy -245160.734083 kJ/mol
# GULP energy per Si atom -5571.834866 kJ/mol
# Density = 1.805535 g / cm^3
# Si number density = 18.096541 Si / 1000 Ang^3
#
#
#
# Elastic Constant Matrix: (Units=GPa)
#
#
# Indices 1 2 3 4 5 6 
#
# 1 175.6330 6.8428 110.4012 0.0000 0.0000 0.0000
# 2 6.8428 22.7882 5.0956 0.0000 0.0000 0.0000
# 3 110.4012 5.0956 165.0072 0.0000 0.0000 0.0000
# 4 0.0000 0.0000 0.0000 -16.5638 0.0000 0.0000
# 5 0.0000 0.0000 0.0000 0.0000 21.9175 0.0000
# 6 0.0000 0.0000 0.0000 0.0000 0.0000 12.8799
#
#
#
# Elastic Compliance Matrix: (Units=1/GPa)
#
#
# Indices 1 2 3 4 5 6 
#
# 1 0.009877 -0.001499 -0.006562 0.000000 0.000000 0.000000
# 2 -0.001499 0.044415 -0.000369 0.000000 0.000000 0.000000
# 3 -0.006562 -0.000369 0.010462 0.000000 0.000000 0.000000
# 4 0.000000 0.000000 0.000000 -0.060372 0.000000 0.000000
# 5 0.000000 0.000000 0.000000 0.000000 0.045626 0.000000
# 6 0.000000 0.000000 0.000000 0.000000 0.000000 0.077640
#
#
# Mechanical properties :
#
#
# Convention : Reuss Voigt Hill
#
# Bulk Modulus (GPa) = 20.87904 67.56749 44.22327
# Shear Modulus (GPa) = 31.15815 19.71930 25.43872
#
# Velocity S-wave (km/s) = 4.15393 3.30460 3.75336
# Velocity P-wave (km/s) = 5.87958 7.20963 6.57831
#
# Compressibility (1/GPa) = 0.04789492
#
# Stress axis : x y z
#
# Youngs Moduli (GPa) = 101.24601 22.51499 95.58205
#
# Poissons Ratio (x) = 0.03374 0.62722
# Poissons Ratio (y) = 0.15172 0.03527
# Poissons Ratio (z) = 0.66438 0.00831
#
# Static dielectric constant tensor:
#      x y z
#    x 1.612090 0.000000 0.000000 
#    y 0.000000 1.696960 0.000000 
#    z 0.000000 0.000000 1.631290 
# 
# From -- ./inp_files/66233.got.cif
#   From: 2010.05.17/outbox.cif.g08.bks.cpg/sg65_34_cif.got.tgz:66233.got - 2010.06.03 17:01:31.
