data_PCOD9487482
_publ_section_title
;
Structure prediction by ZEFSAII (Michael W. Deem and Ramdas Pophale) SiO2 
 PCOD9487482
Probable space group: C M M M
;
_chemical_formula_sum "Si O2"
_cell_formula_units_Z 72
_cell_length_a 27.143226
_cell_length_b 7.668632
_cell_length_c 21.585252
_cell_angle_alpha 90.000000
_cell_angle_beta 90.000000
_cell_angle_gamma 90.000000
_cell_volume 4493.000671
_symmetry_space_group_name_H-M "C M M M"
_symmetry_group_IT_number 65
_symmetry_cell_setting 'orthorhombic'
loop_
_space_group_symop_operation_xyz
x,y,z
-x,-y,z
x,-y,-z
-x,y,-z
-x,-y,-z
x,y,-z
-x,y,z
x,-y,z
1/2+x,1/2+y,z
1/2-x,1/2-y,z
1/2+x,1/2-y,-z
1/2-x,1/2+y,-z
1/2-x,1/2-y,-z
1/2+x,1/2+y,-z
1/2-x,1/2+y,z
1/2+x,1/2-y,z
loop_
_atom_site_type_symbol
_atom_site_label
_atom_site_fract_x
_atom_site_fract_y
_atom_site_fract_z
Si Si1 0.056236 0.207836 0.134052
Si Si2 0.555798 0.000000 0.353525
Si Si3 0.555854 0.793756 0.000000
Si Si4 0.694890 0.703288 0.661065
Si Si5 0.655147 0.000000 0.426775
Si Si6 0.097054 0.207478 0.734891
O O1 0.085923 0.263592 0.194722
O O2 0.000000 0.279520 0.136142
O O3 0.052698 0.000000 0.138440
O O4 0.078250 0.245244 0.066271
O O5 0.565704 0.830051 0.310692
O O6 0.500000 0.000000 0.376410
O O7 0.597928 0.000000 0.405797
O O8 0.500000 0.716155 0.000000
O O9 0.551899 0.000000 0.000000
O O10 0.692961 0.500000 0.643002
O O11 0.750000 0.750000 0.681495
O O12 0.679977 0.831304 0.605178
O O13 0.653651 0.731178 0.713928
O O14 0.660667 0.000000 0.500000
O O15 0.085482 0.000000 0.728101
#
# Coordination Sequence:
#
# PCOD9487482 Si02
#       6
#    16   8   8  16   8  16
#     4   9  16  27  42  61  88 124 160 193 233 281
#     4  10  20  33  52  73  98 132 163 200 239 277
#     4   9  17  25  35  57  90 123 156 195 234 276
#     4  10  19  35  54  75 101 126 155 200 249 292
#     4  10  22  37  52  76 103 129 163 194 234 295
#     4   9  19  32  49  72  98 126 164 204 242 289
#
# _framework density 16.024925
#
# number of rings (size 3 to 8) (size 9 to 14) (size 15 to 20)
#    0.000    2.556    1.111    1.000    1.556    3.778 
#    0.000    0.000    0.000    0.000    0.000    7.000 
#    0.000    0.000    0.000    0.000    0.000    0.000 
#
# Total GULP energy -200500.096661 kJ/mol
# GULP energy per Si atom -5569.447129 kJ/mol
# Density = 1.598845 g / cm^3
# Si number density = 16.024925 Si / 1000 Ang^3
#
#
#
# Elastic Constant Matrix: (Units=GPa)
#
#
# Indices 1 2 3 4 5 6 
#
# 1 80.8520 27.6577 30.5110 0.0000 0.0000 0.0000
# 2 27.6577 70.2442 32.3553 0.0000 0.0000 0.0000
# 3 30.5110 32.3553 116.5277 0.0000 0.0000 0.0000
# 4 0.0000 0.0000 0.0000 18.0135 0.0000 0.0000
# 5 0.0000 0.0000 0.0000 0.0000 5.7583 0.0000
# 6 0.0000 0.0000 0.0000 0.0000 0.0000 13.4758
#
#
#
# Elastic Compliance Matrix: (Units=1/GPa)
#
#
# Indices 1 2 3 4 5 6 
#
# 1 0.014958 -0.004685 -0.002616 0.000000 0.000000 0.000000
# 2 -0.004685 0.017791 -0.003713 0.000000 0.000000 0.000000
# 3 -0.002616 -0.003713 0.010298 0.000000 0.000000 0.000000
# 4 0.000000 0.000000 0.000000 0.055514 0.000000 0.000000
# 5 0.000000 0.000000 0.000000 0.000000 0.173661 0.000000
# 6 0.000000 0.000000 0.000000 0.000000 0.000000 0.074207
#
#
# Mechanical properties :
#
#
# Convention : Reuss Voigt Hill
#
# Bulk Modulus (GPa) = 47.57573 49.85243 48.71408
# Shear Modulus (GPa) = 13.31692 19.25619 16.28656
#
# Velocity S-wave (km/s) = 2.88586 3.47023 3.19145
# Velocity P-wave (km/s) = 6.39197 6.87266 6.63667
#
# Compressibility (1/GPa) = 0.02101912
#
# Stress axis : x y z
#
# Youngs Moduli (GPa) = 66.85434 56.20838 97.11016
#
# Poissons Ratio (x) = 0.26331 0.25402
# Poissons Ratio (y) = 0.31319 0.36060
# Poissons Ratio (z) = 0.17487 0.20872
#
# Static dielectric constant tensor:
#      x y z
#    x 1.530260 0.000000 0.000000 
#    y 0.000000 1.561810 0.000000 
#    z 0.000000 0.000000 1.537110 
# 
# From -- ./inp_files/59571.got.cif
#   From: 2010.05.17/outbox.cif.g08.bks.cpg/sg65_30_cif.got.tgz:59571.got - 2010.06.03 17:01:31.
