data_PCOD9487446
_publ_section_title
;
Structure prediction by ZEFSAII (Michael W. Deem and Ramdas Pophale) SiO2 
 PCOD9487446
Probable space group: C M M M
;
_chemical_formula_sum "Si O2"
_cell_formula_units_Z 120
_cell_length_a 15.032332
_cell_length_b 22.539734
_cell_length_c 19.003951
_cell_angle_alpha 90.000000
_cell_angle_beta 90.000000
_cell_angle_gamma 90.000000
_cell_volume 6439.009226
_symmetry_space_group_name_H-M "C M M M"
_symmetry_group_IT_number 65
_symmetry_cell_setting 'orthorhombic'
loop_
_space_group_symop_operation_xyz
x,y,z
-x,-y,z
x,-y,-z
-x,y,-z
-x,-y,-z
x,y,-z
-x,y,z
x,-y,z
1/2+x,1/2+y,z
1/2-x,1/2-y,z
1/2+x,1/2-y,-z
1/2-x,1/2+y,-z
1/2-x,1/2-y,-z
1/2+x,1/2+y,-z
1/2-x,1/2+y,z
1/2+x,1/2-y,z
loop_
_atom_site_type_symbol
_atom_site_label
_atom_site_fract_x
_atom_site_fract_y
_atom_site_fract_z
Si Si1 0.104511 0.713252 0.582422
Si Si2 0.101415 0.843235 0.645266
Si Si3 0.396984 0.106298 0.081268
Si Si4 0.643150 0.245101 0.920118
Si Si5 0.788654 0.608817 0.350671
Si Si6 0.901935 0.846183 0.188154
Si Si7 0.741049 0.068244 0.805749
Si Si8 0.896658 0.500000 0.584143
O O1 0.125685 0.705343 0.500000
O O2 0.114587 0.781781 0.603992
O O3 0.165990 0.670839 0.628595
O O4 0.000000 0.697849 0.592588
O O5 0.183828 0.886709 0.629539
O O6 0.107051 0.830172 0.729153
O O7 0.000000 0.864613 0.631184
O O8 0.500000 0.091013 0.091407
O O9 0.384825 0.177188 0.091960
O O10 0.334065 0.073541 0.135497
O O11 0.372919 0.093985 0.000000
O O12 0.750000 0.250000 0.917336
O O13 0.606671 0.289142 0.861405
O O14 0.615186 0.261303 0.000000
O O15 0.792617 0.595696 0.267692
O O16 0.843512 0.557441 0.389147
O O17 0.825192 0.892780 0.170962
O O18 0.000000 0.872484 0.178879
O O19 0.765599 0.000000 0.793361
O O20 0.897973 0.500000 0.500000
O O21 0.000000 0.500000 0.608618
#
# Coordination Sequence:
#
# PCOD9487446 Si02
#       8
#    16  16  16  16  16  16  16   8
#     4  10  21  37  59  89 121 151 185 231 291 354
#     4   9  21  38  58  87 119 152 191 235 286 350
#     4  10  22  39  59  85 117 153 189 230 286 346
#     4  10  19  34  59  89 120 152 185 232 291 350
#     4  11  22  39  60  84 116 156 195 236 292 343
#     4  10  21  37  60  86 115 151 192 240 291 342
#     4  11  24  41  58  82 114 152 200 246 285 333
#     4  11  24  42  63  87 116 150 195 246 289 339
#
# _framework density 18.636407999999999
#
# number of rings (size 3 to 8) (size 9 to 14) (size 15 to 20)
#    0.000    1.800    2.000    1.600    1.867    5.333 
#    0.000    1.000    0.000    0.400    0.000    1.867 
#    0.000    0.000    0.000    0.000    0.000    0.000 
#
# Total GULP energy -335050.085986 kJ/mol
# GULP energy per Si atom -5584.168100 kJ/mol
# Density = 1.859399 g / cm^3
# Si number density = 18.636408 Si / 1000 Ang^3
#
#
#
# Elastic Constant Matrix: (Units=GPa)
#
#
# Indices 1 2 3 4 5 6 
#
# 1 108.6275 37.8502 44.0826 0.0000 0.0000 0.0000
# 2 37.8502 44.7447 26.0716 0.0000 0.0000 0.0000
# 3 44.0826 26.0716 48.3903 0.0000 0.0000 0.0000
# 4 0.0000 0.0000 0.0000 26.1105 0.0000 0.0000
# 5 0.0000 0.0000 0.0000 0.0000 22.9060 0.0000
# 6 0.0000 0.0000 0.0000 0.0000 0.0000 2.0215
#
#
#
# Elastic Compliance Matrix: (Units=1/GPa)
#
#
# Indices 1 2 3 4 5 6 
#
# 1 0.016131 -0.007409 -0.010703 0.000000 0.000000 0.000000
# 2 -0.007409 0.035978 -0.012635 0.000000 0.000000 0.000000
# 3 -0.010703 -0.012635 0.037223 0.000000 0.000000 0.000000
# 4 0.000000 0.000000 0.000000 0.038299 0.000000 0.000000
# 5 0.000000 0.000000 0.000000 0.000000 0.043657 0.000000
# 6 0.000000 0.000000 0.000000 0.000000 0.000000 0.494685
#
#
# Mechanical properties :
#
#
# Convention : Reuss Voigt Hill
#
# Bulk Modulus (GPa) = 35.92176 46.41904 41.17040
# Shear Modulus (GPa) = 6.78660 16.45815 11.62238
#
# Velocity S-wave (km/s) = 1.91036 2.97495 2.49998
# Velocity P-wave (km/s) = 4.91761 6.06319 5.52020
#
# Compressibility (1/GPa) = 0.02783828
#
# Stress axis : x y z
#
# Youngs Moduli (GPa) = 61.99333 27.79448 26.86504
#
# Poissons Ratio (x) = 0.20592 0.28754
# Poissons Ratio (y) = 0.45930 0.33944
# Poissons Ratio (z) = 0.66352 0.35119
#
# Static dielectric constant tensor:
#      x y z
#    x 1.662680 0.000000 0.000000 
#    y 0.000000 1.615400 0.000000 
#    z 0.000000 0.000000 1.627680 
# 
# From -- ./inp_files/63036.got.cif
#   From: 2010.05.17/outbox.cif.g08.bks.cpg/sg65_32_cif.got.tgz:63036.got - 2010.06.03 17:01:31.
