data_PCOD9487039
_publ_section_title
;
Structure prediction by ZEFSAII (Michael W. Deem and Ramdas Pophale) SiO2 
 PCOD9487039
Probable space group: C M M M
;
_chemical_formula_sum "Si O2"
_cell_formula_units_Z 64
_cell_length_a 15.188887
_cell_length_b 9.012258
_cell_length_c 22.672452
_cell_angle_alpha 90.000000
_cell_angle_beta 90.000000
_cell_angle_gamma 90.000000
_cell_volume 3103.545082
_symmetry_space_group_name_H-M "C M M M"
_symmetry_group_IT_number 65
_symmetry_cell_setting 'orthorhombic'
loop_
_space_group_symop_operation_xyz
x,y,z
-x,-y,z
x,-y,-z
-x,y,-z
-x,-y,-z
x,y,-z
-x,y,z
x,-y,z
1/2+x,1/2+y,z
1/2-x,1/2-y,z
1/2+x,1/2-y,-z
1/2-x,1/2+y,-z
1/2-x,1/2-y,-z
1/2+x,1/2+y,-z
1/2-x,1/2+y,z
1/2+x,1/2-y,z
loop_
_atom_site_type_symbol
_atom_site_label
_atom_site_fract_x
_atom_site_fract_y
_atom_site_fract_z
Si Si1 0.892318 0.829501 0.120381
Si Si2 0.107788 0.670858 0.000000
Si Si3 0.158862 0.823177 0.638883
Si Si4 0.000000 0.326370 0.570501
Si Si5 0.606874 0.170676 0.240668
O O1 0.864104 0.754304 0.059339
O O2 0.865387 0.736324 0.177661
O O3 0.000000 0.829861 0.120113
O O4 0.863460 0.000000 0.124283
O O5 0.136140 0.500000 0.000000
O O6 0.000000 0.671131 0.000000
O O7 0.250000 0.750000 0.620190
O O8 0.083401 0.754996 0.598237
O O9 0.140187 0.770438 0.705782
O O10 0.160811 0.000000 0.635617
O O11 0.000000 0.500000 0.588253
O O12 0.000000 0.318088 0.500000
O O13 0.500000 0.172328 0.242428
O O14 0.635670 0.000000 0.247967
#
# Coordination Sequence:
#
# PCOD9487039 Si02
#       5
#    16   8  16   8  16
#     4   9  16  25  40  65 100 143 194 248 308 371
#     4   9  15  23  35  57  94 139 190 246 309 370
#     4  12  25  42  67  97 132 171 215 262 314 373
#     4  11  25  47  73 101 135 172 211 258 311 369
#     4  10  19  33  55  82 117 157 203 256 314 374
#
# _framework density 20.621580000000002
#
# number of rings (size 3 to 8) (size 9 to 14) (size 15 to 20)
#    0.000    1.750    1.250    4.500    0.000    7.000 
#    0.000    0.000    0.000    0.000    0.000    0.875 
#    0.000    0.000    0.000    0.000    0.000    0.000 
#
# Total GULP energy -179051.435098 kJ/mol
# GULP energy per Si atom -5595.357347 kJ/mol
# Density = 2.057464 g / cm^3
# Si number density = 20.621580 Si / 1000 Ang^3
#
#
#
# Elastic Constant Matrix: (Units=GPa)
#
#
# Indices 1 2 3 4 5 6 
#
# 1 90.3402 64.1558 49.4864 0.0000 0.0000 0.0000
# 2 64.1558 231.7837 82.7576 0.0000 0.0000 0.0000
# 3 49.4864 82.7576 114.6583 0.0000 0.0000 0.0000
# 4 0.0000 0.0000 0.0000 16.8428 0.0000 0.0000
# 5 0.0000 0.0000 0.0000 0.0000 -48.8915 0.0000
# 6 0.0000 0.0000 0.0000 0.0000 0.0000 19.9533
#
#
#
# Elastic Compliance Matrix: (Units=1/GPa)
#
#
# Indices 1 2 3 4 5 6 
#
# 1 0.015557 -0.002571 -0.004858 0.000000 0.000000 0.000000
# 2 -0.002571 0.006237 -0.003392 0.000000 0.000000 0.000000
# 3 -0.004858 -0.003392 0.013267 0.000000 0.000000 0.000000
# 4 0.000000 0.000000 0.000000 0.059372 0.000000 0.000000
# 5 0.000000 0.000000 0.000000 0.000000 -0.020453 0.000000
# 6 0.000000 0.000000 0.000000 0.000000 0.000000 0.050117
#
#
# Mechanical properties :
#
#
# Convention : Reuss Voigt Hill
#
# Bulk Modulus (GPa) = 74.53159 92.17575 83.35367
# Shear Modulus (GPa) = 33.28621 13.60642 23.44632
#
# Velocity S-wave (km/s) = 4.02200 2.57147 3.37557
# Velocity P-wave (km/s) = 7.60195 7.32205 7.46331
#
# Compressibility (1/GPa) = 0.01341713
#
# Stress axis : x y z
#
# Youngs Moduli (GPa) = 64.28163 160.32780 75.37639
#
# Poissons Ratio (x) = 0.41225 0.36620
# Poissons Ratio (y) = 0.16529 0.25569
# Poissons Ratio (z) = 0.31230 0.54385
#
# Static dielectric constant tensor:
#      x y z
#    x 1.765740 0.000000 0.000000 
#    y 0.000000 1.685820 0.000000 
#    z 0.000000 0.000000 1.692110 
# 
# From -- ./inp_files/69556.got.cif
#   From: 2010.05.17/outbox.cif.g08.bks.cpg/sg65_35_cif.got.tgz:69556.got - 2010.06.03 17:01:31.
