data_PCOD9487694
_publ_section_title
;
Structure prediction by ZEFSAII (Michael W. Deem and Ramdas Pophale) SiO2 
 PCOD9487694
Probable space group: C M M M
;
_chemical_formula_sum "Si O2"
_cell_formula_units_Z 42
_cell_length_a 7.588267
_cell_length_b 14.630316
_cell_length_c 17.653351
_cell_angle_alpha 90.000000
_cell_angle_beta 90.000000
_cell_angle_gamma 90.000000
_cell_volume 1959.852857
_symmetry_space_group_name_H-M "C M M M"
_symmetry_group_IT_number 65
_symmetry_cell_setting 'orthorhombic'
loop_
_space_group_symop_operation_xyz
x,y,z
-x,-y,z
x,-y,-z
-x,y,-z
-x,-y,-z
x,y,-z
-x,y,z
x,-y,z
1/2+x,1/2+y,z
1/2-x,1/2-y,z
1/2+x,1/2-y,-z
1/2-x,1/2+y,-z
1/2-x,1/2-y,-z
1/2+x,1/2+y,-z
1/2-x,1/2+y,z
1/2+x,1/2-y,z
loop_
_atom_site_type_symbol
_atom_site_label
_atom_site_fract_x
_atom_site_fract_y
_atom_site_fract_z
Si Si1 0.211566 0.641300 0.581411
Si Si2 0.500000 0.000000 0.000000
Si Si3 0.710766 0.142328 0.253108
Si Si4 0.193659 0.000000 0.872375
O O1 0.278437 0.606157 0.500000
O O2 0.250000 0.750000 0.581250
O O3 0.275897 0.609710 0.663668
O O4 0.000000 0.628039 0.581294
O O5 0.653739 0.000000 0.933756
O O6 0.500000 0.129436 0.251650
O O7 0.750000 0.250000 0.246621
O O8 0.787976 0.086399 0.183850
O O9 0.000000 0.000000 0.906990
#
# Coordination Sequence:
#
# PCOD9487694 Si02
#       4
#    16   2  16   8
#     4   8  14  25  46  79 120 166 210 252 298 345
#     4  12  26  52  72  94 126 154 198 268 328 398
#     4  10  19  36  62  93 130 170 214 260 306 371
#     4  12  25  45  72  95 126 162 204 254 325 387
#
# _framework density 21.430178999999999
#
# number of rings (size 3 to 8) (size 9 to 14) (size 15 to 20)
#    0.000    2.286    1.905    1.429    0.000    1.524 
#    0.000    1.905    0.000    5.714    0.000    0.000 
#    0.000    0.000    0.000    0.000    0.000    0.000 
#
# Total GULP energy -116938.714234 kJ/mol
# GULP energy per Si atom -5568.510202 kJ/mol
# Density = 2.138140 g / cm^3
# Si number density = 21.430179 Si / 1000 Ang^3
#
#
#
# Elastic Constant Matrix: (Units=GPa)
#
#
# Indices 1 2 3 4 5 6 
#
# 1 135.2529 7.3852 64.0810 0.0000 0.0000 0.0000
# 2 7.3852 92.4621 50.3041 0.0000 0.0000 0.0000
# 3 64.0810 50.3041 219.6583 0.0000 0.0000 0.0000
# 4 0.0000 0.0000 0.0000 -7.1912 0.0000 0.0000
# 5 0.0000 0.0000 0.0000 0.0000 8.6590 0.0000
# 6 0.0000 0.0000 0.0000 0.0000 0.0000 11.6151
#
#
#
# Elastic Compliance Matrix: (Units=1/GPa)
#
#
# Indices 1 2 3 4 5 6 
#
# 1 0.008628 0.000777 -0.002695 0.000000 0.000000 0.000000
# 2 0.000777 0.012425 -0.003072 0.000000 0.000000 0.000000
# 3 -0.002695 -0.003072 0.006042 0.000000 0.000000 0.000000
# 4 0.000000 0.000000 0.000000 -0.139058 0.000000 0.000000
# 5 0.000000 0.000000 0.000000 0.000000 0.115487 0.000000
# 6 0.000000 0.000000 0.000000 0.000000 0.000000 0.086095
#
#
# Mechanical properties :
#
#
# Convention : Reuss Voigt Hill
#
# Bulk Modulus (GPa) = 58.42886 76.76822 67.59854
# Shear Modulus (GPa) = 47.48175 24.32343 35.90259
#
# Velocity S-wave (km/s) = 4.71217 3.37264 4.09752
# Velocity P-wave (km/s) = 7.54520 7.14609 7.34835
#
# Compressibility (1/GPa) = 0.01711483
#
# Stress axis : x y z
#
# Youngs Moduli (GPa) = 115.90196 80.48600 165.50072
#
# Poissons Ratio (x) = -0.06254 0.44602
# Poissons Ratio (y) = -0.09006 0.50843
# Poissons Ratio (z) = 0.31236 0.24726
#
# Static dielectric constant tensor:
#      x y z
#    x 1.779180 0.000000 0.000000 
#    y 0.000000 1.777140 0.000000 
#    z 0.000000 0.000000 1.773270 
# 
# From -- ./inp_files/34769.got.cif
#   From: 2010.05.17/outbox.cif.g08.bks.cpg/sg65_18_cif.got.tgz:34769.got - 2010.06.03 17:01:31.
