data_PCOD9487036
_publ_section_title
;
Structure prediction by ZEFSAII (Michael W. Deem and Ramdas Pophale) SiO2 
 PCOD9487036
Probable space group: C M M M
;
_chemical_formula_sum "Si O2"
_cell_formula_units_Z 72
_cell_length_a 15.194745
_cell_length_b 27.513033
_cell_length_c 8.599043
_cell_angle_alpha 90.000000
_cell_angle_beta 90.000000
_cell_angle_gamma 90.000000
_cell_volume 3594.860200
_symmetry_space_group_name_H-M "C M M M"
_symmetry_group_IT_number 65
_symmetry_cell_setting 'orthorhombic'
loop_
_space_group_symop_operation_xyz
x,y,z
-x,-y,z
x,-y,-z
-x,y,-z
-x,-y,-z
x,y,-z
-x,y,z
x,-y,z
1/2+x,1/2+y,z
1/2-x,1/2-y,z
1/2+x,1/2-y,-z
1/2-x,1/2+y,-z
1/2-x,1/2-y,-z
1/2+x,1/2+y,-z
1/2-x,1/2+y,z
1/2+x,1/2-y,z
loop_
_atom_site_type_symbol
_atom_site_label
_atom_site_fract_x
_atom_site_fract_y
_atom_site_fract_z
Si Si1 0.780281 0.586556 0.683401
Si Si2 0.598647 0.373300 0.312651
Si Si3 0.398436 0.000000 0.814589
Si Si4 0.403194 0.836208 0.815779
Si Si5 0.153893 0.769256 0.814764
O O1 0.777785 0.576686 0.500000
O O2 0.679880 0.592937 0.741877
O O3 0.841664 0.546352 0.761658
O O4 0.828947 0.637384 0.717792
O O5 0.598330 0.376154 0.500000
O O6 0.500000 0.385476 0.256529
O O7 0.621219 0.317850 0.266526
O O8 0.500000 0.000000 0.755028
O O9 0.403515 0.000000 0.000000
O O10 0.500000 0.856780 0.782016
O O11 0.404074 0.778601 0.789415
O O12 0.384708 0.843494 0.000000
O O13 0.250000 0.750000 0.766424
O O14 0.157247 0.779442 0.000000
#
# Coordination Sequence:
#
# PCOD9487036 Si02
#       5
#    16  16   8  16  16
#     4  11  23  39  61  87 115 147 189 238 287 342
#     4  10  22  39  58  83 118 159 199 239 286 338
#     4  11  25  45  68  91 116 146 179 225 290 355
#     4  10  20  34  53  80 116 155 193 235 286 341
#     4  10  19  33  55  82 115 156 201 244 284 331
#
# _framework density 20.028597000000001
#
# number of rings (size 3 to 8) (size 9 to 14) (size 15 to 20)
#    0.000    1.667    2.222    2.333    0.000    7.556 
#    0.000    0.556    0.000    3.333    0.000    0.000 
#    0.000    0.000    0.000    0.000    0.000    0.000 
#
# Total GULP energy -200942.241094 kJ/mol
# GULP energy per Si atom -5581.728919 kJ/mol
# Density = 1.998301 g / cm^3
# Si number density = 20.028597 Si / 1000 Ang^3
#
#
#
# Elastic Constant Matrix: (Units=GPa)
#
#
# Indices 1 2 3 4 5 6 
#
# 1 190.4475 56.2514 32.8475 0.0000 0.0000 0.0000
# 2 56.2514 66.4837 15.3362 0.0000 0.0000 0.0000
# 3 32.8475 15.3362 18.7070 0.0000 0.0000 0.0000
# 4 0.0000 0.0000 0.0000 31.0084 0.0000 0.0000
# 5 0.0000 0.0000 0.0000 0.0000 16.9066 0.0000
# 6 0.0000 0.0000 0.0000 0.0000 0.0000 77.9175
#
#
#
# Elastic Compliance Matrix: (Units=1/GPa)
#
#
# Indices 1 2 3 4 5 6 
#
# 1 0.008560 -0.004656 -0.011214 0.000000 0.000000 0.000000
# 2 -0.004656 0.021081 -0.009108 0.000000 0.000000 0.000000
# 3 -0.011214 -0.009108 0.080612 0.000000 0.000000 0.000000
# 4 0.000000 0.000000 0.000000 0.032249 0.000000 0.000000
# 5 0.000000 0.000000 0.000000 0.000000 0.059148 0.000000
# 6 0.000000 0.000000 0.000000 0.000000 0.000000 0.012834
#
#
# Mechanical properties :
#
#
# Convention : Reuss Voigt Hill
#
# Bulk Modulus (GPa) = 16.58384 53.83424 35.20904
# Shear Modulus (GPa) = 17.57226 36.58005 27.07616
#
# Velocity S-wave (km/s) = 2.96524 4.27827 3.68077
# Velocity P-wave (km/s) = 4.47455 7.16532 5.97341
#
# Compressibility (1/GPa) = 0.06029966
#
# Stress axis : x y z
#
# Youngs Moduli (GPa) = 116.82199 47.43499 12.40508
#
# Poissons Ratio (x) = 0.22085 0.13910
# Poissons Ratio (y) = 0.54391 0.11298
# Poissons Ratio (z) = 1.30999 0.43202
#
# Static dielectric constant tensor:
#      x y z
#    x 1.771150 0.000000 0.000000 
#    y 0.000000 1.708030 0.000000 
#    z 0.000000 0.000000 1.690760 
# 
# From -- ./inp_files/7276.got.cif
#   From: 2010.05.17/outbox.cif.g08.bks.cpg/sg65_4_cif.got.tgz:7276.got - 2010.06.03 17:01:31.
