data_PCOD9487301
_publ_section_title
;
Structure prediction by ZEFSAII (Michael W. Deem and Ramdas Pophale) SiO2 
 PCOD9487301
Probable space group: C M M M
;
_chemical_formula_sum "Si O2"
_cell_formula_units_Z 88
_cell_length_a 13.198559
_cell_length_b 17.945304
_cell_length_c 18.521536
_cell_angle_alpha 90.000000
_cell_angle_beta 90.000000
_cell_angle_gamma 90.000000
_cell_volume 4386.865690
_symmetry_space_group_name_H-M "C M M M"
_symmetry_group_IT_number 65
_symmetry_cell_setting 'orthorhombic'
loop_
_space_group_symop_operation_xyz
x,y,z
-x,-y,z
x,-y,-z
-x,y,-z
-x,-y,-z
x,y,-z
-x,y,z
x,-y,z
1/2+x,1/2+y,z
1/2-x,1/2-y,z
1/2+x,1/2-y,-z
1/2-x,1/2+y,-z
1/2-x,1/2-y,-z
1/2+x,1/2+y,-z
1/2-x,1/2+y,z
1/2+x,1/2-y,z
loop_
_atom_site_type_symbol
_atom_site_label
_atom_site_fract_x
_atom_site_fract_y
_atom_site_fract_z
Si Si1 0.335908 0.000000 0.916455
Si Si2 0.831367 0.662072 0.080957
Si Si3 0.176218 0.360160 0.343885
Si Si4 0.888171 0.807263 0.692216
Si Si5 0.620501 0.000000 0.757577
Si Si6 0.387990 0.315614 0.861326
Si Si7 0.619927 0.916475 0.500000
O O1 0.383400 0.917903 0.917042
O O2 0.308420 0.000000 0.829627
O O3 0.285970 0.000000 0.000000
O O4 0.711996 0.651341 0.100384
O O5 0.875747 0.726204 0.130382
O O6 0.839440 0.691901 0.000000
O O7 0.132109 0.281299 0.316088
O O8 0.296952 0.350592 0.343969
O O9 0.142266 0.427102 0.291251
O O10 0.145662 0.375741 0.425789
O O11 0.883352 0.829494 0.776413
O O12 0.000000 0.823789 0.664246
O O13 0.500000 0.000000 0.777245
O O14 0.500000 0.337572 0.888915
O O15 0.500000 0.923891 0.500000
O O16 0.665219 0.000000 0.500000
#
# Coordination Sequence:
#
# PCOD9487301 Si02
#       7
#     8  16  16  16   8  16   8
#     4  10  22  37  52  77 115 150 183 233 291 343
#     4  10  20  34  51  75 109 146 186 235 293 348
#     4  11  22  38  62  88 119 152 190 239 287 338
#     4  10  21  37  58  87 118 151 192 236 287 343
#     4  12  22  36  61  85 110 152 197 236 288 347
#     4  10  19  34  56  79 106 143 191 238 277 333
#     4  11  22  39  61  91 125 150 188 239 283 334
#
# _framework density 20.05988
#
# number of rings (size 3 to 8) (size 9 to 14) (size 15 to 20)
#    0.000    1.545    0.909    7.091    0.000    5.273 
#    0.000    4.091    0.000    5.455    0.000    0.000 
#    0.000    0.000    0.000    0.000    0.000    0.000 
#
# Total GULP energy -245124.427081 kJ/mol
# GULP energy per Si atom -5571.009706 kJ/mol
# Density = 2.001422 g / cm^3
# Si number density = 20.059880 Si / 1000 Ang^3
#
#
#
# Elastic Constant Matrix: (Units=GPa)
#
#
# Indices 1 2 3 4 5 6 
#
# 1 134.4642 12.6709 19.6026 0.0000 0.0000 0.0000
# 2 12.6709 66.3288 6.7346 0.0000 0.0000 0.0000
# 3 19.6026 6.7346 107.8087 0.0000 0.0000 0.0000
# 4 0.0000 0.0000 0.0000 -114.5079 0.0000 0.0000
# 5 0.0000 0.0000 0.0000 0.0000 90.8010 0.0000
# 6 0.0000 0.0000 0.0000 0.0000 0.0000 9.7607
#
#
#
# Elastic Compliance Matrix: (Units=1/GPa)
#
#
# Indices 1 2 3 4 5 6 
#
# 1 0.007757 -0.001347 -0.001326 0.000000 0.000000 0.000000
# 2 -0.001347 0.015407 -0.000717 0.000000 0.000000 0.000000
# 3 -0.001326 -0.000717 0.009562 0.000000 0.000000 0.000000
# 4 0.000000 0.000000 0.000000 -0.008733 0.000000 0.000000
# 5 0.000000 0.000000 0.000000 0.000000 0.011013 0.000000
# 6 0.000000 0.000000 0.000000 0.000000 0.000000 0.102452
#
#
# Mechanical properties :
#
#
# Convention : Reuss Voigt Hill
#
# Bulk Modulus (GPa) = 38.54524 42.95752 40.75138
# Shear Modulus (GPa) = 32.70378 15.18366 23.94372
#
# Velocity S-wave (km/s) = 4.04209 2.75420 3.45862
# Velocity P-wave (km/s) = 6.40636 5.61919 6.02564
#
# Compressibility (1/GPa) = 0.02594354
#
# Stress axis : x y z
#
# Youngs Moduli (GPa) = 128.91197 64.90716 104.58421
#
# Poissons Ratio (x) = 0.08744 0.13871
# Poissons Ratio (y) = 0.17367 0.07504
# Poissons Ratio (z) = 0.17098 0.04657
#
# Static dielectric constant tensor:
#      x y z
#    x 1.782290 0.000000 0.000000 
#    y 0.000000 1.696810 0.000000 
#    z 0.000000 0.000000 1.698110 
# 
# From -- ./inp_files/53087.got.cif
#   From: 2010.05.17/outbox.cif.g08.bks.cpg/sg65_27_cif.got.tgz:53087.got - 2010.06.03 17:01:31.
