data_PCOD9487537
_publ_section_title
;
Structure prediction by ZEFSAII (Michael W. Deem and Ramdas Pophale) SiO2 
 PCOD9487537
Probable space group: C M M M
;
_chemical_formula_sum "Si O2"
_cell_formula_units_Z 88
_cell_length_a 29.814100
_cell_length_b 15.364204
_cell_length_c 9.757223
_cell_angle_alpha 90.000000
_cell_angle_beta 90.000000
_cell_angle_gamma 90.000000
_cell_volume 4469.490305
_symmetry_space_group_name_H-M "C M M M"
_symmetry_group_IT_number 65
_symmetry_cell_setting 'orthorhombic'
loop_
_space_group_symop_operation_xyz
x,y,z
-x,-y,z
x,-y,-z
-x,y,-z
-x,-y,-z
x,y,-z
-x,y,z
x,-y,z
1/2+x,1/2+y,z
1/2-x,1/2-y,z
1/2+x,1/2-y,-z
1/2-x,1/2+y,-z
1/2-x,1/2-y,-z
1/2+x,1/2+y,-z
1/2-x,1/2+y,z
1/2+x,1/2-y,z
loop_
_atom_site_type_symbol
_atom_site_label
_atom_site_fract_x
_atom_site_fract_y
_atom_site_fract_z
Si Si1 0.213181 0.393321 0.842416
Si Si2 0.688347 0.600673 0.834633
Si Si3 0.408407 0.348523 0.158375
Si Si4 0.946478 0.000000 0.344011
Si Si5 0.947281 0.344260 0.156778
Si Si6 0.867922 0.602839 0.653552
O O1 0.213537 0.500000 0.846376
O O2 0.262624 0.368156 0.788814
O O3 0.172740 0.362942 0.747132
O O4 0.206644 0.363585 0.000000
O O5 0.680694 0.500000 0.789701
O O6 0.644289 0.656144 0.803552
O O7 0.692404 0.598132 0.000000
O O8 0.430280 0.416463 0.260491
O O9 0.434025 0.257462 0.162496
O O10 0.410370 0.380318 0.000000
O O11 0.929435 0.000000 0.500000
O O12 0.000000 0.000000 0.347638
O O13 0.914441 0.387056 0.265870
O O14 0.000000 0.356604 0.183690
O O15 0.938114 0.374319 0.000000
O O16 0.869592 0.640258 0.500000
O O17 0.859460 0.500000 0.641491
#
# Coordination Sequence:
#
# PCOD9487537 Si02
#       6
#    16  16  16   8  16  16
#     4   8  14  27  51  80 108 137 171 213 260 310
#     4   8  13  25  50  82 109 137 175 218 259 303
#     4  10  19  35  58  81 107 141 184 229 268 313
#     4  11  23  35  49  75 111 149 189 229 270 317
#     4  10  22  38  56  80 107 137 177 226 280 328
#     4  10  21  37  57  80 105 137 178 219 266 330
#
# _framework density 19.689046000000001
#
# number of rings (size 3 to 8) (size 9 to 14) (size 15 to 20)
#    0.000    2.636    0.909    2.455    0.000    4.000 
#    0.000    3.636    0.000    5.455    0.000    0.000 
#    0.000    0.000    0.000    0.000    0.000    0.000 
#
# Total GULP energy -245425.016451 kJ/mol
# GULP energy per Si atom -5577.841283 kJ/mol
# Density = 1.964423 g / cm^3
# Si number density = 19.689046 Si / 1000 Ang^3
#
#
#
# Elastic Constant Matrix: (Units=GPa)
#
#
# Indices 1 2 3 4 5 6 
#
# 1 128.3103 -7.0222 56.6016 0.0000 0.0000 0.0000
# 2 -7.0222 16.7935 10.9431 0.0000 0.0000 0.0000
# 3 56.6016 10.9431 98.6224 0.0000 0.0000 0.0000
# 4 0.0000 0.0000 0.0000 11.8393 0.0000 0.0000
# 5 0.0000 0.0000 0.0000 0.0000 6.4960 0.0000
# 6 0.0000 0.0000 0.0000 0.0000 0.0000 28.0098
#
#
#
# Elastic Compliance Matrix: (Units=1/GPa)
#
#
# Indices 1 2 3 4 5 6 
#
# 1 0.011839 0.010109 -0.007916 0.000000 0.000000 0.000000
# 2 0.010109 0.072820 -0.013882 0.000000 0.000000 0.000000
# 3 -0.007916 -0.013882 0.016223 0.000000 0.000000 0.000000
# 4 0.000000 0.000000 0.000000 0.084465 0.000000 0.000000
# 5 0.000000 0.000000 0.000000 0.000000 0.153942 0.000000
# 6 0.000000 0.000000 0.000000 0.000000 0.000000 0.035702
#
#
# Mechanical properties :
#
#
# Convention : Reuss Voigt Hill
#
# Bulk Modulus (GPa) = 12.90258 40.53011 26.71635
# Shear Modulus (GPa) = 11.78679 21.48258 16.63469
#
# Velocity S-wave (km/s) = 2.44938 3.30675 2.90982
# Velocity P-wave (km/s) = 3.81663 5.93374 4.98879
#
# Compressibility (1/GPa) = 0.07750388
#
# Stress axis : x y z
#
# Youngs Moduli (GPa) = 84.46648 13.73251 61.63939
#
# Poissons Ratio (x) = -0.13882 0.48796
# Poissons Ratio (y) = -0.85388 0.85567
# Poissons Ratio (z) = 0.66867 0.19063
#
# Static dielectric constant tensor:
#      x y z
#    x 1.701290 0.000000 0.000000 
#    y 0.000000 1.725500 0.000000 
#    z 0.000000 0.000000 1.676420 
# 
# From -- ./inp_files/18269.got.cif
#   From: 2010.05.17/outbox.cif.g08.bks.cpg/sg65_10_cif.got.tgz:18269.got - 2010.06.03 17:01:31.
