data_PCOD9487730
_publ_section_title
;
Structure prediction by ZEFSAII (Michael W. Deem and Ramdas Pophale) SiO2 
 PCOD9487730
Probable space group: C M M M
;
_chemical_formula_sum "Si O2"
_cell_formula_units_Z 50
_cell_length_a 7.673941
_cell_length_b 31.041803
_cell_length_c 10.575811
_cell_angle_alpha 90.000000
_cell_angle_beta 90.000000
_cell_angle_gamma 90.000000
_cell_volume 2519.295293
_symmetry_space_group_name_H-M "C M M M"
_symmetry_group_IT_number 65
_symmetry_cell_setting 'orthorhombic'
loop_
_space_group_symop_operation_xyz
x,y,z
-x,-y,z
x,-y,-z
-x,y,-z
-x,-y,-z
x,y,-z
-x,y,z
x,-y,z
1/2+x,1/2+y,z
1/2-x,1/2-y,z
1/2+x,1/2-y,-z
1/2-x,1/2+y,-z
1/2-x,1/2-y,-z
1/2+x,1/2+y,-z
1/2-x,1/2+y,z
1/2+x,1/2-y,z
loop_
_atom_site_type_symbol
_atom_site_label
_atom_site_fract_x
_atom_site_fract_y
_atom_site_fract_z
Si Si1 0.212433 0.889391 0.237228
Si Si2 0.192465 0.570116 0.500000
Si Si3 0.291131 0.703566 0.856167
Si Si4 0.500000 0.500000 0.500000
Si Si5 0.287618 0.550242 0.000000
O O1 0.285273 0.902982 0.371777
O O2 0.268823 0.840726 0.205910
O O3 0.264013 0.922704 0.125027
O O4 0.000000 0.890655 0.241957
O O5 0.500000 0.949326 0.500000
O O6 0.348151 0.536663 0.500000
O O7 0.500000 0.700564 0.862354
O O8 0.250000 0.750000 0.796542
O O9 0.221882 0.704341 0.000000
O O10 0.230374 0.500000 0.000000
O O11 0.500000 0.549367 0.000000
#
# Coordination Sequence:
#
# PCOD9487730 Si02
#       5
#    16   8  16   2   8
#     4  10  19  38  61  90 128 168 209 266 324 382
#     4  12  27  43  68  97 126 168 223 261 315 388
#     4   9  17  31  55  88 125 166 211 258 319 385
#     4  12  26  52  68  88 128 184 210 270 320 378
#     4   9  18  30  58  89 117 159 210 254 321 389
#
# _framework density 19.846817999999999
#
# number of rings (size 3 to 8) (size 9 to 14) (size 15 to 20)
#    0.000    2.080    3.200    0.240    2.240    1.280 
#    0.000    1.600    0.000    0.960    0.000    0.000 
#    0.000    0.000    0.000    0.000    0.000    0.000 
#
# Total GULP energy -139221.873155 kJ/mol
# GULP energy per Si atom -5568.874926 kJ/mol
# Density = 1.980165 g / cm^3
# Si number density = 19.846818 Si / 1000 Ang^3
#
#
#
# Elastic Constant Matrix: (Units=GPa)
#
#
# Indices 1 2 3 4 5 6 
#
# 1 84.7175 39.8708 20.6165 0.0000 0.0000 0.0000
# 2 39.8708 230.5610 100.3464 0.0000 0.0000 0.0000
# 3 20.6165 100.3464 145.5239 0.0000 0.0000 0.0000
# 4 0.0000 0.0000 0.0000 186.1264 0.0000 0.0000
# 5 0.0000 0.0000 0.0000 0.0000 -21.9825 0.0000
# 6 0.0000 0.0000 0.0000 0.0000 0.0000 42.4666
#
#
#
# Elastic Compliance Matrix: (Units=1/GPa)
#
#
# Indices 1 2 3 4 5 6 
#
# 1 0.012867 -0.002046 -0.000412 0.000000 0.000000 0.000000
# 2 -0.002046 0.006522 -0.004208 0.000000 0.000000 0.000000
# 3 -0.000412 -0.004208 0.009832 0.000000 0.000000 0.000000
# 4 0.000000 0.000000 0.000000 0.005373 0.000000 0.000000
# 5 0.000000 0.000000 0.000000 0.000000 -0.045491 0.000000
# 6 0.000000 0.000000 0.000000 0.000000 0.000000 0.023548
#
#
# Mechanical properties :
#
#
# Convention : Reuss Voigt Hill
#
# Bulk Modulus (GPa) = 62.93407 86.94106 74.93757
# Shear Modulus (GPa) = 159.85468 61.32003 110.58735
#
# Velocity S-wave (km/s) = 8.98438 5.56451 7.47271
# Velocity P-wave (km/s) = 11.80696 9.22963 10.59694
#
# Compressibility (1/GPa) = 0.01588964
#
# Stress axis : x y z
#
# Youngs Moduli (GPa) = 77.71813 153.32066 101.71357
#
# Poissons Ratio (x) = 0.31364 0.04194
# Poissons Ratio (y) = 0.15898 0.42797
# Poissons Ratio (z) = 0.03204 0.64512
#
# Static dielectric constant tensor:
#      x y z
#    x 1.733900 0.000000 0.000000 
#    y 0.000000 1.706760 0.000000 
#    z 0.000000 0.000000 1.662360 
# 
# From -- ./inp_files/22066.got.cif
#   From: 2010.05.17/outbox.cif.g08.bks.cpg/sg65_12_cif.got.tgz:22066.got - 2010.06.03 17:01:31.
