data_PCOD9487157
_publ_section_title
;
Structure prediction by ZEFSAII (Michael W. Deem and Ramdas Pophale) SiO2 
 PCOD9487157
Probable space group: C M M M
;
_chemical_formula_sum "Si O2"
_cell_formula_units_Z 112
_cell_length_a 14.678113
_cell_length_b 30.430668
_cell_length_c 13.711084
_cell_angle_alpha 90.000000
_cell_angle_beta 90.000000
_cell_angle_gamma 90.000000
_cell_volume 6124.258367
_symmetry_space_group_name_H-M "C M M M"
_symmetry_group_IT_number 65
_symmetry_cell_setting 'orthorhombic'
loop_
_space_group_symop_operation_xyz
x,y,z
-x,-y,z
x,-y,-z
-x,y,-z
-x,-y,-z
x,y,-z
-x,y,z
x,-y,z
1/2+x,1/2+y,z
1/2-x,1/2-y,z
1/2+x,1/2-y,-z
1/2-x,1/2+y,-z
1/2-x,1/2-y,-z
1/2+x,1/2+y,-z
1/2-x,1/2+y,z
1/2+x,1/2-y,z
loop_
_atom_site_type_symbol
_atom_site_label
_atom_site_fract_x
_atom_site_fract_y
_atom_site_fract_z
Si Si1 0.898069 0.121251 0.884590
Si Si2 0.771811 0.801322 0.606581
Si Si3 0.757737 0.049419 0.886040
Si Si4 0.391120 0.712126 0.205950
Si Si5 0.393412 0.047834 0.726824
Si Si6 0.889790 0.304940 0.888630
Si Si7 0.108064 0.645021 0.694719
O O1 0.825798 0.086353 0.846148
O O2 0.873238 0.171847 0.866977
O O3 0.000000 0.114554 0.843993
O O4 0.902267 0.113605 0.000000
O O5 0.805124 0.816290 0.500000
O O6 0.750000 0.750000 0.600514
O O7 0.843312 0.802965 0.694625
O O8 0.678498 0.826193 0.633693
O O9 0.666605 0.049604 0.823629
O O10 0.797781 0.000000 0.878634
O O11 0.738652 0.057618 0.000000
O O12 0.500000 0.716262 0.220368
O O13 0.359607 0.758720 0.160738
O O14 0.500000 0.049006 0.751487
O O15 0.375970 0.093665 0.672606
O O16 0.375047 0.000000 0.678891
O O17 0.871288 0.342809 0.808737
O O18 0.000000 0.302454 0.895712
O O19 0.855508 0.310925 0.000000
O O20 0.000000 0.655095 0.678893
#
# Coordination Sequence:
#
# PCOD9487157 Si02
#       7
#    16  16  16  16  16  16  16
#     4   9  17  29  48  73 100 134 171 207 251 302
#     4  11  23  37  54  77 103 132 171 214 258 314
#     4   9  17  28  42  64  98 137 175 215 255 299
#     4  10  19  34  53  73 102 136 170 211 255 301
#     4   9  18  32  51  73  98 133 175 218 264 311
#     4   9  17  30  49  73 102 137 173 208 248 296
#     4  10  20  36  55  76 106 140 174 216 264 310
#
# _framework density 18.287928000000001
#
# number of rings (size 3 to 8) (size 9 to 14) (size 15 to 20)
#    0.000    2.429    1.429    1.286    0.000    3.429 
#    0.000    7.857    0.000    0.429    0.000    2.000 
#    0.000    0.000    0.000   12.286    0.000    0.286 
#
# Total GULP energy -311972.710598 kJ/mol
# GULP energy per Si atom -5570.941261 kJ/mol
# Density = 1.824630 g / cm^3
# Si number density = 18.287928 Si / 1000 Ang^3
#
#
#
# Elastic Constant Matrix: (Units=GPa)
#
#
# Indices 1 2 3 4 5 6 
#
# 1 26.4170 33.0790 10.2839 0.0000 0.0000 0.0000
# 2 33.0790 114.8138 2.3404 0.0000 0.0000 0.0000
# 3 10.2839 2.3404 42.2693 0.0000 0.0000 0.0000
# 4 0.0000 0.0000 0.0000 69.0587 0.0000 0.0000
# 5 0.0000 0.0000 0.0000 0.0000 9.9147 0.0000
# 6 0.0000 0.0000 0.0000 0.0000 0.0000 23.7128
#
#
#
# Elastic Compliance Matrix: (Units=1/GPa)
#
#
# Indices 1 2 3 4 5 6 
#
# 1 0.068030 -0.019284 -0.015484 0.000000 0.000000 0.000000
# 2 -0.019284 0.014186 0.003906 0.000000 0.000000 0.000000
# 3 -0.015484 0.003906 0.027209 0.000000 0.000000 0.000000
# 4 0.000000 0.000000 0.000000 0.014480 0.000000 0.000000
# 5 0.000000 0.000000 0.000000 0.000000 0.100861 0.000000
# 6 0.000000 0.000000 0.000000 0.000000 0.000000 0.042171
#
#
# Mechanical properties :
#
#
# Convention : Reuss Voigt Hill
#
# Bulk Modulus (GPa) = 20.96383 30.54518 25.75450
# Shear Modulus (GPa) = 14.51124 29.72369 22.11747
#
# Velocity S-wave (km/s) = 2.81995 4.03590 3.48142
# Velocity P-wave (km/s) = 4.70010 6.20134 5.50216
#
# Compressibility (1/GPa) = 0.04770120
#
# Stress axis : x y z
#
# Youngs Moduli (GPa) = 14.69947 70.49125 36.75302
#
# Poissons Ratio (x) = 1.35938 0.56907
# Poissons Ratio (y) = 0.28347 -0.14357
# Poissons Ratio (z) = 0.22760 -0.27536
#
# Static dielectric constant tensor:
#      x y z
#    x 1.651200 0.000000 0.000000 
#    y 0.000000 1.670690 0.000000 
#    z 0.000000 0.000000 1.627440 
# 
# From -- ./inp_files/25562.got.cif
#   From: 2010.05.17/outbox.cif.g08.bks.cpg/sg65_13_cif.got.tgz:25562.got - 2010.06.03 17:01:31.
