data_PCOD9487414
_publ_section_title
;
Structure prediction by ZEFSAII (Michael W. Deem and Ramdas Pophale) SiO2 
 PCOD9487414
Probable space group: C M M M
;
_chemical_formula_sum "Si O2"
_cell_formula_units_Z 88
_cell_length_a 8.805972
_cell_length_b 23.929350
_cell_length_c 23.706332
_cell_angle_alpha 90.000000
_cell_angle_beta 90.000000
_cell_angle_gamma 90.000000
_cell_volume 4995.426397
_symmetry_space_group_name_H-M "C M M M"
_symmetry_group_IT_number 65
_symmetry_cell_setting 'orthorhombic'
loop_
_space_group_symop_operation_xyz
x,y,z
-x,-y,z
x,-y,-z
-x,y,-z
-x,-y,-z
x,y,-z
-x,y,z
x,-y,z
1/2+x,1/2+y,z
1/2-x,1/2-y,z
1/2+x,1/2-y,-z
1/2-x,1/2+y,-z
1/2-x,1/2-y,-z
1/2+x,1/2+y,-z
1/2-x,1/2+y,z
1/2+x,1/2-y,z
loop_
_atom_site_type_symbol
_atom_site_label
_atom_site_fract_x
_atom_site_fract_y
_atom_site_fract_z
Si Si1 0.681134 0.188500 0.831091
Si Si2 0.317380 0.434856 0.381574
Si Si3 0.174440 0.432203 0.500000
Si Si4 0.182272 0.112182 0.263811
Si Si5 0.322176 0.000000 0.213433
Si Si6 0.179628 0.874555 0.937819
Si Si7 0.824927 0.000000 0.903067
O O1 0.500000 0.190303 0.829442
O O2 0.750000 0.250000 0.837041
O O3 0.743356 0.160344 0.773690
O O4 0.734795 0.152065 0.884923
O O5 0.500000 0.436014 0.384000
O O6 0.268214 0.500000 0.371318
O O7 0.254102 0.415621 0.441745
O O8 0.273568 0.395177 0.329492
O O9 0.179700 0.500000 0.500000
O O10 0.000000 0.414551 0.500000
O O11 0.238669 0.054434 0.236613
O O12 0.000000 0.116445 0.260058
O O13 0.500000 0.000000 0.227860
O O14 0.295846 0.000000 0.146814
O O15 0.000000 0.861546 0.931944
O O16 0.192419 0.941872 0.935479
O O17 0.230652 0.855083 0.000000
O O18 0.000000 0.000000 0.880325
#
# Coordination Sequence:
#
# PCOD9487414 Si02
#       7
#    16  16   8  16   8  16   8
#     4  12  26  43  61  82 108 142 184 234 285 334
#     4   9  17  30  49  74 107 150 190 220 262 323
#     4   9  17  27  41  69 110 151 186 225 267 308
#     4  11  21  37  58  82 111 147 187 231 280 331
#     4  12  22  31  51  84 116 147 181 224 276 333
#     4  10  21  38  61  87 114 147 184 223 272 331
#     4  10  19  34  58  84 116 150 179 216 267 331
#
# _framework density 17.616114
#
# number of rings (size 3 to 8) (size 9 to 14) (size 15 to 20)
#    0.000    1.545    2.727    3.545    0.000    4.364 
#    0.000    0.000    0.000    1.636    0.000    0.636 
#    0.000    0.000    0.000    0.000    0.000    0.000 
#
# Total GULP energy -245559.135260 kJ/mol
# GULP energy per Si atom -5580.889438 kJ/mol
# Density = 1.757602 g / cm^3
# Si number density = 17.616114 Si / 1000 Ang^3
#
#
#
# Elastic Constant Matrix: (Units=GPa)
#
#
# Indices 1 2 3 4 5 6 
#
# 1 79.6878 36.3637 61.6931 0.0000 0.0000 0.0000
# 2 36.3637 81.6177 44.4099 0.0000 0.0000 0.0000
# 3 61.6931 44.4099 156.9385 0.0000 0.0000 0.0000
# 4 0.0000 0.0000 0.0000 6.6040 0.0000 0.0000
# 5 0.0000 0.0000 0.0000 0.0000 2.3364 0.0000
# 6 0.0000 0.0000 0.0000 0.0000 0.0000 19.3586
#
#
#
# Elastic Compliance Matrix: (Units=1/GPa)
#
#
# Indices 1 2 3 4 5 6 
#
# 1 0.019897 -0.005448 -0.006280 0.000000 0.000000 0.000000
# 2 -0.005448 0.015974 -0.002379 0.000000 0.000000 0.000000
# 3 -0.006280 -0.002379 0.009514 0.000000 0.000000 0.000000
# 4 0.000000 0.000000 0.000000 0.151423 0.000000 0.000000
# 5 0.000000 0.000000 0.000000 0.000000 0.428014 0.000000
# 6 0.000000 0.000000 0.000000 0.000000 0.000000 0.051657
#
#
# Mechanical properties :
#
#
# Convention : Reuss Voigt Hill
#
# Bulk Modulus (GPa) = 58.23588 67.01971 62.62780
# Shear Modulus (GPa) = 7.03815 17.37828 12.20822
#
# Velocity S-wave (km/s) = 2.00099 3.14427 2.63537
# Velocity P-wave (km/s) = 6.20231 7.16303 6.69991
#
# Compressibility (1/GPa) = 0.01717154
#
# Stress axis : x y z
#
# Youngs Moduli (GPa) = 50.25963 62.60294 105.11180
#
# Poissons Ratio (x) = 0.34104 0.66009
# Poissons Ratio (y) = 0.27380 0.25003
# Poissons Ratio (z) = 0.31562 0.14891
#
# Static dielectric constant tensor:
#      x y z
#    x 1.590580 0.000000 0.000000 
#    y 0.000000 1.543820 0.000000 
#    z 0.000000 0.000000 1.620020 
# 
# From -- ./inp_files/67679.got.cif
#   From: 2010.05.17/outbox.cif.g08.bks.cpg/sg65_34_cif.got.tgz:67679.got - 2010.06.03 17:01:31.
