data_PCOD9487003
_publ_section_title
;
Structure prediction by ZEFSAII (Michael W. Deem and Ramdas Pophale) SiO2 
 PCOD9487003
Probable space group: C M M M
;
_chemical_formula_sum "Si O2"
_cell_formula_units_Z 80
_cell_length_a 18.759514
_cell_length_b 8.328227
_cell_length_c 27.095071
_cell_angle_alpha 90.000000
_cell_angle_beta 90.000000
_cell_angle_gamma 90.000000
_cell_volume 4233.157531
_symmetry_space_group_name_H-M "C M M M"
_symmetry_group_IT_number 65
_symmetry_cell_setting 'orthorhombic'
loop_
_space_group_symop_operation_xyz
x,y,z
-x,-y,z
x,-y,-z
-x,y,-z
-x,-y,-z
x,y,-z
-x,y,z
x,-y,z
1/2+x,1/2+y,z
1/2-x,1/2-y,z
1/2+x,1/2-y,-z
1/2-x,1/2+y,-z
1/2-x,1/2-y,-z
1/2+x,1/2+y,-z
1/2-x,1/2+y,z
1/2+x,1/2-y,z
loop_
_atom_site_type_symbol
_atom_site_label
_atom_site_fract_x
_atom_site_fract_y
_atom_site_fract_z
Si Si1 0.668039 0.307177 0.392219
Si Si2 0.331955 0.693573 0.500000
Si Si3 0.581506 0.193806 0.297640
Si Si4 0.082500 0.194617 0.892448
Si Si5 0.830937 0.692260 0.202010
Si Si6 0.413259 0.686006 0.000000
O O1 0.668030 0.500000 0.391066
O O2 0.750000 0.250000 0.387188
O O3 0.639657 0.253260 0.446488
O O4 0.621314 0.244063 0.347375
O O5 0.334187 0.500000 0.500000
O O6 0.250000 0.750000 0.500000
O O7 0.500000 0.251610 0.296648
O O8 0.624883 0.251344 0.249668
O O9 0.580360 0.000000 0.295823
O O10 0.131212 0.250414 0.847899
O O11 0.000000 0.244624 0.884519
O O12 0.082779 0.000000 0.894400
O O13 0.107011 0.255607 0.946698
O O14 0.831663 0.500000 0.202681
O O15 0.750000 0.750000 0.204611
O O16 0.389559 0.500000 0.000000
O O17 0.500000 0.684384 0.000000
#
# Coordination Sequence:
#
# PCOD9487003 Si02
#       6
#    16   8  16  16  16   8
#     4  10  19  33  55  81 108 139 175 214 256 304
#     4   8  16  30  49  76 107 137 171 211 253 298
#     4  10  22  39  56  76 104 136 171 215 265 313
#     4   9  17  32  56  83 109 138 173 212 255 306
#     4  11  23  38  55  76 104 137 174 217 264 311
#     4   7  12  26  50  79 108 137 169 207 252 301
#
# _framework density 18.898422
#
# number of rings (size 3 to 8) (size 9 to 14) (size 15 to 20)
#    0.000    2.500    0.000    3.600    0.000    5.600 
#    0.000    1.500    0.000    4.800    0.000    0.000 
#    0.000    0.000    0.000    0.000    0.000    0.000 
#
# Total GULP energy -223038.466893 kJ/mol
# GULP energy per Si atom -5575.961672 kJ/mol
# Density = 1.885541 g / cm^3
# Si number density = 18.898422 Si / 1000 Ang^3
#
#
#
# Elastic Constant Matrix: (Units=GPa)
#
#
# Indices 1 2 3 4 5 6 
#
# 1 120.7062 17.9562 108.4721 0.0000 0.0000 0.0000
# 2 17.9562 15.6387 22.1238 0.0000 0.0000 0.0000
# 3 108.4721 22.1238 236.7885 0.0000 0.0000 0.0000
# 4 0.0000 0.0000 0.0000 -28.4267 0.0000 0.0000
# 5 0.0000 0.0000 0.0000 0.0000 32.7067 0.0000
# 6 0.0000 0.0000 0.0000 0.0000 0.0000 3.5805
#
#
#
# Elastic Compliance Matrix: (Units=1/GPa)
#
#
# Indices 1 2 3 4 5 6 
#
# 1 0.015036 -0.008665 -0.006078 0.000000 0.000000 0.000000
# 2 -0.008665 0.078677 -0.003382 0.000000 0.000000 0.000000
# 3 -0.006078 -0.003382 0.007324 0.000000 0.000000 0.000000
# 4 0.000000 0.000000 0.000000 -0.035178 0.000000 0.000000
# 5 0.000000 0.000000 0.000000 0.000000 0.030575 0.000000
# 6 0.000000 0.000000 0.000000 0.000000 0.000000 0.279293
#
#
# Mechanical properties :
#
#
# Convention : Reuss Voigt Hill
#
# Bulk Modulus (GPa) = 15.43534 74.47081 44.95308
# Shear Modulus (GPa) = 11.53213 16.54417 14.03815
#
# Velocity S-wave (km/s) = 2.47294 2.96197 2.72843
# Velocity P-wave (km/s) = 4.04217 7.15465 5.81069
#
# Compressibility (1/GPa) = 0.06478640
#
# Stress axis : x y z
#
# Youngs Moduli (GPa) = 66.50800 12.71022 136.54586
#
# Poissons Ratio (x) = 0.11014 0.82996
# Poissons Ratio (y) = 0.57630 0.46173
# Poissons Ratio (z) = 0.40425 0.04298
#
# Static dielectric constant tensor:
#      x y z
#    x 1.618690 0.000000 0.000000 
#    y 0.000000 1.674830 0.000000 
#    z 0.000000 0.000000 1.689810 
# 
# From -- ./inp_files/75106.got.cif
#   From: 2010.05.17/outbox.cif.g08.bks.cpg/sg65_38_cif.got.tgz:75106.got - 2010.06.03 17:01:31.
