data_PCOD9487810
_publ_section_title
;
Structure prediction by ZEFSAII (Michael W. Deem and Ramdas Pophale) SiO2 
 PCOD9487810
Probable space group: C M M M
;
_chemical_formula_sum "Si O2"
_cell_formula_units_Z 104
_cell_length_a 26.611200
_cell_length_b 16.640833
_cell_length_c 14.225854
_cell_angle_alpha 90.000000
_cell_angle_beta 90.000000
_cell_angle_gamma 90.000000
_cell_volume 6299.670991
_symmetry_space_group_name_H-M "C M M M"
_symmetry_group_IT_number 65
_symmetry_cell_setting 'orthorhombic'
loop_
_space_group_symop_operation_xyz
x,y,z
-x,-y,z
x,-y,-z
-x,y,-z
-x,-y,-z
x,y,-z
-x,y,z
x,-y,z
1/2+x,1/2+y,z
1/2-x,1/2-y,z
1/2+x,1/2-y,-z
1/2-x,1/2+y,-z
1/2-x,1/2-y,-z
1/2+x,1/2+y,-z
1/2-x,1/2+y,z
1/2+x,1/2-y,z
loop_
_atom_site_type_symbol
_atom_site_label
_atom_site_fract_x
_atom_site_fract_y
_atom_site_fract_z
Si Si1 0.872194 0.246080 0.887474
Si Si2 0.135149 0.096100 0.388735
Si Si3 0.940641 0.843915 0.766457
Si Si4 0.692406 0.586719 0.111829
Si Si5 0.283013 0.166419 0.797440
Si Si6 0.251492 0.346489 0.395981
Si Si7 0.559616 0.500000 0.894775
O O1 0.922183 0.232967 0.826512
O O2 0.841539 0.163435 0.866026
O O3 0.835222 0.314321 0.847758
O O4 0.879737 0.252019 0.000000
O O5 0.126846 0.111442 0.500000
O O6 0.094516 0.140922 0.324072
O O7 0.192195 0.125294 0.367993
O O8 0.131703 0.000000 0.373880
O O9 0.931512 0.920274 0.835077
O O10 0.000000 0.841215 0.744005
O O11 0.674289 0.500000 0.148136
O O12 0.748103 0.604394 0.147790
O O13 0.693862 0.583977 0.000000
O O14 0.250000 0.250000 0.797282
O O15 0.285599 0.136482 0.690093
O O16 0.240530 0.380264 0.500000
O O17 0.250000 0.250000 0.404401
O O18 0.500000 0.500000 0.908193
O O19 0.583036 0.500000 0.000000
#
# Coordination Sequence:
#
# PCOD9487810 Si02
#       7
#    16  16  16  16  16  16   8
#     4  10  20  31  44  62  87 118 151 184 221 268
#     4  10  20  33  48  66  89 119 156 193 227 267
#     4  11  21  32  45  61  83 115 153 194 233 264
#     4   9  17  27  41  62  85 110 141 175 214 263
#     4   9  16  28  44  61  84 113 140 175 219 265
#     4   9  17  29  45  64  84 109 143 181 221 266
#     4   9  18  30  41  55  77 105 138 180 225 261
#
# _framework density 16.508799
#
# number of rings (size 3 to 8) (size 9 to 14) (size 15 to 20)
#    0.000    2.385    0.769    3.692    1.077    4.923 
#    0.000    0.769    0.000    0.000    0.000    0.000 
#    0.000    0.615    0.000    3.538    0.000    2.000 
#
# Total GULP energy -289746.876165 kJ/mol
# GULP energy per Si atom -5572.055311 kJ/mol
# Density = 1.647122 g / cm^3
# Si number density = 16.508799 Si / 1000 Ang^3
#
#
#
# Elastic Constant Matrix: (Units=GPa)
#
#
# Indices 1 2 3 4 5 6 
#
# 1 69.2945 23.3533 47.9770 0.0000 0.0000 0.0000
# 2 23.3533 16.2005 14.7552 0.0000 0.0000 0.0000
# 3 47.9770 14.7552 91.1917 0.0000 0.0000 0.0000
# 4 0.0000 0.0000 0.0000 51.5199 0.0000 0.0000
# 5 0.0000 0.0000 0.0000 0.0000 21.7895 0.0000
# 6 0.0000 0.0000 0.0000 0.0000 0.0000 23.1233
#
#
#
# Elastic Compliance Matrix: (Units=1/GPa)
#
#
# Indices 1 2 3 4 5 6 
#
# 1 0.037797 -0.042661 -0.012983 0.000000 0.000000 0.000000
# 2 -0.042661 0.120545 0.002940 0.000000 0.000000 0.000000
# 3 -0.012983 0.002940 0.017321 0.000000 0.000000 0.000000
# 4 0.000000 0.000000 0.000000 0.019410 0.000000 0.000000
# 5 0.000000 0.000000 0.000000 0.000000 0.045894 0.000000
# 6 0.000000 0.000000 0.000000 0.000000 0.000000 0.043246
#
#
# Mechanical properties :
#
#
# Convention : Reuss Voigt Hill
#
# Bulk Modulus (GPa) = 14.23384 38.76197 26.49790
# Shear Modulus (GPa) = 12.10536 25.32663 18.71600
#
# Velocity S-wave (km/s) = 2.71083 3.92105 3.37070
# Velocity P-wave (km/s) = 4.29404 6.63551 5.58878
#
# Compressibility (1/GPa) = 0.07025513
#
# Stress axis : x y z
#
# Youngs Moduli (GPa) = 26.45687 8.29563 57.73426
#
# Poissons Ratio (x) = 0.35390 0.74956
# Poissons Ratio (y) = 1.12867 -0.16971
# Poissons Ratio (z) = 0.34349 -0.02439
#
# Static dielectric constant tensor:
#      x y z
#    x 1.571970 0.000000 0.000000 
#    y 0.000000 1.576370 0.000000 
#    z 0.000000 0.000000 1.608220 
# 
# From -- ./inp_files/47199.got.cif
#   From: 2010.05.17/outbox.cif.g08.bks.cpg/sg65_24_cif.got.tgz:47199.got - 2010.06.03 17:01:31.
