data_PCOD9487743
_publ_section_title
;
Structure prediction by ZEFSAII (Michael W. Deem and Ramdas Pophale) SiO2 
 PCOD9487743
Probable space group: C M M M
;
_chemical_formula_sum "Si O2"
_cell_formula_units_Z 96
_cell_length_a 29.393854
_cell_length_b 32.427353
_cell_length_c 7.693596
_cell_angle_alpha 90.000000
_cell_angle_beta 90.000000
_cell_angle_gamma 90.000000
_cell_volume 7333.265506
_symmetry_space_group_name_H-M "C M M M"
_symmetry_group_IT_number 65
_symmetry_cell_setting 'orthorhombic'
loop_
_space_group_symop_operation_xyz
x,y,z
-x,-y,z
x,-y,-z
-x,y,-z
-x,-y,-z
x,y,-z
-x,y,z
x,-y,z
1/2+x,1/2+y,z
1/2-x,1/2-y,z
1/2+x,1/2-y,-z
1/2-x,1/2+y,-z
1/2-x,1/2-y,-z
1/2+x,1/2+y,-z
1/2-x,1/2+y,z
1/2+x,1/2-y,z
loop_
_atom_site_type_symbol
_atom_site_label
_atom_site_fract_x
_atom_site_fract_y
_atom_site_fract_z
Si Si1 0.732115 0.316835 0.000000
Si Si2 0.950505 0.634482 0.295745
Si Si3 0.311815 0.045798 0.710201
Si Si4 0.770641 0.369427 0.296745
Si Si5 0.862721 0.315355 0.295508
Si Si6 0.417866 0.045597 0.203506
Si Si7 0.675344 0.238011 0.000000
O O1 0.736844 0.345221 0.170386
O O2 0.690035 0.285537 0.000000
O O3 0.777565 0.288273 0.000000
O O4 0.952116 0.644025 0.500000
O O5 0.907291 0.660180 0.229998
O O6 0.941124 0.585702 0.281254
O O7 0.000000 0.644000 0.218474
O O8 0.314591 0.047417 0.500000
O O9 0.280376 0.083823 0.762740
O O10 0.363423 0.050736 0.775918
O O11 0.296146 0.000000 0.761595
O O12 0.757081 0.368718 0.500000
O O13 0.819660 0.346438 0.285357
O O14 0.867413 0.304342 0.500000
O O15 0.851344 0.277183 0.170928
O O16 0.429450 0.000000 0.275507
O O17 0.428970 0.045377 0.000000
#
# Coordination Sequence:
#
# PCOD9487743 Si02
#       7
#     8  16  16  16  16  16   8
#     4   9  18  28  41  60  76  91 115 145 181 232
#     4  10  20  32  44  56  70  93 125 157 193 234
#     4   9  16  26  40  56  74  99 129 155 183 224
#     4   9  16  26  41  58  77  98 120 149 185 222
#     4   9  17  29  43  58  75  95 120 150 187 231
#     4  10  20  29  39  55  72  93 123 159 197 233
#     4   9  18  30  43  58  74  94 114 140 186 236
#
# _framework density 13.09103
#
# number of rings (size 3 to 8) (size 9 to 14) (size 15 to 20)
#    0.000    2.667    1.667    0.500    2.333    2.333 
#    0.000    5.000    0.000    0.000    0.000    0.000 
#    0.000    0.000    0.000    0.000    0.000    0.000 
#
# Total GULP energy -267383.358428 kJ/mol
# GULP energy per Si atom -5570.486634 kJ/mol
# Density = 1.306123 g / cm^3
# Si number density = 13.091030 Si / 1000 Ang^3
#
#
#
# Elastic Constant Matrix: (Units=GPa)
#
#
# Indices 1 2 3 4 5 6 
#
# 1 41.1802 40.4212 21.8404 0.0000 0.0000 0.0000
# 2 40.4212 72.8511 33.6626 0.0000 0.0000 0.0000
# 3 21.8404 33.6626 51.2409 0.0000 0.0000 0.0000
# 4 0.0000 0.0000 0.0000 16.7991 0.0000 0.0000
# 5 0.0000 0.0000 0.0000 0.0000 24.0580 0.0000
# 6 0.0000 0.0000 0.0000 0.0000 0.0000 9.0581
#
#
#
# Elastic Compliance Matrix: (Units=1/GPa)
#
#
# Indices 1 2 3 4 5 6 
#
# 1 0.054135 -0.027820 -0.004798 0.000000 0.000000 0.000000
# 2 -0.027820 0.034006 -0.010483 0.000000 0.000000 0.000000
# 3 -0.004798 -0.010483 0.028447 0.000000 0.000000 0.000000
# 4 0.000000 0.000000 0.000000 0.059527 0.000000 0.000000
# 5 0.000000 0.000000 0.000000 0.000000 0.041566 0.000000
# 6 0.000000 0.000000 0.000000 0.000000 0.000000 0.110398
#
#
# Mechanical properties :
#
#
# Convention : Reuss Voigt Hill
#
# Bulk Modulus (GPa) = 32.90780 39.68006 36.29393
# Shear Modulus (GPa) = 11.78108 14.60625 13.19367
#
# Velocity S-wave (km/s) = 3.00315 3.34390 3.17809
# Velocity P-wave (km/s) = 6.10061 6.72946 6.42273
#
# Compressibility (1/GPa) = 0.03038794
#
# Stress axis : x y z
#
# Youngs Moduli (GPa) = 18.47225 29.40653 35.15288
#
# Poissons Ratio (x) = 0.81808 0.16866
# Poissons Ratio (y) = 0.51389 0.36849
# Poissons Ratio (z) = 0.08863 0.30826
#
# Static dielectric constant tensor:
#      x y z
#    x 1.410470 0.000000 0.000000 
#    y 0.000000 1.432810 0.000000 
#    z 0.000000 0.000000 1.472240 
# 
# From -- ./inp_files/14645.got.cif
#   From: 2010.05.17/outbox.cif.g08.bks.cpg/sg65_8_cif.got.tgz:14645.got - 2010.06.03 17:01:31.
