data_PCOD9487573
_publ_section_title
;
Structure prediction by ZEFSAII (Michael W. Deem and Ramdas Pophale) SiO2 
 PCOD9487573
Probable space group: C M M M
;
_chemical_formula_sum "Si O2"
_cell_formula_units_Z 72
_cell_length_a 11.171215
_cell_length_b 31.261917
_cell_length_c 10.964293
_cell_angle_alpha 90.000000
_cell_angle_beta 90.000000
_cell_angle_gamma 90.000000
_cell_volume 3829.099473
_symmetry_space_group_name_H-M "C M M M"
_symmetry_group_IT_number 65
_symmetry_cell_setting 'orthorhombic'
loop_
_space_group_symop_operation_xyz
x,y,z
-x,-y,z
x,-y,-z
-x,y,-z
-x,-y,-z
x,y,-z
-x,y,z
x,-y,z
1/2+x,1/2+y,z
1/2-x,1/2-y,z
1/2+x,1/2-y,-z
1/2-x,1/2+y,-z
1/2-x,1/2-y,-z
1/2+x,1/2+y,-z
1/2-x,1/2+y,z
1/2+x,1/2-y,z
loop_
_atom_site_type_symbol
_atom_site_label
_atom_site_fract_x
_atom_site_fract_y
_atom_site_fract_z
Si Si1 0.296796 0.701838 0.739991
Si Si2 0.126718 0.776152 0.000000
Si Si3 0.142088 0.547288 0.238582
Si Si4 0.860321 0.409803 0.500000
Si Si5 0.132055 0.845533 0.500000
Si Si6 0.357237 0.135370 0.863571
O O1 0.250000 0.750000 0.721362
O O2 0.360239 0.683819 0.620677
O O3 0.188125 0.669554 0.767326
O O4 0.368893 0.700751 0.868439
O O5 0.250000 0.750000 0.000000
O O6 0.000000 0.750831 0.000000
O O7 0.192770 0.500000 0.216252
O O8 0.151099 0.561177 0.379557
O O9 0.191007 0.587834 0.164306
O O10 0.000000 0.544939 0.210297
O O11 0.749910 0.376203 0.500000
O O12 0.000000 0.392619 0.500000
O O13 0.000000 0.867229 0.500000
O O14 0.500000 0.133414 0.857000
O O15 0.323394 0.148605 0.000000
#
# Coordination Sequence:
#
# PCOD9487573 Si02
#       6
#    16   8  16   8   8  16
#     4  11  23  40  59  85 116 162 208 247 300 353
#     4  10  22  40  62  86 113 150 203 249 298 353
#     4   9  17  31  55  86 118 151 190 241 301 363
#     4  10  19  35  59  85 114 152 201 243 297 360
#     4  12  25  40  58  86 125 160 203 254 305 352
#     4  10  20  34  56  89 122 153 195 250 301 354
#
# _framework density 18.803377000000001
#
# number of rings (size 3 to 8) (size 9 to 14) (size 15 to 20)
#    0.000    1.778    3.333    1.333    0.000    6.222 
#    0.000    3.333    0.000    1.333    0.000    0.000 
#    0.000    2.667    0.000    0.000    0.000    0.000 
#
# Total GULP energy -200496.585932 kJ/mol
# GULP energy per Si atom -5569.349609 kJ/mol
# Density = 1.876058 g / cm^3
# Si number density = 18.803377 Si / 1000 Ang^3
#
#
#
# Elastic Constant Matrix: (Units=GPa)
#
#
# Indices 1 2 3 4 5 6 
#
# 1 84.2782 37.8239 21.9691 0.0000 0.0000 0.0000
# 2 37.8239 125.7069 19.7076 0.0000 0.0000 0.0000
# 3 21.9691 19.7076 87.0399 0.0000 0.0000 0.0000
# 4 0.0000 0.0000 0.0000 -37.4745 0.0000 0.0000
# 5 0.0000 0.0000 0.0000 0.0000 -19.2927 0.0000
# 6 0.0000 0.0000 0.0000 0.0000 0.0000 16.0683
#
#
#
# Elastic Compliance Matrix: (Units=1/GPa)
#
#
# Indices 1 2 3 4 5 6 
#
# 1 0.014320 -0.003880 -0.002736 0.000000 0.000000 0.000000
# 2 -0.003880 0.009299 -0.001126 0.000000 0.000000 0.000000
# 3 -0.002736 -0.001126 0.012435 0.000000 0.000000 0.000000
# 4 0.000000 0.000000 0.000000 -0.026685 0.000000 0.000000
# 5 0.000000 0.000000 0.000000 0.000000 -0.051833 0.000000
# 6 0.000000 0.000000 0.000000 0.000000 0.000000 0.062234
#
#
# Mechanical properties :
#
#
# Convention : Reuss Voigt Hill
#
# Bulk Modulus (GPa) = 48.61549 50.66956 49.64253
# Shear Modulus (GPa) = 118.73617 6.36184 62.54900
#
# Velocity S-wave (km/s) = 7.95508 1.84138 5.77382
# Velocity P-wave (km/s) = 10.50183 5.61484 8.42066
#
# Compressibility (1/GPa) = 0.02056958
#
# Stress axis : x y z
#
# Youngs Moduli (GPa) = 69.83290 107.53886 80.42119
#
# Poissons Ratio (x) = 0.41723 0.22003
# Poissons Ratio (y) = 0.27094 0.09057
# Poissons Ratio (z) = 0.19106 0.12111
#
# Static dielectric constant tensor:
#      x y z
#    x 1.676350 0.000000 0.000000 
#    y 0.000000 1.684850 0.000000 
#    z 0.000000 0.000000 1.681460 
# 
# From -- ./inp_files/22791.got.cif
#   From: 2010.05.17/outbox.cif.g08.bks.cpg/sg65_12_cif.got.tgz:22791.got - 2010.06.03 17:01:31.
