data_PCOD9487927
_publ_section_title
;
Structure prediction by ZEFSAII (Michael W. Deem and Ramdas Pophale) SiO2 
 PCOD9487927
Probable space group: C M M M
;
_chemical_formula_sum "Si O2"
_cell_formula_units_Z 88
_cell_length_a 36.917317
_cell_length_b 9.068744
_cell_length_c 20.113353
_cell_angle_alpha 90.000000
_cell_angle_beta 90.000000
_cell_angle_gamma 90.000000
_cell_volume 6733.823811
_symmetry_space_group_name_H-M "C M M M"
_symmetry_group_IT_number 65
_symmetry_cell_setting 'orthorhombic'
loop_
_space_group_symop_operation_xyz
x,y,z
-x,-y,z
x,-y,-z
-x,y,-z
-x,-y,-z
x,y,-z
-x,y,z
x,-y,z
1/2+x,1/2+y,z
1/2-x,1/2-y,z
1/2+x,1/2-y,-z
1/2-x,1/2+y,-z
1/2-x,1/2-y,-z
1/2+x,1/2+y,-z
1/2-x,1/2+y,z
1/2+x,1/2-y,z
loop_
_atom_site_type_symbol
_atom_site_label
_atom_site_fract_x
_atom_site_fract_y
_atom_site_fract_z
Si Si1 0.138082 0.824761 0.420402
Si Si2 0.500000 0.325803 0.420339
Si Si3 0.286739 0.170024 0.580839
Si Si4 0.543782 0.325804 0.927230
Si Si5 0.930638 0.677574 0.351995
Si Si6 0.457686 0.823452 0.207702
O O1 0.133493 0.801429 0.500000
O O2 0.176982 0.757713 0.400809
O O3 0.105912 0.743545 0.382182
O O4 0.137105 0.000000 0.408671
O O5 0.500000 0.500000 0.403604
O O6 0.500000 0.312739 0.500000
O O7 0.464610 0.247625 0.390667
O O8 0.285741 0.169435 0.500000
O O9 0.250000 0.250000 0.603420
O O10 0.288136 0.000000 0.602562
O O11 0.500000 0.308706 0.927583
O O12 0.551228 0.500000 0.922840
O O13 0.556536 0.245872 0.860696
O O14 0.556705 0.272379 0.000000
O O15 0.931402 0.500000 0.358498
O O16 0.936036 0.715579 0.274204
O O17 0.500000 0.778385 0.217257
O O18 0.457443 0.000000 0.201239
#
# Coordination Sequence:
#
# PCOD9487927 Si02
#       6
#    16   8  16  16  16  16
#     4  10  20  32  44  60  81 103 132 170 207 246
#     4  11  23  35  45  57  72  95 132 175 215 252
#     4   9  16  27  44  64  83 103 126 155 196 243
#     4   8  14  24  38  57  77  95 119 152 190 233
#     4  11  21  33  45  58  77 102 134 171 209 247
#     4   9  17  29  41  55  75  98 128 163 199 240
#
# _framework density 13.068355
#
# number of rings (size 3 to 8) (size 9 to 14) (size 15 to 20)
#    0.000    2.455    0.909    3.000    0.000    8.000 
#    0.000    1.818    0.000    0.000    0.000    0.000 
#    0.000    0.000    0.000    0.000    0.000    0.909 
#
# Total GULP energy -245181.643060 kJ/mol
# GULP energy per Si atom -5572.310070 kJ/mol
# Density = 1.303861 g / cm^3
# Si number density = 13.068355 Si / 1000 Ang^3
#
#
#
# Elastic Constant Matrix: (Units=GPa)
#
#
# Indices 1 2 3 4 5 6 
#
# 1 97.0803 48.9855 48.5439 0.0000 0.0000 0.0000
# 2 48.9855 72.1342 54.0202 0.0000 0.0000 0.0000
# 3 48.5439 54.0202 87.4352 0.0000 0.0000 0.0000
# 4 0.0000 0.0000 0.0000 21.2221 0.0000 0.0000
# 5 0.0000 0.0000 0.0000 0.0000 0.3541 0.0000
# 6 0.0000 0.0000 0.0000 0.0000 0.0000 21.8557
#
#
#
# Elastic Compliance Matrix: (Units=1/GPa)
#
#
# Indices 1 2 3 4 5 6 
#
# 1 0.016442 -0.008057 -0.004150 0.000000 0.000000 0.000000
# 2 -0.008057 0.029749 -0.013907 0.000000 0.000000 0.000000
# 3 -0.004150 -0.013907 0.022333 0.000000 0.000000 0.000000
# 4 0.000000 0.000000 0.000000 0.047121 0.000000 0.000000
# 5 0.000000 0.000000 0.000000 0.000000 2.823668 0.000000
# 6 0.000000 0.000000 0.000000 0.000000 0.000000 0.045755
#
#
# Mechanical properties :
#
#
# Convention : Reuss Voigt Hill
#
# Bulk Modulus (GPa) = 61.36604 62.19434 61.78019
# Shear Modulus (GPa) = 1.64326 15.69304 8.66815
#
# Velocity S-wave (km/s) = 1.12257 3.46908 2.57824
# Velocity P-wave (km/s) = 6.98140 7.98379 7.49936
#
# Compressibility (1/GPa) = 0.01629566
#
# Stress axis : x y z
#
# Youngs Moduli (GPa) = 60.82109 33.61463 44.77629
#
# Poissons Ratio (x) = 0.27084 0.18584
# Poissons Ratio (y) = 0.49004 0.62268
# Poissons Ratio (z) = 0.25243 0.46746
#
# Static dielectric constant tensor:
#      x y z
#    x 1.403650 0.000000 0.000000 
#    y 0.000000 1.436860 0.000000 
#    z 0.000000 0.000000 1.427480 
# 
# From -- ./inp_files/66213.got.cif
#   From: 2010.05.17/outbox.cif.g08.bks.cpg/sg65_34_cif.got.tgz:66213.got - 2010.06.03 17:01:31.
