data_PCOD9487752
_publ_section_title
;
Structure prediction by ZEFSAII (Michael W. Deem and Ramdas Pophale) SiO2 
 PCOD9487752
Probable space group: C M M M
;
_chemical_formula_sum "Si O2"
_cell_formula_units_Z 88
_cell_length_a 18.445430
_cell_length_b 23.613086
_cell_length_c 14.044027
_cell_angle_alpha 90.000000
_cell_angle_beta 90.000000
_cell_angle_gamma 90.000000
_cell_volume 6116.925464
_symmetry_space_group_name_H-M "C M M M"
_symmetry_group_IT_number 65
_symmetry_cell_setting 'orthorhombic'
loop_
_space_group_symop_operation_xyz
x,y,z
-x,-y,z
x,-y,-z
-x,y,-z
-x,-y,-z
x,y,-z
-x,y,z
x,-y,z
1/2+x,1/2+y,z
1/2-x,1/2-y,z
1/2+x,1/2-y,-z
1/2-x,1/2+y,-z
1/2-x,1/2-y,-z
1/2+x,1/2+y,-z
1/2-x,1/2+y,z
1/2+x,1/2-y,z
loop_
_atom_site_type_symbol
_atom_site_label
_atom_site_fract_x
_atom_site_fract_y
_atom_site_fract_z
Si Si1 0.278722 0.566953 0.385466
Si Si2 0.086850 0.732170 0.387929
Si Si3 0.918497 0.863279 0.615273
Si Si4 0.000000 0.567555 0.610833
Si Si5 0.139646 0.623438 0.708549
Si Si6 0.413226 0.933989 0.111918
O O1 0.270777 0.574714 0.500000
O O2 0.276864 0.500000 0.366603
O O3 0.355184 0.594444 0.355265
O O4 0.213249 0.598209 0.333203
O O5 0.105483 0.723677 0.500000
O O6 0.099396 0.797823 0.362469
O O7 0.129262 0.688465 0.321871
O O8 0.000000 0.722144 0.379414
O O9 0.921532 0.865722 0.500000
O O10 0.000000 0.876396 0.650046
O O11 0.071985 0.591769 0.658323
O O12 0.000000 0.500000 0.619255
O O13 0.000000 0.583400 0.500000
O O14 0.129472 0.607926 0.819033
O O15 0.500000 0.926249 0.125428
O O16 0.397425 0.000000 0.136231
O O17 0.398147 0.926111 0.000000
#
# Coordination Sequence:
#
# PCOD9487752 Si02
#       6
#    16  16  16   8  16  16
#     4  10  20  30  41  63  92 118 148 183 217 259
#     4   9  16  27  43  63  87 116 151 180 205 251
#     4   8  16  31  47  61  82 115 152 189 221 250
#     4  11  20  26  35  55  87 127 153 163 190 241
#     4  12  19  27  42  62  90 119 145 177 214 257
#     4   9  17  29  43  58  79 113 157 193 216 246
#
# _framework density 14.386312
#
# number of rings (size 3 to 8) (size 9 to 14) (size 15 to 20)
#    0.000    2.273    1.818    4.909    0.000    2.545 
#    0.000    4.545    0.000    0.000    0.000    2.545 
#    0.000    2.182    0.000    3.818    0.000    0.182 
#
# Total GULP energy -245304.590384 kJ/mol
# GULP energy per Si atom -5575.104327 kJ/mol
# Density = 1.435357 g / cm^3
# Si number density = 14.386312 Si / 1000 Ang^3
#
#
#
# Elastic Constant Matrix: (Units=GPa)
#
#
# Indices 1 2 3 4 5 6 
#
# 1 81.0522 34.9697 14.0000 0.0000 0.0000 0.0000
# 2 34.9697 37.9391 7.1479 0.0000 0.0000 0.0000
# 3 14.0000 7.1479 28.6013 0.0000 0.0000 0.0000
# 4 0.0000 0.0000 0.0000 -0.4409 0.0000 0.0000
# 5 0.0000 0.0000 0.0000 0.0000 9.0564 0.0000
# 6 0.0000 0.0000 0.0000 0.0000 0.0000 16.6411
#
#
#
# Elastic Compliance Matrix: (Units=1/GPa)
#
#
# Indices 1 2 3 4 5 6 
#
# 1 0.021366 -0.018599 -0.005810 0.000000 0.000000 0.000000
# 2 -0.018599 0.043851 -0.001855 0.000000 0.000000 0.000000
# 3 -0.005810 -0.001855 0.038271 0.000000 0.000000 0.000000
# 4 0.000000 0.000000 0.000000 -2.268158 0.000000 0.000000
# 5 0.000000 0.000000 0.000000 0.000000 0.110420 0.000000
# 6 0.000000 0.000000 0.000000 0.000000 0.000000 0.060092
#
#
# Mechanical properties :
#
#
# Convention : Reuss Voigt Hill
#
# Bulk Modulus (GPa) = 19.62346 28.86976 24.24661
# Shear Modulus (GPa) = -2.59788 11.14964 4.27588
#
# Velocity S-wave (km/s) = -1.34526 2.78693 1.72587
# Velocity P-wave (km/s) = 3.35515 5.51970 4.56750
#
# Compressibility (1/GPa) = 0.05095941
#
# Stress axis : x y z
#
# Youngs Moduli (GPa) = 46.80399 22.80463 26.12937
#
# Poissons Ratio (x) = 0.42414 0.15181
# Poissons Ratio (y) = 0.87050 0.04847
# Poissons Ratio (z) = 0.27194 0.04231
#
# Static dielectric constant tensor:
#      x y z
#    x 1.468110 0.000000 0.000000 
#    y 0.000000 1.487180 0.000000 
#    z 0.000000 0.000000 1.464620 
# 
# From -- ./inp_files/42972.got.cif
#   From: 2010.05.17/outbox.cif.g08.bks.cpg/sg65_22_cif.got.tgz:42972.got - 2010.06.03 17:01:31.
