data_PCOD9487173
_publ_section_title
;
Structure prediction by ZEFSAII (Michael W. Deem and Ramdas Pophale) SiO2 
 PCOD9487173
Probable space group: C M M M
;
_chemical_formula_sum "Si O2"
_cell_formula_units_Z 76
_cell_length_a 24.565473
_cell_length_b 15.793792
_cell_length_c 11.174071
_cell_angle_alpha 90.000000
_cell_angle_beta 90.000000
_cell_angle_gamma 90.000000
_cell_volume 4335.338090
_symmetry_space_group_name_H-M "C M M M"
_symmetry_group_IT_number 65
_symmetry_cell_setting 'orthorhombic'
loop_
_space_group_symop_operation_xyz
x,y,z
-x,-y,z
x,-y,-z
-x,y,-z
-x,-y,-z
x,y,-z
-x,y,z
x,-y,z
1/2+x,1/2+y,z
1/2-x,1/2-y,z
1/2+x,1/2-y,-z
1/2-x,1/2+y,-z
1/2-x,1/2-y,-z
1/2+x,1/2+y,-z
1/2-x,1/2+y,z
1/2+x,1/2-y,z
loop_
_atom_site_type_symbol
_atom_site_label
_atom_site_fract_x
_atom_site_fract_y
_atom_site_fract_z
Si Si1 0.000000 0.173105 0.256148
Si Si2 0.408651 0.094789 0.000000
Si Si3 0.380685 0.905813 0.266850
Si Si4 0.500000 0.140888 0.641040
Si Si5 0.688238 0.252373 0.643666
Si Si6 0.500000 0.761847 0.000000
Si Si7 0.390838 0.402743 0.356249
O O1 0.946427 0.120918 0.289526
O O2 0.000000 0.258397 0.336479
O O3 0.000000 0.205818 0.119698
O O4 0.376005 0.099336 0.123462
O O5 0.449496 0.173410 0.000000
O O6 0.434731 0.000000 0.000000
O O7 0.444598 0.893623 0.299808
O O8 0.345885 0.830752 0.322748
O O9 0.364258 0.000000 0.307190
O O10 0.500000 0.121921 0.500000
O O11 0.690821 0.255945 0.500000
O O12 0.750000 0.250000 0.690029
O O13 0.654925 0.335555 0.682039
O O14 0.399665 0.393248 0.500000
O O15 0.375422 0.500000 0.334279
#
# Coordination Sequence:
#
# PCOD9487173 Si02
#       7
#     8   8  16   8  16   4  16
#     4  12  21  33  55  81 110 142 181 222 271 321
#     4  10  19  34  53  76 108 148 192 225 260 323
#     4  11  22  36  56  82 114 148 183 224 273 330
#     4  12  21  32  53  81 115 146 173 215 275 331
#     4  10  21  37  56  81 112 144 182 229 280 331
#     4  12  19  32  53  76 110 154 180 216 274 328
#     4  10  20  36  57  79 106 144 186 227 272 326
#
# _framework density 17.530352000000001
#
# number of rings (size 3 to 8) (size 9 to 14) (size 15 to 20)
#    0.000    1.263    4.211    2.368    0.000    5.474 
#    0.000    3.684    0.000    0.000    0.000    0.000 
#    0.000    0.000    0.000    0.000    0.000    0.000 
#
# Total GULP energy -212123.735366 kJ/mol
# GULP energy per Si atom -5582.203562 kJ/mol
# Density = 1.749045 g / cm^3
# Si number density = 17.530352 Si / 1000 Ang^3
#
#
#
# Elastic Constant Matrix: (Units=GPa)
#
#
# Indices 1 2 3 4 5 6 
#
# 1 127.4998 72.1441 18.9082 0.0000 0.0000 0.0000
# 2 72.1441 151.2242 14.8411 0.0000 0.0000 0.0000
# 3 18.9082 14.8411 45.0557 0.0000 0.0000 0.0000
# 4 0.0000 0.0000 0.0000 27.8058 0.0000 0.0000
# 5 0.0000 0.0000 0.0000 0.0000 -26.3591 0.0000
# 6 0.0000 0.0000 0.0000 0.0000 0.0000 5.3813
#
#
#
# Elastic Compliance Matrix: (Units=1/GPa)
#
#
# Indices 1 2 3 4 5 6 
#
# 1 0.011127 -0.005012 -0.003019 0.000000 0.000000 0.000000
# 2 -0.005012 0.009091 -0.000891 0.000000 0.000000 0.000000
# 3 -0.003019 -0.000891 0.023755 0.000000 0.000000 0.000000
# 4 0.000000 0.000000 0.000000 0.035964 0.000000 0.000000
# 5 0.000000 0.000000 0.000000 0.000000 -0.037938 0.000000
# 6 0.000000 0.000000 0.000000 0.000000 0.000000 0.185830
#
#
# Mechanical properties :
#
#
# Convention : Reuss Voigt Hill
#
# Bulk Modulus (GPa) = 38.27093 59.50739 48.88916
# Shear Modulus (GPa) = 19.65541 15.89136 17.77338
#
# Velocity S-wave (km/s) = 3.35210 3.01409 3.18758
# Velocity P-wave (km/s) = 6.07130 6.79206 6.44177
#
# Compressibility (1/GPa) = 0.02612950
#
# Stress axis : x y z
#
# Youngs Moduli (GPa) = 89.87343 109.99634 42.09620
#
# Poissons Ratio (x) = 0.55130 0.12707
# Poissons Ratio (y) = 0.45044 0.03752
# Poissons Ratio (z) = 0.27129 0.09803
#
# Static dielectric constant tensor:
#      x y z
#    x 1.587270 0.000000 0.000000 
#    y 0.000000 1.601410 0.000000 
#    z 0.000000 0.000000 1.587230 
# 
# From -- ./inp_files/30460.got.cif
#   From: 2010.05.17/outbox.cif.g08.bks.cpg/sg65_16_cif.got.tgz:30460.got - 2010.06.03 17:01:31.
