data_PCOD9487981
_publ_section_title
;
Structure prediction by ZEFSAII (Michael W. Deem and Ramdas Pophale) SiO2 
 PCOD9487981
Probable space group: C M M M
;
_chemical_formula_sum "Si O2"
_cell_formula_units_Z 120
_cell_length_a 22.743208
_cell_length_b 36.350929
_cell_length_c 7.329332
_cell_angle_alpha 90.000000
_cell_angle_beta 90.000000
_cell_angle_gamma 90.000000
_cell_volume 6059.428038
_symmetry_space_group_name_H-M "C M M M"
_symmetry_group_IT_number 65
_symmetry_cell_setting 'orthorhombic'
loop_
_space_group_symop_operation_xyz
x,y,z
-x,-y,z
x,-y,-z
-x,y,-z
-x,-y,-z
x,y,-z
-x,y,z
x,-y,z
1/2+x,1/2+y,z
1/2-x,1/2-y,z
1/2+x,1/2-y,-z
1/2-x,1/2+y,-z
1/2-x,1/2-y,-z
1/2+x,1/2+y,-z
1/2-x,1/2+y,z
1/2+x,1/2-y,z
loop_
_atom_site_type_symbol
_atom_site_label
_atom_site_fract_x
_atom_site_fract_y
_atom_site_fract_z
Si Si1 0.568202 0.500000 0.222672
Si Si2 0.809644 0.230273 0.288707
Si Si3 0.063726 0.661337 0.220811
Si Si4 0.802083 0.855874 0.220428
Si Si5 0.564532 0.247199 0.289687
Si Si6 0.151216 0.067181 0.221604
Si Si7 0.218398 0.459689 0.221925
Si Si8 0.326209 0.115235 0.222025
O O1 0.500000 0.500000 0.277650
O O2 0.602174 0.537513 0.280606
O O3 0.569869 0.500000 0.000000
O O4 0.811731 0.242705 0.500000
O O5 0.750000 0.250000 0.213750
O O6 0.808885 0.186006 0.282608
O O7 0.873155 0.240854 0.206381
O O8 0.066374 0.703075 0.286918
O O9 0.118566 0.638073 0.286839
O O10 0.000000 0.645789 0.271833
O O11 0.066185 0.662889 0.000000
O O12 0.845371 0.889592 0.278768
O O13 0.736283 0.867671 0.274926
O O14 0.804710 0.855146 0.000000
O O15 0.564113 0.260227 0.500000
O O16 0.500000 0.257830 0.211685
O O17 0.214719 0.050446 0.272769
O O18 0.148488 0.067864 0.000000
O O19 0.202801 0.500000 0.286011
O O20 0.176084 0.427010 0.280134
O O21 0.218441 0.459936 0.000000
O O22 0.327279 0.115967 0.000000
#
# Coordination Sequence:
#
# PCOD9487981 Si02
#       8
#     8  16  16  16  16  16  16  16
#     4   9  14  20  34  56  85 117 140 168 218 265
#     4  10  20  32  46  65  88 112 141 179 220 258
#     4   9  16  26  41  60  82 106 132 167 209 247
#     4   9  17  28  43  63  87 113 140 175 215 256
#     4   9  18  32  47  61  79 106 140 173 203 244
#     4   8  13  22  35  54  80 106 137 172 204 241
#     4   8  11  17  32  51  73 102 133 164 191 225
#     4   8  14  23  36  57  83 108 135 166 203 244
#
# _framework density 19.803850000000001
#
# number of rings (size 3 to 8) (size 9 to 14) (size 15 to 20)
#    0.000    3.267    0.667    2.400    0.000    0.800 
#    0.000    0.667    0.000    1.200    0.000    3.267 
#    0.000    2.400    0.000    3.333    0.000    3.467 
#
# Total GULP energy -334167.916774 kJ/mol
# GULP energy per Si atom -5569.465280 kJ/mol
# Density = 1.975878 g / cm^3
# Si number density = 19.803850 Si / 1000 Ang^3
#
#
#
# Elastic Constant Matrix: (Units=GPa)
#
#
# Indices 1 2 3 4 5 6 
#
# 1 152.2723 82.1863 7.8457 0.0000 0.0000 0.0000
# 2 82.1863 128.5681 -6.3760 0.0000 0.0000 0.0000
# 3 7.8457 -6.3760 75.9869 0.0000 0.0000 0.0000
# 4 0.0000 0.0000 0.0000 24.2528 0.0000 0.0000
# 5 0.0000 0.0000 0.0000 0.0000 -28.7624 0.0000
# 6 0.0000 0.0000 0.0000 0.0000 0.0000 33.4375
#
#
#
# Elastic Compliance Matrix: (Units=1/GPa)
#
#
# Indices 1 2 3 4 5 6 
#
# 1 0.010219 -0.006612 -0.001610 0.000000 0.000000 0.000000
# 2 -0.006612 0.012089 0.001697 0.000000 0.000000 0.000000
# 3 -0.001610 0.001697 0.013469 0.000000 0.000000 0.000000
# 4 0.000000 0.000000 0.000000 0.041232 0.000000 0.000000
# 5 0.000000 0.000000 0.000000 0.000000 -0.034768 0.000000
# 6 0.000000 0.000000 0.000000 0.000000 0.000000 0.029907
#
#
# Mechanical properties :
#
#
# Convention : Reuss Voigt Hill
#
# Bulk Modulus (GPa) = 44.00143 58.23772 51.11957
# Shear Modulus (GPa) = 53.89456 23.99700 38.94578
#
# Velocity S-wave (km/s) = 5.22238 3.48477 4.43942
# Velocity P-wave (km/s) = 7.65710 6.75741 7.22128
#
# Compressibility (1/GPa) = 0.02272654
#
# Stress axis : x y z
#
# Youngs Moduli (GPa) = 97.85700 82.71987 74.24570
#
# Poissons Ratio (x) = 0.54697 0.11953
# Poissons Ratio (y) = 0.64706 -0.12600
# Poissons Ratio (z) = 0.15754 -0.14038
#
# Static dielectric constant tensor:
#      x y z
#    x 1.696560 0.000000 0.000000 
#    y 0.000000 1.687480 0.000000 
#    z 0.000000 0.000000 1.758280 
# 
# From -- ./inp_files/29781.got.cif
#   From: 2010.05.17/outbox.cif.g08.bks.cpg/sg65_15_cif.got.tgz:29781.got - 2010.06.03 17:01:31.
