data_PCOD9487824
_publ_section_title
;
Structure prediction by ZEFSAII (Michael W. Deem and Ramdas Pophale) SiO2 
 PCOD9487824
Probable space group: C M M M
;
_chemical_formula_sum "Si O2"
_cell_formula_units_Z 80
_cell_length_a 27.697111
_cell_length_b 19.438426
_cell_length_c 7.523739
_cell_angle_alpha 90.000000
_cell_angle_beta 90.000000
_cell_angle_gamma 90.000000
_cell_volume 4050.692618
_symmetry_space_group_name_H-M "C M M M"
_symmetry_group_IT_number 65
_symmetry_cell_setting 'orthorhombic'
loop_
_space_group_symop_operation_xyz
x,y,z
-x,-y,z
x,-y,-z
-x,y,-z
-x,-y,-z
x,y,-z
-x,y,z
x,-y,z
1/2+x,1/2+y,z
1/2-x,1/2-y,z
1/2+x,1/2-y,-z
1/2-x,1/2+y,-z
1/2-x,1/2-y,-z
1/2+x,1/2+y,-z
1/2-x,1/2+y,z
1/2+x,1/2-y,z
loop_
_atom_site_type_symbol
_atom_site_label
_atom_site_fract_x
_atom_site_fract_y
_atom_site_fract_z
Si Si1 0.400162 0.717705 0.284946
Si Si2 0.199971 0.716459 0.717614
Si Si3 0.556305 0.424594 0.283426
Si Si4 0.946633 0.639024 0.791696
Si Si5 0.155824 0.576051 0.707888
O O1 0.401072 0.717209 0.500000
O O2 0.346307 0.738390 0.229232
O O3 0.416119 0.642940 0.220897
O O4 0.435292 0.779816 0.229525
O O5 0.200549 0.715001 0.500000
O O6 0.250000 0.750000 0.776024
O O7 0.187811 0.639030 0.780543
O O8 0.558056 0.424183 0.500000
O O9 0.500000 0.418996 0.234485
O O10 0.574149 0.500000 0.225736
O O11 0.900262 0.599412 0.716309
O O12 0.000000 0.623355 0.718178
O O13 0.947235 0.622863 0.000000
O O14 0.168198 0.571719 0.500000
O O15 0.161857 0.500000 0.786246
#
# Coordination Sequence:
#
# PCOD9487824 Si02
#       5
#    16  16  16  16  16
#     4   9  16  27  45  65  86 117 154 186 217 262
#     4   8  14  26  44  65  88 112 140 178 220 255
#     4   8  13  21  35  58  86 111 137 174 216 253
#     4  10  20  31  44  65  92 120 149 184 228 273
#     4   9  18  32  49  68  90 119 154 186 217 261
#
# _framework density 19.749708999999999
#
# number of rings (size 3 to 8) (size 9 to 14) (size 15 to 20)
#    0.000    3.200    0.000    3.000    0.000    3.200 
#    0.000    3.000    0.000   16.200    0.000    2.800 
#    0.000    0.000    0.000    0.000    0.000    0.000 
#
# Total GULP energy -222973.931683 kJ/mol
# GULP energy per Si atom -5574.348292 kJ/mol
# Density = 1.970476 g / cm^3
# Si number density = 19.749709 Si / 1000 Ang^3
#
#
#
# Elastic Constant Matrix: (Units=GPa)
#
#
# Indices 1 2 3 4 5 6 
#
# 1 107.6483 67.9005 -0.6771 0.0000 0.0000 0.0000
# 2 67.9005 181.8257 1.6921 0.0000 0.0000 0.0000
# 3 -0.6771 1.6921 50.0454 0.0000 0.0000 0.0000
# 4 0.0000 0.0000 0.0000 -26.4184 0.0000 0.0000
# 5 0.0000 0.0000 0.0000 0.0000 41.8783 0.0000
# 6 0.0000 0.0000 0.0000 0.0000 0.0000 10.9977
#
#
#
# Elastic Compliance Matrix: (Units=1/GPa)
#
#
# Indices 1 2 3 4 5 6 
#
# 1 0.012157 -0.004543 0.000318 0.000000 0.000000 0.000000
# 2 -0.004543 0.007199 -0.000305 0.000000 0.000000 0.000000
# 3 0.000318 -0.000305 0.019996 0.000000 0.000000 0.000000
# 4 0.000000 0.000000 0.000000 -0.037852 0.000000 0.000000
# 5 0.000000 0.000000 0.000000 0.000000 0.023879 0.000000
# 6 0.000000 0.000000 0.000000 0.000000 0.000000 0.090928
#
#
# Mechanical properties :
#
#
# Convention : Reuss Voigt Hill
#
# Bulk Modulus (GPa) = 33.01063 53.03893 43.02478
# Shear Modulus (GPa) = 36.91020 23.33179 30.12099
#
# Velocity S-wave (km/s) = 4.32777 3.44084 3.90954
# Velocity P-wave (km/s) = 6.45937 6.53450 6.49705
#
# Compressibility (1/GPa) = 0.03029327
#
# Stress axis : x y z
#
# Youngs Moduli (GPa) = 82.25750 138.90688 50.00882
#
# Poissons Ratio (x) = 0.63103 -0.01591
# Poissons Ratio (y) = 0.37368 0.01525
# Poissons Ratio (z) = -0.02616 0.04235
#
# Static dielectric constant tensor:
#      x y z
#    x 1.661990 0.000000 0.000000 
#    y 0.000000 1.711470 0.000000 
#    z 0.000000 0.000000 1.728890 
# 
# From -- ./inp_files/16042.got.cif
#   From: 2010.05.17/outbox.cif.g08.bks.cpg/sg65_9_cif.got.tgz:16042.got - 2010.06.03 17:01:31.
