data_PCOD9487053
_publ_section_title
;
Structure prediction by ZEFSAII (Michael W. Deem and Ramdas Pophale) SiO2 
 PCOD9487053
Probable space group: C M M M
;
_chemical_formula_sum "Si O2"
_cell_formula_units_Z 66
_cell_length_a 26.159258
_cell_length_b 15.850905
_cell_length_c 8.797328
_cell_angle_alpha 90.000000
_cell_angle_beta 90.000000
_cell_angle_gamma 90.000000
_cell_volume 3647.793699
_symmetry_space_group_name_H-M "C M M M"
_symmetry_group_IT_number 65
_symmetry_cell_setting 'orthorhombic'
loop_
_space_group_symop_operation_xyz
x,y,z
-x,-y,z
x,-y,-z
-x,y,-z
-x,-y,-z
x,y,-z
-x,y,z
x,-y,z
1/2+x,1/2+y,z
1/2-x,1/2-y,z
1/2+x,1/2-y,-z
1/2-x,1/2+y,-z
1/2-x,1/2-y,-z
1/2+x,1/2+y,-z
1/2-x,1/2+y,z
1/2+x,1/2-y,z
loop_
_atom_site_type_symbol
_atom_site_label
_atom_site_fract_x
_atom_site_fract_y
_atom_site_fract_z
Si Si1 0.365854 0.851286 0.181462
Si Si2 0.000000 0.000000 0.500000
Si Si3 0.348953 0.327177 0.683673
Si Si4 0.757962 0.402296 0.319578
Si Si5 0.441112 0.000000 0.185538
Si Si6 0.105113 0.000000 0.668932
O O1 0.371180 0.757693 0.247091
O O2 0.310242 0.883547 0.233781
O O3 0.409089 0.917484 0.233961
O O4 0.367481 0.848484 0.000000
O O5 0.954436 0.000000 0.629516
O O6 0.353201 0.321269 0.500000
O O7 0.289253 0.341964 0.721835
O O8 0.377663 0.411773 0.738612
O O9 0.767270 0.391788 0.500000
O O10 0.742813 0.500000 0.293685
O O11 0.500000 0.000000 0.236146
O O12 0.441450 0.000000 0.000000
O O13 0.131970 0.000000 0.500000
#
# Coordination Sequence:
#
# PCOD9487053 Si02
#       6
#    16   2  16  16   8   8
#     4  11  22  36  55  81 109 143 186 227 272 322
#     4   8  16  32  60  84 102 146 176 224 280 324
#     4  10  19  35  56  82 112 145 178 220 265 332
#     4  10  19  33  56  79 108 148 183 216 268 326
#     4   9  20  41  59  72 101 148 189 224 270 329
#     4   8  16  33  54  78 110 136 177 215 269 321
#
# _framework density 18.093128
#
# number of rings (size 3 to 8) (size 9 to 14) (size 15 to 20)
#    0.364    1.818    2.424    1.455    0.000    3.879 
#    2.182    0.606    0.000    5.091    0.000    0.848 
#    0.000    0.000    0.000    0.000    0.000    0.000 
#
# Total GULP energy -183729.738973 kJ/mol
# GULP energy per Si atom -5567.567848 kJ/mol
# Density = 1.805195 g / cm^3
# Si number density = 18.093128 Si / 1000 Ang^3
#
#
#
# Elastic Constant Matrix: (Units=GPa)
#
#
# Indices 1 2 3 4 5 6 
#
# 1 148.2215 86.7855 28.3590 0.0000 0.0000 0.0000
# 2 86.7855 170.7574 35.0605 0.0000 0.0000 0.0000
# 3 28.3590 35.0605 19.0139 0.0000 0.0000 0.0000
# 4 0.0000 0.0000 0.0000 12.3815 0.0000 0.0000
# 5 0.0000 0.0000 0.0000 0.0000 18.3625 0.0000
# 6 0.0000 0.0000 0.0000 0.0000 0.0000 12.7897
#
#
#
# Elastic Compliance Matrix: (Units=1/GPa)
#
#
# Indices 1 2 3 4 5 6 
#
# 1 0.010558 -0.003432 -0.009419 0.000000 0.000000 0.000000
# 2 -0.003432 0.010540 -0.014316 0.000000 0.000000 0.000000
# 3 -0.009419 -0.014316 0.093039 0.000000 0.000000 0.000000
# 4 0.000000 0.000000 0.000000 0.080766 0.000000 0.000000
# 5 0.000000 0.000000 0.000000 0.000000 0.054459 0.000000
# 6 0.000000 0.000000 0.000000 0.000000 0.000000 0.078188
#
#
# Mechanical properties :
#
#
# Convention : Reuss Voigt Hill
#
# Bulk Modulus (GPa) = 16.72151 70.93364 43.82758
# Shear Modulus (GPa) = 12.44343 21.22593 16.83468
#
# Velocity S-wave (km/s) = 2.62533 3.42884 3.05363
# Velocity P-wave (km/s) = 4.29556 7.41389 6.05878
#
# Compressibility (1/GPa) = 0.05980321
#
# Stress axis : x y z
#
# Youngs Moduli (GPa) = 94.71148 94.87560 10.74818
#
# Poissons Ratio (x) = 0.32564 0.10123
# Poissons Ratio (y) = 0.32508 0.15387
# Poissons Ratio (z) = 0.89206 1.35825
#
# Static dielectric constant tensor:
#      x y z
#    x 1.600970 0.000000 0.000000 
#    y 0.000000 1.657650 0.000000 
#    z 0.000000 0.000000 1.623420 
# 
# From -- ./inp_files/15692.got.cif
#   From: 2010.05.17/outbox.cif.g08.bks.cpg/sg65_8_cif.got.tgz:15692.got - 2010.06.03 17:01:31.
