data_PCOD9487465
_publ_section_title
;
Structure prediction by ZEFSAII (Michael W. Deem and Ramdas Pophale) SiO2 
 PCOD9487465
Probable space group: C M M M
;
_chemical_formula_sum "Si O2"
_cell_formula_units_Z 66
_cell_length_a 14.840554
_cell_length_b 19.782464
_cell_length_c 11.857225
_cell_angle_alpha 90.000000
_cell_angle_beta 90.000000
_cell_angle_gamma 90.000000
_cell_volume 3481.076429
_symmetry_space_group_name_H-M "C M M M"
_symmetry_group_IT_number 65
_symmetry_cell_setting 'orthorhombic'
loop_
_space_group_symop_operation_xyz
x,y,z
-x,-y,z
x,-y,-z
-x,y,-z
-x,-y,-z
x,y,-z
-x,y,z
x,-y,z
1/2+x,1/2+y,z
1/2-x,1/2-y,z
1/2+x,1/2-y,-z
1/2-x,1/2+y,-z
1/2-x,1/2-y,-z
1/2+x,1/2+y,-z
1/2-x,1/2+y,z
1/2+x,1/2-y,z
loop_
_atom_site_type_symbol
_atom_site_label
_atom_site_fract_x
_atom_site_fract_y
_atom_site_fract_z
Si Si1 0.893977 0.826966 0.365994
Si Si2 0.392864 0.187695 0.758030
Si Si3 0.107765 0.749784 0.000000
Si Si4 0.252359 0.422425 0.752822
Si Si5 0.825182 0.901737 0.000000
Si Si6 0.500000 0.500000 0.000000
O O1 0.881460 0.828358 0.500000
O O2 0.869647 0.753216 0.317167
O O3 0.835421 0.884216 0.306469
O O4 0.000000 0.837338 0.340544
O O5 0.500000 0.175949 0.748702
O O6 0.335096 0.122575 0.727242
O O7 0.371332 0.208993 0.886634
O O8 0.156216 0.821618 0.000000
O O9 0.000000 0.762130 0.000000
O O10 0.244710 0.500000 0.716683
O O11 0.272338 0.420292 0.886473
O O12 0.919946 0.941466 0.000000
#
# Coordination Sequence:
#
# PCOD9487465 Si02
#       6
#    16  16   8  16   8   2
#     4  10  23  42  64  89 117 153 199 251 304 355
#     4  10  22  40  63  88 118 156 202 252 292 343
#     4  10  19  34  61  89 113 152 202 240 285 342
#     4  12  25  38  59  90 125 161 197 238 297 364
#     4  12  23  35  57  91 127 160 194 235 299 360
#     4  12  24  36  56  88 140 176 174 248 308 378
#
# _framework density 18.959651000000001
#
# number of rings (size 3 to 8) (size 9 to 14) (size 15 to 20)
#    0.000    1.212    4.242    1.455    1.697    4.364 
#    0.000    1.212    0.000    3.636    0.000    5.091 
#    0.000    0.000    0.000    0.000    0.000    0.000 
#
# Total GULP energy -184280.014739 kJ/mol
# GULP energy per Si atom -5584.242871 kJ/mol
# Density = 1.891650 g / cm^3
# Si number density = 18.959651 Si / 1000 Ang^3
#
#
#
# Elastic Constant Matrix: (Units=GPa)
#
#
# Indices 1 2 3 4 5 6 
#
# 1 77.6509 86.9313 37.7228 0.0000 0.0000 0.0000
# 2 86.9313 191.9001 50.0317 0.0000 0.0000 0.0000
# 3 37.7228 50.0317 68.6440 0.0000 0.0000 0.0000
# 4 0.0000 0.0000 0.0000 -4.7592 0.0000 0.0000
# 5 0.0000 0.0000 0.0000 0.0000 -5.0154 0.0000
# 6 0.0000 0.0000 0.0000 0.0000 0.0000 7.3906
#
#
#
# Elastic Compliance Matrix: (Units=1/GPa)
#
#
# Indices 1 2 3 4 5 6 
#
# 1 0.029246 -0.011183 -0.007921 0.000000 0.000000 0.000000
# 2 -0.011183 0.010710 -0.001660 0.000000 0.000000 0.000000
# 3 -0.007921 -0.001660 0.020131 0.000000 0.000000 0.000000
# 4 0.000000 0.000000 0.000000 -0.210121 0.000000 0.000000
# 5 0.000000 0.000000 0.000000 0.000000 -0.199387 0.000000
# 6 0.000000 0.000000 0.000000 0.000000 0.000000 0.135308
#
#
# Mechanical properties :
#
#
# Convention : Reuss Voigt Hill
#
# Bulk Modulus (GPa) = 53.88558 76.39627 65.14093
# Shear Modulus (GPa) = -30.04831 10.42383 -9.81224
#
# Velocity S-wave (km/s) = -3.98534 2.34730 -2.27740
# Velocity P-wave (km/s) = 2.70289 6.90855 5.24565
#
# Compressibility (1/GPa) = 0.01855784
#
# Stress axis : x y z
#
# Youngs Moduli (GPa) = 34.19254 93.37007 49.67495
#
# Poissons Ratio (x) = 1.04420 0.39347
# Poissons Ratio (y) = 0.38239 0.08248
# Poissons Ratio (z) = 0.27083 0.15502
#
# Static dielectric constant tensor:
#      x y z
#    x 1.661000 0.000000 0.000000 
#    y 0.000000 1.633970 0.000000 
#    z 0.000000 0.000000 1.647780 
# 
# From -- ./inp_files/24003.got.cif
#   From: 2010.05.17/outbox.cif.g08.bks.cpg/sg65_13_cif.got.tgz:24003.got - 2010.06.03 17:01:31.
