data_PCOD9487466
_publ_section_title
;
Structure prediction by ZEFSAII (Michael W. Deem and Ramdas Pophale) SiO2 
 PCOD9487466
Probable space group: C M M M
;
_chemical_formula_sum "Si O2"
_cell_formula_units_Z 68
_cell_length_a 15.258575
_cell_length_b 21.479452
_cell_length_c 10.500242
_cell_angle_alpha 90.000000
_cell_angle_beta 90.000000
_cell_angle_gamma 90.000000
_cell_volume 3441.410522
_symmetry_space_group_name_H-M "C M M M"
_symmetry_group_IT_number 65
_symmetry_cell_setting 'orthorhombic'
loop_
_space_group_symop_operation_xyz
x,y,z
-x,-y,z
x,-y,-z
-x,y,-z
-x,-y,-z
x,y,-z
-x,y,z
x,-y,z
1/2+x,1/2+y,z
1/2-x,1/2-y,z
1/2+x,1/2-y,-z
1/2-x,1/2+y,-z
1/2-x,1/2-y,-z
1/2+x,1/2+y,-z
1/2-x,1/2+y,z
1/2+x,1/2-y,z
loop_
_atom_site_type_symbol
_atom_site_label
_atom_site_fract_x
_atom_site_fract_y
_atom_site_fract_z
Si Si1 0.154488 0.229339 0.850653
Si Si2 0.616582 0.500000 0.000000
Si Si3 0.218690 0.427458 0.359523
Si Si4 0.099448 0.904668 0.759645
Si Si5 0.598839 0.867056 0.146232
O O1 0.250000 0.250000 0.799517
O O2 0.113798 0.168591 0.788131
O O3 0.098987 0.292312 0.842974
O O4 0.166438 0.213764 0.000000
O O5 0.612613 0.554306 0.112385
O O6 0.196933 0.402433 0.500000
O O7 0.194497 0.500000 0.355180
O O8 0.322325 0.422570 0.334615
O O9 0.167110 0.393942 0.246333
O O10 0.000000 0.915428 0.715463
O O11 0.500000 0.890486 0.167460
O O12 0.624973 0.882110 0.000000
#
# Coordination Sequence:
#
# PCOD9487466 Si02
#       5
#    16   4  16  16  16
#     4  10  19  34  61  94 129 163 200 253 321 375
#     4  12  25  36  60 102 135 168 209 260 312 366
#     4  11  26  44  63  89 125 171 213 257 315 378
#     4  12  23  38  62  95 132 168 210 256 310 375
#     4  10  22  41  66  96 125 159 207 263 318 370
#
# _framework density 19.759340000000002
#
# number of rings (size 3 to 8) (size 9 to 14) (size 15 to 20)
#    0.000    1.176    4.706    1.765    1.647    2.824 
#    0.000    5.882    0.000    2.824    0.000    0.000 
#    0.000    0.000    0.000    0.000    0.000    0.000 
#
# Total GULP energy -189290.020127 kJ/mol
# GULP energy per Si atom -5567.353533 kJ/mol
# Density = 1.971437 g / cm^3
# Si number density = 19.759340 Si / 1000 Ang^3
#
#
#
# Elastic Constant Matrix: (Units=GPa)
#
#
# Indices 1 2 3 4 5 6 
#
# 1 107.4521 23.3544 52.5791 0.0000 0.0000 0.0000
# 2 23.3544 79.8327 38.8819 0.0000 0.0000 0.0000
# 3 52.5791 38.8819 95.9614 0.0000 0.0000 0.0000
# 4 0.0000 0.0000 0.0000 12.6383 0.0000 0.0000
# 5 0.0000 0.0000 0.0000 0.0000 -7.9715 0.0000
# 6 0.0000 0.0000 0.0000 0.0000 0.0000 -26.5061
#
#
#
# Elastic Compliance Matrix: (Units=1/GPa)
#
#
# Indices 1 2 3 4 5 6 
#
# 1 0.012726 -0.000407 -0.006808 0.000000 0.000000 0.000000
# 2 -0.000407 0.015619 -0.006105 0.000000 0.000000 0.000000
# 3 -0.006808 -0.006105 0.016625 0.000000 0.000000 0.000000
# 4 0.000000 0.000000 0.000000 0.079124 0.000000 0.000000
# 5 0.000000 0.000000 0.000000 0.000000 -0.125448 0.000000
# 6 0.000000 0.000000 0.000000 0.000000 0.000000 -0.037727
#
#
# Mechanical properties :
#
#
# Convention : Reuss Voigt Hill
#
# Bulk Modulus (GPa) = 54.55859 56.98633 55.77246
# Shear Modulus (GPa) = -789.97031 6.86088 -391.55472
#
# Velocity S-wave (km/s) = -20.01659 1.86541 -14.09227
# Velocity P-wave (km/s) = 22.50660 5.79159 15.37863
#
# Compressibility (1/GPa) = 0.01832892
#
# Stress axis : x y z
#
# Youngs Moduli (GPa) = 78.57742 64.02500 60.15080
#
# Poissons Ratio (x) = 0.02607 0.40951
# Poissons Ratio (y) = 0.03200 0.36724
# Poissons Ratio (z) = 0.53495 0.39090
#
# Static dielectric constant tensor:
#      x y z
#    x 1.739930 0.000000 0.000000 
#    y 0.000000 1.691260 0.000000 
#    z 0.000000 0.000000 1.680090 
# 
# From -- ./inp_files/24254.got.cif
#   From: 2010.05.17/outbox.cif.g08.bks.cpg/sg65_13_cif.got.tgz:24254.got - 2010.06.03 17:01:31.
