data_PCOD9487438
_publ_section_title
;
Structure prediction by ZEFSAII (Michael W. Deem and Ramdas Pophale) SiO2 
 PCOD9487438
Probable space group: C M M M
;
_chemical_formula_sum "Si O2"
_cell_formula_units_Z 82
_cell_length_a 7.665331
_cell_length_b 24.192806
_cell_length_c 21.114498
_cell_angle_alpha 90.000000
_cell_angle_beta 90.000000
_cell_angle_gamma 90.000000
_cell_volume 3915.596363
_symmetry_space_group_name_H-M "C M M M"
_symmetry_group_IT_number 65
_symmetry_cell_setting 'orthorhombic'
loop_
_space_group_symop_operation_xyz
x,y,z
-x,-y,z
x,-y,-z
-x,y,-z
-x,-y,-z
x,y,-z
-x,y,z
x,-y,z
1/2+x,1/2+y,z
1/2-x,1/2-y,z
1/2+x,1/2-y,-z
1/2-x,1/2+y,-z
1/2-x,1/2-y,-z
1/2+x,1/2+y,-z
1/2-x,1/2+y,z
1/2+x,1/2-y,z
loop_
_atom_site_type_symbol
_atom_site_label
_atom_site_fract_x
_atom_site_fract_y
_atom_site_fract_z
Si Si1 0.795840 0.882671 0.879678
Si Si2 0.292147 0.814297 0.756030
Si Si3 0.712274 0.500000 0.833835
Si Si4 0.287923 0.881454 0.365659
Si Si5 0.292708 0.000000 0.684864
Si Si6 0.804355 0.094393 0.500000
Si Si7 0.500000 0.000000 0.500000
Si Si8 0.710545 0.685078 0.000000
O O1 0.782085 0.848311 0.814964
O O2 0.722969 0.943848 0.866802
O O3 0.722654 0.846668 0.937509
O O4 0.000000 0.890915 0.894065
O O5 0.500000 0.821585 0.758843
O O6 0.250000 0.750000 0.761200
O O7 0.230791 0.839959 0.689515
O O8 0.500000 0.500000 0.834802
O O9 0.763739 0.500000 0.759991
O O10 0.500000 0.881428 0.366813
O O11 0.220927 0.870903 0.435803
O O12 0.227163 0.943236 0.345561
O O13 0.500000 0.000000 0.672232
O O14 0.000000 0.071075 0.500000
O O15 0.653584 0.048102 0.500000
O O16 0.750000 0.750000 0.000000
O O17 0.500000 0.682172 0.000000
#
# Coordination Sequence:
#
# PCOD9487438 Si02
#       8
#    16  16   8  16   8   8   2   8
#     4  10  21  38  59  87 122 156 200 252 306 373
#     4  11  23  39  63  89 119 161 205 258 318 364
#     4  10  20  34  56  88 122 154 189 248 301 361
#     4  10  21  39  62  85 124 164 200 259 318 376
#     4  10  19  34  59  85 117 158 194 235 302 369
#     4  12  25  39  64  93 126 176 215 256 325 386
#     4  12  22  44  60  90 144 164 210 270 312 380
#     4  10  22  39  59  83 115 160 205 254 311 360
#
# _framework density 20.941893
#
# number of rings (size 3 to 8) (size 9 to 14) (size 15 to 20)
#    0.000    1.561    2.927    1.902    1.366    5.073 
#    0.000    2.439    0.000    0.000    0.000    2.732 
#    0.000    0.000    0.000    0.000    0.000    0.000 
#
# Total GULP energy -228856.434271 kJ/mol
# GULP energy per Si atom -5581.864251 kJ/mol
# Density = 2.089423 g / cm^3
# Si number density = 20.941893 Si / 1000 Ang^3
#
#
#
# Elastic Constant Matrix: (Units=GPa)
#
#
# Indices 1 2 3 4 5 6 
#
# 1 55.7755 -8.9257 -9.0418 0.0000 0.0000 0.0000
# 2 -8.9257 156.7719 81.8656 0.0000 0.0000 0.0000
# 3 -9.0418 81.8656 169.7067 0.0000 0.0000 0.0000
# 4 0.0000 0.0000 0.0000 -7.0413 0.0000 0.0000
# 5 0.0000 0.0000 0.0000 0.0000 24.2327 0.0000
# 6 0.0000 0.0000 0.0000 0.0000 0.0000 3.4737
#
#
#
# Elastic Compliance Matrix: (Units=1/GPa)
#
#
# Indices 1 2 3 4 5 6 
#
# 1 0.018143 0.000706 0.000626 0.000000 0.000000 0.000000
# 2 0.000706 0.008554 -0.004089 0.000000 0.000000 0.000000
# 3 0.000626 -0.004089 0.007898 0.000000 0.000000 0.000000
# 4 0.000000 0.000000 0.000000 -0.142019 0.000000 0.000000
# 5 0.000000 0.000000 0.000000 0.000000 0.041267 0.000000
# 6 0.000000 0.000000 0.000000 0.000000 0.000000 0.287880
#
#
# Mechanical properties :
#
#
# Convention : Reuss Voigt Hill
#
# Bulk Modulus (GPa) = 34.38498 56.67225 45.52862
# Shear Modulus (GPa) = 21.10317 25.35675 23.22996
#
# Velocity S-wave (km/s) = 3.17788 3.48345 3.33417
# Velocity P-wave (km/s) = 5.46992 6.58025 6.05061
#
# Compressibility (1/GPa) = 0.02908247
#
# Stress axis : x y z
#
# Youngs Moduli (GPa) = 55.11620 116.90363 126.60961
#
# Poissons Ratio (x) = -0.08254 -0.07927
# Poissons Ratio (y) = -0.03891 0.51768
# Poissons Ratio (z) = -0.03451 0.47800
#
# Static dielectric constant tensor:
#      x y z
#    x 1.794000 0.000000 0.000000 
#    y 0.000000 1.723920 0.000000 
#    z 0.000000 0.000000 1.759260 
# 
# From -- ./inp_files/59772.got.cif
#   From: 2010.05.17/outbox.cif.g08.bks.cpg/sg65_30_cif.got.tgz:59772.got - 2010.06.03 17:01:31.
