data_PCOD9487880
_publ_section_title
;
Structure prediction by ZEFSAII (Michael W. Deem and Ramdas Pophale) SiO2 
 PCOD9487880
Probable space group: C M M M
;
_chemical_formula_sum "Si O2"
_cell_formula_units_Z 104
_cell_length_a 20.743800
_cell_length_b 32.672368
_cell_length_c 9.152286
_cell_angle_alpha 90.000000
_cell_angle_beta 90.000000
_cell_angle_gamma 90.000000
_cell_volume 6202.953300
_symmetry_space_group_name_H-M "C M M M"
_symmetry_group_IT_number 65
_symmetry_cell_setting 'orthorhombic'
loop_
_space_group_symop_operation_xyz
x,y,z
-x,-y,z
x,-y,-z
-x,y,-z
-x,-y,-z
x,y,-z
-x,y,z
x,-y,z
1/2+x,1/2+y,z
1/2-x,1/2-y,z
1/2+x,1/2-y,-z
1/2-x,1/2+y,-z
1/2-x,1/2-y,-z
1/2+x,1/2+y,-z
1/2-x,1/2+y,z
1/2+x,1/2-y,z
loop_
_atom_site_type_symbol
_atom_site_label
_atom_site_fract_x
_atom_site_fract_y
_atom_site_fract_z
Si Si1 0.425758 0.178242 0.324959
Si Si2 0.317316 0.335587 0.670360
Si Si3 0.572500 0.273986 0.322528
Si Si4 0.000000 0.950842 0.831619
Si Si5 0.757562 0.544991 0.175137
Si Si6 0.808965 0.633284 0.825070
Si Si7 0.129736 0.072537 0.668783
O O1 0.416782 0.174734 0.500000
O O2 0.500000 0.167263 0.292068
O O3 0.417565 0.226301 0.286624
O O4 0.373978 0.151086 0.242289
O O5 0.301346 0.326445 0.500000
O O6 0.368310 0.302105 0.726978
O O7 0.251871 0.341614 0.760477
O O8 0.352948 0.379398 0.673353
O O9 0.571770 0.277003 0.500000
O O10 0.500000 0.286214 0.273255
O O11 0.063533 0.935572 0.750531
O O12 0.000000 0.000000 0.828445
O O13 0.000000 0.937430 0.000000
O O14 0.785001 0.500000 0.210979
O O15 0.798031 0.585396 0.215900
O O16 0.688558 0.549822 0.252012
O O17 0.748368 0.546716 0.000000
O O18 0.809378 0.636263 0.000000
O O19 0.125276 0.059839 0.500000
#
# Coordination Sequence:
#
# PCOD9487880 Si02
#       7
#    16  16  16   8  16  16  16
#     4   9  18  34  55  77  99 127 164 202 240 289
#     4   9  18  32  51  73  99 130 165 206 248 289
#     4   8  15  29  51  74  96 129 173 210 238 281
#     4  11  23  35  45  59  87 131 173 205 247 303
#     4   9  18  34  53  70  93 128 165 197 237 295
#     4  10  20  33  51  75 103 130 160 201 246 295
#     4  10  20  31  47  72  96 121 159 211 259 290
#
# _framework density 16.766207999999999
#
# number of rings (size 3 to 8) (size 9 to 14) (size 15 to 20)
#    0.000    2.692    0.000    2.538    1.077    4.923 
#    0.000    3.846    0.000    1.385    0.000    3.231 
#    0.000    0.000    0.000    0.000    0.000    0.000 
#
# Total GULP energy -289891.100743 kJ/mol
# GULP energy per Si atom -5574.828860 kJ/mol
# Density = 1.672805 g / cm^3
# Si number density = 16.766208 Si / 1000 Ang^3
#
#
#
# Elastic Constant Matrix: (Units=GPa)
#
#
# Indices 1 2 3 4 5 6 
#
# 1 129.7514 82.6873 52.7038 0.0000 0.0000 0.0000
# 2 82.6873 88.7524 37.2478 0.0000 0.0000 0.0000
# 3 52.7038 37.2478 39.8202 0.0000 0.0000 0.0000
# 4 0.0000 0.0000 0.0000 21.5230 0.0000 0.0000
# 5 0.0000 0.0000 0.0000 0.0000 15.6259 0.0000
# 6 0.0000 0.0000 0.0000 0.0000 0.0000 12.1139
#
#
#
# Elastic Compliance Matrix: (Units=1/GPa)
#
#
# Indices 1 2 3 4 5 6 
#
# 1 0.025434 -0.015752 -0.018929 0.000000 0.000000 0.000000
# 2 -0.015752 0.028305 -0.005628 0.000000 0.000000 0.000000
# 3 -0.018929 -0.005628 0.055430 0.000000 0.000000 0.000000
# 4 0.000000 0.000000 0.000000 0.046462 0.000000 0.000000
# 5 0.000000 0.000000 0.000000 0.000000 0.063996 0.000000
# 6 0.000000 0.000000 0.000000 0.000000 0.000000 0.082550
#
#
# Mechanical properties :
#
#
# Convention : Reuss Voigt Hill
#
# Bulk Modulus (GPa) = 35.02385 67.06686 51.04536
# Shear Modulus (GPa) = 12.74497 15.56488 14.15493
#
# Velocity S-wave (km/s) = 2.76009 3.05019 2.90876
# Velocity P-wave (km/s) = 5.57605 7.24520 6.46472
#
# Compressibility (1/GPa) = 0.02855197
#
# Stress axis : x y z
#
# Youngs Moduli (GPa) = 39.31743 35.32993 18.04066
#
# Poissons Ratio (x) = 0.55651 0.34149
# Poissons Ratio (y) = 0.61932 0.10153
# Poissons Ratio (z) = 0.74423 0.19883
#
# Static dielectric constant tensor:
#      x y z
#    x 1.537540 0.000000 0.000000 
#    y 0.000000 1.579880 0.000000 
#    z 0.000000 0.000000 1.561910 
# 
# From -- ./inp_files/12810.got.cif
#   From: 2010.05.17/outbox.cif.g08.bks.cpg/sg65_7_cif.got.tgz:12810.got - 2010.06.03 17:01:31.
