data_PCOD9487217
_publ_section_title
;
Structure prediction by ZEFSAII (Michael W. Deem and Ramdas Pophale) SiO2 
 PCOD9487217
Probable space group: C M M M
;
_chemical_formula_sum "Si O2"
_cell_formula_units_Z 116
_cell_length_a 29.514384
_cell_length_b 24.029455
_cell_length_c 7.455367
_cell_angle_alpha 90.000000
_cell_angle_beta 90.000000
_cell_angle_gamma 90.000000
_cell_volume 5287.454843
_symmetry_space_group_name_H-M "C M M M"
_symmetry_group_IT_number 65
_symmetry_cell_setting 'orthorhombic'
loop_
_space_group_symop_operation_xyz
x,y,z
-x,-y,z
x,-y,-z
-x,y,-z
-x,-y,-z
x,y,-z
-x,y,z
x,-y,z
1/2+x,1/2+y,z
1/2-x,1/2-y,z
1/2+x,1/2-y,-z
1/2-x,1/2+y,-z
1/2-x,1/2-y,-z
1/2+x,1/2+y,-z
1/2-x,1/2+y,z
1/2+x,1/2-y,z
loop_
_atom_site_type_symbol
_atom_site_label
_atom_site_fract_x
_atom_site_fract_y
_atom_site_fract_z
Si Si1 0.050122 0.321632 0.783448
Si Si2 0.699670 0.272992 0.284097
Si Si3 0.294583 0.938726 0.293850
Si Si4 0.062318 0.000000 0.500000
Si Si5 0.949809 0.805036 0.783446
Si Si6 0.596587 0.585094 0.218036
Si Si7 0.196505 0.902617 0.794267
Si Si8 0.149986 0.664311 0.289270
O O1 0.055391 0.257756 0.718575
O O2 0.097025 0.349434 0.728824
O O3 0.000000 0.341570 0.724868
O O4 0.049371 0.321639 0.000000
O O5 0.696592 0.278312 0.500000
O O6 0.750000 0.250000 0.241715
O O7 0.694002 0.335385 0.213231
O O8 0.664419 0.225517 0.218712
O O9 0.310487 0.941878 0.500000
O O10 0.241501 0.924193 0.298239
O O11 0.320321 0.885927 0.210966
O O12 0.301467 0.000000 0.213479
O O13 0.065067 0.952272 0.659240
O O14 0.913289 0.850619 0.735384
O O15 0.000000 0.824758 0.730680
O O16 0.949326 0.801653 0.000000
O O17 0.648643 0.573188 0.269080
O O18 0.591175 0.578050 0.000000
O O19 0.201240 0.919531 0.000000
O O20 0.161369 0.668125 0.500000
#
# Coordination Sequence:
#
# PCOD9487217 Si02
#       8
#    16  16  16   4  16  16  16  16
#     4   9  18  34  59  88 115 147 183 220 279 351
#     4  10  19  34  54  79 115 150 183 227 283 346
#     4  10  22  39  59  78 105 150 197 234 275 337
#     4  12  26  40  61  80 106 160 192 244 311 346
#     4   8  15  34  61  83 111 148 181 228 292 348
#     4  10  23  40  57  84 112 144 200 252 293 353
#     4  11  23  36  55  81 113 147 189 243 288 339
#     4  10  20  35  55  84 117 147 182 234 285 330
#
# _framework density 21.938721000000001
#
# number of rings (size 3 to 8) (size 9 to 14) (size 15 to 20)
#    0.000    2.207    1.379    2.276    2.897    3.034 
#    1.241    1.034    0.000    2.069    0.000    2.897 
#    0.000    0.000    0.000    0.000    0.000    0.000 
#
# Total GULP energy -323229.558718 kJ/mol
# GULP energy per Si atom -5572.923426 kJ/mol
# Density = 2.188879 g / cm^3
# Si number density = 21.938721 Si / 1000 Ang^3
#
#
#
# Elastic Constant Matrix: (Units=GPa)
#
#
# Indices 1 2 3 4 5 6 
#
# 1 77.0094 1.8451 -5.5103 0.0000 0.0000 0.0000
# 2 1.8451 66.1122 0.4898 0.0000 0.0000 0.0000
# 3 -5.5103 0.4898 74.0565 0.0000 0.0000 0.0000
# 4 0.0000 0.0000 0.0000 -9.8619 0.0000 0.0000
# 5 0.0000 0.0000 0.0000 0.0000 10.9649 0.0000
# 6 0.0000 0.0000 0.0000 0.0000 0.0000 -30.2040
#
#
#
# Elastic Compliance Matrix: (Units=1/GPa)
#
#
# Indices 1 2 3 4 5 6 
#
# 1 0.013064 -0.000372 0.000975 0.000000 0.000000 0.000000
# 2 -0.000372 0.015137 -0.000128 0.000000 0.000000 0.000000
# 3 0.000975 -0.000128 0.013577 0.000000 0.000000 0.000000
# 4 0.000000 0.000000 0.000000 -0.101400 0.000000 0.000000
# 5 0.000000 0.000000 0.000000 0.000000 0.091200 0.000000
# 6 0.000000 0.000000 0.000000 0.000000 0.000000 -0.033108
#
#
# Mechanical properties :
#
#
# Convention : Reuss Voigt Hill
#
# Bulk Modulus (GPa) = 23.40408 23.42524 23.41466
# Shear Modulus (GPa) = 425.07999 8.87002 216.97501
#
# Velocity S-wave (km/s) = 13.93479 2.01293 9.95566
# Velocity P-wave (km/s) = 16.41937 4.01289 11.95197
#
# Compressibility (1/GPa) = 0.04272760
#
# Stress axis : x y z
#
# Youngs Moduli (GPa) = 76.54584 66.06276 73.65634
#
# Poissons Ratio (x) = 0.02456 -0.07178
# Poissons Ratio (y) = 0.02846 0.00941
# Poissons Ratio (z) = -0.07460 0.00844
#
# Static dielectric constant tensor:
#      x y z
#    x 1.828480 0.000000 0.000000 
#    y 0.000000 1.806370 0.000000 
#    z 0.000000 0.000000 1.920820 
# 
# From -- ./inp_files/18954.got.cif
#   From: 2010.05.17/outbox.cif.g08.bks.cpg/sg65_10_cif.got.tgz:18954.got - 2010.06.03 17:01:31.
