data_PCOD9487020
_publ_section_title
;
Structure prediction by ZEFSAII (Michael W. Deem and Ramdas Pophale) SiO2 
 PCOD9487020
Probable space group: C M M M
;
_chemical_formula_sum "Si O2"
_cell_formula_units_Z 104
_cell_length_a 21.381708
_cell_length_b 25.388316
_cell_length_c 9.245670
_cell_angle_alpha 90.000000
_cell_angle_beta 90.000000
_cell_angle_gamma 90.000000
_cell_volume 5018.970902
_symmetry_space_group_name_H-M "C M M M"
_symmetry_group_IT_number 65
_symmetry_cell_setting 'orthorhombic'
loop_
_space_group_symop_operation_xyz
x,y,z
-x,-y,z
x,-y,-z
-x,y,-z
-x,-y,-z
x,y,-z
-x,y,z
x,-y,z
1/2+x,1/2+y,z
1/2-x,1/2-y,z
1/2+x,1/2-y,-z
1/2-x,1/2+y,-z
1/2-x,1/2-y,-z
1/2+x,1/2+y,-z
1/2-x,1/2+y,z
1/2+x,1/2-y,z
loop_
_atom_site_type_symbol
_atom_site_label
_atom_site_fract_x
_atom_site_fract_y
_atom_site_fract_z
Si Si1 0.115304 0.219364 0.663065
Si Si2 0.000000 0.633786 0.176861
Si Si3 0.500000 0.746681 0.169079
Si Si4 0.696763 0.206305 0.842308
Si Si5 0.370842 0.597739 0.331579
Si Si6 0.390415 0.942423 0.824421
Si Si7 0.253946 0.087912 0.170825
Si Si8 0.500000 0.436166 0.827885
O O1 0.093400 0.227791 0.500000
O O2 0.155255 0.269301 0.715855
O O3 0.143571 0.160849 0.669053
O O4 0.059450 0.216841 0.774256
O O5 0.000000 0.693643 0.227261
O O6 0.937581 0.602973 0.224188
O O7 0.000000 0.633267 0.000000
O O8 0.500000 0.749627 0.000000
O O9 0.750000 0.250000 0.855842
O O10 0.727955 0.149985 0.818355
O O11 0.662680 0.203282 0.000000
O O12 0.376837 0.581913 0.500000
O O13 0.309350 0.574045 0.254695
O O14 0.436089 0.584872 0.249154
O O15 0.318575 0.938088 0.776298
O O16 0.415859 0.000000 0.787331
O O17 0.387974 0.938799 0.000000
O O18 0.244901 0.076258 0.000000
O O19 0.500000 0.500000 0.816012
O O20 0.500000 0.422636 0.000000
#
# Coordination Sequence:
#
# PCOD9487020 Si02
#       8
#    16   8   8  16  16  16  16   8
#     4  11  23  37  55  83 120 155 192 235 286 347
#     4   9  17  32  53  79 114 151 192 238 287 344
#     4  11  22  35  55  81 112 149 192 237 283 341
#     4  10  19  33  55  81 112 154 196 233 280 336
#     4  11  24  41  62  88 119 155 193 236 293 358
#     4   9  17  30  52  82 114 148 187 238 295 342
#     4  10  20  35  56  86 122 156 200 249 291 347
#     4  11  26  47  70  92 112 143 192 248 304 359
#
# _framework density 20.721378999999999
#
# number of rings (size 3 to 8) (size 9 to 14) (size 15 to 20)
#    0.000    1.769    1.538    3.000    0.000    9.231 
#    0.000    1.538    0.000    0.000    0.000    0.000 
#    0.000    4.923    0.000    0.000    0.000    0.000 
#
# Total GULP energy -290050.102792 kJ/mol
# GULP energy per Si atom -5577.886592 kJ/mol
# Density = 2.067422 g / cm^3
# Si number density = 20.721379 Si / 1000 Ang^3
#
#
#
# Elastic Constant Matrix: (Units=GPa)
#
#
# Indices 1 2 3 4 5 6 
#
# 1 107.1849 0.6260 45.7385 0.0000 0.0000 0.0000
# 2 0.6260 52.8367 14.6654 0.0000 0.0000 0.0000
# 3 45.7385 14.6654 83.7126 0.0000 0.0000 0.0000
# 4 0.0000 0.0000 0.0000 40.7090 0.0000 0.0000
# 5 0.0000 0.0000 0.0000 0.0000 27.4314 0.0000
# 6 0.0000 0.0000 0.0000 0.0000 0.0000 27.7672
#
#
#
# Elastic Compliance Matrix: (Units=1/GPa)
#
#
# Indices 1 2 3 4 5 6 
#
# 1 0.012329 0.001812 -0.007054 0.000000 0.000000 0.000000
# 2 0.001812 0.020160 -0.004522 0.000000 0.000000 0.000000
# 3 -0.007054 -0.004522 0.016592 0.000000 0.000000 0.000000
# 4 0.000000 0.000000 0.000000 0.024565 0.000000 0.000000
# 5 0.000000 0.000000 0.000000 0.000000 0.036455 0.000000
# 6 0.000000 0.000000 0.000000 0.000000 0.000000 0.036014
#
#
# Mechanical properties :
#
#
# Convention : Reuss Voigt Hill
#
# Bulk Modulus (GPa) = 33.83701 40.64379 37.24040
# Shear Modulus (GPa) = 28.49136 31.36182 29.92659
#
# Velocity S-wave (km/s) = 3.71209 3.89459 3.80444
# Velocity P-wave (km/s) = 5.89387 6.31513 6.10813
#
# Compressibility (1/GPa) = 0.02955344
#
# Stress axis : x y z
#
# Youngs Moduli (GPa) = 81.10912 49.60366 60.27103
#
# Poissons Ratio (x) = -0.08987 0.42513
# Poissons Ratio (y) = -0.14695 0.27252
# Poissons Ratio (z) = 0.57212 0.22429
#
# Static dielectric constant tensor:
#      x y z
#    x 1.628440 0.000000 0.000000 
#    y 0.000000 1.854400 0.000000 
#    z 0.000000 0.000000 1.719690 
# 
# From -- ./inp_files/12462.got.cif
#   From: 2010.05.17/outbox.cif.g08.bks.cpg/sg65_7_cif.got.tgz:12462.got - 2010.06.03 17:01:31.
