data_PCOD9487914
_publ_section_title
;
Structure prediction by ZEFSAII (Michael W. Deem and Ramdas Pophale) SiO2 
 PCOD9487914
Probable space group: C M M M
;
_chemical_formula_sum "Si O2"
_cell_formula_units_Z 96
_cell_length_a 23.453458
_cell_length_b 22.072250
_cell_length_c 12.407042
_cell_angle_alpha 90.000000
_cell_angle_beta 90.000000
_cell_angle_gamma 90.000000
_cell_volume 6422.760732
_symmetry_space_group_name_H-M "C M M M"
_symmetry_group_IT_number 65
_symmetry_cell_setting 'orthorhombic'
loop_
_space_group_symop_operation_xyz
x,y,z
-x,-y,z
x,-y,-z
-x,y,-z
-x,-y,-z
x,y,-z
-x,y,z
x,-y,z
1/2+x,1/2+y,z
1/2-x,1/2-y,z
1/2+x,1/2-y,-z
1/2-x,1/2+y,-z
1/2-x,1/2-y,-z
1/2+x,1/2+y,-z
1/2-x,1/2+y,z
1/2+x,1/2-y,z
loop_
_atom_site_type_symbol
_atom_site_label
_atom_site_fract_x
_atom_site_fract_y
_atom_site_fract_z
Si Si1 0.436412 0.822171 0.779151
Si Si2 0.253330 0.650833 0.179874
Si Si3 0.339947 0.251763 0.128599
Si Si4 0.102008 0.431849 0.625896
Si Si5 0.195693 0.569020 0.000000
Si Si6 0.563308 0.897811 0.000000
Si Si7 0.239805 0.431501 0.624475
O O1 0.500000 0.801803 0.752805
O O2 0.394836 0.765648 0.801033
O O3 0.418635 0.874475 0.694330
O O4 0.436395 0.857158 0.893240
O O5 0.311743 0.682229 0.141274
O O6 0.206671 0.704212 0.173351
O O7 0.224206 0.601692 0.101933
O O8 0.260986 0.619573 0.294764
O O9 0.348010 0.240576 0.000000
O O10 0.085229 0.426694 0.500000
O O11 0.083792 0.500000 0.663996
O O12 0.170773 0.431061 0.630414
O O13 0.212342 0.500000 0.000000
O O14 0.126269 0.571835 0.000000
O O15 0.500000 0.929342 0.000000
O O16 0.255396 0.420842 0.500000
O O17 0.257985 0.500000 0.654359
#
# Coordination Sequence:
#
# PCOD9487914 Si02
#       7
#    16  16  16  16   8   8  16
#     4  11  20  32  49  67  89 124 168 203 233 275
#     4  11  18  31  48  70  91 121 159 195 240 286
#     4  11  19  33  49  65  94 126 157 197 244 291
#     4   9  18  33  49  65  92 130 167 202 237 271
#     4  12  20  29  48  71  94 120 158 201 239 273
#     4  10  20  32  43  62  96 128 158 191 225 273
#     4   9  17  30  48  69  97 128 156 191 236 285
#
# _framework density 14.946844
#
# number of rings (size 3 to 8) (size 9 to 14) (size 15 to 20)
#    0.000    1.667    5.833    2.000    0.000    2.833 
#    0.000    5.000    0.000    0.000    0.000    0.000 
#    0.000    3.333    0.000    1.833    0.000    0.000 
#
# Total GULP energy -267213.789808 kJ/mol
# GULP energy per Si atom -5566.953954 kJ/mol
# Density = 1.491282 g / cm^3
# Si number density = 14.946844 Si / 1000 Ang^3
#
#
#
# Elastic Constant Matrix: (Units=GPa)
#
#
# Indices 1 2 3 4 5 6 
#
# 1 67.7810 45.6721 22.2090 0.0000 0.0000 0.0000
# 2 45.6721 78.8977 36.1145 0.0000 0.0000 0.0000
# 3 22.2090 36.1145 65.8041 0.0000 0.0000 0.0000
# 4 0.0000 0.0000 0.0000 31.7051 0.0000 0.0000
# 5 0.0000 0.0000 0.0000 0.0000 49.2684 0.0000
# 6 0.0000 0.0000 0.0000 0.0000 0.0000 14.5945
#
#
#
# Elastic Compliance Matrix: (Units=1/GPa)
#
#
# Indices 1 2 3 4 5 6 
#
# 1 0.024208 -0.013721 -0.000640 0.000000 0.000000 0.000000
# 2 -0.013721 0.024703 -0.008927 0.000000 0.000000 0.000000
# 3 -0.000640 -0.008927 0.020312 0.000000 0.000000 0.000000
# 4 0.000000 0.000000 0.000000 0.031541 0.000000 0.000000
# 5 0.000000 0.000000 0.000000 0.000000 0.020297 0.000000
# 6 0.000000 0.000000 0.000000 0.000000 0.000000 0.068519
#
#
# Mechanical properties :
#
#
# Convention : Reuss Voigt Hill
#
# Bulk Modulus (GPa) = 44.15373 46.71933 45.43653
# Shear Modulus (GPa) = 20.51660 26.34610 23.43135
#
# Velocity S-wave (km/s) = 3.70893 4.20295 3.96365
# Velocity P-wave (km/s) = 6.92432 7.40796 7.17022
#
# Compressibility (1/GPa) = 0.02264814
#
# Stress axis : x y z
#
# Youngs Moduli (GPa) = 41.30803 40.48032 49.23210
#
# Poissons Ratio (x) = 0.55541 0.03152
# Poissons Ratio (y) = 0.56677 0.43949
# Poissons Ratio (z) = 0.02645 0.36136
#
# Static dielectric constant tensor:
#      x y z
#    x 1.520560 0.000000 0.000000 
#    y 0.000000 1.497440 0.000000 
#    z 0.000000 0.000000 1.517160 
# 
# From -- ./inp_files/31015.got.cif
#   From: 2010.05.17/outbox.cif.g08.bks.cpg/sg65_16_cif.got.tgz:31015.got - 2010.06.03 17:01:31.
