data_PCOD9487287
_publ_section_title
;
Structure prediction by ZEFSAII (Michael W. Deem and Ramdas Pophale) SiO2 
 PCOD9487287
Probable space group: C M M M
;
_chemical_formula_sum "Si O2"
_cell_formula_units_Z 88
_cell_length_a 20.004808
_cell_length_b 8.726572
_cell_length_c 28.437311
_cell_angle_alpha 90.000000
_cell_angle_beta 90.000000
_cell_angle_gamma 90.000000
_cell_volume 4964.397993
_symmetry_space_group_name_H-M "C M M M"
_symmetry_group_IT_number 65
_symmetry_cell_setting 'orthorhombic'
loop_
_space_group_symop_operation_xyz
x,y,z
-x,-y,z
x,-y,-z
-x,y,-z
-x,-y,-z
x,y,-z
-x,y,z
x,-y,z
1/2+x,1/2+y,z
1/2-x,1/2-y,z
1/2+x,1/2-y,-z
1/2-x,1/2+y,-z
1/2-x,1/2-y,-z
1/2+x,1/2+y,-z
1/2-x,1/2+y,z
1/2+x,1/2-y,z
loop_
_atom_site_type_symbol
_atom_site_label
_atom_site_fract_x
_atom_site_fract_y
_atom_site_fract_z
Si Si1 0.079034 0.183511 0.738065
Si Si2 0.922620 0.815283 0.369310
Si Si3 0.076821 0.186477 0.000000
Si Si4 0.677772 0.817691 0.814254
Si Si5 0.676425 0.816742 0.553608
Si Si6 0.322993 0.315409 0.917420
O O1 0.096117 0.227538 0.684276
O O2 0.123399 0.269345 0.776023
O O3 0.000000 0.212471 0.744672
O O4 0.089180 0.000000 0.742701
O O5 0.875176 0.744448 0.408238
O O6 0.000000 0.770685 0.376740
O O7 0.919324 0.000000 0.371862
O O8 0.119975 0.231496 0.954353
O O9 0.000000 0.240585 0.000000
O O10 0.074739 0.000000 0.000000
O O11 0.750000 0.750000 0.800383
O O12 0.661852 0.746378 0.865324
O O13 0.682534 0.000000 0.818512
O O14 0.657574 0.771876 0.500000
O O15 0.750000 0.750000 0.562749
O O16 0.679390 0.000000 0.555673
O O17 0.319060 0.500000 0.916439
O O18 0.250000 0.250000 0.930992
#
# Coordination Sequence:
#
# PCOD9487287 Si02
#       6
#    16  16   8  16  16  16
#     4   9  19  37  58  79 106 140 176 215 263 316
#     4   9  19  36  57  80 106 138 176 216 260 314
#     4   9  19  34  53  79 106 135 174 214 256 311
#     4  11  22  36  55  80 109 140 179 221 263 313
#     4  10  21  36  54  77 106 140 177 218 264 313
#     4  10  19  34  56  78 104 138 175 216 261 310
#
# _framework density 17.726217999999999
#
# number of rings (size 3 to 8) (size 9 to 14) (size 15 to 20)
#    0.000    2.273    0.000    5.182    0.000    4.364 
#    0.000    6.818    0.000    3.818    0.000    0.000 
#    0.000    0.000    0.000    0.000    0.000    0.000 
#
# Total GULP energy -245606.914769 kJ/mol
# GULP energy per Si atom -5581.975336 kJ/mol
# Density = 1.768587 g / cm^3
# Si number density = 17.726218 Si / 1000 Ang^3
#
#
#
# Elastic Constant Matrix: (Units=GPa)
#
#
# Indices 1 2 3 4 5 6 
#
# 1 120.0573 50.5703 111.4712 0.0000 0.0000 0.0000
# 2 50.5703 67.6631 53.9730 0.0000 0.0000 0.0000
# 3 111.4712 53.9730 132.6379 0.0000 0.0000 0.0000
# 4 0.0000 0.0000 0.0000 26.7179 0.0000 0.0000
# 5 0.0000 0.0000 0.0000 0.0000 44.2075 0.0000
# 6 0.0000 0.0000 0.0000 0.0000 0.0000 32.5820
#
#
#
# Elastic Compliance Matrix: (Units=1/GPa)
#
#
# Indices 1 2 3 4 5 6 
#
# 1 0.038788 -0.004422 -0.030799 0.000000 0.000000 0.000000
# 2 -0.004422 0.022386 -0.005393 0.000000 0.000000 0.000000
# 3 -0.030799 -0.005393 0.035617 0.000000 0.000000 0.000000
# 4 0.000000 0.000000 0.000000 0.037428 0.000000 0.000000
# 5 0.000000 0.000000 0.000000 0.000000 0.022621 0.000000
# 6 0.000000 0.000000 0.000000 0.000000 0.000000 0.030692
#
#
# Mechanical properties :
#
#
# Convention : Reuss Voigt Hill
#
# Bulk Modulus (GPa) = 64.25043 83.59861 73.92452
# Shear Modulus (GPa) = 18.25167 27.65772 22.95470
#
# Velocity S-wave (km/s) = 3.21229 3.95431 3.60246
# Velocity P-wave (km/s) = 7.07694 8.25301 7.68750
#
# Compressibility (1/GPa) = 0.01556410
#
# Stress axis : x y z
#
# Youngs Moduli (GPa) = 25.78102 44.67107 28.07612
#
# Poissons Ratio (x) = 0.19755 0.86471
# Poissons Ratio (y) = 0.11401 0.15140
# Poissons Ratio (z) = 0.79402 0.24089
#
# Static dielectric constant tensor:
#      x y z
#    x 1.578960 0.000000 0.000000 
#    y 0.000000 1.597980 0.000000 
#    z 0.000000 0.000000 1.593170 
# 
# From -- ./inp_files/67488.got.cif
#   From: 2010.05.17/outbox.cif.g08.bks.cpg/sg65_34_cif.got.tgz:67488.got - 2010.06.03 17:01:31.
