data_PCOD9487399
_publ_section_title
;
Structure prediction by ZEFSAII (Michael W. Deem and Ramdas Pophale) SiO2 
 PCOD9487399
Probable space group: C M M M
;
_chemical_formula_sum "Si O2"
_cell_formula_units_Z 68
_cell_length_a 17.012037
_cell_length_b 27.145859
_cell_length_c 7.333103
_cell_angle_alpha 90.000000
_cell_angle_beta 90.000000
_cell_angle_gamma 90.000000
_cell_volume 3386.473587
_symmetry_space_group_name_H-M "C M M M"
_symmetry_group_IT_number 65
_symmetry_cell_setting 'orthorhombic'
loop_
_space_group_symop_operation_xyz
x,y,z
-x,-y,z
x,-y,-z
-x,y,-z
-x,-y,-z
x,y,-z
-x,y,z
x,-y,z
1/2+x,1/2+y,z
1/2-x,1/2-y,z
1/2+x,1/2-y,-z
1/2-x,1/2+y,-z
1/2-x,1/2-y,-z
1/2+x,1/2+y,-z
1/2-x,1/2+y,z
1/2+x,1/2-y,z
loop_
_atom_site_type_symbol
_atom_site_label
_atom_site_fract_x
_atom_site_fract_y
_atom_site_fract_z
Si Si1 0.907318 0.906556 0.000000
Si Si2 0.086842 0.256023 0.721046
Si Si3 0.128828 0.445326 0.000000
Si Si4 0.640374 0.862873 0.282558
Si Si5 0.793504 0.000000 0.000000
Si Si6 0.676853 0.338642 0.717572
O O1 0.860179 0.957057 0.000000
O O2 0.879463 0.875171 0.825251
O O3 0.000000 0.913563 0.000000
O O4 0.089112 0.257729 0.500000
O O5 0.099607 0.312173 0.778618
O O6 0.153160 0.216873 0.774383
O O7 0.000000 0.238563 0.776158
O O8 0.112610 0.410744 0.826442
O O9 0.222059 0.457977 0.000000
O O10 0.091768 0.500000 0.000000
O O11 0.629439 0.869207 0.500000
O O12 0.732975 0.852952 0.247335
O O13 0.664944 0.342350 0.500000
#
# Coordination Sequence:
#
# PCOD9487399 Si02
#       6
#     8  16   8  16   4  16
#     4  12  23  37  56  78 108 145 177 214 267 312
#     4   9  18  32  52  82 116 143 170 212 264 318
#     4  10  20  38  57  77 104 129 181 234 263 300
#     4  10  19  34  58  80 105 143 179 215 263 314
#     4  10  21  42  54  76 107 136 176 230 269 300
#     4  10  19  35  56  81 110 142 180 214 251 311
#
# _framework density 20.079884
#
# number of rings (size 3 to 8) (size 9 to 14) (size 15 to 20)
#    0.353    1.647    2.353    1.588    0.000    5.647 
#    0.000    5.882    0.000    2.824    0.000    3.294 
#    0.000    0.000    0.000    0.000    0.000    0.000 
#
# Total GULP energy -189268.637107 kJ/mol
# GULP energy per Si atom -5566.724621 kJ/mol
# Density = 2.003418 g / cm^3
# Si number density = 20.079884 Si / 1000 Ang^3
#
#
#
# Elastic Constant Matrix: (Units=GPa)
#
#
# Indices 1 2 3 4 5 6 
#
# 1 40.9631 4.0521 8.6368 0.0000 0.0000 0.0000
# 2 4.0521 158.6318 33.9949 0.0000 0.0000 0.0000
# 3 8.6368 33.9949 72.3059 0.0000 0.0000 0.0000
# 4 0.0000 0.0000 0.0000 15.7081 0.0000 0.0000
# 5 0.0000 0.0000 0.0000 0.0000 18.9125 0.0000
# 6 0.0000 0.0000 0.0000 0.0000 0.0000 24.4996
#
#
#
# Elastic Compliance Matrix: (Units=1/GPa)
#
#
# Indices 1 2 3 4 5 6 
#
# 1 0.025043 0.000001 -0.002992 0.000000 0.000000 0.000000
# 2 0.000001 0.007010 -0.003296 0.000000 0.000000 0.000000
# 3 -0.002992 -0.003296 0.015737 0.000000 0.000000 0.000000
# 4 0.000000 0.000000 0.000000 0.063661 0.000000 0.000000
# 5 0.000000 0.000000 0.000000 0.000000 0.052875 0.000000
# 6 0.000000 0.000000 0.000000 0.000000 0.000000 0.040817
#
#
# Mechanical properties :
#
#
# Convention : Reuss Voigt Hill
#
# Bulk Modulus (GPa) = 28.39525 40.58536 34.49031
# Shear Modulus (GPa) = 21.79067 26.83851 24.31459
#
# Velocity S-wave (km/s) = 3.29781 3.65990 3.48356
# Velocity P-wave (km/s) = 5.35468 6.17379 5.77877
#
# Compressibility (1/GPa) = 0.03521715
#
# Stress axis : x y z
#
# Youngs Moduli (GPa) = 39.93143 142.64902 63.54380
#
# Poissons Ratio (x) = -0.00021 0.19012
# Poissons Ratio (y) = -0.00006 0.20944
# Poissons Ratio (z) = 0.11948 0.47018
#
# Static dielectric constant tensor:
#      x y z
#    x 1.694600 0.000000 0.000000 
#    y 0.000000 1.688200 0.000000 
#    z 0.000000 0.000000 1.735440 
# 
# From -- ./inp_files/9303.got.cif
#   From: 2010.05.17/outbox.cif.g08.bks.cpg/sg65_5_cif.got.tgz:9303.got - 2010.06.03 17:01:31.
