data_PCOD9487796
_publ_section_title
;
Structure prediction by ZEFSAII (Michael W. Deem and Ramdas Pophale) SiO2 
 PCOD9487796
Probable space group: C M M M
;
_chemical_formula_sum "Si O2"
_cell_formula_units_Z 80
_cell_length_a 21.175465
_cell_length_b 17.790217
_cell_length_c 14.252413
_cell_angle_alpha 90.000000
_cell_angle_beta 90.000000
_cell_angle_gamma 90.000000
_cell_volume 5369.113689
_symmetry_space_group_name_H-M "C M M M"
_symmetry_group_IT_number 65
_symmetry_cell_setting 'orthorhombic'
loop_
_space_group_symop_operation_xyz
x,y,z
-x,-y,z
x,-y,-z
-x,y,-z
-x,-y,-z
x,y,-z
-x,y,z
x,-y,z
1/2+x,1/2+y,z
1/2-x,1/2-y,z
1/2+x,1/2-y,-z
1/2-x,1/2+y,-z
1/2-x,1/2-y,-z
1/2+x,1/2+y,-z
1/2-x,1/2+y,z
1/2+x,1/2-y,z
loop_
_atom_site_type_symbol
_atom_site_label
_atom_site_fract_x
_atom_site_fract_y
_atom_site_fract_z
Si Si1 0.500000 0.311115 0.107843
Si Si2 0.000000 0.627627 0.107871
Si Si3 0.246675 0.915802 0.890666
Si Si4 0.574312 0.909801 0.608290
Si Si5 0.863849 0.799225 0.113992
Si Si6 0.629935 0.864510 0.795626
O O1 0.500000 0.219479 0.109824
O O2 0.431539 0.333243 0.145919
O O3 0.500000 0.336158 0.000000
O O4 0.935039 0.604821 0.157714
O O5 0.000000 0.603866 0.000000
O O6 0.194337 0.853839 0.866701
O O7 0.308745 0.909296 0.827938
O O8 0.220018 0.000000 0.883845
O O9 0.265131 0.903317 0.000000
O O10 0.589340 0.892066 0.500000
O O11 0.500000 0.891955 0.623526
O O12 0.616445 0.868588 0.685234
O O13 0.581027 0.000000 0.620239
O O14 0.858397 0.719115 0.164197
O O15 0.866603 0.787375 0.000000
#
# Coordination Sequence:
#
# PCOD9487796 Si02
#       6
#     8   8  16  16  16  16
#     4   7  12  24  41  60  81 107 142 184 220 253
#     4   9  16  24  38  65  95 117 143 179 217 258
#     4  10  20  31  42  62  94 129 161 189 222 269
#     4   9  18  32  47  65  92 123 153 185 225 274
#     4   9  17  29  46  67  92 121 154 190 227 270
#     4  11  17  28  47  68  88 120 156 190 224 266
#
# _framework density 14.900038
#
# number of rings (size 3 to 8) (size 9 to 14) (size 15 to 20)
#    0.000    2.600    1.000    4.800    0.000    1.600 
#    0.000    0.500    0.000    7.800    0.000    0.000 
#    0.000    0.000    0.000    2.200    0.000    0.200 
#
# Total GULP energy -222773.709887 kJ/mol
# GULP energy per Si atom -5569.342747 kJ/mol
# Density = 1.486612 g / cm^3
# Si number density = 14.900038 Si / 1000 Ang^3
#
#
#
# Elastic Constant Matrix: (Units=GPa)
#
#
# Indices 1 2 3 4 5 6 
#
# 1 82.4438 32.4237 36.7179 0.0000 0.0000 0.0000
# 2 32.4237 49.0768 28.9341 0.0000 0.0000 0.0000
# 3 36.7179 28.9341 74.0348 0.0000 0.0000 0.0000
# 4 0.0000 0.0000 0.0000 6.4382 0.0000 0.0000
# 5 0.0000 0.0000 0.0000 0.0000 18.4093 0.0000
# 6 0.0000 0.0000 0.0000 0.0000 0.0000 5.3303
#
#
#
# Elastic Compliance Matrix: (Units=1/GPa)
#
#
# Indices 1 2 3 4 5 6 
#
# 1 0.017991 -0.008609 -0.005558 0.000000 0.000000 0.000000
# 2 -0.008609 0.030597 -0.007688 0.000000 0.000000 0.000000
# 3 -0.005558 -0.007688 0.019268 0.000000 0.000000 0.000000
# 4 0.000000 0.000000 0.000000 0.155323 0.000000 0.000000
# 5 0.000000 0.000000 0.000000 0.000000 0.054320 0.000000
# 6 0.000000 0.000000 0.000000 0.000000 0.000000 0.187607
#
#
# Mechanical properties :
#
#
# Convention : Reuss Voigt Hill
#
# Bulk Modulus (GPa) = 41.41573 44.63412 43.02492
# Shear Modulus (GPa) = 9.67371 13.20087 11.43729
#
# Velocity S-wave (km/s) = 2.55078 2.97974 2.77357
# Velocity P-wave (km/s) = 6.04412 6.46987 6.26062
#
# Compressibility (1/GPa) = 0.02414542
#
# Stress axis : x y z
#
# Youngs Moduli (GPa) = 55.58453 32.68332 51.89891
#
# Poissons Ratio (x) = 0.28138 0.28845
# Poissons Ratio (y) = 0.47854 0.39900
# Poissons Ratio (z) = 0.30893 0.25127
#
# Static dielectric constant tensor:
#      x y z
#    x 1.520370 0.000000 0.000000 
#    y 0.000000 1.492750 0.000000 
#    z 0.000000 0.000000 1.485840 
# 
# From -- ./inp_files/26721.got.cif
#   From: 2010.05.17/outbox.cif.g08.bks.cpg/sg65_14_cif.got.tgz:26721.got - 2010.06.03 17:01:31.
