data_PCOD9487527
_publ_section_title
;
Structure prediction by ZEFSAII (Michael W. Deem and Ramdas Pophale) SiO2 
 PCOD9487527
Probable space group: C M M M
;
_chemical_formula_sum "Si O2"
_cell_formula_units_Z 50
_cell_length_a 7.665402
_cell_length_b 14.519288
_cell_length_c 23.858433
_cell_angle_alpha 90.000000
_cell_angle_beta 90.000000
_cell_angle_gamma 90.000000
_cell_volume 2655.352436
_symmetry_space_group_name_H-M "C M M M"
_symmetry_group_IT_number 65
_symmetry_cell_setting 'orthorhombic'
loop_
_space_group_symop_operation_xyz
x,y,z
-x,-y,z
x,-y,-z
-x,y,-z
-x,-y,-z
x,y,-z
-x,y,z
x,-y,z
1/2+x,1/2+y,z
1/2-x,1/2-y,z
1/2+x,1/2-y,-z
1/2-x,1/2+y,-z
1/2-x,1/2-y,-z
1/2+x,1/2+y,-z
1/2-x,1/2+y,z
1/2+x,1/2-y,z
loop_
_atom_site_type_symbol
_atom_site_label
_atom_site_fract_x
_atom_site_fract_y
_atom_site_fract_z
Si Si1 0.713668 0.500000 0.091921
Si Si2 0.193805 0.500000 0.406162
Si Si3 0.000000 0.000000 0.500000
Si Si4 0.208155 0.857448 0.687576
Si Si5 0.708632 0.356822 0.000000
Si Si6 0.212520 0.000000 0.219475
O O1 0.500000 0.500000 0.093603
O O2 0.769900 0.588269 0.055216
O O3 0.775345 0.500000 0.155755
O O4 0.346661 0.500000 0.451144
O O5 0.213246 0.411620 0.365215
O O6 0.000000 0.500000 0.430752
O O7 0.250000 0.750000 0.688510
O O8 0.000000 0.868857 0.683441
O O9 0.265642 0.911203 0.743842
O O10 0.750000 0.250000 0.000000
O O11 0.500000 0.366044 0.000000
O O12 0.000000 0.000000 0.217408
#
# Coordination Sequence:
#
# PCOD9487527 Si02
#       6
#     8   8   2  16   8   8
#     4   8  15  30  47  68 100 141 185 225 274 344
#     4  11  22  40  65  87 118 157 189 236 286 336
#     4  12  22  44  64  90 124 150 198 234 280 334
#     4  10  19  35  57  83 113 147 186 233 285 346
#     4   9  17  29  48  68  96 139 185 227 280 336
#     4   8  16  30  51  77 105 141 185 233 283 335
#
# _framework density 18.829892999999998
#
# number of rings (size 3 to 8) (size 9 to 14) (size 15 to 20)
#    0.000    2.560    1.600    3.120    0.000    1.280 
#    0.000    2.400    0.000    9.600    0.000    0.000 
#    0.000    0.000    0.000    0.000    0.000    0.000 
#
# Total GULP energy -139197.177677 kJ/mol
# GULP energy per Si atom -5567.887107 kJ/mol
# Density = 1.878704 g / cm^3
# Si number density = 18.829893 Si / 1000 Ang^3
#
#
#
# Elastic Constant Matrix: (Units=GPa)
#
#
# Indices 1 2 3 4 5 6 
#
# 1 95.8540 16.9832 44.6234 0.0000 0.0000 0.0000
# 2 16.9832 172.7224 87.5610 0.0000 0.0000 0.0000
# 3 44.6234 87.5610 193.8657 0.0000 0.0000 0.0000
# 4 0.0000 0.0000 0.0000 -28.7650 0.0000 0.0000
# 5 0.0000 0.0000 0.0000 0.0000 3.5120 0.0000
# 6 0.0000 0.0000 0.0000 0.0000 0.0000 19.9866
#
#
#
# Elastic Compliance Matrix: (Units=1/GPa)
#
#
# Indices 1 2 3 4 5 6 
#
# 1 0.011695 0.000278 -0.002818 0.000000 0.000000 0.000000
# 2 0.000278 0.007516 -0.003459 0.000000 0.000000 0.000000
# 3 -0.002818 -0.003459 0.007369 0.000000 0.000000 0.000000
# 4 0.000000 0.000000 0.000000 -0.034764 0.000000 0.000000
# 5 0.000000 0.000000 0.000000 0.000000 0.284742 0.000000
# 6 0.000000 0.000000 0.000000 0.000000 0.000000 0.050034
#
#
# Mechanical properties :
#
#
# Convention : Reuss Voigt Hill
#
# Bulk Modulus (GPa) = 68.56909 84.53082 76.54995
# Shear Modulus (GPa) = 14.55829 19.83167 17.19498
#
# Velocity S-wave (km/s) = 2.78357 3.24883 3.02516
# Velocity P-wave (km/s) = 6.84289 7.68521 7.27625
#
# Compressibility (1/GPa) = 0.01458383
#
# Stress axis : x y z
#
# Youngs Moduli (GPa) = 85.50718 133.05730 135.70608
#
# Poissons Ratio (x) = -0.03706 0.38238
# Poissons Ratio (y) = -0.02381 0.46935
# Poissons Ratio (z) = 0.24093 0.46019
#
# Static dielectric constant tensor:
#      x y z
#    x 1.689200 0.000000 0.000000 
#    y 0.000000 1.640240 0.000000 
#    z 0.000000 0.000000 1.630960 
# 
# From -- ./inp_files/66653.got.cif
#   From: 2010.05.17/outbox.cif.g08.bks.cpg/sg65_34_cif.got.tgz:66653.got - 2010.06.03 17:01:31.
