data_PCOD9487693
_publ_section_title
;
Structure prediction by ZEFSAII (Michael W. Deem and Ramdas Pophale) SiO2 
 PCOD9487693
Probable space group: C M M M
;
_chemical_formula_sum "Si O2"
_cell_formula_units_Z 112
_cell_length_a 14.513932
_cell_length_b 14.469146
_cell_length_c 26.443293
_cell_angle_alpha 90.000000
_cell_angle_beta 90.000000
_cell_angle_gamma 90.000000
_cell_volume 5553.202622
_symmetry_space_group_name_H-M "C M M M"
_symmetry_group_IT_number 65
_symmetry_cell_setting 'orthorhombic'
loop_
_space_group_symop_operation_xyz
x,y,z
-x,-y,z
x,-y,-z
-x,y,-z
-x,-y,-z
x,y,-z
-x,y,z
x,-y,z
1/2+x,1/2+y,z
1/2-x,1/2-y,z
1/2+x,1/2-y,-z
1/2-x,1/2+y,-z
1/2-x,1/2-y,-z
1/2+x,1/2+y,-z
1/2-x,1/2+y,z
1/2+x,1/2-y,z
loop_
_atom_site_type_symbol
_atom_site_label
_atom_site_fract_x
_atom_site_fract_y
_atom_site_fract_z
Si Si1 0.606486 0.364858 0.945656
Si Si2 0.204696 0.393218 0.701771
Si Si3 0.740553 0.597914 0.141254
Si Si4 0.250000 0.750000 0.779058
Si Si5 0.607139 0.857669 0.942357
Si Si6 0.610182 0.198141 0.395117
Si Si7 0.612391 0.892643 0.500000
Si Si8 0.107024 0.895907 0.648859
O O1 0.500000 0.389449 0.944212
O O2 0.659963 0.403946 0.899196
O O3 0.612932 0.253662 0.943437
O O4 0.645354 0.393168 0.000000
O O5 0.178615 0.500000 0.712187
O O6 0.185985 0.314371 0.743579
O O7 0.158377 0.358125 0.649967
O O8 0.315411 0.390352 0.692196
O O9 0.752794 0.500000 0.167834
O O10 0.712789 0.674437 0.181753
O O11 0.829165 0.614103 0.104744
O O12 0.500000 0.883472 0.934706
O O13 0.632695 0.888194 0.000000
O O14 0.500000 0.183298 0.391438
O O15 0.641905 0.159653 0.449117
O O16 0.625630 0.307927 0.387072
O O17 0.500000 0.891949 0.500000
O O18 0.641235 0.000000 0.500000
O O19 0.000000 0.887704 0.665773
O O20 0.116949 0.000000 0.626524
#
# Coordination Sequence:
#
# PCOD9487693 Si02
#       8
#    16  16  16   8  16  16   8  16
#     4   9  18  36  62  87 114 150 189 233 286 346
#     4  11  22  40  64  86 112 152 201 247 293 347
#     4  12  24  38  59  86 116 153 190 236 296 349
#     4  12  24  44  59  81 118 152 198 248 292 338
#     4   9  18  36  62  87 115 153 191 230 285 355
#     4  10  19  36  62  92 125 156 190 241 297 350
#     4   9  18  32  54  89 128 160 191 234 296 361
#     4   9  18  35  60  86 113 153 201 243 286 339
#
# _framework density 20.168541999999999
#
# number of rings (size 3 to 8) (size 9 to 14) (size 15 to 20)
#    0.000    1.929    2.857    2.143    0.000    3.714 
#    0.000    6.071    0.000    7.286    0.000    0.000 
#    0.000    0.000    0.000    0.000    0.000    0.000 
#
# Total GULP energy -312148.941093 kJ/mol
# GULP energy per Si atom -5574.088234 kJ/mol
# Density = 2.012264 g / cm^3
# Si number density = 20.168542 Si / 1000 Ang^3
#
#
#
# Elastic Constant Matrix: (Units=GPa)
#
#
# Indices 1 2 3 4 5 6 
#
# 1 56.3513 21.5534 25.1096 0.0000 0.0000 0.0000
# 2 21.5534 166.7471 58.6550 0.0000 0.0000 0.0000
# 3 25.1096 58.6550 126.1435 0.0000 0.0000 0.0000
# 4 0.0000 0.0000 0.0000 119.4345 0.0000 0.0000
# 5 0.0000 0.0000 0.0000 0.0000 10.2796 0.0000
# 6 0.0000 0.0000 0.0000 0.0000 0.0000 21.0011
#
#
#
# Elastic Compliance Matrix: (Units=1/GPa)
#
#
# Indices 1 2 3 4 5 6 
#
# 1 0.019742 -0.001398 -0.003280 0.000000 0.000000 0.000000
# 2 -0.001398 0.007269 -0.003102 0.000000 0.000000 0.000000
# 3 -0.003280 -0.003102 0.010023 0.000000 0.000000 0.000000
# 4 0.000000 0.000000 0.000000 0.008373 0.000000 0.000000
# 5 0.000000 0.000000 0.000000 0.000000 0.097280 0.000000
# 6 0.000000 0.000000 0.000000 0.000000 0.000000 0.047616
#
#
# Mechanical properties :
#
#
# Convention : Reuss Voigt Hill
#
# Bulk Modulus (GPa) = 46.56678 62.20865 54.38772
# Shear Modulus (GPa) = 23.47197 46.40463 34.93830
#
# Velocity S-wave (km/s) = 3.41514 4.80191 4.16663
# Velocity P-wave (km/s) = 6.22012 7.85212 7.08328
#
# Compressibility (1/GPa) = 0.02147454
#
# Stress axis : x y z
#
# Youngs Moduli (GPa) = 50.65351 137.57336 99.77538
#
# Poissons Ratio (x) = 0.19235 0.32723
# Poissons Ratio (y) = 0.07082 0.30946
# Poissons Ratio (z) = 0.16613 0.42670
#
# Static dielectric constant tensor:
#      x y z
#    x 1.713200 0.000000 0.000000 
#    y 0.000000 1.791270 0.000000 
#    z 0.000000 0.000000 1.701280 
# 
# From -- ./inp_files/74933.got.cif
#   From: 2010.05.17/outbox.cif.g08.bks.cpg/sg65_38_cif.got.tgz:74933.got - 2010.06.03 17:01:31.
