data_PCOD9487104
_publ_section_title
;
Structure prediction by ZEFSAII (Michael W. Deem and Ramdas Pophale) SiO2 
 PCOD9487104
Probable space group: C M M M
;
_chemical_formula_sum "Si O2"
_cell_formula_units_Z 80
_cell_length_a 15.358530
_cell_length_b 7.836409
_cell_length_c 32.510109
_cell_angle_alpha 90.000000
_cell_angle_beta 90.000000
_cell_angle_gamma 90.000000
_cell_volume 3912.777664
_symmetry_space_group_name_H-M "C M M M"
_symmetry_group_IT_number 65
_symmetry_cell_setting 'orthorhombic'
loop_
_space_group_symop_operation_xyz
x,y,z
-x,-y,z
x,-y,-z
-x,y,-z
-x,-y,-z
x,y,-z
-x,y,z
x,-y,z
1/2+x,1/2+y,z
1/2-x,1/2-y,z
1/2+x,1/2-y,-z
1/2-x,1/2+y,-z
1/2-x,1/2-y,-z
1/2+x,1/2+y,-z
1/2-x,1/2+y,z
1/2+x,1/2-y,z
loop_
_atom_site_type_symbol
_atom_site_label
_atom_site_fract_x
_atom_site_fract_y
_atom_site_fract_z
Si Si1 0.893222 0.500000 0.547169
Si Si2 0.500000 0.791401 0.754300
Si Si3 0.105401 0.188328 0.603761
Si Si4 0.345969 0.796377 0.305150
Si Si5 0.147537 0.705124 0.000000
Si Si6 0.851683 0.294221 0.910123
Si Si7 0.500000 0.209329 0.848385
O O1 0.864511 0.500000 0.500000
O O2 0.865022 0.665408 0.572792
O O3 0.000000 0.500000 0.546788
O O4 0.583414 0.737304 0.727896
O O5 0.500000 0.732826 0.801281
O O6 0.500000 0.000000 0.755242
O O7 0.138528 0.218151 0.649889
O O8 0.000000 0.196859 0.605830
O O9 0.130786 0.000000 0.589600
O O10 0.250000 0.750000 0.290904
O O11 0.355006 0.000000 0.309890
O O12 0.250000 0.750000 0.000000
O O13 0.116573 0.767868 0.955371
O O14 0.136113 0.500000 0.000000
O O15 0.856771 0.500000 0.911031
O O16 0.750000 0.250000 0.904564
O O17 0.914935 0.235095 0.873928
O O18 0.500000 0.000000 0.847854
#
# Coordination Sequence:
#
# PCOD9487104 Si02
#       7
#     8   8  16  16   8  16   8
#     4   9  18  32  54  86 124 163 201 239 289 348
#     4   9  20  36  56  77 112 146 179 228 292 348
#     4  10  19  33  57  86 118 155 197 244 290 342
#     4  11  21  36  58  85 111 144 189 239 291 347
#     4   8  14  25  43  71  98 132 172 229 275 315
#     4   9  17  30  50  72 103 137 182 225 274 334
#     4   9  18  33  51  76 102 142 182 220 277 349
#
# _framework density 20.445834000000001
#
# number of rings (size 3 to 8) (size 9 to 14) (size 15 to 20)
#    0.000    2.500    2.000    0.600    0.000    1.600 
#    0.000    4.500    0.000    4.200    0.000    7.000 
#    0.000    0.000    0.000    0.000    0.000    0.000 
#
# Total GULP energy -223295.626945 kJ/mol
# GULP energy per Si atom -5582.390674 kJ/mol
# Density = 2.039930 g / cm^3
# Si number density = 20.445834 Si / 1000 Ang^3
#
#
#
# Elastic Constant Matrix: (Units=GPa)
#
#
# Indices 1 2 3 4 5 6 
#
# 1 96.9247 26.0988 83.1705 0.0000 0.0000 0.0000
# 2 26.0988 70.9259 41.7369 0.0000 0.0000 0.0000
# 3 83.1705 41.7369 202.3002 0.0000 0.0000 0.0000
# 4 0.0000 0.0000 0.0000 3.4181 0.0000 0.0000
# 5 0.0000 0.0000 0.0000 0.0000 -0.9254 0.0000
# 6 0.0000 0.0000 0.0000 0.0000 0.0000 15.2742
#
#
#
# Elastic Compliance Matrix: (Units=1/GPa)
#
#
# Indices 1 2 3 4 5 6 
#
# 1 0.016274 -0.002335 -0.006209 0.000000 0.000000 0.000000
# 2 -0.002335 0.016382 -0.002420 0.000000 0.000000 0.000000
# 3 -0.006209 -0.002420 0.007995 0.000000 0.000000 0.000000
# 4 0.000000 0.000000 0.000000 0.292559 0.000000 0.000000
# 5 0.000000 0.000000 0.000000 0.000000 -1.080580 0.000000
# 6 0.000000 0.000000 0.000000 0.000000 0.000000 0.065470
#
#
# Mechanical properties :
#
#
# Convention : Reuss Voigt Hill
#
# Bulk Modulus (GPa) = 53.40718 74.68479 64.04598
# Shear Modulus (GPa) = -7.64840 18.16302 5.25731
#
# Velocity S-wave (km/s) = -1.93622 2.98375 1.60528
# Velocity P-wave (km/s) = 4.60211 6.96260 5.90158
#
# Compressibility (1/GPa) = 0.01872407
#
# Stress axis : x y z
#
# Youngs Moduli (GPa) = 61.44878 61.04116 125.07740
#
# Poissons Ratio (x) = 0.14251 0.77659
# Poissons Ratio (y) = 0.14346 0.30269
# Poissons Ratio (z) = 0.38153 0.14772
#
# Static dielectric constant tensor:
#      x y z
#    x 1.706690 0.000000 0.000000 
#    y 0.000000 1.757390 0.000000 
#    z 0.000000 0.000000 1.698090 
# 
# From -- ./inp_files/75141.got.cif
#   From: 2010.05.17/outbox.cif.g08.bks.cpg/sg65_38_cif.got.tgz:75141.got - 2010.06.03 17:01:31.
