data_PCOD9487026
_publ_section_title
;
Structure prediction by ZEFSAII (Michael W. Deem and Ramdas Pophale) SiO2 
 PCOD9487026
Probable space group: C M M M
;
_chemical_formula_sum "Si O2"
_cell_formula_units_Z 88
_cell_length_a 29.675505
_cell_length_b 8.083849
_cell_length_c 18.553718
_cell_angle_alpha 90.000000
_cell_angle_beta 90.000000
_cell_angle_gamma 90.000000
_cell_volume 4450.894111
_symmetry_space_group_name_H-M "C M M M"
_symmetry_group_IT_number 65
_symmetry_cell_setting 'orthorhombic'
loop_
_space_group_symop_operation_xyz
x,y,z
-x,-y,z
x,-y,-z
-x,y,-z
-x,-y,-z
x,y,-z
-x,y,z
x,-y,z
1/2+x,1/2+y,z
1/2-x,1/2-y,z
1/2+x,1/2-y,-z
1/2-x,1/2+y,-z
1/2-x,1/2-y,-z
1/2+x,1/2+y,-z
1/2-x,1/2+y,z
1/2+x,1/2-y,z
loop_
_atom_site_type_symbol
_atom_site_label
_atom_site_fract_x
_atom_site_fract_y
_atom_site_fract_z
Si Si1 0.105219 0.198792 0.141656
Si Si2 0.892346 0.299980 0.419584
Si Si3 0.700897 0.199154 0.351977
Si Si4 0.700924 0.802931 0.813972
Si Si5 0.448578 0.300516 0.281823
Si Si6 0.552127 0.297266 0.000000
O O1 0.157746 0.242651 0.142515
O O2 0.081906 0.261434 0.215309
O O3 0.078268 0.258057 0.071628
O O4 0.101719 0.000000 0.142253
O O5 0.903904 0.242120 0.500000
O O6 0.891751 0.500000 0.420404
O O7 0.842116 0.243005 0.397007
O O8 0.926436 0.246736 0.357468
O O9 0.750000 0.250000 0.379824
O O10 0.696935 0.260357 0.269040
O O11 0.699564 0.000000 0.350370
O O12 0.750000 0.750000 0.841451
O O13 0.699610 0.000000 0.811369
O O14 0.500000 0.241299 0.275679
O O15 0.449349 0.500000 0.277565
O O16 0.552253 0.500000 0.000000
O O17 0.500000 0.245836 0.000000
#
# Coordination Sequence:
#
# PCOD9487026 Si02
#       6
#    16  16  16  16  16   8
#     4  10  19  34  58  85 112 143 180 221 269 324
#     4  10  21  37  54  75 106 142 181 224 270 322
#     4   9  18  32  51  76 105 137 174 217 264 315
#     4  10  19  33  55  82 112 144 181 223 268 319
#     4  10  21  36  55  79 106 138 179 225 271 321
#     4   9  18  34  58  87 116 145 180 225 274 323
#
# _framework density 19.771307
#
# number of rings (size 3 to 8) (size 9 to 14) (size 15 to 20)
#    0.000    2.273    1.818    1.091    0.000    5.091 
#    0.000    2.727    0.000    2.182    0.000    0.000 
#    0.000    0.000    0.000    0.000    0.000    0.000 
#
# Total GULP energy -245626.909697 kJ/mol
# GULP energy per Si atom -5582.429766 kJ/mol
# Density = 1.972631 g / cm^3
# Si number density = 19.771307 Si / 1000 Ang^3
#
#
#
# Elastic Constant Matrix: (Units=GPa)
#
#
# Indices 1 2 3 4 5 6 
#
# 1 177.1947 9.5300 92.2575 0.0000 0.0000 0.0000
# 2 9.5300 10.4337 11.6133 0.0000 0.0000 0.0000
# 3 92.2575 11.6133 129.8444 0.0000 0.0000 0.0000
# 4 0.0000 0.0000 0.0000 12.0605 0.0000 0.0000
# 5 0.0000 0.0000 0.0000 0.0000 15.5745 0.0000
# 6 0.0000 0.0000 0.0000 0.0000 0.0000 25.9115
#
#
#
# Elastic Compliance Matrix: (Units=1/GPa)
#
#
# Indices 1 2 3 4 5 6 
#
# 1 0.008971 -0.001221 -0.006265 0.000000 0.000000 0.000000
# 2 -0.001221 0.106606 -0.008667 0.000000 0.000000 0.000000
# 3 -0.006265 -0.008667 0.012928 0.000000 0.000000 0.000000
# 4 0.000000 0.000000 0.000000 0.082916 0.000000 0.000000
# 5 0.000000 0.000000 0.000000 0.000000 0.064207 0.000000
# 6 0.000000 0.000000 0.000000 0.000000 0.000000 0.038593
#
#
# Mechanical properties :
#
#
# Convention : Reuss Voigt Hill
#
# Bulk Modulus (GPa) = 10.39515 60.47493 35.43504
# Shear Modulus (GPa) = 13.20677 24.31410 18.76043
#
# Velocity S-wave (km/s) = 2.58733 3.51061 3.08372
# Velocity P-wave (km/s) = 3.76760 6.86193 5.53538
#
# Compressibility (1/GPa) = 0.09619875
#
# Stress axis : x y z
#
# Youngs Moduli (GPa) = 111.46961 9.38034 77.35055
#
# Poissons Ratio (x) = 0.01145 0.48460
# Poissons Ratio (y) = 0.13608 0.67043
# Poissons Ratio (z) = 0.69835 0.08130
#
# Static dielectric constant tensor:
#      x y z
#    x 1.680920 0.000000 0.000000 
#    y 0.000000 1.712680 0.000000 
#    z 0.000000 0.000000 1.689110 
# 
# From -- ./inp_files/50342.got.cif
#   From: 2010.05.17/outbox.cif.g08.bks.cpg/sg65_26_cif.got.tgz:50342.got - 2010.06.03 17:01:31.
