data_PCOD9487108
_publ_section_title
;
Structure prediction by ZEFSAII (Michael W. Deem and Ramdas Pophale) SiO2 
 PCOD9487108
Probable space group: C M M M
;
_chemical_formula_sum "Si O2"
_cell_formula_units_Z 112
_cell_length_a 24.354285
_cell_length_b 15.860829
_cell_length_c 14.254594
_cell_angle_alpha 90.000000
_cell_angle_beta 90.000000
_cell_angle_gamma 90.000000
_cell_volume 5506.252451
_symmetry_space_group_name_H-M "C M M M"
_symmetry_group_IT_number 65
_symmetry_cell_setting 'orthorhombic'
loop_
_space_group_symop_operation_xyz
x,y,z
-x,-y,z
x,-y,-z
-x,y,-z
-x,-y,-z
x,y,-z
-x,y,z
x,-y,z
1/2+x,1/2+y,z
1/2-x,1/2-y,z
1/2+x,1/2-y,-z
1/2-x,1/2+y,-z
1/2-x,1/2-y,-z
1/2+x,1/2+y,-z
1/2-x,1/2+y,z
1/2+x,1/2-y,z
loop_
_atom_site_type_symbol
_atom_site_label
_atom_site_fract_x
_atom_site_fract_y
_atom_site_fract_z
Si Si1 0.933427 0.908017 0.108983
Si Si2 0.645213 0.091832 0.147584
Si Si3 0.382872 0.255546 0.605282
Si Si4 0.736208 0.348331 0.896213
Si Si5 0.311072 0.597163 0.697737
Si Si6 0.813643 0.406641 0.361500
Si Si7 0.435696 0.233513 0.799886
O O1 0.917492 0.826349 0.166754
O O2 0.000000 0.910094 0.112618
O O3 0.913862 0.000000 0.142225
O O4 0.918598 0.898738 0.000000
O O5 0.703907 0.108747 0.100969
O O6 0.662355 0.090139 0.256533
O O7 0.601041 0.166189 0.143630
O O8 0.623589 0.000000 0.119813
O O9 0.404429 0.272434 0.500000
O O10 0.350466 0.335891 0.647572
O O11 0.341645 0.176052 0.597829
O O12 0.425245 0.230027 0.687857
O O13 0.750000 0.250000 0.879255
O O14 0.702113 0.382265 0.807567
O O15 0.710617 0.357728 0.000000
O O16 0.329009 0.500000 0.688597
O O17 0.251572 0.604312 0.647481
O O18 0.824945 0.500000 0.401338
O O19 0.500000 0.221743 0.819741
#
# Coordination Sequence:
#
# PCOD9487108 Si02
#       7
#    16  16  16  16  16  16  16
#     4   8  15  31  56  81 100 122 161 218 282 338
#     4   9  18  33  53  79 114 153 188 224 272 332
#     4  11  23  37  54  77 108 145 187 238 289 334
#     4  10  19  33  57  87 120 156 189 225 275 335
#     4  10  20  35  55  80 113 149 184 223 272 339
#     4   8  16  33  56  79 103 134 173 220 276 337
#     4  10  21  37  57  80 108 145 191 240 286 337
#
# _framework density 20.340513999999999
#
# number of rings (size 3 to 8) (size 9 to 14) (size 15 to 20)
#    0.000    2.571    0.000    4.714    0.000    4.571 
#    0.000    2.143    0.000    0.000    0.000   10.000 
#    0.000    0.000    0.000    0.000    0.000    0.000 
#
# Total GULP energy -312361.458426 kJ/mol
# GULP energy per Si atom -5577.883186 kJ/mol
# Density = 2.029422 g / cm^3
# Si number density = 20.340514 Si / 1000 Ang^3
#
#
#
# Elastic Constant Matrix: (Units=GPa)
#
#
# Indices 1 2 3 4 5 6 
#
# 1 65.5845 27.6918 -7.2419 0.0000 0.0000 0.0000
# 2 27.6918 135.0586 26.1939 0.0000 0.0000 0.0000
# 3 -7.2419 26.1939 75.6541 0.0000 0.0000 0.0000
# 4 0.0000 0.0000 0.0000 -35.5194 0.0000 0.0000
# 5 0.0000 0.0000 0.0000 0.0000 12.6785 0.0000
# 6 0.0000 0.0000 0.0000 0.0000 0.0000 28.0080
#
#
#
# Elastic Compliance Matrix: (Units=1/GPa)
#
#
# Indices 1 2 3 4 5 6 
#
# 1 0.017345 -0.004158 0.003100 0.000000 0.000000 0.000000
# 2 -0.004158 0.008934 -0.003491 0.000000 0.000000 0.000000
# 3 0.003100 -0.003491 0.014724 0.000000 0.000000 0.000000
# 4 0.000000 0.000000 0.000000 -0.028154 0.000000 0.000000
# 5 0.000000 0.000000 0.000000 0.000000 0.078874 0.000000
# 6 0.000000 0.000000 0.000000 0.000000 0.000000 0.035704
#
#
# Mechanical properties :
#
#
# Convention : Reuss Voigt Hill
#
# Bulk Modulus (GPa) = 31.34327 41.06499 36.20413
# Shear Modulus (GPa) = 33.97677 16.34364 25.16021
#
# Velocity S-wave (km/s) = 4.09149 2.83769 3.52085
# Velocity P-wave (km/s) = 6.14517 5.56500 5.86226
#
# Compressibility (1/GPa) = 0.03190478
#
# Stress axis : x y z
#
# Youngs Moduli (GPa) = 57.65261 111.93521 67.91852
#
# Poissons Ratio (x) = 0.46538 -0.21054
# Poissons Ratio (y) = 0.23970 0.23711
# Poissons Ratio (z) = -0.17872 0.39078
#
# Static dielectric constant tensor:
#      x y z
#    x 1.710560 0.000000 0.000000 
#    y 0.000000 1.737970 0.000000 
#    z 0.000000 0.000000 1.756970 
# 
# From -- ./inp_files/45762.got.cif
#   From: 2010.05.17/outbox.cif.g08.bks.cpg/sg65_23_cif.got.tgz:45762.got - 2010.06.03 17:01:31.
