data_PCOD9487075
_publ_section_title
;
Structure prediction by ZEFSAII (Michael W. Deem and Ramdas Pophale) SiO2 
 PCOD9487075
Probable space group: C M M M
;
_chemical_formula_sum "Si O2"
_cell_formula_units_Z 88
_cell_length_a 15.620882
_cell_length_b 9.105952
_cell_length_c 31.328580
_cell_angle_alpha 90.000000
_cell_angle_beta 90.000000
_cell_angle_gamma 90.000000
_cell_volume 4456.271258
_symmetry_space_group_name_H-M "C M M M"
_symmetry_group_IT_number 65
_symmetry_cell_setting 'orthorhombic'
loop_
_space_group_symop_operation_xyz
x,y,z
-x,-y,z
x,-y,-z
-x,y,-z
-x,-y,-z
x,y,-z
-x,y,z
x,-y,z
1/2+x,1/2+y,z
1/2-x,1/2-y,z
1/2+x,1/2-y,-z
1/2-x,1/2+y,-z
1/2-x,1/2-y,-z
1/2+x,1/2+y,-z
1/2-x,1/2+y,z
1/2+x,1/2-y,z
loop_
_atom_site_type_symbol
_atom_site_label
_atom_site_fract_x
_atom_site_fract_y
_atom_site_fract_z
Si Si1 0.838066 0.323799 0.105850
Si Si2 0.156889 0.822463 0.453952
Si Si3 0.898109 0.166447 0.360847
Si Si4 0.103855 0.830226 0.191561
Si Si5 0.604840 0.167140 0.722438
Si Si6 0.500000 0.821568 0.048727
O O1 0.831587 0.500000 0.105952
O O2 0.750000 0.250000 0.091717
O O3 0.859386 0.266023 0.153209
O O4 0.915861 0.278186 0.074988
O O5 0.115424 0.783773 0.500000
O O6 0.250000 0.750000 0.454193
O O7 0.115813 0.778113 0.409033
O O8 0.162209 0.000000 0.453138
O O9 0.865025 0.267390 0.322684
O O10 0.000000 0.156970 0.354929
O O11 0.863381 0.000000 0.357231
O O12 0.130172 0.766742 0.237487
O O13 0.000000 0.823286 0.189440
O O14 0.129519 0.000000 0.186870
O O15 0.500000 0.166100 0.721925
O O16 0.633193 0.000000 0.728220
O O17 0.500000 0.000000 0.047755
O O18 0.500000 0.769046 0.000000
#
# Coordination Sequence:
#
# PCOD9487075 Si02
#       6
#    16  16  16  16  16   8
#     4  11  22  38  61  90 124 161 203 250 299 351
#     4   9  18  32  49  68  91 123 162 204 254 314
#     4   9  17  30  48  71  99 129 166 213 263 314
#     4  10  19  33  56  83 113 149 192 237 284 340
#     4   9  17  29  48  75 106 140 178 218 268 328
#     4   9  20  40  65  91 123 165 207 247 298 357
#
# _framework density 19.747451999999999
#
# number of rings (size 3 to 8) (size 9 to 14) (size 15 to 20)
#    0.000    2.455    0.909    1.636    0.000    4.364 
#    0.000    2.727    0.000    6.000    0.000    5.091 
#    0.000    0.000    0.000    0.000    0.000    0.000 
#
# Total GULP energy -245461.688302 kJ/mol
# GULP energy per Si atom -5578.674734 kJ/mol
# Density = 1.970251 g / cm^3
# Si number density = 19.747452 Si / 1000 Ang^3
#
#
#
# Elastic Constant Matrix: (Units=GPa)
#
#
# Indices 1 2 3 4 5 6 
#
# 1 59.3728 31.9958 45.9122 0.0000 0.0000 0.0000
# 2 31.9958 74.5057 52.3792 0.0000 0.0000 0.0000
# 3 45.9122 52.3792 162.1795 0.0000 0.0000 0.0000
# 4 0.0000 0.0000 0.0000 22.2177 0.0000 0.0000
# 5 0.0000 0.0000 0.0000 0.0000 -51.9017 0.0000
# 6 0.0000 0.0000 0.0000 0.0000 0.0000 21.0125
#
#
#
# Elastic Compliance Matrix: (Units=1/GPa)
#
#
# Indices 1 2 3 4 5 6 
#
# 1 0.024238 -0.007225 -0.004528 0.000000 0.000000 0.000000
# 2 -0.007225 0.019518 -0.004258 0.000000 0.000000 0.000000
# 3 -0.004528 -0.004258 0.008823 0.000000 0.000000 0.000000
# 4 0.000000 0.000000 0.000000 0.045009 0.000000 0.000000
# 5 0.000000 0.000000 0.000000 0.000000 -0.019267 0.000000
# 6 0.000000 0.000000 0.000000 0.000000 0.000000 0.047591
#
#
# Mechanical properties :
#
#
# Convention : Reuss Voigt Hill
#
# Bulk Modulus (GPa) = 48.64798 61.84805 55.24802
# Shear Modulus (GPa) = 30.34202 9.31709 19.82955
#
# Velocity S-wave (km/s) = 3.92408 2.17448 3.17228
# Velocity P-wave (km/s) = 6.72456 6.13938 6.43862
#
# Compressibility (1/GPa) = 0.02055584
#
# Stress axis : x y z
#
# Youngs Moduli (GPa) = 41.25759 51.23362 113.33747
#
# Poissons Ratio (x) = 0.37019 0.51320
# Poissons Ratio (y) = 0.29810 0.48263
# Poissons Ratio (z) = 0.18682 0.21817
#
# Static dielectric constant tensor:
#      x y z
#    x 1.715290 0.000000 0.000000 
#    y 0.000000 1.682690 0.000000 
#    z 0.000000 0.000000 1.695680 
# 
# From -- ./inp_files/77808.got.cif
#   From: 2010.05.17/outbox.cif.g08.bks.cpg/sg65_39_cif.got.tgz:77808.got - 2010.06.03 17:01:31.
