data_PCOD9487101
_publ_section_title
;
Structure prediction by ZEFSAII (Michael W. Deem and Ramdas Pophale) SiO2 
 PCOD9487101
Probable space group: C M M M
;
_chemical_formula_sum "Si O2"
_cell_formula_units_Z 120
_cell_length_a 14.306250
_cell_length_b 14.114422
_cell_length_c 29.847914
_cell_angle_alpha 90.000000
_cell_angle_beta 90.000000
_cell_angle_gamma 90.000000
_cell_volume 6027.023610
_symmetry_space_group_name_H-M "C M M M"
_symmetry_group_IT_number 65
_symmetry_cell_setting 'orthorhombic'
loop_
_space_group_symop_operation_xyz
x,y,z
-x,-y,z
x,-y,-z
-x,y,-z
-x,-y,-z
x,y,-z
-x,y,z
x,-y,z
1/2+x,1/2+y,z
1/2-x,1/2-y,z
1/2+x,1/2-y,-z
1/2-x,1/2+y,-z
1/2-x,1/2-y,-z
1/2+x,1/2+y,-z
1/2-x,1/2+y,z
1/2+x,1/2-y,z
loop_
_atom_site_type_symbol
_atom_site_label
_atom_site_fract_x
_atom_site_fract_y
_atom_site_fract_z
Si Si1 0.608807 0.599696 0.950712
Si Si2 0.611927 0.783342 0.359955
Si Si3 0.886784 0.391416 0.449814
Si Si4 0.782434 0.109335 0.323190
Si Si5 0.888666 0.612719 0.000000
Si Si6 0.894766 0.697384 0.189678
Si Si7 0.349969 0.211992 0.093455
Si Si8 0.200402 0.109420 0.782045
O O1 0.500000 0.586054 0.957408
O O2 0.650504 0.500000 0.934368
O O3 0.608309 0.687866 0.919284
O O4 0.650707 0.621048 0.000000
O O5 0.500000 0.791673 0.352893
O O6 0.636419 0.820614 0.409804
O O7 0.677480 0.848544 0.328284
O O8 0.649377 0.677629 0.351269
O O9 0.854312 0.365888 0.500000
O O10 0.856610 0.500000 0.440072
O O11 0.000000 0.393543 0.451165
O O12 0.813409 0.115064 0.271435
O O13 0.784315 0.000000 0.337174
O O14 0.849184 0.653216 0.047114
O O15 0.879300 0.500000 0.000000
O O16 0.000000 0.638003 0.000000
O O17 0.896001 0.668982 0.137033
O O18 0.863064 0.808088 0.195641
O O19 0.809144 0.637504 0.210007
O O20 0.000000 0.684710 0.207891
O O21 0.250000 0.250000 0.108289
O O22 0.183124 0.000000 0.796578
#
# Coordination Sequence:
#
# PCOD9487101 Si02
#       8
#    16  16  16  16   8  16  16  16
#     4   9  18  33  55  80 105 136 174 217 262 308
#     4  10  19  33  57  85 115 154 203 252 298 354
#     4   8  14  26  47  78 116 158 205 255 303 351
#     4  10  22  38  57  84 121 154 187 243 309 366
#     4  11  25  42  59  83 115 153 194 228 267 328
#     4  11  23  42  67  91 116 153 197 240 285 344
#     4  12  23  40  60  84 117 151 182 227 279 331
#     4  10  23  44  63  87 123 156 189 239 301 362
#
# _framework density 19.910325
#
# number of rings (size 3 to 8) (size 9 to 14) (size 15 to 20)
#    0.000    1.933    2.000    4.200    0.000    5.333 
#    0.000    4.000    0.000    1.200    0.000    1.867 
#    0.000    0.000    0.000    0.000    0.000    0.000 
#
# Total GULP energy -334190.177833 kJ/mol
# GULP energy per Si atom -5569.836297 kJ/mol
# Density = 1.986501 g / cm^3
# Si number density = 19.910325 Si / 1000 Ang^3
#
#
#
# Elastic Constant Matrix: (Units=GPa)
#
#
# Indices 1 2 3 4 5 6 
#
# 1 65.7099 2.4726 4.2968 0.0000 0.0000 0.0000
# 2 2.4726 92.2604 35.4070 0.0000 0.0000 0.0000
# 3 4.2968 35.4070 83.0206 0.0000 0.0000 0.0000
# 4 0.0000 0.0000 0.0000 -7.6154 0.0000 0.0000
# 5 0.0000 0.0000 0.0000 0.0000 23.3361 0.0000
# 6 0.0000 0.0000 0.0000 0.0000 0.0000 19.6641
#
#
#
# Elastic Compliance Matrix: (Units=1/GPa)
#
#
# Indices 1 2 3 4 5 6 
#
# 1 0.015271 -0.000127 -0.000736 0.000000 0.000000 0.000000
# 2 -0.000127 0.012961 -0.005521 0.000000 0.000000 0.000000
# 3 -0.000736 -0.005521 0.014438 0.000000 0.000000 0.000000
# 4 0.000000 0.000000 0.000000 -0.131312 0.000000 0.000000
# 5 0.000000 0.000000 0.000000 0.000000 0.042852 0.000000
# 6 0.000000 0.000000 0.000000 0.000000 0.000000 0.050854
#
#
# Mechanical properties :
#
#
# Convention : Reuss Voigt Hill
#
# Bulk Modulus (GPa) = 33.44251 36.14931 34.79591
# Shear Modulus (GPa) = 179.85366 20.33124 100.09245
#
# Velocity S-wave (km/s) = 9.51462 3.19900 7.09794
# Velocity P-wave (km/s) = 11.72762 5.64272 9.20264
#
# Compressibility (1/GPa) = 0.02990207
#
# Stress axis : x y z
#
# Youngs Moduli (GPa) = 65.48218 77.15360 69.26162
#
# Poissons Ratio (x) = 0.00977 0.05100
# Poissons Ratio (y) = 0.00830 0.38241
# Poissons Ratio (z) = 0.04822 0.42598
#
# Static dielectric constant tensor:
#      x y z
#    x 1.724180 0.000000 0.000000 
#    y 0.000000 1.441290 0.000000 
#    z 0.000000 0.000000 1.739830 
# 
# From -- ./inp_files/77753.got.cif
#   From: 2010.05.17/outbox.cif.g08.bks.cpg/sg65_39_cif.got.tgz:77753.got - 2010.06.03 17:01:31.
