data_PCOD9487429
_publ_section_title
;
Structure prediction by ZEFSAII (Michael W. Deem and Ramdas Pophale) SiO2 
 PCOD9487429
Probable space group: C M M M
;
_chemical_formula_sum "Si O2"
_cell_formula_units_Z 72
_cell_length_a 15.536560
_cell_length_b 8.118951
_cell_length_c 28.813223
_cell_angle_alpha 90.000000
_cell_angle_beta 90.000000
_cell_angle_gamma 90.000000
_cell_volume 3634.516354
_symmetry_space_group_name_H-M "C M M M"
_symmetry_group_IT_number 65
_symmetry_cell_setting 'orthorhombic'
loop_
_space_group_symop_operation_xyz
x,y,z
-x,-y,z
x,-y,-z
-x,y,-z
-x,-y,-z
x,y,-z
-x,y,z
x,-y,z
1/2+x,1/2+y,z
1/2-x,1/2-y,z
1/2+x,1/2-y,-z
1/2-x,1/2+y,-z
1/2-x,1/2-y,-z
1/2+x,1/2+y,-z
1/2-x,1/2+y,z
1/2+x,1/2-y,z
loop_
_atom_site_type_symbol
_atom_site_label
_atom_site_fract_x
_atom_site_fract_y
_atom_site_fract_z
Si Si1 0.395578 0.316870 0.612423
Si Si2 0.000000 0.299602 0.880685
Si Si3 0.605370 0.000000 0.446561
Si Si4 0.847003 0.698510 0.052654
Si Si5 0.000000 0.805292 0.225531
Si Si6 0.842767 0.693482 0.287586
O O1 0.500000 0.311771 0.614232
O O2 0.370186 0.500000 0.596237
O O3 0.362327 0.287336 0.664415
O O4 0.366933 0.165450 0.580231
O O5 0.916578 0.245409 0.909988
O O6 0.000000 0.500000 0.878587
O O7 0.000000 0.233603 0.828782
O O8 0.500000 0.000000 0.446039
O O9 0.632679 0.000000 0.500000
O O10 0.850781 0.500000 0.051686
O O11 0.750000 0.750000 0.064092
O O12 0.866314 0.756782 0.000000
O O13 0.083379 0.731292 0.250708
O O14 0.000000 0.000000 0.233324
O O15 0.842500 0.500000 0.298006
O O16 0.750000 0.750000 0.269921
#
# Coordination Sequence:
#
# PCOD9487429 Si02
#       6
#    16   8   8  16   8  16
#     4  10  19  34  58  88 122 160 203 254 308 367
#     4  10  21  38  58  82 116 162 199 243 310 372
#     4   9  18  32  54  88 124 163 207 251 307 372
#     4   9  18  34  58  86 116 153 202 251 298 360
#     4  12  26  43  61  89 126 161 205 257 317 373
#     4  12  24  41  65  93 120 157 207 259 312 375
#
# _framework density 19.810064000000001
#
# number of rings (size 3 to 8) (size 9 to 14) (size 15 to 20)
#    0.000    1.667    2.222    3.333    0.000    3.556 
#    0.000    4.444    0.000    4.000    0.000    0.000 
#    0.000    0.000    0.000    0.000    0.000    0.000 
#
# Total GULP energy -201226.924167 kJ/mol
# GULP energy per Si atom -5589.636782 kJ/mol
# Density = 1.976497 g / cm^3
# Si number density = 19.810064 Si / 1000 Ang^3
#
#
#
# Elastic Constant Matrix: (Units=GPa)
#
#
# Indices 1 2 3 4 5 6 
#
# 1 94.4879 34.4032 72.3271 0.0000 0.0000 0.0000
# 2 34.4032 113.0995 33.8002 0.0000 0.0000 0.0000
# 3 72.3271 33.8002 132.9189 0.0000 0.0000 0.0000
# 4 0.0000 0.0000 0.0000 17.3252 0.0000 0.0000
# 5 0.0000 0.0000 0.0000 0.0000 -14.0898 0.0000
# 6 0.0000 0.0000 0.0000 0.0000 0.0000 22.9444
#
#
#
# Elastic Compliance Matrix: (Units=1/GPa)
#
#
# Indices 1 2 3 4 5 6 
#
# 1 0.018983 -0.002908 -0.009590 0.000000 0.000000 0.000000
# 2 -0.002908 0.010015 -0.000964 0.000000 0.000000 0.000000
# 3 -0.009590 -0.000964 0.012987 0.000000 0.000000 0.000000
# 4 0.000000 0.000000 0.000000 0.057719 0.000000 0.000000
# 5 0.000000 0.000000 0.000000 0.000000 -0.070973 0.000000
# 6 0.000000 0.000000 0.000000 0.000000 0.000000 0.043584
#
#
# Mechanical properties :
#
#
# Convention : Reuss Voigt Hill
#
# Bulk Modulus (GPa) = 66.40225 69.06306 67.73265
# Shear Modulus (GPa) = 47.95742 18.56767 33.26255
#
# Velocity S-wave (km/s) = 4.92556 3.06483 4.10210
# Velocity P-wave (km/s) = 8.12037 6.88931 7.53004
#
# Compressibility (1/GPa) = 0.01505973
#
# Stress axis : x y z
#
# Youngs Moduli (GPa) = 52.67844 99.85459 77.00084
#
# Poissons Ratio (x) = 0.29042 0.73844
# Poissons Ratio (y) = 0.15321 0.07423
# Poissons Ratio (z) = 0.50519 0.09626
#
# Static dielectric constant tensor:
#      x y z
#    x 1.696600 0.000000 0.000000 
#    y 0.000000 1.707910 0.000000 
#    z 0.000000 0.000000 1.647940 
# 
# From -- ./inp_files/74682.got.cif
#   From: 2010.05.17/outbox.cif.g08.bks.cpg/sg65_38_cif.got.tgz:74682.got - 2010.06.03 17:01:31.
