data_PCOD9487690
_publ_section_title
;
Structure prediction by ZEFSAII (Michael W. Deem and Ramdas Pophale) SiO2 
 PCOD9487690
Probable space group: C M M M
;
_chemical_formula_sum "Si O2"
_cell_formula_units_Z 66
_cell_length_a 22.648660
_cell_length_b 18.221102
_cell_length_c 7.365386
_cell_angle_alpha 90.000000
_cell_angle_beta 90.000000
_cell_angle_gamma 90.000000
_cell_volume 3039.573598
_symmetry_space_group_name_H-M "C M M M"
_symmetry_group_IT_number 65
_symmetry_cell_setting 'orthorhombic'
loop_
_space_group_symop_operation_xyz
x,y,z
-x,-y,z
x,-y,-z
-x,y,-z
-x,-y,-z
x,y,-z
-x,y,z
x,-y,z
1/2+x,1/2+y,z
1/2-x,1/2-y,z
1/2+x,1/2-y,-z
1/2-x,1/2+y,-z
1/2-x,1/2-y,-z
1/2+x,1/2+y,-z
1/2-x,1/2+y,z
1/2+x,1/2-y,z
loop_
_atom_site_type_symbol
_atom_site_label
_atom_site_fract_x
_atom_site_fract_y
_atom_site_fract_z
Si Si1 0.875578 0.208114 0.720367
Si Si2 0.066764 0.500000 0.215614
Si Si3 0.285580 0.581950 0.721829
Si Si4 0.000000 0.000000 0.000000
Si Si5 0.656655 0.130458 0.714565
Si Si6 0.500000 0.636510 0.280437
O O1 0.872016 0.209771 0.500000
O O2 0.829668 0.145789 0.781368
O O3 0.859454 0.289277 0.787178
O O4 0.941524 0.183062 0.763371
O O5 0.104608 0.428327 0.265160
O O6 0.000000 0.500000 0.289468
O O7 0.062643 0.500000 0.000000
O O8 0.286098 0.581637 0.500000
O O9 0.303560 0.500000 0.779057
O O10 0.218883 0.598971 0.783387
O O11 0.000000 0.064103 0.840319
O O12 0.666004 0.139870 0.500000
O O13 0.500000 0.621344 0.500000
#
# Coordination Sequence:
#
# PCOD9487690 Si02
#       6
#    16   8  16   2  16   8
#     4   9  19  34  59  91 123 157 195 246 306 364
#     4  11  25  41  56  81 115 159 194 238 307 367
#     4   9  16  29  55  91 122 152 192 241 299 360
#     4  12  26  44  64  90 124 166 210 264 306 366
#     4  10  19  36  62  90 117 150 200 251 297 357
#     4  10  23  43  65  93 126 166 209 257 314 372
#
# _framework density 21.713571000000002
#
# number of rings (size 3 to 8) (size 9 to 14) (size 15 to 20)
#    0.000    2.303    1.212    1.273    3.394    3.879 
#    2.182    0.000    5.333    1.455    0.000    0.000 
#    0.000    0.000    0.000    0.000    0.000    0.000 
#
# Total GULP energy -184132.648302 kJ/mol
# GULP energy per Si atom -5579.777221 kJ/mol
# Density = 2.166415 g / cm^3
# Si number density = 21.713571 Si / 1000 Ang^3
#
#
#
# Elastic Constant Matrix: (Units=GPa)
#
#
# Indices 1 2 3 4 5 6 
#
# 1 167.5215 101.2921 -6.0040 0.0000 0.0000 0.0000
# 2 101.2921 237.7822 6.3534 0.0000 0.0000 0.0000
# 3 -6.0040 6.3534 83.4617 0.0000 0.0000 0.0000
# 4 0.0000 0.0000 0.0000 -36.6683 0.0000 0.0000
# 5 0.0000 0.0000 0.0000 0.0000 49.6593 0.0000
# 6 0.0000 0.0000 0.0000 0.0000 0.0000 0.2718
#
#
#
# Elastic Compliance Matrix: (Units=1/GPa)
#
#
# Indices 1 2 3 4 5 6 
#
# 1 0.008100 -0.003473 0.000847 0.000000 0.000000 0.000000
# 2 -0.003473 0.005703 -0.000684 0.000000 0.000000 0.000000
# 3 0.000847 -0.000684 0.012095 0.000000 0.000000 0.000000
# 4 0.000000 0.000000 0.000000 -0.027272 0.000000 0.000000
# 5 0.000000 0.000000 0.000000 0.000000 0.020137 0.000000
# 6 0.000000 0.000000 0.000000 0.000000 0.000000 3.679633
#
#
# Mechanical properties :
#
#
# Convention : Reuss Voigt Hill
#
# Bulk Modulus (GPa) = 51.87366 76.89428 64.38397
# Shear Modulus (GPa) = 1.34719 28.46081 14.90400
#
# Velocity S-wave (km/s) = 0.78853 3.62434 2.62275
# Velocity P-wave (km/s) = 4.97703 7.28041 6.23599
#
# Compressibility (1/GPa) = 0.01927761
#
# Stress axis : x y z
#
# Youngs Moduli (GPa) = 123.46145 175.33841 82.68193
#
# Poissons Ratio (x) = 0.60895 -0.07003
# Poissons Ratio (y) = 0.42878 0.05655
# Poissons Ratio (z) = -0.10458 0.11993
#
# Static dielectric constant tensor:
#      x y z
#    x 1.758370 0.000000 0.000000 
#    y 0.000000 1.703950 0.000000 
#    z 0.000000 0.000000 1.835180 
# 
# From -- ./inp_files/10974.got.cif
#   From: 2010.05.17/outbox.cif.g08.bks.cpg/sg65_6_cif.got.tgz:10974.got - 2010.06.03 17:01:31.
