data_PCOD9487219
_publ_section_title
;
Structure prediction by ZEFSAII (Michael W. Deem and Ramdas Pophale) SiO2 
 PCOD9487219
Probable space group: C M M M
;
_chemical_formula_sum "Si O2"
_cell_formula_units_Z 104
_cell_length_a 18.538818
_cell_length_b 26.506777
_cell_length_c 11.966794
_cell_angle_alpha 90.000000
_cell_angle_beta 90.000000
_cell_angle_gamma 90.000000
_cell_volume 5880.534203
_symmetry_space_group_name_H-M "C M M M"
_symmetry_group_IT_number 65
_symmetry_cell_setting 'orthorhombic'
loop_
_space_group_symop_operation_xyz
x,y,z
-x,-y,z
x,-y,-z
-x,y,-z
-x,-y,-z
x,y,-z
-x,y,z
x,-y,z
1/2+x,1/2+y,z
1/2-x,1/2-y,z
1/2+x,1/2-y,-z
1/2-x,1/2+y,-z
1/2-x,1/2-y,-z
1/2+x,1/2+y,-z
1/2-x,1/2+y,z
1/2+x,1/2-y,z
loop_
_atom_site_type_symbol
_atom_site_label
_atom_site_fract_x
_atom_site_fract_y
_atom_site_fract_z
Si Si1 0.921813 0.587167 0.628235
Si Si2 0.833218 0.119729 0.799114
Si Si3 0.235163 0.440841 0.371073
Si Si4 0.587068 0.560758 0.000000
Si Si5 0.413836 0.309867 0.375878
Si Si6 0.917984 0.698248 0.706088
Si Si7 0.713179 0.197895 0.129343
O O1 0.923177 0.569573 0.500000
O O2 0.846298 0.567498 0.674674
O O3 0.917752 0.647957 0.631686
O O4 0.000000 0.573059 0.679287
O O5 0.792224 0.084876 0.709682
O O6 0.881300 0.157700 0.724603
O O7 0.771448 0.153717 0.856666
O O8 0.877774 0.087937 0.891025
O O9 0.237922 0.421250 0.500000
O O10 0.249090 0.500000 0.375173
O O11 0.601262 0.500000 0.000000
O O12 0.500000 0.567549 0.000000
O O13 0.386626 0.324322 0.500000
O O14 0.500000 0.316676 0.375463
O O15 0.400362 0.250298 0.356573
O O16 0.858431 0.689338 0.799914
O O17 0.000000 0.703731 0.750207
O O18 0.750000 0.250000 0.168559
O O19 0.694343 0.204034 0.000000
#
# Coordination Sequence:
#
# PCOD9487219 Si02
#       7
#    16  16  16   8  16  16  16
#     4   9  17  30  50  76 109 148 188 228 269 319
#     4  12  21  39  60  85 111 149 183 233 289 341
#     4  10  21  35  54  81 111 145 188 238 289 339
#     4  11  26  46  67  88 107 139 192 245 292 346
#     4  10  21  36  56  85 119 152 186 225 274 338
#     4  10  19  34  54  80 115 154 191 223 267 327
#     4  11  22  37  54  82 115 146 187 234 276 327
#
# _framework density 17.685468
#
# number of rings (size 3 to 8) (size 9 to 14) (size 15 to 20)
#    0.000    1.615    3.846    1.846    0.000    2.462 
#    0.000    2.308    0.000    0.000    0.000    6.462 
#    0.000    4.923    0.000    0.000    0.000    0.000 
#
# Total GULP energy -289865.716789 kJ/mol
# GULP energy per Si atom -5574.340707 kJ/mol
# Density = 1.764521 g / cm^3
# Si number density = 17.685468 Si / 1000 Ang^3
#
#
#
# Elastic Constant Matrix: (Units=GPa)
#
#
# Indices 1 2 3 4 5 6 
#
# 1 86.4036 22.9466 38.9779 0.0000 0.0000 0.0000
# 2 22.9466 65.9383 11.6692 0.0000 0.0000 0.0000
# 3 38.9779 11.6692 63.6230 0.0000 0.0000 0.0000
# 4 0.0000 0.0000 0.0000 26.3441 0.0000 0.0000
# 5 0.0000 0.0000 0.0000 0.0000 24.8968 0.0000
# 6 0.0000 0.0000 0.0000 0.0000 0.0000 25.1874
#
#
#
# Elastic Compliance Matrix: (Units=1/GPa)
#
#
# Indices 1 2 3 4 5 6 
#
# 1 0.017061 -0.004225 -0.009678 0.000000 0.000000 0.000000
# 2 -0.004225 0.016721 -0.000479 0.000000 0.000000 0.000000
# 3 -0.009678 -0.000479 0.021734 0.000000 0.000000 0.000000
# 4 0.000000 0.000000 0.000000 0.037959 0.000000 0.000000
# 5 0.000000 0.000000 0.000000 0.000000 0.040166 0.000000
# 6 0.000000 0.000000 0.000000 0.000000 0.000000 0.039702
#
#
# Mechanical properties :
#
#
# Convention : Reuss Voigt Hill
#
# Bulk Modulus (GPa) = 37.37686 40.35023 38.86355
# Shear Modulus (GPa) = 23.69412 24.77709 24.23560
#
# Velocity S-wave (km/s) = 3.66423 3.74704 3.70586
# Velocity P-wave (km/s) = 6.25158 6.44867 6.35089
#
# Compressibility (1/GPa) = 0.02675452
#
# Stress axis : x y z
#
# Youngs Moduli (GPa) = 58.61248 59.80654 46.01051
#
# Poissons Ratio (x) = 0.25266 0.44527
# Poissons Ratio (y) = 0.24762 0.02202
# Poissons Ratio (z) = 0.56722 0.02862
#
# Static dielectric constant tensor:
#      x y z
#    x 1.616500 0.000000 0.000000 
#    y 0.000000 1.607530 0.000000 
#    z 0.000000 0.000000 1.596720 
# 
# From -- ./inp_files/27473.got.cif
#   From: 2010.05.17/outbox.cif.g08.bks.cpg/sg65_14_cif.got.tgz:27473.got - 2010.06.03 17:01:31.
