data_PCOD9487717
_publ_section_title
;
Structure prediction by ZEFSAII (Michael W. Deem and Ramdas Pophale) SiO2 
 PCOD9487717
Probable space group: C M M M
;
_chemical_formula_sum "Si O2"
_cell_formula_units_Z 66
_cell_length_a 7.756393
_cell_length_b 15.096690
_cell_length_c 28.988917
_cell_angle_alpha 90.000000
_cell_angle_beta 90.000000
_cell_angle_gamma 90.000000
_cell_volume 3394.482185
_symmetry_space_group_name_H-M "C M M M"
_symmetry_group_IT_number 65
_symmetry_cell_setting 'orthorhombic'
loop_
_space_group_symop_operation_xyz
x,y,z
-x,-y,z
x,-y,-z
-x,y,-z
-x,-y,-z
x,y,-z
-x,y,z
x,-y,z
1/2+x,1/2+y,z
1/2-x,1/2-y,z
1/2+x,1/2-y,-z
1/2-x,1/2+y,-z
1/2-x,1/2-y,-z
1/2+x,1/2+y,-z
1/2-x,1/2+y,z
1/2+x,1/2-y,z
loop_
_atom_site_type_symbol
_atom_site_label
_atom_site_fract_x
_atom_site_fract_y
_atom_site_fract_z
Si Si1 0.207986 0.500000 0.321512
Si Si2 0.706614 0.500000 0.571326
Si Si3 0.792978 0.352060 0.747856
Si Si4 0.000000 0.500000 0.000000
Si Si5 0.692573 0.500000 0.076499
Si Si6 0.706817 0.146823 0.851537
Si Si7 0.707281 0.353784 0.500000
O O1 0.253247 0.500000 0.374949
O O2 0.271439 0.415161 0.292630
O O3 0.000000 0.500000 0.319546
O O4 0.500000 0.500000 0.566978
O O5 0.768502 0.411932 0.544086
O O6 0.750000 0.250000 0.739566
O O7 0.732229 0.376354 0.799524
O O8 0.000000 0.360139 0.749288
O O9 0.152905 0.500000 0.040067
O O10 0.500000 0.500000 0.056325
O O11 0.712947 0.584895 0.109867
O O12 0.500000 0.135385 0.853175
O O13 0.750000 0.250000 0.858868
O O14 0.500000 0.357148 0.500000
O O15 0.750000 0.250000 0.500000
#
# Coordination Sequence:
#
# PCOD9487717 Si02
#       7
#     8   8  16   2   8  16   8
#     4  10  20  34  51  77 115 154 187 221 285 339
#     4   9  20  37  53  74 104 141 177 230 280 342
#     4   9  19  34  54  81 116 152 188 231 277 332
#     4  12  26  48  64  90 128 158 198 256 308 352
#     4  12  24  42  68  91 122 160 200 246 305 364
#     4  10  19  37  63  91 121 156 200 246 291 347
#     4   9  19  37  58  76  98 131 183 233 288 336
#
# _framework density 19.443318000000001
#
# number of rings (size 3 to 8) (size 9 to 14) (size 15 to 20)
#    0.000    2.182    1.212    2.364    0.000    5.818 
#    0.000    7.879    0.000    0.000    0.000    0.000 
#    0.000    0.000    0.000    0.000    0.000    0.000 
#
# Total GULP energy -183907.030848 kJ/mol
# GULP energy per Si atom -5572.940329 kJ/mol
# Density = 1.939906 g / cm^3
# Si number density = 19.443318 Si / 1000 Ang^3
#
#
#
# Elastic Constant Matrix: (Units=GPa)
#
#
# Indices 1 2 3 4 5 6 
#
# 1 81.1332 22.4502 40.4368 0.0000 0.0000 0.0000
# 2 22.4502 127.4531 104.6294 0.0000 0.0000 0.0000
# 3 40.4368 104.6294 191.7400 0.0000 0.0000 0.0000
# 4 0.0000 0.0000 0.0000 -16.1673 0.0000 0.0000
# 5 0.0000 0.0000 0.0000 0.0000 22.9048 0.0000
# 6 0.0000 0.0000 0.0000 0.0000 0.0000 25.0066
#
#
#
# Elastic Compliance Matrix: (Units=1/GPa)
#
#
# Indices 1 2 3 4 5 6 
#
# 1 0.013773 -0.000075 -0.002864 0.000000 0.000000 0.000000
# 2 -0.000075 0.014213 -0.007740 0.000000 0.000000 0.000000
# 3 -0.002864 -0.007740 0.010043 0.000000 0.000000 0.000000
# 4 0.000000 0.000000 0.000000 -0.061853 0.000000 0.000000
# 5 0.000000 0.000000 0.000000 0.000000 0.043659 0.000000
# 6 0.000000 0.000000 0.000000 0.000000 0.000000 0.039989
#
#
# Mechanical properties :
#
#
# Convention : Reuss Voigt Hill
#
# Bulk Modulus (GPa) = 59.98187 81.70656 70.84421
# Shear Modulus (GPa) = 57.64327 21.86948 39.75637
#
# Velocity S-wave (km/s) = 5.45080 3.35741 4.52678
# Velocity P-wave (km/s) = 8.39830 7.55935 7.98985
#
# Compressibility (1/GPa) = 0.01667170
#
# Stress axis : x y z
#
# Youngs Moduli (GPa) = 72.60319 70.35651 99.57209
#
# Poissons Ratio (x) = 0.00530 0.28514
# Poissons Ratio (y) = 0.00546 0.77070
# Poissons Ratio (z) = 0.20791 0.54457
#
# Static dielectric constant tensor:
#      x y z
#    x 1.710920 0.000000 0.000000 
#    y 0.000000 1.667980 0.000000 
#    z 0.000000 0.000000 1.663190 
# 
# From -- ./inp_files/72460.got.cif
#   From: 2010.05.17/outbox.cif.g08.bks.cpg/sg65_37_cif.got.tgz:72460.got - 2010.06.03 17:01:31.
