data_PCOD9487756
_publ_section_title
;
Structure prediction by ZEFSAII (Michael W. Deem and Ramdas Pophale) SiO2 
 PCOD9487756
Probable space group: C M M M
;
_chemical_formula_sum "Si O2"
_cell_formula_units_Z 104
_cell_length_a 28.351952
_cell_length_b 7.434760
_cell_length_c 28.182530
_cell_angle_alpha 90.000000
_cell_angle_beta 90.000000
_cell_angle_gamma 90.000000
_cell_volume 5940.594333
_symmetry_space_group_name_H-M "C M M M"
_symmetry_group_IT_number 65
_symmetry_cell_setting 'orthorhombic'
loop_
_space_group_symop_operation_xyz
x,y,z
-x,-y,z
x,-y,-z
-x,y,-z
-x,-y,-z
x,y,-z
-x,y,z
x,-y,z
1/2+x,1/2+y,z
1/2-x,1/2-y,z
1/2+x,1/2-y,-z
1/2-x,1/2+y,-z
1/2-x,1/2-y,-z
1/2+x,1/2+y,-z
1/2-x,1/2+y,z
1/2+x,1/2-y,z
loop_
_atom_site_type_symbol
_atom_site_label
_atom_site_fract_x
_atom_site_fract_y
_atom_site_fract_z
Si Si1 0.306283 0.715270 0.346645
Si Si2 0.942449 0.291304 0.000000
Si Si3 0.806392 0.784462 0.551146
Si Si4 0.147492 0.788559 0.852093
Si Si5 0.305979 0.715178 0.948153
Si Si6 0.946272 0.717377 0.103093
Si Si7 0.805906 0.784268 0.756542
O O1 0.313225 0.500000 0.346907
O O2 0.250000 0.750000 0.346590
O O3 0.324380 0.784300 0.397727
O O4 0.322596 0.784473 0.295208
O O5 0.929270 0.213243 0.051122
O O6 0.928169 0.500000 0.000000
O O7 0.000000 0.288472 0.000000
O O8 0.824334 0.715800 0.500000
O O9 0.750000 0.750000 0.551180
O O10 0.812909 0.000000 0.551098
O O11 0.169836 0.711511 0.900631
O O12 0.091563 0.770103 0.857950
O O13 0.167861 0.713324 0.803151
O O14 0.159655 0.000000 0.851975
O O15 0.312959 0.500000 0.948863
O O16 0.250000 0.750000 0.945116
O O17 0.322383 0.784002 0.000000
O O18 0.947302 0.500000 0.100161
O O19 0.000000 0.777077 0.111307
O O20 0.750000 0.750000 0.761266
O O21 0.812256 0.000000 0.755257
#
# Coordination Sequence:
#
# PCOD9487756 Si02
#       7
#    16   8  16  16  16  16  16
#     4   8  13  21  32  45  64  90 119 152 186 215
#     4   7  12  26  45  61  76  91 108 135 170 209
#     4   8  12  17  26  41  60  83 113 148 183 215
#     4  10  20  30  42  60  80 100 123 153 188 224
#     4   9  18  31  43  56  76  99 123 152 184 217
#     4   9  18  32  48  64  80  97 119 147 179 221
#     4   9  17  28  40  55  75 100 130 161 190 219
#
# _framework density 17.506665999999999
#
# number of rings (size 3 to 8) (size 9 to 14) (size 15 to 20)
#    0.000    3.308    0.000    1.385    1.077    1.538 
#    0.000    0.000    0.000    1.385    0.000    0.000 
#    0.000    0.000    0.000    0.000    0.000    0.769 
#
# Total GULP energy -289506.734325 kJ/mol
# GULP energy per Si atom -5567.437199 kJ/mol
# Density = 1.746682 g / cm^3
# Si number density = 17.506666 Si / 1000 Ang^3
#
#
#
# Elastic Constant Matrix: (Units=GPa)
#
#
# Indices 1 2 3 4 5 6 
#
# 1 40.4714 -5.9540 57.0861 0.0000 0.0000 0.0000
# 2 -5.9540 59.6168 12.0940 0.0000 0.0000 0.0000
# 3 57.0861 12.0940 217.4761 0.0000 0.0000 0.0000
# 4 0.0000 0.0000 0.0000 8.6835 0.0000 0.0000
# 5 0.0000 0.0000 0.0000 0.0000 5.9156 0.0000
# 6 0.0000 0.0000 0.0000 0.0000 0.0000 10.9616
#
#
#
# Elastic Compliance Matrix: (Units=1/GPa)
#
#
# Indices 1 2 3 4 5 6 
#
# 1 0.041540 0.006433 -0.011262 0.000000 0.000000 0.000000
# 2 0.006433 0.017961 -0.002688 0.000000 0.000000 0.000000
# 3 -0.011262 -0.002688 0.007704 0.000000 0.000000 0.000000
# 4 0.000000 0.000000 0.000000 0.115161 0.000000 0.000000
# 5 0.000000 0.000000 0.000000 0.000000 0.169045 0.000000
# 6 0.000000 0.000000 0.000000 0.000000 0.000000 0.091227
#
#
# Mechanical properties :
#
#
# Convention : Reuss Voigt Hill
#
# Bulk Modulus (GPa) = 19.16682 49.33518 34.25100
# Shear Modulus (GPa) = 10.52494 22.06803 16.29648
#
# Velocity S-wave (km/s) = 2.45459 3.55427 3.05433
# Velocity P-wave (km/s) = 4.35952 6.71460 5.66088
#
# Compressibility (1/GPa) = 0.05217351
#
# Stress axis : x y z
#
# Youngs Moduli (GPa) = 24.07295 55.67464 129.80558
#
# Poissons Ratio (x) = -0.35817 1.46185
# Poissons Ratio (y) = -0.15487 0.34886
# Poissons Ratio (z) = 0.27111 0.14963
#
# Static dielectric constant tensor:
#      x y z
#    x 1.565070 0.000000 0.000000 
#    y 0.000000 1.643770 0.000000 
#    z 0.000000 0.000000 1.695070 
# 
# From -- ./inp_files/76227.got.cif
#   From: 2010.05.17/outbox.cif.g08.bks.cpg/sg65_39_cif.got.tgz:76227.got - 2010.06.03 17:01:31.
