data_PCOD9487776
_publ_section_title
;
Structure prediction by ZEFSAII (Michael W. Deem and Ramdas Pophale) SiO2 
 PCOD9487776
Probable space group: C M M M
;
_chemical_formula_sum "Si O2"
_cell_formula_units_Z 112
_cell_length_a 14.612635
_cell_length_b 29.252184
_cell_length_c 14.030527
_cell_angle_alpha 90.000000
_cell_angle_beta 90.000000
_cell_angle_gamma 90.000000
_cell_volume 5997.369640
_symmetry_space_group_name_H-M "C M M M"
_symmetry_group_IT_number 65
_symmetry_cell_setting 'orthorhombic'
loop_
_space_group_symop_operation_xyz
x,y,z
-x,-y,z
x,-y,-z
-x,y,-z
-x,-y,-z
x,y,-z
-x,y,z
x,-y,z
1/2+x,1/2+y,z
1/2-x,1/2-y,z
1/2+x,1/2-y,-z
1/2-x,1/2+y,-z
1/2-x,1/2-y,-z
1/2+x,1/2+y,-z
1/2-x,1/2+y,z
1/2+x,1/2-y,z
loop_
_atom_site_type_symbol
_atom_site_label
_atom_site_fract_x
_atom_site_fract_y
_atom_site_fract_z
Si Si1 0.606905 0.948502 0.114786
Si Si2 0.605002 0.672083 0.886868
Si Si3 0.103778 0.949231 0.615362
Si Si4 0.890356 0.229561 0.605725
Si Si5 0.107973 0.272481 0.194490
Si Si6 0.771975 0.137320 0.608966
Si Si7 0.289263 0.861565 0.806291
O O1 0.500000 0.941926 0.140659
O O2 0.667301 0.907806 0.155487
O O3 0.634025 0.000000 0.145063
O O4 0.612082 0.947139 0.000000
O O5 0.500000 0.662190 0.856414
O O6 0.621763 0.725523 0.863037
O O7 0.682674 0.643462 0.833508
O O8 0.611702 0.664792 0.000000
O O9 0.099671 0.950640 0.500000
O O10 0.170485 0.907825 0.636003
O O11 0.000000 0.940815 0.649177
O O12 0.132647 0.000000 0.647816
O O13 0.870051 0.249210 0.500000
O O14 0.864647 0.259977 0.696433
O O15 0.838110 0.181463 0.612738
O O16 0.000000 0.221805 0.611161
O O17 0.162080 0.315765 0.155150
O O18 0.000000 0.282888 0.193686
O O19 0.738980 0.133273 0.500000
O O20 0.698797 0.141024 0.692282
#
# Coordination Sequence:
#
# PCOD9487776 Si02
#       7
#    16  16  16  16  16  16  16
#     4   9  20  41  67  92 114 137 177 238 297 341
#     4  10  22  38  54  77 113 150 180 219 277 345
#     4   8  14  26  44  65  91 127 175 229 275 313
#     4   9  17  31  50  71 103 149 194 234 277 327
#     4  10  21  36  52  77 108 141 186 235 282 333
#     4  10  20  30  45  73 109 149 189 227 271 325
#     4  12  22  34  58  85 110 146 188 232 279 336
#
# _framework density 18.674852999999999
#
# number of rings (size 3 to 8) (size 9 to 14) (size 15 to 20)
#    0.000    2.286    1.429    2.571    0.000    5.143 
#    0.000    2.857    0.000    1.714    0.000    3.000 
#    0.000    0.000    0.000    0.000    0.000    0.000 
#
# Total GULP energy -312435.982482 kJ/mol
# GULP energy per Si atom -5579.213973 kJ/mol
# Density = 1.863235 g / cm^3
# Si number density = 18.674853 Si / 1000 Ang^3
#
#
#
# Elastic Constant Matrix: (Units=GPa)
#
#
# Indices 1 2 3 4 5 6 
#
# 1 66.8958 53.1507 22.6772 0.0000 0.0000 0.0000
# 2 53.1507 104.6300 23.3320 0.0000 0.0000 0.0000
# 3 22.6772 23.3320 56.0582 0.0000 0.0000 0.0000
# 4 0.0000 0.0000 0.0000 26.6416 0.0000 0.0000
# 5 0.0000 0.0000 0.0000 0.0000 15.9268 0.0000
# 6 0.0000 0.0000 0.0000 0.0000 0.0000 22.6945
#
#
#
# Elastic Compliance Matrix: (Units=1/GPa)
#
#
# Indices 1 2 3 4 5 6 
#
# 1 0.026602 -0.012251 -0.005662 0.000000 0.000000 0.000000
# 2 -0.012251 0.016177 -0.001777 0.000000 0.000000 0.000000
# 3 -0.005662 -0.001777 0.020869 0.000000 0.000000 0.000000
# 4 0.000000 0.000000 0.000000 0.037535 0.000000 0.000000
# 5 0.000000 0.000000 0.000000 0.000000 0.062787 0.000000
# 6 0.000000 0.000000 0.000000 0.000000 0.000000 0.044064
#
#
# Mechanical properties :
#
#
# Convention : Reuss Voigt Hill
#
# Bulk Modulus (GPa) = 41.20814 47.32267 44.26540
# Shear Modulus (GPa) = 19.56925 21.61418 20.59172
#
# Velocity S-wave (km/s) = 3.24063 3.40574 3.32421
# Velocity P-wave (km/s) = 6.00968 6.39224 6.20391
#
# Compressibility (1/GPa) = 0.02426705
#
# Stress axis : x y z
#
# Youngs Moduli (GPa) = 37.59175 61.81632 47.91818
#
# Poissons Ratio (x) = 0.75729 0.27133
# Poissons Ratio (y) = 0.46052 0.08516
# Poissons Ratio (z) = 0.21286 0.10987
#
# Static dielectric constant tensor:
#      x y z
#    x 1.650910 0.000000 0.000000 
#    y 0.000000 1.642320 0.000000 
#    z 0.000000 0.000000 1.666470 
# 
# From -- ./inp_files/41111.got.cif
#   From: 2010.05.17/outbox.cif.g08.bks.cpg/sg65_21_cif.got.tgz:41111.got - 2010.06.03 17:01:31.
