data_PCOD9487240
_publ_section_title
;
Structure prediction by ZEFSAII (Michael W. Deem and Ramdas Pophale) SiO2 
 PCOD9487240
Probable space group: C M M M
;
_chemical_formula_sum "Si O2"
_cell_formula_units_Z 104
_cell_length_a 9.405953
_cell_length_b 29.181519
_cell_length_c 23.540597
_cell_angle_alpha 90.000000
_cell_angle_beta 90.000000
_cell_angle_gamma 90.000000
_cell_volume 6461.422975
_symmetry_space_group_name_H-M "C M M M"
_symmetry_group_IT_number 65
_symmetry_cell_setting 'orthorhombic'
loop_
_space_group_symop_operation_xyz
x,y,z
-x,-y,z
x,-y,-z
-x,y,-z
-x,-y,-z
x,y,-z
-x,y,z
x,-y,z
1/2+x,1/2+y,z
1/2-x,1/2-y,z
1/2+x,1/2-y,-z
1/2-x,1/2+y,-z
1/2-x,1/2-y,-z
1/2+x,1/2+y,-z
1/2-x,1/2+y,z
1/2+x,1/2-y,z
loop_
_atom_site_type_symbol
_atom_site_label
_atom_site_fract_x
_atom_site_fract_y
_atom_site_fract_z
Si Si1 0.836494 0.555723 0.500000
Si Si2 0.169534 0.102791 0.064620
Si Si3 0.829123 0.896208 0.269540
Si Si4 0.331640 0.704785 0.233898
Si Si5 0.668286 0.295244 0.098652
Si Si6 0.832230 0.445232 0.166628
Si Si7 0.168807 0.945847 0.387459
O O1 0.833928 0.500000 0.500000
O O2 0.755459 0.569651 0.557309
O O3 0.000000 0.570503 0.500000
O O4 0.206660 0.156720 0.069923
O O5 0.258428 0.074863 0.110413
O O6 0.000000 0.099142 0.077159
O O7 0.193233 0.087443 0.000000
O O8 0.792682 0.842495 0.264533
O O9 0.746063 0.922993 0.220550
O O10 0.797006 0.917679 0.330820
O O11 0.000000 0.900431 0.259812
O O12 0.500000 0.711850 0.240318
O O13 0.250000 0.750000 0.253351
O O14 0.303705 0.698844 0.166281
O O15 0.500000 0.288142 0.090975
O O16 0.750000 0.250000 0.078928
O O17 0.816277 0.500000 0.168284
O O18 0.000000 0.434245 0.167316
O O19 0.000000 0.941604 0.398608
O O20 0.197777 0.000000 0.377450
#
# Coordination Sequence:
#
# PCOD9487240 Si02
#       7
#     8  16  16  16  16  16  16
#     4   9  17  29  45  67 102 143 174 203 242 289
#     4  10  21  38  57  74  94 125 167 208 246 297
#     4  10  19  34  55  78 102 132 170 209 247 292
#     4   9  17  30  49  73 101 129 159 198 246 298
#     4   9  17  31  50  74 100 125 155 196 245 299
#     4  11  24  38  52  73 101 130 161 204 255 302
#     4   9  17  29  48  74 102 134 172 210 244 282
#
# _framework density 16.095526
#
# number of rings (size 3 to 8) (size 9 to 14) (size 15 to 20)
#    0.000    2.385    1.538    1.154    0.000    5.538 
#    0.000    3.077    0.000    0.000    0.000    0.538 
#    0.000    0.000    0.000    0.000    0.000    0.000 
#
# Total GULP energy -290071.850940 kJ/mol
# GULP energy per Si atom -5578.304826 kJ/mol
# Density = 1.605889 g / cm^3
# Si number density = 16.095526 Si / 1000 Ang^3
#
#
#
# Elastic Constant Matrix: (Units=GPa)
#
#
# Indices 1 2 3 4 5 6 
#
# 1 61.6768 58.0066 73.6005 0.0000 0.0000 0.0000
# 2 58.0066 90.7389 69.3522 0.0000 0.0000 0.0000
# 3 73.6005 69.3522 124.3325 0.0000 0.0000 0.0000
# 4 0.0000 0.0000 0.0000 23.9009 0.0000 0.0000
# 5 0.0000 0.0000 0.0000 0.0000 12.1657 0.0000
# 6 0.0000 0.0000 0.0000 0.0000 0.0000 28.3254
#
#
#
# Elastic Compliance Matrix: (Units=1/GPa)
#
#
# Indices 1 2 3 4 5 6 
#
# 1 0.079448 -0.025874 -0.032598 0.000000 0.000000 0.000000
# 2 -0.025874 0.027637 -0.000099 0.000000 0.000000 0.000000
# 3 -0.032598 -0.000099 0.027395 0.000000 0.000000 0.000000
# 4 0.000000 0.000000 0.000000 0.041839 0.000000 0.000000
# 5 0.000000 0.000000 0.000000 0.000000 0.082199 0.000000
# 6 0.000000 0.000000 0.000000 0.000000 0.000000 0.035304
#
#
# Mechanical properties :
#
#
# Convention : Reuss Voigt Hill
#
# Bulk Modulus (GPa) = 57.67808 75.40742 66.54275
# Shear Modulus (GPa) = 11.99779 17.93097 14.96438
#
# Velocity S-wave (km/s) = 2.73318 3.34134 3.05244
# Velocity P-wave (km/s) = 6.77296 7.86369 7.33862
#
# Compressibility (1/GPa) = 0.01733761
#
# Stress axis : x y z
#
# Youngs Moduli (GPa) = 12.58692 36.18360 36.50252
#
# Poissons Ratio (x) = 0.93620 1.18991
# Poissons Ratio (y) = 0.32567 0.00363
# Poissons Ratio (z) = 0.41031 0.00360
#
# Static dielectric constant tensor:
#      x y z
#    x 1.536320 0.000000 0.000000 
#    y 0.000000 1.526770 0.000000 
#    z 0.000000 0.000000 1.525600 
# 
# From -- ./inp_files/60881.got.cif
#   From: 2010.05.17/outbox.cif.g08.bks.cpg/sg65_31_cif.got.tgz:60881.got - 2010.06.03 17:01:31.
