data_PCOD9487514
_publ_section_title
;
Structure prediction by ZEFSAII (Michael W. Deem and Ramdas Pophale) SiO2 
 PCOD9487514
Probable space group: C M M M
;
_chemical_formula_sum "Si O2"
_cell_formula_units_Z 80
_cell_length_a 8.133828
_cell_length_b 30.357303
_cell_length_c 16.698426
_cell_angle_alpha 90.000000
_cell_angle_beta 90.000000
_cell_angle_gamma 90.000000
_cell_volume 4123.193401
_symmetry_space_group_name_H-M "C M M M"
_symmetry_group_IT_number 65
_symmetry_cell_setting 'orthorhombic'
loop_
_space_group_symop_operation_xyz
x,y,z
-x,-y,z
x,-y,-z
-x,y,-z
-x,-y,-z
x,y,-z
-x,y,z
x,-y,z
1/2+x,1/2+y,z
1/2-x,1/2-y,z
1/2+x,1/2-y,-z
1/2-x,1/2+y,-z
1/2-x,1/2-y,-z
1/2+x,1/2+y,-z
1/2-x,1/2+y,z
1/2+x,1/2-y,z
loop_
_atom_site_type_symbol
_atom_site_label
_atom_site_fract_x
_atom_site_fract_y
_atom_site_fract_z
Si Si1 0.198590 0.700103 0.907482
Si Si2 0.806644 0.314178 0.500000
Si Si3 0.812616 0.370331 0.779744
Si Si4 0.689927 0.703192 0.327222
Si Si5 0.697197 0.549142 0.674791
Si Si6 0.201011 0.914343 0.500000
O O1 0.250000 0.750000 0.884817
O O2 0.260890 0.659813 0.851828
O O3 0.000000 0.699249 0.902891
O O4 0.248724 0.693725 0.000000
O O5 0.715897 0.297055 0.578312
O O6 0.782393 0.366632 0.500000
O O7 0.000000 0.302862 0.500000
O O8 0.800397 0.335552 0.707329
O O9 0.739647 0.414822 0.742366
O O10 0.000000 0.380134 0.801403
O O11 0.500000 0.695129 0.307322
O O12 0.750000 0.750000 0.295673
O O13 0.500000 0.547695 0.671529
O O14 0.759543 0.500000 0.693199
O O15 0.748563 0.562590 0.584038
O O16 0.000000 0.909935 0.500000
#
# Coordination Sequence:
#
# PCOD9487514 Si02
#       6
#    16   8  16  16  16   8
#     4   9  19  36  58  85 116 148 182 221 270 328
#     4  12  23  36  53  76 106 142 185 230 274 324
#     4  11  22  36  56  83 113 144 181 229 278 330
#     4  12  24  38  54  75 107 147 186 226 273 327
#     4  10  21  37  58  82 110 146 188 234 285 336
#     4  10  19  35  57  79 105 144 186 232 284 333
#
# _framework density 19.402436999999999
#
# number of rings (size 3 to 8) (size 9 to 14) (size 15 to 20)
#    0.000    1.400    2.000    4.500    0.000    4.800 
#    0.000    0.000    0.000    2.400    0.000    4.200 
#    0.000    0.000    0.000    0.000    0.000    0.000 
#
# Total GULP energy -223227.235418 kJ/mol
# GULP energy per Si atom -5580.680885 kJ/mol
# Density = 1.935828 g / cm^3
# Si number density = 19.402437 Si / 1000 Ang^3
#
#
#
# Elastic Constant Matrix: (Units=GPa)
#
#
# Indices 1 2 3 4 5 6 
#
# 1 38.5748 11.3856 3.9064 0.0000 0.0000 0.0000
# 2 11.3856 168.5223 61.6400 0.0000 0.0000 0.0000
# 3 3.9064 61.6400 130.2185 0.0000 0.0000 0.0000
# 4 0.0000 0.0000 0.0000 -9.9258 0.0000 0.0000
# 5 0.0000 0.0000 0.0000 0.0000 21.7630 0.0000
# 6 0.0000 0.0000 0.0000 0.0000 0.0000 27.2853
#
#
#
# Elastic Compliance Matrix: (Units=1/GPa)
#
#
# Indices 1 2 3 4 5 6 
#
# 1 0.026452 -0.001810 0.000063 0.000000 0.000000 0.000000
# 2 -0.001810 0.007300 -0.003401 0.000000 0.000000 0.000000
# 3 0.000063 -0.003401 0.009288 0.000000 0.000000 0.000000
# 4 0.000000 0.000000 0.000000 -0.100748 0.000000 0.000000
# 5 0.000000 0.000000 0.000000 0.000000 0.045949 0.000000
# 6 0.000000 0.000000 0.000000 0.000000 0.000000 0.036650
#
#
# Mechanical properties :
#
#
# Convention : Reuss Voigt Hill
#
# Bulk Modulus (GPa) = 30.54091 54.57550 42.55820
# Shear Modulus (GPa) = 108.45573 25.18341 66.81957
#
# Velocity S-wave (km/s) = 7.48461 3.60662 5.87482
# Velocity P-wave (km/s) = 9.51143 6.74780 8.24622
#
# Compressibility (1/GPa) = 0.03274297
#
# Stress axis : x y z
#
# Youngs Moduli (GPa) = 37.80492 136.97966 107.67079
#
# Poissons Ratio (x) = 0.24798 -0.00683
# Poissons Ratio (y) = 0.06844 0.36623
# Poissons Ratio (z) = -0.00240 0.46592
#
# Static dielectric constant tensor:
#      x y z
#    x 1.683310 0.000000 0.000000 
#    y 0.000000 1.685320 0.000000 
#    z 0.000000 0.000000 1.714760 
# 
# From -- ./inp_files/49920.got.cif
#   From: 2010.05.17/outbox.cif.g08.bks.cpg/sg65_25_cif.got.tgz:49920.got - 2010.06.03 17:01:31.
