data_PCOD9487864
_publ_section_title
;
Structure prediction by ZEFSAII (Michael W. Deem and Ramdas Pophale) SiO2 
 PCOD9487864
Probable space group: C M M M
;
_chemical_formula_sum "Si O2"
_cell_formula_units_Z 88
_cell_length_a 9.021361
_cell_length_b 27.797246
_cell_length_c 21.764465
_cell_angle_alpha 90.000000
_cell_angle_beta 90.000000
_cell_angle_gamma 90.000000
_cell_volume 5457.852927
_symmetry_space_group_name_H-M "C M M M"
_symmetry_group_IT_number 65
_symmetry_cell_setting 'orthorhombic'
loop_
_space_group_symop_operation_xyz
x,y,z
-x,-y,z
x,-y,-z
-x,y,-z
-x,-y,-z
x,y,-z
-x,y,z
x,-y,z
1/2+x,1/2+y,z
1/2-x,1/2-y,z
1/2+x,1/2-y,-z
1/2-x,1/2+y,-z
1/2-x,1/2-y,-z
1/2+x,1/2+y,-z
1/2-x,1/2+y,z
1/2+x,1/2-y,z
loop_
_atom_site_type_symbol
_atom_site_label
_atom_site_fract_x
_atom_site_fract_y
_atom_site_fract_z
Si Si1 0.321782 0.945879 0.194269
Si Si2 0.322252 0.056729 0.570099
Si Si3 0.176585 0.200245 0.246685
Si Si4 0.323573 0.399035 0.312205
Si Si5 0.321275 0.197332 0.000000
Si Si6 0.321501 0.848233 0.870299
O O1 0.500000 0.944762 0.201711
O O2 0.248856 0.931866 0.259105
O O3 0.282765 0.903461 0.146506
O O4 0.279264 0.000000 0.175847
O O5 0.281150 0.069600 0.500000
O O6 0.500000 0.061954 0.575810
O O7 0.242175 0.086911 0.622290
O O8 0.288610 0.000000 0.578709
O O9 0.250000 0.250000 0.266420
O O10 0.208713 0.155902 0.292377
O O11 0.244029 0.184573 0.181031
O O12 0.000000 0.205543 0.241399
O O13 0.500000 0.405700 0.311602
O O14 0.250000 0.250000 0.000000
O O15 0.279322 0.168676 0.061751
O O16 0.500000 0.202179 0.000000
O O17 0.500000 0.843367 0.864234
#
# Coordination Sequence:
#
# PCOD9487864 Si02
#       6
#    16  16  16  16   8  16
#     4   9  17  30  48  68  92 124 158 189 225 273
#     4   9  18  32  49  70  97 128 159 188 221 267
#     4  10  20  33  49  70  94 120 153 193 235 277
#     4  10  20  31  46  71  98 122 152 192 234 273
#     4  10  20  32  47  67  91 119 152 192 237 282
#     4   9  18  32  48  68  94 122 153 190 232 277
#
# _framework density 16.123556000000001
#
# number of rings (size 3 to 8) (size 9 to 14) (size 15 to 20)
#    0.000    2.545    0.000    2.727    0.000    7.636 
#    0.000    1.364    0.000    3.273    0.000    0.000 
#    0.000    6.545    0.000    0.000    0.000    0.000 
#
# Total GULP energy -245381.978277 kJ/mol
# GULP energy per Si atom -5576.863143 kJ/mol
# Density = 1.608686 g / cm^3
# Si number density = 16.123556 Si / 1000 Ang^3
#
#
#
# Elastic Constant Matrix: (Units=GPa)
#
#
# Indices 1 2 3 4 5 6 
#
# 1 24.7830 40.7779 42.9817 0.0000 0.0000 0.0000
# 2 40.7779 114.6451 71.0713 0.0000 0.0000 0.0000
# 3 42.9817 71.0713 140.1808 0.0000 0.0000 0.0000
# 4 0.0000 0.0000 0.0000 14.3289 0.0000 0.0000
# 5 0.0000 0.0000 0.0000 0.0000 13.6887 0.0000
# 6 0.0000 0.0000 0.0000 0.0000 0.0000 25.6129
#
#
#
# Elastic Compliance Matrix: (Units=1/GPa)
#
#
# Indices 1 2 3 4 5 6 
#
# 1 0.142478 -0.034411 -0.026240 0.000000 0.000000 0.000000
# 2 -0.034411 0.021032 -0.000112 0.000000 0.000000 0.000000
# 3 -0.026240 -0.000112 0.015236 0.000000 0.000000 0.000000
# 4 0.000000 0.000000 0.000000 0.069789 0.000000 0.000000
# 5 0.000000 0.000000 0.000000 0.000000 0.073053 0.000000
# 6 0.000000 0.000000 0.000000 0.000000 0.000000 0.039043
#
#
# Mechanical properties :
#
#
# Convention : Reuss Voigt Hill
#
# Bulk Modulus (GPa) = 17.47635 65.47450 41.47542
# Shear Modulus (GPa) = 9.97545 19.04463 14.51004
#
# Velocity S-wave (km/s) = 2.49004 3.44054 3.00313
# Velocity P-wave (km/s) = 4.37374 7.51527 6.14853
#
# Compressibility (1/GPa) = 0.05722018
#
# Stress axis : x y z
#
# Youngs Moduli (GPa) = 7.01860 47.54750 65.63425
#
# Poissons Ratio (x) = 1.63616 1.72223
# Poissons Ratio (y) = 0.24152 0.00735
# Poissons Ratio (z) = 0.18417 0.00532
#
# Static dielectric constant tensor:
#      x y z
#    x 1.536290 0.000000 0.000000 
#    y 0.000000 1.542550 0.000000 
#    z 0.000000 0.000000 1.515200 
# 
# From -- ./inp_files/60230.got.cif
#   From: 2010.05.17/outbox.cif.g08.bks.cpg/sg65_31_cif.got.tgz:60230.got - 2010.06.03 17:01:31.
