data_PCOD9487994
_publ_section_title
;
Structure prediction by ZEFSAII (Michael W. Deem and Ramdas Pophale) SiO2 
 PCOD9487994
Probable space group: C M M M
;
_chemical_formula_sum "Si O2"
_cell_formula_units_Z 96
_cell_length_a 8.839374
_cell_length_b 28.311066
_cell_length_c 24.303167
_cell_angle_alpha 90.000000
_cell_angle_beta 90.000000
_cell_angle_gamma 90.000000
_cell_volume 6081.918596
_symmetry_space_group_name_H-M "C M M M"
_symmetry_group_IT_number 65
_symmetry_cell_setting 'orthorhombic'
loop_
_space_group_symop_operation_xyz
x,y,z
-x,-y,z
x,-y,-z
-x,y,-z
-x,-y,-z
x,y,-z
-x,y,z
x,-y,z
1/2+x,1/2+y,z
1/2-x,1/2-y,z
1/2+x,1/2-y,-z
1/2-x,1/2+y,-z
1/2-x,1/2-y,-z
1/2+x,1/2+y,-z
1/2-x,1/2+y,z
1/2+x,1/2-y,z
loop_
_atom_site_type_symbol
_atom_site_label
_atom_site_fract_x
_atom_site_fract_y
_atom_site_fract_z
Si Si1 0.315697 0.054358 0.562266
Si Si2 0.681865 0.945576 0.222294
Si Si3 0.819265 0.859533 0.160834
Si Si4 0.819268 0.301291 0.063956
Si Si5 0.682199 0.112049 0.667666
Si Si6 0.819144 0.198272 0.729226
O O1 0.268537 0.066645 0.500000
O O2 0.500000 0.054615 0.562976
O O3 0.265951 0.089584 0.610130
O O4 0.270271 0.000000 0.573485
O O5 0.500000 0.943244 0.215838
O O6 0.758395 0.910635 0.178790
O O7 0.716800 0.924585 0.282819
O O8 0.728776 0.000000 0.217726
O O9 0.746996 0.839551 0.105475
O O10 0.777711 0.824320 0.211344
O O11 0.000000 0.860289 0.156351
O O12 0.750000 0.250000 0.077519
O O13 0.000000 0.298960 0.069353
O O14 0.782180 0.311334 0.000000
O O15 0.500000 0.117743 0.666232
O O16 0.756609 0.161441 0.684354
O O17 0.750000 0.250000 0.723517
O O18 0.000000 0.200567 0.726127
#
# Coordination Sequence:
#
# PCOD9487994 Si02
#       6
#    16  16  16  16  16  16
#     4   8  13  22  40  68  97 121 148 184 223 264
#     4   9  17  29  46  68  94 124 156 189 226 270
#     4  10  20  32  48  70  95 123 153 187 228 272
#     4  10  20  33  50  72  97 124 153 186 225 269
#     4   9  16  27  45  68  93 121 152 186 225 269
#     4  10  20  32  46  66  91 119 151 187 228 271
#
# _framework density 15.784492
#
# number of rings (size 3 to 8) (size 9 to 14) (size 15 to 20)
#    0.000    2.667    0.000    3.000    0.000    6.667 
#    0.000    0.000    0.000    3.000    0.000    4.667 
#    0.000    0.000    0.000    0.000    0.000    0.000 
#
# Total GULP energy -267642.404265 kJ/mol
# GULP energy per Si atom -5575.883422 kJ/mol
# Density = 1.574857 g / cm^3
# Si number density = 15.784492 Si / 1000 Ang^3
#
#
#
# Elastic Constant Matrix: (Units=GPa)
#
#
# Indices 1 2 3 4 5 6 
#
# 1 24.5524 43.1386 34.7386 0.0000 0.0000 0.0000
# 2 43.1386 151.2783 76.8012 0.0000 0.0000 0.0000
# 3 34.7386 76.8012 96.4052 0.0000 0.0000 0.0000
# 4 0.0000 0.0000 0.0000 25.9066 0.0000 0.0000
# 5 0.0000 0.0000 0.0000 0.0000 13.8386 0.0000
# 6 0.0000 0.0000 0.0000 0.0000 0.0000 23.7145
#
#
#
# Elastic Compliance Matrix: (Units=1/GPa)
#
#
# Indices 1 2 3 4 5 6 
#
# 1 0.106605 -0.018298 -0.023837 0.000000 0.000000 0.000000
# 2 -0.018298 0.014240 -0.004751 0.000000 0.000000 0.000000
# 3 -0.023837 -0.004751 0.022747 0.000000 0.000000 0.000000
# 4 0.000000 0.000000 0.000000 0.038600 0.000000 0.000000
# 5 0.000000 0.000000 0.000000 0.000000 0.072262 0.000000
# 6 0.000000 0.000000 0.000000 0.000000 0.000000 0.042168
#
#
# Mechanical properties :
#
#
# Convention : Reuss Voigt Hill
#
# Bulk Modulus (GPa) = 20.07205 64.62143 42.34674
# Shear Modulus (GPa) = 12.28500 20.52911 16.40706
#
# Velocity S-wave (km/s) = 2.79282 3.61028 3.22753
# Velocity P-wave (km/s) = 4.81079 7.64248 6.38558
#
# Compressibility (1/GPa) = 0.04982053
#
# Stress axis : x y z
#
# Youngs Moduli (GPa) = 9.38046 70.22384 43.96180
#
# Poissons Ratio (x) = 1.28496 1.04790
# Poissons Ratio (y) = 0.17164 0.20886
# Poissons Ratio (z) = 0.22360 0.33363
#
# Static dielectric constant tensor:
#      x y z
#    x 1.528300 0.000000 0.000000 
#    y 0.000000 1.501670 0.000000 
#    z 0.000000 0.000000 1.523430 
# 
# From -- ./inp_files/60226.got.cif
#   From: 2010.05.17/outbox.cif.g08.bks.cpg/sg65_31_cif.got.tgz:60226.got - 2010.06.03 17:01:31.
