data_PCOD9487719
_publ_section_title
;
Structure prediction by ZEFSAII (Michael W. Deem and Ramdas Pophale) SiO2 
 PCOD9487719
Probable space group: C M M M
;
_chemical_formula_sum "Si O2"
_cell_formula_units_Z 88
_cell_length_a 13.962988
_cell_length_b 19.273620
_cell_length_c 17.805312
_cell_angle_alpha 90.000000
_cell_angle_beta 90.000000
_cell_angle_gamma 90.000000
_cell_volume 4791.717932
_symmetry_space_group_name_H-M "C M M M"
_symmetry_group_IT_number 65
_symmetry_cell_setting 'orthorhombic'
loop_
_space_group_symop_operation_xyz
x,y,z
-x,-y,z
x,-y,-z
-x,y,-z
-x,-y,-z
x,y,-z
-x,y,z
x,-y,z
1/2+x,1/2+y,z
1/2-x,1/2-y,z
1/2+x,1/2-y,-z
1/2-x,1/2+y,-z
1/2-x,1/2-y,-z
1/2+x,1/2+y,-z
1/2-x,1/2+y,z
1/2+x,1/2-y,z
loop_
_atom_site_type_symbol
_atom_site_label
_atom_site_fract_x
_atom_site_fract_y
_atom_site_fract_z
Si Si1 0.394690 0.419505 0.408637
Si Si2 0.291790 0.500000 0.909991
Si Si3 0.284486 0.170687 0.586701
Si Si4 0.888933 0.146338 0.909487
Si Si5 0.250000 0.250000 0.822018
Si Si6 0.610491 0.000000 0.195867
Si Si7 0.390952 0.850285 0.730640
O O1 0.395172 0.416727 0.500000
O O2 0.500000 0.394921 0.383404
O O3 0.384099 0.500000 0.387432
O O4 0.305288 0.374488 0.383980
O O5 0.350195 0.569507 0.889921
O O6 0.189768 0.500000 0.868954
O O7 0.278831 0.500000 0.000000
O O8 0.305005 0.152278 0.500000
O O9 0.250000 0.250000 0.588152
O O10 0.371509 0.157950 0.642306
O O11 0.820688 0.202962 0.871818
O O12 0.000000 0.154030 0.886983
O O13 0.884227 0.152860 0.000000
O O14 0.315381 0.199175 0.772052
O O15 0.623187 0.929904 0.243974
O O16 0.500000 0.000000 0.167927
O O17 0.500000 0.830810 0.749634
#
# Coordination Sequence:
#
# PCOD9487719 Si02
#       7
#    16   8  16  16   8   8  16
#     4   8  15  30  53  79 105 133 169 219 278 337
#     4  10  19  37  64  90 122 159 196 242 291 342
#     4  10  21  37  57  84 114 148 188 237 298 360
#     4  10  21  37  61  93 124 157 196 240 293 349
#     4  12  21  40  63  84 120 158 194 244 289 360
#     4  10  22  42  62  82 118 162 204 242 288 348
#     4  11  24  41  60  83 114 156 198 245 298 349
#
# _framework density 18.365020999999999
#
# number of rings (size 3 to 8) (size 9 to 14) (size 15 to 20)
#    0.000    2.000    2.727    1.636    1.273    2.364 
#    0.000    1.818    0.000    1.636    0.000    0.000 
#    0.000    0.000    0.000    0.000    0.000    0.000 
#
# Total GULP energy -245535.537863 kJ/mol
# GULP energy per Si atom -5580.353133 kJ/mol
# Density = 1.832322 g / cm^3
# Si number density = 18.365021 Si / 1000 Ang^3
#
#
#
# Elastic Constant Matrix: (Units=GPa)
#
#
# Indices 1 2 3 4 5 6 
#
# 1 134.7273 72.6764 52.3509 0.0000 0.0000 0.0000
# 2 72.6764 105.8307 37.7312 0.0000 0.0000 0.0000
# 3 52.3509 37.7312 47.7845 0.0000 0.0000 0.0000
# 4 0.0000 0.0000 0.0000 -33.6884 0.0000 0.0000
# 5 0.0000 0.0000 0.0000 0.0000 28.7902 0.0000
# 6 0.0000 0.0000 0.0000 0.0000 0.0000 28.7458
#
#
#
# Elastic Compliance Matrix: (Units=1/GPa)
#
#
# Indices 1 2 3 4 5 6 
#
# 1 0.015514 -0.006394 -0.011948 0.000000 0.000000 0.000000
# 2 -0.006394 0.015787 -0.005460 0.000000 0.000000 0.000000
# 3 -0.011948 -0.005460 0.038328 0.000000 0.000000 0.000000
# 4 0.000000 0.000000 0.000000 -0.029684 0.000000 0.000000
# 5 0.000000 0.000000 0.000000 0.000000 0.034734 0.000000
# 6 0.000000 0.000000 0.000000 0.000000 0.000000 0.034788
#
#
# Mechanical properties :
#
#
# Convention : Reuss Voigt Hill
#
# Bulk Modulus (GPa) = 45.40324 68.20663 56.80494
# Shear Modulus (GPa) = 30.41117 13.14180 21.77649
#
# Velocity S-wave (km/s) = 4.07373 2.67795 3.44722
# Velocity P-wave (km/s) = 6.84860 6.83973 6.84417
#
# Compressibility (1/GPa) = 0.02202486
#
# Stress axis : x y z
#
# Youngs Moduli (GPa) = 64.45688 63.34388 26.09043
#
# Poissons Ratio (x) = 0.40504 0.31172
# Poissons Ratio (y) = 0.41216 0.14246
# Poissons Ratio (z) = 0.77012 0.34587
#
# Static dielectric constant tensor:
#      x y z
#    x 1.628260 0.000000 0.000000 
#    y 0.000000 1.612340 0.000000 
#    z 0.000000 0.000000 1.625950 
# 
# From -- ./inp_files/51480.got.cif
#   From: 2010.05.17/outbox.cif.g08.bks.cpg/sg65_26_cif.got.tgz:51480.got - 2010.06.03 17:01:31.
