data_PCOD9487283
_publ_section_title
;
Structure prediction by ZEFSAII (Michael W. Deem and Ramdas Pophale) SiO2 
 PCOD9487283
Probable space group: C M M M
;
_chemical_formula_sum "Si O2"
_cell_formula_units_Z 80
_cell_length_a 31.911471
_cell_length_b 17.997388
_cell_length_c 7.820052
_cell_angle_alpha 90.000000
_cell_angle_beta 90.000000
_cell_angle_gamma 90.000000
_cell_volume 4491.236704
_symmetry_space_group_name_H-M "C M M M"
_symmetry_group_IT_number 65
_symmetry_cell_setting 'orthorhombic'
loop_
_space_group_symop_operation_xyz
x,y,z
-x,-y,z
x,-y,-z
-x,y,-z
-x,-y,-z
x,y,-z
-x,y,z
x,-y,z
1/2+x,1/2+y,z
1/2-x,1/2-y,z
1/2+x,1/2-y,-z
1/2-x,1/2+y,-z
1/2-x,1/2-y,-z
1/2+x,1/2+y,-z
1/2-x,1/2+y,z
1/2+x,1/2-y,z
loop_
_atom_site_type_symbol
_atom_site_label
_atom_site_fract_x
_atom_site_fract_y
_atom_site_fract_z
Si Si1 0.392622 0.290459 0.199606
Si Si2 0.848310 0.632198 0.190025
Si Si3 0.741875 0.166301 0.299141
Si Si4 0.403704 0.918748 0.500000
Si Si5 0.173127 0.084952 0.206742
Si Si6 0.450329 0.236665 0.500000
O O1 0.361882 0.218808 0.208021
O O2 0.365507 0.361808 0.253104
O O3 0.429629 0.273742 0.331858
O O4 0.405637 0.297875 0.000000
O O5 0.798484 0.629598 0.213096
O O6 0.873662 0.590098 0.335707
O O7 0.860071 0.607300 0.000000
O O8 0.731615 0.172730 0.500000
O O9 0.750000 0.250000 0.232547
O O10 0.783807 0.119216 0.275472
O O11 0.435442 0.849543 0.500000
O O12 0.423735 0.000000 0.500000
O O13 0.167674 0.000000 0.261931
O O14 0.175760 0.086657 0.000000
O O15 0.500000 0.242673 0.500000
#
# Coordination Sequence:
#
# PCOD9487283 Si02
#       6
#    16  16  16   8  16   8
#     4   9  19  36  59  83 110 143 180 226 273 321
#     4  10  19  34  56  77 105 153 200 229 264 316
#     4  11  21  31  51  77 111 154 196 239 275 312
#     4  10  22  39  56  81 116 143 176 228 279 324
#     4  10  21  35  52  78 110 147 191 233 276 321
#     4  10  22  39  64  91 108 133 177 218 270 349
#
# _framework density 17.812465
#
# number of rings (size 3 to 8) (size 9 to 14) (size 15 to 20)
#    0.000    2.000    3.000    0.600    1.400    3.000 
#    0.000    0.000    0.000    1.200    0.000    8.400 
#    0.000    0.000    0.000    0.000    0.000    0.000 
#
# Total GULP energy -223326.448142 kJ/mol
# GULP energy per Si atom -5583.161204 kJ/mol
# Density = 1.777192 g / cm^3
# Si number density = 17.812465 Si / 1000 Ang^3
#
#
#
# Elastic Constant Matrix: (Units=GPa)
#
#
# Indices 1 2 3 4 5 6 
#
# 1 125.0412 38.8349 49.2150 0.0000 0.0000 0.0000
# 2 38.8349 94.0956 31.2920 0.0000 0.0000 0.0000
# 3 49.2150 31.2920 89.2382 0.0000 0.0000 0.0000
# 4 0.0000 0.0000 0.0000 7.6093 0.0000 0.0000
# 5 0.0000 0.0000 0.0000 0.0000 14.6817 0.0000
# 6 0.0000 0.0000 0.0000 0.0000 0.0000 11.7113
#
#
#
# Elastic Compliance Matrix: (Units=1/GPa)
#
#
# Indices 1 2 3 4 5 6 
#
# 1 0.010834 -0.002812 -0.004989 0.000000 0.000000 0.000000
# 2 -0.002812 0.012760 -0.002923 0.000000 0.000000 0.000000
# 3 -0.004989 -0.002923 0.014983 0.000000 0.000000 0.000000
# 4 0.000000 0.000000 0.000000 0.131417 0.000000 0.000000
# 5 0.000000 0.000000 0.000000 0.000000 0.068112 0.000000
# 6 0.000000 0.000000 0.000000 0.000000 0.000000 0.085387
#
#
# Mechanical properties :
#
#
# Convention : Reuss Voigt Hill
#
# Bulk Modulus (GPa) = 58.38533 60.78431 59.58482
# Shear Modulus (GPa) = 14.25909 19.40268 16.83088
#
# Velocity S-wave (km/s) = 2.83240 3.30400 3.07725
# Velocity P-wave (km/s) = 6.59891 6.98240 6.79336
#
# Compressibility (1/GPa) = 0.01712759
#
# Stress axis : x y z
#
# Youngs Moduli (GPa) = 92.29799 78.36715 66.74434
#
# Poissons Ratio (x) = 0.22040 0.33299
# Poissons Ratio (y) = 0.25958 0.19512
# Poissons Ratio (z) = 0.46048 0.22910
#
# Static dielectric constant tensor:
#      x y z
#    x 1.548580 0.000000 0.000000 
#    y 0.000000 1.615480 0.000000 
#    z 0.000000 0.000000 1.630100 
# 
# From -- ./inp_files/18214.got.cif
#   From: 2010.05.17/outbox.cif.g08.bks.cpg/sg65_10_cif.got.tgz:18214.got - 2010.06.03 17:01:31.
