data_PCOD9487692
_publ_section_title
;
Structure prediction by ZEFSAII (Michael W. Deem and Ramdas Pophale) SiO2 
 PCOD9487692
Probable space group: C M M M
;
_chemical_formula_sum "Si O2"
_cell_formula_units_Z 64
_cell_length_a 24.436624
_cell_length_b 15.846568
_cell_length_c 8.612890
_cell_angle_alpha 90.000000
_cell_angle_beta 90.000000
_cell_angle_gamma 90.000000
_cell_volume 3335.226446
_symmetry_space_group_name_H-M "C M M M"
_symmetry_group_IT_number 65
_symmetry_cell_setting 'orthorhombic'
loop_
_space_group_symop_operation_xyz
x,y,z
-x,-y,z
x,-y,-z
-x,y,-z
-x,-y,-z
x,y,-z
-x,y,z
x,-y,z
1/2+x,1/2+y,z
1/2-x,1/2-y,z
1/2+x,1/2-y,-z
1/2-x,1/2+y,-z
1/2-x,1/2-y,-z
1/2+x,1/2+y,-z
1/2-x,1/2+y,z
1/2+x,1/2-y,z
loop_
_atom_site_type_symbol
_atom_site_label
_atom_site_fract_x
_atom_site_fract_y
_atom_site_fract_z
Si Si1 0.314267 0.500000 0.186649
Si Si2 0.381718 0.836971 0.811838
Si Si3 0.500000 0.398903 0.815382
Si Si4 0.688078 0.000000 0.811045
Si Si5 0.000000 0.402305 0.188916
Si Si6 0.116644 0.155954 0.684616
O O1 0.251064 0.500000 0.237839
O O2 0.345594 0.582296 0.247066
O O3 0.316108 0.500000 0.000000
O O4 0.444134 0.857348 0.762919
O O5 0.364750 0.747555 0.743285
O O6 0.344043 0.915611 0.762995
O O7 0.380577 0.832143 0.000000
O O8 0.500000 0.500000 0.789290
O O9 0.445035 0.360505 0.744416
O O10 0.500000 0.383633 0.000000
O O11 0.687082 0.000000 0.000000
O O12 0.000000 0.500000 0.238768
O O13 0.000000 0.403028 0.000000
O O14 0.117414 0.152039 0.500000
#
# Coordination Sequence:
#
# PCOD9487692 Si02
#       6
#     8  16   8   8   8  16
#     4  11  23  42  63  85 114 156 212 262 301 347
#     4  10  19  36  62  92 123 157 200 248 299 354
#     4  11  22  39  66  93 118 154 199 244 296 357
#     4   9  20  38  64  91 116 154 210 266 300 337
#     4   9  15  28  58  93 121 147 184 237 295 350
#     4  12  25  40  60  90 126 160 194 241 304 367
#
# _framework density 19.189101999999998
#
# number of rings (size 3 to 8) (size 9 to 14) (size 15 to 20)
#    0.000    1.500    2.500    3.750    0.000    2.500 
#    0.000    8.125    0.000    0.750    0.000    0.000 
#    0.000    0.000    0.000    0.000    0.000    0.000 
#
# Total GULP energy -178895.180911 kJ/mol
# GULP energy per Si atom -5590.474403 kJ/mol
# Density = 1.914543 g / cm^3
# Si number density = 19.189102 Si / 1000 Ang^3
#
#
#
# Elastic Constant Matrix: (Units=GPa)
#
#
# Indices 1 2 3 4 5 6 
#
# 1 157.3077 97.3919 33.6457 0.0000 0.0000 0.0000
# 2 97.3919 200.0791 55.2117 0.0000 0.0000 0.0000
# 3 33.6457 55.2117 59.3634 0.0000 0.0000 0.0000
# 4 0.0000 0.0000 0.0000 -21.3241 0.0000 0.0000
# 5 0.0000 0.0000 0.0000 0.0000 6.4132 0.0000
# 6 0.0000 0.0000 0.0000 0.0000 0.0000 -3.2265
#
#
#
# Elastic Compliance Matrix: (Units=1/GPa)
#
#
# Indices 1 2 3 4 5 6 
#
# 1 0.009186 -0.004083 -0.001409 0.000000 0.000000 0.000000
# 2 -0.004083 0.008538 -0.005627 0.000000 0.000000 0.000000
# 3 -0.001409 -0.005627 0.022878 0.000000 0.000000 0.000000
# 4 0.000000 0.000000 0.000000 -0.046895 0.000000 0.000000
# 5 0.000000 0.000000 0.000000 0.000000 0.155928 0.000000
# 6 0.000000 0.000000 0.000000 0.000000 0.000000 -0.309933
#
#
# Mechanical properties :
#
#
# Convention : Reuss Voigt Hill
#
# Bulk Modulus (GPa) = 54.45489 87.69430 71.07460
# Shear Modulus (GPa) = -37.89600 11.73925 -13.07837
#
# Velocity S-wave (km/s) = -4.44877 2.47607 -2.61349
# Velocity P-wave (km/s) = 1.43208 7.34669 5.29267
#
# Compressibility (1/GPa) = 0.01836382
#
# Stress axis : x y z
#
# Youngs Moduli (GPa) = 108.86174 117.12304 43.71067
#
# Poissons Ratio (x) = 0.47815 0.06161
# Poissons Ratio (y) = 0.44443 0.24596
# Poissons Ratio (z) = 0.15343 0.65906
#
# Static dielectric constant tensor:
#      x y z
#    x 1.649620 0.000000 0.000000 
#    y 0.000000 1.653750 0.000000 
#    z 0.000000 0.000000 1.642370 
# 
# From -- ./inp_files/6825.got.cif
#   From: 2010.05.17/outbox.cif.g08.bks.cpg/sg65_4_cif.got.tgz:6825.got - 2010.06.03 17:01:31.
