data_PCOD9487839
_publ_section_title
;
Structure prediction by ZEFSAII (Michael W. Deem and Ramdas Pophale) SiO2 
 PCOD9487839
Probable space group: C M M M
;
_chemical_formula_sum "Si O2"
_cell_formula_units_Z 104
_cell_length_a 7.440021
_cell_length_b 30.279835
_cell_length_c 22.579913
_cell_angle_alpha 90.000000
_cell_angle_beta 90.000000
_cell_angle_gamma 90.000000
_cell_volume 5086.861695
_symmetry_space_group_name_H-M "C M M M"
_symmetry_group_IT_number 65
_symmetry_cell_setting 'orthorhombic'
loop_
_space_group_symop_operation_xyz
x,y,z
-x,-y,z
x,-y,-z
-x,y,-z
-x,-y,-z
x,y,-z
-x,y,z
x,-y,z
1/2+x,1/2+y,z
1/2-x,1/2-y,z
1/2+x,1/2-y,-z
1/2-x,1/2+y,-z
1/2-x,1/2-y,-z
1/2+x,1/2+y,-z
1/2-x,1/2+y,z
1/2+x,1/2-y,z
loop_
_atom_site_type_symbol
_atom_site_label
_atom_site_fract_x
_atom_site_fract_y
_atom_site_fract_z
Si Si1 0.291804 0.947024 0.000000
Si Si2 0.702691 0.621968 0.776928
Si Si3 0.282619 0.075219 0.436748
Si Si4 0.291147 0.449181 0.132483
Si Si5 0.709846 0.320673 0.565328
Si Si6 0.282141 0.952743 0.310344
Si Si7 0.715177 0.700035 0.303177
O O1 0.215284 0.934484 0.936189
O O2 0.500000 0.934857 0.000000
O O3 0.274265 0.000000 0.000000
O O4 0.500000 0.633732 0.797109
O O5 0.788117 0.590291 0.827394
O O6 0.697456 0.587879 0.722657
O O7 0.785086 0.665349 0.745919
O O8 0.221769 0.057407 0.500000
O O9 0.500000 0.075146 0.436720
O O10 0.223849 0.126168 0.432636
O O11 0.227373 0.049779 0.378561
O O12 0.500000 0.452459 0.150047
O O13 0.216816 0.500000 0.137251
O O14 0.785107 0.307285 0.500000
O O15 0.500000 0.307791 0.564514
O O16 0.785853 0.305257 0.628900
O O17 0.500000 0.948904 0.306967
O O18 0.231763 0.000000 0.283940
O O19 0.500000 0.691866 0.306724
O O20 0.750000 0.750000 0.284722
#
# Coordination Sequence:
#
# PCOD9487839 Si02
#       7
#     8  16  16  16  16  16  16
#     4   9  17  29  47  75 110 141 168 199 232 269
#     4  10  20  35  52  72  98 131 168 204 242 290
#     4   9  17  29  45  64  87 119 158 198 242 293
#     4   9  17  30  50  75 104 138 171 199 230 273
#     4   9  17  31  50  69  90 117 152 201 258 309
#     4  10  20  31  45  68  96 126 161 201 245 292
#     4  10  21  35  51  72  96 124 161 206 256 308
#
# _framework density 20.444825000000002
#
# number of rings (size 3 to 8) (size 9 to 14) (size 15 to 20)
#    0.000    2.538    1.538    0.692    0.000    4.308 
#    0.000    3.077    0.000    0.000    0.000    3.769 
#    0.000    0.000    0.000    0.000    0.000    0.000 
#
# Total GULP energy -289792.010779 kJ/mol
# GULP energy per Si atom -5572.923284 kJ/mol
# Density = 2.039829 g / cm^3
# Si number density = 20.444825 Si / 1000 Ang^3
#
#
#
# Elastic Constant Matrix: (Units=GPa)
#
#
# Indices 1 2 3 4 5 6 
#
# 1 67.4079 -1.7545 1.0732 0.0000 0.0000 0.0000
# 2 -1.7545 122.0589 61.9626 0.0000 0.0000 0.0000
# 3 1.0732 61.9626 149.9952 0.0000 0.0000 0.0000
# 4 0.0000 0.0000 0.0000 20.2452 0.0000 0.0000
# 5 0.0000 0.0000 0.0000 0.0000 4.1713 0.0000
# 6 0.0000 0.0000 0.0000 0.0000 0.0000 -114.9215
#
#
#
# Elastic Compliance Matrix: (Units=1/GPa)
#
#
# Indices 1 2 3 4 5 6 
#
# 1 0.014848 0.000338 -0.000246 0.000000 0.000000 0.000000
# 2 0.000338 0.010374 -0.004288 0.000000 0.000000 0.000000
# 3 -0.000246 -0.004288 0.008440 0.000000 0.000000 0.000000
# 4 0.000000 0.000000 0.000000 0.049395 0.000000 0.000000
# 5 0.000000 0.000000 0.000000 0.000000 0.239731 0.000000
# 6 0.000000 0.000000 0.000000 0.000000 0.000000 -0.008702
#
#
# Mechanical properties :
#
#
# Convention : Reuss Voigt Hill
#
# Bulk Modulus (GPa) = 39.57148 51.33608 45.45378
# Shear Modulus (GPa) = 15.11025 0.44437 7.77731
#
# Velocity S-wave (km/s) = 2.72154 0.46672 1.95251
# Velocity P-wave (km/s) = 5.41045 5.04525 5.23104
#
# Compressibility (1/GPa) = 0.02527073
#
# Stress axis : x y z
#
# Youngs Moduli (GPa) = 67.35013 96.39061 118.48289
#
# Poissons Ratio (x) = -0.03261 0.02915
# Poissons Ratio (y) = -0.02278 0.50806
# Poissons Ratio (z) = 0.01657 0.41333
#
# Static dielectric constant tensor:
#      x y z
#    x 1.787800 0.000000 0.000000 
#    y 0.000000 1.708860 0.000000 
#    z 0.000000 0.000000 1.771590 
# 
# From -- ./inp_files/60870.got.cif
#   From: 2010.05.17/outbox.cif.g08.bks.cpg/sg65_31_cif.got.tgz:60870.got - 2010.06.03 17:01:31.
