data_PCOD9487765
_publ_section_title
;
Structure prediction by ZEFSAII (Michael W. Deem and Ramdas Pophale) SiO2 
 PCOD9487765
Probable space group: C M M M
;
_chemical_formula_sum "Si O2"
_cell_formula_units_Z 96
_cell_length_a 8.709718
_cell_length_b 27.823138
_cell_length_c 24.677454
_cell_angle_alpha 90.000000
_cell_angle_beta 90.000000
_cell_angle_gamma 90.000000
_cell_volume 5980.129030
_symmetry_space_group_name_H-M "C M M M"
_symmetry_group_IT_number 65
_symmetry_cell_setting 'orthorhombic'
loop_
_space_group_symop_operation_xyz
x,y,z
-x,-y,z
x,-y,-z
-x,y,-z
-x,-y,-z
x,y,-z
-x,y,z
x,-y,z
1/2+x,1/2+y,z
1/2-x,1/2-y,z
1/2+x,1/2-y,-z
1/2-x,1/2+y,-z
1/2-x,1/2-y,-z
1/2+x,1/2+y,-z
1/2-x,1/2+y,z
1/2+x,1/2-y,z
loop_
_atom_site_type_symbol
_atom_site_label
_atom_site_fract_x
_atom_site_fract_y
_atom_site_fract_z
Si Si1 0.814018 0.056217 0.118333
Si Si2 0.685115 0.446069 0.332585
Si Si3 0.678838 0.558402 0.000000
Si Si4 0.184516 0.849042 0.608853
Si Si5 0.316303 0.199032 0.284461
Si Si6 0.316729 0.803946 0.500000
Si Si7 0.683122 0.898968 0.774234
O O1 0.756618 0.072636 0.058665
O O2 0.751324 0.086195 0.168310
O O3 0.000000 0.058151 0.117874
O O4 0.771702 0.000000 0.125613
O O5 0.500000 0.445155 0.328960
O O6 0.732789 0.500000 0.348145
O O7 0.729570 0.403428 0.373759
O O8 0.750678 0.432266 0.273784
O O9 0.679958 0.500000 0.000000
O O10 0.500000 0.573169 0.000000
O O11 0.242234 0.815631 0.658041
O O12 0.257749 0.831391 0.553291
O O13 0.000000 0.846465 0.605196
O O14 0.500000 0.201533 0.290486
O O15 0.250000 0.250000 0.266806
O O16 0.279196 0.155544 0.243542
O O17 0.500000 0.801508 0.500000
O O18 0.250000 0.750000 0.500000
O O19 0.500000 0.904012 0.775234
#
# Coordination Sequence:
#
# PCOD9487765 Si02
#       7
#    16  16   8  16  16   8  16
#     4   9  16  27  44  65  91 124 160 193 224 265
#     4   9  18  33  52  72  95 126 161 192 222 263
#     4   7  12  24  41  61  86 119 158 195 226 259
#     4  10  20  35  54  75  98 123 154 190 229 272
#     4  10  20  34  50  69  94 122 152 188 233 280
#     4  12  24  38  55  74  97 123 154 191 233 280
#     4  10  20  30  43  68  98 124 152 189 233 278
#
# _framework density 16.053166000000001
#
# number of rings (size 3 to 8) (size 9 to 14) (size 15 to 20)
#    0.000    2.417    0.000    4.250    0.000    5.333 
#    0.000    0.833    0.000    4.000    0.000    0.583 
#    0.000    0.000    0.000    0.000    0.000    0.000 
#
# Total GULP energy -267657.049784 kJ/mol
# GULP energy per Si atom -5576.188537 kJ/mol
# Density = 1.601663 g / cm^3
# Si number density = 16.053166 Si / 1000 Ang^3
#
#
#
# Elastic Constant Matrix: (Units=GPa)
#
#
# Indices 1 2 3 4 5 6 
#
# 1 40.8403 34.2330 41.2979 0.0000 0.0000 0.0000
# 2 34.2330 104.9103 66.0129 0.0000 0.0000 0.0000
# 3 41.2979 66.0129 155.9682 0.0000 0.0000 0.0000
# 4 0.0000 0.0000 0.0000 15.1488 0.0000 0.0000
# 5 0.0000 0.0000 0.0000 0.0000 13.5537 0.0000
# 6 0.0000 0.0000 0.0000 0.0000 0.0000 22.4751
#
#
#
# Elastic Compliance Matrix: (Units=1/GPa)
#
#
# Indices 1 2 3 4 5 6 
#
# 1 0.038083 -0.008289 -0.006575 0.000000 0.000000 0.000000
# 2 -0.008289 0.014796 -0.004068 0.000000 0.000000 0.000000
# 3 -0.006575 -0.004068 0.009874 0.000000 0.000000 0.000000
# 4 0.000000 0.000000 0.000000 0.066012 0.000000 0.000000
# 5 0.000000 0.000000 0.000000 0.000000 0.073780 0.000000
# 6 0.000000 0.000000 0.000000 0.000000 0.000000 0.044494
#
#
# Mechanical properties :
#
#
# Convention : Reuss Voigt Hill
#
# Bulk Modulus (GPa) = 40.17857 64.97850 52.57853
# Shear Modulus (GPa) = 17.05320 20.91386 18.98353
#
# Velocity S-wave (km/s) = 3.26282 3.61333 3.44254
# Velocity P-wave (km/s) = 6.26717 7.61401 6.97318
#
# Compressibility (1/GPa) = 0.02488889
#
# Stress axis : x y z
#
# Youngs Moduli (GPa) = 26.25852 67.58456 101.27425
#
# Poissons Ratio (x) = 0.56023 0.66591
# Poissons Ratio (y) = 0.21767 0.41194
# Poissons Ratio (z) = 0.17266 0.27491
#
# Static dielectric constant tensor:
#      x y z
#    x 1.540080 0.000000 0.000000 
#    y 0.000000 1.537960 0.000000 
#    z 0.000000 0.000000 1.527370 
# 
# From -- ./inp_files/68077.got.cif
#   From: 2010.05.17/outbox.cif.g08.bks.cpg/sg65_35_cif.got.tgz:68077.got - 2010.06.03 17:01:31.
