data_PCOD9487950
_publ_section_title
;
Structure prediction by ZEFSAII (Michael W. Deem and Ramdas Pophale) SiO2 
 PCOD9487950
Probable space group: C M M M
;
_chemical_formula_sum "Si O2"
_cell_formula_units_Z 72
_cell_length_a 28.176669
_cell_length_b 7.281454
_cell_length_c 14.209893
_cell_angle_alpha 90.000000
_cell_angle_beta 90.000000
_cell_angle_gamma 90.000000
_cell_volume 2915.402811
_symmetry_space_group_name_H-M "C M M M"
_symmetry_group_IT_number 65
_symmetry_cell_setting 'orthorhombic'
loop_
_space_group_symop_operation_xyz
x,y,z
-x,-y,z
x,-y,-z
-x,y,-z
-x,-y,-z
x,y,-z
-x,y,z
x,-y,z
1/2+x,1/2+y,z
1/2-x,1/2-y,z
1/2+x,1/2-y,-z
1/2-x,1/2+y,-z
1/2-x,1/2-y,-z
1/2+x,1/2+y,-z
1/2-x,1/2+y,z
1/2+x,1/2-y,z
loop_
_atom_site_type_symbol
_atom_site_label
_atom_site_fract_x
_atom_site_fract_y
_atom_site_fract_z
Si Si1 0.343800 0.275730 0.393497
Si Si2 0.802035 0.218308 0.792276
Si Si3 0.397461 0.723426 0.110169
Si Si4 0.948802 0.784186 0.614628
Si Si5 0.000000 0.779044 0.113392
O O1 0.335008 0.214583 0.500000
O O2 0.345168 0.500000 0.396350
O O3 0.306400 0.216523 0.315523
O O4 0.396564 0.215469 0.359992
O O5 0.750000 0.250000 0.833048
O O6 0.848506 0.289393 0.845258
O O7 0.807427 0.000000 0.790482
O O8 0.397846 0.500000 0.117043
O O9 0.448718 0.785269 0.150099
O O10 0.396826 0.768907 0.000000
O O11 0.948704 0.774644 0.500000
O O12 0.000000 0.708305 0.645515
O O13 0.949242 0.000000 0.640486
O O14 0.000000 0.000000 0.124253
O O15 0.000000 0.744304 0.000000
#
# Coordination Sequence:
#
# PCOD9487950 Si02
#       5
#    16  16  16  16   8
#     4   8  14  25  39  56  82 114 145 179 219 259
#     4  10  20  32  45  64  89 118 152 187 219 257
#     4   8  14  26  44  66  92 118 143 176 221 267
#     4   7   9  15  29  49  75 105 130 157 204 260
#     4   7  10  20  40  64  90 116 138 169 217 267
#
# _framework density 24.696414999999998
#
# number of rings (size 3 to 8) (size 9 to 14) (size 15 to 20)
#    0.000    3.889    0.000    3.333    0.000    0.889 
#    2.000    0.000    0.000    0.000    0.000    0.778 
#    0.000    2.667    0.000    5.556    0.000    4.444 
#
# Total GULP energy -200827.328326 kJ/mol
# GULP energy per Si atom -5578.536898 kJ/mol
# Density = 2.464021 g / cm^3
# Si number density = 24.696415 Si / 1000 Ang^3
#
#
#
# Elastic Constant Matrix: (Units=GPa)
#
#
# Indices 1 2 3 4 5 6 
#
# 1 228.0730 2.7280 70.6625 0.0000 0.0000 0.0000
# 2 2.7280 100.8166 0.2225 0.0000 0.0000 0.0000
# 3 70.6625 0.2225 62.9344 0.0000 0.0000 0.0000
# 4 0.0000 0.0000 0.0000 -11.6269 0.0000 0.0000
# 5 0.0000 0.0000 0.0000 0.0000 31.9500 0.0000
# 6 0.0000 0.0000 0.0000 0.0000 0.0000 -8.2103
#
#
#
# Elastic Compliance Matrix: (Units=1/GPa)
#
#
# Indices 1 2 3 4 5 6 
#
# 1 0.006726 -0.000165 -0.007552 0.000000 0.000000 0.000000
# 2 -0.000165 0.009923 0.000151 0.000000 0.000000 0.000000
# 3 -0.007552 0.000151 0.024368 0.000000 0.000000 0.000000
# 4 0.000000 0.000000 0.000000 -0.086007 0.000000 0.000000
# 5 0.000000 0.000000 0.000000 0.000000 0.031299 0.000000
# 6 0.000000 0.000000 0.000000 0.000000 0.000000 -0.121798
#
#
# Mechanical properties :
#
#
# Convention : Reuss Voigt Hill
#
# Bulk Modulus (GPa) = 38.63309 59.89447 49.26378
# Shear Modulus (GPa) = -44.75157 23.63661 -10.55748
#
# Velocity S-wave (km/s) = -4.26146 3.09704 -2.06983
# Velocity P-wave (km/s) = 2.92168 6.09047 3.77873
#
# Compressibility (1/GPa) = 0.02588455
#
# Stress axis : x y z
#
# Youngs Moduli (GPa) = 148.67242 100.77448 41.03757
#
# Poissons Ratio (x) = 0.01666 0.30990
# Poissons Ratio (y) = 0.02458 -0.00618
# Poissons Ratio (z) = 1.12271 -0.01517
#
# Static dielectric constant tensor:
#      x y z
#    x 1.978130 0.000000 0.000000 
#    y 0.000000 2.088520 0.000000 
#    z 0.000000 0.000000 1.956220 
# 
# From -- ./inp_files/45254.got.cif
#   From: 2010.05.17/outbox.cif.g08.bks.cpg/sg65_23_cif.got.tgz:45254.got - 2010.06.03 17:01:31.
