data_PCOD9487208
_publ_section_title
;
Structure prediction by ZEFSAII (Michael W. Deem and Ramdas Pophale) SiO2 
 PCOD9487208
Probable space group: C M M M
;
_chemical_formula_sum "Si O2"
_cell_formula_units_Z 82
_cell_length_a 21.194908
_cell_length_b 24.741989
_cell_length_c 9.535321
_cell_angle_alpha 90.000000
_cell_angle_beta 90.000000
_cell_angle_gamma 90.000000
_cell_volume 5000.362196
_symmetry_space_group_name_H-M "C M M M"
_symmetry_group_IT_number 65
_symmetry_cell_setting 'orthorhombic'
loop_
_space_group_symop_operation_xyz
x,y,z
-x,-y,z
x,-y,-z
-x,y,-z
-x,-y,-z
x,y,-z
-x,y,z
x,-y,z
1/2+x,1/2+y,z
1/2-x,1/2-y,z
1/2+x,1/2-y,-z
1/2-x,1/2+y,-z
1/2-x,1/2-y,-z
1/2+x,1/2+y,-z
1/2-x,1/2+y,z
1/2+x,1/2-y,z
loop_
_atom_site_type_symbol
_atom_site_label
_atom_site_fract_x
_atom_site_fract_y
_atom_site_fract_z
Si Si1 0.000000 0.500000 0.500000
Si Si2 0.189229 0.788734 0.332669
Si Si3 0.393958 0.000000 0.740636
Si Si4 0.116763 0.617911 0.155576
Si Si5 0.570439 0.215127 0.332048
Si Si6 0.267626 0.391709 0.834735
Si Si7 0.254048 0.500000 0.334675
O O1 0.054952 0.500000 0.620442
O O2 0.186745 0.801391 0.500000
O O3 0.250000 0.750000 0.311803
O O4 0.126413 0.755835 0.291991
O O5 0.197715 0.842176 0.240683
O O6 0.400703 0.944648 0.826286
O O7 0.322327 0.000000 0.680683
O O8 0.084425 0.656664 0.267145
O O9 0.192487 0.620752 0.172560
O O10 0.099982 0.636807 0.000000
O O11 0.572755 0.210397 0.500000
O O12 0.500000 0.233087 0.291704
O O13 0.277436 0.446755 0.747397
O O14 0.283231 0.397613 0.000000
O O15 0.269857 0.500000 0.500000
#
# Coordination Sequence:
#
# PCOD9487208 Si02
#       7
#     2  16   8  16  16  16   8
#     4  12  24  36  46  72  88 136 194 224 258 302
#     4  10  19  34  54  78 102 135 178 218 257 308
#     4  10  23  34  49  67  96 132 178 223 261 301
#     4  10  21  36  51  70 100 135 174 219 267 310
#     4  10  22  36  53  74 103 136 175 218 261 306
#     4  10  20  33  54  79 106 135 168 215 264 313
#     4  10  19  35  54  77 102 133 168 212 263 308
#
# _framework density 16.398812
#
# number of rings (size 3 to 8) (size 9 to 14) (size 15 to 20)
#    0.000    1.951    2.439    1.171    2.732    4.683 
#    0.000    0.488    0.000    0.000    0.000    0.683 
#    0.000    5.463    0.000    0.000    0.000    0.000 
#
# Total GULP energy -228482.311446 kJ/mol
# GULP energy per Si atom -5572.739304 kJ/mol
# Density = 1.636149 g / cm^3
# Si number density = 16.398812 Si / 1000 Ang^3
#
#
#
# Elastic Constant Matrix: (Units=GPa)
#
#
# Indices 1 2 3 4 5 6 
#
# 1 83.4521 57.2848 34.5514 0.0000 0.0000 0.0000
# 2 57.2848 123.8819 59.4971 0.0000 0.0000 0.0000
# 3 34.5514 59.4971 74.7405 0.0000 0.0000 0.0000
# 4 0.0000 0.0000 0.0000 8.2742 0.0000 0.0000
# 5 0.0000 0.0000 0.0000 0.0000 13.7905 0.0000
# 6 0.0000 0.0000 0.0000 0.0000 0.0000 6.5581
#
#
#
# Elastic Compliance Matrix: (Units=1/GPa)
#
#
# Indices 1 2 3 4 5 6 
#
# 1 0.017892 -0.006963 -0.002728 0.000000 0.000000 0.000000
# 2 -0.006963 0.015779 -0.009342 0.000000 0.000000 0.000000
# 3 -0.002728 -0.009342 0.022077 0.000000 0.000000 0.000000
# 4 0.000000 0.000000 0.000000 0.120858 0.000000 0.000000
# 5 0.000000 0.000000 0.000000 0.000000 0.072514 0.000000
# 6 0.000000 0.000000 0.000000 0.000000 0.000000 0.152484
#
#
# Mechanical properties :
#
#
# Convention : Reuss Voigt Hill
#
# Bulk Modulus (GPa) = 56.55467 64.97123 60.76295
# Shear Modulus (GPa) = 11.22174 14.44063 12.83118
#
# Velocity S-wave (km/s) = 2.61875 2.97069 2.80026
# Velocity P-wave (km/s) = 6.61103 7.17441 6.89848
#
# Compressibility (1/GPa) = 0.01768201
#
# Stress axis : x y z
#
# Youngs Moduli (GPa) = 55.88953 63.37663 45.29577
#
# Poissons Ratio (x) = 0.44132 0.12357
# Poissons Ratio (y) = 0.38919 0.42313
# Poissons Ratio (z) = 0.15247 0.59203
#
# Static dielectric constant tensor:
#      x y z
#    x 1.545590 0.000000 0.000000 
#    y 0.000000 1.535860 0.000000 
#    z 0.000000 0.000000 1.548370 
# 
# From -- ./inp_files/11653.got.cif
#   From: 2010.05.17/outbox.cif.g08.bks.cpg/sg65_6_cif.got.tgz:11653.got - 2010.06.03 17:01:31.
