data_PCOD9487417
_publ_section_title
;
Structure prediction by ZEFSAII (Michael W. Deem and Ramdas Pophale) SiO2 
 PCOD9487417
Probable space group: C M M M
;
_chemical_formula_sum "Si O2"
_cell_formula_units_Z 80
_cell_length_a 8.862539
_cell_length_b 24.357555
_cell_length_c 20.780315
_cell_angle_alpha 90.000000
_cell_angle_beta 90.000000
_cell_angle_gamma 90.000000
_cell_volume 4485.842051
_symmetry_space_group_name_H-M "C M M M"
_symmetry_group_IT_number 65
_symmetry_cell_setting 'orthorhombic'
loop_
_space_group_symop_operation_xyz
x,y,z
-x,-y,z
x,-y,-z
-x,y,-z
-x,-y,-z
x,y,-z
-x,y,z
x,-y,z
1/2+x,1/2+y,z
1/2-x,1/2-y,z
1/2+x,1/2-y,-z
1/2-x,1/2+y,-z
1/2-x,1/2-y,-z
1/2+x,1/2+y,-z
1/2-x,1/2+y,z
1/2+x,1/2-y,z
loop_
_atom_site_type_symbol
_atom_site_label
_atom_site_fract_x
_atom_site_fract_y
_atom_site_fract_z
Si Si1 0.181536 0.381369 0.315239
Si Si2 0.680886 0.189528 0.188630
Si Si3 0.182195 0.880536 0.926838
Si Si4 0.681542 0.500000 0.123946
Si Si5 0.319778 0.309155 0.574691
Si Si6 0.682081 0.000000 0.266370
O O1 0.221466 0.345917 0.251892
O O2 0.256684 0.354454 0.377178
O O3 0.226894 0.444213 0.302366
O O4 0.000000 0.379363 0.322236
O O5 0.500000 0.192882 0.185375
O O6 0.750000 0.250000 0.193183
O O7 0.743077 0.158227 0.126081
O O8 0.224507 0.943834 0.911970
O O9 0.000000 0.876468 0.921493
O O10 0.224428 0.866397 0.000000
O O11 0.500000 0.500000 0.128982
O O12 0.751010 0.500000 0.194901
O O13 0.279848 0.320226 0.500000
O O14 0.500000 0.305872 0.579637
O O15 0.250000 0.250000 0.592094
O O16 0.500000 0.000000 0.260840
#
# Coordination Sequence:
#
# PCOD9487417 Si02
#       6
#    16  16  16   8  16   8
#     4  10  21  37  59  85 114 148 186 230 276 329
#     4  11  23  38  57  81 110 145 187 233 282 335
#     4  10  21  37  57  82 112 145 184 230 280 336
#     4  10  19  34  58  85 111 143 182 228 281 332
#     4  10  21  37  59  87 118 151 188 230 275 325
#     4  10  20  37  58  84 116 146 182 229 278 328
#
# _framework density 17.833887000000001
#
# number of rings (size 3 to 8) (size 9 to 14) (size 15 to 20)
#    0.000    1.800    2.000    2.100    0.000    7.200 
#    0.000    0.500    0.000    4.800    0.000    0.000 
#    0.000    0.000    0.000    0.000    0.000    0.000 
#
# Total GULP energy -223448.867990 kJ/mol
# GULP energy per Si atom -5586.221700 kJ/mol
# Density = 1.779330 g / cm^3
# Si number density = 17.833887 Si / 1000 Ang^3
#
#
#
# Elastic Constant Matrix: (Units=GPa)
#
#
# Indices 1 2 3 4 5 6 
#
# 1 24.7290 44.1189 39.1948 0.0000 0.0000 0.0000
# 2 44.1189 160.0797 79.7905 0.0000 0.0000 0.0000
# 3 39.1948 79.7905 115.2068 0.0000 0.0000 0.0000
# 4 0.0000 0.0000 0.0000 22.9090 0.0000 0.0000
# 5 0.0000 0.0000 0.0000 0.0000 32.2221 0.0000
# 6 0.0000 0.0000 0.0000 0.0000 0.0000 12.9611
#
#
#
# Elastic Compliance Matrix: (Units=1/GPa)
#
#
# Indices 1 2 3 4 5 6 
#
# 1 0.115661 -0.018729 -0.026378 0.000000 0.000000 0.000000
# 2 -0.018729 0.012573 -0.002336 0.000000 0.000000 0.000000
# 3 -0.026378 -0.002336 0.019272 0.000000 0.000000 0.000000
# 4 0.000000 0.000000 0.000000 0.043651 0.000000 0.000000
# 5 0.000000 0.000000 0.000000 0.000000 0.031035 0.000000
# 6 0.000000 0.000000 0.000000 0.000000 0.000000 0.077154
#
#
# Mechanical properties :
#
#
# Convention : Reuss Voigt Hill
#
# Bulk Modulus (GPa) = 19.00410 69.58044 44.29227
# Shear Modulus (GPa) = 12.14264 22.74586 17.44425
#
# Velocity S-wave (km/s) = 2.61219 3.57519 3.13094
# Velocity P-wave (km/s) = 4.44717 7.49288 6.16119
#
# Compressibility (1/GPa) = 0.05262022
#
# Stress axis : x y z
#
# Youngs Moduli (GPa) = 8.64595 79.53478 51.88832
#
# Poissons Ratio (x) = 1.48960 1.36871
# Poissons Ratio (y) = 0.16193 0.12122
# Poissons Ratio (z) = 0.22806 0.18580
#
# Static dielectric constant tensor:
#      x y z
#    x 1.600950 0.000000 0.000000 
#    y 0.000000 1.594290 0.000000 
#    z 0.000000 0.000000 1.581010 
# 
# From -- ./inp_files/57318.got.cif
#   From: 2010.05.17/outbox.cif.g08.bks.cpg/sg65_29_cif.got.tgz:57318.got - 2010.06.03 17:01:31.
