data_PCOD9487279
_publ_section_title
;
Structure prediction by ZEFSAII (Michael W. Deem and Ramdas Pophale) SiO2 
 PCOD9487279
Probable space group: C M M M
;
_chemical_formula_sum "Si O2"
_cell_formula_units_Z 88
_cell_length_a 17.440328
_cell_length_b 31.258911
_cell_length_c 7.491030
_cell_angle_alpha 90.000000
_cell_angle_beta 90.000000
_cell_angle_gamma 90.000000
_cell_volume 4083.852320
_symmetry_space_group_name_H-M "C M M M"
_symmetry_group_IT_number 65
_symmetry_cell_setting 'orthorhombic'
loop_
_space_group_symop_operation_xyz
x,y,z
-x,-y,z
x,-y,-z
-x,y,-z
-x,-y,-z
x,y,-z
-x,y,z
x,-y,z
1/2+x,1/2+y,z
1/2-x,1/2-y,z
1/2+x,1/2-y,-z
1/2-x,1/2+y,-z
1/2-x,1/2-y,-z
1/2+x,1/2+y,-z
1/2-x,1/2+y,z
1/2+x,1/2-y,z
loop_
_atom_site_type_symbol
_atom_site_label
_atom_site_fract_x
_atom_site_fract_y
_atom_site_fract_z
Si Si1 0.915890 0.049061 0.282327
Si Si2 0.000000 0.549764 0.217918
Si Si3 0.378080 0.880397 0.794820
Si Si4 0.408248 0.787786 0.202567
Si Si5 0.796716 0.117267 0.289079
Si Si6 0.088430 0.805473 0.215838
O O1 0.915111 0.049872 0.500000
O O2 0.849205 0.079091 0.217613
O O3 0.000000 0.064635 0.226398
O O4 0.907330 0.000000 0.228281
O O5 0.073451 0.578979 0.274167
O O6 0.000000 0.500000 0.279439
O O7 0.000000 0.547036 0.000000
O O8 0.391776 0.833546 0.710119
O O9 0.287127 0.885218 0.792646
O O10 0.405260 0.876100 0.000000
O O11 0.500000 0.785127 0.189528
O O12 0.386761 0.741793 0.282109
O O13 0.375182 0.788951 0.000000
O O14 0.785208 0.111709 0.500000
O O15 0.848098 0.159624 0.263800
O O16 0.000000 0.815112 0.275209
O O17 0.085402 0.803205 0.000000
#
# Coordination Sequence:
#
# PCOD9487279 Si02
#       6
#    16   8  16  16  16  16
#     4   8  15  30  51  70  90 126 173 209 237 285
#     4   9  18  34  59  87 107 129 171 229 286 327
#     4  10  19  34  56  77 101 135 174 216 261 312
#     4   8  14  29  54  77  95 128 180 223 251 296
#     4  11  22  33  48  76 112 140 167 208 261 316
#     4   9  18  33  54  78 103 134 176 221 259 299
#
# _framework density 21.548280999999999
#
# number of rings (size 3 to 8) (size 9 to 14) (size 15 to 20)
#    0.000    2.818    0.909    2.727    0.000    2.545 
#    0.000    5.000    0.000    3.273    0.000    6.364 
#    0.000    0.000    0.000    0.000    0.000    0.000 
#
# Total GULP energy -245266.577857 kJ/mol
# GULP energy per Si atom -5574.240406 kJ/mol
# Density = 2.149924 g / cm^3
# Si number density = 21.548281 Si / 1000 Ang^3
#
#
#
# Elastic Constant Matrix: (Units=GPa)
#
#
# Indices 1 2 3 4 5 6 
#
# 1 136.5856 94.7583 -2.2917 0.0000 0.0000 0.0000
# 2 94.7583 142.4584 -4.1348 0.0000 0.0000 0.0000
# 3 -2.2917 -4.1348 64.9063 0.0000 0.0000 0.0000
# 4 0.0000 0.0000 0.0000 1.2612 0.0000 0.0000
# 5 0.0000 0.0000 0.0000 0.0000 213.2857 0.0000
# 6 0.0000 0.0000 0.0000 0.0000 0.0000 55.4782
#
#
#
# Elastic Compliance Matrix: (Units=1/GPa)
#
#
# Indices 1 2 3 4 5 6 
#
# 1 0.013596 -0.009046 -0.000096 0.000000 0.000000 0.000000
# 2 -0.009046 0.013052 0.000512 0.000000 0.000000 0.000000
# 3 -0.000096 0.000512 0.015436 0.000000 0.000000 0.000000
# 4 0.000000 0.000000 0.000000 0.792879 0.000000 0.000000
# 5 0.000000 0.000000 0.000000 0.000000 0.004689 0.000000
# 6 0.000000 0.000000 0.000000 0.000000 0.000000 0.018025
#
#
# Mechanical properties :
#
#
# Convention : Reuss Voigt Hill
#
# Bulk Modulus (GPa) = 40.28578 57.84599 49.06588
# Shear Modulus (GPa) = 5.66116 71.04626 38.35371
#
# Velocity S-wave (km/s) = 1.62262 5.74824 4.22346
# Velocity P-wave (km/s) = 4.71664 8.42375 6.82665
#
# Compressibility (1/GPa) = 0.02482266
#
# Stress axis : x y z
#
# Youngs Moduli (GPa) = 73.55256 76.61866 64.78341
#
# Poissons Ratio (x) = 0.69311 0.00624
# Poissons Ratio (y) = 0.66537 -0.03317
# Poissons Ratio (z) = 0.00708 -0.03923
#
# Static dielectric constant tensor:
#      x y z
#    x 1.749450 0.000000 0.000000 
#    y 0.000000 1.809750 0.000000 
#    z 0.000000 0.000000 1.855050 
# 
# From -- ./inp_files/25359.got.cif
#   From: 2010.05.17/outbox.cif.g08.bks.cpg/sg65_13_cif.got.tgz:25359.got - 2010.06.03 17:01:31.
