data_PCOD9487904
_publ_section_title
;
Structure prediction by ZEFSAII (Michael W. Deem and Ramdas Pophale) SiO2 
 PCOD9487904
Probable space group: C M M M
;
_chemical_formula_sum "Si O2"
_cell_formula_units_Z 88
_cell_length_a 14.336214
_cell_length_b 21.408608
_cell_length_c 15.075375
_cell_angle_alpha 90.000000
_cell_angle_beta 90.000000
_cell_angle_gamma 90.000000
_cell_volume 4626.909759
_symmetry_space_group_name_H-M "C M M M"
_symmetry_group_IT_number 65
_symmetry_cell_setting 'orthorhombic'
loop_
_space_group_symop_operation_xyz
x,y,z
-x,-y,z
x,-y,-z
-x,y,-z
-x,-y,-z
x,y,-z
-x,y,z
x,-y,z
1/2+x,1/2+y,z
1/2-x,1/2-y,z
1/2+x,1/2-y,-z
1/2-x,1/2+y,-z
1/2-x,1/2-y,-z
1/2+x,1/2+y,-z
1/2-x,1/2+y,z
1/2+x,1/2-y,z
loop_
_atom_site_type_symbol
_atom_site_label
_atom_site_fract_x
_atom_site_fract_y
_atom_site_fract_z
Si Si1 0.608802 0.367994 0.599781
Si Si2 0.213967 0.389696 0.704142
Si Si3 0.605447 0.765125 0.332927
Si Si4 0.782050 0.355125 0.096199
Si Si5 0.111518 0.500000 0.396300
Si Si6 0.606484 0.270413 0.129249
O O1 0.628486 0.390466 0.500000
O O2 0.500000 0.379680 0.620555
O O3 0.680493 0.396320 0.669778
O O4 0.621151 0.292597 0.602103
O O5 0.177213 0.321747 0.671521
O O6 0.206138 0.391491 0.811096
O O7 0.151769 0.440438 0.655027
O O8 0.500000 0.789738 0.346573
O O9 0.608848 0.733364 0.235862
O O10 0.680348 0.322261 0.100244
O O11 0.854601 0.297010 0.099480
O O12 0.792519 0.386964 0.000000
O O13 0.139751 0.500000 0.500000
O O14 0.000000 0.500000 0.392979
O O15 0.500000 0.280664 0.101866
#
# Coordination Sequence:
#
# PCOD9487904 Si02
#       6
#    16  16  16  16   8  16
#     4  10  20  33  53  83 114 143 180 226 282 351
#     4  11  21  38  58  78 111 151 184 234 286 326
#     4   9  17  30  51  81 115 148 181 221 277 339
#     4  10  20  31  49  81 114 149 191 226 266 329
#     4  11  26  46  66  86 104 135 192 244 280 330
#     4   9  16  29  48  76 118 156 182 217 268 326
#
# _framework density 19.019172999999999
#
# number of rings (size 3 to 8) (size 9 to 14) (size 15 to 20)
#    0.000    2.091    1.818    2.727    0.000    4.364 
#    0.000    2.727    0.000    2.182    0.000    0.000 
#    0.000    2.909    0.000    0.000    0.000    0.000 
#
# Total GULP energy -245468.463604 kJ/mol
# GULP energy per Si atom -5578.828718 kJ/mol
# Density = 1.897588 g / cm^3
# Si number density = 19.019173 Si / 1000 Ang^3
#
#
#
# Elastic Constant Matrix: (Units=GPa)
#
#
# Indices 1 2 3 4 5 6 
#
# 1 93.9795 12.0597 38.2261 0.0000 0.0000 0.0000
# 2 12.0597 22.4072 32.2389 0.0000 0.0000 0.0000
# 3 38.2261 32.2389 152.0003 0.0000 0.0000 0.0000
# 4 0.0000 0.0000 0.0000 1.5901 0.0000 0.0000
# 5 0.0000 0.0000 0.0000 0.0000 9.2095 0.0000
# 6 0.0000 0.0000 0.0000 0.0000 0.0000 21.0811
#
#
#
# Elastic Compliance Matrix: (Units=1/GPa)
#
#
# Indices 1 2 3 4 5 6 
#
# 1 0.011996 -0.003045 -0.002371 0.000000 0.000000 0.000000
# 2 -0.003045 0.065001 -0.013021 0.000000 0.000000 0.000000
# 3 -0.002371 -0.013021 0.009937 0.000000 0.000000 0.000000
# 4 0.000000 0.000000 0.000000 0.628873 0.000000 0.000000
# 5 0.000000 0.000000 0.000000 0.000000 0.108584 0.000000
# 6 0.000000 0.000000 0.000000 0.000000 0.000000 0.047436
#
#
# Mechanical properties :
#
#
# Convention : Reuss Voigt Hill
#
# Bulk Modulus (GPa) = 19.97584 48.15962 34.06773
# Shear Modulus (GPa) = 5.40314 18.76697 12.08506
#
# Velocity S-wave (km/s) = 1.68732 3.14465 2.52348
# Velocity P-wave (km/s) = 3.78443 6.20980 5.14216
#
# Compressibility (1/GPa) = 0.05006048
#
# Stress axis : x y z
#
# Youngs Moduli (GPa) = 83.36296 15.38428 100.63504
#
# Poissons Ratio (x) = 0.04684 0.23860
# Poissons Ratio (y) = 0.25384 1.31036
# Poissons Ratio (z) = 0.19765 0.20032
#
# Static dielectric constant tensor:
#      x y z
#    x 1.677290 0.000000 0.000000 
#    y 0.000000 1.636930 0.000000 
#    z 0.000000 0.000000 1.709610 
# 
# From -- ./inp_files/40549.got.cif
#   From: 2010.05.17/outbox.cif.g08.bks.cpg/sg65_21_cif.got.tgz:40549.got - 2010.06.03 17:01:31.
