data_PCOD9487682
_publ_section_title
;
Structure prediction by ZEFSAII (Michael W. Deem and Ramdas Pophale) SiO2 
 PCOD9487682
Probable space group: C M M M
;
_chemical_formula_sum "Si O2"
_cell_formula_units_Z 58
_cell_length_a 14.146203
_cell_length_b 25.168633
_cell_length_c 8.797094
_cell_angle_alpha 90.000000
_cell_angle_beta 90.000000
_cell_angle_gamma 90.000000
_cell_volume 3132.122553
_symmetry_space_group_name_H-M "C M M M"
_symmetry_group_IT_number 65
_symmetry_cell_setting 'orthorhombic'
loop_
_space_group_symop_operation_xyz
x,y,z
-x,-y,z
x,-y,-z
-x,y,-z
-x,-y,-z
x,y,-z
-x,y,z
x,-y,z
1/2+x,1/2+y,z
1/2-x,1/2-y,z
1/2+x,1/2-y,-z
1/2-x,1/2+y,-z
1/2-x,1/2-y,-z
1/2+x,1/2+y,-z
1/2-x,1/2+y,z
1/2+x,1/2-y,z
loop_
_atom_site_type_symbol
_atom_site_label
_atom_site_fract_x
_atom_site_fract_y
_atom_site_fract_z
Si Si1 0.000000 0.129719 0.683068
Si Si2 0.806562 0.304919 0.674439
Si Si3 0.000000 0.500000 0.500000
Si Si4 0.801210 0.500000 0.668296
Si Si5 0.000000 0.745635 0.314434
Si Si6 0.801267 0.098811 0.179787
O O1 0.904933 0.102537 0.744601
O O2 0.000000 0.128951 0.500000
O O3 0.000000 0.192452 0.731925
O O4 0.814028 0.325833 0.500000
O O5 0.750000 0.250000 0.666665
O O6 0.752253 0.347060 0.774953
O O7 0.908563 0.287302 0.732951
O O8 0.913691 0.500000 0.630897
O O9 0.755817 0.500000 0.500000
O O10 0.762720 0.551406 0.754999
O O11 0.000000 0.746847 0.500000
O O12 0.811771 0.093713 0.000000
#
# Coordination Sequence:
#
# PCOD9487682 Si02
#       6
#     8  16   2   8   8  16
#     4  11  21  40  67  96 129 179 226 265 311 385
#     4  10  19  36  61  90 125 176 229 270 311 380
#     4   8  24  48  82  94 116 156 238 284 300 356
#     4  10  23  48  74  96 117 167 222 271 310 381
#     4   9  18  34  59  90 124 167 229 277 310 361
#     4  12  25  41  63  99 141 171 206 271 344 397
#
# _framework density 18.517795
#
# number of rings (size 3 to 8) (size 9 to 14) (size 15 to 20)
#    0.414    1.103    2.759    3.310    0.000    2.207 
#    2.483    6.207    0.000    0.000    0.000    0.000 
#    0.000    0.000    0.000    0.000    0.000    0.000 
#
# Total GULP energy -161554.882845 kJ/mol
# GULP energy per Si atom -5570.858029 kJ/mol
# Density = 1.847565 g / cm^3
# Si number density = 18.517795 Si / 1000 Ang^3
#
#
#
# Elastic Constant Matrix: (Units=GPa)
#
#
# Indices 1 2 3 4 5 6 
#
# 1 194.7681 56.1177 55.4996 0.0000 0.0000 0.0000
# 2 56.1177 89.1032 44.0696 0.0000 0.0000 0.0000
# 3 55.4996 44.0696 112.8321 0.0000 0.0000 0.0000
# 4 0.0000 0.0000 0.0000 35.7230 0.0000 0.0000
# 5 0.0000 0.0000 0.0000 0.0000 28.3743 0.0000
# 6 0.0000 0.0000 0.0000 0.0000 0.0000 13.0614
#
#
#
# Elastic Compliance Matrix: (Units=1/GPa)
#
#
# Indices 1 2 3 4 5 6 
#
# 1 0.006624 -0.003173 -0.002019 0.000000 0.000000 0.000000
# 2 -0.003173 0.015430 -0.004466 0.000000 0.000000 0.000000
# 3 -0.002019 -0.004466 0.011600 0.000000 0.000000 0.000000
# 4 0.000000 0.000000 0.000000 0.027993 0.000000 0.000000
# 5 0.000000 0.000000 0.000000 0.000000 0.035243 0.000000
# 6 0.000000 0.000000 0.000000 0.000000 0.000000 0.076561
#
#
# Mechanical properties :
#
#
# Convention : Reuss Voigt Hill
#
# Bulk Modulus (GPa) = 69.74293 78.67525 74.20909
# Shear Modulus (GPa) = 25.31044 31.49950 28.40497
#
# Velocity S-wave (km/s) = 3.70106 4.12884 3.92079
# Velocity P-wave (km/s) = 7.48386 8.08135 7.78834
#
# Compressibility (1/GPa) = 0.01433837
#
# Stress axis : x y z
#
# Youngs Moduli (GPa) = 150.96936 64.80772 86.20741
#
# Poissons Ratio (x) = 0.20565 0.17403
# Poissons Ratio (y) = 0.47907 0.38499
# Poissons Ratio (z) = 0.30476 0.28942
#
# Static dielectric constant tensor:
#      x y z
#    x 1.509820 0.000000 0.000000 
#    y 0.000000 1.614670 0.000000 
#    z 0.000000 0.000000 1.636140 
# 
# From -- ./inp_files/6637.got.cif
#   From: 2010.05.17/outbox.cif.g08.bks.cpg/sg65_4_cif.got.tgz:6637.got - 2010.06.03 17:01:31.
