data_PCOD9487426
_publ_section_title
;
Structure prediction by ZEFSAII (Michael W. Deem and Ramdas Pophale) SiO2 
 PCOD9487426
Probable space group: C M M M
;
_chemical_formula_sum "Si O2"
_cell_formula_units_Z 48
_cell_length_a 15.471371
_cell_length_b 8.921757
_cell_length_c 17.250694
_cell_angle_alpha 90.000000
_cell_angle_beta 90.000000
_cell_angle_gamma 90.000000
_cell_volume 2381.144560
_symmetry_space_group_name_H-M "C M M M"
_symmetry_group_IT_number 65
_symmetry_cell_setting 'orthorhombic'
loop_
_space_group_symop_operation_xyz
x,y,z
-x,-y,z
x,-y,-z
-x,y,-z
-x,-y,-z
x,y,-z
-x,y,z
x,-y,z
1/2+x,1/2+y,z
1/2-x,1/2-y,z
1/2+x,1/2-y,-z
1/2-x,1/2+y,-z
1/2-x,1/2-y,-z
1/2+x,1/2+y,-z
1/2-x,1/2+y,z
1/2+x,1/2-y,z
loop_
_atom_site_type_symbol
_atom_site_label
_atom_site_fract_x
_atom_site_fract_y
_atom_site_fract_z
Si Si1 0.659757 0.678534 0.680269
Si Si2 0.895026 0.325842 0.160569
Si Si3 0.394426 0.327234 0.000000
Si Si4 0.500000 0.175281 0.592676
O O1 0.661985 0.500000 0.676128
O O2 0.750000 0.750000 0.655009
O O3 0.641655 0.731619 0.768243
O O4 0.583252 0.744827 0.628399
O O5 0.869735 0.500000 0.167437
O O6 0.867807 0.257910 0.078046
O O7 0.000000 0.318989 0.164473
O O8 0.366060 0.500000 0.000000
O O9 0.500000 0.327407 0.000000
O O10 0.500000 0.184264 0.500000
O O11 0.500000 0.000000 0.615962
#
# Coordination Sequence:
#
# PCOD9487426 Si02
#       4
#    16  16   8   8
#     4  12  25  42  67  97 132 171 215 263 318 380
#     4  10  19  34  58  87 125 168 215 265 319 376
#     4   9  17  29  50  83 122 164 217 266 314 372
#     4  11  25  47  73 100 131 166 207 259 319 383
#
# _framework density 20.158373999999998
#
# number of rings (size 3 to 8) (size 9 to 14) (size 15 to 20)
#    0.000    1.333    1.667    5.000    0.000    5.333 
#    0.000    0.833    0.000    0.000    0.000    0.000 
#    0.000    0.000    0.000    0.000    0.000    0.000 
#
# Total GULP energy -134339.050342 kJ/mol
# GULP energy per Si atom -5597.460431 kJ/mol
# Density = 2.011249 g / cm^3
# Si number density = 20.158374 Si / 1000 Ang^3
#
#
#
# Elastic Constant Matrix: (Units=GPa)
#
#
# Indices 1 2 3 4 5 6 
#
# 1 121.6330 84.6696 56.8951 0.0000 0.0000 0.0000
# 2 84.6696 235.2979 75.4053 0.0000 0.0000 0.0000
# 3 56.8951 75.4053 95.9003 0.0000 0.0000 0.0000
# 4 0.0000 0.0000 0.0000 26.3694 0.0000 0.0000
# 5 0.0000 0.0000 0.0000 0.0000 -21.7815 0.0000
# 6 0.0000 0.0000 0.0000 0.0000 0.0000 28.4456
#
#
#
# Elastic Compliance Matrix: (Units=1/GPa)
#
#
# Indices 1 2 3 4 5 6 
#
# 1 0.012687 -0.002879 -0.005264 0.000000 0.000000 0.000000
# 2 -0.002879 0.006335 -0.003273 0.000000 0.000000 0.000000
# 3 -0.005264 -0.003273 0.016124 0.000000 0.000000 0.000000
# 4 0.000000 0.000000 0.000000 0.037923 0.000000 0.000000
# 5 0.000000 0.000000 0.000000 0.000000 -0.045910 0.000000
# 6 0.000000 0.000000 0.000000 0.000000 0.000000 0.035155
#
#
# Mechanical properties :
#
#
# Convention : Reuss Voigt Hill
#
# Bulk Modulus (GPa) = 81.20032 98.53014 89.86523
# Shear Modulus (GPa) = 56.02298 22.33076 39.17687
#
# Velocity S-wave (km/s) = 5.27748 3.33192 4.41324
# Velocity P-wave (km/s) = 8.80365 7.98664 8.40508
#
# Compressibility (1/GPa) = 0.01231522
#
# Stress axis : x y z
#
# Youngs Moduli (GPa) = 78.81817 157.86103 62.01970
#
# Poissons Ratio (x) = 0.45442 0.32645
# Poissons Ratio (y) = 0.22689 0.20300
# Poissons Ratio (z) = 0.41488 0.51669
#
# Static dielectric constant tensor:
#      x y z
#    x 1.700820 0.000000 0.000000 
#    y 0.000000 1.667930 0.000000 
#    z 0.000000 0.000000 1.676620 
# 
# From -- ./inp_files/35093.got.cif
#   From: 2010.05.17/outbox.cif.g08.bks.cpg/sg65_18_cif.got.tgz:35093.got - 2010.06.03 17:01:31.
