data_PCOD9487019
_publ_section_title
;
Structure prediction by ZEFSAII (Michael W. Deem and Ramdas Pophale) SiO2 
 PCOD9487019
Probable space group: C M M M
;
_chemical_formula_sum "Si O2"
_cell_formula_units_Z 98
_cell_length_a 15.986970
_cell_length_b 34.900053
_cell_length_c 9.766467
_cell_angle_alpha 90.000000
_cell_angle_beta 90.000000
_cell_angle_gamma 90.000000
_cell_volume 5449.162176
_symmetry_space_group_name_H-M "C M M M"
_symmetry_group_IT_number 65
_symmetry_cell_setting 'orthorhombic'
loop_
_space_group_symop_operation_xyz
x,y,z
-x,-y,z
x,-y,-z
-x,y,-z
-x,-y,-z
x,y,-z
-x,y,z
x,-y,z
1/2+x,1/2+y,z
1/2-x,1/2-y,z
1/2+x,1/2-y,-z
1/2-x,1/2+y,-z
1/2-x,1/2-y,-z
1/2+x,1/2+y,-z
1/2-x,1/2+y,z
1/2+x,1/2-y,z
loop_
_atom_site_type_symbol
_atom_site_label
_atom_site_fract_x
_atom_site_fract_y
_atom_site_fract_z
Si Si1 0.599492 0.833332 0.340802
Si Si2 0.649880 0.750348 0.340853
Si Si3 0.000000 0.500000 0.500000
Si Si4 0.155975 0.903791 0.163045
Si Si5 0.500000 0.456380 0.833756
Si Si6 0.400645 0.333057 0.660609
Si Si7 0.500000 0.042349 0.781740
Si Si8 0.656136 0.096744 0.158419
O O1 0.627848 0.834678 0.500000
O O2 0.500000 0.839169 0.338369
O O3 0.618886 0.790842 0.283800
O O4 0.641333 0.866806 0.254658
O O5 0.621225 0.750595 0.500000
O O6 0.750000 0.750000 0.337249
O O7 0.617503 0.709890 0.285757
O O8 0.000000 0.467091 0.620792
O O9 0.143978 0.865008 0.248698
O O10 0.250234 0.918903 0.183330
O O11 0.083349 0.933257 0.206250
O O12 0.145124 0.896375 0.000000
O O13 0.500000 0.500000 0.783544
O O14 0.500000 0.457685 0.000000
O O15 0.374050 0.335073 0.500000
O O16 0.500000 0.339786 0.665547
O O17 0.417366 0.066225 0.817978
O O18 0.500000 0.000000 0.847238
O O19 0.652191 0.109019 0.000000
#
# Coordination Sequence:
#
# PCOD9487019 Si02
#       8
#    16  16   2  16   8  16   8  16
#     4  10  20  33  55  80 110 151 195 235 279 335
#     4   9  17  30  48  76 110 146 191 238 283 333
#     4   8  24  44  66  92 116 150 194 236 276 344
#     4  10  21  37  58  85 113 147 191 231 279 343
#     4   9  18  36  61  82 106 140 180 229 273 326
#     4  10  19  33  55  81 112 148 190 239 290 338
#     4  10  23  42  64  84 119 147 187 229 282 337
#     4  11  23  37  58  87 118 152 188 233 286 338
#
# _framework density 17.984417000000001
#
# number of rings (size 3 to 8) (size 9 to 14) (size 15 to 20)
#    0.245    1.878    1.633    1.714    1.143    5.224 
#    0.000    2.449    0.000    5.878    0.000    0.000 
#    0.000    0.000    0.000    0.000    0.000    0.000 
#
# Total GULP energy -272929.765004 kJ/mol
# GULP energy per Si atom -5569.995204 kJ/mol
# Density = 1.794348 g / cm^3
# Si number density = 17.984417 Si / 1000 Ang^3
#
#
#
# Elastic Constant Matrix: (Units=GPa)
#
#
# Indices 1 2 3 4 5 6 
#
# 1 117.3576 66.7857 31.7196 0.0000 0.0000 0.0000
# 2 66.7857 136.8331 36.7781 0.0000 0.0000 0.0000
# 3 31.7196 36.7781 52.9414 0.0000 0.0000 0.0000
# 4 0.0000 0.0000 0.0000 -387.2864 0.0000 0.0000
# 5 0.0000 0.0000 0.0000 0.0000 17.7749 0.0000
# 6 0.0000 0.0000 0.0000 0.0000 0.0000 3.9748
#
#
#
# Elastic Compliance Matrix: (Units=1/GPa)
#
#
# Indices 1 2 3 4 5 6 
#
# 1 0.012444 -0.005004 -0.003980 0.000000 0.000000 0.000000
# 2 -0.005004 0.010998 -0.004642 0.000000 0.000000 0.000000
# 3 -0.003980 -0.004642 0.024498 0.000000 0.000000 0.000000
# 4 0.000000 0.000000 0.000000 -0.002582 0.000000 0.000000
# 5 0.000000 0.000000 0.000000 0.000000 0.056259 0.000000
# 6 0.000000 0.000000 0.000000 0.000000 0.000000 0.251587
#
#
# Mechanical properties :
#
#
# Convention : Reuss Voigt Hill
#
# Bulk Modulus (GPa) = 48.33546 64.18876 56.26211
# Shear Modulus (GPa) = 12.90812 -61.65078 -24.37133
#
# Velocity S-wave (km/s) = 2.68197 -5.86127 -3.68521
# Velocity P-wave (km/s) = 6.04361 3.16816 3.63923
#
# Compressibility (1/GPa) = 0.02068875
#
# Stress axis : x y z
#
# Youngs Moduli (GPa) = 80.35752 90.92229 40.81945
#
# Poissons Ratio (x) = 0.45500 0.16244
# Poissons Ratio (y) = 0.40213 0.18949
# Poissons Ratio (z) = 0.31979 0.42208
#
# Static dielectric constant tensor:
#      x y z
#    x 1.627130 0.000000 0.000000 
#    y 0.000000 1.615030 0.000000 
#    z 0.000000 0.000000 1.604690 
# 
# From -- ./inp_files/25503.got.cif
#   From: 2010.05.17/outbox.cif.g08.bks.cpg/sg65_13_cif.got.tgz:25503.got - 2010.06.03 17:01:31.
