data_PCOD9487667
_publ_section_title
;
Structure prediction by ZEFSAII (Michael W. Deem and Ramdas Pophale) SiO2 
 PCOD9487667
Probable space group: C M M M
;
_chemical_formula_sum "Si O2"
_cell_formula_units_Z 72
_cell_length_a 30.366153
_cell_length_b 14.864170
_cell_length_c 8.705843
_cell_angle_alpha 90.000000
_cell_angle_beta 90.000000
_cell_angle_gamma 90.000000
_cell_volume 3929.535987
_symmetry_space_group_name_H-M "C M M M"
_symmetry_group_IT_number 65
_symmetry_cell_setting 'orthorhombic'
loop_
_space_group_symop_operation_xyz
x,y,z
-x,-y,z
x,-y,-z
-x,y,-z
-x,-y,-z
x,y,-z
-x,y,z
x,-y,z
1/2+x,1/2+y,z
1/2-x,1/2-y,z
1/2+x,1/2-y,-z
1/2-x,1/2+y,-z
1/2-x,1/2-y,-z
1/2+x,1/2+y,-z
1/2-x,1/2+y,z
1/2+x,1/2-y,z
loop_
_atom_site_type_symbol
_atom_site_label
_atom_site_fract_x
_atom_site_fract_y
_atom_site_fract_z
Si Si1 0.704453 0.804670 0.183187
Si Si2 0.446374 0.000000 0.177449
Si Si3 0.127214 0.185152 0.681842
Si Si4 0.448540 0.197013 0.813816
Si Si5 0.235313 0.500000 0.186923
Si Si6 0.662320 0.500000 0.184369
O O1 0.750000 0.750000 0.203581
O O2 0.665787 0.753975 0.269770
O O3 0.712118 0.907431 0.233913
O O4 0.694592 0.803905 0.000000
O O5 0.433669 0.902883 0.242985
O O6 0.500000 0.000000 0.174591
O O7 0.431279 0.000000 0.000000
O O8 0.125269 0.176108 0.500000
O O9 0.082201 0.226815 0.746012
O O10 0.139046 0.089539 0.755833
O O11 0.500000 0.208720 0.775053
O O12 0.445423 0.196571 0.000000
O O13 0.286421 0.500000 0.235795
O O14 0.235716 0.500000 0.000000
O O15 0.662279 0.500000 0.000000
#
# Coordination Sequence:
#
# PCOD9487667 Si02
#       6
#    16   8  16  16   8   8
#     4  10  19  36  60  84 111 148 197 244 282 329
#     4   7  12  27  55  86 110 137 183 239 284 321
#     4  12  25  38  55  86 123 155 187 232 298 358
#     4   9  18  36  62  88 114 151 199 246 287 334
#     4   9  18  34  60  88 110 143 196 251 288 323
#     4  11  21  41  65  83 105 147 203 246 285 340
#
# _framework density 18.322775
#
# number of rings (size 3 to 8) (size 9 to 14) (size 15 to 20)
#    0.000    2.111    2.222    3.667    0.000    1.778 
#    0.000    6.111    0.000    5.333    0.000    0.000 
#    0.000    0.000    0.000    0.000    0.000    0.000 
#
# Total GULP energy -200935.335969 kJ/mol
# GULP energy per Si atom -5581.537110 kJ/mol
# Density = 1.828107 g / cm^3
# Si number density = 18.322775 Si / 1000 Ang^3
#
#
#
# Elastic Constant Matrix: (Units=GPa)
#
#
# Indices 1 2 3 4 5 6 
#
# 1 82.6766 72.8011 43.6649 0.0000 0.0000 0.0000
# 2 72.8011 191.8753 45.4676 0.0000 0.0000 0.0000
# 3 43.6649 45.4676 51.0892 0.0000 0.0000 0.0000
# 4 0.0000 0.0000 0.0000 3.3722 0.0000 0.0000
# 5 0.0000 0.0000 0.0000 0.0000 444.8353 0.0000
# 6 0.0000 0.0000 0.0000 0.0000 0.0000 24.1684
#
#
#
# Elastic Compliance Matrix: (Units=1/GPa)
#
#
# Indices 1 2 3 4 5 6 
#
# 1 0.026491 -0.005938 -0.017356 0.000000 0.000000 0.000000
# 2 -0.005938 0.007936 -0.001987 0.000000 0.000000 0.000000
# 3 -0.017356 -0.001987 0.036176 0.000000 0.000000 0.000000
# 4 0.000000 0.000000 0.000000 0.296540 0.000000 0.000000
# 5 0.000000 0.000000 0.000000 0.000000 0.002248 0.000000
# 6 0.000000 0.000000 0.000000 0.000000 0.000000 0.041376
#
#
# Mechanical properties :
#
#
# Convention : Reuss Voigt Hill
#
# Bulk Modulus (GPa) = 49.90215 72.16758 61.03487
# Shear Modulus (GPa) = 10.68352 105.38901 58.03626
#
# Velocity S-wave (km/s) = 2.41731 7.59229 5.63411
# Velocity P-wave (km/s) = 5.92329 10.78562 8.70100
#
# Compressibility (1/GPa) = 0.02003922
#
# Stress axis : x y z
#
# Youngs Moduli (GPa) = 37.74882 126.01269 27.64248
#
# Poissons Ratio (x) = 0.74830 0.47977
# Poissons Ratio (y) = 0.22416 0.05493
# Poissons Ratio (z) = 0.65518 0.25041
#
# Static dielectric constant tensor:
#      x y z
#    x 1.616120 0.000000 0.000000 
#    y 0.000000 1.635570 0.000000 
#    z 0.000000 0.000000 1.612340 
# 
# From -- ./inp_files/15806.got.cif
#   From: 2010.05.17/outbox.cif.g08.bks.cpg/sg65_8_cif.got.tgz:15806.got - 2010.06.03 17:01:31.
