data_PCOD9487478
_publ_section_title
;
Structure prediction by ZEFSAII (Michael W. Deem and Ramdas Pophale) SiO2 
 PCOD9487478
Probable space group: C M M M
;
_chemical_formula_sum "Si O2"
_cell_formula_units_Z 72
_cell_length_a 32.214893
_cell_length_b 14.588993
_cell_length_c 9.024798
_cell_angle_alpha 90.000000
_cell_angle_beta 90.000000
_cell_angle_gamma 90.000000
_cell_volume 4241.500271
_symmetry_space_group_name_H-M "C M M M"
_symmetry_group_IT_number 65
_symmetry_cell_setting 'orthorhombic'
loop_
_space_group_symop_operation_xyz
x,y,z
-x,-y,z
x,-y,-z
-x,y,-z
-x,-y,-z
x,y,-z
-x,y,z
x,-y,z
1/2+x,1/2+y,z
1/2-x,1/2-y,z
1/2+x,1/2-y,-z
1/2-x,1/2+y,-z
1/2-x,1/2-y,-z
1/2+x,1/2+y,-z
1/2-x,1/2+y,z
1/2+x,1/2-y,z
loop_
_atom_site_type_symbol
_atom_site_label
_atom_site_fract_x
_atom_site_fract_y
_atom_site_fract_z
Si Si1 0.548790 0.500000 0.665146
Si Si2 0.452560 0.692677 0.822888
Si Si3 0.241892 0.500000 0.176078
Si Si4 0.288559 0.817704 0.676137
Si Si5 0.333034 0.500000 0.321776
Si Si6 0.370173 0.300317 0.322848
O O1 0.500000 0.500000 0.639817
O O2 0.569038 0.500000 0.500000
O O3 0.554937 0.409439 0.760013
O O4 0.500000 0.720276 0.778497
O O5 0.411669 0.738740 0.754413
O O6 0.451157 0.694321 0.000000
O O7 0.218413 0.409866 0.233503
O O8 0.288011 0.500000 0.246784
O O9 0.245191 0.500000 0.000000
O O10 0.288120 0.838597 0.500000
O O11 0.250000 0.750000 0.705123
O O12 0.330754 0.763565 0.710242
O O13 0.327066 0.500000 0.500000
O O14 0.356882 0.405412 0.282220
O O15 0.377050 0.300868 0.500000
#
# Coordination Sequence:
#
# PCOD9487478 Si02
#       6
#     8  16   8  16   8  16
#     4   9  16  27  44  64  90 129 177 220 251 294
#     4  10  20  32  46  68 102 139 171 212 268 320
#     4  12  24  35  53  81 112 144 175 215 266 317
#     4  10  20  38  60  79 104 140 180 221 263 312
#     4  10  19  35  53  74 105 141 184 221 262 315
#     4  10  20  33  55  80 102 138 183 225 262 305
#
# _framework density 16.975125999999999
#
# number of rings (size 3 to 8) (size 9 to 14) (size 15 to 20)
#    0.000    1.889    2.222    2.667    0.000    5.778 
#    0.000    0.000    0.000    0.000    0.000    0.778 
#    0.000    6.222    0.000    0.000    0.000    0.000 
#
# Total GULP energy -200658.659262 kJ/mol
# GULP energy per Si atom -5573.851646 kJ/mol
# Density = 1.693649 g / cm^3
# Si number density = 16.975126 Si / 1000 Ang^3
#
#
#
# Elastic Constant Matrix: (Units=GPa)
#
#
# Indices 1 2 3 4 5 6 
#
# 1 173.4169 50.1989 63.6490 0.0000 0.0000 0.0000
# 2 50.1989 67.9438 41.3371 0.0000 0.0000 0.0000
# 3 63.6490 41.3371 52.3777 0.0000 0.0000 0.0000
# 4 0.0000 0.0000 0.0000 6.7788 0.0000 0.0000
# 5 0.0000 0.0000 0.0000 0.0000 27.1982 0.0000
# 6 0.0000 0.0000 0.0000 0.0000 0.0000 19.8828
#
#
#
# Elastic Compliance Matrix: (Units=1/GPa)
#
#
# Indices 1 2 3 4 5 6 
#
# 1 0.010409 0.000010 -0.012657 0.000000 0.000000 0.000000
# 2 0.000010 0.028312 -0.022357 0.000000 0.000000 0.000000
# 3 -0.012657 -0.022357 0.052116 0.000000 0.000000 0.000000
# 4 0.000000 0.000000 0.000000 0.147518 0.000000 0.000000
# 5 0.000000 0.000000 0.000000 0.000000 0.036767 0.000000
# 6 0.000000 0.000000 0.000000 0.000000 0.000000 0.050295
#
#
# Mechanical properties :
#
#
# Convention : Reuss Voigt Hill
#
# Bulk Modulus (GPa) = 48.00495 67.12314 57.56405
# Shear Modulus (GPa) = 12.42642 20.00885 16.21764
#
# Velocity S-wave (km/s) = 2.70855 3.43697 3.09427
# Velocity P-wave (km/s) = 6.17435 7.44166 6.83743
#
# Compressibility (1/GPa) = 0.02083119
#
# Stress axis : x y z
#
# Youngs Moduli (GPa) = 96.07121 35.32010 19.18781
#
# Poissons Ratio (x) = -0.00035 0.24285
# Poissons Ratio (y) = -0.00095 0.42897
# Poissons Ratio (z) = 1.21594 0.78964
#
# Static dielectric constant tensor:
#      x y z
#    x 1.639060 0.000000 0.000000 
#    y 0.000000 1.513930 0.000000 
#    z 0.000000 0.000000 1.567320 
# 
# From -- ./inp_files/18083.got.cif
#   From: 2010.05.17/outbox.cif.g08.bks.cpg/sg65_10_cif.got.tgz:18083.got - 2010.06.03 17:01:31.
