data_PCOD9487755
_publ_section_title
;
Structure prediction by ZEFSAII (Michael W. Deem and Ramdas Pophale) SiO2 
 PCOD9487755
Probable space group: C M M M
;
_chemical_formula_sum "Si O2"
_cell_formula_units_Z 104
_cell_length_a 19.602095
_cell_length_b 15.636998
_cell_length_c 19.066886
_cell_angle_alpha 90.000000
_cell_angle_beta 90.000000
_cell_angle_gamma 90.000000
_cell_volume 5844.342244
_symmetry_space_group_name_H-M "C M M M"
_symmetry_group_IT_number 65
_symmetry_cell_setting 'orthorhombic'
loop_
_space_group_symop_operation_xyz
x,y,z
-x,-y,z
x,-y,-z
-x,y,-z
-x,-y,-z
x,y,-z
-x,y,z
x,-y,z
1/2+x,1/2+y,z
1/2-x,1/2-y,z
1/2+x,1/2-y,-z
1/2-x,1/2+y,-z
1/2-x,1/2-y,-z
1/2+x,1/2+y,-z
1/2-x,1/2+y,z
1/2+x,1/2-y,z
loop_
_atom_site_type_symbol
_atom_site_label
_atom_site_fract_x
_atom_site_fract_y
_atom_site_fract_z
Si Si1 0.417459 0.897899 0.157023
Si Si2 0.921710 0.096786 0.781775
Si Si3 0.172323 0.250278 0.782293
Si Si4 0.826527 0.247989 0.614872
Si Si5 0.076219 0.403362 0.584371
Si Si6 0.577455 0.103316 0.000000
Si Si7 0.577934 0.403262 0.389205
O O1 0.500000 0.883574 0.164236
O O2 0.371431 0.836141 0.204195
O O3 0.406993 0.000000 0.168705
O O4 0.395058 0.875300 0.076799
O O5 0.871404 0.169478 0.808963
O O6 0.921474 0.097979 0.696283
O O7 0.000000 0.113605 0.802899
O O8 0.903033 0.000000 0.802606
O O9 0.250000 0.250000 0.809896
O O10 0.177619 0.237323 0.698711
O O11 0.750000 0.250000 0.586648
O O12 0.867356 0.335133 0.603283
O O13 0.870584 0.169081 0.586164
O O14 0.073403 0.406546 0.500000
O O15 0.090155 0.500000 0.609684
O O16 0.000000 0.378376 0.609699
O O17 0.500000 0.136065 0.000000
O O18 0.574229 0.000000 0.000000
O O19 0.500000 0.385217 0.410792
O O20 0.595528 0.500000 0.410667
#
# Coordination Sequence:
#
# PCOD9487755 Si02
#       7
#    16  16  16  16  16   8  16
#     4   9  17  30  49  71  94 122 158 200 242 282
#     4   8  14  26  43  59  78 112 155 189 215 253
#     4  10  20  30  41  67 102 127 149 183 232 284
#     4  10  20  31  46  69  97 126 152 185 231 280
#     4   9  19  36  55  72  91 120 159 198 235 280
#     4   7  12  26  47  68  89 117 157 201 240 277
#     4   8  14  26  44  63  83 111 148 186 221 260
#
# _framework density 17.794988
#
# number of rings (size 3 to 8) (size 9 to 14) (size 15 to 20)
#    0.000    3.154    0.000    3.231    0.000    4.000 
#    0.000    5.000    0.000    0.462    0.000    2.692 
#    0.000    3.077    0.000    0.000    0.000    0.000 
#
# Total GULP energy -289508.588907 kJ/mol
# GULP energy per Si atom -5567.472864 kJ/mol
# Density = 1.775449 g / cm^3
# Si number density = 17.794988 Si / 1000 Ang^3
#
#
#
# Elastic Constant Matrix: (Units=GPa)
#
#
# Indices 1 2 3 4 5 6 
#
# 1 141.4894 108.6201 6.4537 0.0000 0.0000 0.0000
# 2 108.6201 123.0872 0.5977 0.0000 0.0000 0.0000
# 3 6.4537 0.5977 16.1133 0.0000 0.0000 0.0000
# 4 0.0000 0.0000 0.0000 11.3197 0.0000 0.0000
# 5 0.0000 0.0000 0.0000 0.0000 11.4007 0.0000
# 6 0.0000 0.0000 0.0000 0.0000 0.0000 -14.7233
#
#
#
# Elastic Compliance Matrix: (Units=1/GPa)
#
#
# Indices 1 2 3 4 5 6 
#
# 1 0.023012 -0.020266 -0.008465 0.000000 0.000000 0.000000
# 2 -0.020266 0.025974 0.007153 0.000000 0.000000 0.000000
# 3 -0.008465 0.007153 0.065186 0.000000 0.000000 0.000000
# 4 0.000000 0.000000 0.000000 0.088342 0.000000 0.000000
# 5 0.000000 0.000000 0.000000 0.000000 0.087714 0.000000
# 6 0.000000 0.000000 0.000000 0.000000 0.000000 -0.067919
#
#
# Mechanical properties :
#
#
# Convention : Reuss Voigt Hill
#
# Bulk Modulus (GPa) = 14.08131 56.89254 35.48692
# Shear Modulus (GPa) = 17.29298 12.60062 14.94680
#
# Velocity S-wave (km/s) = 3.12074 2.66390 2.90132
# Velocity P-wave (km/s) = 4.57335 6.44223 5.58650
#
# Compressibility (1/GPa) = 0.07101612
#
# Stress axis : x y z
#
# Youngs Moduli (GPa) = 43.45601 38.50064 15.34080
#
# Poissons Ratio (x) = 0.78025 0.12986
# Poissons Ratio (y) = 0.88068 -0.10974
# Poissons Ratio (z) = 0.36785 -0.27541
#
# Static dielectric constant tensor:
#      x y z
#    x 1.574440 0.000000 0.000000 
#    y 0.000000 1.604780 0.000000 
#    z 0.000000 0.000000 1.639100 
# 
# From -- ./inp_files/70557.got.cif
#   From: 2010.05.17/outbox.cif.g08.bks.cpg/sg65_36_cif.got.tgz:70557.got - 2010.06.03 17:01:31.
