data_PCOD9487674
_publ_section_title
;
Structure prediction by ZEFSAII (Michael W. Deem and Ramdas Pophale) SiO2 
 PCOD9487674
Probable space group: C M M M
;
_chemical_formula_sum "Si O2"
_cell_formula_units_Z 96
_cell_length_a 23.026795
_cell_length_b 7.486988
_cell_length_c 23.780455
_cell_angle_alpha 90.000000
_cell_angle_beta 90.000000
_cell_angle_gamma 90.000000
_cell_volume 4099.782257
_symmetry_space_group_name_H-M "C M M M"
_symmetry_group_IT_number 65
_symmetry_cell_setting 'orthorhombic'
loop_
_space_group_symop_operation_xyz
x,y,z
-x,-y,z
x,-y,-z
-x,y,-z
-x,-y,-z
x,y,-z
-x,y,z
x,-y,z
1/2+x,1/2+y,z
1/2-x,1/2-y,z
1/2+x,1/2-y,-z
1/2-x,1/2+y,-z
1/2-x,1/2-y,-z
1/2+x,1/2+y,-z
1/2-x,1/2+y,z
1/2+x,1/2-y,z
loop_
_atom_site_type_symbol
_atom_site_label
_atom_site_fract_x
_atom_site_fract_y
_atom_site_fract_z
Si Si1 0.399777 0.295074 0.149678
Si Si2 0.682037 0.714313 0.060741
Si Si3 0.000000 0.284290 0.935399
Si Si4 0.684036 0.296951 0.674612
Si Si5 0.564583 0.281164 0.272276
Si Si6 0.373047 0.783550 0.564421
Si Si7 0.500000 0.208144 0.431446
O O1 0.385254 0.500000 0.163904
O O2 0.344915 0.210986 0.118173
O O3 0.445793 0.286898 0.099471
O O4 0.427114 0.224850 0.207014
O O5 0.672932 0.500000 0.061004
O O6 0.750000 0.750000 0.060612
O O7 0.658470 0.781371 0.000000
O O8 0.000000 0.500000 0.933186
O O9 0.000000 0.228274 0.000000
O O10 0.678994 0.500000 0.691927
O O11 0.750000 0.250000 0.690566
O O12 0.624135 0.212799 0.698684
O O13 0.675515 0.276462 0.607728
O O14 0.500000 0.222062 0.292186
O O15 0.562633 0.500000 0.275817
O O16 0.363809 0.727015 0.500000
O O17 0.437072 0.715939 0.584392
O O18 0.375219 0.000000 0.564463
O O19 0.500000 0.212903 0.500000
O O20 0.500000 0.000000 0.415339
#
# Coordination Sequence:
#
# PCOD9487674 Si02
#       7
#    16  16   8  16  16  16   8
#     4  10  19  36  61  82 104 143 194 238 280 341
#     4   9  18  31  49  77 109 142 182 224 272 333
#     4  11  23  35  50  81 122 152 178 227 292 343
#     4  11  24  40  60  86 121 159 199 246 299 357
#     4   9  19  38  63  87 111 146 194 248 299 346
#     4   9  18  35  60  89 122 158 197 241 293 354
#     4   7  12  26  50  81 114 146 179 221 276 337
#
# _framework density 23.415876000000001
#
# number of rings (size 3 to 8) (size 9 to 14) (size 15 to 20)
#    0.000    2.500    0.833    2.250    1.167    3.333 
#    0.000    3.333    0.000    1.500    0.000    0.000 
#    0.000    0.000    0.000    0.000    0.000    0.000 
#
# Total GULP energy -267645.011793 kJ/mol
# GULP energy per Si atom -5575.937746 kJ/mol
# Density = 2.336258 g / cm^3
# Si number density = 23.415876 Si / 1000 Ang^3
#
#
#
# Elastic Constant Matrix: (Units=GPa)
#
#
# Indices 1 2 3 4 5 6 
#
# 1 160.8372 9.1028 62.6179 0.0000 0.0000 0.0000
# 2 9.1028 69.7986 -6.0687 0.0000 0.0000 0.0000
# 3 62.6179 -6.0687 87.3318 0.0000 0.0000 0.0000
# 4 0.0000 0.0000 0.0000 21.8282 0.0000 0.0000
# 5 0.0000 0.0000 0.0000 0.0000 30.9340 0.0000
# 6 0.0000 0.0000 0.0000 0.0000 0.0000 221.3053
#
#
#
# Elastic Compliance Matrix: (Units=1/GPa)
#
#
# Indices 1 2 3 4 5 6 
#
# 1 0.008824 -0.001711 -0.006446 0.000000 0.000000 0.000000
# 2 -0.001711 0.014746 0.002252 0.000000 0.000000 0.000000
# 3 -0.006446 0.002252 0.016229 0.000000 0.000000 0.000000
# 4 0.000000 0.000000 0.000000 0.045812 0.000000 0.000000
# 5 0.000000 0.000000 0.000000 0.000000 0.032327 0.000000
# 6 0.000000 0.000000 0.000000 0.000000 0.000000 0.004519
#
#
# Mechanical properties :
#
#
# Convention : Reuss Voigt Hill
#
# Bulk Modulus (GPa) = 35.72976 49.91908 42.82442
# Shear Modulus (GPa) = 34.81994 71.63452 53.22723
#
# Velocity S-wave (km/s) = 3.86038 5.53703 4.77290
# Velocity P-wave (km/s) = 5.92975 7.88942 6.97872
#
# Compressibility (1/GPa) = 0.02798787
#
# Stress axis : x y z
#
# Youngs Moduli (GPa) = 113.33036 67.81565 61.61939
#
# Poissons Ratio (x) = 0.11604 0.39718
# Poissons Ratio (y) = 0.19393 -0.13874
# Poissons Ratio (z) = 0.73049 -0.15270
#
# Static dielectric constant tensor:
#      x y z
#    x 1.974350 0.000000 0.000000 
#    y 0.000000 1.890400 0.000000 
#    z 0.000000 0.000000 1.914620 
# 
# From -- ./inp_files/71433.got.cif
#   From: 2010.05.17/outbox.cif.g08.bks.cpg/sg65_36_cif.got.tgz:71433.got - 2010.06.03 17:01:31.
