data_PCOD9487771
_publ_section_title
;
Structure prediction by ZEFSAII (Michael W. Deem and Ramdas Pophale) SiO2 
 PCOD9487771
Probable space group: C M M M
;
_chemical_formula_sum "Si O2"
_cell_formula_units_Z 116
_cell_length_a 7.786176
_cell_length_b 29.806288
_cell_length_c 28.530908
_cell_angle_alpha 90.000000
_cell_angle_beta 90.000000
_cell_angle_gamma 90.000000
_cell_volume 6621.367658
_symmetry_space_group_name_H-M "C M M M"
_symmetry_group_IT_number 65
_symmetry_cell_setting 'orthorhombic'
loop_
_space_group_symop_operation_xyz
x,y,z
-x,-y,z
x,-y,-z
-x,y,-z
-x,-y,-z
x,y,-z
-x,y,z
x,-y,z
1/2+x,1/2+y,z
1/2-x,1/2-y,z
1/2+x,1/2-y,-z
1/2-x,1/2+y,-z
1/2-x,1/2-y,-z
1/2+x,1/2+y,-z
1/2-x,1/2+y,z
1/2+x,1/2-y,z
loop_
_atom_site_type_symbol
_atom_site_label
_atom_site_fract_x
_atom_site_fract_y
_atom_site_fract_z
Si Si1 0.000000 0.167479 0.500000
Si Si2 0.704530 0.951068 0.195297
Si Si3 0.702870 0.801284 0.319604
Si Si4 0.704012 0.354045 0.949037
Si Si5 0.800104 0.858103 0.768541
Si Si6 0.707506 0.302376 0.142804
Si Si7 0.792039 0.550473 0.912079
Si Si8 0.291969 0.802489 0.428920
O O1 0.844855 0.170453 0.459673
O O2 0.500000 0.954322 0.191100
O O3 0.737751 0.908921 0.227899
O O4 0.767247 0.942862 0.141999
O O5 0.769886 0.000000 0.210932
O O6 0.500000 0.805290 0.316576
O O7 0.750000 0.750000 0.308173
O O8 0.776497 0.834634 0.281210
O O9 0.748201 0.809631 0.373866
O O10 0.500000 0.345637 0.950032
O O11 0.773388 0.327101 0.904137
O O12 0.729507 0.407127 0.941059
O O13 0.775777 0.341162 0.000000
O O14 0.724431 0.827873 0.810805
O O15 0.000000 0.860739 0.778270
O O16 0.500000 0.305626 0.142681
O O17 0.750000 0.250000 0.143657
O O18 0.739326 0.500000 0.926712
O O19 0.000000 0.551295 0.913102
O O20 0.500000 0.809409 0.436729
O O21 0.250000 0.750000 0.439405
#
# Coordination Sequence:
#
# PCOD9487771 Si02
#       8
#     4  16  16  16  16  16  16  16
#     4  12  20  28  50  66 100 142 183 238 265 314
#     4   9  18  33  53  77 102 128 160 200 248 305
#     4  10  21  35  49  70 104 140 180 227 264 305
#     4  10  21  37  53  70  97 126 157 200 253 305
#     4  11  21  33  54  76 100 133 169 207 257 311
#     4  10  22  37  51  73  94 121 165 208 249 301
#     4   9  18  33  53  76 101 126 155 194 240 298
#     4  10  20  30  44  69  97 135 186 231 270 315
#
# _framework density 17.51904
#
# number of rings (size 3 to 8) (size 9 to 14) (size 15 to 20)
#    0.000    2.069    2.069    2.483    1.931    4.138 
#    0.000    2.759    0.000    0.000    0.000    0.000 
#    0.000    0.000    0.000    1.241    0.000   10.483 
#
# Total GULP energy -322898.897058 kJ/mol
# GULP energy per Si atom -5567.222363 kJ/mol
# Density = 1.747917 g / cm^3
# Si number density = 17.519040 Si / 1000 Ang^3
#
#
#
# Elastic Constant Matrix: (Units=GPa)
#
#
# Indices 1 2 3 4 5 6 
#
# 1 49.3327 9.4984 24.2624 0.0000 0.0000 0.0000
# 2 9.4984 86.4431 46.9995 0.0000 0.0000 0.0000
# 3 24.2624 46.9995 70.7467 0.0000 0.0000 0.0000
# 4 0.0000 0.0000 0.0000 9.6123 0.0000 0.0000
# 5 0.0000 0.0000 0.0000 0.0000 10.3458 0.0000
# 6 0.0000 0.0000 0.0000 0.0000 0.0000 20.9070
#
#
#
# Elastic Compliance Matrix: (Units=1/GPa)
#
#
# Indices 1 2 3 4 5 6 
#
# 1 0.024864 0.002981 -0.010507 0.000000 0.000000 0.000000
# 2 0.002981 0.018467 -0.013290 0.000000 0.000000 0.000000
# 3 -0.010507 -0.013290 0.026568 0.000000 0.000000 0.000000
# 4 0.000000 0.000000 0.000000 0.104034 0.000000 0.000000
# 5 0.000000 0.000000 0.000000 0.000000 0.096657 0.000000
# 6 0.000000 0.000000 0.000000 0.000000 0.000000 0.047831
#
#
# Mechanical properties :
#
#
# Convention : Reuss Voigt Hill
#
# Bulk Modulus (GPa) = 35.37968 40.89366 38.13667
# Shear Modulus (GPa) = 13.53268 16.55719 15.04493
#
# Velocity S-wave (km/s) = 2.78232 3.07758 2.93367
# Velocity P-wave (km/s) = 5.52816 6.00181 5.76985
#
# Compressibility (1/GPa) = 0.02826481
#
# Stress axis : x y z
#
# Youngs Moduli (GPa) = 40.21841 54.15126 37.63977
#
# Poissons Ratio (x) = -0.16141 0.39549
# Poissons Ratio (y) = -0.11988 0.50025
# Poissons Ratio (z) = 0.42259 0.71969
#
# Static dielectric constant tensor:
#      x y z
#    x 1.646510 0.000000 0.000000 
#    y 0.000000 1.590290 0.000000 
#    z 0.000000 0.000000 1.641740 
# 
# From -- ./inp_files/73996.got.cif
#   From: 2010.05.17/outbox.cif.g08.bks.cpg/sg65_37_cif.got.tgz:73996.got - 2010.06.03 17:01:31.
