data_PCOD9487162
_publ_section_title
;
Structure prediction by ZEFSAII (Michael W. Deem and Ramdas Pophale) SiO2 
 PCOD9487162
Probable space group: C M M M
;
_chemical_formula_sum "Si O2"
_cell_formula_units_Z 88
_cell_length_a 24.754133
_cell_length_b 13.064768
_cell_length_c 14.189606
_cell_angle_alpha 90.000000
_cell_angle_beta 90.000000
_cell_angle_gamma 90.000000
_cell_volume 4589.017974
_symmetry_space_group_name_H-M "C M M M"
_symmetry_group_IT_number 65
_symmetry_cell_setting 'orthorhombic'
loop_
_space_group_symop_operation_xyz
x,y,z
-x,-y,z
x,-y,-z
-x,y,-z
-x,-y,-z
x,y,-z
-x,y,z
x,-y,z
1/2+x,1/2+y,z
1/2-x,1/2-y,z
1/2+x,1/2-y,-z
1/2-x,1/2+y,-z
1/2-x,1/2-y,-z
1/2+x,1/2+y,-z
1/2-x,1/2+y,z
1/2+x,1/2-y,z
loop_
_atom_site_type_symbol
_atom_site_label
_atom_site_fract_x
_atom_site_fract_y
_atom_site_fract_z
Si Si1 0.275009 0.614438 0.889420
Si Si2 0.686853 0.227223 0.397418
Si Si3 0.830664 0.688971 0.807146
Si Si4 0.438627 0.714073 0.799522
Si Si5 0.591982 0.378805 0.607412
Si Si6 0.065584 0.000000 0.105485
O O1 0.294307 0.500000 0.870473
O O2 0.210855 0.621295 0.866666
O O3 0.305000 0.697872 0.825854
O O4 0.283276 0.638347 0.000000
O O5 0.673318 0.180945 0.500000
O O6 0.750000 0.250000 0.395421
O O7 0.673722 0.164406 0.303640
O O8 0.652519 0.332501 0.391286
O O9 0.893996 0.702131 0.827703
O O10 0.500000 0.737924 0.827625
O O11 0.436878 0.687546 0.687937
O O12 0.420623 0.606209 0.845336
O O13 0.571593 0.365319 0.500000
O O14 0.589504 0.500000 0.628612
O O15 0.000000 0.000000 0.103108
O O16 0.087231 0.000000 0.000000
#
# Coordination Sequence:
#
# PCOD9487162 Si02
#       6
#    16  16  16  16  16   8
#     4  10  21  36  54  76  99 126 163 208 254 297
#     4   9  16  28  44  65  96 130 161 198 240 283
#     4  10  19  34  53  74 101 132 165 203 245 296
#     4  10  20  32  47  69  97 131 167 200 239 291
#     4   9  17  28  44  66  94 129 166 202 241 290
#     4   9  18  30  41  61  93 125 158 196 236 280
#
# _framework density 19.176214999999999
#
# number of rings (size 3 to 8) (size 9 to 14) (size 15 to 20)
#    0.000    2.455    2.727    1.091    1.273    2.545 
#    0.000    0.909    0.000    1.091    0.000    1.273 
#    0.000    0.000    0.000    9.091    0.000    0.000 
#
# Total GULP energy -245089.635977 kJ/mol
# GULP energy per Si atom -5570.218999 kJ/mol
# Density = 1.913257 g / cm^3
# Si number density = 19.176215 Si / 1000 Ang^3
#
#
#
# Elastic Constant Matrix: (Units=GPa)
#
#
# Indices 1 2 3 4 5 6 
#
# 1 100.1978 1.7930 -1.2015 0.0000 0.0000 0.0000
# 2 1.7930 21.3066 0.5560 0.0000 0.0000 0.0000
# 3 -1.2015 0.5560 81.1234 0.0000 0.0000 0.0000
# 4 0.0000 0.0000 0.0000 14.4744 0.0000 0.0000
# 5 0.0000 0.0000 0.0000 0.0000 0.5855 0.0000
# 6 0.0000 0.0000 0.0000 0.0000 0.0000 16.0174
#
#
#
# Elastic Compliance Matrix: (Units=1/GPa)
#
#
# Indices 1 2 3 4 5 6 
#
# 1 0.009997 -0.000845 0.000154 0.000000 0.000000 0.000000
# 2 -0.000845 0.047014 -0.000335 0.000000 0.000000 0.000000
# 3 0.000154 -0.000335 0.012331 0.000000 0.000000 0.000000
# 4 0.000000 0.000000 0.000000 0.069087 0.000000 0.000000
# 5 0.000000 0.000000 0.000000 0.000000 1.707855 0.000000
# 6 0.000000 0.000000 0.000000 0.000000 0.000000 0.062432
#
#
# Mechanical properties :
#
#
# Convention : Reuss Voigt Hill
#
# Bulk Modulus (GPa) = 14.86104 22.76920 18.81512
# Shear Modulus (GPa) = 2.58639 19.64750 11.11694
#
# Velocity S-wave (km/s) = 1.16262 3.20437 2.41036
# Velocity P-wave (km/s) = 3.09335 5.05867 4.19279
#
# Compressibility (1/GPa) = 0.06729003
#
# Stress axis : x y z
#
# Youngs Moduli (GPa) = 100.02774 21.27040 81.09330
#
# Poissons Ratio (x) = 0.01798 -0.01248
# Poissons Ratio (y) = 0.08455 0.02715
# Poissons Ratio (z) = -0.01539 0.00712
#
# Static dielectric constant tensor:
#      x y z
#    x 1.715950 0.000000 0.000000 
#    y 0.000000 1.643680 0.000000 
#    z 0.000000 0.000000 1.718070 
# 
# From -- ./inp_files/46899.got.cif
#   From: 2010.05.17/outbox.cif.g08.bks.cpg/sg65_24_cif.got.tgz:46899.got - 2010.06.03 17:01:31.
