data_PCOD9487724
_publ_section_title
;
Structure prediction by ZEFSAII (Michael W. Deem and Ramdas Pophale) SiO2 
 PCOD9487724
Probable space group: C M M M
;
_chemical_formula_sum "Si O2"
_cell_formula_units_Z 116
_cell_length_a 18.750009
_cell_length_b 17.797408
_cell_length_c 16.230541
_cell_angle_alpha 90.000000
_cell_angle_beta 90.000000
_cell_angle_gamma 90.000000
_cell_volume 5416.156854
_symmetry_space_group_name_H-M "C M M M"
_symmetry_group_IT_number 65
_symmetry_cell_setting 'orthorhombic'
loop_
_space_group_symop_operation_xyz
x,y,z
-x,-y,z
x,-y,-z
-x,y,-z
-x,-y,-z
x,y,-z
-x,y,z
x,-y,z
1/2+x,1/2+y,z
1/2-x,1/2-y,z
1/2+x,1/2-y,-z
1/2-x,1/2+y,-z
1/2-x,1/2-y,-z
1/2+x,1/2+y,-z
1/2-x,1/2+y,z
1/2+x,1/2-y,z
loop_
_atom_site_type_symbol
_atom_site_label
_atom_site_fract_x
_atom_site_fract_y
_atom_site_fract_z
Si Si1 0.417982 0.192852 0.824182
Si Si2 0.798837 0.585695 0.824164
Si Si3 0.704735 0.912745 0.624944
Si Si4 0.167952 0.169762 0.903106
Si Si5 0.862439 0.865372 0.384227
Si Si6 0.593757 0.500000 0.500000
Si Si7 0.418308 0.798436 0.624709
Si Si8 0.579848 0.411728 0.214246
O O1 0.500000 0.196594 0.851875
O O2 0.378179 0.114790 0.843515
O O3 0.368595 0.256890 0.863887
O O4 0.417232 0.202442 0.725006
O O5 0.785430 0.500000 0.851025
O O6 0.792282 0.587624 0.724864
O O7 0.742310 0.642982 0.863640
O O8 0.779254 0.877179 0.595959
O O9 0.637176 0.863113 0.599489
O O10 0.701313 0.000000 0.599040
O O11 0.112841 0.105644 0.874015
O O12 0.175410 0.178048 0.000000
O O13 0.891446 0.783107 0.404264
O O14 0.873300 0.876256 0.286488
O O15 0.903327 0.933210 0.429208
O O16 0.500000 0.811756 0.599627
O O17 0.500000 0.380602 0.221177
O O18 0.578708 0.500000 0.227832
#
# Coordination Sequence:
#
# PCOD9487724 Si02
#       8
#    16  16  16  16  16   4  16  16
#     4  10  21  38  61  91 128 169 216 267 324 384
#     4  10  21  37  61  93 124 168 215 266 323 379
#     4  10  19  37  68  95 129 172 218 266 318 385
#     4  12  24  38  60  89 122 164 220 274 317 374
#     4  12  21  42  65  97 131 168 211 262 318 383
#     4  12  28  40  71 108 137 164 218 272 318 380
#     4  10  21  38  64  97 132 174 218 264 322 389
#     4  11  22  38  61  86 123 171 208 253 319 384
#
# _framework density 21.417400000000001
#
# number of rings (size 3 to 8) (size 9 to 14) (size 15 to 20)
#    0.000    1.241    4.138    2.069    0.000    6.069 
#    0.000    7.586    0.000    0.000    0.000    2.414 
#    0.000    0.000    0.000    0.000    0.000    0.000 
#
# Total GULP energy -323709.587377 kJ/mol
# GULP energy per Si atom -5581.199782 kJ/mol
# Density = 2.136865 g / cm^3
# Si number density = 21.417400 Si / 1000 Ang^3
#
#
#
# Elastic Constant Matrix: (Units=GPa)
#
#
# Indices 1 2 3 4 5 6 
#
# 1 169.2535 87.3419 24.3388 0.0000 0.0000 0.0000
# 2 87.3419 71.4863 14.2687 0.0000 0.0000 0.0000
# 3 24.3388 14.2687 89.3704 0.0000 0.0000 0.0000
# 4 0.0000 0.0000 0.0000 12.5725 0.0000 0.0000
# 5 0.0000 0.0000 0.0000 0.0000 12.5905 0.0000
# 6 0.0000 0.0000 0.0000 0.0000 0.0000 24.5408
#
#
#
# Elastic Compliance Matrix: (Units=1/GPa)
#
#
# Indices 1 2 3 4 5 6 
#
# 1 0.016132 -0.019453 -0.001288 0.000000 0.000000 0.000000
# 2 -0.019453 0.037907 -0.000754 0.000000 0.000000 0.000000
# 3 -0.001288 -0.000754 0.011660 0.000000 0.000000 0.000000
# 4 0.000000 0.000000 0.000000 0.079539 0.000000 0.000000
# 5 0.000000 0.000000 0.000000 0.000000 0.079425 0.000000
# 6 0.000000 0.000000 0.000000 0.000000 0.000000 0.040749
#
#
# Mechanical properties :
#
#
# Convention : Reuss Voigt Hill
#
# Bulk Modulus (GPa) = 44.03420 64.66768 54.35094
# Shear Modulus (GPa) = 15.82415 23.55145 19.68780
#
# Velocity S-wave (km/s) = 2.72112 3.31968 3.03519
# Velocity P-wave (km/s) = 5.52063 6.70472 6.14128
#
# Compressibility (1/GPa) = 0.02270962
#
# Stress axis : x y z
#
# Youngs Moduli (GPa) = 61.98799 26.38015 85.75993
#
# Poissons Ratio (x) = 0.51318 0.11042
# Poissons Ratio (y) = 1.20587 0.06469
# Poissons Ratio (z) = 0.07981 0.01990
#
# Static dielectric constant tensor:
#      x y z
#    x 1.788620 0.000000 0.000000 
#    y 0.000000 1.761260 0.000000 
#    z 0.000000 0.000000 1.778840 
# 
# From -- ./inp_files/54678.got.cif
#   From: 2010.05.17/outbox.cif.g08.bks.cpg/sg65_28_cif.got.tgz:54678.got - 2010.06.03 17:01:31.
