data_PCOD9487372
_publ_section_title
;
Structure prediction by ZEFSAII (Michael W. Deem and Ramdas Pophale) SiO2 
 PCOD9487372
Probable space group: C M M M
;
_chemical_formula_sum "Si O2"
_cell_formula_units_Z 64
_cell_length_a 8.549904
_cell_length_b 18.466826
_cell_length_c 21.458545
_cell_angle_alpha 90.000000
_cell_angle_beta 90.000000
_cell_angle_gamma 90.000000
_cell_volume 3388.080861
_symmetry_space_group_name_H-M "C M M M"
_symmetry_group_IT_number 65
_symmetry_cell_setting 'orthorhombic'
loop_
_space_group_symop_operation_xyz
x,y,z
-x,-y,z
x,-y,-z
-x,y,-z
-x,-y,-z
x,y,-z
-x,y,z
x,-y,z
1/2+x,1/2+y,z
1/2-x,1/2-y,z
1/2+x,1/2-y,-z
1/2-x,1/2+y,-z
1/2-x,1/2-y,-z
1/2+x,1/2+y,-z
1/2-x,1/2+y,z
1/2+x,1/2-y,z
loop_
_atom_site_type_symbol
_atom_site_label
_atom_site_fract_x
_atom_site_fract_y
_atom_site_fract_z
Si Si1 0.812232 0.331531 0.623952
Si Si2 0.688267 0.832109 0.000000
Si Si3 0.190690 0.583303 0.500000
Si Si4 0.188310 0.667466 0.863592
Si Si5 0.187519 0.083845 0.256024
O O1 0.750000 0.250000 0.622634
O O2 0.759436 0.374747 0.562208
O O3 0.753901 0.372269 0.685430
O O4 0.000000 0.330071 0.624417
O O5 0.750000 0.750000 0.000000
O O6 0.736203 0.862165 0.932403
O O7 0.500000 0.831069 0.000000
O O8 0.243231 0.500000 0.500000
O O9 0.000000 0.582665 0.500000
O O10 0.250000 0.750000 0.858095
O O11 0.254076 0.620122 0.807635
O O12 0.000000 0.668965 0.860234
O O13 0.000000 0.086994 0.257801
O O14 0.237030 0.000000 0.259428
#
# Coordination Sequence:
#
# PCOD9487372 Si02
#       5
#    16   8   8  16  16
#     4  11  22  38  61  86 114 147 185 228 273 324
#     4   8  16  30  51  80 109 139 177 223 271 322
#     4   9  19  36  59  87 116 147 184 225 270 322
#     4  10  19  34  57  83 111 143 182 226 274 328
#     4  11  24  40  56  78 110 146 186 231 278 329
#
# _framework density 18.889748999999998
#
# number of rings (size 3 to 8) (size 9 to 14) (size 15 to 20)
#    0.000    1.875    0.000    4.125    0.000    4.000 
#    0.000    2.500    0.000    8.250    0.000    0.000 
#    0.000    0.000    0.000    0.000    0.000    0.000 
#
# Total GULP energy -178690.960888 kJ/mol
# GULP energy per Si atom -5584.092528 kJ/mol
# Density = 1.884675 g / cm^3
# Si number density = 18.889749 Si / 1000 Ang^3
#
#
#
# Elastic Constant Matrix: (Units=GPa)
#
#
# Indices 1 2 3 4 5 6 
#
# 1 44.1949 38.2388 42.8795 0.0000 0.0000 0.0000
# 2 38.2388 160.6845 117.8345 0.0000 0.0000 0.0000
# 3 42.8795 117.8345 234.1690 0.0000 0.0000 0.0000
# 4 0.0000 0.0000 0.0000 24.8981 0.0000 0.0000
# 5 0.0000 0.0000 0.0000 0.0000 -18.4798 0.0000
# 6 0.0000 0.0000 0.0000 0.0000 0.0000 15.0969
#
#
#
# Elastic Compliance Matrix: (Units=1/GPa)
#
#
# Indices 1 2 3 4 5 6 
#
# 1 0.029757 -0.004890 -0.002988 0.000000 0.000000 0.000000
# 2 -0.004890 0.010667 -0.004472 0.000000 0.000000 0.000000
# 3 -0.002988 -0.004472 0.007068 0.000000 0.000000 0.000000
# 4 0.000000 0.000000 0.000000 0.040164 0.000000 0.000000
# 5 0.000000 0.000000 0.000000 0.000000 -0.054113 0.000000
# 6 0.000000 0.000000 0.000000 0.000000 0.000000 0.066239
#
#
# Mechanical properties :
#
#
# Convention : Reuss Voigt Hill
#
# Bulk Modulus (GPa) = 43.87668 92.99490 68.43579
# Shear Modulus (GPa) = 37.85609 20.30941 29.08275
#
# Velocity S-wave (km/s) = 4.48152 3.28251 3.92804
# Velocity P-wave (km/s) = 7.07509 7.98146 7.54191
#
# Compressibility (1/GPa) = 0.02279115
#
# Stress axis : x y z
#
# Youngs Moduli (GPa) = 33.60504 93.75121 141.48427
#
# Poissons Ratio (x) = 0.45846 0.42279
# Poissons Ratio (y) = 0.16433 0.63271
# Poissons Ratio (z) = 0.10042 0.41925
#
# Static dielectric constant tensor:
#      x y z
#    x 1.651830 0.000000 0.000000 
#    y 0.000000 1.616860 0.000000 
#    z 0.000000 0.000000 1.662120 
# 
# From -- ./inp_files/58796.got.cif
#   From: 2010.05.17/outbox.cif.g08.bks.cpg/sg65_30_cif.got.tgz:58796.got - 2010.06.03 17:01:31.
