data_PCOD9487238
_publ_section_title
;
Structure prediction by ZEFSAII (Michael W. Deem and Ramdas Pophale) SiO2 
 PCOD9487238
Probable space group: C M M M
;
_chemical_formula_sum "Si O2"
_cell_formula_units_Z 104
_cell_length_a 29.756693
_cell_length_b 7.759620
_cell_length_c 24.294921
_cell_angle_alpha 90.000000
_cell_angle_beta 90.000000
_cell_angle_gamma 90.000000
_cell_volume 5609.712568
_symmetry_space_group_name_H-M "C M M M"
_symmetry_group_IT_number 65
_symmetry_cell_setting 'orthorhombic'
loop_
_space_group_symop_operation_xyz
x,y,z
-x,-y,z
x,-y,-z
-x,y,-z
-x,-y,-z
x,y,-z
-x,y,z
x,-y,z
1/2+x,1/2+y,z
1/2-x,1/2-y,z
1/2+x,1/2-y,-z
1/2-x,1/2+y,-z
1/2-x,1/2-y,-z
1/2+x,1/2+y,-z
1/2-x,1/2+y,z
1/2+x,1/2-y,z
loop_
_atom_site_type_symbol
_atom_site_label
_atom_site_fract_x
_atom_site_fract_y
_atom_site_fract_z
Si Si1 0.604498 0.701494 0.440185
Si Si2 0.299812 0.794162 0.601491
Si Si3 0.799459 0.706581 0.728320
Si Si4 0.554587 0.800265 0.000000
Si Si5 0.893150 0.288515 0.773226
Si Si6 0.050516 0.704176 0.667948
Si Si7 0.552116 0.211317 0.120250
O O1 0.592361 0.776526 0.500000
O O2 0.593886 0.500000 0.440923
O O3 0.657834 0.722262 0.430993
O O4 0.578390 0.775167 0.387997
O O5 0.250000 0.750000 0.580545
O O6 0.302580 0.729521 0.664985
O O7 0.304434 0.000000 0.601785
O O8 0.802542 0.500000 0.725148
O O9 0.750000 0.750000 0.749711
O O10 0.841890 0.767786 0.763347
O O11 0.567138 0.726418 0.940419
O O12 0.500000 0.801123 0.000000
O O13 0.569456 0.000000 0.000000
O O14 0.893383 0.500000 0.773519
O O15 0.921960 0.228740 0.720455
O O16 0.916535 0.233187 0.829669
O O17 0.046683 0.500000 0.677427
O O18 0.000000 0.775518 0.663769
O O19 0.500000 0.260939 0.129604
O O20 0.552368 0.000000 0.118682
#
# Coordination Sequence:
#
# PCOD9487238 Si02
#       7
#    16  16  16   8  16  16  16
#     4  11  24  39  53  70  94 125 159 193 234 285
#     4  10  19  34  55  77  99 122 151 190 236 287
#     4   9  17  29  46  68  93 117 146 184 227 276
#     4   7  10  16  26  48  85 124 157 185 217 263
#     4   9  15  26  43  66  91 117 151 191 232 276
#     4  10  20  35  54  73  93 119 155 198 242 286
#     4   8  12  18  32  56  88 124 156 186 223 268
#
# _framework density 18.539273999999999
#
# number of rings (size 3 to 8) (size 9 to 14) (size 15 to 20)
#    0.000    2.692    1.538    2.308    0.000    4.615 
#    0.000    1.538    0.000    0.000    0.000    0.538 
#    0.000    0.000    0.000    2.077    0.000   25.000 
#
# Total GULP energy -289949.908332 kJ/mol
# GULP energy per Si atom -5575.959776 kJ/mol
# Density = 1.849708 g / cm^3
# Si number density = 18.539274 Si / 1000 Ang^3
#
#
#
# Elastic Constant Matrix: (Units=GPa)
#
#
# Indices 1 2 3 4 5 6 
#
# 1 118.5884 -2.6062 77.5733 0.0000 0.0000 0.0000
# 2 -2.6062 24.5777 0.1012 0.0000 0.0000 0.0000
# 3 77.5733 0.1012 154.0251 0.0000 0.0000 0.0000
# 4 0.0000 0.0000 0.0000 349.5066 0.0000 0.0000
# 5 0.0000 0.0000 0.0000 0.0000 25.6756 0.0000
# 6 0.0000 0.0000 0.0000 0.0000 0.0000 15.4546
#
#
#
# Elastic Compliance Matrix: (Units=1/GPa)
#
#
# Indices 1 2 3 4 5 6 
#
# 1 0.012621 0.001365 -0.006357 0.000000 0.000000 0.000000
# 2 0.001365 0.040835 -0.000714 0.000000 0.000000 0.000000
# 3 -0.006357 -0.000714 0.009695 0.000000 0.000000 0.000000
# 4 0.000000 0.000000 0.000000 0.002861 0.000000 0.000000
# 5 0.000000 0.000000 0.000000 0.000000 0.038947 0.000000
# 6 0.000000 0.000000 0.000000 0.000000 0.000000 0.064706
#
#
# Mechanical properties :
#
#
# Convention : Reuss Voigt Hill
#
# Bulk Modulus (GPa) = 19.32855 49.70309 34.51582
# Shear Modulus (GPa) = 25.21118 92.93555 59.07337
#
# Velocity S-wave (km/s) = 3.69166 7.08787 5.65094
# Velocity P-wave (km/s) = 5.34972 9.68770 7.82531
#
# Compressibility (1/GPa) = 0.05173694
#
# Stress axis : x y z
#
# Youngs Moduli (GPa) = 79.23202 24.48883 103.14836
#
# Poissons Ratio (x) = -0.03342 0.65576
# Poissons Ratio (y) = -0.10811 0.07365
# Poissons Ratio (z) = 0.50371 0.01749
#
# Static dielectric constant tensor:
#      x y z
#    x 1.632110 0.000000 0.000000 
#    y 0.000000 1.696330 0.000000 
#    z 0.000000 0.000000 1.656030 
# 
# From -- ./inp_files/72190.got.cif
#   From: 2010.05.17/outbox.cif.g08.bks.cpg/sg65_37_cif.got.tgz:72190.got - 2010.06.03 17:01:31.
