data_PCOD9487088
_publ_section_title
;
Structure prediction by ZEFSAII (Michael W. Deem and Ramdas Pophale) SiO2 
 PCOD9487088
Probable space group: C M M M
;
_chemical_formula_sum "Si O2"
_cell_formula_units_Z 80
_cell_length_a 23.809511
_cell_length_b 10.159525
_cell_length_c 18.836413
_cell_angle_alpha 90.000000
_cell_angle_beta 90.000000
_cell_angle_gamma 90.000000
_cell_volume 4556.402520
_symmetry_space_group_name_H-M "C M M M"
_symmetry_group_IT_number 65
_symmetry_cell_setting 'orthorhombic'
loop_
_space_group_symop_operation_xyz
x,y,z
-x,-y,z
x,-y,-z
-x,y,-z
-x,-y,-z
x,y,-z
-x,y,z
x,-y,z
1/2+x,1/2+y,z
1/2-x,1/2-y,z
1/2+x,1/2-y,-z
1/2-x,1/2+y,-z
1/2-x,1/2-y,-z
1/2+x,1/2+y,-z
1/2-x,1/2+y,z
1/2+x,1/2-y,z
loop_
_atom_site_type_symbol
_atom_site_label
_atom_site_fract_x
_atom_site_fract_y
_atom_site_fract_z
Si Si1 0.805884 0.661704 0.717513
Si Si2 0.500000 0.730106 0.578636
Si Si3 0.123829 0.656398 0.577306
Si Si4 0.568916 0.500000 0.083989
Si Si5 0.500000 0.349257 0.265520
Si Si6 0.932880 0.500000 0.919520
Si Si7 0.100778 0.252317 0.825878
O O1 0.798134 0.500000 0.719933
O O2 0.750000 0.750000 0.716358
O O3 0.840827 0.697263 0.645878
O O4 0.842660 0.710568 0.784502
O O5 0.500000 0.666601 0.500000
O O6 0.442256 0.811805 0.583300
O O7 0.500000 0.646532 0.649819
O O8 0.142759 0.710588 0.500000
O O9 0.129620 0.500000 0.574934
O O10 0.500000 0.500000 0.089080
O O11 0.595605 0.374831 0.123750
O O12 0.581271 0.500000 0.000000
O O13 0.500000 0.500000 0.240211
O O14 0.553773 0.274353 0.234378
O O15 0.914834 0.626500 0.875631
O O16 0.000000 0.500000 0.923315
O O17 0.910747 0.500000 0.000000
#
# Coordination Sequence:
#
# PCOD9487088 Si02
#       7
#    16   8  16   8   8   8  16
#     4  11  25  41  62  87 115 160 212 262 304 346
#     4  10  19  33  56  87 126 163 193 234 301 368
#     4   9  18  34  57  88 122 155 196 245 300 360
#     4  11  22  38  63  97 133 162 190 227 298 380
#     4  12  22  35  57  89 124 166 200 242 296 358
#     4  11  22  36  61  97 131 152 182 237 304 368
#     4  12  21  39  60  91 124 161 196 245 298 359
#
# _framework density 17.557711000000001
#
# number of rings (size 3 to 8) (size 9 to 14) (size 15 to 20)
#    0.000    1.200    6.000    0.900    1.400    3.400 
#    1.800    0.000    0.000    3.600    0.000    0.000 
#    0.000    0.000    0.000    0.000    0.000    0.000 
#
# Total GULP energy -222905.681766 kJ/mol
# GULP energy per Si atom -5572.642044 kJ/mol
# Density = 1.751775 g / cm^3
# Si number density = 17.557711 Si / 1000 Ang^3
#
#
#
# Elastic Constant Matrix: (Units=GPa)
#
#
# Indices 1 2 3 4 5 6 
#
# 1 116.3838 50.1556 67.5158 0.0000 0.0000 0.0000
# 2 50.1556 116.8303 69.2634 0.0000 0.0000 0.0000
# 3 67.5158 69.2634 179.3019 0.0000 0.0000 0.0000
# 4 0.0000 0.0000 0.0000 32.2807 0.0000 0.0000
# 5 0.0000 0.0000 0.0000 0.0000 17.6253 0.0000
# 6 0.0000 0.0000 0.0000 0.0000 0.0000 13.5197
#
#
#
# Elastic Compliance Matrix: (Units=1/GPa)
#
#
# Indices 1 2 3 4 5 6 
#
# 1 0.011831 -0.003162 -0.003233 0.000000 0.000000 0.000000
# 2 -0.003162 0.011947 -0.003424 0.000000 0.000000 0.000000
# 3 -0.003233 -0.003424 0.008118 0.000000 0.000000 0.000000
# 4 0.000000 0.000000 0.000000 0.030978 0.000000 0.000000
# 5 0.000000 0.000000 0.000000 0.000000 0.056737 0.000000
# 6 0.000000 0.000000 0.000000 0.000000 0.000000 0.073966
#
#
# Mechanical properties :
#
#
# Convention : Reuss Voigt Hill
#
# Bulk Modulus (GPa) = 81.59498 87.37618 84.48558
# Shear Modulus (GPa) = 23.00953 27.72388 25.36671
#
# Velocity S-wave (km/s) = 3.62402 3.97799 3.80513
# Velocity P-wave (km/s) = 8.00529 8.42451 8.21758
#
# Compressibility (1/GPa) = 0.01225566
#
# Stress axis : x y z
#
# Youngs Moduli (GPa) = 84.52637 83.70236 123.19007
#
# Poissons Ratio (x) = 0.26467 0.39831
# Poissons Ratio (y) = 0.26727 0.42186
# Poissons Ratio (z) = 0.27330 0.28663
#
# Static dielectric constant tensor:
#      x y z
#    x 1.583110 0.000000 0.000000 
#    y 0.000000 1.353640 0.000000 
#    z 0.000000 0.000000 1.633010 
# 
# From -- ./inp_files/65124.got.cif
#   From: 2010.05.17/outbox.cif.g08.bks.cpg/sg65_33_cif.got.tgz:65124.got - 2010.06.03 17:01:31.
