data_PCOD9487826
_publ_section_title
;
Structure prediction by ZEFSAII (Michael W. Deem and Ramdas Pophale) SiO2 
 PCOD9487826
Probable space group: C M M M
;
_chemical_formula_sum "Si O2"
_cell_formula_units_Z 104
_cell_length_a 20.907447
_cell_length_b 25.316679
_cell_length_c 8.637968
_cell_angle_alpha 90.000000
_cell_angle_beta 90.000000
_cell_angle_gamma 90.000000
_cell_volume 4572.138003
_symmetry_space_group_name_H-M "C M M M"
_symmetry_group_IT_number 65
_symmetry_cell_setting 'orthorhombic'
loop_
_space_group_symop_operation_xyz
x,y,z
-x,-y,z
x,-y,-z
-x,y,-z
-x,-y,-z
x,y,-z
-x,y,z
x,-y,z
1/2+x,1/2+y,z
1/2-x,1/2-y,z
1/2+x,1/2-y,-z
1/2-x,1/2+y,-z
1/2-x,1/2-y,-z
1/2+x,1/2+y,-z
1/2-x,1/2+y,z
1/2+x,1/2-y,z
loop_
_atom_site_type_symbol
_atom_site_label
_atom_site_fract_x
_atom_site_fract_y
_atom_site_fract_z
Si Si1 0.251681 0.942930 0.314831
Si Si2 0.258821 0.831268 0.815240
Si Si3 0.890983 0.168383 0.816128
Si Si4 0.122026 0.726731 0.677605
Si Si5 0.925026 0.608883 0.671566
Si Si6 0.422566 0.939786 0.000000
Si Si7 0.099436 0.942232 0.685157
O O1 0.256219 0.940404 0.500000
O O2 0.278014 0.889329 0.244383
O O3 0.175537 0.943420 0.279572
O O4 0.277881 0.000000 0.263223
O O5 0.184379 0.827443 0.766901
O O6 0.309317 0.789274 0.750921
O O7 0.260835 0.828552 0.000000
O O8 0.914474 0.225323 0.760050
O O9 0.921382 0.114487 0.750848
O O10 0.893445 0.164983 0.000000
O O11 0.132184 0.741979 0.500000
O O12 0.083683 0.671884 0.682027
O O13 0.897885 0.592582 0.500000
O O14 0.000000 0.595622 0.664162
O O15 0.902784 0.585526 0.836110
O O16 0.500000 0.937443 0.000000
O O17 0.402017 0.000000 0.000000
O O18 0.090881 0.940914 0.500000
O O19 0.074414 0.000000 0.739295
#
# Coordination Sequence:
#
# PCOD9487826 Si02
#       7
#    16  16  16  16  16   8  16
#     4   8  14  26  43  60  81 115 159 201 239 283
#     4  10  20  31  44  65  95 128 163 205 250 291
#     4  10  20  31  45  69  99 131 166 207 249 292
#     4  11  22  34  51  70  93 130 166 202 249 300
#     4   9  20  38  58  82 108 133 167 213 264 318
#     4   9  18  34  60  88 107 132 167 207 266 323
#     4   8  14  26  44  64  88 121 161 203 241 279
#
# _framework density 22.746471
#
# number of rings (size 3 to 8) (size 9 to 14) (size 15 to 20)
#    0.000    2.692    0.000    2.769    2.154    4.615 
#    0.000    5.385    0.000    0.923    0.000    0.000 
#    0.000    0.615    0.000    7.077    0.000    2.308 
#
# Total GULP energy -290107.409497 kJ/mol
# GULP energy per Si atom -5578.988644 kJ/mol
# Density = 2.269470 g / cm^3
# Si number density = 22.746471 Si / 1000 Ang^3
#
#
#
# Elastic Constant Matrix: (Units=GPa)
#
#
# Indices 1 2 3 4 5 6 
#
# 1 50.7227 8.0374 13.0354 0.0000 0.0000 0.0000
# 2 8.0374 167.3902 65.5915 0.0000 0.0000 0.0000
# 3 13.0354 65.5915 99.2863 0.0000 0.0000 0.0000
# 4 0.0000 0.0000 0.0000 18.0710 0.0000 0.0000
# 5 0.0000 0.0000 0.0000 0.0000 -10.2860 0.0000
# 6 0.0000 0.0000 0.0000 0.0000 0.0000 5.8577
#
#
#
# Elastic Compliance Matrix: (Units=1/GPa)
#
#
# Indices 1 2 3 4 5 6 
#
# 1 0.020405 0.000094 -0.002741 0.000000 0.000000 0.000000
# 2 0.000094 0.008061 -0.005338 0.000000 0.000000 0.000000
# 3 -0.002741 -0.005338 0.013958 0.000000 0.000000 0.000000
# 4 0.000000 0.000000 0.000000 0.055337 0.000000 0.000000
# 5 0.000000 0.000000 0.000000 0.000000 -0.097220 0.000000
# 6 0.000000 0.000000 0.000000 0.000000 0.000000 0.170714
#
#
# Mechanical properties :
#
#
# Convention : Reuss Voigt Hill
#
# Bulk Modulus (GPa) = 37.80087 54.52531 46.16309
# Shear Modulus (GPa) = 25.50460 18.11088 21.80774
#
# Velocity S-wave (km/s) = 3.35215 2.82477 3.09970
# Velocity P-wave (km/s) = 5.62467 5.88745 5.75756
#
# Compressibility (1/GPa) = 0.02645442
#
# Stress axis : x y z
#
# Youngs Moduli (GPa) = 49.00856 124.05177 71.64281
#
# Poissons Ratio (x) = -0.01172 0.19640
# Poissons Ratio (y) = -0.00463 0.38242
# Poissons Ratio (z) = 0.13435 0.66217
#
# Static dielectric constant tensor:
#      x y z
#    x 1.892150 0.000000 0.000000 
#    y 0.000000 1.865780 0.000000 
#    z 0.000000 0.000000 1.784920 
# 
# From -- ./inp_files/16794.got.cif
#   From: 2010.05.17/outbox.cif.g08.bks.cpg/sg65_9_cif.got.tgz:16794.got - 2010.06.03 17:01:31.
