data_PCOD9487598
_publ_section_title
;
Structure prediction by ZEFSAII (Michael W. Deem and Ramdas Pophale) SiO2 
 PCOD9487598
Probable space group: C M M M
;
_chemical_formula_sum "Si O2"
_cell_formula_units_Z 64
_cell_length_a 7.525665
_cell_length_b 14.846217
_cell_length_c 22.592045
_cell_angle_alpha 90.000000
_cell_angle_beta 90.000000
_cell_angle_gamma 90.000000
_cell_volume 2524.156224
_symmetry_space_group_name_H-M "C M M M"
_symmetry_group_IT_number 65
_symmetry_cell_setting 'orthorhombic'
loop_
_space_group_symop_operation_xyz
x,y,z
-x,-y,z
x,-y,-z
-x,y,-z
-x,-y,-z
x,y,-z
-x,y,z
x,-y,z
1/2+x,1/2+y,z
1/2-x,1/2-y,z
1/2+x,1/2-y,-z
1/2-x,1/2+y,-z
1/2-x,1/2-y,-z
1/2+x,1/2+y,-z
1/2-x,1/2+y,z
1/2+x,1/2-y,z
loop_
_atom_site_type_symbol
_atom_site_label
_atom_site_fract_x
_atom_site_fract_y
_atom_site_fract_z
Si Si1 0.211460 0.643269 0.127846
Si Si2 0.750000 0.250000 0.339792
Si Si3 0.786741 0.642478 0.000000
Si Si4 0.707225 0.599220 0.740674
Si Si5 0.715140 0.895254 0.568813
O O1 0.250000 0.750000 0.129778
O O2 0.283507 0.603977 0.188472
O O3 0.000000 0.629238 0.128903
O O4 0.279306 0.609254 0.063867
O O5 0.816311 0.322784 0.291139
O O6 0.808429 0.174657 0.387809
O O7 0.750000 0.750000 0.000000
O O8 0.000000 0.629462 0.000000
O O9 0.500000 0.613604 0.724728
O O10 0.764493 0.500000 0.721695
O O11 0.754405 0.876663 0.500000
O O12 0.500000 0.884992 0.576854
O O13 0.759215 0.000000 0.579972
#
# Coordination Sequence:
#
# PCOD9487598 Si02
#       5
#    16   8   8  16  16
#     4  10  19  35  60  87 118 154 197 247 304 365
#     4  12  21  36  62  85 112 156 208 246 294 361
#     4   8  16  30  53  86 115 146 190 244 301 361
#     4  11  25  41  56  82 123 163 204 256 306 353
#     4   9  19  36  58  87 120 150 188 242 298 354
#
# _framework density 25.355008000000002
#
# number of rings (size 3 to 8) (size 9 to 14) (size 15 to 20)
#    0.000    2.000    1.250    3.375    0.000    2.500 
#    0.000    0.625    0.000    3.750    0.000   10.500 
#    0.000    0.000    0.000    0.000    0.000    0.000 
#
# Total GULP energy -178454.142725 kJ/mol
# GULP energy per Si atom -5576.691960 kJ/mol
# Density = 2.529730 g / cm^3
# Si number density = 25.355008 Si / 1000 Ang^3
#
#
#
# Elastic Constant Matrix: (Units=GPa)
#
#
# Indices 1 2 3 4 5 6 
#
# 1 101.9773 30.5408 29.0247 0.0000 0.0000 0.0000
# 2 30.5408 179.9347 86.5164 0.0000 0.0000 0.0000
# 3 29.0247 86.5164 243.7306 0.0000 0.0000 0.0000
# 4 0.0000 0.0000 0.0000 325.6825 0.0000 0.0000
# 5 0.0000 0.0000 0.0000 0.0000 79.3942 0.0000
# 6 0.0000 0.0000 0.0000 0.0000 0.0000 -15.8649
#
#
#
# Elastic Compliance Matrix: (Units=1/GPa)
#
#
# Indices 1 2 3 4 5 6 
#
# 1 0.010441 -0.001416 -0.000741 0.000000 0.000000 0.000000
# 2 -0.001416 0.006893 -0.002278 0.000000 0.000000 0.000000
# 3 -0.000741 -0.002278 0.005000 0.000000 0.000000 0.000000
# 4 0.000000 0.000000 0.000000 0.003070 0.000000 0.000000
# 5 0.000000 0.000000 0.000000 0.000000 0.012595 0.000000
# 6 0.000000 0.000000 0.000000 0.000000 0.000000 -0.063032
#
#
# Mechanical properties :
#
#
# Convention : Reuss Voigt Hill
#
# Bulk Modulus (GPa) = 74.27152 90.86737 82.56944
# Shear Modulus (GPa) = -428.29883 103.14642 -162.57620
#
# Velocity S-wave (km/s) = -13.01105 6.38508 -8.01618
# Velocity P-wave (km/s) = 14.01287 9.50130 7.28305
#
# Compressibility (1/GPa) = 0.01346411
#
# Stress axis : x y z
#
# Youngs Moduli (GPa) = 95.77619 145.06699 200.00727
#
# Poissons Ratio (x) = 0.20542 0.14815
# Poissons Ratio (y) = 0.13562 0.45567
# Poissons Ratio (z) = 0.07094 0.33050
#
# Static dielectric constant tensor:
#      x y z
#    x 1.892030 0.000000 0.000000 
#    y 0.000000 1.834710 0.000000 
#    z 0.000000 0.000000 1.984470 
# 
# From -- ./inp_files/66800.got.cif
#   From: 2010.05.17/outbox.cif.g08.bks.cpg/sg65_34_cif.got.tgz:66800.got - 2010.06.03 17:01:31.
