data_PCOD9487252
_publ_section_title
;
Structure prediction by ZEFSAII (Michael W. Deem and Ramdas Pophale) SiO2 
 PCOD9487252
Probable space group: C M M M
;
_chemical_formula_sum "Si O2"
_cell_formula_units_Z 88
_cell_length_a 28.609708
_cell_length_b 18.336075
_cell_length_c 10.080041
_cell_angle_alpha 90.000000
_cell_angle_beta 90.000000
_cell_angle_gamma 90.000000
_cell_volume 5287.886204
_symmetry_space_group_name_H-M "C M M M"
_symmetry_group_IT_number 65
_symmetry_cell_setting 'orthorhombic'
loop_
_space_group_symop_operation_xyz
x,y,z
-x,-y,z
x,-y,-z
-x,y,-z
-x,-y,-z
x,y,-z
-x,y,z
x,-y,z
1/2+x,1/2+y,z
1/2-x,1/2-y,z
1/2+x,1/2-y,-z
1/2-x,1/2+y,-z
1/2-x,1/2-y,-z
1/2+x,1/2+y,-z
1/2-x,1/2+y,z
1/2+x,1/2-y,z
loop_
_atom_site_type_symbol
_atom_site_label
_atom_site_fract_x
_atom_site_fract_y
_atom_site_fract_z
Si Si1 0.390667 0.182777 0.844297
Si Si2 0.444424 0.412667 0.500000
Si Si3 0.701730 0.915705 0.846364
Si Si4 0.767884 0.167722 0.654358
Si Si5 0.055969 0.583433 0.647417
Si Si6 0.122910 0.187071 0.352864
O O1 0.341943 0.138754 0.830557
O O2 0.427276 0.133310 0.765887
O O3 0.388556 0.258271 0.764777
O O4 0.400493 0.191543 0.000000
O O5 0.440061 0.500000 0.500000
O O6 0.500000 0.394425 0.500000
O O7 0.415789 0.375953 0.377187
O O8 0.741646 0.888464 0.748327
O O9 0.688529 0.000000 0.821096
O O10 0.717001 0.910740 0.000000
O O11 0.755830 0.155187 0.500000
O O12 0.750000 0.250000 0.686915
O O13 0.823846 0.161278 0.667512
O O14 0.072096 0.607585 0.500000
O O15 0.071836 0.500000 0.666098
O O16 0.000000 0.583089 0.644658
O O17 0.123442 0.224828 0.500000
#
# Coordination Sequence:
#
# PCOD9487252 Si02
#       6
#    16   8  16  16  16  16
#     4  11  21  34  53  79 115 151 187 230 277 333
#     4   9  20  40  65  88 109 139 180 233 292 348
#     4  10  22  36  51  76 113 158 198 227 269 335
#     4  10  19  34  55  79 110 143 182 238 287 327
#     4   9  19  35  53  73 102 144 192 239 283 325
#     4   9  20  36  58  85 109 138 183 228 279 344
#
# _framework density 16.64181
#
# number of rings (size 3 to 8) (size 9 to 14) (size 15 to 20)
#    0.545    1.727    1.818    1.636    0.000    5.091 
#    0.000    0.909    0.000    0.545    0.000    1.273 
#    0.000    0.000    0.000    0.000    0.000    0.000 
#
# Total GULP energy -245025.062498 kJ/mol
# GULP energy per Si atom -5568.751420 kJ/mol
# Density = 1.660393 g / cm^3
# Si number density = 16.641810 Si / 1000 Ang^3
#
#
#
# Elastic Constant Matrix: (Units=GPa)
#
#
# Indices 1 2 3 4 5 6 
#
# 1 84.3736 46.3666 44.1853 0.0000 0.0000 0.0000
# 2 46.3666 90.5955 61.8757 0.0000 0.0000 0.0000
# 3 44.1853 61.8757 106.5553 0.0000 0.0000 0.0000
# 4 0.0000 0.0000 0.0000 14.3565 0.0000 0.0000
# 5 0.0000 0.0000 0.0000 0.0000 21.7038 0.0000
# 6 0.0000 0.0000 0.0000 0.0000 0.0000 28.2650
#
#
#
# Elastic Compliance Matrix: (Units=1/GPa)
#
#
# Indices 1 2 3 4 5 6 
#
# 1 0.017180 -0.006508 -0.003345 0.000000 0.000000 0.000000
# 2 -0.006508 0.020759 -0.009356 0.000000 0.000000 0.000000
# 3 -0.003345 -0.009356 0.016205 0.000000 0.000000 0.000000
# 4 0.000000 0.000000 0.000000 0.069655 0.000000 0.000000
# 5 0.000000 0.000000 0.000000 0.000000 0.046075 0.000000
# 6 0.000000 0.000000 0.000000 0.000000 0.000000 0.035380
#
#
# Mechanical properties :
#
#
# Convention : Reuss Voigt Hill
#
# Bulk Modulus (GPa) = 63.58889 65.15329 64.37109
# Shear Modulus (GPa) = 20.08736 21.47149 20.77943
#
# Velocity S-wave (km/s) = 3.47802 3.59585 3.53743
# Velocity P-wave (km/s) = 7.37713 7.51502 7.44640
#
# Compressibility (1/GPa) = 0.01572602
#
# Stress axis : x y z
#
# Youngs Moduli (GPa) = 58.20626 48.17223 61.71121
#
# Poissons Ratio (x) = 0.31352 0.20641
# Poissons Ratio (y) = 0.37883 0.57735
# Poissons Ratio (z) = 0.19469 0.45068
#
# Static dielectric constant tensor:
#      x y z
#    x 1.565310 0.000000 0.000000 
#    y 0.000000 1.561250 0.000000 
#    z 0.000000 0.000000 1.549210 
# 
# From -- ./inp_files/18516.got.cif
#   From: 2010.05.17/outbox.cif.g08.bks.cpg/sg65_10_cif.got.tgz:18516.got - 2010.06.03 17:01:31.
