data_PCOD9487596
_publ_section_title
;
Structure prediction by ZEFSAII (Michael W. Deem and Ramdas Pophale) SiO2 
 PCOD9487596
Probable space group: C M M M
;
_chemical_formula_sum "Si O2"
_cell_formula_units_Z 88
_cell_length_a 16.159818
_cell_length_b 25.684051
_cell_length_c 10.913240
_cell_angle_alpha 90.000000
_cell_angle_beta 90.000000
_cell_angle_gamma 90.000000
_cell_volume 4529.535784
_symmetry_space_group_name_H-M "C M M M"
_symmetry_group_IT_number 65
_symmetry_cell_setting 'orthorhombic'
loop_
_space_group_symop_operation_xyz
x,y,z
-x,-y,z
x,-y,-z
-x,y,-z
-x,-y,-z
x,y,-z
-x,y,z
x,-y,z
1/2+x,1/2+y,z
1/2-x,1/2-y,z
1/2+x,1/2-y,-z
1/2-x,1/2+y,-z
1/2-x,1/2-y,-z
1/2+x,1/2+y,-z
1/2-x,1/2+y,z
1/2+x,1/2-y,z
loop_
_atom_site_type_symbol
_atom_site_label
_atom_site_fract_x
_atom_site_fract_y
_atom_site_fract_z
Si Si1 0.000000 0.134539 0.851034
Si Si2 0.173705 0.283330 0.752452
Si Si3 0.352521 0.441128 0.145261
Si Si4 0.595193 0.905221 0.500000
Si Si5 0.096986 0.721891 0.500000
Si Si6 0.000000 0.252622 0.855850
Si Si7 0.684561 0.095037 0.247896
Si Si8 0.901383 0.560264 0.000000
O O1 0.919406 0.101627 0.816489
O O2 0.000000 0.193554 0.804423
O O3 0.000000 0.135750 0.000000
O O4 0.250000 0.250000 0.804760
O O5 0.147632 0.261783 0.619240
O O6 0.085231 0.280497 0.820012
O O7 0.200408 0.343135 0.743988
O O8 0.385169 0.500000 0.156252
O O9 0.269997 0.434169 0.223043
O O10 0.332824 0.433066 0.000000
O O11 0.500000 0.922554 0.500000
O O12 0.594624 0.841583 0.500000
O O13 0.639771 0.921309 0.626204
O O14 0.000000 0.738357 0.500000
O O15 0.000000 0.248059 0.000000
O O16 0.630769 0.085507 0.125584
O O17 0.873148 0.500000 0.000000
O O18 0.000000 0.561882 0.000000
#
# Coordination Sequence:
#
# PCOD9487596 Si02
#       8
#     8  16  16   8   8   8  16   8
#     4   9  19  36  56  83 120 156 191 246 297 345
#     4  11  23  37  58  87 119 158 198 238 293 356
#     4  10  19  35  60  87 114 150 199 248 298 349
#     4   9  20  37  58  86 114 156 202 236 288 354
#     4   9  17  37  61  81 109 153 199 247 288 336
#     4  11  24  36  53  82 127 159 195 236 288 351
#     4  11  22  37  62  85 121 155 196 243 296 349
#     4  11  24  40  61  87 115 149 196 250 301 347
#
# _framework density 19.428039999999999
#
# number of rings (size 3 to 8) (size 9 to 14) (size 15 to 20)
#    0.000    1.727    1.818    2.727    3.818    1.455 
#    0.000    1.818    0.000    3.818    0.000    1.273 
#    0.000    0.000    0.000    0.000    0.000    0.000 
#
# Total GULP energy -245590.599791 kJ/mol
# GULP energy per Si atom -5581.604541 kJ/mol
# Density = 1.938382 g / cm^3
# Si number density = 19.428040 Si / 1000 Ang^3
#
#
#
# Elastic Constant Matrix: (Units=GPa)
#
#
# Indices 1 2 3 4 5 6 
#
# 1 84.3566 -1.9141 20.4719 0.0000 0.0000 0.0000
# 2 -1.9141 39.3046 -4.9626 0.0000 0.0000 0.0000
# 3 20.4719 -4.9626 87.2379 0.0000 0.0000 0.0000
# 4 0.0000 0.0000 0.0000 13.4191 0.0000 0.0000
# 5 0.0000 0.0000 0.0000 0.0000 9.6196 0.0000
# 6 0.0000 0.0000 0.0000 0.0000 0.0000 25.6502
#
#
#
# Elastic Compliance Matrix: (Units=1/GPa)
#
#
# Indices 1 2 3 4 5 6 
#
# 1 0.012573 0.000241 -0.002937 0.000000 0.000000 0.000000
# 2 0.000241 0.025631 0.001401 0.000000 0.000000 0.000000
# 3 -0.002937 0.001401 0.012232 0.000000 0.000000 0.000000
# 4 0.000000 0.000000 0.000000 0.074521 0.000000 0.000000
# 5 0.000000 0.000000 0.000000 0.000000 0.103955 0.000000
# 6 0.000000 0.000000 0.000000 0.000000 0.000000 0.038986
#
#
# Mechanical properties :
#
#
# Convention : Reuss Voigt Hill
#
# Bulk Modulus (GPa) = 20.89959 26.45438 23.67699
# Shear Modulus (GPa) = 17.45604 22.89137 20.17370
#
# Velocity S-wave (km/s) = 3.00075 3.43631 3.22589
# Velocity P-wave (km/s) = 4.77355 5.42130 5.10770
#
# Compressibility (1/GPa) = 0.04784782
#
# Stress axis : x y z
#
# Youngs Moduli (GPa) = 79.53809 39.01524 81.75440
#
# Poissons Ratio (x) = -0.00942 0.24008
# Poissons Ratio (y) = -0.01921 -0.11457
# Poissons Ratio (z) = 0.23357 -0.05468
#
# Static dielectric constant tensor:
#      x y z
#    x 1.704920 0.000000 0.000000 
#    y 0.000000 1.679930 0.000000 
#    z 0.000000 0.000000 1.675400 
# 
# From -- ./inp_files/25246.got.cif
#   From: 2010.05.17/outbox.cif.g08.bks.cpg/sg65_13_cif.got.tgz:25246.got - 2010.06.03 17:01:31.
