data_PCOD9487576
_publ_section_title
;
Structure prediction by ZEFSAII (Michael W. Deem and Ramdas Pophale) SiO2 
 PCOD9487576
Probable space group: C M M M
;
_chemical_formula_sum "Si O2"
_cell_formula_units_Z 96
_cell_length_a 14.312431
_cell_length_b 28.497879
_cell_length_c 12.303358
_cell_angle_alpha 90.000000
_cell_angle_beta 90.000000
_cell_angle_gamma 90.000000
_cell_volume 5018.218941
_symmetry_space_group_name_H-M "C M M M"
_symmetry_group_IT_number 65
_symmetry_cell_setting 'orthorhombic'
loop_
_space_group_symop_operation_xyz
x,y,z
-x,-y,z
x,-y,-z
-x,y,-z
-x,-y,-z
x,y,-z
-x,y,z
x,-y,z
1/2+x,1/2+y,z
1/2-x,1/2-y,z
1/2+x,1/2-y,-z
1/2-x,1/2+y,-z
1/2-x,1/2-y,-z
1/2+x,1/2+y,-z
1/2-x,1/2+y,z
1/2+x,1/2-y,z
loop_
_atom_site_type_symbol
_atom_site_label
_atom_site_fract_x
_atom_site_fract_y
_atom_site_fract_z
Si Si1 0.387680 0.723653 0.262288
Si Si2 0.107647 0.684433 0.875068
Si Si3 0.102574 0.556852 0.624641
Si Si4 0.613595 0.304489 0.500000
Si Si5 0.797991 0.945434 0.723573
Si Si6 0.699080 0.638464 0.126407
Si Si7 0.388462 0.585821 0.500000
O O1 0.500000 0.718069 0.260938
O O2 0.368135 0.773577 0.207076
O O3 0.355666 0.718962 0.387221
O O4 0.344690 0.682049 0.191052
O O5 0.188480 0.645860 0.868007
O O6 0.000000 0.669239 0.855819
O O7 0.111236 0.702695 0.000000
O O8 0.116864 0.572918 0.500000
O O9 0.100380 0.500000 0.620731
O O10 0.190749 0.568245 0.696957
O O11 0.000000 0.573061 0.661139
O O12 0.500000 0.303162 0.500000
O O13 0.640827 0.359376 0.500000
O O14 0.831328 0.909193 0.814216
O O15 0.850526 0.938011 0.609194
O O16 0.803303 0.000000 0.755001
O O17 0.672372 0.639397 0.000000
O O18 0.500000 0.583967 0.500000
#
# Coordination Sequence:
#
# PCOD9487576 Si02
#       7
#    16  16  16   8  16  16   8
#     4  10  19  35  59  86 114 144 180 223 276 338
#     4   9  19  37  60  83 109 145 187 228 271 326
#     4   8  14  27  49  75 100 127 165 216 270 323
#     4   9  18  33  56  83 112 144 177 217 272 334
#     4  11  22  36  56  80 109 147 190 234 282 332
#     4  11  23  37  55  80 111 147 191 237 277 324
#     4  11  21  38  59  82 111 147 190 231 276 335
#
# _framework density 19.130293999999999
#
# number of rings (size 3 to 8) (size 9 to 14) (size 15 to 20)
#    0.000    2.167    2.500    1.750    0.000    4.000 
#    0.000    2.500    0.000    0.000    0.000    7.000 
#    0.000    0.000    0.000    0.000    0.000    0.000 
#
# Total GULP energy -267778.662548 kJ/mol
# GULP energy per Si atom -5578.722136 kJ/mol
# Density = 1.908675 g / cm^3
# Si number density = 19.130294 Si / 1000 Ang^3
#
#
#
# Elastic Constant Matrix: (Units=GPa)
#
#
# Indices 1 2 3 4 5 6 
#
# 1 36.2028 13.6760 17.8067 0.0000 0.0000 0.0000
# 2 13.6760 52.4072 51.2729 0.0000 0.0000 0.0000
# 3 17.8067 51.2729 134.1045 0.0000 0.0000 0.0000
# 4 0.0000 0.0000 0.0000 9.9829 0.0000 0.0000
# 5 0.0000 0.0000 0.0000 0.0000 17.9720 0.0000
# 6 0.0000 0.0000 0.0000 0.0000 0.0000 18.6518
#
#
#
# Elastic Compliance Matrix: (Units=1/GPa)
#
#
# Indices 1 2 3 4 5 6 
#
# 1 0.030864 -0.006462 -0.001628 0.000000 0.000000 0.000000
# 2 -0.006462 0.031837 -0.011314 0.000000 0.000000 0.000000
# 3 -0.001628 -0.011314 0.011999 0.000000 0.000000 0.000000
# 4 0.000000 0.000000 0.000000 0.100171 0.000000 0.000000
# 5 0.000000 0.000000 0.000000 0.000000 0.055642 0.000000
# 6 0.000000 0.000000 0.000000 0.000000 0.000000 0.053614
#
#
# Mechanical properties :
#
#
# Convention : Reuss Voigt Hill
#
# Bulk Modulus (GPa) = 27.86122 43.13619 35.49870
# Shear Modulus (GPa) = 14.92989 18.65195 16.79092
#
# Velocity S-wave (km/s) = 2.79665 3.12588 2.96584
# Velocity P-wave (km/s) = 5.00239 5.96873 5.50680
#
# Compressibility (1/GPa) = 0.03589218
#
# Stress axis : x y z
#
# Youngs Moduli (GPa) = 32.40052 31.40981 83.34093
#
# Poissons Ratio (x) = 0.20296 0.13565
# Poissons Ratio (y) = 0.20936 0.94296
# Poissons Ratio (z) = 0.05274 0.35539
#
# Static dielectric constant tensor:
#      x y z
#    x 1.701500 0.000000 0.000000 
#    y 0.000000 1.628590 0.000000 
#    z 0.000000 0.000000 1.659190 
# 
# From -- ./inp_files/25445.got.cif
#   From: 2010.05.17/outbox.cif.g08.bks.cpg/sg65_13_cif.got.tgz:25445.got - 2010.06.03 17:01:31.
