data_PCOD9487480
_publ_section_title
;
Structure prediction by ZEFSAII (Michael W. Deem and Ramdas Pophale) SiO2 
 PCOD9487480
Probable space group: C M M M
;
_chemical_formula_sum "Si O2"
_cell_formula_units_Z 112
_cell_length_a 14.547530
_cell_length_b 30.583323
_cell_length_c 14.565436
_cell_angle_alpha 90.000000
_cell_angle_beta 90.000000
_cell_angle_gamma 90.000000
_cell_volume 6480.334477
_symmetry_space_group_name_H-M "C M M M"
_symmetry_group_IT_number 65
_symmetry_cell_setting 'orthorhombic'
loop_
_space_group_symop_operation_xyz
x,y,z
-x,-y,z
x,-y,-z
-x,y,-z
-x,-y,-z
x,y,-z
-x,y,z
x,-y,z
1/2+x,1/2+y,z
1/2-x,1/2-y,z
1/2+x,1/2-y,-z
1/2-x,1/2+y,-z
1/2-x,1/2-y,-z
1/2+x,1/2+y,-z
1/2-x,1/2+y,z
1/2+x,1/2-y,z
loop_
_atom_site_type_symbol
_atom_site_label
_atom_site_fract_x
_atom_site_fract_y
_atom_site_fract_z
Si Si1 0.111810 0.228298 0.104175
Si Si2 0.391754 0.658330 0.740341
Si Si3 0.642600 0.262455 0.605358
Si Si4 0.104186 0.304113 0.236378
Si Si5 0.783945 0.392776 0.746686
Si Si6 0.895587 0.551149 0.609598
Si Si7 0.606350 0.051875 0.109146
O O1 0.132440 0.187498 0.169826
O O2 0.141728 0.272482 0.155938
O O3 0.000000 0.230773 0.102576
O O4 0.144593 0.224415 0.000000
O O5 0.500000 0.647923 0.742664
O O6 0.373618 0.690852 0.654172
O O7 0.323868 0.617283 0.740503
O O8 0.610252 0.261852 0.500000
O O9 0.750000 0.250000 0.604713
O O10 0.600460 0.226268 0.673145
O O11 0.167369 0.345553 0.251570
O O12 0.000000 0.317880 0.213584
O O13 0.822283 0.419385 0.660232
O O14 0.821716 0.419807 0.833678
O O15 0.888908 0.554840 0.500000
O O16 0.884652 0.500000 0.633555
O O17 0.000000 0.564074 0.636047
O O18 0.500000 0.062850 0.133742
O O19 0.618144 0.000000 0.126970
O O20 0.616071 0.058702 0.000000
#
# Coordination Sequence:
#
# PCOD9487480 Si02
#       7
#    16  16  16  16  16  16  16
#     4   8  16  33  52  67  94 138 178 213 255 298
#     4  10  22  37  52  73 104 141 186 227 258 301
#     4  10  19  35  54  69  96 140 182 219 263 310
#     4  10  20  31  47  76 105 129 165 215 266 315
#     4  12  21  32  53  79 107 136 172 214 264 306
#     4   9  19  36  57  81 107 134 163 197 250 324
#     4   9  19  36  57  82 111 140 168 201 254 327
#
# _framework density 17.283059000000002
#
# number of rings (size 3 to 8) (size 9 to 14) (size 15 to 20)
#    0.000    2.286    1.429    3.857    0.000    4.571 
#    0.000    2.143    0.000    1.714    0.000    2.000 
#    0.000    0.000    0.000    0.000    0.000    0.000 
#
# Total GULP energy -312515.698170 kJ/mol
# GULP energy per Si atom -5580.637467 kJ/mol
# Density = 1.724372 g / cm^3
# Si number density = 17.283059 Si / 1000 Ang^3
#
#
#
# Elastic Constant Matrix: (Units=GPa)
#
#
# Indices 1 2 3 4 5 6 
#
# 1 112.8394 50.4526 30.1879 0.0000 0.0000 0.0000
# 2 50.4526 72.3227 40.1199 0.0000 0.0000 0.0000
# 3 30.1879 40.1199 116.9934 0.0000 0.0000 0.0000
# 4 0.0000 0.0000 0.0000 15.4981 0.0000 0.0000
# 5 0.0000 0.0000 0.0000 0.0000 50.5910 0.0000
# 6 0.0000 0.0000 0.0000 0.0000 0.0000 11.6224
#
#
#
# Elastic Compliance Matrix: (Units=1/GPa)
#
#
# Indices 1 2 3 4 5 6 
#
# 1 0.012888 -0.008825 -0.000299 0.000000 0.000000 0.000000
# 2 -0.008825 0.023118 -0.005651 0.000000 0.000000 0.000000
# 3 -0.000299 -0.005651 0.010562 0.000000 0.000000 0.000000
# 4 0.000000 0.000000 0.000000 0.064524 0.000000 0.000000
# 5 0.000000 0.000000 0.000000 0.000000 0.019766 0.000000
# 6 0.000000 0.000000 0.000000 0.000000 0.000000 0.086041
#
#
# Mechanical properties :
#
#
# Convention : Reuss Voigt Hill
#
# Bulk Modulus (GPa) = 58.75805 60.40850 59.58327
# Shear Modulus (GPa) = 19.83175 27.63530 23.73353
#
# Velocity S-wave (km/s) = 3.39110 4.00307 3.70973
# Velocity P-wave (km/s) = 7.02880 7.50962 7.27318
#
# Compressibility (1/GPa) = 0.01701895
#
# Stress axis : x y z
#
# Youngs Moduli (GPa) = 77.59228 43.25715 94.67517
#
# Poissons Ratio (x) = 0.38173 0.02834
# Poissons Ratio (y) = 0.68472 0.53497
# Poissons Ratio (z) = 0.02322 0.24443
#
# Static dielectric constant tensor:
#      x y z
#    x 1.618980 0.000000 0.000000 
#    y 0.000000 1.555810 0.000000 
#    z 0.000000 0.000000 1.603640 
# 
# From -- ./inp_files/41054.got.cif
#   From: 2010.05.17/outbox.cif.g08.bks.cpg/sg65_21_cif.got.tgz:41054.got - 2010.06.03 17:01:31.
