data_PCOD9487859
_publ_section_title
;
Structure prediction by ZEFSAII (Michael W. Deem and Ramdas Pophale) SiO2 
 PCOD9487859
Probable space group: C M M M
;
_chemical_formula_sum "Si O2"
_cell_formula_units_Z 88
_cell_length_a 8.993828
_cell_length_b 26.276809
_cell_length_c 22.835761
_cell_angle_alpha 90.000000
_cell_angle_beta 90.000000
_cell_angle_gamma 90.000000
_cell_volume 5396.754857
_symmetry_space_group_name_H-M "C M M M"
_symmetry_group_IT_number 65
_symmetry_cell_setting 'orthorhombic'
loop_
_space_group_symop_operation_xyz
x,y,z
-x,-y,z
x,-y,-z
-x,y,-z
-x,-y,-z
x,y,-z
-x,y,z
x,-y,z
1/2+x,1/2+y,z
1/2-x,1/2-y,z
1/2+x,1/2-y,-z
1/2-x,1/2+y,-z
1/2-x,1/2-y,-z
1/2+x,1/2+y,-z
1/2-x,1/2+y,z
1/2+x,1/2-y,z
loop_
_atom_site_type_symbol
_atom_site_label
_atom_site_fract_x
_atom_site_fract_y
_atom_site_fract_z
Si Si1 0.826495 0.904805 0.354830
Si Si2 0.678913 0.195574 0.307151
Si Si3 0.818842 0.000000 0.431865
Si Si4 0.677170 0.305527 0.064037
Si Si5 0.826112 0.346989 0.179428
Si Si6 0.331905 0.558956 0.221871
O O1 0.739409 0.851759 0.345853
O O2 0.769794 0.947614 0.400184
O O3 0.822942 0.932222 0.291540
O O4 0.000000 0.893301 0.368236
O O5 0.500000 0.197611 0.310652
O O6 0.750000 0.250000 0.322737
O O7 0.720240 0.182657 0.239088
O O8 0.779264 0.000000 0.500000
O O9 0.000000 0.000000 0.426748
O O10 0.500000 0.301078 0.068039
O O11 0.750000 0.250000 0.064206
O O12 0.738745 0.332410 0.121388
O O13 0.712907 0.329153 0.000000
O O14 0.789621 0.405428 0.192996
O O15 0.000000 0.337623 0.170763
O O16 0.500000 0.574948 0.204229
O O17 0.313517 0.500000 0.208545
#
# Coordination Sequence:
#
# PCOD9487859 Si02
#       6
#    16  16   8  16  16  16
#     4   9  16  29  49  73 101 132 164 199 240 288
#     4  10  20  32  47  71 100 131 164 201 247 295
#     4   9  16  28  51  81 107 131 164 203 240 283
#     4  10  20  33  49  68  91 121 156 194 236 283
#     4  10  20  31  46  70  97 125 158 196 242 291
#     4   9  16  28  47  69  95 127 160 194 236 286
#
# _framework density 16.306094999999999
#
# number of rings (size 3 to 8) (size 9 to 14) (size 15 to 20)
#    0.000    2.455    0.909    2.182    0.000    5.091 
#    0.000    0.455    0.000    2.182    0.000    3.818 
#    0.000    0.000    0.000    0.000    0.000    0.000 
#
# Total GULP energy -245118.192258 kJ/mol
# GULP energy per Si atom -5570.868006 kJ/mol
# Density = 1.626898 g / cm^3
# Si number density = 16.306095 Si / 1000 Ang^3
#
#
#
# Elastic Constant Matrix: (Units=GPa)
#
#
# Indices 1 2 3 4 5 6 
#
# 1 43.0527 36.3672 35.5877 0.0000 0.0000 0.0000
# 2 36.3672 104.8463 51.4911 0.0000 0.0000 0.0000
# 3 35.5877 51.4911 90.7227 0.0000 0.0000 0.0000
# 4 0.0000 0.0000 0.0000 15.4848 0.0000 0.0000
# 5 0.0000 0.0000 0.0000 0.0000 14.3843 0.0000
# 6 0.0000 0.0000 0.0000 0.0000 0.0000 26.1952
#
#
#
# Elastic Compliance Matrix: (Units=1/GPa)
#
#
# Indices 1 2 3 4 5 6 
#
# 1 0.039008 -0.008340 -0.010568 0.000000 0.000000 0.000000
# 2 -0.008340 0.015007 -0.005246 0.000000 0.000000 0.000000
# 3 -0.010568 -0.005246 0.018145 0.000000 0.000000 0.000000
# 4 0.000000 0.000000 0.000000 0.064580 0.000000 0.000000
# 5 0.000000 0.000000 0.000000 0.000000 0.069520 0.000000
# 6 0.000000 0.000000 0.000000 0.000000 0.000000 0.038175
#
#
# Mechanical properties :
#
#
# Convention : Reuss Voigt Hill
#
# Bulk Modulus (GPa) = 41.92472 53.94596 47.93534
# Shear Modulus (GPa) = 16.62817 18.89123 17.75970
#
# Velocity S-wave (km/s) = 3.19682 3.40742 3.30380
# Velocity P-wave (km/s) = 6.27639 6.97394 6.63434
#
# Compressibility (1/GPa) = 0.02385228
#
# Stress axis : x y z
#
# Youngs Moduli (GPa) = 25.63564 66.63548 55.11039
#
# Poissons Ratio (x) = 0.55577 0.58240
# Poissons Ratio (y) = 0.21381 0.28910
# Poissons Ratio (z) = 0.27092 0.34955
#
# Static dielectric constant tensor:
#      x y z
#    x 1.558180 0.000000 0.000000 
#    y 0.000000 1.545000 0.000000 
#    z 0.000000 0.000000 1.550700 
# 
# From -- ./inp_files/59787.got.cif
#   From: 2010.05.17/outbox.cif.g08.bks.cpg/sg65_30_cif.got.tgz:59787.got - 2010.06.03 17:01:31.
