data_PCOD9487450
_publ_section_title
;
Structure prediction by ZEFSAII (Michael W. Deem and Ramdas Pophale) SiO2 
 PCOD9487450
Probable space group: C M M M
;
_chemical_formula_sum "Si O2"
_cell_formula_units_Z 96
_cell_length_a 19.963935
_cell_length_b 15.092790
_cell_length_c 14.952408
_cell_angle_alpha 90.000000
_cell_angle_beta 90.000000
_cell_angle_gamma 90.000000
_cell_volume 4505.332162
_symmetry_space_group_name_H-M "C M M M"
_symmetry_group_IT_number 65
_symmetry_cell_setting 'orthorhombic'
loop_
_space_group_symop_operation_xyz
x,y,z
-x,-y,z
x,-y,-z
-x,y,-z
-x,-y,-z
x,y,-z
-x,y,z
x,-y,z
1/2+x,1/2+y,z
1/2-x,1/2-y,z
1/2+x,1/2-y,-z
1/2-x,1/2+y,-z
1/2-x,1/2-y,-z
1/2+x,1/2+y,-z
1/2-x,1/2+y,z
1/2+x,1/2-y,z
loop_
_atom_site_type_symbol
_atom_site_label
_atom_site_fract_x
_atom_site_fract_y
_atom_site_fract_z
Si Si1 0.922849 0.602622 0.649609
Si Si2 0.424989 0.641130 0.103268
Si Si3 0.679056 0.595107 0.249045
Si Si4 0.573631 0.850919 0.140895
Si Si5 0.225188 0.646479 0.097175
Si Si6 0.829777 0.235576 0.597945
O O1 0.906266 0.500000 0.630020
O O2 0.923116 0.617854 0.756656
O O3 0.870806 0.673610 0.611202
O O4 0.000000 0.618818 0.619442
O O5 0.500000 0.606157 0.109887
O O6 0.375849 0.595623 0.171200
O O7 0.427026 0.744471 0.130695
O O8 0.403982 0.635790 0.000000
O O9 0.683427 0.500000 0.294625
O O10 0.745736 0.611213 0.190544
O O11 0.659452 0.670072 0.319305
O O12 0.500000 0.881356 0.106038
O O13 0.645655 0.871930 0.098830
O O14 0.250000 0.750000 0.098556
O O15 0.249369 0.612031 0.000000
O O16 0.848194 0.198751 0.500000
O O17 0.750000 0.250000 0.598409
#
# Coordination Sequence:
#
# PCOD9487450 Si02
#       6
#    16  16  16  16  16  16
#     4  10  21  40  70 104 135 169 212 267 333 401
#     4  10  20  36  61  92 127 169 215 261 309 363
#     4  12  25  41  63  92 128 171 220 269 320 380
#     4  10  19  34  59  91 129 170 208 251 309 377
#     4  11  21  35  57  87 126 171 217 265 318 374
#     4  11  25  45  68  95 127 167 215 268 334 403
#
# _framework density 21.308084999999998
#
# number of rings (size 3 to 8) (size 9 to 14) (size 15 to 20)
#    0.000    1.333    3.333    2.500    0.000    6.333 
#    0.000    3.333    0.000    1.500    0.000   14.000 
#    0.000    0.000    0.000    0.000    0.000    0.000 
#
# Total GULP energy -267892.640788 kJ/mol
# GULP energy per Si atom -5581.096683 kJ/mol
# Density = 2.125959 g / cm^3
# Si number density = 21.308085 Si / 1000 Ang^3
#
#
#
# Elastic Constant Matrix: (Units=GPa)
#
#
# Indices 1 2 3 4 5 6 
#
# 1 144.7038 45.7851 35.6258 0.0000 0.0000 0.0000
# 2 45.7851 109.0165 50.6750 0.0000 0.0000 0.0000
# 3 35.6258 50.6750 106.4585 0.0000 0.0000 0.0000
# 4 0.0000 0.0000 0.0000 -19.4962 0.0000 0.0000
# 5 0.0000 0.0000 0.0000 0.0000 43.1807 0.0000
# 6 0.0000 0.0000 0.0000 0.0000 0.0000 13.7672
#
#
#
# Elastic Compliance Matrix: (Units=1/GPa)
#
#
# Indices 1 2 3 4 5 6 
#
# 1 0.008131 -0.002761 -0.001407 0.000000 0.000000 0.000000
# 2 -0.002761 0.012717 -0.005129 0.000000 0.000000 0.000000
# 3 -0.001407 -0.005129 0.012306 0.000000 0.000000 0.000000
# 4 0.000000 0.000000 0.000000 -0.051292 0.000000 0.000000
# 5 0.000000 0.000000 0.000000 0.000000 0.023158 0.000000
# 6 0.000000 0.000000 0.000000 0.000000 0.000000 0.072636
#
#
# Mechanical properties :
#
#
# Convention : Reuss Voigt Hill
#
# Bulk Modulus (GPa) = 68.68486 69.37228 69.02857
# Shear Modulus (GPa) = 49.45467 22.69652 36.07560
#
# Velocity S-wave (km/s) = 4.82283 3.26722 4.11913
# Velocity P-wave (km/s) = 7.95721 6.84547 7.42218
#
# Compressibility (1/GPa) = 0.01455925
#
# Stress axis : x y z
#
# Youngs Moduli (GPa) = 122.99327 78.63643 81.26321
#
# Poissons Ratio (x) = 0.21710 0.11431
# Poissons Ratio (y) = 0.33956 0.41683
# Poissons Ratio (z) = 0.17301 0.40336
#
# Static dielectric constant tensor:
#      x y z
#    x 1.807840 0.000000 0.000000 
#    y 0.000000 1.777520 0.000000 
#    z 0.000000 0.000000 1.737750 
# 
# From -- ./inp_files/44094.got.cif
#   From: 2010.05.17/outbox.cif.g08.bks.cpg/sg65_23_cif.got.tgz:44094.got - 2010.06.03 17:01:31.
