data_PCOD9487813
_publ_section_title
;
Structure prediction by ZEFSAII (Michael W. Deem and Ramdas Pophale) SiO2 
 PCOD9487813
Probable space group: C M M M
;
_chemical_formula_sum "Si O2"
_cell_formula_units_Z 88
_cell_length_a 29.928905
_cell_length_b 9.292802
_cell_length_c 17.692023
_cell_angle_alpha 90.000000
_cell_angle_beta 90.000000
_cell_angle_gamma 90.000000
_cell_volume 4920.565382
_symmetry_space_group_name_H-M "C M M M"
_symmetry_group_IT_number 65
_symmetry_cell_setting 'orthorhombic'
loop_
_space_group_symop_operation_xyz
x,y,z
-x,-y,z
x,-y,-z
-x,y,-z
-x,-y,-z
x,y,-z
-x,y,z
x,-y,z
1/2+x,1/2+y,z
1/2-x,1/2-y,z
1/2+x,1/2-y,-z
1/2-x,1/2+y,-z
1/2-x,1/2-y,-z
1/2+x,1/2+y,-z
1/2-x,1/2+y,z
1/2+x,1/2-y,z
loop_
_atom_site_type_symbol
_atom_site_label
_atom_site_fract_x
_atom_site_fract_y
_atom_site_fract_z
Si Si1 0.338430 0.338364 0.583587
Si Si2 0.000000 0.325443 0.591601
Si Si3 0.424308 0.332674 0.308919
Si Si4 0.868529 0.334740 0.191171
Si Si5 0.797316 0.167913 0.909364
Si Si6 0.212207 0.656696 0.691865
O O1 0.354159 0.300624 0.500000
O O2 0.320285 0.500000 0.582771
O O3 0.379762 0.338946 0.640402
O O4 0.302131 0.229644 0.614348
O O5 0.958692 0.256491 0.638625
O O6 0.000000 0.500000 0.597043
O O7 0.000000 0.290793 0.500000
O O8 0.438528 0.500000 0.295940
O O9 0.409447 0.251405 0.231264
O O10 0.880206 0.500000 0.168506
O O11 0.840139 0.246523 0.128585
O O12 0.831340 0.348263 0.256799
O O13 0.750000 0.250000 0.895625
O O14 0.794361 0.000000 0.884172
O O15 0.803345 0.168822 0.000000
O O16 0.230383 0.500000 0.680268
O O17 0.250000 0.750000 0.730288
#
# Coordination Sequence:
#
# PCOD9487813 Si02
#       6
#    16   8  16  16  16  16
#     4   9  18  32  48  65  87 117 155 200 247 295
#     4  11  23  37  55  81 112 141 172 217 271 325
#     4  10  20  35  55  77 101 131 169 211 259 317
#     4  10  20  34  52  74 102 135 171 212 260 314
#     4  10  20  33  51  78 111 146 184 224 266 312
#     4  10  20  31  44  63  87 120 161 202 244 291
#
# _framework density 17.884124
#
# number of rings (size 3 to 8) (size 9 to 14) (size 15 to 20)
#    0.000    2.091    0.000    3.545    0.000    7.636 
#    0.000    0.000    0.000    0.000    0.000    0.636 
#    0.000    5.091    0.000    0.000    0.000    0.000 
#
# Total GULP energy -244980.162328 kJ/mol
# GULP energy per Si atom -5567.730962 kJ/mol
# Density = 1.784342 g / cm^3
# Si number density = 17.884124 Si / 1000 Ang^3
#
#
#
# Elastic Constant Matrix: (Units=GPa)
#
#
# Indices 1 2 3 4 5 6 
#
# 1 59.4667 48.6560 22.9551 0.0000 0.0000 0.0000
# 2 48.6560 160.5328 52.9987 0.0000 0.0000 0.0000
# 3 22.9551 52.9987 75.2652 0.0000 0.0000 0.0000
# 4 0.0000 0.0000 0.0000 174.6579 0.0000 0.0000
# 5 0.0000 0.0000 0.0000 0.0000 25.8921 0.0000
# 6 0.0000 0.0000 0.0000 0.0000 0.0000 27.1217
#
#
#
# Elastic Compliance Matrix: (Units=1/GPa)
#
#
# Indices 1 2 3 4 5 6 
#
# 1 0.022780 -0.006007 -0.002718 0.000000 0.000000 0.000000
# 2 -0.006007 0.009700 -0.004998 0.000000 0.000000 0.000000
# 3 -0.002718 -0.004998 0.017635 0.000000 0.000000 0.000000
# 4 0.000000 0.000000 0.000000 0.005725 0.000000 0.000000
# 5 0.000000 0.000000 0.000000 0.000000 0.038622 0.000000
# 6 0.000000 0.000000 0.000000 0.000000 0.000000 0.036871
#
#
# Mechanical properties :
#
#
# Convention : Reuss Voigt Hill
#
# Bulk Modulus (GPa) = 44.11345 60.49825 52.30585
# Shear Modulus (GPa) = 30.05957 56.91134 43.48545
#
# Velocity S-wave (km/s) = 4.10420 5.64724 4.93639
# Velocity P-wave (km/s) = 6.86870 8.74203 7.86137
#
# Compressibility (1/GPa) = 0.02266882
#
# Stress axis : x y z
#
# Youngs Moduli (GPa) = 43.89740 103.09101 56.70599
#
# Poissons Ratio (x) = 0.61930 0.15411
# Poissons Ratio (y) = 0.26371 0.28343
# Poissons Ratio (z) = 0.11930 0.51528
#
# Static dielectric constant tensor:
#      x y z
#    x 1.632040 0.000000 0.000000 
#    y 0.000000 1.649460 0.000000 
#    z 0.000000 0.000000 1.621960 
# 
# From -- ./inp_files/50322.got.cif
#   From: 2010.05.17/outbox.cif.g08.bks.cpg/sg65_26_cif.got.tgz:50322.got - 2010.06.03 17:01:31.
