data_PCOD9487021
_publ_section_title
;
Structure prediction by ZEFSAII (Michael W. Deem and Ramdas Pophale) SiO2 
 PCOD9487021
Probable space group: C M M M
;
_chemical_formula_sum "Si O2"
_cell_formula_units_Z 72
_cell_length_a 13.270862
_cell_length_b 19.041226
_cell_length_c 15.775835
_cell_angle_alpha 90.000000
_cell_angle_beta 90.000000
_cell_angle_gamma 90.000000
_cell_volume 3986.450686
_symmetry_space_group_name_H-M "C M M M"
_symmetry_group_IT_number 65
_symmetry_cell_setting 'orthorhombic'
loop_
_space_group_symop_operation_xyz
x,y,z
-x,-y,z
x,-y,-z
-x,y,-z
-x,-y,-z
x,y,-z
-x,y,z
x,-y,z
1/2+x,1/2+y,z
1/2-x,1/2-y,z
1/2+x,1/2-y,-z
1/2-x,1/2+y,-z
1/2-x,1/2-y,-z
1/2+x,1/2+y,-z
1/2-x,1/2+y,z
1/2+x,1/2-y,z
loop_
_atom_site_type_symbol
_atom_site_label
_atom_site_fract_x
_atom_site_fract_y
_atom_site_fract_z
Si Si1 0.387295 0.417674 0.650769
Si Si2 0.173521 0.147417 0.822099
Si Si3 0.112427 0.693085 0.226959
Si Si4 0.619757 0.419936 0.000000
Si Si5 0.199200 0.326371 0.407809
O O1 0.500000 0.391420 0.627066
O O2 0.383385 0.500000 0.632007
O O3 0.371605 0.404228 0.751151
O O4 0.293230 0.378490 0.608347
O O5 0.132197 0.224693 0.795259
O O6 0.294363 0.152149 0.814104
O O7 0.148120 0.122369 0.915564
O O8 0.126063 0.677325 0.327164
O O9 0.000000 0.674477 0.199579
O O10 0.661243 0.500000 0.000000
O O11 0.500000 0.425446 0.000000
O O12 0.153068 0.340753 0.500000
O O13 0.250000 0.250000 0.409238
#
# Coordination Sequence:
#
# PCOD9487021 Si02
#       5
#    16  16  16   8  16
#     4  10  19  33  55  81 113 149 181 224 285 341
#     4  10  20  35  53  82 113 141 178 226 269 326
#     4  10  19  35  57  79 106 146 187 225 273 324
#     4  11  22  35  57  85 111 141 173 212 272 339
#     4  10  20  34  51  78 111 146 187 231 274 325
#
# _framework density 18.06118
#
# number of rings (size 3 to 8) (size 9 to 14) (size 15 to 20)
#    0.000    1.889    4.444    2.667    0.000    4.889 
#    0.000    5.000    0.000   17.333    0.000    6.222 
#    0.000    0.000    0.000    0.000    0.000    0.000 
#
# Total GULP energy -200694.585609 kJ/mol
# GULP energy per Si atom -5574.849600 kJ/mol
# Density = 1.802007 g / cm^3
# Si number density = 18.061180 Si / 1000 Ang^3
#
#
#
# Elastic Constant Matrix: (Units=GPa)
#
#
# Indices 1 2 3 4 5 6 
#
# 1 109.0937 25.2372 15.8488 0.0000 0.0000 0.0000
# 2 25.2372 63.3111 25.4027 0.0000 0.0000 0.0000
# 3 15.8488 25.4027 115.5272 0.0000 0.0000 0.0000
# 4 0.0000 0.0000 0.0000 -6.8054 0.0000 0.0000
# 5 0.0000 0.0000 0.0000 0.0000 3.4411 0.0000
# 6 0.0000 0.0000 0.0000 0.0000 0.0000 15.2837
#
#
#
# Elastic Compliance Matrix: (Units=1/GPa)
#
#
# Indices 1 2 3 4 5 6 
#
# 1 0.010129 -0.003817 -0.000550 0.000000 0.000000 0.000000
# 2 -0.003817 0.018762 -0.003602 0.000000 0.000000 0.000000
# 3 -0.000550 -0.003602 0.009523 0.000000 0.000000 0.000000
# 4 0.000000 0.000000 0.000000 -0.146942 0.000000 0.000000
# 5 0.000000 0.000000 0.000000 0.000000 0.290607 0.000000
# 6 0.000000 0.000000 0.000000 0.000000 0.000000 0.065429
#
#
# Mechanical properties :
#
#
# Convention : Reuss Voigt Hill
#
# Bulk Modulus (GPa) = 44.49118 46.76773 45.62946
# Shear Modulus (GPa) = 18.45429 17.14674 17.80052
#
# Velocity S-wave (km/s) = 3.19997 3.08453 3.14278
# Velocity P-wave (km/s) = 6.19195 6.21579 6.20388
#
# Compressibility (1/GPa) = 0.02247637
#
# Stress axis : x y z
#
# Youngs Moduli (GPa) = 98.72266 53.29997 105.00398
#
# Poissons Ratio (x) = 0.20345 0.05779
# Poissons Ratio (y) = 0.37682 0.37820
# Poissons Ratio (z) = 0.05433 0.19198
#
# Static dielectric constant tensor:
#      x y z
#    x 1.612990 0.000000 0.000000 
#    y 0.000000 1.614180 0.000000 
#    z 0.000000 0.000000 1.641890 
# 
# From -- ./inp_files/39819.got.cif
#   From: 2010.05.17/outbox.cif.g08.bks.cpg/sg65_20_cif.got.tgz:39819.got - 2010.06.03 17:01:31.
