data_PCOD9487509
_publ_section_title
;
Structure prediction by ZEFSAII (Michael W. Deem and Ramdas Pophale) SiO2 
 PCOD9487509
Probable space group: C M M M
;
_chemical_formula_sum "Si O2"
_cell_formula_units_Z 104
_cell_length_a 29.065908
_cell_length_b 9.015746
_cell_length_c 23.242779
_cell_angle_alpha 90.000000
_cell_angle_beta 90.000000
_cell_angle_gamma 90.000000
_cell_volume 6090.789849
_symmetry_space_group_name_H-M "C M M M"
_symmetry_group_IT_number 65
_symmetry_cell_setting 'orthorhombic'
loop_
_space_group_symop_operation_xyz
x,y,z
-x,-y,z
x,-y,-z
-x,y,-z
-x,-y,-z
x,y,-z
-x,y,z
x,-y,z
1/2+x,1/2+y,z
1/2-x,1/2-y,z
1/2+x,1/2-y,-z
1/2-x,1/2+y,-z
1/2-x,1/2-y,-z
1/2+x,1/2+y,-z
1/2-x,1/2+y,z
1/2+x,1/2-y,z
loop_
_atom_site_type_symbol
_atom_site_label
_atom_site_fract_x
_atom_site_fract_y
_atom_site_fract_z
Si Si1 0.701894 0.677378 0.151810
Si Si2 0.389618 0.823890 0.332791
Si Si3 0.701394 0.677474 0.712261
Si Si4 0.896776 0.178407 0.108844
Si Si5 0.446318 0.676447 0.432272
Si Si6 0.445228 0.675101 0.769505
Si Si7 0.946135 0.322318 0.000000
O O1 0.706023 0.500000 0.147183
O O2 0.750000 0.750000 0.134024
O O3 0.694049 0.711034 0.219597
O O4 0.656488 0.723737 0.117218
O O5 0.340543 0.746673 0.322624
O O6 0.413440 0.767712 0.391015
O O7 0.421847 0.769897 0.280272
O O8 0.384815 0.000000 0.332245
O O9 0.702739 0.500000 0.705992
O O10 0.750000 0.750000 0.696066
O O11 0.923137 0.209757 0.168626
O O12 0.898153 0.000000 0.100441
O O13 0.921368 0.257483 0.056180
O O14 0.438612 0.704321 0.500000
O O15 0.500000 0.710039 0.419684
O O16 0.440016 0.500000 0.422239
O O17 0.500000 0.696074 0.770967
O O18 0.435939 0.500000 0.757875
O O19 0.943337 0.500000 0.000000
O O20 0.000000 0.279527 0.000000
#
# Coordination Sequence:
#
# PCOD9487509 Si02
#       7
#    16  16  16  16  16  16   8
#     4   9  18  33  56  83 110 138 175 221 271 324
#     4  12  23  33  51  82 117 150 183 223 277 333
#     4  10  19  35  56  81 113 145 183 227 274 329
#     4  10  20  38  60  81 104 141 187 227 269 326
#     4   9  19  37  59  80 106 147 195 237 279 328
#     4  10  20  35  55  78 107 143 183 230 280 326
#     4  11  25  41  56  79 110 143 180 227 280 331
#
# _framework density 17.074961999999999
#
# number of rings (size 3 to 8) (size 9 to 14) (size 15 to 20)
#    0.000    1.923    1.538    3.462    0.000    5.846 
#    0.000    1.154    0.000    0.462    0.000    0.000 
#    0.000    0.000    0.000    0.000    0.000    0.000 
#
# Total GULP energy -290418.218768 kJ/mol
# GULP energy per Si atom -5584.965746 kJ/mol
# Density = 1.703610 g / cm^3
# Si number density = 17.074962 Si / 1000 Ang^3
#
#
#
# Elastic Constant Matrix: (Units=GPa)
#
#
# Indices 1 2 3 4 5 6 
#
# 1 154.5808 74.1677 74.1935 0.0000 0.0000 0.0000
# 2 74.1677 69.0153 54.3147 0.0000 0.0000 0.0000
# 3 74.1935 54.3147 76.5884 0.0000 0.0000 0.0000
# 4 0.0000 0.0000 0.0000 -2.1899 0.0000 0.0000
# 5 0.0000 0.0000 0.0000 0.0000 29.3773 0.0000
# 6 0.0000 0.0000 0.0000 0.0000 0.0000 30.7643
#
#
#
# Elastic Compliance Matrix: (Units=1/GPa)
#
#
# Indices 1 2 3 4 5 6 
#
# 1 0.014820 -0.010473 -0.006929 0.000000 0.000000 0.000000
# 2 -0.010473 0.040192 -0.018358 0.000000 0.000000 0.000000
# 3 -0.006929 -0.018358 0.032788 0.000000 0.000000 0.000000
# 4 0.000000 0.000000 0.000000 -0.456633 0.000000 0.000000
# 5 0.000000 0.000000 0.000000 0.000000 0.034040 0.000000
# 6 0.000000 0.000000 0.000000 0.000000 0.000000 0.032505
#
#
# Mechanical properties :
#
#
# Convention : Reuss Voigt Hill
#
# Bulk Modulus (GPa) = 61.42449 78.39293 69.90871
# Shear Modulus (GPa) = -22.18844 18.09089 -2.04877
#
# Velocity S-wave (km/s) = -3.60873 3.25852 -1.09657
# Velocity P-wave (km/s) = 4.32292 7.75681 6.27916
#
# Compressibility (1/GPa) = 0.01628015
#
# Stress axis : x y z
#
# Youngs Moduli (GPa) = 67.47727 24.88081 30.49884
#
# Poissons Ratio (x) = 0.26057 0.21133
# Poissons Ratio (y) = 0.70668 0.55988
# Poissons Ratio (z) = 0.46757 0.45675
#
# Static dielectric constant tensor:
#      x y z
#    x 1.570700 0.000000 0.000000 
#    y 0.000000 1.566440 0.000000 
#    z 0.000000 0.000000 1.553500 
# 
# From -- ./inp_files/65877.got.cif
#   From: 2010.05.17/outbox.cif.g08.bks.cpg/sg65_33_cif.got.tgz:65877.got - 2010.06.03 17:01:31.
