data_PCOD9487171
_publ_section_title
;
Structure prediction by ZEFSAII (Michael W. Deem and Ramdas Pophale) SiO2 
 PCOD9487171
Probable space group: C M M M
;
_chemical_formula_sum "Si O2"
_cell_formula_units_Z 104
_cell_length_a 8.811621
_cell_length_b 26.224775
_cell_length_c 26.734469
_cell_angle_alpha 90.000000
_cell_angle_beta 90.000000
_cell_angle_gamma 90.000000
_cell_volume 6177.875368
_symmetry_space_group_name_H-M "C M M M"
_symmetry_group_IT_number 65
_symmetry_cell_setting 'orthorhombic'
loop_
_space_group_symop_operation_xyz
x,y,z
-x,-y,z
x,-y,-z
-x,y,-z
-x,-y,-z
x,y,-z
-x,y,z
x,-y,z
1/2+x,1/2+y,z
1/2-x,1/2-y,z
1/2+x,1/2-y,-z
1/2-x,1/2+y,-z
1/2-x,1/2-y,-z
1/2+x,1/2+y,-z
1/2-x,1/2+y,z
1/2+x,1/2-y,z
loop_
_atom_site_type_symbol
_atom_site_label
_atom_site_fract_x
_atom_site_fract_y
_atom_site_fract_z
Si Si1 0.182158 0.559630 0.396135
Si Si2 0.184065 0.595656 0.287839
Si Si3 0.680674 0.596095 0.059288
Si Si4 0.181921 0.695601 0.227871
Si Si5 0.321660 0.438637 0.500000
Si Si6 0.181519 0.500000 0.882729
Si Si7 0.817591 0.694782 0.889039
Si Si8 0.318499 0.500000 0.228275
O O1 0.228003 0.500000 0.389473
O O2 0.225885 0.589645 0.346088
O O3 0.249997 0.579726 0.448035
O O4 0.000000 0.560325 0.400198
O O5 0.230122 0.648929 0.262808
O O6 0.257333 0.549480 0.257324
O O7 0.000000 0.591060 0.284370
O O8 0.500000 0.594155 0.068576
O O9 0.760840 0.549947 0.088183
O O10 0.747040 0.649466 0.078789
O O11 0.705877 0.590944 0.000000
O O12 0.250000 0.750000 0.242403
O O13 0.221743 0.685704 0.169629
O O14 0.000000 0.699018 0.230171
O O15 0.295470 0.500000 0.500000
O O16 0.500000 0.429327 0.500000
O O17 0.251488 0.500000 0.827423
O O18 0.000000 0.500000 0.879659
O O19 0.750000 0.750000 0.902771
O O20 0.000000 0.695368 0.893744
O O21 0.500000 0.500000 0.226805
#
# Coordination Sequence:
#
# PCOD9487171 Si02
#       8
#    16  16  16  16   8   8  16   8
#     4   9  16  28  46  68  97 136 177 213 253 307
#     4  10  19  34  53  76 107 142 177 216 260 312
#     4  11  24  41  60  83 110 137 170 217 268 317
#     4   9  19  34  54  77 103 135 172 212 256 305
#     4   9  17  27  41  63  96 135 172 215 260 306
#     4  12  25  41  60  79 105 143 182 215 252 311
#     4  10  20  36  58  83 109 141 177 217 264 317
#     4  12  24  35  53  81 111 141 172 213 263 311
#
# _framework density 16.834266
#
# number of rings (size 3 to 8) (size 9 to 14) (size 15 to 20)
#    0.000    1.923    0.769    3.692    0.000    6.462 
#    0.000    0.000    0.000    0.000    0.000    0.538 
#    0.000    0.000    0.000    0.000    0.000    0.000 
#
# Total GULP energy -290347.781945 kJ/mol
# GULP energy per Si atom -5583.611191 kJ/mol
# Density = 1.679595 g / cm^3
# Si number density = 16.834266 Si / 1000 Ang^3
#
#
#
# Elastic Constant Matrix: (Units=GPa)
#
#
# Indices 1 2 3 4 5 6 
#
# 1 52.4244 42.0231 61.0625 0.0000 0.0000 0.0000
# 2 42.0231 98.8980 70.9518 0.0000 0.0000 0.0000
# 3 61.0625 70.9518 131.6224 0.0000 0.0000 0.0000
# 4 0.0000 0.0000 0.0000 301.1404 0.0000 0.0000
# 5 0.0000 0.0000 0.0000 0.0000 18.4852 0.0000
# 6 0.0000 0.0000 0.0000 0.0000 0.0000 28.3411
#
#
#
# Elastic Compliance Matrix: (Units=1/GPa)
#
#
# Indices 1 2 3 4 5 6 
#
# 1 0.043997 -0.006606 -0.016850 0.000000 0.000000 0.000000
# 2 -0.006606 0.017480 -0.006358 0.000000 0.000000 0.000000
# 3 -0.016850 -0.006358 0.018842 0.000000 0.000000 0.000000
# 4 0.000000 0.000000 0.000000 0.003321 0.000000 0.000000
# 5 0.000000 0.000000 0.000000 0.000000 0.054097 0.000000
# 6 0.000000 0.000000 0.000000 0.000000 0.000000 0.035284
#
#
# Mechanical properties :
#
#
# Convention : Reuss Voigt Hill
#
# Bulk Modulus (GPa) = 48.33159 70.11329 59.22244
# Shear Modulus (GPa) = 20.87280 76.85383 48.86331
#
# Velocity S-wave (km/s) = 3.52504 6.76405 5.39343
# Velocity P-wave (km/s) = 6.73353 10.13621 8.60474
#
# Compressibility (1/GPa) = 0.02069040
#
# Stress axis : x y z
#
# Youngs Moduli (GPa) = 22.72875 57.20900 53.07363
#
# Poissons Ratio (x) = 0.37794 0.89429
# Poissons Ratio (y) = 0.15015 0.33743
# Poissons Ratio (z) = 0.38298 0.36372
#
# Static dielectric constant tensor:
#      x y z
#    x 1.561420 0.000000 0.000000 
#    y 0.000000 1.540580 0.000000 
#    z 0.000000 0.000000 1.565440 
# 
# From -- ./inp_files/73651.got.cif
#   From: 2010.05.17/outbox.cif.g08.bks.cpg/sg65_37_cif.got.tgz:73651.got - 2010.06.03 17:01:31.
