data_PCOD9487735
_publ_section_title
;
Structure prediction by ZEFSAII (Michael W. Deem and Ramdas Pophale) SiO2 
 PCOD9487735
Probable space group: C M M M
;
_chemical_formula_sum "Si O2"
_cell_formula_units_Z 64
_cell_length_a 7.723068
_cell_length_b 15.674114
_cell_length_c 25.685295
_cell_angle_alpha 90.000000
_cell_angle_beta 90.000000
_cell_angle_gamma 90.000000
_cell_volume 3109.262707
_symmetry_space_group_name_H-M "C M M M"
_symmetry_group_IT_number 65
_symmetry_cell_setting 'orthorhombic'
loop_
_space_group_symop_operation_xyz
x,y,z
-x,-y,z
x,-y,-z
-x,y,-z
-x,-y,-z
x,y,-z
-x,y,z
x,-y,z
1/2+x,1/2+y,z
1/2-x,1/2-y,z
1/2+x,1/2-y,-z
1/2-x,1/2+y,-z
1/2-x,1/2-y,-z
1/2+x,1/2+y,-z
1/2-x,1/2+y,z
1/2+x,1/2-y,z
loop_
_atom_site_type_symbol
_atom_site_label
_atom_site_fract_x
_atom_site_fract_y
_atom_site_fract_z
Si Si1 0.292235 0.350980 0.750863
Si Si2 0.204584 0.500000 0.941778
Si Si3 0.207561 0.850279 0.637777
Si Si4 0.000000 0.600102 0.557717
Si Si5 0.705250 0.349617 0.135973
O O1 0.500000 0.361218 0.750229
O O2 0.250000 0.250000 0.751056
O O3 0.236459 0.386688 0.694682
O O4 0.223964 0.379923 0.807258
O O5 0.248597 0.415340 0.909118
O O6 0.000000 0.500000 0.946836
O O7 0.281832 0.500000 0.000000
O O8 0.250000 0.750000 0.641404
O O9 0.328552 0.879966 0.591072
O O10 0.000000 0.863106 0.630402
O O11 0.000000 0.500000 0.551266
O O12 0.000000 0.641253 0.500000
O O13 0.500000 0.351917 0.140832
O O14 0.750000 0.250000 0.126561
#
# Coordination Sequence:
#
# PCOD9487735 Si02
#       5
#    16   8  16   8  16
#     4   8  16  30  55  87 119 149 184 241 302 359
#     4  11  25  43  59  83 121 161 209 256 293 352
#     4  10  19  38  64  92 120 154 203 255 305 360
#     4  11  26  44  58  84 125 163 205 255 305 364
#     4  10  20  38  62  90 121 156 199 246 307 366
#
# _framework density 20.583658
#
# number of rings (size 3 to 8) (size 9 to 14) (size 15 to 20)
#    0.000    2.250    1.250    1.125    1.750    4.000 
#    2.250    1.250    0.000    0.000    0.000    0.000 
#    0.000    0.000    0.000    0.000    0.000    0.000 
#
# Total GULP energy -178267.546043 kJ/mol
# GULP energy per Si atom -5570.860814 kJ/mol
# Density = 2.053681 g / cm^3
# Si number density = 20.583658 Si / 1000 Ang^3
#
#
#
# Elastic Constant Matrix: (Units=GPa)
#
#
# Indices 1 2 3 4 5 6 
#
# 1 89.8773 15.7230 62.8949 0.0000 0.0000 0.0000
# 2 15.7230 66.9691 69.0176 0.0000 0.0000 0.0000
# 3 62.8949 69.0176 241.3302 0.0000 0.0000 0.0000
# 4 0.0000 0.0000 0.0000 32.9126 0.0000 0.0000
# 5 0.0000 0.0000 0.0000 0.0000 24.6719 0.0000
# 6 0.0000 0.0000 0.0000 0.0000 0.0000 16.9502
#
#
#
# Elastic Compliance Matrix: (Units=1/GPa)
#
#
# Indices 1 2 3 4 5 6 
#
# 1 0.013628 0.000653 -0.003739 0.000000 0.000000 0.000000
# 2 0.000653 0.021204 -0.006234 0.000000 0.000000 0.000000
# 3 -0.003739 -0.006234 0.006901 0.000000 0.000000 0.000000
# 4 0.000000 0.000000 0.000000 0.030383 0.000000 0.000000
# 5 0.000000 0.000000 0.000000 0.000000 0.040532 0.000000
# 6 0.000000 0.000000 0.000000 0.000000 0.000000 0.058996
#
#
# Mechanical properties :
#
#
# Convention : Reuss Voigt Hill
#
# Bulk Modulus (GPa) = 43.30150 77.04972 60.17561
# Shear Modulus (GPa) = 25.25482 31.60969 28.43225
#
# Velocity S-wave (km/s) = 3.50656 3.92301 3.72062
# Velocity P-wave (km/s) = 6.12186 7.61799 6.91053
#
# Compressibility (1/GPa) = 0.02309389
#
# Stress axis : x y z
#
# Youngs Moduli (GPa) = 73.37725 47.16114 144.90676
#
# Poissons Ratio (x) = -0.03081 0.54175
# Poissons Ratio (y) = -0.04794 0.90340
# Poissons Ratio (z) = 0.27433 0.29402
#
# Static dielectric constant tensor:
#      x y z
#    x 1.725570 0.000000 0.000000 
#    y 0.000000 1.697190 0.000000 
#    z 0.000000 0.000000 1.871020 
# 
# From -- ./inp_files/66740.got.cif
#   From: 2010.05.17/outbox.cif.g08.bks.cpg/sg65_34_cif.got.tgz:66740.got - 2010.06.03 17:01:31.
