data_PCOD9487757
_publ_section_title
;
Structure prediction by ZEFSAII (Michael W. Deem and Ramdas Pophale) SiO2 
 PCOD9487757
Probable space group: C M M M
;
_chemical_formula_sum "Si O2"
_cell_formula_units_Z 88
_cell_length_a 7.443467
_cell_length_b 28.371295
_cell_length_c 22.410644
_cell_angle_alpha 90.000000
_cell_angle_beta 90.000000
_cell_angle_gamma 90.000000
_cell_volume 4732.697685
_symmetry_space_group_name_H-M "C M M M"
_symmetry_group_IT_number 65
_symmetry_cell_setting 'orthorhombic'
loop_
_space_group_symop_operation_xyz
x,y,z
-x,-y,z
x,-y,-z
-x,y,-z
-x,-y,-z
x,y,-z
-x,y,z
x,-y,z
1/2+x,1/2+y,z
1/2-x,1/2-y,z
1/2+x,1/2-y,-z
1/2-x,1/2+y,-z
1/2-x,1/2-y,-z
1/2+x,1/2+y,-z
1/2-x,1/2+y,z
1/2+x,1/2-y,z
loop_
_atom_site_type_symbol
_atom_site_label
_atom_site_fract_x
_atom_site_fract_y
_atom_site_fract_z
Si Si1 0.217127 0.053688 0.629634
Si Si2 0.211327 0.647406 0.314069
Si Si3 0.291605 0.557515 0.500000
Si Si4 0.214976 0.694071 0.565210
Si Si5 0.215085 0.306241 0.935786
Si Si6 0.215527 0.694145 0.193988
O O1 0.269734 0.091525 0.678597
O O2 0.286521 0.070658 0.564277
O O3 0.000000 0.052647 0.625915
O O4 0.276793 0.000000 0.640001
O O5 0.288170 0.669809 0.375085
O O6 0.286370 0.667859 0.252555
O O7 0.000000 0.659409 0.313931
O O8 0.289054 0.500000 0.500000
O O9 0.500000 0.428137 0.500000
O O10 0.283676 0.677687 0.500000
O O11 0.250000 0.750000 0.569082
O O12 0.000000 0.687159 0.564320
O O13 0.250000 0.250000 0.935772
O O14 0.284180 0.322538 0.871093
O O15 0.000000 0.313108 0.936037
O O16 0.284129 0.324383 0.000000
O O17 0.250000 0.750000 0.199953
O O18 0.000000 0.687861 0.192403
#
# Coordination Sequence:
#
# PCOD9487757 Si02
#       6
#    16  16   8  16  16  16
#     4   9  18  32  48  64  81 102 132 170 209 253
#     4  10  20  30  42  61  85 110 135 168 209 250
#     4   7  12  26  45  61  76  93 118 159 206 245
#     4   9  18  31  43  56  77 105 138 172 201 232
#     4   8  13  22  37  56  79 108 139 168 198 233
#     4   9  17  28  41  60  86 114 143 172 202 238
#
# _framework density 18.594047
#
# number of rings (size 3 to 8) (size 9 to 14) (size 15 to 20)
#    0.000    3.182    0.000    1.636    1.273    1.818 
#    0.000    0.000    0.000    1.636    0.000    0.000 
#    0.000    0.727    0.000    9.091    0.000    1.455 
#
# Total GULP energy -245167.507015 kJ/mol
# GULP energy per Si atom -5571.988796 kJ/mol
# Density = 1.855173 g / cm^3
# Si number density = 18.594047 Si / 1000 Ang^3
#
#
#
# Elastic Constant Matrix: (Units=GPa)
#
#
# Indices 1 2 3 4 5 6 
#
# 1 61.8001 -7.1669 12.9563 0.0000 0.0000 0.0000
# 2 -7.1669 55.7880 71.5355 0.0000 0.0000 0.0000
# 3 12.9563 71.5355 215.6808 0.0000 0.0000 0.0000
# 4 0.0000 0.0000 0.0000 9.6709 0.0000 0.0000
# 5 0.0000 0.0000 0.0000 0.0000 26.4553 0.0000
# 6 0.0000 0.0000 0.0000 0.0000 0.0000 13.8555
#
#
#
# Elastic Compliance Matrix: (Units=1/GPa)
#
#
# Indices 1 2 3 4 5 6 
#
# 1 0.017568 0.006282 -0.003139 0.000000 0.000000 0.000000
# 2 0.006282 0.033436 -0.011467 0.000000 0.000000 0.000000
# 3 -0.003139 -0.011467 0.008628 0.000000 0.000000 0.000000
# 4 0.000000 0.000000 0.000000 0.103403 0.000000 0.000000
# 5 0.000000 0.000000 0.000000 0.000000 0.037800 0.000000
# 6 0.000000 0.000000 0.000000 0.000000 0.000000 0.072173
#
#
# Mechanical properties :
#
#
# Convention : Reuss Voigt Hill
#
# Bulk Modulus (GPa) = 23.26470 54.21318 38.73894
# Shear Modulus (GPa) = 16.44817 27.05926 21.75372
#
# Velocity S-wave (km/s) = 2.97744 3.81893 3.42413
# Velocity P-wave (km/s) = 4.93551 6.97604 6.04253
#
# Compressibility (1/GPa) = 0.04298357
#
# Stress axis : x y z
#
# Youngs Moduli (GPa) = 56.92257 29.90781 115.89652
#
# Poissons Ratio (x) = -0.18787 0.36377
# Poissons Ratio (y) = -0.35757 1.32901
# Poissons Ratio (z) = 0.17867 0.34296
#
# Static dielectric constant tensor:
#      x y z
#    x 1.642210 0.000000 0.000000 
#    y 0.000000 1.620490 0.000000 
#    z 0.000000 0.000000 1.720610 
# 
# From -- ./inp_files/60690.got.cif
#   From: 2010.05.17/outbox.cif.g08.bks.cpg/sg65_31_cif.got.tgz:60690.got - 2010.06.03 17:01:31.
