data_PCOD9487762
_publ_section_title
;
Structure prediction by ZEFSAII (Michael W. Deem and Ramdas Pophale) SiO2 
 PCOD9487762
Probable space group: C M M M
;
_chemical_formula_sum "Si O2"
_cell_formula_units_Z 80
_cell_length_a 7.449495
_cell_length_b 28.381237
_cell_length_c 19.525147
_cell_angle_alpha 90.000000
_cell_angle_beta 90.000000
_cell_angle_gamma 90.000000
_cell_volume 4128.121448
_symmetry_space_group_name_H-M "C M M M"
_symmetry_group_IT_number 65
_symmetry_cell_setting 'orthorhombic'
loop_
_space_group_symop_operation_xyz
x,y,z
-x,-y,z
x,-y,-z
-x,y,-z
-x,-y,-z
x,y,-z
-x,y,z
x,-y,z
1/2+x,1/2+y,z
1/2-x,1/2-y,z
1/2+x,1/2-y,-z
1/2-x,1/2+y,-z
1/2-x,1/2-y,-z
1/2+x,1/2+y,-z
1/2-x,1/2+y,z
1/2+x,1/2-y,z
loop_
_atom_site_type_symbol
_atom_site_label
_atom_site_fract_x
_atom_site_fract_y
_atom_site_fract_z
Si Si1 0.214655 0.306107 0.000000
Si Si2 0.708197 0.557496 0.500000
Si Si3 0.784590 0.305839 0.148845
Si Si4 0.288752 0.852643 0.286637
Si Si5 0.716954 0.446333 0.351215
Si Si6 0.714836 0.194099 0.425149
O O1 0.250000 0.250000 0.000000
O O2 0.284058 0.322566 0.925837
O O3 0.000000 0.313386 0.000000
O O4 0.710585 0.500000 0.500000
O O5 0.500000 0.571883 0.500000
O O6 0.786355 0.570618 0.573770
O O7 0.750000 0.250000 0.155631
O O8 0.713825 0.332130 0.216061
O O9 0.000000 0.312052 0.147112
O O10 0.500000 0.840752 0.286498
O O11 0.269482 0.908499 0.295026
O O12 0.212043 0.830205 0.356657
O O13 0.500000 0.447381 0.355507
O O14 0.776596 0.500000 0.339289
O O15 0.783452 0.177720 0.500000
O O16 0.500000 0.187232 0.426166
O O17 0.750000 0.250000 0.420675
#
# Coordination Sequence:
#
# PCOD9487762 Si02
#       6
#     8   8  16  16  16  16
#     4   8  14  26  44  64  89 118 145 175 214 257
#     4   7  12  26  45  61  78 101 134 179 222 257
#     4   9  17  29  45  67  93 120 148 179 215 258
#     4  10  20  30  43  65  91 116 144 180 223 263
#     4   9  18  32  48  65  85 111 146 186 225 265
#     4   9  18  31  43  57  82 115 148 179 209 246
#
# _framework density 19.379275
#
# number of rings (size 3 to 8) (size 9 to 14) (size 15 to 20)
#    0.000    3.100    0.000    1.800    1.400    2.000 
#    0.000    0.000    0.000    1.800    0.000    0.700 
#    0.000    5.600    0.000    0.000    0.000    0.000 
#
# Total GULP energy -222997.629313 kJ/mol
# GULP energy per Si atom -5574.940733 kJ/mol
# Density = 1.933517 g / cm^3
# Si number density = 19.379275 Si / 1000 Ang^3
#
#
#
# Elastic Constant Matrix: (Units=GPa)
#
#
# Indices 1 2 3 4 5 6 
#
# 1 63.3456 -7.9613 13.6360 0.0000 0.0000 0.0000
# 2 -7.9613 68.0241 81.8224 0.0000 0.0000 0.0000
# 3 13.6360 81.8224 214.5499 0.0000 0.0000 0.0000
# 4 0.0000 0.0000 0.0000 14.3694 0.0000 0.0000
# 5 0.0000 0.0000 0.0000 0.0000 -732.0635 0.0000
# 6 0.0000 0.0000 0.0000 0.0000 0.0000 15.9468
#
#
#
# Elastic Compliance Matrix: (Units=1/GPa)
#
#
# Indices 1 2 3 4 5 6 
#
# 1 0.017309 0.006187 -0.003460 0.000000 0.000000 0.000000
# 2 0.006187 0.029371 -0.011594 0.000000 0.000000 0.000000
# 3 -0.003460 -0.011594 0.009303 0.000000 0.000000 0.000000
# 4 0.000000 0.000000 0.000000 0.069592 0.000000 0.000000
# 5 0.000000 0.000000 0.000000 0.000000 -0.001366 0.000000
# 6 0.000000 0.000000 0.000000 0.000000 0.000000 0.062708
#
#
# Mechanical properties :
#
#
# Convention : Reuss Voigt Hill
#
# Bulk Modulus (GPa) = 26.14469 57.87932 42.01201
# Shear Modulus (GPa) = 22.99904 -123.12129 -50.06112
#
# Velocity S-wave (km/s) = 3.44871 -7.97937 -5.08806
# Velocity P-wave (km/s) = 5.42019 7.41366 3.57658
#
# Compressibility (1/GPa) = 0.03824868
#
# Stress axis : x y z
#
# Youngs Moduli (GPa) = 57.77411 34.04706 107.49740
#
# Poissons Ratio (x) = -0.21066 0.37191
# Poissons Ratio (y) = -0.35746 1.24637
# Poissons Ratio (z) = 0.19988 0.39476
#
# Static dielectric constant tensor:
#      x y z
#    x 1.755070 0.000000 0.000000 
#    y 0.000000 1.664890 0.000000 
#    z 0.000000 0.000000 1.739900 
# 
# From -- ./inp_files/50159.got.cif
#   From: 2010.05.17/outbox.cif.g08.bks.cpg/sg65_26_cif.got.tgz:50159.got - 2010.06.03 17:01:31.
