data_PCOD9487349
_publ_section_title
;
Structure prediction by ZEFSAII (Michael W. Deem and Ramdas Pophale) SiO2 
 PCOD9487349
Probable space group: C M M M
;
_chemical_formula_sum "Si O2"
_cell_formula_units_Z 64
_cell_length_a 8.703291
_cell_length_b 15.629570
_cell_length_c 23.832373
_cell_angle_alpha 90.000000
_cell_angle_beta 90.000000
_cell_angle_gamma 90.000000
_cell_volume 3241.886620
_symmetry_space_group_name_H-M "C M M M"
_symmetry_group_IT_number 65
_symmetry_cell_setting 'orthorhombic'
loop_
_space_group_symop_operation_xyz
x,y,z
-x,-y,z
x,-y,-z
-x,y,-z
-x,-y,-z
x,y,-z
-x,y,z
x,-y,z
1/2+x,1/2+y,z
1/2-x,1/2-y,z
1/2+x,1/2-y,-z
1/2-x,1/2+y,-z
1/2-x,1/2-y,-z
1/2+x,1/2+y,-z
1/2-x,1/2+y,z
1/2+x,1/2-y,z
loop_
_atom_site_type_symbol
_atom_site_label
_atom_site_fract_x
_atom_site_fract_y
_atom_site_fract_z
Si Si1 0.331829 0.100290 0.500000
Si Si2 0.814813 0.153612 0.263714
Si Si3 0.314704 0.346955 0.139410
Si Si4 0.316160 0.654716 0.384005
Si Si5 0.815874 0.500000 0.065872
O O1 0.500000 0.143996 0.500000
O O2 0.246068 0.120033 0.557636
O O3 0.351089 0.000000 0.500000
O O4 0.750000 0.250000 0.263864
O O5 0.770767 0.119740 0.202370
O O6 0.769070 0.113080 0.323813
O O7 0.000000 0.156805 0.264224
O O8 0.500000 0.343232 0.136042
O O9 0.250000 0.250000 0.132479
O O10 0.250818 0.415045 0.095344
O O11 0.500000 0.654729 0.386371
O O12 0.250000 0.750000 0.381195
O O13 0.000000 0.500000 0.071762
O O14 0.777411 0.500000 0.000000
#
# Coordination Sequence:
#
# PCOD9487349 Si02
#       5
#     8  16  16  16   8
#     4  11  24  39  50  67 103 143 184 231 278 329
#     4   8  16  31  54  84 112 140 177 226 278 336
#     4  10  20  38  64  92 124 159 198 245 300 355
#     4  10  19  34  57  81 105 137 179 224 276 334
#     4  11  25  43  61  87 123 162 207 250 289 345
#
# _framework density 19.741589999999999
#
# number of rings (size 3 to 8) (size 9 to 14) (size 15 to 20)
#    0.000    2.250    0.000    2.625    0.000    4.500 
#    2.250    0.000    0.000    0.000    0.000    0.000 
#    0.000    0.000    0.000    0.000    0.000    0.000 
#
# Total GULP energy -178271.230200 kJ/mol
# GULP energy per Si atom -5570.975944 kJ/mol
# Density = 1.969666 g / cm^3
# Si number density = 19.741590 Si / 1000 Ang^3
#
#
#
# Elastic Constant Matrix: (Units=GPa)
#
#
# Indices 1 2 3 4 5 6 
#
# 1 65.8421 29.4336 76.5140 0.0000 0.0000 0.0000
# 2 29.4336 75.8757 78.7893 0.0000 0.0000 0.0000
# 3 76.5140 78.7893 243.6905 0.0000 0.0000 0.0000
# 4 0.0000 0.0000 0.0000 78.7723 0.0000 0.0000
# 5 0.0000 0.0000 0.0000 0.0000 26.1980 0.0000
# 6 0.0000 0.0000 0.0000 0.0000 0.0000 18.0838
#
#
#
# Elastic Compliance Matrix: (Units=1/GPa)
#
#
# Indices 1 2 3 4 5 6 
#
# 1 0.024166 -0.002251 -0.006860 0.000000 0.000000 0.000000
# 2 -0.002251 0.020050 -0.005776 0.000000 0.000000 0.000000
# 3 -0.006860 -0.005776 0.008125 0.000000 0.000000 0.000000
# 4 0.000000 0.000000 0.000000 0.012695 0.000000 0.000000
# 5 0.000000 0.000000 0.000000 0.000000 0.038171 0.000000
# 6 0.000000 0.000000 0.000000 0.000000 0.000000 0.055298
#
#
# Mechanical properties :
#
#
# Convention : Reuss Voigt Hill
#
# Bulk Modulus (GPa) = 44.31165 83.87579 64.09372
# Shear Modulus (GPa) = 25.53619 37.98892 31.76256
#
# Velocity S-wave (km/s) = 3.60046 4.39145 4.01548
# Velocity P-wave (km/s) = 6.30706 8.26391 7.35089
#
# Compressibility (1/GPa) = 0.02256743
#
# Stress axis : x y z
#
# Youngs Moduli (GPa) = 41.38079 49.87461 123.08031
#
# Poissons Ratio (x) = 0.11228 0.84430
# Poissons Ratio (y) = 0.09316 0.71088
# Poissons Ratio (z) = 0.28386 0.28806
#
# Static dielectric constant tensor:
#      x y z
#    x 1.726060 0.000000 0.000000 
#    y 0.000000 1.646440 0.000000 
#    z 0.000000 0.000000 1.786590 
# 
# From -- ./inp_files/66825.got.cif
#   From: 2010.05.17/outbox.cif.g08.bks.cpg/sg65_34_cif.got.tgz:66825.got - 2010.06.03 17:01:31.
