data_PCOD9487233
_publ_section_title
;
Structure prediction by ZEFSAII (Michael W. Deem and Ramdas Pophale) SiO2 
 PCOD9487233
Probable space group: C M M M
;
_chemical_formula_sum "Si O2"
_cell_formula_units_Z 92
_cell_length_a 7.378381
_cell_length_b 26.168292
_cell_length_c 23.925354
_cell_angle_alpha 90.000000
_cell_angle_beta 90.000000
_cell_angle_gamma 90.000000
_cell_volume 4619.498462
_symmetry_space_group_name_H-M "C M M M"
_symmetry_group_IT_number 65
_symmetry_cell_setting 'orthorhombic'
loop_
_space_group_symop_operation_xyz
x,y,z
-x,-y,z
x,-y,-z
-x,y,-z
-x,-y,-z
x,y,-z
-x,y,z
x,-y,z
1/2+x,1/2+y,z
1/2-x,1/2-y,z
1/2+x,1/2-y,-z
1/2-x,1/2+y,-z
1/2-x,1/2-y,-z
1/2+x,1/2+y,-z
1/2-x,1/2+y,z
1/2+x,1/2-y,z
loop_
_atom_site_type_symbol
_atom_site_label
_atom_site_fract_x
_atom_site_fract_y
_atom_site_fract_z
Si Si1 0.716737 0.191912 0.936510
Si Si2 0.500000 0.500000 0.587947
Si Si3 0.283050 0.500000 0.064173
Si Si4 0.219799 0.558751 0.745900
Si Si5 0.720558 0.911914 0.620321
Si Si6 0.284357 0.193416 0.563454
Si Si7 0.212627 0.399887 0.137451
O O1 0.500000 0.185151 0.939681
O O2 0.750000 0.250000 0.918228
O O3 0.789562 0.148741 0.895241
O O4 0.787180 0.186196 0.000000
O O5 0.339927 0.455230 0.590645
O O6 0.500000 0.500000 0.062531
O O7 0.226193 0.449711 0.098123
O O8 0.216821 0.500000 0.000000
O O9 0.282805 0.500000 0.745856
O O10 0.263367 0.583040 0.686345
O O11 0.287492 0.586815 0.801443
O O12 0.000000 0.557163 0.749258
O O13 0.500000 0.919403 0.613679
O O14 0.773191 0.855990 0.597965
O O15 0.210283 0.192177 0.500000
O O16 0.500000 0.188758 0.559577
O O17 0.250000 0.250000 0.587247
O O18 0.000000 0.389309 0.146056
#
# Coordination Sequence:
#
# PCOD9487233 Si02
#       7
#    16   4   8  16  16  16  16
#     4   9  18  32  51  72  95 127 167 212 261 318
#     4  12  22  34  61  88 116 158 201 244 290 352
#     4  11  23  34  45  71 109 136 158 207 274 320
#     4   9  16  32  55  75 104 144 177 218 278 330
#     4  10  21  38  58  86 122 157 198 246 297 353
#     4   9  19  37  62  88 119 160 202 249 301 353
#     4  10  19  34  55  76  96 131 181 217 258 320
#
# _framework density 19.915582000000001
#
# number of rings (size 3 to 8) (size 9 to 14) (size 15 to 20)
#    0.000    2.348    1.739    1.043    1.217    2.087 
#    3.130    3.478    0.000    2.087    0.000    0.000 
#    0.000    0.000    0.000    0.000    0.000    0.000 
#
# Total GULP energy -256128.102753 kJ/mol
# GULP energy per Si atom -5568.002234 kJ/mol
# Density = 1.987025 g / cm^3
# Si number density = 19.915582 Si / 1000 Ang^3
#
#
#
# Elastic Constant Matrix: (Units=GPa)
#
#
# Indices 1 2 3 4 5 6 
#
# 1 89.0858 17.4925 9.1978 0.0000 0.0000 0.0000
# 2 17.4925 211.4512 79.2308 0.0000 0.0000 0.0000
# 3 9.1978 79.2308 57.6854 0.0000 0.0000 0.0000
# 4 0.0000 0.0000 0.0000 -70.9983 0.0000 0.0000
# 5 0.0000 0.0000 0.0000 0.0000 12.5380 0.0000
# 6 0.0000 0.0000 0.0000 0.0000 0.0000 22.3911
#
#
#
# Elastic Compliance Matrix: (Units=1/GPa)
#
#
# Indices 1 2 3 4 5 6 
#
# 1 0.011443 -0.000542 -0.001080 0.000000 0.000000 0.000000
# 2 -0.000542 0.009770 -0.013332 0.000000 0.000000 0.000000
# 3 -0.001080 -0.013332 0.035819 0.000000 0.000000 0.000000
# 4 0.000000 0.000000 0.000000 -0.014085 0.000000 0.000000
# 5 0.000000 0.000000 0.000000 0.000000 0.079758 0.000000
# 6 0.000000 0.000000 0.000000 0.000000 0.000000 0.044661
#
#
# Mechanical properties :
#
#
# Convention : Reuss Voigt Hill
#
# Bulk Modulus (GPa) = 36.86861 63.34050 50.10456
# Shear Modulus (GPa) = 24.23474 9.60624 16.92049
#
# Velocity S-wave (km/s) = 3.49216 2.19862 2.91797
# Velocity P-wave (km/s) = 5.90024 6.19022 6.04697
#
# Compressibility (1/GPa) = 0.02712335
#
# Stress axis : x y z
#
# Youngs Moduli (GPa) = 87.38917 102.35827 27.91787
#
# Poissons Ratio (x) = 0.05546 0.03016
# Poissons Ratio (y) = 0.04735 0.37221
# Poissons Ratio (z) = 0.09441 1.36466
#
# Static dielectric constant tensor:
#      x y z
#    x 1.758830 0.000000 0.000000 
#    y 0.000000 1.675870 0.000000 
#    z 0.000000 0.000000 1.717430 
# 
# From -- ./inp_files/67923.got.cif
#   From: 2010.05.17/outbox.cif.g08.bks.cpg/sg65_34_cif.got.tgz:67923.got - 2010.06.03 17:01:31.
