data_PCOD9487697
_publ_section_title
;
Structure prediction by ZEFSAII (Michael W. Deem and Ramdas Pophale) SiO2 
 PCOD9487697
Probable space group: C M M M
;
_chemical_formula_sum "Si O2"
_cell_formula_units_Z 104
_cell_length_a 21.818075
_cell_length_b 24.452585
_cell_length_c 10.235256
_cell_angle_alpha 90.000000
_cell_angle_beta 90.000000
_cell_angle_gamma 90.000000
_cell_volume 5460.594371
_symmetry_space_group_name_H-M "C M M M"
_symmetry_group_IT_number 65
_symmetry_cell_setting 'orthorhombic'
loop_
_space_group_symop_operation_xyz
x,y,z
-x,-y,z
x,-y,-z
-x,y,-z
-x,-y,-z
x,y,-z
-x,y,z
x,-y,z
1/2+x,1/2+y,z
1/2-x,1/2-y,z
1/2+x,1/2-y,-z
1/2-x,1/2+y,-z
1/2-x,1/2-y,-z
1/2+x,1/2+y,-z
1/2-x,1/2+y,z
1/2+x,1/2-y,z
loop_
_atom_site_type_symbol
_atom_site_label
_atom_site_fract_x
_atom_site_fract_y
_atom_site_fract_z
Si Si1 0.112208 0.181165 0.651968
Si Si2 0.283753 0.000000 0.349471
Si Si3 0.246739 0.315041 0.652417
Si Si4 0.668371 0.500000 0.153319
Si Si5 0.852050 0.393137 0.251841
Si Si6 0.573199 0.933980 0.000000
Si Si7 0.068338 0.093885 0.150702
Si Si8 0.932741 0.701998 0.654252
O O1 0.092795 0.175951 0.500000
O O2 0.183466 0.165144 0.657895
O O3 0.074841 0.142882 0.747836
O O4 0.105229 0.244469 0.694946
O O5 0.324908 0.053566 0.322226
O O6 0.262887 0.000000 0.500000
O O7 0.226375 0.000000 0.249426
O O8 0.224565 0.321385 0.500000
O O9 0.250000 0.250000 0.677524
O O10 0.205048 0.350289 0.749714
O O11 0.623291 0.551484 0.173965
O O12 0.688089 0.500000 0.000000
O O13 0.887483 0.412262 0.122623
O O14 0.901888 0.355950 0.323812
O O15 0.500000 0.918166 0.000000
O O16 0.574308 0.000000 0.000000
O O17 0.000000 0.069147 0.163664
O O18 0.073881 0.112686 0.000000
O O19 0.938089 0.708333 0.500000
O O20 0.000000 0.704266 0.715437
#
# Coordination Sequence:
#
# PCOD9487697 Si02
#       8
#    16   8  16   8  16   8  16  16
#     4  10  20  37  60  91 128 170 210 254 320 383
#     4  12  26  41  67 100 130 160 206 273 324 378
#     4  10  19  36  63  93 129 167 204 259 325 387
#     4  10  23  42  66  88 123 169 213 257 320 386
#     4  12  23  42  65  93 126 165 214 258 320 385
#     4  11  26  50  71  90 126 180 225 265 323 394
#     4  10  21  39  61  88 122 166 217 266 311 369
#     4  10  20  36  61  90 122 162 210 263 317 376
#
# _framework density 19.045546999999999
#
# number of rings (size 3 to 8) (size 9 to 14) (size 15 to 20)
#    0.000    1.462    2.308    3.462    1.077    3.692 
#    2.769    0.385    0.000    3.231    0.000    0.000 
#    0.000    0.000    0.000    0.000    0.000    0.000 
#
# Total GULP energy -289922.326893 kJ/mol
# GULP energy per Si atom -5575.429363 kJ/mol
# Density = 1.900220 g / cm^3
# Si number density = 19.045547 Si / 1000 Ang^3
#
#
#
# Elastic Constant Matrix: (Units=GPa)
#
#
# Indices 1 2 3 4 5 6 
#
# 1 119.4091 48.2005 60.7667 0.0000 0.0000 0.0000
# 2 48.2005 111.0263 55.7553 0.0000 0.0000 0.0000
# 3 60.7667 55.7553 87.9976 0.0000 0.0000 0.0000
# 4 0.0000 0.0000 0.0000 49.6874 0.0000 0.0000
# 5 0.0000 0.0000 0.0000 0.0000 28.7592 0.0000
# 6 0.0000 0.0000 0.0000 0.0000 0.0000 31.5397
#
#
#
# Elastic Compliance Matrix: (Units=1/GPa)
#
#
# Indices 1 2 3 4 5 6 
#
# 1 0.013123 -0.001681 -0.007997 0.000000 0.000000 0.000000
# 2 -0.001681 0.013426 -0.007345 0.000000 0.000000 0.000000
# 3 -0.007997 -0.007345 0.021540 0.000000 0.000000 0.000000
# 4 0.000000 0.000000 0.000000 0.020126 0.000000 0.000000
# 5 0.000000 0.000000 0.000000 0.000000 0.034771 0.000000
# 6 0.000000 0.000000 0.000000 0.000000 0.000000 0.031706
#
#
# Mechanical properties :
#
#
# Convention : Reuss Voigt Hill
#
# Bulk Modulus (GPa) = 71.21662 71.98645 71.60153
# Shear Modulus (GPa) = 28.83196 32.24462 30.53829
#
# Velocity S-wave (km/s) = 3.89503 4.11910 4.00864
# Velocity P-wave (km/s) = 7.59621 7.77829 7.68779
#
# Compressibility (1/GPa) = 0.01404167
#
# Stress axis : x y z
#
# Youngs Moduli (GPa) = 76.20409 74.48505 46.42520
#
# Poissons Ratio (x) = 0.12523 0.37124
# Poissons Ratio (y) = 0.12812 0.34101
# Poissons Ratio (z) = 0.60937 0.54712
#
# Static dielectric constant tensor:
#      x y z
#    x 1.706020 0.000000 0.000000 
#    y 0.000000 1.659280 0.000000 
#    z 0.000000 0.000000 1.646510 
# 
# From -- ./inp_files/12470.got.cif
#   From: 2010.05.17/outbox.cif.g08.bks.cpg/sg65_7_cif.got.tgz:12470.got - 2010.06.03 17:01:31.
