data_PCOD9487419
_publ_section_title
;
Structure prediction by ZEFSAII (Michael W. Deem and Ramdas Pophale) SiO2 
 PCOD9487419
Probable space group: C M M M
;
_chemical_formula_sum "Si O2"
_cell_formula_units_Z 72
_cell_length_a 19.920304
_cell_length_b 19.038258
_cell_length_c 10.868190
_cell_angle_alpha 90.000000
_cell_angle_beta 90.000000
_cell_angle_gamma 90.000000
_cell_volume 4121.738093
_symmetry_space_group_name_H-M "C M M M"
_symmetry_group_IT_number 65
_symmetry_cell_setting 'orthorhombic'
loop_
_space_group_symop_operation_xyz
x,y,z
-x,-y,z
x,-y,-z
-x,y,-z
-x,-y,-z
x,y,-z
-x,y,z
x,-y,z
1/2+x,1/2+y,z
1/2-x,1/2-y,z
1/2+x,1/2-y,-z
1/2-x,1/2+y,-z
1/2-x,1/2-y,-z
1/2+x,1/2+y,-z
1/2-x,1/2+y,z
1/2+x,1/2-y,z
loop_
_atom_site_type_symbol
_atom_site_label
_atom_site_fract_x
_atom_site_fract_y
_atom_site_fract_z
Si Si1 0.919208 0.921260 0.500000
Si Si2 0.332071 0.083910 0.855366
Si Si3 0.211804 0.818330 0.145684
Si Si4 0.578854 0.848718 0.360698
Si Si5 0.922063 0.186732 0.713526
O O1 0.903399 0.874073 0.382551
O O2 0.000000 0.926770 0.500000
O O3 0.891119 0.000000 0.500000
O O4 0.258221 0.114708 0.825904
O O5 0.381340 0.116942 0.753031
O O6 0.333818 0.000000 0.848047
O O7 0.347707 0.103385 0.000000
O O8 0.250000 0.750000 0.199449
O O9 0.135110 0.818515 0.185345
O O10 0.212263 0.811760 0.000000
O O11 0.601933 0.867675 0.500000
O O12 0.500000 0.867666 0.351503
O O13 0.582694 0.764114 0.346521
O O14 0.000000 0.177754 0.752307
#
# Coordination Sequence:
#
# PCOD9487419 Si02
#       5
#     8  16  16  16  16
#     4   9  18  34  55  80 113 149 183 226 281 335
#     4  10  22  40  59  81 115 157 195 234 285 346
#     4  10  20  36  57  81 111 148 188 235 286 336
#     4  10  20  36  59  86 118 152 189 239 290 336
#     4  10  19  34  58  85 113 147 188 232 282 343
#
# _framework density 17.468359
#
# number of rings (size 3 to 8) (size 9 to 14) (size 15 to 20)
#    0.000    2.111    3.333    0.000    0.000    2.667 
#    2.000    6.111    0.000    0.000    0.000    6.222 
#    0.000    0.000    0.000    0.000    0.000    0.000 
#
# Total GULP energy -200459.425961 kJ/mol
# GULP energy per Si atom -5568.317388 kJ/mol
# Density = 1.742860 g / cm^3
# Si number density = 17.468359 Si / 1000 Ang^3
#
#
#
# Elastic Constant Matrix: (Units=GPa)
#
#
# Indices 1 2 3 4 5 6 
#
# 1 102.1191 39.0948 59.6271 0.0000 0.0000 0.0000
# 2 39.0948 97.9634 46.0372 0.0000 0.0000 0.0000
# 3 59.6271 46.0372 79.7371 0.0000 0.0000 0.0000
# 4 0.0000 0.0000 0.0000 50.5662 0.0000 0.0000
# 5 0.0000 0.0000 0.0000 0.0000 -333.2673 0.0000
# 6 0.0000 0.0000 0.0000 0.0000 0.0000 24.1174
#
#
#
# Elastic Compliance Matrix: (Units=1/GPa)
#
#
# Indices 1 2 3 4 5 6 
#
# 1 0.017475 -0.001143 -0.012408 0.000000 0.000000 0.000000
# 2 -0.001143 0.014084 -0.007277 0.000000 0.000000 0.000000
# 3 -0.012408 -0.007277 0.026021 0.000000 0.000000 0.000000
# 4 0.000000 0.000000 0.000000 0.019776 0.000000 0.000000
# 5 0.000000 0.000000 0.000000 0.000000 -0.003001 0.000000
# 6 0.000000 0.000000 0.000000 0.000000 0.000000 0.041464
#
#
# Mechanical properties :
#
#
# Convention : Reuss Voigt Hill
#
# Bulk Modulus (GPa) = 62.79530 63.25975 63.02752
# Shear Modulus (GPa) = 30.71594 -42.71269 -5.99837
#
# Velocity S-wave (km/s) = 4.19785 -4.95021 -1.85508
# Velocity P-wave (km/s) = 7.71505 1.90258 5.61880
#
# Compressibility (1/GPa) = 0.01592476
#
# Stress axis : x y z
#
# Youngs Moduli (GPa) = 57.22493 71.00444 38.43042
#
# Poissons Ratio (x) = 0.08115 0.47684
# Poissons Ratio (y) = 0.06540 0.27965
# Poissons Ratio (z) = 0.71004 0.51668
#
# Static dielectric constant tensor:
#      x y z
#    x 1.573410 0.000000 0.000000 
#    y 0.000000 1.618130 0.000000 
#    z 0.000000 0.000000 1.613820 
# 
# From -- ./inp_files/26326.got.cif
#   From: 2010.05.17/outbox.cif.g08.bks.cpg/sg65_14_cif.got.tgz:26326.got - 2010.06.03 17:01:31.
