data_PCOD9487900
_publ_section_title
;
Structure prediction by ZEFSAII (Michael W. Deem and Ramdas Pophale) SiO2 
 PCOD9487900
Probable space group: C M M M
;
_chemical_formula_sum "Si O2"
_cell_formula_units_Z 120
_cell_length_a 17.410561
_cell_length_b 15.501872
_cell_length_c 24.761096
_cell_angle_alpha 90.000000
_cell_angle_beta 90.000000
_cell_angle_gamma 90.000000
_cell_volume 6682.927899
_symmetry_space_group_name_H-M "C M M M"
_symmetry_group_IT_number 65
_symmetry_cell_setting 'orthorhombic'
loop_
_space_group_symop_operation_xyz
x,y,z
-x,-y,z
x,-y,-z
-x,y,-z
-x,-y,-z
x,y,-z
-x,y,z
x,-y,z
1/2+x,1/2+y,z
1/2-x,1/2-y,z
1/2+x,1/2-y,-z
1/2-x,1/2+y,-z
1/2-x,1/2-y,-z
1/2+x,1/2+y,-z
1/2-x,1/2+y,z
1/2+x,1/2-y,z
loop_
_atom_site_type_symbol
_atom_site_label
_atom_site_fract_x
_atom_site_fract_y
_atom_site_fract_z
Si Si1 0.157522 0.745589 0.833533
Si Si2 0.408111 0.100963 0.365927
Si Si3 0.907080 0.811067 0.061946
Si Si4 0.657971 0.251625 0.437603
Si Si5 0.152030 0.901233 0.243591
Si Si6 0.336911 0.099341 0.249860
Si Si7 0.408484 0.401219 0.636706
Si Si8 0.087182 0.000000 0.065506
O O1 0.250000 0.750000 0.837674
O O2 0.122515 0.746365 0.893024
O O3 0.130660 0.830497 0.800707
O O4 0.137143 0.663499 0.797034
O O5 0.500000 0.109721 0.363089
O O6 0.374968 0.165150 0.410437
O O7 0.371590 0.123884 0.307842
O O8 0.389941 0.000000 0.376574
O O9 0.877281 0.907300 0.078341
O O10 0.000000 0.814711 0.062472
O O11 0.884008 0.792994 0.000000
O O12 0.633709 0.258445 0.500000
O O13 0.750000 0.250000 0.435450
O O14 0.629054 0.332604 0.402921
O O15 0.244151 0.895827 0.252300
O O16 0.113465 0.882697 0.301187
O O17 0.133247 0.000000 0.227643
O O18 0.358276 0.000000 0.239184
O O19 0.500000 0.397024 0.631065
O O20 0.383189 0.500000 0.625634
O O21 0.000000 0.000000 0.087196
O O22 0.081716 0.000000 0.000000
#
# Coordination Sequence:
#
# PCOD9487900 Si02
#       8
#    16  16  16  16  16  16  16   8
#     4  10  20  31  48  76 104 136 172 214 256 302
#     4  10  21  37  59  84 107 135 174 224 278 320
#     4   9  18  32  50  72 100 135 172 210 257 312
#     4  11  24  39  56  79 107 143 185 223 260 313
#     4   9  18  32  51  76 107 139 171 208 256 315
#     4   9  18  34  53  74 104 139 175 214 257 310
#     4  10  21  37  57  82 112 143 175 216 267 322
#     4   7  12  26  46  68  94 124 159 197 240 298
#
# _framework density 17.956201
#
# number of rings (size 3 to 8) (size 9 to 14) (size 15 to 20)
#    0.000    2.467    0.000    2.800    0.933    5.600 
#    0.000    2.667    0.000    0.400    0.000    0.933 
#    0.000    0.000    0.000    0.000    0.000    0.000 
#
# Total GULP energy -334751.258824 kJ/mol
# GULP energy per Si atom -5579.187647 kJ/mol
# Density = 1.791533 g / cm^3
# Si number density = 17.956201 Si / 1000 Ang^3
#
#
#
# Elastic Constant Matrix: (Units=GPa)
#
#
# Indices 1 2 3 4 5 6 
#
# 1 15.4193 19.9269 22.9474 0.0000 0.0000 0.0000
# 2 19.9269 67.9289 65.7216 0.0000 0.0000 0.0000
# 3 22.9474 65.7216 115.8822 0.0000 0.0000 0.0000
# 4 0.0000 0.0000 0.0000 14.7919 0.0000 0.0000
# 5 0.0000 0.0000 0.0000 0.0000 44.8254 0.0000
# 6 0.0000 0.0000 0.0000 0.0000 0.0000 14.3007
#
#
#
# Elastic Compliance Matrix: (Units=1/GPa)
#
#
# Indices 1 2 3 4 5 6 
#
# 1 0.107336 -0.024203 -0.007529 0.000000 0.000000 0.000000
# 2 -0.024203 0.038078 -0.016803 0.000000 0.000000 0.000000
# 3 -0.007529 -0.016803 0.019650 0.000000 0.000000 0.000000
# 4 0.000000 0.000000 0.000000 0.067605 0.000000 0.000000
# 5 0.000000 0.000000 0.000000 0.000000 0.022309 0.000000
# 6 0.000000 0.000000 0.000000 0.000000 0.000000 0.069927
#
#
# Mechanical properties :
#
#
# Convention : Reuss Voigt Hill
#
# Bulk Modulus (GPa) = 14.70693 46.26915 30.48804
# Shear Modulus (GPa) = 11.24508 20.82589 16.03549
#
# Velocity S-wave (km/s) = 2.50521 3.40930 2.99161
# Velocity P-wave (km/s) = 4.07141 6.42818 5.38042
#
# Compressibility (1/GPa) = 0.06799516
#
# Stress axis : x y z
#
# Youngs Moduli (GPa) = 9.31651 26.26174 50.89085
#
# Poissons Ratio (x) = 0.63562 0.38313
# Poissons Ratio (y) = 0.22549 0.85511
# Poissons Ratio (z) = 0.07014 0.44127
#
# Static dielectric constant tensor:
#      x y z
#    x 1.602970 0.000000 0.000000 
#    y 0.000000 1.635690 0.000000 
#    z 0.000000 0.000000 1.589090 
# 
# From -- ./inp_files/64744.got.cif
#   From: 2010.05.17/outbox.cif.g08.bks.cpg/sg65_33_cif.got.tgz:64744.got - 2010.06.03 17:01:31.
