data_PCOD9487640
_publ_section_title
;
Structure prediction by ZEFSAII (Michael W. Deem and Ramdas Pophale) SiO2 
 PCOD9487640
Probable space group: C M M M
;
_chemical_formula_sum "Si O2"
_cell_formula_units_Z 66
_cell_length_a 16.261214
_cell_length_b 12.107099
_cell_length_c 16.820567
_cell_angle_alpha 90.000000
_cell_angle_beta 90.000000
_cell_angle_gamma 90.000000
_cell_volume 3311.568098
_symmetry_space_group_name_H-M "C M M M"
_symmetry_group_IT_number 65
_symmetry_cell_setting 'orthorhombic'
loop_
_space_group_symop_operation_xyz
x,y,z
-x,-y,z
x,-y,-z
-x,y,-z
-x,-y,-z
x,y,-z
-x,y,z
x,-y,z
1/2+x,1/2+y,z
1/2-x,1/2-y,z
1/2+x,1/2-y,-z
1/2-x,1/2+y,-z
1/2-x,1/2-y,-z
1/2+x,1/2+y,-z
1/2-x,1/2+y,z
1/2+x,1/2-y,z
loop_
_atom_site_type_symbol
_atom_site_label
_atom_site_fract_x
_atom_site_fract_y
_atom_site_fract_z
Si Si1 0.402057 0.500000 0.093897
Si Si2 0.000000 0.628887 0.874366
Si Si3 0.000000 0.000000 0.500000
Si Si4 0.000000 0.370890 0.319943
Si Si5 0.659253 0.260387 0.131846
Si Si6 0.659799 0.739827 0.684764
Si Si7 0.909823 0.000000 0.664333
O O1 0.500000 0.500000 0.103119
O O2 0.365944 0.611759 0.129654
O O3 0.383584 0.500000 0.000000
O O4 0.917180 0.690738 0.902407
O O5 0.000000 0.500000 0.895293
O O6 0.000000 0.637008 0.777070
O O7 0.069735 0.000000 0.570837
O O8 0.082342 0.308233 0.349215
O O9 0.000000 0.500000 0.340655
O O10 0.750000 0.250000 0.095291
O O11 0.667155 0.221499 0.223539
O O12 0.750000 0.750000 0.646928
O O13 0.635837 0.611794 0.684969
O O14 0.000000 0.000000 0.705292
#
# Coordination Sequence:
#
# PCOD9487640 Si02
#       7
#     8   8   2   8  16  16   8
#     4  11  23  39  58  77 104 147 194 237 276 329
#     4   9  18  32  50  74 106 139 168 209 278 340
#     4   8  20  36  60  80 106 162 194 228 260 314
#     4   9  17  30  45  73 115 142 163 213 277 338
#     4  10  21  35  56  82 111 139 180 229 290 338
#     4  10  20  32  54  87 110 142 179 233 287 330
#     4  10  19  36  57  77 113 146 196 225 267 317
#
# _framework density 19.930135
#
# number of rings (size 3 to 8) (size 9 to 14) (size 15 to 20)
#    0.364    1.818    2.424    0.727    3.394    1.455 
#    0.000    0.606    0.000    0.727    0.000    1.697 
#    0.000    0.000    0.000    0.000    0.000    0.000 
#
# Total GULP energy -183729.061466 kJ/mol
# GULP energy per Si atom -5567.547317 kJ/mol
# Density = 1.988477 g / cm^3
# Si number density = 19.930135 Si / 1000 Ang^3
#
#
#
# Elastic Constant Matrix: (Units=GPa)
#
#
# Indices 1 2 3 4 5 6 
#
# 1 217.7813 97.4991 -8.9034 0.0000 0.0000 0.0000
# 2 97.4991 147.2168 -27.1097 0.0000 0.0000 0.0000
# 3 -8.9034 -27.1097 42.0119 0.0000 0.0000 0.0000
# 4 0.0000 0.0000 0.0000 -2.9089 0.0000 0.0000
# 5 0.0000 0.0000 0.0000 0.0000 14.4223 0.0000
# 6 0.0000 0.0000 0.0000 0.0000 0.0000 27.2400
#
#
#
# Elastic Compliance Matrix: (Units=1/GPa)
#
#
# Indices 1 2 3 4 5 6 
#
# 1 0.006623 -0.004684 -0.001619 0.000000 0.000000 0.000000
# 2 -0.004684 0.011022 0.006120 0.000000 0.000000 0.000000
# 3 -0.001619 0.006120 0.027408 0.000000 0.000000 0.000000
# 4 0.000000 0.000000 0.000000 -0.343770 0.000000 0.000000
# 5 0.000000 0.000000 0.000000 0.000000 0.069337 0.000000
# 6 0.000000 0.000000 0.000000 0.000000 0.000000 0.036711
#
#
# Mechanical properties :
#
#
# Convention : Reuss Voigt Hill
#
# Bulk Modulus (GPa) = 22.37868 58.88689 40.63279
# Shear Modulus (GPa) = -28.18386 30.78562 1.30088
#
# Velocity S-wave (km/s) = -3.76458 3.93450 0.80879
# Velocity P-wave (km/s) = 2.76462 7.08881 4.61563
#
# Compressibility (1/GPa) = 0.04468538
#
# Stress axis : x y z
#
# Youngs Moduli (GPa) = 150.99653 90.72846 36.48505
#
# Poissons Ratio (x) = 0.42499 0.05908
# Poissons Ratio (y) = 0.70730 -0.22327
# Poissons Ratio (z) = 0.24449 -0.55522
#
# Static dielectric constant tensor:
#      x y z
#    x 1.747850 0.000000 0.000000 
#    y 0.000000 1.654270 0.000000 
#    z 0.000000 0.000000 1.699240 
# 
# From -- ./inp_files/62358.got.cif
#   From: 2010.05.17/outbox.cif.g08.bks.cpg/sg65_32_cif.got.tgz:62358.got - 2010.06.03 17:01:31.
