data_PCOD9487753
_publ_section_title
;
Structure prediction by ZEFSAII (Michael W. Deem and Ramdas Pophale) SiO2 
 PCOD9487753
Probable space group: C M M M
;
_chemical_formula_sum "Si O2"
_cell_formula_units_Z 104
_cell_length_a 9.704491
_cell_length_b 30.136815
_cell_length_c 22.688430
_cell_angle_alpha 90.000000
_cell_angle_beta 90.000000
_cell_angle_gamma 90.000000
_cell_volume 6635.513823
_symmetry_space_group_name_H-M "C M M M"
_symmetry_group_IT_number 65
_symmetry_cell_setting 'orthorhombic'
loop_
_space_group_symop_operation_xyz
x,y,z
-x,-y,z
x,-y,-z
-x,y,-z
-x,-y,-z
x,y,-z
-x,y,z
x,-y,z
1/2+x,1/2+y,z
1/2-x,1/2-y,z
1/2+x,1/2-y,-z
1/2-x,1/2+y,-z
1/2-x,1/2-y,-z
1/2+x,1/2+y,-z
1/2-x,1/2+y,z
1/2+x,1/2-y,z
loop_
_atom_site_type_symbol
_atom_site_label
_atom_site_fract_x
_atom_site_fract_y
_atom_site_fract_z
Si Si1 0.839040 0.053516 0.822219
Si Si2 0.836817 0.053068 0.500000
Si Si3 0.663743 0.891253 0.268133
Si Si4 0.335941 0.891631 0.408949
Si Si5 0.157673 0.290804 0.410938
Si Si6 0.341891 0.946105 0.066796
Si Si7 0.342272 0.209332 0.267588
O O1 0.755855 0.075245 0.768692
O O2 0.763710 0.067858 0.882775
O O3 0.000000 0.065607 0.821660
O O4 0.830060 0.000000 0.818545
O O5 0.758601 0.074553 0.444309
O O6 0.000000 0.063554 0.500000
O O7 0.822170 0.000000 0.500000
O O8 0.500000 0.897326 0.256587
O O9 0.682590 0.896018 0.338552
O O10 0.701179 0.840495 0.251231
O O11 0.500000 0.897698 0.421117
O O12 0.299795 0.840869 0.426850
O O13 0.250000 0.250000 0.431350
O O14 0.159220 0.290186 0.339261
O O15 0.000000 0.284533 0.429387
O O16 0.500000 0.932754 0.080124
O O17 0.340766 0.000000 0.066320
O O18 0.307878 0.931779 0.000000
O O19 0.500000 0.215658 0.249165
O O20 0.250000 0.250000 0.246646
#
# Coordination Sequence:
#
# PCOD9487753 Si02
#       7
#    16   8  16  16  16  16  16
#     4  10  20  30  41  63  95 127 157 191 231 271
#     4  11  25  41  54  69  88 111 146 195 242 279
#     4   9  18  32  49  69  93 121 153 188 225 268
#     4   9  19  36  55  72  90 116 152 189 224 270
#     4   8  14  26  46  72  97 117 139 170 212 265
#     4   8  14  26  44  63  84 116 157 194 227 267
#     4   8  14  25  42  65  91 117 145 178 218 264
#
# _framework density 15.67324
#
# number of rings (size 3 to 8) (size 9 to 14) (size 15 to 20)
#    0.000    3.154    0.000    3.000    0.000    4.308 
#    0.000    8.077    0.000    0.000    0.000    0.000 
#    0.000    0.615    0.000    2.000    0.000    2.462 
#
# Total GULP energy -289630.169277 kJ/mol
# GULP energy per Si atom -5569.810948 kJ/mol
# Density = 1.563757 g / cm^3
# Si number density = 15.673240 Si / 1000 Ang^3
#
#
#
# Elastic Constant Matrix: (Units=GPa)
#
#
# Indices 1 2 3 4 5 6 
#
# 1 96.4354 66.4667 58.3725 0.0000 0.0000 0.0000
# 2 66.4667 74.0742 35.1995 0.0000 0.0000 0.0000
# 3 58.3725 35.1995 73.4426 0.0000 0.0000 0.0000
# 4 0.0000 0.0000 0.0000 -12.4486 0.0000 0.0000
# 5 0.0000 0.0000 0.0000 0.0000 18.4669 0.0000
# 6 0.0000 0.0000 0.0000 0.0000 0.0000 30.1796
#
#
#
# Elastic Compliance Matrix: (Units=1/GPa)
#
#
# Indices 1 2 3 4 5 6 
#
# 1 0.041421 -0.027870 -0.019564 0.000000 0.000000 0.000000
# 2 -0.027870 0.036234 0.004785 0.000000 0.000000 0.000000
# 3 -0.019564 0.004785 0.026872 0.000000 0.000000 0.000000
# 4 0.000000 0.000000 0.000000 -0.080330 0.000000 0.000000
# 5 0.000000 0.000000 0.000000 0.000000 0.054151 0.000000
# 6 0.000000 0.000000 0.000000 0.000000 0.000000 0.033135
#
#
# Mechanical properties :
#
#
# Convention : Reuss Voigt Hill
#
# Bulk Modulus (GPa) = 52.00439 62.66997 57.33718
# Shear Modulus (GPa) = 24.60738 12.83380 18.72059
#
# Velocity S-wave (km/s) = 3.96665 2.86463 3.45980
# Velocity P-wave (km/s) = 7.36420 7.14238 7.25414
#
# Compressibility (1/GPa) = 0.01922915
#
# Stress axis : x y z
#
# Youngs Moduli (GPa) = 24.14229 27.59823 37.21331
#
# Poissons Ratio (x) = 0.76918 0.72804
# Poissons Ratio (y) = 0.67286 -0.17808
# Poissons Ratio (z) = 0.47232 -0.13207
#
# Static dielectric constant tensor:
#      x y z
#    x 1.518850 0.000000 0.000000 
#    y 0.000000 1.517300 0.000000 
#    z 0.000000 0.000000 1.530880 
# 
# From -- ./inp_files/68546.got.cif
#   From: 2010.05.17/outbox.cif.g08.bks.cpg/sg65_35_cif.got.tgz:68546.got - 2010.06.03 17:01:31.
