data_PCOD9487992
_publ_section_title
;
Structure prediction by ZEFSAII (Michael W. Deem and Ramdas Pophale) SiO2 
 PCOD9487992
Probable space group: C M M M
;
_chemical_formula_sum "Si O2"
_cell_formula_units_Z 96
_cell_length_a 19.204647
_cell_length_b 7.512744
_cell_length_c 32.746857
_cell_angle_alpha 90.000000
_cell_angle_beta 90.000000
_cell_angle_gamma 90.000000
_cell_volume 4724.703315
_symmetry_space_group_name_H-M "C M M M"
_symmetry_group_IT_number 65
_symmetry_cell_setting 'orthorhombic'
loop_
_space_group_symop_operation_xyz
x,y,z
-x,-y,z
x,-y,-z
-x,y,-z
-x,-y,-z
x,y,-z
-x,y,z
x,-y,z
1/2+x,1/2+y,z
1/2-x,1/2-y,z
1/2+x,1/2-y,-z
1/2-x,1/2+y,-z
1/2-x,1/2-y,-z
1/2+x,1/2+y,-z
1/2-x,1/2+y,z
1/2+x,1/2-y,z
loop_
_atom_site_type_symbol
_atom_site_label
_atom_site_fract_x
_atom_site_fract_y
_atom_site_fract_z
Si Si1 0.331736 0.213639 0.209707
Si Si2 0.419331 0.783006 0.621769
Si Si3 0.080760 0.717141 0.287024
Si Si4 0.079580 0.288658 0.133393
Si Si5 0.081029 0.786147 0.043844
Si Si6 0.331787 0.786568 0.545044
O O1 0.250000 0.250000 0.208894
O O2 0.369651 0.279650 0.250758
O O3 0.372076 0.281963 0.169559
O O4 0.339343 0.000000 0.209908
O O5 0.500000 0.733732 0.616358
O O6 0.397583 0.725937 0.667348
O O7 0.373765 0.717761 0.583982
O O8 0.416501 0.000000 0.621760
O O9 0.081476 0.500000 0.286953
O O10 0.000000 0.768840 0.280267
O O11 0.073810 0.500000 0.139392
O O12 0.110291 0.264202 0.087892
O O13 0.000000 0.216312 0.134699
O O14 0.000000 0.726058 0.044616
O O15 0.080708 0.000000 0.042956
O O16 0.110941 0.724879 0.000000
O O17 0.353286 0.719284 0.500000
O O18 0.250000 0.750000 0.549739
O O19 0.341123 0.000000 0.544365
#
# Coordination Sequence:
#
# PCOD9487992 Si02
#       6
#    16  16  16  16  16  16
#     4  10  20  32  46  66  91 117 146 181 220 261
#     4   8  14  25  43  67  89 110 143 186 226 261
#     4   8  14  27  47  67  87 113 146 183 221 263
#     4   9  17  29  46  67  89 115 148 183 217 254
#     4   8  14  25  42  66  94 119 143 175 217 262
#     4   9  17  28  42  62  89 119 149 182 220 262
#
# _framework density 20.318736000000001
#
# number of rings (size 3 to 8) (size 9 to 14) (size 15 to 20)
#    0.000    3.333    0.000    2.000    0.000    4.000 
#    0.000    3.333    0.000    2.500    0.000    4.667 
#    0.000    0.000    0.000    0.000    0.000    0.000 
#
# Total GULP energy -267473.454896 kJ/mol
# GULP energy per Si atom -5572.363644 kJ/mol
# Density = 2.027249 g / cm^3
# Si number density = 20.318736 Si / 1000 Ang^3
#
#
#
# Elastic Constant Matrix: (Units=GPa)
#
#
# Indices 1 2 3 4 5 6 
#
# 1 82.3236 1.0198 117.0745 0.0000 0.0000 0.0000
# 2 1.0198 52.2353 8.6441 0.0000 0.0000 0.0000
# 3 117.0745 8.6441 266.3646 0.0000 0.0000 0.0000
# 4 0.0000 0.0000 0.0000 70.0257 0.0000 0.0000
# 5 0.0000 0.0000 0.0000 0.0000 9.7829 0.0000
# 6 0.0000 0.0000 0.0000 0.0000 0.0000 14.4122
#
#
#
# Elastic Compliance Matrix: (Units=1/GPa)
#
#
# Indices 1 2 3 4 5 6 
#
# 1 0.032555 0.001742 -0.014365 0.000000 0.000000 0.000000
# 2 0.001742 0.019341 -0.001393 0.000000 0.000000 0.000000
# 3 -0.014365 -0.001393 0.010113 0.000000 0.000000 0.000000
# 4 0.000000 0.000000 0.000000 0.014280 0.000000 0.000000
# 5 0.000000 0.000000 0.000000 0.000000 0.102220 0.000000
# 6 0.000000 0.000000 0.000000 0.000000 0.000000 0.069386
#
#
# Mechanical properties :
#
#
# Convention : Reuss Voigt Hill
#
# Bulk Modulus (GPa) = 29.43310 72.71115 51.07212
# Shear Modulus (GPa) = 17.40625 37.12316 27.26470
#
# Velocity S-wave (km/s) = 2.93005 4.27903 3.66710
# Velocity P-wave (km/s) = 5.09550 7.76379 6.56660
#
# Compressibility (1/GPa) = 0.03397536
#
# Stress axis : x y z
#
# Youngs Moduli (GPa) = 30.71747 51.70446 98.87896
#
# Poissons Ratio (x) = -0.09005 1.42042
# Poissons Ratio (y) = -0.05350 0.13775
# Poissons Ratio (z) = 0.44126 0.07203
#
# Static dielectric constant tensor:
#      x y z
#    x 1.669620 0.000000 0.000000 
#    y 0.000000 1.785870 0.000000 
#    z 0.000000 0.000000 1.762180 
# 
# From -- ./inp_files/73177.got.cif
#   From: 2010.05.17/outbox.cif.g08.bks.cpg/sg65_37_cif.got.tgz:73177.got - 2010.06.03 17:01:31.
