data_PCOD9487133
_publ_section_title
;
Structure prediction by ZEFSAII (Michael W. Deem and Ramdas Pophale) SiO2 
 PCOD9487133
Probable space group: C M M M
;
_chemical_formula_sum "Si O2"
_cell_formula_units_Z 100
_cell_length_a 30.098956
_cell_length_b 22.263715
_cell_length_c 7.508841
_cell_angle_alpha 90.000000
_cell_angle_beta 90.000000
_cell_angle_gamma 90.000000
_cell_volume 5031.783819
_symmetry_space_group_name_H-M "C M M M"
_symmetry_group_IT_number 65
_symmetry_cell_setting 'orthorhombic'
loop_
_space_group_symop_operation_xyz
x,y,z
-x,-y,z
x,-y,-z
-x,y,-z
-x,-y,-z
x,y,-z
-x,y,z
x,-y,z
1/2+x,1/2+y,z
1/2-x,1/2-y,z
1/2+x,1/2-y,-z
1/2-x,1/2+y,-z
1/2-x,1/2-y,-z
1/2+x,1/2+y,-z
1/2-x,1/2+y,z
1/2+x,1/2-y,z
loop_
_atom_site_type_symbol
_atom_site_label
_atom_site_fract_x
_atom_site_fract_y
_atom_site_fract_z
Si Si1 0.299522 0.255868 0.795491
Si Si2 0.281080 0.384954 0.713935
Si Si3 0.413514 0.500000 0.000000
Si Si4 0.660501 0.500000 0.288773
Si Si5 0.447043 0.635303 0.000000
Si Si6 0.878628 0.328590 0.702256
Si Si7 0.815674 0.570028 0.718328
Si Si8 0.053199 0.231333 0.711607
O O1 0.250000 0.250000 0.717112
O O2 0.305293 0.327017 0.790849
O O3 0.337339 0.218093 0.701666
O O4 0.298505 0.234827 0.000000
O O5 0.279726 0.378159 0.500000
O O6 0.309858 0.442738 0.756534
O O7 0.230408 0.397623 0.773530
O O8 0.383440 0.500000 0.824628
O O9 0.437058 0.435185 0.000000
O O10 0.652009 0.500000 0.500000
O O11 0.432000 0.673610 0.173025
O O12 0.500000 0.640061 0.000000
O O13 0.891604 0.343485 0.500000
O O14 0.857245 0.389413 0.779950
O O15 0.919457 0.289818 0.777039
O O16 0.815562 0.570759 0.500000
O O17 0.816398 0.500000 0.771544
O O18 0.062269 0.222897 0.500000
O O19 0.000000 0.239564 0.731520
#
# Coordination Sequence:
#
# PCOD9487133 Si02
#       8
#    16  16   4   8   8  16  16  16
#     4  11  23  33  46  75 112 143 181 236 287 332
#     4  10  19  34  51  68 101 147 191 229 266 321
#     4  12  27  40  60  86 116 144 186 246 279 340
#     4  10  24  39  53  79 110 152 193 228 280 328
#     4  10  23  44  66  85 109 149 186 229 291 347
#     4  10  20  33  55  81 105 142 184 232 286 334
#     4   9  16  30  52  76 103 141 190 229 263 324
#     4   9  20  39  62  90 118 145 186 236 289 351
#
# _framework density 19.873667000000001
#
# number of rings (size 3 to 8) (size 9 to 14) (size 15 to 20)
#    0.000    2.080    2.400    0.600    4.480    1.280 
#    0.000    0.000    0.000    4.320    0.000    3.360 
#    0.000    1.920    0.000    0.160    0.000    0.000 
#
# Total GULP energy -278978.215456 kJ/mol
# GULP energy per Si atom -5579.564309 kJ/mol
# Density = 1.982843 g / cm^3
# Si number density = 19.873667 Si / 1000 Ang^3
#
#
#
# Elastic Constant Matrix: (Units=GPa)
#
#
# Indices 1 2 3 4 5 6 
#
# 1 47.3156 23.1977 16.3068 0.0000 0.0000 0.0000
# 2 23.1977 118.3734 15.2682 0.0000 0.0000 0.0000
# 3 16.3068 15.2682 56.9137 0.0000 0.0000 0.0000
# 4 0.0000 0.0000 0.0000 9.3608 0.0000 0.0000
# 5 0.0000 0.0000 0.0000 0.0000 17.6157 0.0000
# 6 0.0000 0.0000 0.0000 0.0000 0.0000 46.8725
#
#
#
# Elastic Compliance Matrix: (Units=1/GPa)
#
#
# Indices 1 2 3 4 5 6 
#
# 1 0.025289 -0.004165 -0.006128 0.000000 0.000000 0.000000
# 2 -0.004165 0.009437 -0.001338 0.000000 0.000000 0.000000
# 3 -0.006128 -0.001338 0.019685 0.000000 0.000000 0.000000
# 4 0.000000 0.000000 0.000000 0.106828 0.000000 0.000000
# 5 0.000000 0.000000 0.000000 0.000000 0.056768 0.000000
# 6 0.000000 0.000000 0.000000 0.000000 0.000000 0.021334
#
#
# Mechanical properties :
#
#
# Convention : Reuss Voigt Hill
#
# Bulk Modulus (GPa) = 32.10552 36.90536 34.50544
# Shear Modulus (GPa) = 18.31588 25.95847 22.13718
#
# Velocity S-wave (km/s) = 3.03911 3.61802 3.34113
# Velocity P-wave (km/s) = 5.33898 6.00531 5.68192
#
# Compressibility (1/GPa) = 0.03114729
#
# Stress axis : x y z
#
# Youngs Moduli (GPa) = 39.54298 105.96871 50.79936
#
# Poissons Ratio (x) = 0.44141 0.31131
# Poissons Ratio (y) = 0.16471 0.06798
# Poissons Ratio (z) = 0.24233 0.14180
#
# Static dielectric constant tensor:
#      x y z
#    x 1.688740 0.000000 0.000000 
#    y 0.000000 1.734190 0.000000 
#    z 0.000000 0.000000 1.746530 
# 
# From -- ./inp_files/16559.got.cif
#   From: 2010.05.17/outbox.cif.g08.bks.cpg/sg65_9_cif.got.tgz:16559.got - 2010.06.03 17:01:31.
