data_PCOD9487942
_publ_section_title
;
Structure prediction by ZEFSAII (Michael W. Deem and Ramdas Pophale) SiO2 
 PCOD9487942
Probable space group: C M M M
;
_chemical_formula_sum "Si O2"
_cell_formula_units_Z 104
_cell_length_a 29.015928
_cell_length_b 8.747702
_cell_length_c 27.347101
_cell_angle_alpha 90.000000
_cell_angle_beta 90.000000
_cell_angle_gamma 90.000000
_cell_volume 6941.314778
_symmetry_space_group_name_H-M "C M M M"
_symmetry_group_IT_number 65
_symmetry_cell_setting 'orthorhombic'
loop_
_space_group_symop_operation_xyz
x,y,z
-x,-y,z
x,-y,-z
-x,y,-z
-x,-y,-z
x,y,-z
-x,y,z
x,-y,z
1/2+x,1/2+y,z
1/2-x,1/2-y,z
1/2+x,1/2-y,-z
1/2-x,1/2+y,-z
1/2-x,1/2-y,-z
1/2+x,1/2+y,-z
1/2-x,1/2+y,z
1/2+x,1/2-y,z
loop_
_atom_site_type_symbol
_atom_site_label
_atom_site_fract_x
_atom_site_fract_y
_atom_site_fract_z
Si Si1 0.302071 0.683878 0.841347
Si Si2 0.055936 0.326084 0.500000
Si Si3 0.301538 0.316491 0.555066
Si Si4 0.640668 0.182750 0.355325
Si Si5 0.801621 0.316659 0.259473
Si Si6 0.946541 0.817471 0.603777
Si Si7 0.801933 0.815605 0.947333
O O1 0.300619 0.500000 0.837441
O O2 0.250000 0.750000 0.842464
O O3 0.321905 0.753181 0.791551
O O4 0.322973 0.727169 0.894491
O O5 0.073362 0.500000 0.500000
O O6 0.068114 0.240184 0.549806
O O7 0.000000 0.331566 0.500000
O O8 0.318027 0.276534 0.500000
O O9 0.300091 0.500000 0.558748
O O10 0.250000 0.250000 0.559978
O O11 0.332390 0.249999 0.598120
O O12 0.667477 0.226342 0.305936
O O13 0.588866 0.245181 0.358278
O O14 0.640354 0.000000 0.358752
O O15 0.798305 0.500000 0.256714
O O16 0.750000 0.250000 0.265629
O O17 0.000000 0.772977 0.611459
O O18 0.943628 0.000000 0.604835
O O19 0.750000 0.750000 0.947465
O O20 0.799103 0.000000 0.947101
O O21 0.823055 0.769275 0.000000
#
# Coordination Sequence:
#
# PCOD9487942 Si02
#       7
#    16   8  16  16  16  16  16
#     4   9  15  23  37  54  74 104 138 174 215 251
#     4   9  17  31  51  71  90 111 132 157 193 241
#     4  10  21  36  52  69  90 114 140 174 215 257
#     4  11  23  35  50  69  88 114 145 177 215 259
#     4  10  20  32  45  62  84 111 145 183 219 252
#     4  10  21  36  53  72  93 114 137 169 210 256
#     4   8  13  20  30  47  71  98 131 170 209 248
#
# _framework density 14.982752
#
# number of rings (size 3 to 8) (size 9 to 14) (size 15 to 20)
#    0.000    2.385    0.000    3.923    1.077    7.077 
#    0.000    0.000    0.000    0.000    0.000    0.000 
#    0.000    0.000    0.000    0.000    0.000    0.769 
#
# Total GULP energy -289745.229065 kJ/mol
# GULP energy per Si atom -5572.023636 kJ/mol
# Density = 1.494865 g / cm^3
# Si number density = 14.982752 Si / 1000 Ang^3
#
#
#
# Elastic Constant Matrix: (Units=GPa)
#
#
# Indices 1 2 3 4 5 6 
#
# 1 48.8974 20.0675 53.7703 0.0000 0.0000 0.0000
# 2 20.0675 41.8590 43.7634 0.0000 0.0000 0.0000
# 3 53.7703 43.7634 153.1711 0.0000 0.0000 0.0000
# 4 0.0000 0.0000 0.0000 -7.2015 0.0000 0.0000
# 5 0.0000 0.0000 0.0000 0.0000 14.0732 0.0000
# 6 0.0000 0.0000 0.0000 0.0000 0.0000 17.3409
#
#
#
# Elastic Compliance Matrix: (Units=1/GPa)
#
#
# Indices 1 2 3 4 5 6 
#
# 1 0.034168 -0.005476 -0.010430 0.000000 0.000000 0.000000
# 2 -0.005476 0.034943 -0.008062 0.000000 0.000000 0.000000
# 3 -0.010430 -0.008062 0.012493 0.000000 0.000000 0.000000
# 4 0.000000 0.000000 0.000000 -0.138860 0.000000 0.000000
# 5 0.000000 0.000000 0.000000 0.000000 0.071057 0.000000
# 6 0.000000 0.000000 0.000000 0.000000 0.000000 0.057667
#
#
# Mechanical properties :
#
#
# Convention : Reuss Voigt Hill
#
# Bulk Modulus (GPa) = 29.70034 53.23666 41.46850
# Shear Modulus (GPa) = 38.27736 13.26428 25.77082
#
# Velocity S-wave (km/s) = 5.05995 2.97863 4.15183
# Velocity P-wave (km/s) = 7.34871 6.88758 7.12188
#
# Compressibility (1/GPa) = 0.03366965
#
# Stress axis : x y z
#
# Youngs Moduli (GPa) = 29.26756 28.61793 80.04242
#
# Poissons Ratio (x) = 0.15670 0.83484
# Poissons Ratio (y) = 0.16026 0.64527
# Poissons Ratio (z) = 0.30526 0.23071
#
# Static dielectric constant tensor:
#      x y z
#    x 1.480500 0.000000 0.000000 
#    y 0.000000 1.501600 0.000000 
#    z 0.000000 0.000000 1.549240 
# 
# From -- ./inp_files/76239.got.cif
#   From: 2010.05.17/outbox.cif.g08.bks.cpg/sg65_39_cif.got.tgz:76239.got - 2010.06.03 17:01:31.
