data_PCOD9487260
_publ_section_title
;
Structure prediction by ZEFSAII (Michael W. Deem and Ramdas Pophale) SiO2 
 PCOD9487260
Probable space group: C M M M
;
_chemical_formula_sum "Si O2"
_cell_formula_units_Z 96
_cell_length_a 29.601848
_cell_length_b 8.823500
_cell_length_c 20.954923
_cell_angle_alpha 90.000000
_cell_angle_beta 90.000000
_cell_angle_gamma 90.000000
_cell_volume 5473.256275
_symmetry_space_group_name_H-M "C M M M"
_symmetry_group_IT_number 65
_symmetry_cell_setting 'orthorhombic'
loop_
_space_group_symop_operation_xyz
x,y,z
-x,-y,z
x,-y,-z
-x,y,-z
-x,-y,-z
x,y,-z
-x,y,z
x,-y,z
1/2+x,1/2+y,z
1/2-x,1/2-y,z
1/2+x,1/2-y,-z
1/2-x,1/2+y,-z
1/2-x,1/2-y,-z
1/2+x,1/2+y,-z
1/2-x,1/2+y,z
1/2+x,1/2-y,z
loop_
_atom_site_type_symbol
_atom_site_label
_atom_site_fract_x
_atom_site_fract_y
_atom_site_fract_z
Si Si1 0.894627 0.815247 0.570279
Si Si2 0.110082 0.680142 0.186298
Si Si3 0.702557 0.681435 0.618046
Si Si4 0.702108 0.681168 0.769026
Si Si5 0.946975 0.816996 0.697353
Si Si6 0.947672 0.818282 0.074679
O O1 0.909794 0.765918 0.500000
O O2 0.842811 0.767445 0.582653
O O3 0.925541 0.768870 0.629659
O O4 0.894742 0.000000 0.570722
O O5 0.112500 0.500000 0.188987
O O6 0.159804 0.750059 0.194158
O O7 0.080260 0.742264 0.245135
O O8 0.085860 0.734500 0.121861
O O9 0.705381 0.500000 0.612348
O O10 0.750000 0.750000 0.595849
O O11 0.696780 0.717797 0.693361
O O12 0.702514 0.500000 0.774945
O O13 0.750000 0.750000 0.789516
O O14 0.000000 0.781848 0.700460
O O15 0.941900 0.000000 0.702626
O O16 0.000000 0.779503 0.089480
O O17 0.943213 0.000000 0.083053
O O18 0.939846 0.784591 0.000000
#
# Coordination Sequence:
#
# PCOD9487260 Si02
#       6
#    16  16  16  16  16  16
#     4   9  17  31  50  73 101 133 173 224 279 330
#     4  12  23  34  54  83 114 147 182 221 268 318
#     4   9  17  30  49  72 100 131 166 213 268 323
#     4  10  19  34  55  80 110 141 179 224 272 322
#     4  10  20  35  54  75 101 137 182 231 280 327
#     4   9  19  37  60  85 114 149 186 223 268 321
#
# _framework density 17.539832000000001
#
# number of rings (size 3 to 8) (size 9 to 14) (size 15 to 20)
#    0.000    2.167    1.667    3.000    0.000    4.333 
#    0.000    2.500    0.000    2.000    0.000    1.167 
#    0.000    0.000    0.000    0.000    0.000    0.000 
#
# Total GULP energy -267941.818929 kJ/mol
# GULP energy per Si atom -5582.121228 kJ/mol
# Density = 1.749991 g / cm^3
# Si number density = 17.539832 Si / 1000 Ang^3
#
#
#
# Elastic Constant Matrix: (Units=GPa)
#
#
# Indices 1 2 3 4 5 6 
#
# 1 134.7578 52.1998 69.7870 0.0000 0.0000 0.0000
# 2 52.1998 37.0666 39.8043 0.0000 0.0000 0.0000
# 3 69.7870 39.8043 82.9437 0.0000 0.0000 0.0000
# 4 0.0000 0.0000 0.0000 5.3371 0.0000 0.0000
# 5 0.0000 0.0000 0.0000 0.0000 16.4886 0.0000
# 6 0.0000 0.0000 0.0000 0.0000 0.0000 27.1057
#
#
#
# Elastic Compliance Matrix: (Units=1/GPa)
#
#
# Indices 1 2 3 4 5 6 
#
# 1 0.017682 -0.018414 -0.006040 0.000000 0.000000 0.000000
# 2 -0.018414 0.074842 -0.020423 0.000000 0.000000 0.000000
# 3 -0.006040 -0.020423 0.026939 0.000000 0.000000 0.000000
# 4 0.000000 0.000000 0.000000 0.187366 0.000000 0.000000
# 5 0.000000 0.000000 0.000000 0.000000 0.060648 0.000000
# 6 0.000000 0.000000 0.000000 0.000000 0.000000 0.036893
#
#
# Mechanical properties :
#
#
# Convention : Reuss Voigt Hill
#
# Bulk Modulus (GPa) = 33.66056 64.26114 48.96085
# Shear Modulus (GPa) = 9.92010 15.98475 12.95243
#
# Velocity S-wave (km/s) = 2.38076 3.02212 2.72041
# Velocity P-wave (km/s) = 5.17590 6.99245 6.15160
#
# Compressibility (1/GPa) = 0.02970836
#
# Stress axis : x y z
#
# Youngs Moduli (GPa) = 56.55584 13.36144 37.12080
#
# Poissons Ratio (x) = 0.24604 0.22421
# Poissons Ratio (y) = 1.04145 0.75811
# Poissons Ratio (z) = 0.34159 0.27288
#
# Static dielectric constant tensor:
#      x y z
#    x 1.583020 0.000000 0.000000 
#    y 0.000000 1.589680 0.000000 
#    z 0.000000 0.000000 1.590760 
# 
# From -- ./inp_files/60227.got.cif
#   From: 2010.05.17/outbox.cif.g08.bks.cpg/sg65_31_cif.got.tgz:60227.got - 2010.06.03 17:01:31.
