data_PCOD9487052
_publ_section_title
;
Structure prediction by ZEFSAII (Michael W. Deem and Ramdas Pophale) SiO2 
 PCOD9487052
Probable space group: C M M M
;
_chemical_formula_sum "Si O2"
_cell_formula_units_Z 64
_cell_length_a 23.296459
_cell_length_b 9.706244
_cell_length_c 15.742905
_cell_angle_alpha 90.000000
_cell_angle_beta 90.000000
_cell_angle_gamma 90.000000
_cell_volume 3559.803238
_symmetry_space_group_name_H-M "C M M M"
_symmetry_group_IT_number 65
_symmetry_cell_setting 'orthorhombic'
loop_
_space_group_symop_operation_xyz
x,y,z
-x,-y,z
x,-y,-z
-x,y,-z
-x,-y,-z
x,y,-z
-x,y,z
x,-y,z
1/2+x,1/2+y,z
1/2-x,1/2-y,z
1/2+x,1/2-y,-z
1/2-x,1/2+y,-z
1/2-x,1/2-y,-z
1/2+x,1/2+y,-z
1/2-x,1/2+y,z
1/2+x,1/2-y,z
loop_
_atom_site_type_symbol
_atom_site_label
_atom_site_fract_x
_atom_site_fract_y
_atom_site_fract_z
Si Si1 0.151802 0.344252 0.153010
Si Si2 0.250000 0.750000 0.275306
Si Si3 0.566144 0.162632 0.695072
Si Si4 0.689735 0.666408 0.000000
Si Si5 0.655005 0.656603 0.403574
O O1 0.149297 0.500000 0.117034
O O2 0.207822 0.335181 0.213952
O O3 0.097291 0.320765 0.213833
O O4 0.157868 0.225915 0.082977
O O5 0.292350 0.668716 0.337988
O O6 0.500000 0.206599 0.696339
O O7 0.604842 0.244096 0.628313
O O8 0.568303 0.000000 0.675615
O O9 0.750000 0.750000 0.000000
O O10 0.696333 0.500000 0.000000
O O11 0.672832 0.690072 0.500000
O O12 0.634029 0.500000 0.401870
#
# Coordination Sequence:
#
# PCOD9487052 Si02
#       5
#    16   8  16   8  16
#     4  10  20  35  57  82 109 141 182 225 272 324
#     4  10  19  33  56  78 110 144 186 219 279 326
#     4   9  20  39  60  81 107 143 187 232 276 324
#     4  12  24  36  55  82 117 147 176 216 266 323
#     4  10  21  35  53  81 114 147 185 230 278 328
#
# _framework density 17.978521000000001
#
# number of rings (size 3 to 8) (size 9 to 14) (size 15 to 20)
#    0.000    2.000    1.250    2.250    0.000    6.500 
#    0.000    3.125    0.000    3.750    0.000    0.000 
#    0.000    0.000    0.000    0.000    0.000    0.000 
#
# Total GULP energy -178457.786494 kJ/mol
# GULP energy per Si atom -5576.805828 kJ/mol
# Density = 1.793760 g / cm^3
# Si number density = 17.978521 Si / 1000 Ang^3
#
#
#
# Elastic Constant Matrix: (Units=GPa)
#
#
# Indices 1 2 3 4 5 6 
#
# 1 89.5605 24.5375 29.6727 0.0000 0.0000 0.0000
# 2 24.5375 98.8751 53.8227 0.0000 0.0000 0.0000
# 3 29.6727 53.8227 96.3701 0.0000 0.0000 0.0000
# 4 0.0000 0.0000 0.0000 29.5616 0.0000 0.0000
# 5 0.0000 0.0000 0.0000 0.0000 8.6728 0.0000
# 6 0.0000 0.0000 0.0000 0.0000 0.0000 18.7185
#
#
#
# Elastic Compliance Matrix: (Units=1/GPa)
#
#
# Indices 1 2 3 4 5 6 
#
# 1 0.012578 -0.001456 -0.003060 0.000000 0.000000 0.000000
# 2 -0.001456 0.014700 -0.007762 0.000000 0.000000 0.000000
# 3 -0.003060 -0.007762 0.015654 0.000000 0.000000 0.000000
# 4 0.000000 0.000000 0.000000 0.033828 0.000000 0.000000
# 5 0.000000 0.000000 0.000000 0.000000 0.115304 0.000000
# 6 0.000000 0.000000 0.000000 0.000000 0.000000 0.053423
#
#
# Mechanical properties :
#
#
# Convention : Reuss Voigt Hill
#
# Bulk Modulus (GPa) = 54.41502 55.65237 55.03370
# Shear Modulus (GPa) = 18.10498 23.17544 20.64021
#
# Velocity S-wave (km/s) = 3.17682 3.59425 3.39196
# Velocity P-wave (km/s) = 6.61730 6.94600 6.78364
#
# Compressibility (1/GPa) = 0.01837728
#
# Stress axis : x y z
#
# Youngs Moduli (GPa) = 79.50223 68.02628 63.88257
#
# Poissons Ratio (x) = 0.09904 0.19547
# Poissons Ratio (y) = 0.11575 0.49584
# Poissons Ratio (z) = 0.24326 0.52800
#
# Static dielectric constant tensor:
#      x y z
#    x 1.597110 0.000000 0.000000 
#    y 0.000000 1.613140 0.000000 
#    z 0.000000 0.000000 1.628700 
# 
# From -- ./inp_files/45100.got.cif
#   From: 2010.05.17/outbox.cif.g08.bks.cpg/sg65_23_cif.got.tgz:45100.got - 2010.06.03 17:01:31.
