data_PCOD9487961
_publ_section_title
;
Structure prediction by ZEFSAII (Michael W. Deem and Ramdas Pophale) SiO2 
 PCOD9487961
Probable space group: C M M M
;
_chemical_formula_sum "Si O2"
_cell_formula_units_Z 104
_cell_length_a 28.173565
_cell_length_b 8.830025
_cell_length_c 24.545113
_cell_angle_alpha 90.000000
_cell_angle_beta 90.000000
_cell_angle_gamma 90.000000
_cell_volume 6106.168350
_symmetry_space_group_name_H-M "C M M M"
_symmetry_group_IT_number 65
_symmetry_cell_setting 'orthorhombic'
loop_
_space_group_symop_operation_xyz
x,y,z
-x,-y,z
x,-y,-z
-x,y,-z
-x,-y,-z
x,y,-z
-x,y,z
x,-y,z
1/2+x,1/2+y,z
1/2-x,1/2-y,z
1/2+x,1/2-y,-z
1/2-x,1/2+y,-z
1/2-x,1/2-y,-z
1/2+x,1/2+y,-z
1/2-x,1/2+y,z
1/2+x,1/2-y,z
loop_
_atom_site_type_symbol
_atom_site_label
_atom_site_fract_x
_atom_site_fract_y
_atom_site_fract_z
Si Si1 0.699185 0.682621 0.269107
Si Si2 0.399086 0.180685 0.063352
Si Si3 0.855966 0.817438 0.162876
Si Si4 0.500000 0.329007 0.065950
Si Si5 0.054471 0.682451 0.562712
Si Si6 0.106579 0.182418 0.337136
Si Si7 0.947930 0.816187 0.230713
O O1 0.700895 0.500000 0.270084
O O2 0.750000 0.750000 0.282914
O O3 0.683557 0.726628 0.207398
O O4 0.657140 0.728379 0.310788
O O5 0.358996 0.244732 0.103573
O O6 0.450743 0.247527 0.079804
O O7 0.401073 0.000000 0.066844
O O8 0.391048 0.223000 0.000000
O O9 0.905351 0.769905 0.191709
O O10 0.855248 0.000000 0.157981
O O11 0.500000 0.500000 0.088482
O O12 0.500000 0.336536 0.000000
O O13 0.064144 0.726679 0.500000
O O14 0.055738 0.500000 0.565215
O O15 0.091306 0.748922 0.605673
O O16 0.000000 0.729833 0.575612
O O17 0.067205 0.226013 0.291904
O O18 0.106869 0.000000 0.340989
O O19 0.000000 0.759921 0.215944
O O20 0.948571 0.000000 0.229142
#
# Coordination Sequence:
#
# PCOD9487961 Si02
#       7
#    16  16  16   8  16  16  16
#     4   9  19  35  54  77 100 123 157 203 255 304
#     4  10  20  32  45  65  96 128 158 198 244 286
#     4   9  18  31  48  71  94 120 160 198 233 292
#     4   9  17  29  45  63  85 123 169 199 224 269
#     4   9  18  31  46  69 105 144 175 202 235 278
#     4   9  17  30  49  73  98 125 164 206 243 288
#     4   8  14  25  42  65  93 122 151 189 235 278
#
# _framework density 17.031957999999999
#
# number of rings (size 3 to 8) (size 9 to 14) (size 15 to 20)
#    0.000    3.000    0.000    3.462    1.077    4.308 
#    0.000    3.077    0.000    1.846    0.000    0.000 
#    0.000    0.000    0.000    0.000    0.000    0.000 
#
# Total GULP energy -289716.739417 kJ/mol
# GULP energy per Si atom -5571.475758 kJ/mol
# Density = 1.699319 g / cm^3
# Si number density = 17.031958 Si / 1000 Ang^3
#
#
#
# Elastic Constant Matrix: (Units=GPa)
#
#
# Indices 1 2 3 4 5 6 
#
# 1 72.5988 16.3555 36.0065 0.0000 0.0000 0.0000
# 2 16.3555 20.1321 26.9418 0.0000 0.0000 0.0000
# 3 36.0065 26.9418 104.0110 0.0000 0.0000 0.0000
# 4 0.0000 0.0000 0.0000 17.7855 0.0000 0.0000
# 5 0.0000 0.0000 0.0000 0.0000 19.8960 0.0000
# 6 0.0000 0.0000 0.0000 0.0000 0.0000 20.0177
#
#
#
# Elastic Compliance Matrix: (Units=1/GPa)
#
#
# Indices 1 2 3 4 5 6 
#
# 1 0.017737 -0.009478 -0.003685 0.000000 0.000000 0.000000
# 2 -0.009478 0.081091 -0.017724 0.000000 0.000000 0.000000
# 3 -0.003685 -0.017724 0.015481 0.000000 0.000000 0.000000
# 4 0.000000 0.000000 0.000000 0.056226 0.000000 0.000000
# 5 0.000000 0.000000 0.000000 0.000000 0.050261 0.000000
# 6 0.000000 0.000000 0.000000 0.000000 0.000000 0.049956
#
#
# Mechanical properties :
#
#
# Convention : Reuss Voigt Hill
#
# Bulk Modulus (GPa) = 19.03494 39.48329 29.25912
# Shear Modulus (GPa) = 14.28416 19.36903 16.82660
#
# Velocity S-wave (km/s) = 2.89912 3.37592 3.14657
# Velocity P-wave (km/s) = 4.73358 6.19903 5.51520
#
# Compressibility (1/GPa) = 0.05253496
#
# Stress axis : x y z
#
# Youngs Moduli (GPa) = 56.37805 12.33185 64.59524
#
# Poissons Ratio (x) = 0.11689 0.23804
# Poissons Ratio (y) = 0.53437 1.14486
# Poissons Ratio (z) = 0.20776 0.21856
#
# Static dielectric constant tensor:
#      x y z
#    x 1.568720 0.000000 0.000000 
#    y 0.000000 1.574800 0.000000 
#    z 0.000000 0.000000 1.602570 
# 
# From -- ./inp_files/71859.got.cif
#   From: 2010.05.17/outbox.cif.g08.bks.cpg/sg65_36_cif.got.tgz:71859.got - 2010.06.03 17:01:31.
