data_PCOD9487054
_publ_section_title
;
Structure prediction by ZEFSAII (Michael W. Deem and Ramdas Pophale) SiO2 
 PCOD9487054
Probable space group: C M M M
;
_chemical_formula_sum "Si O2"
_cell_formula_units_Z 82
_cell_length_a 21.179605
_cell_length_b 29.854430
_cell_length_c 7.957276
_cell_angle_alpha 90.000000
_cell_angle_beta 90.000000
_cell_angle_gamma 90.000000
_cell_volume 5031.425679
_symmetry_space_group_name_H-M "C M M M"
_symmetry_group_IT_number 65
_symmetry_cell_setting 'orthorhombic'
loop_
_space_group_symop_operation_xyz
x,y,z
-x,-y,z
x,-y,-z
-x,y,-z
-x,-y,-z
x,y,-z
-x,y,z
x,-y,z
1/2+x,1/2+y,z
1/2-x,1/2-y,z
1/2+x,1/2-y,-z
1/2-x,1/2+y,-z
1/2-x,1/2-y,-z
1/2+x,1/2+y,-z
1/2-x,1/2+y,z
1/2+x,1/2-y,z
loop_
_atom_site_type_symbol
_atom_site_label
_atom_site_fract_x
_atom_site_fract_y
_atom_site_fract_z
Si Si1 0.245617 0.617660 0.189105
Si Si2 0.428490 0.744638 0.200806
Si Si3 0.257744 0.554188 0.500000
Si Si4 0.500000 0.500000 0.500000
Si Si5 0.605593 0.358930 0.809936
Si Si6 0.405440 0.418961 0.500000
Si Si7 0.799441 0.711868 0.303667
O O1 0.233441 0.580576 0.333095
O O2 0.318717 0.634107 0.199160
O O3 0.208064 0.663815 0.217352
O O4 0.235099 0.600280 0.000000
O O5 0.500000 0.754627 0.258807
O O6 0.413982 0.691994 0.223668
O O7 0.370605 0.770648 0.283877
O O8 0.425914 0.753033 0.000000
O O9 0.247686 0.500000 0.500000
O O10 0.332441 0.565485 0.500000
O O11 0.446312 0.461989 0.500000
O O12 0.580086 0.390216 0.665000
O O13 0.585452 0.370416 0.000000
O O14 0.783657 0.705269 0.500000
O O15 0.750000 0.750000 0.238684
#
# Coordination Sequence:
#
# PCOD9487054 Si02
#       7
#    16  16   8   2  16   8  16
#     4  10  19  33  56  80 102 137 180 221 271 322
#     4  10  21  34  49  74 109 145 181 220 262 312
#     4  10  20  38  54  73 104 131 165 233 283 320
#     4  12  24  40  50  76  88 142 188 224 300 328
#     4   9  19  35  54  74  98 135 179 222 268 313
#     4  10  22  36  51  67  98 128 173 229 277 324
#     4  11  21  32  52  79 110 145 183 222 266 321
#
# _framework density 16.297567999999998
#
# number of rings (size 3 to 8) (size 9 to 14) (size 15 to 20)
#    0.000    1.951    3.415    0.585    2.732    1.561 
#    0.000    0.976    0.000    0.000    0.000    0.000 
#    0.000    1.561    0.000    4.098    0.000    0.000 
#
# Total GULP energy -228383.881655 kJ/mol
# GULP energy per Si atom -5570.338577 kJ/mol
# Density = 1.626047 g / cm^3
# Si number density = 16.297568 Si / 1000 Ang^3
#
#
#
# Elastic Constant Matrix: (Units=GPa)
#
#
# Indices 1 2 3 4 5 6 
#
# 1 56.4306 31.9136 30.0886 0.0000 0.0000 0.0000
# 2 31.9136 99.5242 65.8343 0.0000 0.0000 0.0000
# 3 30.0886 65.8343 90.6392 0.0000 0.0000 0.0000
# 4 0.0000 0.0000 0.0000 4.0657 0.0000 0.0000
# 5 0.0000 0.0000 0.0000 0.0000 2.5686 0.0000
# 6 0.0000 0.0000 0.0000 0.0000 0.0000 27.7261
#
#
#
# Elastic Compliance Matrix: (Units=1/GPa)
#
#
# Indices 1 2 3 4 5 6 
#
# 1 0.022479 -0.004373 -0.004286 0.000000 0.000000 0.000000
# 2 -0.004373 0.020191 -0.013213 0.000000 0.000000 0.000000
# 3 -0.004286 -0.013213 0.022053 0.000000 0.000000 0.000000
# 4 0.000000 0.000000 0.000000 0.245960 0.000000 0.000000
# 5 0.000000 0.000000 0.000000 0.000000 0.389315 0.000000
# 6 0.000000 0.000000 0.000000 0.000000 0.000000 0.036067
#
#
# Mechanical properties :
#
#
# Convention : Reuss Voigt Hill
#
# Bulk Modulus (GPa) = 47.66930 55.80745 51.73838
# Shear Modulus (GPa) = 6.35483 14.78924 10.57204
#
# Velocity S-wave (km/s) = 1.97679 3.01566 2.54970
# Velocity P-wave (km/s) = 5.87564 6.81489 6.36262
#
# Compressibility (1/GPa) = 0.02097786
#
# Stress axis : x y z
#
# Youngs Moduli (GPa) = 44.48537 49.52782 45.34571
#
# Poissons Ratio (x) = 0.21660 0.19434
# Poissons Ratio (y) = 0.19454 0.59917
# Poissons Ratio (z) = 0.19066 0.65443
#
# Static dielectric constant tensor:
#      x y z
#    x 1.549010 0.000000 0.000000 
#    y 0.000000 1.506960 0.000000 
#    z 0.000000 0.000000 1.586290 
# 
# From -- ./inp_files/12140.got.cif
#   From: 2010.05.17/outbox.cif.g08.bks.cpg/sg65_7_cif.got.tgz:12140.got - 2010.06.03 17:01:31.
