data_PCOD9487850
_publ_section_title
;
Structure prediction by ZEFSAII (Michael W. Deem and Ramdas Pophale) SiO2 
 PCOD9487850
Probable space group: C M M M
;
_chemical_formula_sum "Si O2"
_cell_formula_units_Z 72
_cell_length_a 23.726960
_cell_length_b 7.587074
_cell_length_c 22.121702
_cell_angle_alpha 90.000000
_cell_angle_beta 90.000000
_cell_angle_gamma 90.000000
_cell_volume 3982.309004
_symmetry_space_group_name_H-M "C M M M"
_symmetry_group_IT_number 65
_symmetry_cell_setting 'orthorhombic'
loop_
_space_group_symop_operation_xyz
x,y,z
-x,-y,z
x,-y,-z
-x,y,-z
-x,-y,-z
x,y,-z
-x,y,z
x,-y,z
1/2+x,1/2+y,z
1/2-x,1/2-y,z
1/2+x,1/2-y,-z
1/2-x,1/2+y,-z
1/2-x,1/2-y,-z
1/2+x,1/2+y,-z
1/2-x,1/2+y,z
1/2+x,1/2-y,z
loop_
_atom_site_type_symbol
_atom_site_label
_atom_site_fract_x
_atom_site_fract_y
_atom_site_fract_z
Si Si1 0.683097 0.788498 0.630062
Si Si2 0.000000 0.210031 0.069655
Si Si3 0.815688 0.711651 0.000000
Si Si4 0.683336 0.212261 0.762136
Si Si5 0.121746 0.709816 0.881253
Si Si6 0.682845 0.211950 0.500000
O O1 0.750000 0.750000 0.629777
O O2 0.664094 0.721232 0.695783
O O3 0.660799 0.721483 0.565086
O O4 0.675538 0.000000 0.629777
O O5 0.056140 0.263779 0.105093
O O6 0.000000 0.000000 0.065519
O O7 0.000000 0.279634 0.000000
O O8 0.750000 0.750000 0.000000
O O9 0.844908 0.781841 0.060572
O O10 0.823566 0.500000 0.000000
O O11 0.750000 0.250000 0.770700
O O12 0.646861 0.279981 0.818426
O O13 0.678219 0.000000 0.760224
O O14 0.131882 0.500000 0.879576
O O15 0.750000 0.250000 0.500000
O O16 0.676221 0.000000 0.500000
#
# Coordination Sequence:
#
# PCOD9487850 Si02
#       6
#    16   8   8  16  16   8
#     4   8  13  21  33  52  79 111 145 175 204 242
#     4  11  23  37  53  71  85 104 139 184 226 259
#     4  10  20  31  46  67  89 114 142 170 205 250
#     4   9  17  28  43  64  90 119 148 177 213 255
#     4  10  20  34  50  66  87 116 145 175 215 262
#     4   8  12  18  30  48  74 109 144 175 203 234
#
# _framework density 18.079962999999999
#
# number of rings (size 3 to 8) (size 9 to 14) (size 15 to 20)
#    0.000    2.778    1.111    1.000    0.000    2.222 
#    0.000    0.000    0.000    0.000    0.000    0.000 
#    0.000    0.889    0.000   11.333    0.000    1.778 
#
# Total GULP energy -200449.314863 kJ/mol
# GULP energy per Si atom -5568.036524 kJ/mol
# Density = 1.803881 g / cm^3
# Si number density = 18.079963 Si / 1000 Ang^3
#
#
#
# Elastic Constant Matrix: (Units=GPa)
#
#
# Indices 1 2 3 4 5 6 
#
# 1 78.3222 -11.2747 77.2409 0.0000 0.0000 0.0000
# 2 -11.2747 41.6170 11.5423 0.0000 0.0000 0.0000
# 3 77.2409 11.5423 251.1488 0.0000 0.0000 0.0000
# 4 0.0000 0.0000 0.0000 68.4752 0.0000 0.0000
# 5 0.0000 0.0000 0.0000 0.0000 1.4835 0.0000
# 6 0.0000 0.0000 0.0000 0.0000 0.0000 16.7224
#
#
#
# Elastic Compliance Matrix: (Units=1/GPa)
#
#
# Indices 1 2 3 4 5 6 
#
# 1 0.020318 0.007331 -0.006586 0.000000 0.000000 0.000000
# 2 0.007331 0.026984 -0.003495 0.000000 0.000000 0.000000
# 3 -0.006586 -0.003495 0.006168 0.000000 0.000000 0.000000
# 4 0.000000 0.000000 0.000000 0.014604 0.000000 0.000000
# 5 0.000000 0.000000 0.000000 0.000000 0.674099 0.000000
# 6 0.000000 0.000000 0.000000 0.000000 0.000000 0.059800
#
#
# Mechanical properties :
#
#
# Convention : Reuss Voigt Hill
#
# Bulk Modulus (GPa) = 20.84612 58.45610 39.65111
# Shear Modulus (GPa) = 6.07193 36.90819 21.49006
#
# Velocity S-wave (km/s) = 1.83458 4.52307 3.45137
# Velocity P-wave (km/s) = 4.00531 7.72527 6.15314
#
# Compressibility (1/GPa) = 0.04797056
#
# Stress axis : x y z
#
# Youngs Moduli (GPa) = 49.21783 37.05903 162.13392
#
# Poissons Ratio (x) = -0.27168 1.06776
# Poissons Ratio (y) = -0.36081 0.56662
# Poissons Ratio (z) = 0.32413 0.12951
#
# Static dielectric constant tensor:
#      x y z
#    x 1.551660 0.000000 0.000000 
#    y 0.000000 1.761640 0.000000 
#    z 0.000000 0.000000 1.723020 
# 
# From -- ./inp_files/59344.got.cif
#   From: 2010.05.17/outbox.cif.g08.bks.cpg/sg65_30_cif.got.tgz:59344.got - 2010.06.03 17:01:31.
