data_PCOD9487047
_publ_section_title
;
Structure prediction by ZEFSAII (Michael W. Deem and Ramdas Pophale) SiO2 
 PCOD9487047
Probable space group: C M M M
;
_chemical_formula_sum "Si O2"
_cell_formula_units_Z 88
_cell_length_a 21.231051
_cell_length_b 27.791466
_cell_length_c 7.600896
_cell_angle_alpha 90.000000
_cell_angle_beta 90.000000
_cell_angle_gamma 90.000000
_cell_volume 4484.848121
_symmetry_space_group_name_H-M "C M M M"
_symmetry_group_IT_number 65
_symmetry_cell_setting 'orthorhombic'
loop_
_space_group_symop_operation_xyz
x,y,z
-x,-y,z
x,-y,-z
-x,y,-z
-x,-y,-z
x,y,-z
-x,y,z
x,-y,z
1/2+x,1/2+y,z
1/2-x,1/2-y,z
1/2+x,1/2-y,-z
1/2-x,1/2+y,-z
1/2-x,1/2-y,-z
1/2+x,1/2+y,-z
1/2-x,1/2+y,z
1/2+x,1/2-y,z
loop_
_atom_site_type_symbol
_atom_site_label
_atom_site_fract_x
_atom_site_fract_y
_atom_site_fract_z
Si Si1 0.622035 0.628500 0.302394
Si Si2 0.742934 0.694096 0.213495
Si Si3 0.127548 0.650939 0.795152
Si Si4 0.428202 0.945741 0.712494
Si Si5 0.923189 0.057850 0.000000
Si Si6 0.500000 0.689352 0.787459
Si Si7 0.500000 0.198898 0.215175
O O1 0.625743 0.609368 0.500000
O O2 0.682561 0.662720 0.268994
O O3 0.608628 0.585369 0.165406
O O4 0.561726 0.663103 0.281868
O O5 0.750000 0.750000 0.268155
O O6 0.806626 0.668549 0.278629
O O7 0.740409 0.694219 0.000000
O O8 0.118550 0.594120 0.781378
O O9 0.063915 0.674111 0.718868
O O10 0.128683 0.665303 0.000000
O O11 0.427800 0.944489 0.500000
O O12 0.500000 0.934516 0.769971
O O13 0.413751 0.000000 0.767796
O O14 0.000000 0.065831 0.000000
O O15 0.913498 0.000000 0.000000
O O16 0.500000 0.745239 0.739754
O O17 0.500000 0.686269 0.000000
O O18 0.500000 0.194703 0.000000
#
# Coordination Sequence:
#
# PCOD9487047 Si02
#       7
#    16  16  16  16   8   8   8
#     4  12  23  40  66  98 130 164 213 264 315 384
#     4  10  21  39  62  87 124 174 212 250 314 383
#     4  10  19  33  55  85 113 148 202 251 297 355
#     4   9  18  33  52  73 103 148 191 232 292 352
#     4  11  24  46  73 100 130 167 210 267 339 395
#     4  11  19  37  63  88 125 165 200 246 309 375
#     4   9  18  31  54  86 119 159 204 250 300 358
#
# _framework density 19.621624000000001
#
# number of rings (size 3 to 8) (size 9 to 14) (size 15 to 20)
#    0.000    1.727    3.636    1.909    0.000    4.727 
#    0.000    6.364    0.000    0.000    0.000    0.000 
#    0.000    0.000    0.000    0.000    0.000    0.000 
#
# Total GULP energy -245647.081304 kJ/mol
# GULP energy per Si atom -5582.888211 kJ/mol
# Density = 1.957696 g / cm^3
# Si number density = 19.621624 Si / 1000 Ang^3
#
#
#
# Elastic Constant Matrix: (Units=GPa)
#
#
# Indices 1 2 3 4 5 6 
#
# 1 178.4794 95.0381 29.0425 0.0000 0.0000 0.0000
# 2 95.0381 150.5848 32.5869 0.0000 0.0000 0.0000
# 3 29.0425 32.5869 95.8198 0.0000 0.0000 0.0000
# 4 0.0000 0.0000 0.0000 38.8424 0.0000 0.0000
# 5 0.0000 0.0000 0.0000 0.0000 0.9079 0.0000
# 6 0.0000 0.0000 0.0000 0.0000 0.0000 16.2155
#
#
#
# Elastic Compliance Matrix: (Units=1/GPa)
#
#
# Indices 1 2 3 4 5 6 
#
# 1 0.008497 -0.005187 -0.000811 0.000000 0.000000 0.000000
# 2 -0.005187 0.010335 -0.001943 0.000000 0.000000 0.000000
# 3 -0.000811 -0.001943 0.011343 0.000000 0.000000 0.000000
# 4 0.000000 0.000000 0.000000 0.025745 0.000000 0.000000
# 5 0.000000 0.000000 0.000000 0.000000 1.101461 0.000000
# 6 0.000000 0.000000 0.000000 0.000000 0.000000 0.061669
#
#
# Mechanical properties :
#
#
# Convention : Reuss Voigt Hill
#
# Bulk Modulus (GPa) = 69.96590 82.02435 75.99512
# Shear Modulus (GPa) = 4.03325 29.07426 16.55376
#
# Velocity S-wave (km/s) = 1.43526 3.85352 2.90771
# Velocity P-wave (km/s) = 6.20335 7.85451 7.07725
#
# Compressibility (1/GPa) = 0.01429268
#
# Stress axis : x y z
#
# Youngs Moduli (GPa) = 117.68897 96.75991 88.16160
#
# Poissons Ratio (x) = 0.50190 0.07153
# Poissons Ratio (y) = 0.61046 0.17126
# Poissons Ratio (z) = 0.09549 0.18796
#
# Static dielectric constant tensor:
#      x y z
#    x 1.673000 0.000000 0.000000 
#    y 0.000000 1.661020 0.000000 
#    z 0.000000 0.000000 1.735300 
# 
# From -- ./inp_files/10234.got.cif
#   From: 2010.05.17/outbox.cif.g08.bks.cpg/sg65_6_cif.got.tgz:10234.got - 2010.06.03 17:01:31.
