data_PCOD9487357
_publ_section_title
;
Structure prediction by ZEFSAII (Michael W. Deem and Ramdas Pophale) SiO2 
 PCOD9487357
Probable space group: C M M M
;
_chemical_formula_sum "Si O2"
_cell_formula_units_Z 120
_cell_length_a 16.770270
_cell_length_b 17.624536
_cell_length_c 21.011145
_cell_angle_alpha 90.000000
_cell_angle_beta 90.000000
_cell_angle_gamma 90.000000
_cell_volume 6210.226882
_symmetry_space_group_name_H-M "C M M M"
_symmetry_group_IT_number 65
_symmetry_cell_setting 'orthorhombic'
loop_
_space_group_symop_operation_xyz
x,y,z
-x,-y,z
x,-y,-z
-x,y,-z
-x,-y,-z
x,y,-z
-x,y,z
x,-y,z
1/2+x,1/2+y,z
1/2-x,1/2-y,z
1/2+x,1/2-y,-z
1/2-x,1/2+y,-z
1/2-x,1/2-y,-z
1/2+x,1/2+y,-z
1/2-x,1/2+y,z
1/2+x,1/2-y,z
loop_
_atom_site_type_symbol
_atom_site_label
_atom_site_fract_x
_atom_site_fract_y
_atom_site_fract_z
Si Si1 0.853972 0.803288 0.897412
Si Si2 0.153042 0.415133 0.210756
Si Si3 0.180006 0.639907 0.069629
Si Si4 0.088532 0.829895 0.640930
Si Si5 0.912046 0.253396 0.775396
Si Si6 0.000000 0.086442 0.075983
Si Si7 0.668297 0.798604 0.570520
Si Si8 0.747042 0.087597 0.335601
O O1 0.869148 0.719334 0.926139
O O2 0.772245 0.834477 0.925738
O O3 0.847857 0.783036 0.822726
O O4 0.922101 0.865282 0.906122
O O5 0.121427 0.500000 0.222508
O O6 0.167371 0.406394 0.134805
O O7 0.099129 0.343283 0.227931
O O8 0.227687 0.405879 0.259863
O O9 0.165307 0.604646 0.000000
O O10 0.092251 0.785029 0.707545
O O11 0.103184 0.764165 0.589112
O O12 0.164068 0.885812 0.644884
O O13 0.000000 0.864027 0.634065
O O14 0.000000 0.237706 0.802852
O O15 0.000000 0.000000 0.102053
O O16 0.000000 0.081047 0.000000
O O17 0.654828 0.830699 0.500000
O O18 0.750000 0.750000 0.569263
O O19 0.684884 0.860811 0.624767
O O20 0.736832 0.000000 0.352519
#
# Coordination Sequence:
#
# PCOD9487357 Si02
#       8
#    16  16  16  16  16   8  16  16
#     4  10  19  35  54  76 103 135 186 230 271 332
#     4  10  21  35  55  81 109 144 185 234 287 337
#     4  10  20  34  56  79 102 141 186 234 281 332
#     4  10  20  34  57  85 117 151 191 232 281 335
#     4  10  19  34  57  82 105 143 185 232 283 333
#     4  11  22  34  50  74 109 147 176 220 284 341
#     4   9  18  34  58  85 114 150 191 231 267 323
#     4  10  20  36  57  85 118 151 191 235 283 339
#
# _framework density 19.322965
#
# number of rings (size 3 to 8) (size 9 to 14) (size 15 to 20)
#    0.000    2.067    2.000    2.400    0.000    2.933 
#    0.000    0.667    0.000    0.400    0.000    6.533 
#    0.000    0.000    0.000    0.000    0.000    0.000 
#
# Total GULP energy -334189.044264 kJ/mol
# GULP energy per Si atom -5569.817404 kJ/mol
# Density = 1.927899 g / cm^3
# Si number density = 19.322965 Si / 1000 Ang^3
#
#
#
# Elastic Constant Matrix: (Units=GPa)
#
#
# Indices 1 2 3 4 5 6 
#
# 1 39.1855 14.7757 4.2717 0.0000 0.0000 0.0000
# 2 14.7757 92.9500 18.4386 0.0000 0.0000 0.0000
# 3 4.2717 18.4386 91.1285 0.0000 0.0000 0.0000
# 4 0.0000 0.0000 0.0000 12.1127 0.0000 0.0000
# 5 0.0000 0.0000 0.0000 0.0000 20.7324 0.0000
# 6 0.0000 0.0000 0.0000 0.0000 0.0000 128.0888
#
#
#
# Elastic Compliance Matrix: (Units=1/GPa)
#
#
# Indices 1 2 3 4 5 6 
#
# 1 0.027162 -0.004235 -0.000416 0.000000 0.000000 0.000000
# 2 -0.004235 0.011869 -0.002203 0.000000 0.000000 0.000000
# 3 -0.000416 -0.002203 0.011439 0.000000 0.000000 0.000000
# 4 0.000000 0.000000 0.000000 0.082558 0.000000 0.000000
# 5 0.000000 0.000000 0.000000 0.000000 0.048234 0.000000
# 6 0.000000 0.000000 0.000000 0.000000 0.000000 0.007807
#
#
# Mechanical properties :
#
#
# Convention : Reuss Voigt Hill
#
# Bulk Modulus (GPa) = 27.20305 33.13735 30.17020
# Shear Modulus (GPa) = 23.25251 44.57197 33.91224
#
# Velocity S-wave (km/s) = 3.47271 4.80801 4.19384
# Velocity P-wave (km/s) = 5.49439 6.92885 6.25289
#
# Compressibility (1/GPa) = 0.03676058
#
# Stress axis : x y z
#
# Youngs Moduli (GPa) = 36.81613 84.25506 87.42206
#
# Poissons Ratio (x) = 0.35684 0.03639
# Poissons Ratio (y) = 0.15592 0.19259
# Poissons Ratio (z) = 0.01533 0.18561
#
# Static dielectric constant tensor:
#      x y z
#    x 1.717010 0.000000 0.000000 
#    y 0.000000 1.655710 0.000000 
#    z 0.000000 0.000000 1.716740 
# 
# From -- ./inp_files/64007.got.cif
#   From: 2010.05.17/outbox.cif.g08.bks.cpg/sg65_33_cif.got.tgz:64007.got - 2010.06.03 17:01:31.
