data_PCOD9487326
_publ_section_title
;
Structure prediction by ZEFSAII (Michael W. Deem and Ramdas Pophale) SiO2 
 PCOD9487326
Probable space group: C M M M
;
_chemical_formula_sum "Si O2"
_cell_formula_units_Z 88
_cell_length_a 24.165462
_cell_length_b 22.331866
_cell_length_c 8.880045
_cell_angle_alpha 90.000000
_cell_angle_beta 90.000000
_cell_angle_gamma 90.000000
_cell_volume 4792.203834
_symmetry_space_group_name_H-M "C M M M"
_symmetry_group_IT_number 65
_symmetry_cell_setting 'orthorhombic'
loop_
_space_group_symop_operation_xyz
x,y,z
-x,-y,z
x,-y,-z
-x,y,-z
-x,-y,-z
x,y,-z
-x,y,z
x,-y,z
1/2+x,1/2+y,z
1/2-x,1/2-y,z
1/2+x,1/2-y,-z
1/2-x,1/2+y,-z
1/2-x,1/2-y,-z
1/2+x,1/2+y,-z
1/2-x,1/2+y,z
1/2+x,1/2-y,z
loop_
_atom_site_type_symbol
_atom_site_label
_atom_site_fract_x
_atom_site_fract_y
_atom_site_fract_z
Si Si1 0.730709 0.932900 0.675155
Si Si2 0.065360 0.000000 0.180902
Si Si3 0.934239 0.569149 0.674314
Si Si4 0.144131 0.099784 0.678608
Si Si5 0.148570 0.655506 0.825203
Si Si6 0.311967 0.729548 0.319660
O O1 0.719951 0.916985 0.500000
O O2 0.796444 0.932302 0.694221
O O3 0.701279 0.884752 0.778585
O O4 0.709774 0.000000 0.702396
O O5 0.097715 0.059088 0.242197
O O6 0.000000 0.000000 0.223861
O O7 0.068523 0.000000 0.000000
O O8 0.916787 0.578587 0.500000
O O9 0.922390 0.500000 0.712231
O O10 0.902965 0.614384 0.781080
O O11 0.000000 0.576958 0.681005
O O12 0.130724 0.102726 0.500000
O O13 0.160007 0.167240 0.733189
O O14 0.149912 0.715378 0.727391
O O15 0.149917 0.670303 0.000000
O O16 0.307179 0.723363 0.500000
O O17 0.250000 0.750000 0.265604
#
# Coordination Sequence:
#
# PCOD9487326 Si02
#       6
#    16   8  16  16  16  16
#     4  10  19  34  56  82 114 150 191 239 290 339
#     4  11  25  43  63  89 125 163 192 237 308 367
#     4   9  19  38  62  83 106 145 197 245 284 326
#     4  10  20  38  64  89 110 145 199 249 289 338
#     4  12  24  34  51  84 124 157 189 229 284 352
#     4  10  20  38  61  83 114 155 197 241 289 343
#
# _framework density 18.363157999999999
#
# number of rings (size 3 to 8) (size 9 to 14) (size 15 to 20)
#    0.000    1.727    2.727    3.000    0.000    5.818 
#    0.000    1.818    0.000    1.091    0.000    0.000 
#    0.000    0.000    0.000    0.000    0.000    0.000 
#
# Total GULP energy -245459.181803 kJ/mol
# GULP energy per Si atom -5578.617768 kJ/mol
# Density = 1.832136 g / cm^3
# Si number density = 18.363158 Si / 1000 Ang^3
#
#
#
# Elastic Constant Matrix: (Units=GPa)
#
#
# Indices 1 2 3 4 5 6 
#
# 1 104.5873 43.8715 20.4330 0.0000 0.0000 0.0000
# 2 43.8715 113.9850 26.1743 0.0000 0.0000 0.0000
# 3 20.4330 26.1743 8.3654 0.0000 0.0000 0.0000
# 4 0.0000 0.0000 0.0000 6.9747 0.0000 0.0000
# 5 0.0000 0.0000 0.0000 0.0000 42.8717 0.0000
# 6 0.0000 0.0000 0.0000 0.0000 0.0000 66.8685
#
#
#
# Elastic Compliance Matrix: (Units=1/GPa)
#
#
# Indices 1 2 3 4 5 6 
#
# 1 0.023732 0.014836 -0.104389 0.000000 0.000000 0.000000
# 2 0.014836 0.040439 -0.162766 0.000000 0.000000 0.000000
# 3 -0.104389 -0.162766 0.883791 0.000000 0.000000 0.000000
# 4 0.000000 0.000000 0.000000 0.143375 0.000000 0.000000
# 5 0.000000 0.000000 0.000000 0.000000 0.023325 0.000000
# 6 0.000000 0.000000 0.000000 0.000000 0.000000 0.014955
#
#
# Mechanical properties :
#
#
# Convention : Reuss Voigt Hill
#
# Bulk Modulus (GPa) = 2.25568 45.32170 23.78869
# Shear Modulus (GPa) = 2.80579 32.44024 17.62302
#
# Velocity S-wave (km/s) = 1.23744 4.20765 3.10125
# Velocity P-wave (km/s) = 1.80907 6.95270 5.08000
#
# Compressibility (1/GPa) = 0.44332511
#
# Stress axis : x y z
#
# Youngs Moduli (GPa) = 42.13701 24.72883 1.13149
#
# Poissons Ratio (x) = -0.36689 0.11811
# Poissons Ratio (y) = -0.62516 0.18417
# Poissons Ratio (z) = 4.39862 4.02502
#
# Static dielectric constant tensor:
#      x y z
#    x 1.640510 0.000000 0.000000 
#    y 0.000000 1.655860 0.000000 
#    z 0.000000 0.000000 1.622010 
# 
# From -- ./inp_files/13968.got.cif
#   From: 2010.05.17/outbox.cif.g08.bks.cpg/sg65_7_cif.got.tgz:13968.got - 2010.06.03 17:01:31.
