data_PCOD9487424
_publ_section_title
;
Structure prediction by ZEFSAII (Michael W. Deem and Ramdas Pophale) SiO2 
 PCOD9487424
Probable space group: C M M M
;
_chemical_formula_sum "Si O2"
_cell_formula_units_Z 72
_cell_length_a 15.438573
_cell_length_b 8.198449
_cell_length_c 28.913602
_cell_angle_alpha 90.000000
_cell_angle_beta 90.000000
_cell_angle_gamma 90.000000
_cell_volume 3659.662650
_symmetry_space_group_name_H-M "C M M M"
_symmetry_group_IT_number 65
_symmetry_cell_setting 'orthorhombic'
loop_
_space_group_symop_operation_xyz
x,y,z
-x,-y,z
x,-y,-z
-x,y,-z
-x,-y,-z
x,y,-z
-x,y,z
x,-y,z
1/2+x,1/2+y,z
1/2-x,1/2-y,z
1/2+x,1/2-y,-z
1/2-x,1/2+y,-z
1/2-x,1/2-y,-z
1/2+x,1/2+y,-z
1/2-x,1/2+y,z
1/2+x,1/2-y,z
loop_
_atom_site_type_symbol
_atom_site_label
_atom_site_fract_x
_atom_site_fract_y
_atom_site_fract_z
Si Si1 0.394880 0.317284 0.611011
Si Si2 0.000000 0.193850 0.881713
Si Si3 0.606017 0.000000 0.446641
Si Si4 0.847431 0.694859 0.052264
Si Si5 0.000000 0.803133 0.223881
Si Si6 0.844186 0.693538 0.288454
O O1 0.500000 0.315270 0.611236
O O2 0.367462 0.500000 0.596365
O O3 0.364086 0.282764 0.663072
O O4 0.365872 0.165572 0.579365
O O5 0.083819 0.246783 0.910522
O O6 0.000000 0.255856 0.829085
O O7 0.000000 0.000000 0.878998
O O8 0.500000 0.000000 0.445608
O O9 0.632833 0.000000 0.500000
O O10 0.849820 0.500000 0.051195
O O11 0.750000 0.750000 0.063015
O O12 0.868472 0.754888 0.000000
O O13 0.083401 0.740546 0.251487
O O14 0.000000 0.000000 0.224928
O O15 0.846166 0.500000 0.296704
O O16 0.750000 0.750000 0.272255
#
# Coordination Sequence:
#
# PCOD9487424 Si02
#       6
#    16   8   8  16   8  16
#     4  10  19  34  58  87 122 160 201 255 309 366
#     4  11  24  40  61  88 124 166 203 253 315 378
#     4   9  18  32  54  88 124 161 207 251 303 376
#     4  10  21  38  62  91 123 161 210 259 305 366
#     4  11  25  44  62  89 126 161 205 257 318 373
#     4  12  24  40  64  93 120 158 209 259 311 375
#
# _framework density 19.673946000000001
#
# number of rings (size 3 to 8) (size 9 to 14) (size 15 to 20)
#    0.000    1.444    2.222    3.667    0.000    5.778 
#    0.000    2.222    0.000    0.667    0.000    0.000 
#    0.000    0.000    0.000    0.000    0.000    0.000 
#
# Total GULP energy -201269.998942 kJ/mol
# GULP energy per Si atom -5590.833304 kJ/mol
# Density = 1.962917 g / cm^3
# Si number density = 19.673946 Si / 1000 Ang^3
#
#
#
# Elastic Constant Matrix: (Units=GPa)
#
#
# Indices 1 2 3 4 5 6 
#
# 1 92.6199 42.9712 82.1578 0.0000 0.0000 0.0000
# 2 42.9712 131.8997 55.5546 0.0000 0.0000 0.0000
# 3 82.1578 55.5546 161.5060 0.0000 0.0000 0.0000
# 4 0.0000 0.0000 0.0000 26.8101 0.0000 0.0000
# 5 0.0000 0.0000 0.0000 0.0000 -15.4880 0.0000
# 6 0.0000 0.0000 0.0000 0.0000 0.0000 28.1274
#
#
#
# Elastic Compliance Matrix: (Units=1/GPa)
#
#
# Indices 1 2 3 4 5 6 
#
# 1 0.020447 -0.002667 -0.009484 0.000000 0.000000 0.000000
# 2 -0.002667 0.009214 -0.001813 0.000000 0.000000 0.000000
# 3 -0.009484 -0.001813 0.011640 0.000000 0.000000 0.000000
# 4 0.000000 0.000000 0.000000 0.037299 0.000000 0.000000
# 5 0.000000 0.000000 0.000000 0.000000 -0.064566 0.000000
# 6 0.000000 0.000000 0.000000 0.000000 0.000000 0.035553
#
#
# Mechanical properties :
#
#
# Convention : Reuss Voigt Hill
#
# Bulk Modulus (GPa) = 74.77549 83.04367 78.90958
# Shear Modulus (GPa) = 60.99748 21.57937 41.28842
#
# Velocity S-wave (km/s) = 5.57418 3.31547 4.58606
# Velocity P-wave (km/s) = 8.91732 7.54705 8.26065
#
# Compressibility (1/GPa) = 0.01337337
#
# Stress axis : x y z
#
# Youngs Moduli (GPa) = 48.90777 108.53235 85.91285
#
# Poissons Ratio (x) = 0.28943 0.81479
# Poissons Ratio (y) = 0.13043 0.15574
# Poissons Ratio (z) = 0.46383 0.19675
#
# Static dielectric constant tensor:
#      x y z
#    x 1.683490 0.000000 0.000000 
#    y 0.000000 1.692810 0.000000 
#    z 0.000000 0.000000 1.665160 
# 
# From -- ./inp_files/74685.got.cif
#   From: 2010.05.17/outbox.cif.g08.bks.cpg/sg65_38_cif.got.tgz:74685.got - 2010.06.03 17:01:31.
