data_PCOD9487490
_publ_section_title
;
Structure prediction by ZEFSAII (Michael W. Deem and Ramdas Pophale) SiO2 
 PCOD9487490
Probable space group: C M M M
;
_chemical_formula_sum "Si O2"
_cell_formula_units_Z 116
_cell_length_a 29.395948
_cell_length_b 23.727281
_cell_length_c 9.235215
_cell_angle_alpha 90.000000
_cell_angle_beta 90.000000
_cell_angle_gamma 90.000000
_cell_volume 6441.432416
_symmetry_space_group_name_H-M "C M M M"
_symmetry_group_IT_number 65
_symmetry_cell_setting 'orthorhombic'
loop_
_space_group_symop_operation_xyz
x,y,z
-x,-y,z
x,-y,-z
-x,y,-z
-x,-y,-z
x,y,-z
-x,y,z
x,-y,z
1/2+x,1/2+y,z
1/2-x,1/2-y,z
1/2+x,1/2-y,-z
1/2-x,1/2+y,-z
1/2-x,1/2-y,-z
1/2+x,1/2+y,-z
1/2-x,1/2+y,z
1/2+x,1/2-y,z
loop_
_atom_site_type_symbol
_atom_site_label
_atom_site_fract_x
_atom_site_fract_y
_atom_site_fract_z
Si Si1 0.051392 0.326662 0.826963
Si Si2 0.696911 0.265017 0.327274
Si Si3 0.277461 0.933429 0.328431
Si Si4 0.065477 0.000000 0.500000
Si Si5 0.946474 0.806706 0.834685
Si Si6 0.604849 0.600284 0.340434
Si Si7 0.189583 0.883834 0.827759
Si Si8 0.142113 0.651683 0.326740
O O1 0.057011 0.259491 0.801003
O O2 0.093619 0.355379 0.748836
O O3 0.000000 0.342460 0.780143
O O4 0.053837 0.334912 0.000000
O O5 0.691649 0.274995 0.500000
O O6 0.750000 0.250000 0.303437
O O7 0.685693 0.320488 0.236211
O O8 0.665826 0.211408 0.286892
O O9 0.268159 0.923399 0.500000
O O10 0.235038 0.911040 0.237280
O O11 0.322096 0.897432 0.290632
O O12 0.283944 0.000000 0.307561
O O13 0.070377 0.950288 0.624288
O O14 0.920024 0.845962 0.724775
O O15 0.000000 0.820534 0.830890
O O16 0.930019 0.815648 0.000000
O O17 0.625194 0.612910 0.500000
O O18 0.645777 0.583806 0.235224
O O19 0.190392 0.883258 0.000000
O O20 0.136087 0.652154 0.500000
#
# Coordination Sequence:
#
# PCOD9487490 Si02
#       8
#    16  16  16   4  16  16  16  16
#     4   9  19  35  56  83 115 148 176 210 270 338
#     4  10  19  35  55  79 114 149 182 220 274 337
#     4  10  22  40  60  78 105 149 192 228 274 329
#     4   8  24  40  55  74  98 144 194 238 275 330
#     4   9  18  35  58  84 112 140 174 221 280 341
#     4  10  21  38  55  74 101 142 190 230 277 326
#     4  12  24  35  54  82 112 144 186 235 282 333
#     4  10  20  35  57  85 113 143 182 231 272 318
#
# _framework density 18.008417000000001
#
# number of rings (size 3 to 8) (size 9 to 14) (size 15 to 20)
#    0.414    1.655    1.379    3.310    0.966    4.966 
#    0.000    3.103    0.000    1.241    0.000    2.897 
#    0.000    0.000    0.000    0.000    0.000    0.000 
#
# Total GULP energy -323023.065990 kJ/mol
# GULP energy per Si atom -5569.363207 kJ/mol
# Density = 1.796743 g / cm^3
# Si number density = 18.008417 Si / 1000 Ang^3
#
#
#
# Elastic Constant Matrix: (Units=GPa)
#
#
# Indices 1 2 3 4 5 6 
#
# 1 85.2228 20.3845 35.3687 0.0000 0.0000 0.0000
# 2 20.3845 53.6877 32.6478 0.0000 0.0000 0.0000
# 3 35.3687 32.6478 66.5469 0.0000 0.0000 0.0000
# 4 0.0000 0.0000 0.0000 7.2974 0.0000 0.0000
# 5 0.0000 0.0000 0.0000 0.0000 29.6824 0.0000
# 6 0.0000 0.0000 0.0000 0.0000 0.0000 -7.0630
#
#
#
# Elastic Compliance Matrix: (Units=1/GPa)
#
#
# Indices 1 2 3 4 5 6 
#
# 1 0.015110 -0.001216 -0.007434 0.000000 0.000000 0.000000
# 2 -0.001216 0.026644 -0.012425 0.000000 0.000000 0.000000
# 3 -0.007434 -0.012425 0.025074 0.000000 0.000000 0.000000
# 4 0.000000 0.000000 0.000000 0.137034 0.000000 0.000000
# 5 0.000000 0.000000 0.000000 0.000000 0.033690 0.000000
# 6 0.000000 0.000000 0.000000 0.000000 0.000000 -0.141583
#
#
# Mechanical properties :
#
#
# Convention : Reuss Voigt Hill
#
# Bulk Modulus (GPa) = 40.52371 42.47327 41.49849
# Shear Modulus (GPa) = 34.16581 13.78713 23.97647
#
# Velocity S-wave (km/s) = 4.36043 2.76994 3.65280
# Velocity P-wave (km/s) = 6.92117 5.81949 6.39410
#
# Compressibility (1/GPa) = 0.02467691
#
# Stress axis : x y z
#
# Youngs Moduli (GPa) = 66.18078 37.53221 39.88240
#
# Poissons Ratio (x) = 0.04566 0.29649
# Poissons Ratio (y) = 0.08050 0.49553
# Poissons Ratio (z) = 0.49199 0.46633
#
# Static dielectric constant tensor:
#      x y z
#    x 1.641430 0.000000 0.000000 
#    y 0.000000 1.603110 0.000000 
#    z 0.000000 0.000000 1.607040 
# 
# From -- ./inp_files/18953.got.cif
#   From: 2010.05.17/outbox.cif.g08.bks.cpg/sg65_10_cif.got.tgz:18953.got - 2010.06.03 17:01:31.
