data_PCOD9487085
_publ_section_title
;
Structure prediction by ZEFSAII (Michael W. Deem and Ramdas Pophale) SiO2 
 PCOD9487085
Probable space group: C M M M
;
_chemical_formula_sum "Si O2"
_cell_formula_units_Z 72
_cell_length_a 16.799979
_cell_length_b 24.861166
_cell_length_c 7.435560
_cell_angle_alpha 90.000000
_cell_angle_beta 90.000000
_cell_angle_gamma 90.000000
_cell_volume 3105.588535
_symmetry_space_group_name_H-M "C M M M"
_symmetry_group_IT_number 65
_symmetry_cell_setting 'orthorhombic'
loop_
_space_group_symop_operation_xyz
x,y,z
-x,-y,z
x,-y,-z
-x,y,-z
-x,-y,-z
x,y,-z
-x,y,z
x,-y,z
1/2+x,1/2+y,z
1/2-x,1/2-y,z
1/2+x,1/2-y,-z
1/2-x,1/2+y,-z
1/2-x,1/2-y,-z
1/2+x,1/2+y,-z
1/2-x,1/2+y,z
1/2+x,1/2-y,z
loop_
_atom_site_type_symbol
_atom_site_label
_atom_site_fract_x
_atom_site_fract_y
_atom_site_fract_z
Si Si1 0.172662 0.059401 0.217780
Si Si2 0.670172 0.111713 0.705805
Si Si3 0.500000 0.407725 0.782580
Si Si4 0.336008 0.233187 0.794232
Si Si5 0.500000 0.281962 0.781050
Si Si6 0.093455 0.500000 0.281656
O O1 0.235140 0.102159 0.287760
O O2 0.082665 0.067457 0.280204
O O3 0.200349 0.000000 0.271676
O O4 0.173454 0.062547 0.000000
O O5 0.642821 0.116546 0.500000
O O6 0.654434 0.168774 0.795310
O O7 0.632087 0.056449 0.781895
O O8 0.500000 0.344928 0.742566
O O9 0.500000 0.414399 0.000000
O O10 0.250000 0.250000 0.714134
O O11 0.417166 0.256955 0.713820
O O12 0.333194 0.253931 0.000000
O O13 0.500000 0.274894 0.000000
O O14 0.102702 0.500000 0.500000
O O15 0.000000 0.500000 0.239625
#
# Coordination Sequence:
#
# PCOD9487085 Si02
#       6
#    16  16   8  16   8   8
#     4  10  19  33  56  85 116 148 186 227 270 325
#     4  11  22  37  59  83 113 149 188 232 281 337
#     4   9  17  32  56  84 111 147 188 224 268 328
#     4  10  21  38  59  83 113 148 186 233 285 335
#     4   9  18  33  55  81 109 142 183 231 283 334
#     4   9  20  38  57  78 107 148 190 227 277 339
#
# _framework density 23.184011999999999
#
# number of rings (size 3 to 8) (size 9 to 14) (size 15 to 20)
#    0.000    2.111    1.111    2.333    1.556    5.333 
#    0.000    0.556    0.000    5.333    0.000    0.000 
#    0.000    0.000    0.000    0.000    0.000    0.000 
#
# Total GULP energy -201137.588125 kJ/mol
# GULP energy per Si atom -5587.155226 kJ/mol
# Density = 2.313124 g / cm^3
# Si number density = 23.184012 Si / 1000 Ang^3
#
#
#
# Elastic Constant Matrix: (Units=GPa)
#
#
# Indices 1 2 3 4 5 6 
#
# 1 130.5905 34.4245 1.4173 0.0000 0.0000 0.0000
# 2 34.4245 76.7088 -0.4980 0.0000 0.0000 0.0000
# 3 1.4173 -0.4980 72.8907 0.0000 0.0000 0.0000
# 4 0.0000 0.0000 0.0000 -34.2094 0.0000 0.0000
# 5 0.0000 0.0000 0.0000 0.0000 0.0799 0.0000
# 6 0.0000 0.0000 0.0000 0.0000 0.0000 47.2306
#
#
#
# Elastic Compliance Matrix: (Units=1/GPa)
#
#
# Indices 1 2 3 4 5 6 
#
# 1 0.008688 -0.003900 -0.000196 0.000000 0.000000 0.000000
# 2 -0.003900 0.014788 0.000177 0.000000 0.000000 0.000000
# 3 -0.000196 0.000177 0.013724 0.000000 0.000000 0.000000
# 4 0.000000 0.000000 0.000000 -0.029232 0.000000 0.000000
# 5 0.000000 0.000000 0.000000 0.000000 12.518083 0.000000
# 6 0.000000 0.000000 0.000000 0.000000 0.000000 0.021173
#
#
# Mechanical properties :
#
#
# Convention : Reuss Voigt Hill
#
# Bulk Modulus (GPa) = 34.05753 38.98640 36.52197
# Shear Modulus (GPa) = 0.39794 18.94329 9.67061
#
# Velocity S-wave (km/s) = 0.41475 2.86157 2.04458
# Velocity P-wave (km/s) = 3.86670 5.26979 4.62180
#
# Compressibility (1/GPa) = 0.02936209
#
# Stress axis : x y z
#
# Youngs Moduli (GPa) = 115.10493 67.62386 72.86407
#
# Poissons Ratio (x) = 0.26374 0.01425
# Poissons Ratio (y) = 0.44891 -0.01289
# Poissons Ratio (z) = 0.02251 -0.01196
#
# Static dielectric constant tensor:
#      x y z
#    x 1.852840 0.000000 0.000000 
#    y 0.000000 1.823460 0.000000 
#    z 0.000000 0.000000 1.910890 
# 
# From -- ./inp_files/7366.got.cif
#   From: 2010.05.17/outbox.cif.g08.bks.cpg/sg65_4_cif.got.tgz:7366.got - 2010.06.03 17:01:31.
