data_PCOD9487255
_publ_section_title
;
Structure prediction by ZEFSAII (Michael W. Deem and Ramdas Pophale) SiO2 
 PCOD9487255
Probable space group: C M M M
;
_chemical_formula_sum "Si O2"
_cell_formula_units_Z 88
_cell_length_a 28.092170
_cell_length_b 19.885397
_cell_length_c 7.517545
_cell_angle_alpha 90.000000
_cell_angle_beta 90.000000
_cell_angle_gamma 90.000000
_cell_volume 4199.480705
_symmetry_space_group_name_H-M "C M M M"
_symmetry_group_IT_number 65
_symmetry_cell_setting 'orthorhombic'
loop_
_space_group_symop_operation_xyz
x,y,z
-x,-y,z
x,-y,-z
-x,y,-z
-x,-y,-z
x,y,-z
-x,y,z
x,-y,z
1/2+x,1/2+y,z
1/2-x,1/2-y,z
1/2+x,1/2-y,-z
1/2-x,1/2+y,-z
1/2-x,1/2-y,-z
1/2+x,1/2+y,-z
1/2-x,1/2+y,z
1/2+x,1/2-y,z
loop_
_atom_site_type_symbol
_atom_site_label
_atom_site_fract_x
_atom_site_fract_y
_atom_site_fract_z
Si Si1 0.622253 0.306001 0.281564
Si Si2 0.592761 0.841204 0.706006
Si Si3 0.313849 0.076184 0.209700
Si Si4 0.500000 0.078124 0.718441
Si Si5 0.269986 0.321718 0.285496
Si Si6 0.554781 0.574279 0.716771
O O1 0.622827 0.304109 0.500000
O O2 0.605669 0.232280 0.218832
O O3 0.675576 0.325108 0.225201
O O4 0.586575 0.364110 0.223603
O O5 0.580402 0.828949 0.500000
O O6 0.640705 0.885298 0.711874
O O7 0.547560 0.882342 0.778650
O O8 0.265873 0.118933 0.235893
O O9 0.309517 0.000000 0.278390
O O10 0.322891 0.073057 0.000000
O O11 0.500000 0.076616 0.500000
O O12 0.500000 0.000000 0.774797
O O13 0.270346 0.320174 0.500000
O O14 0.250000 0.250000 0.222899
O O15 0.555293 0.574933 0.500000
O O16 0.500000 0.581887 0.771373
O O17 0.571656 0.500000 0.771921
#
# Coordination Sequence:
#
# PCOD9487255 Si02
#       6
#    16  16  16   8  16  16
#     4   9  17  28  47  74 103 135 173 214 258 313
#     4  10  19  34  55  80 109 140 177 224 271 317
#     4  11  24  39  55  78 107 142 183 221 266 325
#     4   9  18  30  49  79 108 136 174 219 271 325
#     4  10  19  35  55  79 107 136 176 221 267 316
#     4   8  14  24  39  64 101 139 168 199 248 309
#
# _framework density 20.954972000000001
#
# number of rings (size 3 to 8) (size 9 to 14) (size 15 to 20)
#    0.000    2.455    1.818    1.636    1.273    3.273 
#    0.000    2.273    0.000    1.636    0.000    0.000 
#    0.000    0.000    0.000    6.000    0.000    5.091 
#
# Total GULP energy -245647.467688 kJ/mol
# GULP energy per Si atom -5582.896993 kJ/mol
# Density = 2.090728 g / cm^3
# Si number density = 20.954972 Si / 1000 Ang^3
#
#
#
# Elastic Constant Matrix: (Units=GPa)
#
#
# Indices 1 2 3 4 5 6 
#
# 1 164.2354 125.0262 -4.5699 0.0000 0.0000 0.0000
# 2 125.0262 218.3013 -6.0747 0.0000 0.0000 0.0000
# 3 -4.5699 -6.0747 51.1852 0.0000 0.0000 0.0000
# 4 0.0000 0.0000 0.0000 -181.9873 0.0000 0.0000
# 5 0.0000 0.0000 0.0000 0.0000 -58.1659 0.0000
# 6 0.0000 0.0000 0.0000 0.0000 0.0000 43.2204
#
#
#
# Elastic Compliance Matrix: (Units=1/GPa)
#
#
# Indices 1 2 3 4 5 6 
#
# 1 0.010798 -0.006178 0.000231 0.000000 0.000000 0.000000
# 2 -0.006178 0.008131 0.000413 0.000000 0.000000 0.000000
# 3 0.000231 0.000413 0.019607 0.000000 0.000000 0.000000
# 4 0.000000 0.000000 0.000000 -0.005495 0.000000 0.000000
# 5 0.000000 0.000000 0.000000 0.000000 -0.017192 0.000000
# 6 0.000000 0.000000 0.000000 0.000000 0.000000 0.023137
#
#
# Mechanical properties :
#
#
# Convention : Reuss Voigt Hill
#
# Bulk Modulus (GPa) = 36.40605 73.60945 55.00775
# Shear Modulus (GPa) = 84.44626 -18.09719 33.17453
#
# Velocity S-wave (km/s) = 6.35503 -2.94193 3.98318
# Velocity P-wave (km/s) = 8.44155 4.86454 6.88925
#
# Compressibility (1/GPa) = 0.02746796
#
# Stress axis : x y z
#
# Youngs Moduli (GPa) = 92.60665 122.99157 51.00334
#
# Poissons Ratio (x) = 0.75985 -0.01178
# Poissons Ratio (y) = 0.57213 -0.02108
# Poissons Ratio (z) = -0.02138 -0.05084
#
# Static dielectric constant tensor:
#      x y z
#    x 1.712580 0.000000 0.000000 
#    y 0.000000 1.726760 0.000000 
#    z 0.000000 0.000000 1.800430 
# 
# From -- ./inp_files/10169.got.cif
#   From: 2010.05.17/outbox.cif.g08.bks.cpg/sg65_6_cif.got.tgz:10169.got - 2010.06.03 17:01:31.
