data_PCOD9487435
_publ_section_title
;
Structure prediction by ZEFSAII (Michael W. Deem and Ramdas Pophale) SiO2 
 PCOD9487435
Probable space group: C M M M
;
_chemical_formula_sum "Si O2"
_cell_formula_units_Z 80
_cell_length_a 13.923431
_cell_length_b 12.186731
_cell_length_c 20.200339
_cell_angle_alpha 90.000000
_cell_angle_beta 90.000000
_cell_angle_gamma 90.000000
_cell_volume 3427.615907
_symmetry_space_group_name_H-M "C M M M"
_symmetry_group_IT_number 65
_symmetry_cell_setting 'orthorhombic'
loop_
_space_group_symop_operation_xyz
x,y,z
-x,-y,z
x,-y,-z
-x,y,-z
-x,-y,-z
x,y,-z
-x,y,z
x,-y,z
1/2+x,1/2+y,z
1/2-x,1/2-y,z
1/2+x,1/2-y,-z
1/2-x,1/2+y,-z
1/2-x,1/2-y,-z
1/2+x,1/2+y,-z
1/2-x,1/2+y,z
1/2+x,1/2-y,z
loop_
_atom_site_type_symbol
_atom_site_label
_atom_site_fract_x
_atom_site_fract_y
_atom_site_fract_z
Si Si1 0.889493 0.000000 0.222229
Si Si2 0.883332 0.378603 0.500000
Si Si3 0.117827 0.374093 0.238721
Si Si4 0.109328 0.000000 0.620850
Si Si5 0.116855 0.758860 0.371123
Si Si6 0.694843 0.369375 0.000000
Si Si7 0.885284 0.198363 0.860093
O O1 0.894588 0.000000 0.299731
O O2 0.848644 0.889227 0.193344
O O3 0.000000 0.000000 0.198187
O O4 0.842241 0.500000 0.500000
O O5 0.859566 0.317189 0.432746
O O6 0.000000 0.385072 0.500000
O O7 0.151311 0.500000 0.245011
O O8 0.145993 0.299288 0.302092
O O9 0.146508 0.316249 0.169067
O O10 0.000000 0.377553 0.240298
O O11 0.152878 0.880416 0.609274
O O12 0.000000 0.000000 0.592669
O O13 0.000000 0.769976 0.365569
O O14 0.750000 0.250000 0.000000
O O15 0.639928 0.351403 0.931063
O O16 0.730358 0.500000 0.000000
O O17 0.000000 0.206889 0.858681
#
# Coordination Sequence:
#
# PCOD9487435 Si02
#       7
#     8   8  16   8  16   8  16
#     4   9  14  25  49  77  97 111 153 223 269 291
#     4   9  16  23  29  41  71 120 168 201 238 299
#     4   9  16  26  43  69  97 124 160 211 266 309
#     4   9  14  21  35  59  87 111 149 209 263 295
#     4   9  15  22  33  51  80 119 161 205 249 297
#     4  12  27  43  59  81 113 148 174 208 266 328
#     4  10  19  34  59  84 101 128 178 229 263 302
#
# _framework density 23.339839000000001
#
# number of rings (size 3 to 8) (size 9 to 14) (size 15 to 20)
#    0.000    2.500    3.000    0.900    0.000    4.000 
#    0.000    2.000    0.000    3.000    0.000    0.000 
#    0.000    0.000    0.000    0.900    0.000    8.200 
#
# Total GULP energy -223020.619990 kJ/mol
# GULP energy per Si atom -5575.515500 kJ/mol
# Density = 2.328672 g / cm^3
# Si number density = 23.339839 Si / 1000 Ang^3
#
#
#
# Elastic Constant Matrix: (Units=GPa)
#
#
# Indices 1 2 3 4 5 6 
#
# 1 69.9885 20.2439 -7.9340 0.0000 0.0000 0.0000
# 2 20.2439 229.1864 66.2684 0.0000 0.0000 0.0000
# 3 -7.9340 66.2684 107.1336 0.0000 0.0000 0.0000
# 4 0.0000 0.0000 0.0000 40.5592 0.0000 0.0000
# 5 0.0000 0.0000 0.0000 0.0000 -22.2898 0.0000
# 6 0.0000 0.0000 0.0000 0.0000 0.0000 14.3637
#
#
#
# Elastic Compliance Matrix: (Units=1/GPa)
#
#
# Indices 1 2 3 4 5 6 
#
# 1 0.015142 -0.002024 0.002373 0.000000 0.000000 0.000000
# 2 -0.002024 0.005584 -0.003604 0.000000 0.000000 0.000000
# 3 0.002373 -0.003604 0.011739 0.000000 0.000000 0.000000
# 4 0.000000 0.000000 0.000000 0.024655 0.000000 0.000000
# 5 0.000000 0.000000 0.000000 0.000000 -0.044864 0.000000
# 6 0.000000 0.000000 0.000000 0.000000 0.000000 0.069620
#
#
# Mechanical properties :
#
#
# Convention : Reuss Voigt Hill
#
# Bulk Modulus (GPa) = 38.52569 62.60724 50.56646
# Shear Modulus (GPa) = 51.52593 28.37530 39.95061
#
# Velocity S-wave (km/s) = 4.70365 3.49054 4.14175
# Velocity P-wave (km/s) = 6.78538 6.56716 6.67716
#
# Compressibility (1/GPa) = 0.02595671
#
# Stress axis : x y z
#
# Youngs Moduli (GPa) = 66.03954 179.08041 85.18507
#
# Poissons Ratio (x) = 0.36241 -0.20216
# Poissons Ratio (y) = 0.13365 0.30700
# Poissons Ratio (z) = -0.15672 0.64540
#
# Static dielectric constant tensor:
#      x y z
#    x 1.958290 0.000000 0.000000 
#    y 0.000000 1.963430 0.000000 
#    z 0.000000 0.000000 1.904940 
# 
# From -- ./inp_files/63570.got.cif
#   From: 2010.05.17/outbox.cif.g08.bks.cpg/sg65_32_cif.got.tgz:63570.got - 2010.06.03 17:01:31.
