data_PCOD9487949
_publ_section_title
;
Structure prediction by ZEFSAII (Michael W. Deem and Ramdas Pophale) SiO2 
 PCOD9487949
Probable space group: C M M M
;
_chemical_formula_sum "Si O2"
_cell_formula_units_Z 104
_cell_length_a 8.044496
_cell_length_b 29.794166
_cell_length_c 23.671109
_cell_angle_alpha 90.000000
_cell_angle_beta 90.000000
_cell_angle_gamma 90.000000
_cell_volume 5673.468899
_symmetry_space_group_name_H-M "C M M M"
_symmetry_group_IT_number 65
_symmetry_cell_setting 'orthorhombic'
loop_
_space_group_symop_operation_xyz
x,y,z
-x,-y,z
x,-y,-z
-x,y,-z
-x,-y,-z
x,y,-z
-x,y,z
x,-y,z
1/2+x,1/2+y,z
1/2-x,1/2-y,z
1/2+x,1/2-y,-z
1/2-x,1/2+y,-z
1/2-x,1/2-y,-z
1/2+x,1/2+y,-z
1/2-x,1/2+y,z
1/2+x,1/2-y,z
loop_
_atom_site_type_symbol
_atom_site_label
_atom_site_fract_x
_atom_site_fract_y
_atom_site_fract_z
Si Si1 0.305638 0.613443 0.432105
Si Si2 0.803008 0.200476 0.234877
Si Si3 0.310202 0.700123 0.932826
Si Si4 0.000000 0.550933 0.568650
Si Si5 0.199296 0.201122 0.636935
Si Si6 0.203055 0.447601 0.935974
Si Si7 0.312862 0.872186 0.145842
O O1 0.299494 0.618138 0.500000
O O2 0.500000 0.603229 0.417518
O O3 0.253639 0.659829 0.402521
O O4 0.169302 0.576548 0.414914
O O5 0.750000 0.250000 0.212855
O O6 0.734175 0.196305 0.298851
O O7 0.759044 0.157311 0.197152
O O8 0.000000 0.202131 0.238163
O O9 0.500000 0.693602 0.912473
O O10 0.250000 0.750000 0.919731
O O11 0.193198 0.663995 0.904573
O O12 0.308622 0.695250 0.000000
O O13 0.000000 0.500000 0.589199
O O14 0.000000 0.550113 0.500000
O O15 0.250000 0.250000 0.615250
O O16 0.000000 0.200382 0.639828
O O17 0.246559 0.500000 0.928457
O O18 0.265021 0.415860 0.884996
O O19 0.000000 0.444779 0.935786
O O20 0.256289 0.433961 0.000000
O O21 0.500000 0.884186 0.162107
#
# Coordination Sequence:
#
# PCOD9487949 Si02
#       7
#    16  16  16   8  16  16  16
#     4   9  18  33  52  79 113 145 183 230 280 335
#     4  10  20  35  51  70  99 131 171 210 245 295
#     4  10  20  32  45  63  90 122 152 185 230 283
#     4   9  18  32  52  80 110 144 186 228 274 322
#     4   9  19  33  51  75 102 140 179 216 266 319
#     4   8  15  29  49  72  95 118 149 194 245 297
#     4  11  20  30  48  72  94 121 157 196 243 290
#
# _framework density 18.330936000000001
#
# number of rings (size 3 to 8) (size 9 to 14) (size 15 to 20)
#    0.000    2.538    0.000    2.769    1.077    2.769 
#    0.000    1.538    0.000    2.769    0.000    7.538 
#    0.000    0.000    0.000    0.000    0.000    0.000 
#
# Total GULP energy -289680.889794 kJ/mol
# GULP energy per Si atom -5570.786342 kJ/mol
# Density = 1.828921 g / cm^3
# Si number density = 18.330936 Si / 1000 Ang^3
#
#
#
# Elastic Constant Matrix: (Units=GPa)
#
#
# Indices 1 2 3 4 5 6 
#
# 1 54.9533 37.1533 23.6202 0.0000 0.0000 0.0000
# 2 37.1533 133.5855 41.8193 0.0000 0.0000 0.0000
# 3 23.6202 41.8193 37.4893 0.0000 0.0000 0.0000
# 4 0.0000 0.0000 0.0000 25.8925 0.0000 0.0000
# 5 0.0000 0.0000 0.0000 0.0000 39.2228 0.0000
# 6 0.0000 0.0000 0.0000 0.0000 0.0000 21.3591
#
#
#
# Elastic Compliance Matrix: (Units=1/GPa)
#
#
# Indices 1 2 3 4 5 6 
#
# 1 0.025821 -0.003209 -0.012689 0.000000 0.000000 0.000000
# 2 -0.003209 0.011902 -0.011254 0.000000 0.000000 0.000000
# 3 -0.012689 -0.011254 0.047223 0.000000 0.000000 0.000000
# 4 0.000000 0.000000 0.000000 0.038621 0.000000 0.000000
# 5 0.000000 0.000000 0.000000 0.000000 0.025495 0.000000
# 6 0.000000 0.000000 0.000000 0.000000 0.000000 0.046818
#
#
# Mechanical properties :
#
#
# Convention : Reuss Voigt Hill
#
# Bulk Modulus (GPa) = 32.63583 47.91264 40.27423
# Shear Modulus (GPa) = 19.20137 25.52390 22.36264
#
# Velocity S-wave (km/s) = 3.24000 3.73553 3.49655
# Velocity P-wave (km/s) = 5.64262 6.69327 6.19028
#
# Compressibility (1/GPa) = 0.03064117
#
# Stress axis : x y z
#
# Youngs Moduli (GPa) = 38.72846 84.02254 21.17618
#
# Poissons Ratio (x) = 0.26964 0.26870
# Poissons Ratio (y) = 0.12429 0.23832
# Poissons Ratio (z) = 0.49141 0.94561
#
# Static dielectric constant tensor:
#      x y z
#    x 1.672510 0.000000 0.000000 
#    y 0.000000 1.624810 0.000000 
#    z 0.000000 0.000000 1.653900 
# 
# From -- ./inp_files/68144.got.cif
#   From: 2010.05.17/outbox.cif.g08.bks.cpg/sg65_35_cif.got.tgz:68144.got - 2010.06.03 17:01:31.
