data_PCOD9487010
_publ_section_title
;
Structure prediction by ZEFSAII (Michael W. Deem and Ramdas Pophale) SiO2 
 PCOD9487010
Probable space group: C M M M
;
_chemical_formula_sum "Si O2"
_cell_formula_units_Z 88
_cell_length_a 23.566627
_cell_length_b 22.883888
_cell_length_c 7.869926
_cell_angle_alpha 90.000000
_cell_angle_beta 90.000000
_cell_angle_gamma 90.000000
_cell_volume 4244.220028
_symmetry_space_group_name_H-M "C M M M"
_symmetry_group_IT_number 65
_symmetry_cell_setting 'orthorhombic'
loop_
_space_group_symop_operation_xyz
x,y,z
-x,-y,z
x,-y,-z
-x,y,-z
-x,-y,-z
x,y,-z
-x,y,z
x,-y,z
1/2+x,1/2+y,z
1/2-x,1/2-y,z
1/2+x,1/2-y,-z
1/2-x,1/2+y,-z
1/2-x,1/2-y,-z
1/2+x,1/2+y,-z
1/2-x,1/2+y,z
1/2+x,1/2-y,z
loop_
_atom_site_type_symbol
_atom_site_label
_atom_site_fract_x
_atom_site_fract_y
_atom_site_fract_z
Si Si1 0.732307 0.687191 0.693985
Si Si2 0.062939 0.758591 0.295134
Si Si3 0.120291 0.877554 0.293181
Si Si4 0.936755 0.431503 0.704252
Si Si5 0.566523 0.500000 0.708301
Si Si6 0.847685 0.661114 0.808946
O O1 0.713852 0.700815 0.500000
O O2 0.750000 0.750000 0.773005
O O3 0.681474 0.647771 0.766117
O O4 0.792266 0.654632 0.694557
O O5 0.062959 0.754088 0.500000
O O6 0.076544 0.825596 0.250659
O O7 0.113466 0.717207 0.233123
O O8 0.000000 0.741537 0.234586
O O9 0.122716 0.881656 0.500000
O O10 0.098680 0.940828 0.234593
O O11 0.933542 0.423720 0.500000
O O12 0.930835 0.500000 0.740028
O O13 0.889027 0.393294 0.788131
O O14 0.000000 0.412966 0.757353
O O15 0.500000 0.500000 0.758459
O O16 0.566840 0.500000 0.500000
O O17 0.826693 0.665622 0.000000
#
# Coordination Sequence:
#
# PCOD9487010 Si02
#       6
#    16  16  16  16   8  16
#     4  10  19  36  58  76 104 145 191 235 273 325
#     4  10  19  33  55  81 109 143 184 227 275 334
#     4   9  17  31  52  79 110 144 181 227 284 332
#     4   9  19  38  62  84 107 140 184 229 273 327
#     4   9  16  28  50  84 119 141 170 227 292 343
#     4  12  24  35  52  80 115 147 182 226 281 341
#
# _framework density 20.734082000000001
#
# number of rings (size 3 to 8) (size 9 to 14) (size 15 to 20)
#    0.000    2.091    1.818    3.273    0.000    5.818 
#    1.636    0.909    0.000    0.000    0.000    1.909 
#    0.000    4.364    0.000    0.000    0.000    0.000 
#
# Total GULP energy -245547.915344 kJ/mol
# GULP energy per Si atom -5580.634440 kJ/mol
# Density = 2.068689 g / cm^3
# Si number density = 20.734082 Si / 1000 Ang^3
#
#
#
# Elastic Constant Matrix: (Units=GPa)
#
#
# Indices 1 2 3 4 5 6 
#
# 1 135.7751 58.7212 7.6182 0.0000 0.0000 0.0000
# 2 58.7212 91.1452 18.5833 0.0000 0.0000 0.0000
# 3 7.6182 18.5833 26.9829 0.0000 0.0000 0.0000
# 4 0.0000 0.0000 0.0000 -477.0948 0.0000 0.0000
# 5 0.0000 0.0000 0.0000 0.0000 -17.6002 0.0000
# 6 0.0000 0.0000 0.0000 0.0000 0.0000 32.2158
#
#
#
# Elastic Compliance Matrix: (Units=1/GPa)
#
#
# Indices 1 2 3 4 5 6 
#
# 1 0.010296 -0.007027 0.001933 0.000000 0.000000 0.000000
# 2 -0.007027 0.017560 -0.010110 0.000000 0.000000 0.000000
# 3 0.001933 -0.010110 0.043477 0.000000 0.000000 0.000000
# 4 0.000000 0.000000 0.000000 -0.002096 0.000000 0.000000
# 5 0.000000 0.000000 0.000000 0.000000 -0.056818 0.000000
# 6 0.000000 0.000000 0.000000 0.000000 0.000000 0.031041
#
#
# Mechanical properties :
#
#
# Convention : Reuss Voigt Hill
#
# Bulk Modulus (GPa) = 24.43488 47.08318 35.75903
# Shear Modulus (GPa) = 57.13585 -81.23047 -12.04731
#
# Velocity S-wave (km/s) = 5.25512 -6.26597 -2.41309
# Velocity P-wave (km/s) = 6.97368 5.43989 3.08544
#
# Compressibility (1/GPa) = 0.04092511
#
# Stress axis : x y z
#
# Youngs Moduli (GPa) = 97.12592 56.94703 23.00043
#
# Poissons Ratio (x) = 0.40019 -0.04446
# Poissons Ratio (y) = 0.68254 0.23253
# Poissons Ratio (z) = -0.18773 0.57572
#
# Static dielectric constant tensor:
#      x y z
#    x 1.766200 0.000000 0.000000 
#    y 0.000000 1.739700 0.000000 
#    z 0.000000 0.000000 1.776980 
# 
# From -- ./inp_files/11829.got.cif
#   From: 2010.05.17/outbox.cif.g08.bks.cpg/sg65_6_cif.got.tgz:11829.got - 2010.06.03 17:01:31.
