data_PCOD9487879
_publ_section_title
;
Structure prediction by ZEFSAII (Michael W. Deem and Ramdas Pophale) SiO2 
 PCOD9487879
Probable space group: C M M M
;
_chemical_formula_sum "Si O2"
_cell_formula_units_Z 72
_cell_length_a 7.467394
_cell_length_b 28.600347
_cell_length_c 16.574035
_cell_angle_alpha 90.000000
_cell_angle_beta 90.000000
_cell_angle_gamma 90.000000
_cell_volume 3539.717643
_symmetry_space_group_name_H-M "C M M M"
_symmetry_group_IT_number 65
_symmetry_cell_setting 'orthorhombic'
loop_
_space_group_symop_operation_xyz
x,y,z
-x,-y,z
x,-y,-z
-x,y,-z
-x,-y,-z
x,y,-z
-x,y,z
x,-y,z
1/2+x,1/2+y,z
1/2-x,1/2-y,z
1/2+x,1/2-y,-z
1/2-x,1/2+y,-z
1/2-x,1/2-y,-z
1/2+x,1/2+y,-z
1/2-x,1/2+y,z
1/2+x,1/2-y,z
loop_
_atom_site_type_symbol
_atom_site_label
_atom_site_fract_x
_atom_site_fract_y
_atom_site_fract_z
Si Si1 0.716377 0.553192 0.675060
Si Si2 0.285329 0.195015 0.089338
Si Si3 0.285553 0.805448 0.588465
Si Si4 0.292856 0.557064 0.500000
Si Si5 0.711218 0.146441 0.249516
O O1 0.500000 0.551966 0.669655
O O2 0.776313 0.500000 0.689572
O O3 0.786044 0.569921 0.586738
O O4 0.767715 0.591072 0.740770
O O5 0.500000 0.188554 0.086875
O O6 0.250000 0.250000 0.101408
O O7 0.214430 0.166904 0.166357
O O8 0.215987 0.182198 0.000000
O O9 0.217234 0.821252 0.500000
O O10 0.500000 0.812039 0.587105
O O11 0.250000 0.750000 0.594796
O O12 0.213048 0.830578 0.668364
O O13 0.292303 0.500000 0.500000
O O14 0.500000 0.571944 0.500000
O O15 0.500000 0.157655 0.249398
#
# Coordination Sequence:
#
# PCOD9487879 Si02
#       5
#    16  16  16   8  16
#     4   9  18  32  49  69  94 125 162 202 238 277
#     4   9  18  33  52  74  99 125 156 196 240 285
#     4   9  18  31  44  62  92 125 155 187 224 272
#     4   7  12  26  45  63  86 117 154 195 234 269
#     4  10  20  31  47  71  97 125 156 195 240 285
#
# _framework density 20.340606000000001
#
# number of rings (size 3 to 8) (size 9 to 14) (size 15 to 20)
#    0.000    3.000    0.000    2.000    1.556    2.222 
#    0.000    0.000    0.000    2.667    0.000    4.667 
#    0.000    0.000    0.000    0.000    0.000    0.000 
#
# Total GULP energy -200838.568229 kJ/mol
# GULP energy per Si atom -5578.849117 kJ/mol
# Density = 2.029431 g / cm^3
# Si number density = 20.340606 Si / 1000 Ang^3
#
#
#
# Elastic Constant Matrix: (Units=GPa)
#
#
# Indices 1 2 3 4 5 6 
#
# 1 63.0523 -7.9596 13.8074 0.0000 0.0000 0.0000
# 2 -7.9596 87.6997 102.7242 0.0000 0.0000 0.0000
# 3 13.8074 102.7242 205.6703 0.0000 0.0000 0.0000
# 4 0.0000 0.0000 0.0000 43.2727 0.0000 0.0000
# 5 0.0000 0.0000 0.0000 0.0000 -17.2394 0.0000
# 6 0.0000 0.0000 0.0000 0.0000 0.0000 18.2233
#
#
#
# Elastic Compliance Matrix: (Units=1/GPa)
#
#
# Indices 1 2 3 4 5 6 
#
# 1 0.017838 0.007281 -0.004834 0.000000 0.000000 0.000000
# 2 0.007281 0.030450 -0.015698 0.000000 0.000000 0.000000
# 3 -0.004834 -0.015698 0.013027 0.000000 0.000000 0.000000
# 4 0.000000 0.000000 0.000000 0.023109 0.000000 0.000000
# 5 0.000000 0.000000 0.000000 0.000000 -0.058007 0.000000
# 6 0.000000 0.000000 0.000000 0.000000 0.000000 0.054875
#
#
# Mechanical properties :
#
#
# Convention : Reuss Voigt Hill
#
# Bulk Modulus (GPa) = 28.72395 63.72961 46.22678
# Shear Modulus (GPa) = 41.87684 25.37466 33.62575
#
# Velocity S-wave (km/s) = 4.54230 3.53581 4.07029
# Velocity P-wave (km/s) = 6.45462 6.93315 6.69816
#
# Compressibility (1/GPa) = 0.03481415
#
# Stress axis : x y z
#
# Youngs Moduli (GPa) = 56.06106 32.84050 76.76370
#
# Poissons Ratio (x) = -0.23913 0.37110
# Poissons Ratio (y) = -0.40821 1.20500
# Poissons Ratio (z) = 0.27102 0.51551
#
# Static dielectric constant tensor:
#      x y z
#    x 1.770980 0.000000 0.000000 
#    y 0.000000 1.713150 0.000000 
#    z 0.000000 0.000000 1.760430 
# 
# From -- ./inp_files/37020.got.cif
#   From: 2010.05.17/outbox.cif.g08.bks.cpg/sg65_19_cif.got.tgz:37020.got - 2010.06.03 17:01:31.
