data_PCOD9487723
_publ_section_title
;
Structure prediction by ZEFSAII (Michael W. Deem and Ramdas Pophale) SiO2 
 PCOD9487723
Probable space group: C M M M
;
_chemical_formula_sum "Si O2"
_cell_formula_units_Z 42
_cell_length_a 5.230709
_cell_length_b 29.509086
_cell_length_c 13.631401
_cell_angle_alpha 90.000000
_cell_angle_beta 90.000000
_cell_angle_gamma 90.000000
_cell_volume 2104.053660
_symmetry_space_group_name_H-M "C M M M"
_symmetry_group_IT_number 65
_symmetry_cell_setting 'orthorhombic'
loop_
_space_group_symop_operation_xyz
x,y,z
-x,-y,z
x,-y,-z
-x,y,-z
-x,-y,-z
x,y,-z
-x,y,z
x,-y,z
1/2+x,1/2+y,z
1/2-x,1/2-y,z
1/2+x,1/2-y,-z
1/2-x,1/2+y,-z
1/2-x,1/2-y,-z
1/2+x,1/2+y,-z
1/2-x,1/2+y,z
1/2+x,1/2-y,z
loop_
_atom_site_type_symbol
_atom_site_label
_atom_site_fract_x
_atom_site_fract_y
_atom_site_fract_z
Si Si1 0.000000 0.925178 0.823413
Si Si2 0.000000 0.651536 0.608363
Si Si3 0.500000 0.500000 0.000000
Si Si4 0.000000 0.912349 0.609681
Si Si5 0.000000 0.373044 0.113326
Si Si6 0.500000 0.219183 0.790672
O O1 0.000000 0.961149 0.911792
O O2 0.000000 0.941632 0.709893
O O3 0.749981 0.894436 0.837980
O O4 0.250005 0.619729 0.614976
O O5 0.000000 0.672741 0.500000
O O6 0.000000 0.689424 0.691330
O O7 0.000000 0.933906 0.500000
O O8 0.000000 0.319274 0.126060
O O9 0.000000 0.386197 0.000000
O O10 0.250000 0.250000 0.795652
#
# Coordination Sequence:
#
# PCOD9487723 Si02
#       6
#     8   8   2   8   8   8
#     4  12  23  43  67  99 131 161 210 261 327 391
#     4  10  20  36  60  89 123 168 219 260 313 368
#     4  12  28  42  74 110 124 158 212 272 320 382
#     4  10  19  37  65  91 123 173 213 249 313 396
#     4  12  24  44  66  88 129 177 207 262 330 376
#     4  12  24  37  60  90 128 167 224 268 311 364
#
# _framework density 19.961469000000001
#
# number of rings (size 3 to 8) (size 9 to 14) (size 15 to 20)
#    0.000    0.762    5.714    2.286    0.000    3.048 
#    0.000    0.476    0.000    0.000    0.000    6.667 
#    0.000    0.000    0.000    0.000    0.000    0.000 
#
# Total GULP energy -116994.468311 kJ/mol
# GULP energy per Si atom -5571.165158 kJ/mol
# Density = 1.991604 g / cm^3
# Si number density = 19.961469 Si / 1000 Ang^3
#
#
#
# Elastic Constant Matrix: (Units=GPa)
#
#
# Indices 1 2 3 4 5 6 
#
# 1 165.3583 35.9156 22.5945 0.0000 0.0000 0.0000
# 2 35.9156 77.2917 32.8241 0.0000 0.0000 0.0000
# 3 22.5945 32.8241 189.6752 0.0000 0.0000 0.0000
# 4 0.0000 0.0000 0.0000 33.1584 0.0000 0.0000
# 5 0.0000 0.0000 0.0000 0.0000 -16.2763 0.0000
# 6 0.0000 0.0000 0.0000 0.0000 0.0000 -32.9757
#
#
#
# Elastic Compliance Matrix: (Units=1/GPa)
#
#
# Indices 1 2 3 4 5 6 
#
# 1 0.006740 -0.003012 -0.000282 0.000000 0.000000 0.000000
# 2 -0.003012 0.015311 -0.002291 0.000000 0.000000 0.000000
# 3 -0.000282 -0.002291 0.005702 0.000000 0.000000 0.000000
# 4 0.000000 0.000000 0.000000 0.030158 0.000000 0.000000
# 5 0.000000 0.000000 0.000000 0.000000 -0.061439 0.000000
# 6 0.000000 0.000000 0.000000 0.000000 0.000000 -0.030325
#
#
# Mechanical properties :
#
#
# Convention : Reuss Voigt Hill
#
# Bulk Modulus (GPa) = 60.30094 68.33262 64.31678
# Shear Modulus (GPa) = -291.44583 19.51403 -135.96590
#
# Velocity S-wave (km/s) = -12.09633 3.13003 -8.26208
# Velocity P-wave (km/s) = 12.83825 6.88254 7.66327
#
# Compressibility (1/GPa) = 0.01658349
#
# Stress axis : x y z
#
# Youngs Moduli (GPa) = 148.36247 65.31413 175.37295
#
# Poissons Ratio (x) = 0.19676 0.04938
# Poissons Ratio (y) = 0.44693 0.40173
# Poissons Ratio (z) = 0.04178 0.14962
#
# Static dielectric constant tensor:
#      x y z
#    x 1.669200 0.000000 0.000000 
#    y 0.000000 1.638550 0.000000 
#    z 0.000000 0.000000 1.755850 
# 
# From -- ./inp_files/34484.got.cif
#   From: 2010.05.17/outbox.cif.g08.bks.cpg/sg65_18_cif.got.tgz:34484.got - 2010.06.03 17:01:31.
