data_PCOD9487192
_publ_section_title
;
Structure prediction by ZEFSAII (Michael W. Deem and Ramdas Pophale) SiO2 
 PCOD9487192
Probable space group: C M M M
;
_chemical_formula_sum "Si O2"
_cell_formula_units_Z 104
_cell_length_a 29.459149
_cell_length_b 8.934674
_cell_length_c 23.793395
_cell_angle_alpha 90.000000
_cell_angle_beta 90.000000
_cell_angle_gamma 90.000000
_cell_volume 6262.609357
_symmetry_space_group_name_H-M "C M M M"
_symmetry_group_IT_number 65
_symmetry_cell_setting 'orthorhombic'
loop_
_space_group_symop_operation_xyz
x,y,z
-x,-y,z
x,-y,-z
-x,y,-z
-x,-y,-z
x,y,-z
-x,y,z
x,-y,z
1/2+x,1/2+y,z
1/2-x,1/2-y,z
1/2+x,1/2-y,-z
1/2-x,1/2+y,-z
1/2-x,1/2-y,-z
1/2+x,1/2+y,-z
1/2-x,1/2+y,z
1/2+x,1/2-y,z
loop_
_atom_site_type_symbol
_atom_site_label
_atom_site_fract_x
_atom_site_fract_y
_atom_site_fract_z
Si Si1 0.555053 0.672123 0.000000
Si Si2 0.889518 0.679692 0.437699
Si Si3 0.894992 0.820030 0.777309
Si Si4 0.053771 0.321061 0.117540
Si Si5 0.297208 0.679122 0.264394
Si Si6 0.446670 0.180116 0.671636
Si Si7 0.797569 0.178895 0.603041
O O1 0.568335 0.755619 0.942820
O O2 0.570376 0.500000 0.000000
O O3 0.500000 0.671962 0.000000
O O4 0.907125 0.716552 0.500000
O O5 0.883757 0.500000 0.434737
O O6 0.922713 0.722979 0.386916
O O7 0.840892 0.755623 0.428422
O O8 0.917604 0.750957 0.832474
O O9 0.842372 0.774768 0.768661
O O10 0.922191 0.761318 0.723088
O O11 0.897177 0.000000 0.779360
O O12 0.058266 0.500000 0.117834
O O13 0.000000 0.286146 0.125588
O O14 0.293468 0.500000 0.261371
O O15 0.250000 0.750000 0.244898
O O16 0.303209 0.717843 0.330541
O O17 0.500000 0.214716 0.670763
O O18 0.441941 0.000000 0.678698
O O19 0.750000 0.250000 0.584120
O O20 0.795810 0.000000 0.597797
#
# Coordination Sequence:
#
# PCOD9487192 Si02
#       7
#     8  16  16  16  16  16  16
#     4   9  17  31  51  75 106 145 184 221 261 299
#     4  10  21  36  53  73  97 128 167 209 256 311
#     4  11  21  34  52  78 107 135 170 212 257 305
#     4  10  20  33  50  76 110 147 184 218 253 297
#     4   9  19  33  51  75 101 129 163 204 253 307
#     4  10  21  36  53  73  98 130 168 211 258 306
#     4  10  19  34  54  76 100 127 160 202 254 311
#
# _framework density 16.606497999999998
#
# number of rings (size 3 to 8) (size 9 to 14) (size 15 to 20)
#    0.000    2.077    1.538    2.077    0.000    6.769 
#    0.000    1.538    0.000    0.000    0.000    2.692 
#    0.000    0.000    0.000    0.000    0.000    0.000 
#
# Total GULP energy -290243.276641 kJ/mol
# GULP energy per Si atom -5581.601474 kJ/mol
# Density = 1.656870 g / cm^3
# Si number density = 16.606498 Si / 1000 Ang^3
#
#
#
# Elastic Constant Matrix: (Units=GPa)
#
#
# Indices 1 2 3 4 5 6 
#
# 1 111.9298 42.8451 72.9992 0.0000 0.0000 0.0000
# 2 42.8451 39.6047 50.6201 0.0000 0.0000 0.0000
# 3 72.9992 50.6201 141.3384 0.0000 0.0000 0.0000
# 4 0.0000 0.0000 0.0000 20.3544 0.0000 0.0000
# 5 0.0000 0.0000 0.0000 0.0000 23.1689 0.0000
# 6 0.0000 0.0000 0.0000 0.0000 0.0000 25.5900
#
#
#
# Elastic Compliance Matrix: (Units=1/GPa)
#
#
# Indices 1 2 3 4 5 6 
#
# 1 0.016329 -0.012699 -0.003886 0.000000 0.000000 0.000000
# 2 -0.012699 0.056441 -0.013655 0.000000 0.000000 0.000000
# 3 -0.003886 -0.013655 0.013973 0.000000 0.000000 0.000000
# 4 0.000000 0.000000 0.000000 0.049130 0.000000 0.000000
# 5 0.000000 0.000000 0.000000 0.000000 0.043161 0.000000
# 6 0.000000 0.000000 0.000000 0.000000 0.000000 0.039078
#
#
# Mechanical properties :
#
#
# Convention : Reuss Voigt Hill
#
# Bulk Modulus (GPa) = 38.07657 69.53350 53.80504
# Shear Modulus (GPa) = 17.40065 22.24990 19.82528
#
# Velocity S-wave (km/s) = 3.24052 3.66434 3.45893
# Velocity P-wave (km/s) = 6.08110 7.73727 6.95863
#
# Compressibility (1/GPa) = 0.02626287
#
# Stress axis : x y z
#
# Youngs Moduli (GPa) = 61.23937 17.71773 71.56743
#
# Poissons Ratio (x) = 0.22499 0.27810
# Poissons Ratio (y) = 0.77766 0.97728
# Poissons Ratio (z) = 0.23797 0.24194
#
# Static dielectric constant tensor:
#      x y z
#    x 1.539840 0.000000 0.000000 
#    y 0.000000 1.553660 0.000000 
#    z 0.000000 0.000000 1.550760 
# 
# From -- ./inp_files/60803.got.cif
#   From: 2010.05.17/outbox.cif.g08.bks.cpg/sg65_31_cif.got.tgz:60803.got - 2010.06.03 17:01:31.
