data_PCOD9487559
_publ_section_title
;
Structure prediction by ZEFSAII (Michael W. Deem and Ramdas Pophale) SiO2 
 PCOD9487559
Probable space group: C M M M
;
_chemical_formula_sum "Si O2"
_cell_formula_units_Z 68
_cell_length_a 16.973820
_cell_length_b 21.544406
_cell_length_c 10.550077
_cell_angle_alpha 90.000000
_cell_angle_beta 90.000000
_cell_angle_gamma 90.000000
_cell_volume 3858.066831
_symmetry_space_group_name_H-M "C M M M"
_symmetry_group_IT_number 65
_symmetry_cell_setting 'orthorhombic'
loop_
_space_group_symop_operation_xyz
x,y,z
-x,-y,z
x,-y,-z
-x,y,-z
-x,-y,-z
x,y,-z
-x,y,z
x,-y,z
1/2+x,1/2+y,z
1/2-x,1/2-y,z
1/2+x,1/2-y,-z
1/2-x,1/2+y,-z
1/2-x,1/2-y,-z
1/2+x,1/2+y,-z
1/2-x,1/2+y,z
1/2+x,1/2-y,z
loop_
_atom_site_type_symbol
_atom_site_label
_atom_site_fract_x
_atom_site_fract_y
_atom_site_fract_z
Si Si1 0.088836 0.500000 0.284365
Si Si2 0.589994 0.103397 0.500000
Si Si3 0.325705 0.702690 0.000000
Si Si4 0.328920 0.618485 0.254751
Si Si5 0.500000 0.678829 0.000000
Si Si6 0.000000 0.924960 0.777119
Si Si7 0.251528 0.176726 0.500000
Si Si8 0.257288 0.000000 0.147414
O O1 0.099319 0.558969 0.377511
O O2 0.150212 0.500000 0.171980
O O3 0.000000 0.500000 0.237807
O O4 0.500000 0.127343 0.500000
O O5 0.658567 0.153140 0.500000
O O6 0.250000 0.750000 0.000000
O O7 0.322901 0.662387 0.129818
O O8 0.420054 0.720206 0.000000
O O9 0.416589 0.592412 0.285839
O O10 0.292123 0.651473 0.375630
O O11 0.278371 0.559266 0.215623
O O12 0.500000 0.627688 0.112554
O O13 0.000000 0.000000 0.809640
O O14 0.250000 0.250000 0.500000
O O15 0.235716 0.000000 0.000000
#
# Coordination Sequence:
#
# PCOD9487559 Si02
#       8
#     8   8   8  16   4   8   8   8
#     4   9  18  35  62  85 116 146 188 244 303 350
#     4   9  18  36  62  87 107 152 197 236 290 362
#     4  10  20  40  64  82 119 161 212 252 292 352
#     4  11  23  38  61  90 120 161 199 246 305 364
#     4   8  19  32  62  92 112 165 212 240 286 374
#     4  10  19  35  58  91 127 151 189 246 311 368
#     4  12  25  42  61  85 120 163 208 244 291 354
#     4  12  21  35  62  92 122 151 195 246 309 366
#
# _framework density 17.625406999999999
#
# number of rings (size 3 to 8) (size 9 to 14) (size 15 to 20)
#    0.000    1.647    4.706    1.588    0.000    1.176 
#    2.118    0.588    5.176    0.000    0.000    0.000 
#    0.000    0.000    0.000    0.000    0.000    0.000 
#
# Total GULP energy -189292.937674 kJ/mol
# GULP energy per Si atom -5567.439343 kJ/mol
# Density = 1.758529 g / cm^3
# Si number density = 17.625407 Si / 1000 Ang^3
#
#
#
# Elastic Constant Matrix: (Units=GPa)
#
#
# Indices 1 2 3 4 5 6 
#
# 1 168.8815 83.4271 42.0727 0.0000 0.0000 0.0000
# 2 83.4271 107.4526 43.3832 0.0000 0.0000 0.0000
# 3 42.0727 43.3832 103.3562 0.0000 0.0000 0.0000
# 4 0.0000 0.0000 0.0000 21.3998 0.0000 0.0000
# 5 0.0000 0.0000 0.0000 0.0000 27.1514 0.0000
# 6 0.0000 0.0000 0.0000 0.0000 0.0000 24.4652
#
#
#
# Elastic Compliance Matrix: (Units=1/GPa)
#
#
# Indices 1 2 3 4 5 6 
#
# 1 0.009682 -0.007135 -0.000946 0.000000 0.000000 0.000000
# 2 -0.007135 0.016463 -0.004006 0.000000 0.000000 0.000000
# 3 -0.000946 -0.004006 0.011742 0.000000 0.000000 0.000000
# 4 0.000000 0.000000 0.000000 0.046729 0.000000 0.000000
# 5 0.000000 0.000000 0.000000 0.000000 0.036831 0.000000
# 6 0.000000 0.000000 0.000000 0.000000 0.000000 0.040874
#
#
# Mechanical properties :
#
#
# Convention : Reuss Voigt Hill
#
# Bulk Modulus (GPa) = 72.92515 79.71737 76.32126
# Shear Modulus (GPa) = 26.16888 28.65710 27.41299
#
# Velocity S-wave (km/s) = 3.85739 4.03662 3.94802
# Velocity P-wave (km/s) = 7.82970 8.18856 8.01114
#
# Compressibility (1/GPa) = 0.01371269
#
# Stress axis : x y z
#
# Youngs Moduli (GPa) = 103.28795 60.74065 85.16450
#
# Poissons Ratio (x) = 0.43338 0.08059
# Poissons Ratio (y) = 0.73695 0.34117
# Poissons Ratio (z) = 0.09774 0.24333
#
# Static dielectric constant tensor:
#      x y z
#    x 1.638790 0.000000 0.000000 
#    y 0.000000 1.565990 0.000000 
#    z 0.000000 0.000000 1.583410 
# 
# From -- ./inp_files/24362.got.cif
#   From: 2010.05.17/outbox.cif.g08.bks.cpg/sg65_13_cif.got.tgz:24362.got - 2010.06.03 17:01:31.
