data_PCOD9487784
_publ_section_title
;
Structure prediction by ZEFSAII (Michael W. Deem and Ramdas Pophale) SiO2 
 PCOD9487784
Probable space group: C M M M
;
_chemical_formula_sum "Si O2"
_cell_formula_units_Z 72
_cell_length_a 10.323169
_cell_length_b 17.640224
_cell_length_c 21.076821
_cell_angle_alpha 90.000000
_cell_angle_beta 90.000000
_cell_angle_gamma 90.000000
_cell_volume 3838.152620
_symmetry_space_group_name_H-M "C M M M"
_symmetry_group_IT_number 65
_symmetry_cell_setting 'orthorhombic'
loop_
_space_group_symop_operation_xyz
x,y,z
-x,-y,z
x,-y,-z
-x,y,-z
-x,-y,-z
x,y,-z
-x,y,z
x,-y,z
1/2+x,1/2+y,z
1/2-x,1/2-y,z
1/2+x,1/2-y,-z
1/2-x,1/2+y,-z
1/2-x,1/2-y,-z
1/2+x,1/2+y,-z
1/2-x,1/2+y,z
1/2+x,1/2-y,z
loop_
_atom_site_type_symbol
_atom_site_label
_atom_site_fract_x
_atom_site_fract_y
_atom_site_fract_z
Si Si1 0.238044 0.341551 0.372180
Si Si2 0.146990 0.591164 0.892351
Si Si3 0.650789 0.407555 0.000000
Si Si4 0.500000 0.590188 0.424153
Si Si5 0.649585 0.180660 0.238182
Si Si6 0.860999 0.686577 0.500000
O O1 0.250000 0.250000 0.368873
O O2 0.376012 0.375646 0.389288
O O3 0.182451 0.362777 0.303824
O O4 0.153853 0.358806 0.434767
O O5 0.153311 0.500000 0.887709
O O6 0.161607 0.628305 0.823492
O O7 0.000000 0.609616 0.915627
O O8 0.262344 0.615771 0.939347
O O9 0.647858 0.500000 0.000000
O O10 0.500000 0.382263 0.000000
O O11 0.500000 0.500000 0.418010
O O12 0.500000 0.606360 0.500000
O O13 0.500000 0.207553 0.242606
O O14 0.750000 0.250000 0.231804
O O15 0.750000 0.750000 0.500000
O O16 0.000000 0.724853 0.500000
#
# Coordination Sequence:
#
# PCOD9487784 Si02
#       6
#    16  16   8   8  16   8
#     4  10  22  34  61  84 116 149 208 242 293 350
#     4   9  18  35  58  82 110 149 191 231 283 348
#     4   9  17  31  54  85 114 141 185 241 284 333
#     4  11  24  42  60  90 125 158 194 256 320 368
#     4  10  22  37  57  85 120 153 192 242 294 344
#     4  10  20  30  54  85 113 141 195 253 293 337
#
# _framework density 18.759025000000001
#
# number of rings (size 3 to 8) (size 9 to 14) (size 15 to 20)
#    0.000    2.222    1.111    1.000   12.444    3.111 
#    0.000    0.556    0.000    2.667    0.000    0.000 
#    0.000    0.000    0.000    0.000    0.000    0.000 
#
# Total GULP energy -200645.120680 kJ/mol
# GULP energy per Si atom -5573.475574 kJ/mol
# Density = 1.871633 g / cm^3
# Si number density = 18.759025 Si / 1000 Ang^3
#
#
#
# Elastic Constant Matrix: (Units=GPa)
#
#
# Indices 1 2 3 4 5 6 
#
# 1 197.3513 42.0599 90.1416 0.0000 0.0000 0.0000
# 2 42.0599 37.2523 25.4425 0.0000 0.0000 0.0000
# 3 90.1416 25.4425 164.5563 0.0000 0.0000 0.0000
# 4 0.0000 0.0000 0.0000 19.4751 0.0000 0.0000
# 5 0.0000 0.0000 0.0000 0.0000 34.1447 0.0000
# 6 0.0000 0.0000 0.0000 0.0000 0.0000 18.7913
#
#
#
# Elastic Compliance Matrix: (Units=1/GPa)
#
#
# Indices 1 2 3 4 5 6 
#
# 1 0.008049 -0.006794 -0.003359 0.000000 0.000000 0.000000
# 2 -0.006794 0.035748 -0.001805 0.000000 0.000000 0.000000
# 3 -0.003359 -0.001805 0.008196 0.000000 0.000000 0.000000
# 4 0.000000 0.000000 0.000000 0.051348 0.000000 0.000000
# 5 0.000000 0.000000 0.000000 0.000000 0.029287 0.000000
# 6 0.000000 0.000000 0.000000 0.000000 0.000000 0.053216
#
#
# Mechanical properties :
#
#
# Convention : Reuss Voigt Hill
#
# Bulk Modulus (GPa) = 35.61684 79.38310 57.49997
# Shear Modulus (GPa) = 22.81862 30.58328 26.70095
#
# Velocity S-wave (km/s) = 3.49149 4.04211 3.77684
# Velocity P-wave (km/s) = 5.93984 8.01212 7.05251
#
# Compressibility (1/GPa) = 0.02807660
#
# Stress axis : x y z
#
# Youngs Moduli (GPa) = 124.23558 27.97370 122.01085
#
# Poissons Ratio (x) = 0.19005 0.40981
# Poissons Ratio (y) = 0.84406 0.22028
# Poissons Ratio (z) = 0.41728 0.05050
#
# Static dielectric constant tensor:
#      x y z
#    x 1.549240 0.000000 0.000000 
#    y 0.000000 1.623580 0.000000 
#    z 0.000000 0.000000 1.692650 
# 
# From -- ./inp_files/59439.got.cif
#   From: 2010.05.17/outbox.cif.g08.bks.cpg/sg65_30_cif.got.tgz:59439.got - 2010.06.03 17:01:31.
