data_PCOD9487491
_publ_section_title
;
Structure prediction by ZEFSAII (Michael W. Deem and Ramdas Pophale) SiO2 
 PCOD9487491
Probable space group: C M M M
;
_chemical_formula_sum "Si O2"
_cell_formula_units_Z 100
_cell_length_a 30.859542
_cell_length_b 20.300052
_cell_length_c 7.791523
_cell_angle_alpha 90.000000
_cell_angle_beta 90.000000
_cell_angle_gamma 90.000000
_cell_volume 4881.001978
_symmetry_space_group_name_H-M "C M M M"
_symmetry_group_IT_number 65
_symmetry_cell_setting 'orthorhombic'
loop_
_space_group_symop_operation_xyz
x,y,z
-x,-y,z
x,-y,-z
-x,y,-z
-x,-y,-z
x,y,-z
-x,y,z
x,-y,z
1/2+x,1/2+y,z
1/2-x,1/2-y,z
1/2+x,1/2-y,-z
1/2-x,1/2+y,-z
1/2-x,1/2-y,-z
1/2+x,1/2+y,-z
1/2-x,1/2+y,z
1/2+x,1/2-y,z
loop_
_atom_site_type_symbol
_atom_site_label
_atom_site_fract_x
_atom_site_fract_y
_atom_site_fract_z
Si Si1 0.305313 0.500000 0.500000
Si Si2 0.800251 0.247644 0.293159
Si Si3 0.110935 0.074792 0.500000
Si Si4 0.672978 0.104989 0.292977
Si Si5 0.884439 0.824883 0.201250
Si Si6 0.953087 0.283750 0.795648
Si Si7 0.258377 0.000000 0.185212
Si Si8 0.575329 0.928371 0.293052
O O1 0.337277 0.438077 0.500000
O O2 0.276044 0.500000 0.334385
O O3 0.799808 0.239749 0.500000
O O4 0.750000 0.250000 0.235953
O O5 0.820725 0.318723 0.251778
O O6 0.833654 0.193931 0.221222
O O7 0.102222 0.116469 0.328836
O O8 0.092514 0.000000 0.500000
O O9 0.676787 0.096942 0.500000
O O10 0.710350 0.062423 0.208212
O O11 0.625680 0.079665 0.241929
O O12 0.912936 0.761345 0.261404
O O13 0.892798 0.838547 0.000000
O O14 0.947264 0.361181 0.761445
O O15 0.000000 0.262469 0.725245
O O16 0.953968 0.275944 0.000000
O O17 0.237261 0.000000 0.000000
O O18 0.573769 0.929145 0.500000
O O19 0.559049 0.000000 0.232465
#
# Coordination Sequence:
#
# PCOD9487491 Si02
#       8
#     4  16   8  16  16  16   8  16
#     4  10  26  46  60  88 133 160 211 274 318 390
#     4  10  21  34  59  88 123 167 212 264 324 374
#     4  10  26  46  69  93 127 165 199 253 331 399
#     4  10  19  35  55  79 124 173 214 269 324 370
#     4  11  23  42  69  98 129 166 215 267 320 394
#     4  10  23  42  64  94 131 169 212 269 333 389
#     4  12  24  36  60  88 123 178 231 270 322 378
#     4  10  20  35  57  87 124 175 224 274 320 369
#
# _framework density 20.487597000000001
#
# number of rings (size 3 to 8) (size 9 to 14) (size 15 to 20)
#    0.240    1.440    4.000    0.000    3.360    3.520 
#    0.000    1.600    0.000    0.960    0.000    2.240 
#    0.000    0.000    0.000    0.000    0.000    0.000 
#
# Total GULP energy -279163.878762 kJ/mol
# GULP energy per Si atom -5583.277575 kJ/mol
# Density = 2.044097 g / cm^3
# Si number density = 20.487597 Si / 1000 Ang^3
#
#
#
# Elastic Constant Matrix: (Units=GPa)
#
#
# Indices 1 2 3 4 5 6 
#
# 1 79.2516 22.8433 11.0505 0.0000 0.0000 0.0000
# 2 22.8433 120.0221 37.0859 0.0000 0.0000 0.0000
# 3 11.0505 37.0859 67.0888 0.0000 0.0000 0.0000
# 4 0.0000 0.0000 0.0000 41.0993 0.0000 0.0000
# 5 0.0000 0.0000 0.0000 0.0000 10.1899 0.0000
# 6 0.0000 0.0000 0.0000 0.0000 0.0000 7.0607
#
#
#
# Elastic Compliance Matrix: (Units=1/GPa)
#
#
# Indices 1 2 3 4 5 6 
#
# 1 0.013402 -0.002254 -0.000962 0.000000 0.000000 0.000000
# 2 -0.002254 0.010427 -0.005393 0.000000 0.000000 0.000000
# 3 -0.000962 -0.005393 0.018045 0.000000 0.000000 0.000000
# 4 0.000000 0.000000 0.000000 0.024331 0.000000 0.000000
# 5 0.000000 0.000000 0.000000 0.000000 0.098136 0.000000
# 6 0.000000 0.000000 0.000000 0.000000 0.000000 0.141630
#
#
# Mechanical properties :
#
#
# Convention : Reuss Voigt Hill
#
# Bulk Modulus (GPa) = 40.55513 45.36909 42.96211
# Shear Modulus (GPa) = 15.08720 24.69549 19.89135
#
# Velocity S-wave (km/s) = 2.71663 3.47564 3.11930
# Velocity P-wave (km/s) = 5.44775 6.18866 5.82999
#
# Compressibility (1/GPa) = 0.02465779
#
# Stress axis : x y z
#
# Youngs Moduli (GPa) = 74.61748 95.90467 55.41680
#
# Poissons Ratio (x) = 0.21612 0.05330
# Poissons Ratio (y) = 0.16815 0.29885
# Poissons Ratio (z) = 0.07176 0.51719
#
# Static dielectric constant tensor:
#      x y z
#    x 1.727830 0.000000 0.000000 
#    y 0.000000 1.685350 0.000000 
#    z 0.000000 0.000000 1.758330 
# 
# From -- ./inp_files/16553.got.cif
#   From: 2010.05.17/outbox.cif.g08.bks.cpg/sg65_9_cif.got.tgz:16553.got - 2010.06.03 17:01:31.
