data_PCOD9487195
_publ_section_title
;
Structure prediction by ZEFSAII (Michael W. Deem and Ramdas Pophale) SiO2 
 PCOD9487195
Probable space group: C M M M
;
_chemical_formula_sum "Si O2"
_cell_formula_units_Z 96
_cell_length_a 8.982900
_cell_length_b 29.648305
_cell_length_c 20.932389
_cell_angle_alpha 90.000000
_cell_angle_beta 90.000000
_cell_angle_gamma 90.000000
_cell_volume 5574.876253
_symmetry_space_group_name_H-M "C M M M"
_symmetry_group_IT_number 65
_symmetry_cell_setting 'orthorhombic'
loop_
_space_group_symop_operation_xyz
x,y,z
-x,-y,z
x,-y,-z
-x,y,-z
-x,-y,-z
x,y,-z
-x,y,z
x,-y,z
1/2+x,1/2+y,z
1/2-x,1/2-y,z
1/2+x,1/2-y,-z
1/2-x,1/2+y,-z
1/2-x,1/2-y,-z
1/2+x,1/2+y,-z
1/2-x,1/2+y,z
1/2+x,1/2-y,z
loop_
_atom_site_type_symbol
_atom_site_label
_atom_site_fract_x
_atom_site_fract_y
_atom_site_fract_z
Si Si1 0.321458 0.447587 0.574447
Si Si2 0.321494 0.610995 0.070814
Si Si3 0.178777 0.393737 0.311918
Si Si4 0.677776 0.796568 0.735135
Si Si5 0.679503 0.552781 0.806028
Si Si6 0.677628 0.202961 0.113484
O O1 0.286119 0.439150 0.500000
O O2 0.500000 0.443225 0.581988
O O3 0.283857 0.500000 0.588576
O O4 0.239293 0.414880 0.622919
O O5 0.500000 0.617234 0.075018
O O6 0.277607 0.577924 0.128350
O O7 0.244353 0.659255 0.079829
O O8 0.287415 0.592965 0.000000
O O9 0.225713 0.341755 0.301139
O O10 0.243993 0.422616 0.253313
O O11 0.000000 0.395488 0.310126
O O12 0.500000 0.792660 0.730104
O O13 0.750000 0.750000 0.712755
O O14 0.712825 0.802037 0.810652
O O15 0.500000 0.556208 0.799051
O O16 0.717866 0.500000 0.807806
O O17 0.500000 0.204791 0.105939
O O18 0.750000 0.250000 0.091763
#
# Coordination Sequence:
#
# PCOD9487195 Si02
#       6
#    16  16  16  16  16  16
#     4   9  19  36  56  80 112 148 184 218 254 303
#     4  10  21  36  53  74 101 135 176 221 269 318
#     4  11  21  34  54  83 113 139 172 217 265 311
#     4   9  19  33  51  77 106 135 170 213 260 309
#     4  10  21  36  54  76 102 136 178 220 263 313
#     4  10  19  34  54  76 103 134 170 214 265 320
#
# _framework density 17.220113000000001
#
# number of rings (size 3 to 8) (size 9 to 14) (size 15 to 20)
#    0.000    2.167    1.667    2.000    0.000    6.000 
#    0.000    2.500    0.000    0.500    0.000    2.333 
#    0.000    0.000    0.000    0.000    0.000    0.000 
#
# Total GULP energy -267929.365163 kJ/mol
# GULP energy per Si atom -5581.861774 kJ/mol
# Density = 1.718092 g / cm^3
# Si number density = 17.220113 Si / 1000 Ang^3
#
#
#
# Elastic Constant Matrix: (Units=GPa)
#
#
# Indices 1 2 3 4 5 6 
#
# 1 21.7438 40.7585 37.0816 0.0000 0.0000 0.0000
# 2 40.7585 141.5769 73.1195 0.0000 0.0000 0.0000
# 3 37.0816 73.1195 92.7692 0.0000 0.0000 0.0000
# 4 0.0000 0.0000 0.0000 11.6896 0.0000 0.0000
# 5 0.0000 0.0000 0.0000 0.0000 17.8839 0.0000
# 6 0.0000 0.0000 0.0000 0.0000 0.0000 29.7518
#
#
#
# Elastic Compliance Matrix: (Units=1/GPa)
#
#
# Indices 1 2 3 4 5 6 
#
# 1 0.187351 -0.025736 -0.054603 0.000000 0.000000 0.000000
# 2 -0.025736 0.015448 -0.001889 0.000000 0.000000 0.000000
# 3 -0.054603 -0.001889 0.034094 0.000000 0.000000 0.000000
# 4 0.000000 0.000000 0.000000 0.085546 0.000000 0.000000
# 5 0.000000 0.000000 0.000000 0.000000 0.055916 0.000000
# 6 0.000000 0.000000 0.000000 0.000000 0.000000 0.033611
#
#
# Mechanical properties :
#
#
# Convention : Reuss Voigt Hill
#
# Bulk Modulus (GPa) = 13.80499 62.00102 37.90301
# Shear Modulus (GPa) = 8.32546 18.87375 13.59960
#
# Velocity S-wave (km/s) = 2.20119 3.31423 2.81330
# Velocity P-wave (km/s) = 3.80716 7.12240 5.71065
#
# Compressibility (1/GPa) = 0.07243759
#
# Stress axis : x y z
#
# Youngs Moduli (GPa) = 5.33757 64.73421 29.33062
#
# Poissons Ratio (x) = 1.66598 1.60155
# Poissons Ratio (y) = 0.13737 0.05540
# Poissons Ratio (z) = 0.29145 0.12226
#
# Static dielectric constant tensor:
#      x y z
#    x 1.573350 0.000000 0.000000 
#    y 0.000000 1.565930 0.000000 
#    z 0.000000 0.000000 1.578190 
# 
# From -- ./inp_files/60162.got.cif
#   From: 2010.05.17/outbox.cif.g08.bks.cpg/sg65_31_cif.got.tgz:60162.got - 2010.06.03 17:01:31.
