data_PCOD9487257
_publ_section_title
;
Structure prediction by ZEFSAII (Michael W. Deem and Ramdas Pophale) SiO2 
 PCOD9487257
Probable space group: C M M M
;
_chemical_formula_sum "Si O2"
_cell_formula_units_Z 72
_cell_length_a 8.023068
_cell_length_b 22.533679
_cell_length_c 19.420660
_cell_angle_alpha 90.000000
_cell_angle_beta 90.000000
_cell_angle_gamma 90.000000
_cell_volume 3511.046340
_symmetry_space_group_name_H-M "C M M M"
_symmetry_group_IT_number 65
_symmetry_cell_setting 'orthorhombic'
loop_
_space_group_symop_operation_xyz
x,y,z
-x,-y,z
x,-y,-z
-x,y,-z
-x,-y,-z
x,y,-z
-x,y,z
x,-y,z
1/2+x,1/2+y,z
1/2-x,1/2-y,z
1/2+x,1/2-y,-z
1/2-x,1/2+y,-z
1/2-x,1/2-y,-z
1/2+x,1/2+y,-z
1/2-x,1/2+y,z
1/2+x,1/2-y,z
loop_
_atom_site_type_symbol
_atom_site_label
_atom_site_fract_x
_atom_site_fract_y
_atom_site_fract_z
Si Si1 0.201520 0.932278 0.664120
Si Si2 0.198991 0.315300 0.578774
Si Si3 0.795343 0.000000 0.077325
Si Si4 0.802228 0.097535 0.817155
Si Si5 0.801283 0.317928 0.925704
O O1 0.248155 0.875428 0.617825
O O2 0.263732 0.917445 0.741701
O O3 0.000000 0.934229 0.664620
O O4 0.256870 0.000000 0.644931
O O5 0.264596 0.317797 0.500000
O O6 0.250000 0.250000 0.607546
O O7 0.000000 0.315502 0.576992
O O8 0.737425 0.945060 0.122772
O O9 0.000000 0.000000 0.075018
O O10 0.734048 0.000000 0.000000
O O11 0.770338 0.159642 0.853255
O O12 0.000000 0.087623 0.811944
O O13 0.750000 0.250000 0.929871
O O14 0.000000 0.324345 0.923942
O O15 0.741032 0.345354 0.000000
#
# Coordination Sequence:
#
# PCOD9487257 Si02
#       5
#    16  16   8  16  16
#     4  10  21  38  60  88 124 161 198 242 292 351
#     4  10  22  41  65  92 121 155 198 245 294 353
#     4   9  16  28  51  79 104 137 182 228 273 321
#     4  10  19  34  55  80 109 144 186 230 278 336
#     4  10  21  36  53  75 104 140 185 237 291 346
#
# _framework density 20.506708
#
# number of rings (size 3 to 8) (size 9 to 14) (size 15 to 20)
#    0.000    2.111    1.111    2.000    0.000    6.222 
#    0.000    2.778    0.000    2.000    0.000    0.000 
#    0.000    0.000    0.000    0.000    0.000    0.000 
#
# Total GULP energy -200505.214440 kJ/mol
# GULP energy per Si atom -5569.589290 kJ/mol
# Density = 2.046003 g / cm^3
# Si number density = 20.506708 Si / 1000 Ang^3
#
#
#
# Elastic Constant Matrix: (Units=GPa)
#
#
# Indices 1 2 3 4 5 6 
#
# 1 24.4097 8.9964 12.4812 0.0000 0.0000 0.0000
# 2 8.9964 158.7664 82.5869 0.0000 0.0000 0.0000
# 3 12.4812 82.5869 112.1958 0.0000 0.0000 0.0000
# 4 0.0000 0.0000 0.0000 -53.7252 0.0000 0.0000
# 5 0.0000 0.0000 0.0000 0.0000 21.0832 0.0000
# 6 0.0000 0.0000 0.0000 0.0000 0.0000 22.7535
#
#
#
# Elastic Compliance Matrix: (Units=1/GPa)
#
#
# Indices 1 2 3 4 5 6 
#
# 1 0.043439 0.000085 -0.004895 0.000000 0.000000 0.000000
# 2 0.000085 0.010207 -0.007523 0.000000 0.000000 0.000000
# 3 -0.004895 -0.007523 0.014995 0.000000 0.000000 0.000000
# 4 0.000000 0.000000 0.000000 -0.018613 0.000000 0.000000
# 5 0.000000 0.000000 0.000000 0.000000 0.047431 0.000000
# 6 0.000000 0.000000 0.000000 0.000000 0.000000 0.043949
#
#
# Mechanical properties :
#
#
# Convention : Reuss Voigt Hill
#
# Bulk Modulus (GPa) = 22.74006 55.94456 39.34231
# Shear Modulus (GPa) = 27.66535 10.77613 19.22074
#
# Velocity S-wave (km/s) = 3.67698 2.29485 3.06484
# Velocity P-wave (km/s) = 5.39815 5.86192 5.63481
#
# Compressibility (1/GPa) = 0.04397525
#
# Stress axis : x y z
#
# Youngs Moduli (GPa) = 23.02091 97.97297 66.68936
#
# Poissons Ratio (x) = -0.00829 0.32642
# Poissons Ratio (y) = -0.00195 0.50168
# Poissons Ratio (z) = 0.11268 0.73702
#
# Static dielectric constant tensor:
#      x y z
#    x 1.742550 0.000000 0.000000 
#    y 0.000000 1.887160 0.000000 
#    z 0.000000 0.000000 1.748820 
# 
# From -- ./inp_files/49503.got.cif
#   From: 2010.05.17/outbox.cif.g08.bks.cpg/sg65_25_cif.got.tgz:49503.got - 2010.06.03 17:01:31.
