data_PCOD9487145
_publ_section_title
;
Structure prediction by ZEFSAII (Michael W. Deem and Ramdas Pophale) SiO2 
 PCOD9487145
Probable space group: C M M M
;
_chemical_formula_sum "Si O2"
_cell_formula_units_Z 96
_cell_length_a 19.547557
_cell_length_b 15.739611
_cell_length_c 16.944124
_cell_angle_alpha 90.000000
_cell_angle_beta 90.000000
_cell_angle_gamma 90.000000
_cell_volume 5213.214612
_symmetry_space_group_name_H-M "C M M M"
_symmetry_group_IT_number 65
_symmetry_cell_setting 'orthorhombic'
loop_
_space_group_symop_operation_xyz
x,y,z
-x,-y,z
x,-y,-z
-x,y,-z
-x,-y,-z
x,y,-z
-x,y,z
x,-y,z
1/2+x,1/2+y,z
1/2-x,1/2-y,z
1/2+x,1/2-y,-z
1/2-x,1/2+y,-z
1/2-x,1/2-y,-z
1/2+x,1/2+y,-z
1/2-x,1/2+y,z
1/2+x,1/2-y,z
loop_
_atom_site_type_symbol
_atom_site_label
_atom_site_fract_x
_atom_site_fract_y
_atom_site_fract_z
Si Si1 0.188142 0.597224 0.828490
Si Si2 0.282527 0.160399 0.659848
Si Si3 0.073412 0.860624 0.500000
Si Si4 0.833872 0.901289 0.094192
Si Si5 0.777785 0.908413 0.500000
Si Si6 0.580319 0.748916 0.826361
Si Si7 0.074204 0.271209 0.642952
O O1 0.165745 0.500000 0.844307
O O2 0.214648 0.603360 0.737727
O O3 0.255241 0.616420 0.880719
O O4 0.128052 0.667187 0.839616
O O5 0.250000 0.250000 0.686585
O O6 0.241967 0.135365 0.581772
O O7 0.360631 0.170178 0.632252
O O8 0.140993 0.914038 0.500000
O O9 0.076309 0.800653 0.423116
O O10 0.000000 0.904129 0.500000
O O11 0.883799 0.831912 0.133115
O O12 0.848441 0.000000 0.117742
O O13 0.840015 0.895888 0.000000
O O14 0.743795 0.000000 0.500000
O O15 0.500000 0.759681 0.849621
O O16 0.580575 0.735296 0.731580
O O17 0.000000 0.314509 0.637455
#
# Coordination Sequence:
#
# PCOD9487145 Si02
#       7
#    16  16   8  16   8  16  16
#     4  10  21  37  59  86 117 154 192 235 286 344
#     4  11  19  34  56  79 108 146 189 240 287 332
#     4  10  19  34  52  73 106 148 187 223 269 329
#     4  10  22  40  62  87 115 149 191 237 285 342
#     4  12  24  33  48  79 112 145 187 240 289 336
#     4  10  21  37  58  87 119 151 190 236 288 343
#     4   9  18  33  55  79 105 141 186 226 274 332
#
# _framework density 18.414740999999999
#
# number of rings (size 3 to 8) (size 9 to 14) (size 15 to 20)
#    0.000    1.833    1.667    3.750    0.000    2.500 
#    0.000    0.833    0.000    5.000    0.000    3.500 
#    0.000    0.000    0.000    0.000    0.000    0.000 
#
# Total GULP energy -267503.249497 kJ/mol
# GULP energy per Si atom -5572.984365 kJ/mol
# Density = 1.837283 g / cm^3
# Si number density = 18.414741 Si / 1000 Ang^3
#
#
#
# Elastic Constant Matrix: (Units=GPa)
#
#
# Indices 1 2 3 4 5 6 
#
# 1 142.9077 57.8847 46.7268 0.0000 0.0000 0.0000
# 2 57.8847 100.9355 40.5545 0.0000 0.0000 0.0000
# 3 46.7268 40.5545 54.7852 0.0000 0.0000 0.0000
# 4 0.0000 0.0000 0.0000 51.4471 0.0000 0.0000
# 5 0.0000 0.0000 0.0000 0.0000 20.0310 0.0000
# 6 0.0000 0.0000 0.0000 0.0000 0.0000 11.6944
#
#
#
# Elastic Compliance Matrix: (Units=1/GPa)
#
#
# Indices 1 2 3 4 5 6 
#
# 1 0.010482 -0.003443 -0.006391 0.000000 0.000000 0.000000
# 2 -0.003443 0.015232 -0.008339 0.000000 0.000000 0.000000
# 3 -0.006391 -0.008339 0.029877 0.000000 0.000000 0.000000
# 4 0.000000 0.000000 0.000000 0.019437 0.000000 0.000000
# 5 0.000000 0.000000 0.000000 0.000000 0.049923 0.000000
# 6 0.000000 0.000000 0.000000 0.000000 0.000000 0.085511
#
#
# Mechanical properties :
#
#
# Convention : Reuss Voigt Hill
#
# Bulk Modulus (GPa) = 51.96280 65.44007 58.70144
# Shear Modulus (GPa) = 19.74533 26.86534 23.30533
#
# Velocity S-wave (km/s) = 3.27809 3.82370 3.56136
# Velocity P-wave (km/s) = 6.52741 7.42349 6.98983
#
# Compressibility (1/GPa) = 0.01924454
#
# Stress axis : x y z
#
# Youngs Moduli (GPa) = 95.40152 65.64927 33.47034
#
# Poissons Ratio (x) = 0.22605 0.21392
# Poissons Ratio (y) = 0.32850 0.27911
# Poissons Ratio (z) = 0.60974 0.54745
#
# Static dielectric constant tensor:
#      x y z
#    x 1.654570 0.000000 0.000000 
#    y 0.000000 1.625710 0.000000 
#    z 0.000000 0.000000 1.698330 
# 
# From -- ./inp_files/44180.got.cif
#   From: 2010.05.17/outbox.cif.g08.bks.cpg/sg65_23_cif.got.tgz:44180.got - 2010.06.03 17:01:31.
