data_PCOD9487105
_publ_section_title
;
Structure prediction by ZEFSAII (Michael W. Deem and Ramdas Pophale) SiO2 
 PCOD9487105
Probable space group: C M M M
;
_chemical_formula_sum "Si O2"
_cell_formula_units_Z 66
_cell_length_a 7.706881
_cell_length_b 15.963469
_cell_length_c 26.644972
_cell_angle_alpha 90.000000
_cell_angle_beta 90.000000
_cell_angle_gamma 90.000000
_cell_volume 3278.092428
_symmetry_space_group_name_H-M "C M M M"
_symmetry_group_IT_number 65
_symmetry_cell_setting 'orthorhombic'
loop_
_space_group_symop_operation_xyz
x,y,z
-x,-y,z
x,-y,-z
-x,y,-z
-x,-y,-z
x,y,-z
-x,y,z
x,-y,z
1/2+x,1/2+y,z
1/2-x,1/2-y,z
1/2+x,1/2-y,-z
1/2-x,1/2+y,-z
1/2-x,1/2-y,-z
1/2+x,1/2+y,-z
1/2-x,1/2+y,z
1/2+x,1/2-y,z
loop_
_atom_site_type_symbol
_atom_site_label
_atom_site_fract_x
_atom_site_fract_y
_atom_site_fract_z
Si Si1 0.791695 0.343742 0.375659
Si Si2 0.500000 0.000000 0.000000
Si Si3 0.712646 0.000000 0.442338
Si Si4 0.206276 0.594945 0.731139
Si Si5 0.795351 0.842878 0.160325
Si Si6 0.714482 0.500000 0.090457
O O1 0.750000 0.250000 0.392052
O O2 0.729823 0.417382 0.412253
O O3 0.724718 0.360520 0.318954
O O4 0.000000 0.350158 0.374528
O O5 0.343680 0.000000 0.043486
O O6 0.500000 0.000000 0.442212
O O7 0.768538 0.000000 0.500000
O O8 0.276411 0.500000 0.735501
O O9 0.230783 0.642793 0.783150
O O10 0.000000 0.588056 0.724173
O O11 0.750000 0.750000 0.142023
O O12 0.000000 0.848691 0.163461
O O13 0.741437 0.917893 0.123722
O O14 0.500000 0.500000 0.080654
#
# Coordination Sequence:
#
# PCOD9487105 Si02
#       6
#    16   2   8  16  16   8
#     4  10  20  35  54  81 113 148 193 245 297 359
#     4  12  26  44  84  90 128 178 218 260 334 354
#     4   9  18  35  57  76 102 148 200 247 299 360
#     4  10  19  33  57  86 119 158 197 238 297 374
#     4  11  23  39  63  93 130 161 201 252 302 368
#     4  10  25  46  68  99 130 165 217 268 310 373
#
# _framework density 20.133662000000001
#
# number of rings (size 3 to 8) (size 9 to 14) (size 15 to 20)
#    0.000    1.818    2.424    1.636    3.394    3.394 
#    0.000    1.212    0.000    0.727    0.000    0.000 
#    0.000    0.000    0.000    0.000    0.000    0.000 
#
# Total GULP energy -183940.202453 kJ/mol
# GULP energy per Si atom -5573.945529 kJ/mol
# Density = 2.008784 g / cm^3
# Si number density = 20.133662 Si / 1000 Ang^3
#
#
#
# Elastic Constant Matrix: (Units=GPa)
#
#
# Indices 1 2 3 4 5 6 
#
# 1 47.8261 19.9253 39.3596 0.0000 0.0000 0.0000
# 2 19.9253 190.6742 90.9774 0.0000 0.0000 0.0000
# 3 39.3596 90.9774 169.3175 0.0000 0.0000 0.0000
# 4 0.0000 0.0000 0.0000 595.9079 0.0000 0.0000
# 5 0.0000 0.0000 0.0000 0.0000 -14.5612 0.0000
# 6 0.0000 0.0000 0.0000 0.0000 0.0000 12.3512
#
#
#
# Elastic Compliance Matrix: (Units=1/GPa)
#
#
# Indices 1 2 3 4 5 6 
#
# 1 0.025863 0.000223 -0.006132 0.000000 0.000000 0.000000
# 2 0.000223 0.007055 -0.003842 0.000000 0.000000 0.000000
# 3 -0.006132 -0.003842 0.009396 0.000000 0.000000 0.000000
# 4 0.000000 0.000000 0.000000 0.001678 0.000000 0.000000
# 5 0.000000 0.000000 0.000000 0.000000 -0.068676 0.000000
# 6 0.000000 0.000000 0.000000 0.000000 0.000000 0.080964
#
#
# Mechanical properties :
#
#
# Convention : Reuss Voigt Hill
#
# Bulk Modulus (GPa) = 43.83888 78.70472 61.27180
# Shear Modulus (GPa) = 59.96244 135.90995 97.93619
#
# Velocity S-wave (km/s) = 5.46323 8.22499 6.98202
# Velocity P-wave (km/s) = 7.84965 11.37438 9.77224
#
# Compressibility (1/GPa) = 0.02281080
#
# Stress axis : x y z
#
# Youngs Moduli (GPa) = 38.66600 141.75170 106.42712
#
# Poissons Ratio (x) = -0.03163 0.65260
# Poissons Ratio (y) = -0.00863 0.40894
# Poissons Ratio (z) = 0.23710 0.54467
#
# Static dielectric constant tensor:
#      x y z
#    x 1.751700 0.000000 0.000000 
#    y 0.000000 1.743210 0.000000 
#    z 0.000000 0.000000 1.699050 
# 
# From -- ./inp_files/72407.got.cif
#   From: 2010.05.17/outbox.cif.g08.bks.cpg/sg65_37_cif.got.tgz:72407.got - 2010.06.03 17:01:31.
