data_PCOD9487775
_publ_section_title
;
Structure prediction by ZEFSAII (Michael W. Deem and Ramdas Pophale) SiO2 
 PCOD9487775
Probable space group: C M M M
;
_chemical_formula_sum "Si O2"
_cell_formula_units_Z 100
_cell_length_a 23.539106
_cell_length_b 7.922697
_cell_length_c 31.764263
_cell_angle_alpha 90.000000
_cell_angle_beta 90.000000
_cell_angle_gamma 90.000000
_cell_volume 5923.819195
_symmetry_space_group_name_H-M "C M M M"
_symmetry_group_IT_number 65
_symmetry_cell_setting 'orthorhombic'
loop_
_space_group_symop_operation_xyz
x,y,z
-x,-y,z
x,-y,-z
-x,y,-z
-x,-y,-z
x,y,-z
-x,y,z
x,-y,z
1/2+x,1/2+y,z
1/2-x,1/2-y,z
1/2+x,1/2-y,-z
1/2-x,1/2+y,-z
1/2-x,1/2-y,-z
1/2+x,1/2+y,-z
1/2-x,1/2+y,z
1/2+x,1/2-y,z
loop_
_atom_site_type_symbol
_atom_site_label
_atom_site_fract_x
_atom_site_fract_y
_atom_site_fract_z
Si Si1 0.815793 0.800060 0.773407
Si Si2 0.816693 0.299691 0.954882
Si Si3 0.683693 0.204490 0.397592
Si Si4 0.500000 0.205829 0.653215
Si Si5 0.625173 0.500000 0.450604
Si Si6 0.878175 0.299142 0.688843
Si Si7 0.816552 0.799597 0.135433
Si Si8 0.000000 0.000000 0.584345
O O1 0.750000 0.750000 0.766726
O O2 0.853268 0.756316 0.733243
O O3 0.836579 0.731062 0.819045
O O4 0.816065 0.000000 0.776950
O O5 0.819290 0.500000 0.956400
O O6 0.750000 0.250000 0.953926
O O7 0.842165 0.251575 0.909608
O O8 0.839385 0.232408 0.000000
O O9 0.750000 0.250000 0.400085
O O10 0.651152 0.330384 0.429318
O O11 0.660236 0.251769 0.351105
O O12 0.675446 0.000000 0.404120
O O13 0.556985 0.248621 0.678972
O O14 0.500000 0.329764 0.613053
O O15 0.500000 0.000000 0.644059
O O16 0.637683 0.500000 0.500000
O O17 0.557836 0.500000 0.442023
O O18 0.876719 0.500000 0.689225
O O19 0.750000 0.750000 0.134490
O O20 0.820278 0.000000 0.136095
#
# Coordination Sequence:
#
# PCOD9487775 Si02
#       8
#    16  16  16   8   8  16  16   4
#     4  10  20  30  45  70 100 132 169 208 256 314
#     4   9  15  21  31  47  67 101 150 199 243 291
#     4  11  23  41  63  91 122 154 189 230 276 331
#     4  10  22  39  61  87 112 140 183 227 267 316
#     4  12  27  44  66  94 122 155 192 231 279 330
#     4  10  21  36  57  80 106 138 174 217 264 313
#     4   9  16  25  35  52  80 115 153 198 246 297
#     4  12  23  44  72  88 116 156 190 234 273 326
#
# _framework density 16.881001000000001
#
# number of rings (size 3 to 8) (size 9 to 14) (size 15 to 20)
#    0.000    1.920    2.400    3.000    2.240    4.800 
#    0.000    0.000    0.000    1.440    0.000    0.000 
#    0.000    0.000    0.000    0.720    0.000   14.400 
#
# Total GULP energy -278355.399516 kJ/mol
# GULP energy per Si atom -5567.107990 kJ/mol
# Density = 1.684258 g / cm^3
# Si number density = 16.881001 Si / 1000 Ang^3
#
#
#
# Elastic Constant Matrix: (Units=GPa)
#
#
# Indices 1 2 3 4 5 6 
#
# 1 74.9499 22.5020 42.7394 0.0000 0.0000 0.0000
# 2 22.5020 57.3629 48.8629 0.0000 0.0000 0.0000
# 3 42.7394 48.8629 174.1094 0.0000 0.0000 0.0000
# 4 0.0000 0.0000 0.0000 22.2576 0.0000 0.0000
# 5 0.0000 0.0000 0.0000 0.0000 -2.7890 0.0000
# 6 0.0000 0.0000 0.0000 0.0000 0.0000 4.9298
#
#
#
# Elastic Compliance Matrix: (Units=1/GPa)
#
#
# Indices 1 2 3 4 5 6 
#
# 1 0.016148 -0.003887 -0.002873 0.000000 0.000000 0.000000
# 2 -0.003887 0.023845 -0.005738 0.000000 0.000000 0.000000
# 3 -0.002873 -0.005738 0.008059 0.000000 0.000000 0.000000
# 4 0.000000 0.000000 0.000000 0.044929 0.000000 0.000000
# 5 0.000000 0.000000 0.000000 0.000000 -0.358550 0.000000
# 6 0.000000 0.000000 0.000000 0.000000 0.000000 0.202847
#
#
# Mechanical properties :
#
#
# Convention : Reuss Voigt Hill
#
# Bulk Modulus (GPa) = 43.37235 59.40341 51.38788
# Shear Modulus (GPa) = -166.43863 17.70087 -74.36888
#
# Velocity S-wave (km/s) = -9.94029 3.24167 -6.64458
# Velocity P-wave (km/s) = 10.29548 7.01977 5.32540
#
# Compressibility (1/GPa) = 0.02305616
#
# Stress axis : x y z
#
# Youngs Moduli (GPa) = 61.92907 41.93694 124.08413
#
# Poissons Ratio (x) = 0.16301 0.35648
# Poissons Ratio (y) = 0.24072 0.71198
# Poissons Ratio (z) = 0.17792 0.24063
#
# Static dielectric constant tensor:
#      x y z
#    x 1.522330 0.000000 0.000000 
#    y 0.000000 1.593730 0.000000 
#    z 0.000000 0.000000 1.679190 
# 
# From -- ./inp_files/78283.got.cif
#   From: 2010.05.17/outbox.cif.g08.bks.cpg/sg65_40_cif.got.tgz:78283.got - 2010.06.03 17:01:31.
