data_PCOD9487338
_publ_section_title
;
Structure prediction by ZEFSAII (Michael W. Deem and Ramdas Pophale) SiO2 
 PCOD9487338
Probable space group: C M M M
;
_chemical_formula_sum "Si O2"
_cell_formula_units_Z 64
_cell_length_a 19.169439
_cell_length_b 7.786628
_cell_length_c 22.700665
_cell_angle_alpha 90.000000
_cell_angle_beta 90.000000
_cell_angle_gamma 90.000000
_cell_volume 3388.421355
_symmetry_space_group_name_H-M "C M M M"
_symmetry_group_IT_number 65
_symmetry_cell_setting 'orthorhombic'
loop_
_space_group_symop_operation_xyz
x,y,z
-x,-y,z
x,-y,-z
-x,y,-z
-x,-y,-z
x,y,-z
-x,y,z
x,-y,z
1/2+x,1/2+y,z
1/2-x,1/2-y,z
1/2+x,1/2-y,-z
1/2-x,1/2+y,-z
1/2-x,1/2-y,-z
1/2+x,1/2+y,-z
1/2-x,1/2+y,z
1/2+x,1/2-y,z
loop_
_atom_site_type_symbol
_atom_site_label
_atom_site_fract_x
_atom_site_fract_y
_atom_site_fract_z
Si Si1 0.331517 0.302827 0.370025
Si Si2 0.579431 0.205589 0.872974
Si Si3 0.830216 0.293552 0.762919
Si Si4 0.579669 0.704022 0.000000
Si Si5 0.581676 0.000000 0.429442
O O1 0.340553 0.500000 0.388906
O O2 0.250000 0.250000 0.376697
O O3 0.347832 0.286408 0.300346
O O4 0.379243 0.167337 0.404109
O O5 0.500000 0.274019 0.872066
O O6 0.622836 0.268238 0.817144
O O7 0.576015 0.000000 0.867683
O O8 0.611153 0.242948 0.937393
O O9 0.836904 0.500000 0.756773
O O10 0.750000 0.250000 0.775605
O O11 0.575789 0.500000 0.000000
O O12 0.500000 0.776948 0.000000
O O13 0.500000 0.000000 0.412483
O O14 0.586227 0.000000 0.500000
#
# Coordination Sequence:
#
# PCOD9487338 Si02
#       5
#    16  16  16   8   8
#     4  11  21  41  68  95 125 167 216 257 305 371
#     4   9  18  32  51  74 101 141 188 232 286 351
#     4  10  19  34  56  84 115 150 188 243 298 350
#     4   9  17  29  46  69 102 137 177 235 288 339
#     4  11  26  46  66  96 137 168 202 262 316 360
#
# _framework density 18.887851000000001
#
# number of rings (size 3 to 8) (size 9 to 14) (size 15 to 20)
#    0.000    2.000    2.500    2.625    0.000    6.000 
#    0.000    1.875    0.000    0.000    0.000    0.000 
#    0.000    0.000    0.000    0.000    0.000    0.000 
#
# Total GULP energy -178560.278390 kJ/mol
# GULP energy per Si atom -5580.008700 kJ/mol
# Density = 1.884486 g / cm^3
# Si number density = 18.887851 Si / 1000 Ang^3
#
#
#
# Elastic Constant Matrix: (Units=GPa)
#
#
# Indices 1 2 3 4 5 6 
#
# 1 79.0953 41.2057 78.6204 0.0000 0.0000 0.0000
# 2 41.2057 119.3124 40.5862 0.0000 0.0000 0.0000
# 3 78.6204 40.5862 113.9535 0.0000 0.0000 0.0000
# 4 0.0000 0.0000 0.0000 13.7385 0.0000 0.0000
# 5 0.0000 0.0000 0.0000 0.0000 41.1924 0.0000
# 6 0.0000 0.0000 0.0000 0.0000 0.0000 17.9652
#
#
#
# Elastic Compliance Matrix: (Units=1/GPa)
#
#
# Indices 1 2 3 4 5 6 
#
# 1 0.043122 -0.005430 -0.027818 0.000000 0.000000 0.000000
# 2 -0.005430 0.010221 0.000106 0.000000 0.000000 0.000000
# 3 -0.027818 0.000106 0.027930 0.000000 0.000000 0.000000
# 4 0.000000 0.000000 0.000000 0.072788 0.000000 0.000000
# 5 0.000000 0.000000 0.000000 0.000000 0.024276 0.000000
# 6 0.000000 0.000000 0.000000 0.000000 0.000000 0.055663
#
#
# Mechanical properties :
#
#
# Convention : Reuss Voigt Hill
#
# Bulk Modulus (GPa) = 66.71126 70.35398 68.53262
# Shear Modulus (GPa) = 16.37840 24.70914 20.54377
#
# Velocity S-wave (km/s) = 2.94792 3.62083 3.30156
# Velocity P-wave (km/s) = 6.85444 7.40336 7.13418
#
# Compressibility (1/GPa) = 0.01498997
#
# Stress axis : x y z
#
# Youngs Moduli (GPa) = 23.18983 97.84190 35.80382
#
# Poissons Ratio (x) = 0.53129 0.99598
# Poissons Ratio (y) = 0.12592 -0.00380
# Poissons Ratio (z) = 0.64508 -0.01039
#
# Static dielectric constant tensor:
#      x y z
#    x 1.644980 0.000000 0.000000 
#    y 0.000000 1.665280 0.000000 
#    z 0.000000 0.000000 1.660460 
# 
# From -- ./inp_files/70281.got.cif
#   From: 2010.05.17/outbox.cif.g08.bks.cpg/sg65_36_cif.got.tgz:70281.got - 2010.06.03 17:01:31.
