data_PCOD9487749
_publ_section_title
;
Structure prediction by ZEFSAII (Michael W. Deem and Ramdas Pophale) SiO2 
 PCOD9487749
Probable space group: C M M M
;
_chemical_formula_sum "Si O2"
_cell_formula_units_Z 96
_cell_length_a 27.869076
_cell_length_b 15.097456
_cell_length_c 14.649660
_cell_angle_alpha 90.000000
_cell_angle_beta 90.000000
_cell_angle_gamma 90.000000
_cell_volume 6163.875922
_symmetry_space_group_name_H-M "C M M M"
_symmetry_group_IT_number 65
_symmetry_cell_setting 'orthorhombic'
loop_
_space_group_symop_operation_xyz
x,y,z
-x,-y,z
x,-y,-z
-x,y,-z
-x,-y,-z
x,y,-z
-x,y,z
x,-y,z
1/2+x,1/2+y,z
1/2-x,1/2-y,z
1/2+x,1/2-y,-z
1/2-x,1/2+y,-z
1/2-x,1/2-y,-z
1/2+x,1/2+y,-z
1/2-x,1/2+y,z
1/2+x,1/2-y,z
loop_
_atom_site_type_symbol
_atom_site_label
_atom_site_fract_x
_atom_site_fract_y
_atom_site_fract_z
Si Si1 0.724620 0.603714 0.608060
Si Si2 0.327361 0.097490 0.295021
Si Si3 0.285113 0.874936 0.898185
Si Si4 0.556011 0.396550 0.391120
Si Si5 0.320425 0.328313 0.101803
Si Si6 0.360745 0.706272 0.292443
O O1 0.725611 0.621974 0.500000
O O2 0.710880 0.500000 0.620536
O O3 0.777606 0.613972 0.650450
O O4 0.686261 0.665967 0.657516
O O5 0.312952 0.090602 0.188770
O O6 0.358431 0.186989 0.302223
O O7 0.346374 0.000000 0.323938
O O8 0.299543 0.771487 0.900103
O O9 0.227962 0.885164 0.882665
O O10 0.296271 0.907286 0.000000
O O11 0.562839 0.385857 0.500000
O O12 0.500000 0.379182 0.371044
O O13 0.565773 0.500000 0.370069
O O14 0.592413 0.334429 0.338130
O O15 0.355657 0.326743 0.187513
O O16 0.339459 0.348626 0.000000
#
# Coordination Sequence:
#
# PCOD9487749 Si02
#       6
#    16  16  16  16  16  16
#     4  10  20  31  43  63  91 121 155 193 229 272
#     4  10  20  30  40  64  99 130 162 191 216 260
#     4   8  13  25  42  59  88 128 165 199 228 252
#     4   9  19  36  57  79  95 106 136 193 248 288
#     4   8  14  24  41  66  92 121 159 196 227 264
#     4  11  18  29  51  69  89 126 157 186 233 280
#
# _framework density 15.574616000000001
#
# number of rings (size 3 to 8) (size 9 to 14) (size 15 to 20)
#    0.000    2.667    1.667    3.000    0.000    3.667 
#    0.000    0.000    0.000    3.000    0.000    2.333 
#    0.000    0.000    0.000    8.333    0.000    0.000 
#
# Total GULP energy -267283.810577 kJ/mol
# GULP energy per Si atom -5568.412720 kJ/mol
# Density = 1.553917 g / cm^3
# Si number density = 15.574616 Si / 1000 Ang^3
#
#
#
# Elastic Constant Matrix: (Units=GPa)
#
#
# Indices 1 2 3 4 5 6 
#
# 1 61.7494 52.4737 40.4436 0.0000 0.0000 0.0000
# 2 52.4737 91.8910 43.3959 0.0000 0.0000 0.0000
# 3 40.4436 43.3959 79.8209 0.0000 0.0000 0.0000
# 4 0.0000 0.0000 0.0000 -57.9617 0.0000 0.0000
# 5 0.0000 0.0000 0.0000 0.0000 15.0147 0.0000
# 6 0.0000 0.0000 0.0000 0.0000 0.0000 16.0254
#
#
#
# Elastic Compliance Matrix: (Units=1/GPa)
#
#
# Indices 1 2 3 4 5 6 
#
# 1 0.036167 -0.016144 -0.009548 0.000000 0.000000 0.000000
# 2 -0.016144 0.021848 -0.003698 0.000000 0.000000 0.000000
# 3 -0.009548 -0.003698 0.019377 0.000000 0.000000 0.000000
# 4 0.000000 0.000000 0.000000 -0.017253 0.000000 0.000000
# 5 0.000000 0.000000 0.000000 0.000000 0.066601 0.000000
# 6 0.000000 0.000000 0.000000 0.000000 0.000000 0.062401
#
#
# Mechanical properties :
#
#
# Convention : Reuss Voigt Hill
#
# Bulk Modulus (GPa) = 53.73196 56.23196 54.98196
# Shear Modulus (GPa) = 19.67542 1.09222 10.38382
#
# Velocity S-wave (km/s) = 3.55815 0.83833 2.58488
# Velocity P-wave (km/s) = 7.17323 6.09265 6.65490
#
# Compressibility (1/GPa) = 0.01861090
#
# Stress axis : x y z
#
# Youngs Moduli (GPa) = 27.64968 45.77161 51.60883
#
# Poissons Ratio (x) = 0.73892 0.49277
# Poissons Ratio (y) = 0.44636 0.19086
# Poissons Ratio (z) = 0.26401 0.16927
#
# Static dielectric constant tensor:
#      x y z
#    x 1.472680 0.000000 0.000000 
#    y 0.000000 1.588960 0.000000 
#    z 0.000000 0.000000 1.544690 
# 
# From -- ./inp_files/47868.got.cif
#   From: 2010.05.17/outbox.cif.g08.bks.cpg/sg65_24_cif.got.tgz:47868.got - 2010.06.03 17:01:31.
