data_PCOD9487716
_publ_section_title
;
Structure prediction by ZEFSAII (Michael W. Deem and Ramdas Pophale) SiO2 
 PCOD9487716
Probable space group: C M M M
;
_chemical_formula_sum "Si O2"
_cell_formula_units_Z 66
_cell_length_a 17.957922
_cell_length_b 20.272496
_cell_length_c 9.449092
_cell_angle_alpha 90.000000
_cell_angle_beta 90.000000
_cell_angle_gamma 90.000000
_cell_volume 3439.959914
_symmetry_space_group_name_H-M "C M M M"
_symmetry_group_IT_number 65
_symmetry_cell_setting 'orthorhombic'
loop_
_space_group_symop_operation_xyz
x,y,z
-x,-y,z
x,-y,-z
-x,y,-z
-x,-y,-z
x,y,-z
-x,y,z
x,-y,z
1/2+x,1/2+y,z
1/2-x,1/2-y,z
1/2+x,1/2-y,-z
1/2-x,1/2+y,-z
1/2-x,1/2-y,-z
1/2+x,1/2+y,-z
1/2-x,1/2+y,z
1/2+x,1/2-y,z
loop_
_atom_site_type_symbol
_atom_site_label
_atom_site_fract_x
_atom_site_fract_y
_atom_site_fract_z
Si Si1 0.627117 0.500000 0.740324
Si Si2 0.300907 0.000000 0.664990
Si Si3 0.587347 0.761253 0.664354
Si Si4 0.182932 0.632959 0.833913
Si Si5 0.639920 0.355498 0.842884
Si Si6 0.500000 0.500000 0.500000
O O1 0.710798 0.500000 0.676071
O O2 0.621376 0.432490 0.827907
O O3 0.564961 0.500000 0.622075
O O4 0.327438 0.065122 0.747677
O O5 0.322474 0.000000 0.500000
O O6 0.609940 0.765679 0.500000
O O7 0.500000 0.776964 0.674336
O O8 0.635236 0.810296 0.760339
O O9 0.600985 0.687901 0.723678
O O10 0.270763 0.650641 0.826620
O O11 0.164696 0.625043 0.000000
O O12 0.619167 0.331672 0.000000
#
# Coordination Sequence:
#
# PCOD9487716 Si02
#       6
#     8   8  16  16  16   2
#     4  10  23  36  59  84 123 156 200 238 288 341
#     4  10  19  37  63  90 116 151 192 239 291 343
#     4  11  25  40  58  85 120 155 194 242 296 351
#     4  10  21  39  63  89 117 151 195 243 292 348
#     4  10  22  40  61  86 117 156 200 245 290 344
#     4  12  24  36  54  88 128 164 192 250 288 340
#
# _framework density 19.186271000000001
#
# number of rings (size 3 to 8) (size 9 to 14) (size 15 to 20)
#    0.000    1.697    0.606    2.909    3.394    9.697 
#    0.000    1.212    0.000    3.636    0.000    0.000 
#    0.000    0.000    0.000    0.000    0.000    0.000 
#
# Total GULP energy -184134.107109 kJ/mol
# GULP energy per Si atom -5579.821428 kJ/mol
# Density = 1.914260 g / cm^3
# Si number density = 19.186271 Si / 1000 Ang^3
#
#
#
# Elastic Constant Matrix: (Units=GPa)
#
#
# Indices 1 2 3 4 5 6 
#
# 1 46.6231 32.8041 45.2840 0.0000 0.0000 0.0000
# 2 32.8041 90.4242 43.2203 0.0000 0.0000 0.0000
# 3 45.2840 43.2203 160.0316 0.0000 0.0000 0.0000
# 4 0.0000 0.0000 0.0000 -138.4788 0.0000 0.0000
# 5 0.0000 0.0000 0.0000 0.0000 22.7414 0.0000
# 6 0.0000 0.0000 0.0000 0.0000 0.0000 -20.0991
#
#
#
# Elastic Compliance Matrix: (Units=1/GPa)
#
#
# Indices 1 2 3 4 5 6 
#
# 1 0.035169 -0.009188 -0.007470 0.000000 0.000000 0.000000
# 2 -0.009188 0.015099 -0.001478 0.000000 0.000000 0.000000
# 3 -0.007470 -0.001478 0.008762 0.000000 0.000000 0.000000
# 4 0.000000 0.000000 0.000000 -0.007221 0.000000 0.000000
# 5 0.000000 0.000000 0.000000 0.000000 0.043973 0.000000
# 6 0.000000 0.000000 0.000000 0.000000 0.000000 -0.049753
#
#
# Mechanical properties :
#
#
# Convention : Reuss Voigt Hill
#
# Bulk Modulus (GPa) = 43.94234 59.96618 51.95426
# Shear Modulus (GPa) = 55.62649 -15.44926 20.08861
#
# Velocity S-wave (km/s) = 5.39034 -2.84073 3.23930
# Velocity P-wave (km/s) = 7.85454 4.53464 6.41314
#
# Compressibility (1/GPa) = 0.02275710
#
# Stress axis : x y z
#
# Youngs Moduli (GPa) = 28.43411 66.23145 114.13253
#
# Poissons Ratio (x) = 0.60854 0.85260
# Poissons Ratio (y) = 0.26125 0.16866
# Poissons Ratio (z) = 0.21241 0.09788
#
# Static dielectric constant tensor:
#      x y z
#    x 1.640080 0.000000 0.000000 
#    y 0.000000 1.668250 0.000000 
#    z 0.000000 0.000000 1.646880 
# 
# From -- ./inp_files/8980.got.cif
#   From: 2010.05.17/outbox.cif.g08.bks.cpg/sg65_5_cif.got.tgz:8980.got - 2010.06.03 17:01:31.
