data_PCOD9487232
_publ_section_title
;
Structure prediction by ZEFSAII (Michael W. Deem and Ramdas Pophale) SiO2 
 PCOD9487232
Probable space group: C M M M
;
_chemical_formula_sum "Si O2"
_cell_formula_units_Z 80
_cell_length_a 21.044275
_cell_length_b 18.843539
_cell_length_c 11.982255
_cell_angle_alpha 90.000000
_cell_angle_beta 90.000000
_cell_angle_gamma 90.000000
_cell_volume 4751.546645
_symmetry_space_group_name_H-M "C M M M"
_symmetry_group_IT_number 65
_symmetry_cell_setting 'orthorhombic'
loop_
_space_group_symop_operation_xyz
x,y,z
-x,-y,z
x,-y,-z
-x,y,-z
-x,-y,-z
x,y,-z
-x,y,z
x,-y,z
1/2+x,1/2+y,z
1/2-x,1/2-y,z
1/2+x,1/2-y,-z
1/2-x,1/2+y,-z
1/2-x,1/2-y,-z
1/2+x,1/2+y,-z
1/2-x,1/2+y,z
1/2+x,1/2-y,z
loop_
_atom_site_type_symbol
_atom_site_label
_atom_site_fract_x
_atom_site_fract_y
_atom_site_fract_z
Si Si1 0.404075 0.922255 0.754503
Si Si2 0.930746 0.277176 0.633176
Si Si3 0.306085 0.307031 0.366757
Si Si4 0.427292 0.867201 0.000000
Si Si5 0.756244 0.418715 0.784327
Si Si6 0.785363 0.675192 0.000000
O O1 0.428923 0.853770 0.690663
O O2 0.419472 0.911962 0.886006
O O3 0.328120 0.920857 0.737652
O O4 0.426907 0.000000 0.718716
O O5 0.923985 0.286864 0.500000
O O6 0.871940 0.229025 0.670583
O O7 0.000000 0.244624 0.655469
O O8 0.308400 0.319233 0.500000
O O9 0.250000 0.250000 0.345131
O O10 0.289102 0.378189 0.301347
O O11 0.362962 0.818777 0.000000
O O12 0.500000 0.837407 0.000000
O O13 0.737512 0.500000 0.808145
O O14 0.763627 0.370546 0.893760
O O15 0.750000 0.750000 0.000000
#
# Coordination Sequence:
#
# PCOD9487232 Si02
#       6
#    16  16  16   8  16   8
#     4  10  20  33  50  74 106 141 174 210 255 310
#     4  10  21  35  51  74 104 138 176 218 263 311
#     4  10  19  34  55  76 102 137 176 219 263 308
#     4  10  21  34  49  73 103 138 178 212 245 300
#     4  10  20  34  54  79 107 136 174 218 260 309
#     4  10  21  35  56  78 107 143 173 213 264 309
#
# _framework density 16.836622999999999
#
# number of rings (size 3 to 8) (size 9 to 14) (size 15 to 20)
#    0.000    2.000    2.000    1.800    2.800    5.200 
#    0.000    3.000    0.000    0.600    0.000    2.800 
#    0.000    2.400    0.000    0.000    0.000    0.000 
#
# Total GULP energy -223017.234211 kJ/mol
# GULP energy per Si atom -5575.430855 kJ/mol
# Density = 1.679830 g / cm^3
# Si number density = 16.836623 Si / 1000 Ang^3
#
#
#
# Elastic Constant Matrix: (Units=GPa)
#
#
# Indices 1 2 3 4 5 6 
#
# 1 133.8481 72.7656 39.4656 0.0000 0.0000 0.0000
# 2 72.7656 121.6518 34.6087 0.0000 0.0000 0.0000
# 3 39.4656 34.6087 30.6935 0.0000 0.0000 0.0000
# 4 0.0000 0.0000 0.0000 -91.0563 0.0000 0.0000
# 5 0.0000 0.0000 0.0000 0.0000 10.5372 0.0000
# 6 0.0000 0.0000 0.0000 0.0000 0.0000 13.3566
#
#
#
# Elastic Compliance Matrix: (Units=1/GPa)
#
#
# Indices 1 2 3 4 5 6 
#
# 1 0.013618 -0.004658 -0.012257 0.000000 0.000000 0.000000
# 2 -0.004658 0.013696 -0.009453 0.000000 0.000000 0.000000
# 3 -0.012257 -0.009453 0.058999 0.000000 0.000000 0.000000
# 4 0.000000 0.000000 0.000000 -0.010982 0.000000 0.000000
# 5 0.000000 0.000000 0.000000 0.000000 0.094901 0.000000
# 6 0.000000 0.000000 0.000000 0.000000 0.000000 0.074869
#
#
# Mechanical properties :
#
#
# Convention : Reuss Voigt Hill
#
# Bulk Modulus (GPa) = 29.78343 64.43037 47.10690
# Shear Modulus (GPa) = 16.17964 -4.14225 6.01869
#
# Velocity S-wave (km/s) = 3.10333 -1.57022 1.89276
# Velocity P-wave (km/s) = 5.52892 5.92145 5.72855
#
# Compressibility (1/GPa) = 0.03357571
#
# Stress axis : x y z
#
# Youngs Moduli (GPa) = 73.43408 73.01448 16.94935
#
# Poissons Ratio (x) = 0.34013 0.20775
# Poissons Ratio (y) = 0.34208 0.16023
# Poissons Ratio (z) = 0.90008 0.69022
#
# Static dielectric constant tensor:
#      x y z
#    x 1.604270 0.000000 0.000000 
#    y 0.000000 1.541110 0.000000 
#    z 0.000000 0.000000 1.579940 
# 
# From -- ./inp_files/28586.got.cif
#   From: 2010.05.17/outbox.cif.g08.bks.cpg/sg65_15_cif.got.tgz:28586.got - 2010.06.03 17:01:31.
