data_PCOD9487376
_publ_section_title
;
Structure prediction by ZEFSAII (Michael W. Deem and Ramdas Pophale) SiO2 
 PCOD9487376
Probable space group: C M M M
;
_chemical_formula_sum "Si O2"
_cell_formula_units_Z 72
_cell_length_a 25.939209
_cell_length_b 8.614858
_cell_length_c 17.639751
_cell_angle_alpha 90.000000
_cell_angle_beta 90.000000
_cell_angle_gamma 90.000000
_cell_volume 3941.824660
_symmetry_space_group_name_H-M "C M M M"
_symmetry_group_IT_number 65
_symmetry_cell_setting 'orthorhombic'
loop_
_space_group_symop_operation_xyz
x,y,z
-x,-y,z
x,-y,-z
-x,y,-z
-x,-y,-z
x,y,-z
-x,y,z
x,-y,z
1/2+x,1/2+y,z
1/2-x,1/2-y,z
1/2+x,1/2-y,-z
1/2-x,1/2+y,-z
1/2-x,1/2-y,-z
1/2+x,1/2+y,-z
1/2-x,1/2+y,z
1/2+x,1/2-y,z
loop_
_atom_site_type_symbol
_atom_site_label
_atom_site_fract_x
_atom_site_fract_y
_atom_site_fract_z
Si Si1 0.808031 0.685253 0.500000
Si Si2 0.000000 0.181775 0.613766
Si Si3 0.306918 0.685736 0.086487
Si Si4 0.500000 0.817367 0.778050
Si Si5 0.113574 0.683940 0.792566
Si Si6 0.386562 0.312661 0.622079
O O1 0.806348 0.500000 0.500000
O O2 0.750000 0.750000 0.500000
O O3 0.840656 0.745369 0.571999
O O4 0.056749 0.242554 0.591706
O O5 0.000000 0.208867 0.704279
O O6 0.000000 0.000000 0.594677
O O7 0.305588 0.500000 0.089191
O O8 0.250000 0.750000 0.102958
O O9 0.347086 0.747669 0.147387
O O10 0.320155 0.733649 0.000000
O O11 0.445803 0.791112 0.818684
O O12 0.500000 0.000000 0.753050
O O13 0.121863 0.500000 0.784850
O O14 0.118610 0.759451 0.709263
O O15 0.385960 0.500000 0.618313
#
# Coordination Sequence:
#
# PCOD9487376 Si02
#       6
#     8   8  16   8  16  16
#     4  12  26  43  58  77 107 144 184 228 275 320
#     4   8  16  31  55  83 110 139 174 216 263 315
#     4  10  21  37  56  79 107 140 180 227 275 321
#     4   8  16  30  50  78 112 144 175 215 262 312
#     4  10  19  34  57  84 112 144 181 220 265 319
#     4  10  20  37  59  84 112 144 180 220 267 319
#
# _framework density 18.265653
#
# number of rings (size 3 to 8) (size 9 to 14) (size 15 to 20)
#    0.000    2.222    0.000    3.000    0.000    4.444 
#    0.000    7.222    0.000    3.333    0.000    0.000 
#    0.000    0.000    0.000    0.000    0.000    0.000 
#
# Total GULP energy -200773.996793 kJ/mol
# GULP energy per Si atom -5577.055466 kJ/mol
# Density = 1.822408 g / cm^3
# Si number density = 18.265653 Si / 1000 Ang^3
#
#
#
# Elastic Constant Matrix: (Units=GPa)
#
#
# Indices 1 2 3 4 5 6 
#
# 1 194.2967 64.0689 103.7036 0.0000 0.0000 0.0000
# 2 64.0689 79.5054 42.8544 0.0000 0.0000 0.0000
# 3 103.7036 42.8544 107.4265 0.0000 0.0000 0.0000
# 4 0.0000 0.0000 0.0000 26.8635 0.0000 0.0000
# 5 0.0000 0.0000 0.0000 0.0000 97.5106 0.0000
# 6 0.0000 0.0000 0.0000 0.0000 0.0000 25.5524
#
#
#
# Elastic Compliance Matrix: (Units=1/GPa)
#
#
# Indices 1 2 3 4 5 6 
#
# 1 0.011637 -0.004233 -0.009545 0.000000 0.000000 0.000000
# 2 -0.004233 0.017563 -0.002920 0.000000 0.000000 0.000000
# 3 -0.009545 -0.002920 0.019688 0.000000 0.000000 0.000000
# 4 0.000000 0.000000 0.000000 0.037225 0.000000 0.000000
# 5 0.000000 0.000000 0.000000 0.000000 0.010255 0.000000
# 6 0.000000 0.000000 0.000000 0.000000 0.000000 0.039135
#
#
# Mechanical properties :
#
#
# Convention : Reuss Voigt Hill
#
# Bulk Modulus (GPa) = 64.55081 89.16469 76.85775
# Shear Modulus (GPa) = 28.72506 41.35876 35.04191
#
# Velocity S-wave (km/s) = 3.96994 4.76362 4.38477
# Velocity P-wave (km/s) = 7.51203 8.89818 8.23432
#
# Compressibility (1/GPa) = 0.01549167
#
# Stress axis : x y z
#
# Youngs Moduli (GPa) = 85.93083 56.93929 50.79185
#
# Poissons Ratio (x) = 0.24101 0.48483
# Poissons Ratio (y) = 0.36372 0.14831
# Poissons Ratio (z) = 0.82025 0.16626
#
# Static dielectric constant tensor:
#      x y z
#    x 1.639990 0.000000 0.000000 
#    y 0.000000 1.623540 0.000000 
#    z 0.000000 0.000000 1.602670 
# 
# From -- ./inp_files/56519.got.cif
#   From: 2010.05.17/outbox.cif.g08.bks.cpg/sg65_29_cif.got.tgz:56519.got - 2010.06.03 17:01:31.
