data_PCOD9487485
_publ_section_title
;
Structure prediction by ZEFSAII (Michael W. Deem and Ramdas Pophale) SiO2 
 PCOD9487485
Probable space group: C M M M
;
_chemical_formula_sum "Si O2"
_cell_formula_units_Z 116
_cell_length_a 18.471193
_cell_length_b 15.187227
_cell_length_c 18.049605
_cell_angle_alpha 90.000000
_cell_angle_beta 90.000000
_cell_angle_gamma 90.000000
_cell_volume 5063.387121
_symmetry_space_group_name_H-M "C M M M"
_symmetry_group_IT_number 65
_symmetry_cell_setting 'orthorhombic'
loop_
_space_group_symop_operation_xyz
x,y,z
-x,-y,z
x,-y,-z
-x,y,-z
-x,-y,-z
x,y,-z
-x,y,z
x,-y,z
1/2+x,1/2+y,z
1/2-x,1/2-y,z
1/2+x,1/2-y,-z
1/2-x,1/2+y,-z
1/2-x,1/2-y,-z
1/2+x,1/2+y,-z
1/2-x,1/2+y,z
1/2+x,1/2-y,z
loop_
_atom_site_type_symbol
_atom_site_label
_atom_site_fract_x
_atom_site_fract_y
_atom_site_fract_z
Si Si1 0.196542 0.173998 0.697562
Si Si2 0.582474 0.655974 0.585796
Si Si3 0.232208 0.853266 0.150134
Si Si4 0.922398 0.894151 0.085007
Si Si5 0.418459 0.195425 0.766639
Si Si6 0.878301 0.399650 0.083762
Si Si7 0.082518 0.632709 0.388154
Si Si8 0.645954 0.000000 0.500000
O O1 0.250000 0.250000 0.666028
O O2 0.148943 0.124232 0.636727
O O3 0.237787 0.121857 0.762590
O O4 0.137109 0.228506 0.745303
O O5 0.591752 0.631781 0.500000
O O6 0.500000 0.630514 0.608105
O O7 0.586427 0.763019 0.592911
O O8 0.250000 0.750000 0.144330
O O9 0.151690 0.869221 0.122861
O O10 0.292100 0.899450 0.099726
O O11 0.000000 0.863471 0.116918
O O12 0.924421 0.000000 0.085096
O O13 0.919526 0.864200 0.000000
O O14 0.500000 0.227092 0.755756
O O15 0.408842 0.157618 0.848548
O O16 0.407805 0.124887 0.700202
O O17 0.905031 0.500000 0.088930
O O18 0.892577 0.367405 0.000000
O O19 0.137584 0.576644 0.435512
O O20 0.000000 0.604651 0.407707
#
# Coordination Sequence:
#
# PCOD9487485 Si02
#       8
#    16  16  16  16  16  16  16   4
#     4  10  19  35  54  78 109 142 189 233 283 335
#     4   9  17  31  49  73 107 146 179 217 273 335
#     4  11  21  38  57  83 112 146 186 237 292 349
#     4   9  19  36  58  84 112 141 179 235 301 358
#     4  10  21  39  56  77 111 152 186 234 292 334
#     4  11  24  41  60  81 108 151 200 240 284 350
#     4   9  17  26  43  69 102 136 174 221 269 317
#     4  12  17  24  44  80 104 130 186 232 263 318
#
# _framework density 22.909566000000002
#
# number of rings (size 3 to 8) (size 9 to 14) (size 15 to 20)
#    0.000    2.069    3.448    3.103    0.966    4.138 
#    0.000    0.690    0.000    0.000    0.000    0.000 
#    0.000    1.655    0.000    7.586    0.000    0.000 
#
# Total GULP energy -323288.913042 kJ/mol
# GULP energy per Si atom -5573.946777 kJ/mol
# Density = 2.285742 g / cm^3
# Si number density = 22.909566 Si / 1000 Ang^3
#
#
#
# Elastic Constant Matrix: (Units=GPa)
#
#
# Indices 1 2 3 4 5 6 
#
# 1 100.6582 -8.0942 14.5855 0.0000 0.0000 0.0000
# 2 -8.0942 27.1150 3.6584 0.0000 0.0000 0.0000
# 3 14.5855 3.6584 140.6499 0.0000 0.0000 0.0000
# 4 0.0000 0.0000 0.0000 30.5676 0.0000 0.0000
# 5 0.0000 0.0000 0.0000 0.0000 27.7924 0.0000
# 6 0.0000 0.0000 0.0000 0.0000 0.0000 -2.0484
#
#
#
# Elastic Compliance Matrix: (Units=1/GPa)
#
#
# Indices 1 2 3 4 5 6 
#
# 1 0.010364 0.003250 -0.001159 0.000000 0.000000 0.000000
# 2 0.003250 0.038029 -0.001326 0.000000 0.000000 0.000000
# 3 -0.001159 -0.001326 0.007265 0.000000 0.000000 0.000000
# 4 0.000000 0.000000 0.000000 0.032714 0.000000 0.000000
# 5 0.000000 0.000000 0.000000 0.000000 0.035981 0.000000
# 6 0.000000 0.000000 0.000000 0.000000 0.000000 -0.488186
#
#
# Mechanical properties :
#
#
# Convention : Reuss Voigt Hill
#
# Bulk Modulus (GPa) = 17.48648 32.08029 24.78338
# Shear Modulus (GPa) = -14.43837 28.48054 7.02109
#
# Velocity S-wave (km/s) = -2.51317 3.52969 1.75253
# Velocity P-wave (km/s) = 0.87861 5.53579 3.86478
#
# Compressibility (1/GPa) = 0.05718705
#
# Stress axis : x y z
#
# Youngs Moduli (GPa) = 96.48835 26.29561 137.65446
#
# Poissons Ratio (x) = -0.08547 0.15958
# Poissons Ratio (y) = -0.31361 0.18256
# Poissons Ratio (z) = 0.11186 0.03487
#
# Static dielectric constant tensor:
#      x y z
#    x 1.905530 0.000000 0.000000 
#    y 0.000000 1.878650 0.000000 
#    z 0.000000 0.000000 1.911980 
# 
# From -- ./inp_files/54694.got.cif
#   From: 2010.05.17/outbox.cif.g08.bks.cpg/sg65_28_cif.got.tgz:54694.got - 2010.06.03 17:01:31.
