data_PCOD9487305
_publ_section_title
;
Structure prediction by ZEFSAII (Michael W. Deem and Ramdas Pophale) SiO2 
 PCOD9487305
Probable space group: C M M M
;
_chemical_formula_sum "Si O2"
_cell_formula_units_Z 68
_cell_length_a 15.871781
_cell_length_b 7.271429
_cell_length_c 23.952036
_cell_angle_alpha 90.000000
_cell_angle_beta 90.000000
_cell_angle_gamma 90.000000
_cell_volume 2764.317137
_symmetry_space_group_name_H-M "C M M M"
_symmetry_group_IT_number 65
_symmetry_cell_setting 'orthorhombic'
loop_
_space_group_symop_operation_xyz
x,y,z
-x,-y,z
x,-y,-z
-x,y,-z
-x,-y,-z
x,y,-z
-x,y,z
x,-y,z
1/2+x,1/2+y,z
1/2-x,1/2-y,z
1/2+x,1/2-y,-z
1/2-x,1/2+y,-z
1/2-x,1/2-y,-z
1/2+x,1/2+y,-z
1/2-x,1/2+y,z
1/2+x,1/2-y,z
loop_
_atom_site_type_symbol
_atom_site_label
_atom_site_fract_x
_atom_site_fract_y
_atom_site_fract_z
Si Si1 0.099687 0.288650 0.680220
Si Si2 0.649792 0.218911 0.439800
Si Si3 0.093489 0.275944 0.917250
Si Si4 0.750000 0.250000 0.000000
Si Si5 0.152844 0.281991 0.201076
O O1 0.132447 0.500000 0.677392
O O2 0.117951 0.207047 0.619336
O O3 0.135677 0.205671 0.737121
O O4 0.000000 0.293237 0.687464
O O5 0.617724 0.289202 0.500000
O O6 0.750000 0.250000 0.439720
O O7 0.631818 0.000000 0.439942
O O8 0.096348 0.500000 0.920032
O O9 0.102496 0.216360 0.852869
O O10 0.000000 0.221789 0.937127
O O11 0.175732 0.220179 0.952148
O O12 0.134377 0.500000 0.204636
O O13 0.250000 0.250000 0.188225
#
# Coordination Sequence:
#
# PCOD9487305 Si02
#       5
#    16  16  16   4  16
#     4   9  17  29  48  74 100 129 170 215 255 301
#     4   9  17  29  46  69  97 129 165 206 253 304
#     4  10  21  37  58  82 108 142 184 224 264 321
#     4  12  20  34  56  82 108 134 174 226 266 312
#     4  10  19  34  56  80 105 136 176 220 264 312
#
# _framework density 24.599204
#
# number of rings (size 3 to 8) (size 9 to 14) (size 15 to 20)
#    0.000    2.353    1.176    2.118    0.000    4.235 
#    0.000    2.353    0.000   13.412    0.000    3.294 
#    0.000    0.000    0.000    0.000    0.000    0.000 
#
# Total GULP energy -189301.012547 kJ/mol
# GULP energy per Si atom -5567.676840 kJ/mol
# Density = 2.454321 g / cm^3
# Si number density = 24.599204 Si / 1000 Ang^3
#
#
#
# Elastic Constant Matrix: (Units=GPa)
#
#
# Indices 1 2 3 4 5 6 
#
# 1 142.1921 -7.7478 80.3003 0.0000 0.0000 0.0000
# 2 -7.7478 108.0686 14.9922 0.0000 0.0000 0.0000
# 3 80.3003 14.9922 254.0619 0.0000 0.0000 0.0000
# 4 0.0000 0.0000 0.0000 -32.8166 0.0000 0.0000
# 5 0.0000 0.0000 0.0000 0.0000 -258.4644 0.0000
# 6 0.0000 0.0000 0.0000 0.0000 0.0000 1.9187
#
#
#
# Elastic Compliance Matrix: (Units=1/GPa)
#
#
# Indices 1 2 3 4 5 6 
#
# 1 0.008669 0.001010 -0.002799 0.000000 0.000000 0.000000
# 2 0.001010 0.009447 -0.000877 0.000000 0.000000 0.000000
# 3 -0.002799 -0.000877 0.004873 0.000000 0.000000 0.000000
# 4 0.000000 0.000000 0.000000 -0.030472 0.000000 0.000000
# 5 0.000000 0.000000 0.000000 0.000000 -0.003869 0.000000
# 6 0.000000 0.000000 0.000000 0.000000 0.000000 0.521193
#
#
# Mechanical properties :
#
#
# Convention : Reuss Voigt Hill
#
# Bulk Modulus (GPa) = 56.63757 75.49023 66.06390
# Shear Modulus (GPa) = 9.59585 -30.08727 -10.24571
#
# Velocity S-wave (km/s) = 1.97721 -3.50108 -2.04306
# Velocity P-wave (km/s) = 5.31851 3.79622 4.62049
#
# Compressibility (1/GPa) = 0.01765612
#
# Stress axis : x y z
#
# Youngs Moduli (GPa) = 115.35735 105.84927 205.22920
#
# Poissons Ratio (x) = -0.10689 0.57453
# Poissons Ratio (y) = -0.11649 0.17992
# Poissons Ratio (z) = 0.32294 0.09279
#
# Static dielectric constant tensor:
#      x y z
#    x 1.860180 0.000000 0.000000 
#    y 0.000000 2.046090 0.000000 
#    z 0.000000 0.000000 1.981980 
# 
# From -- ./inp_files/69653.got.cif
#   From: 2010.05.17/outbox.cif.g08.bks.cpg/sg65_35_cif.got.tgz:69653.got - 2010.06.03 17:01:31.
