data_PCOD9487266
_publ_section_title
;
Structure prediction by ZEFSAII (Michael W. Deem and Ramdas Pophale) SiO2 
 PCOD9487266
Probable space group: C M M M
;
_chemical_formula_sum "Si O2"
_cell_formula_units_Z 88
_cell_length_a 20.276632
_cell_length_b 19.482724
_cell_length_c 12.465454
_cell_angle_alpha 90.000000
_cell_angle_beta 90.000000
_cell_angle_gamma 90.000000
_cell_volume 4924.403120
_symmetry_space_group_name_H-M "C M M M"
_symmetry_group_IT_number 65
_symmetry_cell_setting 'orthorhombic'
loop_
_space_group_symop_operation_xyz
x,y,z
-x,-y,z
x,-y,-z
-x,y,-z
-x,-y,-z
x,y,-z
-x,y,z
x,-y,z
1/2+x,1/2+y,z
1/2-x,1/2-y,z
1/2+x,1/2-y,-z
1/2-x,1/2+y,-z
1/2-x,1/2-y,-z
1/2+x,1/2+y,-z
1/2-x,1/2+y,z
1/2+x,1/2-y,z
loop_
_atom_site_type_symbol
_atom_site_label
_atom_site_fract_x
_atom_site_fract_y
_atom_site_fract_z
Si Si1 0.727163 0.080129 0.122046
Si Si2 0.574981 0.685281 0.500000
Si Si3 0.114541 0.076137 0.125445
Si Si4 0.879556 0.647890 0.260478
Si Si5 0.500000 0.082521 0.872943
Si Si6 0.577554 0.301771 0.726766
Si Si7 0.076102 0.351855 0.500000
O O1 0.806038 0.082873 0.133506
O O2 0.688824 0.122722 0.210853
O O3 0.707692 0.000000 0.130606
O O4 0.710516 0.102786 0.000000
O O5 0.500000 0.658296 0.500000
O O6 0.604930 0.667586 0.385479
O O7 0.573931 0.768562 0.500000
O O8 0.083568 0.139907 0.185555
O O9 0.095945 0.000000 0.166417
O O10 0.097662 0.078344 0.000000
O O11 0.887312 0.730044 0.249240
O O12 0.890546 0.629297 0.386315
O O13 0.936636 0.612893 0.188608
O O14 0.500000 0.000000 0.865470
O O15 0.500000 0.100621 0.000000
O O16 0.500000 0.284427 0.710603
O O17 0.000000 0.376065 0.500000
#
# Coordination Sequence:
#
# PCOD9487266 Si02
#       7
#    16   8  16  16   8  16   8
#     4   9  19  37  56  72 100 143 182 216 258 312
#     4   7  14  30  52  72 100 137 172 200 255 311
#     4   9  20  38  56  75 103 140 176 212 265 323
#     4  11  19  34  54  78 104 139 178 217 258 306
#     4  11  22  33  47  73 108 141 173 210 255 304
#     4  10  19  34  55  81 106 136 171 219 262 312
#     4   9  16  32  51  71 107 146 175 210 260 312
#
# _framework density 17.870186
#
# number of rings (size 3 to 8) (size 9 to 14) (size 15 to 20)
#    0.000    2.455    1.818    3.273    0.000    4.364 
#    0.000    6.364    0.000    7.091    0.000    0.000 
#    0.000    0.000    0.000    0.000    0.000    0.000 
#
# Total GULP energy -245186.153989 kJ/mol
# GULP energy per Si atom -5572.412591 kJ/mol
# Density = 1.782951 g / cm^3
# Si number density = 17.870186 Si / 1000 Ang^3
#
#
#
# Elastic Constant Matrix: (Units=GPa)
#
#
# Indices 1 2 3 4 5 6 
#
# 1 10.2017 9.7804 14.1961 0.0000 0.0000 0.0000
# 2 9.7804 67.0937 43.0575 0.0000 0.0000 0.0000
# 3 14.1961 43.0575 106.3489 0.0000 0.0000 0.0000
# 4 0.0000 0.0000 0.0000 -239.5954 0.0000 0.0000
# 5 0.0000 0.0000 0.0000 0.0000 3.5788 0.0000
# 6 0.0000 0.0000 0.0000 0.0000 0.0000 27.5802
#
#
#
# Elastic Compliance Matrix: (Units=1/GPa)
#
#
# Indices 1 2 3 4 5 6 
#
# 1 0.125326 -0.010177 -0.012609 0.000000 0.000000 0.000000
# 2 -0.010177 0.020963 -0.007129 0.000000 0.000000 0.000000
# 3 -0.012609 -0.007129 0.013972 0.000000 0.000000 0.000000
# 4 0.000000 0.000000 0.000000 -0.004174 0.000000 0.000000
# 5 0.000000 0.000000 0.000000 0.000000 0.279425 0.000000
# 6 0.000000 0.000000 0.000000 0.000000 0.000000 0.036258
#
#
# Mechanical properties :
#
#
# Convention : Reuss Voigt Hill
#
# Bulk Modulus (GPa) = 9.95703 35.30136 22.62920
# Shear Modulus (GPa) = 8.84834 -33.91328 -12.53247
#
# Velocity S-wave (km/s) = 2.22760 -4.36105 -2.65109
# Velocity P-wave (km/s) = 3.49288 2.35821 1.82196
#
# Compressibility (1/GPa) = 0.10043153
#
# Stress axis : x y z
#
# Youngs Moduli (GPa) = 7.97920 47.70313 71.57007
#
# Poissons Ratio (x) = 0.48549 0.90241
# Poissons Ratio (y) = 0.08121 0.51021
# Poissons Ratio (z) = 0.10061 0.34006
#
# Static dielectric constant tensor:
#      x y z
#    x 1.624380 0.000000 0.000000 
#    y 0.000000 1.588150 0.000000 
#    z 0.000000 0.000000 1.644870 
# 
# From -- ./inp_files/28740.got.cif
#   From: 2010.05.17/outbox.cif.g08.bks.cpg/sg65_15_cif.got.tgz:28740.got - 2010.06.03 17:01:31.
