data_PCOD9487350
_publ_section_title
;
Structure prediction by ZEFSAII (Michael W. Deem and Ramdas Pophale) SiO2 
 PCOD9487350
Probable space group: C M M M
;
_chemical_formula_sum "Si O2"
_cell_formula_units_Z 88
_cell_length_a 8.332782
_cell_length_b 19.200268
_cell_length_c 29.638241
_cell_angle_alpha 90.000000
_cell_angle_beta 90.000000
_cell_angle_gamma 90.000000
_cell_volume 4741.871009
_symmetry_space_group_name_H-M "C M M M"
_symmetry_group_IT_number 65
_symmetry_cell_setting 'orthorhombic'
loop_
_space_group_symop_operation_xyz
x,y,z
-x,-y,z
x,-y,-z
-x,y,-z
-x,-y,-z
x,y,-z
-x,y,z
x,-y,z
1/2+x,1/2+y,z
1/2-x,1/2-y,z
1/2+x,1/2-y,-z
1/2-x,1/2+y,-z
1/2-x,1/2-y,-z
1/2+x,1/2+y,-z
1/2-x,1/2+y,z
1/2+x,1/2-y,z
loop_
_atom_site_type_symbol
_atom_site_label
_atom_site_fract_x
_atom_site_fract_y
_atom_site_fract_z
Si Si1 0.693913 0.330387 0.048447
Si Si2 0.307512 0.328703 0.584828
Si Si3 0.194360 0.829953 0.852782
Si Si4 0.806098 0.920282 0.767745
Si Si5 0.190617 0.671024 0.315386
Si Si6 0.196204 0.079827 0.500000
O O1 0.500000 0.332238 0.048327
O O2 0.750000 0.250000 0.048283
O O3 0.746704 0.357319 0.097560
O O4 0.748379 0.361064 0.000000
O O5 0.500000 0.328639 0.585809
O O6 0.250000 0.250000 0.576000
O O7 0.246845 0.349277 0.634389
O O8 0.252241 0.379160 0.544828
O O9 0.250000 0.750000 0.847518
O O10 0.251218 0.877340 0.811527
O O11 0.000000 0.829619 0.852227
O O12 0.756025 0.879981 0.722759
O O13 0.000000 0.921310 0.769447
O O14 0.749224 0.000000 0.768002
O O15 0.250000 0.750000 0.307112
O O16 0.000000 0.671393 0.314126
O O17 0.000000 0.080068 0.500000
O O18 0.249106 0.000000 0.500000
#
# Coordination Sequence:
#
# PCOD9487350 Si02
#       6
#    16  16  16  16  16   8
#     4   8  13  22  38  62  91 119 150 193 243 291
#     4  10  19  34  57  81 106 136 170 208 250 296
#     4   9  17  29  47  70  94 124 162 203 247 296
#     4  10  21  36  52  71  99 135 171 208 254 305
#     4  11  22  37  57  80 105 132 169 213 257 305
#     4   9  19  34  53  79 108 139 174 208 244 291
#
# _framework density 18.558076
#
# number of rings (size 3 to 8) (size 9 to 14) (size 15 to 20)
#    0.000    2.455    0.000    4.091    0.000    3.273 
#    0.000    3.182    0.000    4.364    0.000    3.818 
#    0.000    0.000    0.000   31.091    0.000   15.636 
#
# Total GULP energy -245327.599432 kJ/mol
# GULP energy per Si atom -5575.627260 kJ/mol
# Density = 1.851584 g / cm^3
# Si number density = 18.558076 Si / 1000 Ang^3
#
#
#
# Elastic Constant Matrix: (Units=GPa)
#
#
# Indices 1 2 3 4 5 6 
#
# 1 23.7605 13.6051 17.1641 0.0000 0.0000 0.0000
# 2 13.6051 100.1610 122.2767 0.0000 0.0000 0.0000
# 3 17.1641 122.2767 215.4872 0.0000 0.0000 0.0000
# 4 0.0000 0.0000 0.0000 -2.9129 0.0000 0.0000
# 5 0.0000 0.0000 0.0000 0.0000 25.7305 0.0000
# 6 0.0000 0.0000 0.0000 0.0000 0.0000 18.0991
#
#
#
# Elastic Compliance Matrix: (Units=1/GPa)
#
#
# Indices 1 2 3 4 5 6 
#
# 1 0.045646 -0.005733 -0.000383 0.000000 0.000000 0.000000
# 2 -0.005733 0.033213 -0.018390 0.000000 0.000000 0.000000
# 3 -0.000383 -0.018390 0.015106 0.000000 0.000000 0.000000
# 4 0.000000 0.000000 0.000000 -0.343301 0.000000 0.000000
# 5 0.000000 0.000000 0.000000 0.000000 0.038864 0.000000
# 6 0.000000 0.000000 0.000000 0.000000 0.000000 0.055251
#
#
# Mechanical properties :
#
#
# Convention : Reuss Voigt Hill
#
# Bulk Modulus (GPa) = 22.24495 71.72228 46.98361
# Shear Modulus (GPa) = -54.80962 20.60752 -17.10105
#
# Velocity S-wave (km/s) = -5.44042 3.33593 -3.03890
# Velocity P-wave (km/s) = 5.23943 7.31911 3.61370
#
# Compressibility (1/GPa) = 0.04495403
#
# Stress axis : x y z
#
# Youngs Moduli (GPa) = 21.90787 30.10867 66.19747
#
# Poissons Ratio (x) = 0.17261 0.02533
# Poissons Ratio (y) = 0.12560 1.21736
# Poissons Ratio (z) = 0.00838 0.55369
#
# Static dielectric constant tensor:
#      x y z
#    x 1.648260 0.000000 0.000000 
#    y 0.000000 1.614360 0.000000 
#    z 0.000000 0.000000 1.678220 
# 
# From -- ./inp_files/76685.got.cif
#   From: 2010.05.17/outbox.cif.g08.bks.cpg/sg65_39_cif.got.tgz:76685.got - 2010.06.03 17:01:31.
