data_PCOD9487791
_publ_section_title
;
Structure prediction by ZEFSAII (Michael W. Deem and Ramdas Pophale) SiO2 
 PCOD9487791
Probable space group: C M M M
;
_chemical_formula_sum "Si O2"
_cell_formula_units_Z 96
_cell_length_a 29.312400
_cell_length_b 26.763716
_cell_length_c 9.416931
_cell_angle_alpha 90.000000
_cell_angle_beta 90.000000
_cell_angle_gamma 90.000000
_cell_volume 7387.664757
_symmetry_space_group_name_H-M "C M M M"
_symmetry_group_IT_number 65
_symmetry_cell_setting 'orthorhombic'
loop_
_space_group_symop_operation_xyz
x,y,z
-x,-y,z
x,-y,-z
-x,y,-z
-x,-y,-z
x,y,-z
-x,y,z
x,-y,z
1/2+x,1/2+y,z
1/2-x,1/2-y,z
1/2+x,1/2-y,-z
1/2-x,1/2+y,-z
1/2-x,1/2-y,-z
1/2+x,1/2+y,-z
1/2-x,1/2+y,z
1/2+x,1/2-y,z
loop_
_atom_site_type_symbol
_atom_site_label
_atom_site_fract_x
_atom_site_fract_y
_atom_site_fract_z
Si Si1 0.645274 0.749089 0.332933
Si Si2 0.364379 0.056923 0.668602
Si Si3 0.448226 0.206314 0.668059
Si Si4 0.700760 0.852220 0.332171
Si Si5 0.552348 0.898528 0.169056
Si Si6 0.221585 0.802258 0.836593
O O1 0.649954 0.737328 0.500000
O O2 0.592109 0.755394 0.296461
O O3 0.667634 0.804202 0.311865
O O4 0.674474 0.710367 0.241966
O O5 0.373613 0.064065 0.500000
O O6 0.326760 0.098179 0.709285
O O7 0.410219 0.067306 0.756077
O O8 0.349012 0.000000 0.689768
O O9 0.442501 0.193489 0.500000
O O10 0.500000 0.224956 0.687136
O O11 0.443095 0.156285 0.760382
O O12 0.711215 0.854624 0.500000
O O13 0.746453 0.841429 0.244869
O O14 0.500000 0.915118 0.193947
O O15 0.559637 0.895886 0.000000
O O16 0.250000 0.750000 0.832544
O O17 0.214762 0.815932 0.000000
#
# Coordination Sequence:
#
# PCOD9487791 Si02
#       6
#    16  16  16  16  16  16
#     4   9  15  25  41  59  77  99 124 155 191 226
#     4  10  20  33  47  60  73  95 129 165 202 242
#     4   9  16  27  43  60  78 102 132 161 192 232
#     4   9  16  28  42  57  75  96 121 156 196 233
#     4  10  20  31  42  56  75  99 127 163 206 243
#     4   9  17  26  38  58  78  98 121 150 187 229
#
# _framework density 12.994634
#
# number of rings (size 3 to 8) (size 9 to 14) (size 15 to 20)
#    0.000    2.667    1.667    1.000    0.000    5.000 
#    0.000    1.667    0.000    0.000    0.000    0.000 
#    0.000    0.000    0.000    0.000    0.000    0.833 
#
# Total GULP energy -267385.849543 kJ/mol
# GULP energy per Si atom -5570.538532 kJ/mol
# Density = 1.296506 g / cm^3
# Si number density = 12.994634 Si / 1000 Ang^3
#
#
#
# Elastic Constant Matrix: (Units=GPa)
#
#
# Indices 1 2 3 4 5 6 
#
# 1 88.4526 46.1954 48.9769 0.0000 0.0000 0.0000
# 2 46.1954 47.8304 35.5954 0.0000 0.0000 0.0000
# 3 48.9769 35.5954 50.5623 0.0000 0.0000 0.0000
# 4 0.0000 0.0000 0.0000 4.5660 0.0000 0.0000
# 5 0.0000 0.0000 0.0000 0.0000 14.5488 0.0000
# 6 0.0000 0.0000 0.0000 0.0000 0.0000 17.2320
#
#
#
# Elastic Compliance Matrix: (Units=1/GPa)
#
#
# Indices 1 2 3 4 5 6 
#
# 1 0.028585 -0.014707 -0.017335 0.000000 0.000000 0.000000
# 2 -0.014707 0.051481 -0.021996 0.000000 0.000000 0.000000
# 3 -0.017335 -0.021996 0.052054 0.000000 0.000000 0.000000
# 4 0.000000 0.000000 0.000000 0.219010 0.000000 0.000000
# 5 0.000000 0.000000 0.000000 0.000000 0.068734 0.000000
# 6 0.000000 0.000000 0.000000 0.000000 0.000000 0.058032
#
#
# Mechanical properties :
#
#
# Convention : Reuss Voigt Hill
#
# Bulk Modulus (GPa) = 41.59121 49.82008 45.70565
# Shear Modulus (GPa) = 8.41768 11.00785 9.71276
#
# Velocity S-wave (km/s) = 2.54792 2.91367 2.73691
# Velocity P-wave (km/s) = 6.38214 7.05276 6.72582
#
# Compressibility (1/GPa) = 0.02404354
#
# Stress axis : x y z
#
# Youngs Moduli (GPa) = 34.98343 19.42453 19.21069
#
# Poissons Ratio (x) = 0.28568 0.33302
# Poissons Ratio (y) = 0.51451 0.42257
# Poissons Ratio (z) = 0.60644 0.42727
#
# Static dielectric constant tensor:
#      x y z
#    x 1.431420 0.000000 0.000000 
#    y 0.000000 1.395580 0.000000 
#    z 0.000000 0.000000 1.432750 
# 
# From -- ./inp_files/16667.got.cif
#   From: 2010.05.17/outbox.cif.g08.bks.cpg/sg65_9_cif.got.tgz:16667.got - 2010.06.03 17:01:31.
