data_PCOD9487087
_publ_section_title
;
Structure prediction by ZEFSAII (Michael W. Deem and Ramdas Pophale) SiO2 
 PCOD9487087
Probable space group: C M M M
;
_chemical_formula_sum "Si O2"
_cell_formula_units_Z 72
_cell_length_a 14.850966
_cell_length_b 13.927371
_cell_length_c 18.021276
_cell_angle_alpha 90.000000
_cell_angle_beta 90.000000
_cell_angle_gamma 90.000000
_cell_volume 3727.429057
_symmetry_space_group_name_H-M "C M M M"
_symmetry_group_IT_number 65
_symmetry_cell_setting 'orthorhombic'
loop_
_space_group_symop_operation_xyz
x,y,z
-x,-y,z
x,-y,-z
-x,y,-z
-x,-y,-z
x,y,-z
-x,y,z
x,-y,z
1/2+x,1/2+y,z
1/2-x,1/2-y,z
1/2+x,1/2-y,-z
1/2-x,1/2+y,-z
1/2-x,1/2-y,-z
1/2+x,1/2+y,-z
1/2-x,1/2+y,z
1/2+x,1/2-y,z
loop_
_atom_site_type_symbol
_atom_site_label
_atom_site_fract_x
_atom_site_fract_y
_atom_site_fract_z
Si Si1 0.000000 0.612810 0.588745
Si Si2 0.349941 0.776351 0.678933
Si Si3 0.896814 0.890203 0.782881
Si Si4 0.728578 0.383721 0.082201
Si Si5 0.396202 0.115405 0.826717
O O1 0.913736 0.669059 0.621398
O O2 0.000000 0.500000 0.612698
O O3 0.000000 0.614923 0.500000
O O4 0.250000 0.750000 0.652659
O O5 0.389164 0.677175 0.711546
O O6 0.350720 0.843770 0.752238
O O7 0.835160 0.853031 0.850136
O O8 0.000000 0.890691 0.808100
O O9 0.870176 0.000000 0.765685
O O10 0.721592 0.500000 0.081071
O O11 0.831065 0.360360 0.104887
O O12 0.704776 0.349623 0.000000
O O13 0.500000 0.149503 0.831427
O O14 0.398586 0.000000 0.821595
#
# Coordination Sequence:
#
# PCOD9487087 Si02
#       5
#     8  16  16  16  16
#     4  11  26  48  73 103 136 165 197 249 319 386
#     4  12  22  37  67  96 125 161 212 257 307 376
#     4  10  20  35  56  84 118 162 214 261 312 371
#     4   9  18  32  51  81 122 164 213 276 331 370
#     4  10  19  33  56  85 118 163 217 266 320 381
#
# _framework density 19.316262999999999
#
# number of rings (size 3 to 8) (size 9 to 14) (size 15 to 20)
#    0.000    1.667    4.444    0.667    0.000    2.222 
#    0.000    6.667    0.000    4.000    0.000    0.000 
#    0.000    0.000    0.000    0.000    0.000    0.000 
#
# Total GULP energy -200956.702290 kJ/mol
# GULP energy per Si atom -5582.130619 kJ/mol
# Density = 1.927230 g / cm^3
# Si number density = 19.316263 Si / 1000 Ang^3
#
#
#
# Elastic Constant Matrix: (Units=GPa)
#
#
# Indices 1 2 3 4 5 6 
#
# 1 136.2203 31.8773 44.6693 0.0000 0.0000 0.0000
# 2 31.8773 118.0589 38.3999 0.0000 0.0000 0.0000
# 3 44.6693 38.3999 90.4164 0.0000 0.0000 0.0000
# 4 0.0000 0.0000 0.0000 21.2897 0.0000 0.0000
# 5 0.0000 0.0000 0.0000 0.0000 24.4266 0.0000
# 6 0.0000 0.0000 0.0000 0.0000 0.0000 20.8886
#
#
#
# Elastic Compliance Matrix: (Units=1/GPa)
#
#
# Indices 1 2 3 4 5 6 
#
# 1 0.008888 -0.001127 -0.003912 0.000000 0.000000 0.000000
# 2 -0.001127 0.009971 -0.003678 0.000000 0.000000 0.000000
# 3 -0.003912 -0.003678 0.014555 0.000000 0.000000 0.000000
# 4 0.000000 0.000000 0.000000 0.046971 0.000000 0.000000
# 5 0.000000 0.000000 0.000000 0.000000 0.040939 0.000000
# 6 0.000000 0.000000 0.000000 0.000000 0.000000 0.047873
#
#
# Mechanical properties :
#
#
# Convention : Reuss Voigt Hill
#
# Bulk Modulus (GPa) = 62.58230 63.84316 63.21273
# Shear Modulus (GPa) = 26.04751 28.63759 27.34255
#
# Velocity S-wave (km/s) = 3.67614 3.85458 3.76642
# Velocity P-wave (km/s) = 7.10548 7.27555 7.19102
#
# Compressibility (1/GPa) = 0.01597896
#
# Stress axis : x y z
#
# Youngs Moduli (GPa) = 112.51489 100.29123 68.70675
#
# Poissons Ratio (x) = 0.11306 0.26879
# Poissons Ratio (y) = 0.12684 0.25268
# Poissons Ratio (z) = 0.44017 0.36884
#
# Static dielectric constant tensor:
#      x y z
#    x 1.701120 0.000000 0.000000 
#    y 0.000000 1.741680 0.000000 
#    z 0.000000 0.000000 1.623170 
# 
# From -- ./inp_files/52726.got.cif
#   From: 2010.05.17/outbox.cif.g08.bks.cpg/sg65_27_cif.got.tgz:52726.got - 2010.06.03 17:01:31.
