data_PCOD9487963
_publ_section_title
;
Structure prediction by ZEFSAII (Michael W. Deem and Ramdas Pophale) SiO2 
 PCOD9487963
Probable space group: C M M M
;
_chemical_formula_sum "Si O2"
_cell_formula_units_Z 116
_cell_length_a 22.554338
_cell_length_b 26.378568
_cell_length_c 9.273447
_cell_angle_alpha 90.000000
_cell_angle_beta 90.000000
_cell_angle_gamma 90.000000
_cell_volume 5517.247852
_symmetry_space_group_name_H-M "C M M M"
_symmetry_group_IT_number 65
_symmetry_cell_setting 'orthorhombic'
loop_
_space_group_symop_operation_xyz
x,y,z
-x,-y,z
x,-y,-z
-x,y,-z
-x,-y,-z
x,y,-z
-x,y,z
x,-y,z
1/2+x,1/2+y,z
1/2-x,1/2-y,z
1/2+x,1/2-y,-z
1/2-x,1/2+y,-z
1/2-x,1/2-y,-z
1/2+x,1/2+y,-z
1/2-x,1/2+y,z
1/2+x,1/2-y,z
loop_
_atom_site_type_symbol
_atom_site_label
_atom_site_fract_x
_atom_site_fract_y
_atom_site_fract_z
Si Si1 0.732667 0.000000 0.000000
Si Si2 0.747558 0.349274 0.336804
Si Si3 0.067216 0.699349 0.828085
Si Si4 0.429960 0.624196 0.831522
Si Si5 0.636393 0.285312 0.327290
Si Si6 0.934640 0.409678 0.328582
Si Si7 0.154082 0.941820 0.661714
Si Si8 0.827045 0.585441 0.158446
O O1 0.723483 0.955422 0.877395
O O2 0.770242 0.341380 0.500000
O O3 0.703810 0.303425 0.297477
O O4 0.705393 0.399347 0.338583
O O5 0.798761 0.364653 0.227559
O O6 0.114742 0.735229 0.752043
O O7 0.066965 0.644799 0.750875
O O8 0.000000 0.720591 0.806603
O O9 0.076276 0.696290 0.000000
O O10 0.500000 0.617985 0.812779
O O11 0.405032 0.669846 0.734456
O O12 0.393443 0.575200 0.780134
O O13 0.418009 0.635033 0.000000
O O14 0.630489 0.281293 0.500000
O O15 0.928371 0.403912 0.500000
O O16 0.877747 0.436644 0.261125
O O17 0.000000 0.432212 0.300534
O O18 0.127303 0.938430 0.500000
O O19 0.172683 0.000000 0.682299
O O20 0.853972 0.595093 0.000000
#
# Coordination Sequence:
#
# PCOD9487963 Si02
#       8
#     4  16  16  16  16  16  16  16
#     4   8  24  40  59  94 118 148 191 224 282 352
#     4   9  19  35  55  78 109 147 187 235 289 334
#     4  10  20  34  56  87 120 155 196 240 287 340
#     4  10  20  32  45  65  96 135 178 229 288 339
#     4  10  20  34  52  78 111 149 193 239 283 333
#     4  10  21  39  64  91 119 154 191 228 276 334
#     4   9  19  33  49  70  94 128 176 228 284 345
#     4  10  21  39  60  87 118 148 185 230 279 341
#
# _framework density 21.024975999999999
#
# number of rings (size 3 to 8) (size 9 to 14) (size 15 to 20)
#    0.414    1.931    0.000    3.310    0.966    7.724 
#    0.000    3.793    0.000    4.966    0.000    0.000 
#    0.000    0.000    0.000    0.000    0.000    0.000 
#
# Total GULP energy -322993.266869 kJ/mol
# GULP energy per Si atom -5568.849429 kJ/mol
# Density = 2.097712 g / cm^3
# Si number density = 21.024976 Si / 1000 Ang^3
#
#
#
# Elastic Constant Matrix: (Units=GPa)
#
#
# Indices 1 2 3 4 5 6 
#
# 1 38.9644 -2.1321 44.0694 0.0000 0.0000 0.0000
# 2 -2.1321 53.7313 5.8870 0.0000 0.0000 0.0000
# 3 44.0694 5.8870 107.9415 0.0000 0.0000 0.0000
# 4 0.0000 0.0000 0.0000 49.2047 0.0000 0.0000
# 5 0.0000 0.0000 0.0000 0.0000 22.8854 0.0000
# 6 0.0000 0.0000 0.0000 0.0000 0.0000 5.2065
#
#
#
# Elastic Compliance Matrix: (Units=1/GPa)
#
#
# Indices 1 2 3 4 5 6 
#
# 1 0.048574 0.004125 -0.020056 0.000000 0.000000 0.000000
# 2 0.004125 0.019073 -0.002724 0.000000 0.000000 0.000000
# 3 -0.020056 -0.002724 0.017601 0.000000 0.000000 0.000000
# 4 0.000000 0.000000 0.000000 0.020323 0.000000 0.000000
# 5 0.000000 0.000000 0.000000 0.000000 0.043696 0.000000
# 6 0.000000 0.000000 0.000000 0.000000 0.000000 0.192068
#
#
# Mechanical properties :
#
#
# Convention : Reuss Voigt Hill
#
# Bulk Modulus (GPa) = 20.86061 32.92066 26.89063
# Shear Modulus (GPa) = 12.67019 25.64684 19.15851
#
# Velocity S-wave (km/s) = 2.45751 3.49639 3.02193
# Velocity P-wave (km/s) = 4.24215 5.65611 4.99937
#
# Compressibility (1/GPa) = 0.04793724
#
# Stress axis : x y z
#
# Youngs Moduli (GPa) = 20.58699 52.42930 56.81389
#
# Poissons Ratio (x) = -0.21627 1.13949
# Poissons Ratio (y) = -0.08492 0.15478
# Poissons Ratio (z) = 0.41290 0.14283
#
# Static dielectric constant tensor:
#      x y z
#    x 1.805190 0.000000 0.000000 
#    y 0.000000 1.765990 0.000000 
#    z 0.000000 0.000000 1.741530 
# 
# From -- ./inp_files/15149.got.cif
#   From: 2010.05.17/outbox.cif.g08.bks.cpg/sg65_8_cif.got.tgz:15149.got - 2010.06.03 17:01:31.
