data_PCOD9487325
_publ_section_title
;
Structure prediction by ZEFSAII (Michael W. Deem and Ramdas Pophale) SiO2 
 PCOD9487325
Probable space group: C M M M
;
_chemical_formula_sum "Si O2"
_cell_formula_units_Z 96
_cell_length_a 24.207431
_cell_length_b 25.466028
_cell_length_c 8.839892
_cell_angle_alpha 90.000000
_cell_angle_beta 90.000000
_cell_angle_gamma 90.000000
_cell_volume 5449.502724
_symmetry_space_group_name_H-M "C M M M"
_symmetry_group_IT_number 65
_symmetry_cell_setting 'orthorhombic'
loop_
_space_group_symop_operation_xyz
x,y,z
-x,-y,z
x,-y,-z
-x,y,-z
-x,-y,-z
x,y,-z
-x,y,z
x,-y,z
1/2+x,1/2+y,z
1/2-x,1/2-y,z
1/2+x,1/2-y,-z
1/2-x,1/2+y,-z
1/2-x,1/2-y,-z
1/2+x,1/2+y,-z
1/2-x,1/2+y,z
1/2+x,1/2-y,z
loop_
_atom_site_type_symbol
_atom_site_label
_atom_site_fract_x
_atom_site_fract_y
_atom_site_fract_z
Si Si1 0.500000 0.185366 0.683917
Si Si2 0.000000 0.808012 0.317938
Si Si3 0.380543 0.852700 0.681673
Si Si4 0.613728 0.347556 0.179764
Si Si5 0.302707 0.938616 0.819953
Si Si6 0.316176 0.561911 0.320074
Si Si7 0.185390 0.245072 0.680776
O O1 0.500000 0.185485 0.500000
O O2 0.500000 0.246534 0.729199
O O3 0.556530 0.157491 0.731957
O O4 0.945023 0.834858 0.254997
O O5 0.000000 0.809710 0.500000
O O6 0.380073 0.860610 0.500000
O O7 0.350704 0.901152 0.760493
O O8 0.345955 0.799600 0.712137
O O9 0.639222 0.401846 0.239219
O O10 0.655684 0.301766 0.231932
O O11 0.608562 0.348027 0.000000
O O12 0.244932 0.924129 0.740101
O O13 0.313754 0.000000 0.785856
O O14 0.296194 0.933207 0.000000
O O15 0.318194 0.570367 0.500000
O O16 0.324602 0.500000 0.289506
O O17 0.180611 0.234811 0.500000
O O18 0.250000 0.250000 0.717844
#
# Coordination Sequence:
#
# PCOD9487325 Si02
#       7
#     8   8  16  16  16  16  16
#     4   9  18  35  58  81 106 148 196 238 282 327
#     4  11  21  41  64  81 112 157 200 237 279 338
#     4  10  19  34  56  82 111 147 195 240 282 336
#     4  12  24  37  57  88 121 150 187 235 291 345
#     4  10  21  37  57  84 118 152 185 231 294 350
#     4  10  21  39  63  87 112 150 196 236 280 338
#     4  10  20  34  55  83 114 150 190 234 284 341
#
# _framework density 17.616285999999999
#
# number of rings (size 3 to 8) (size 9 to 14) (size 15 to 20)
#    0.000    1.667    1.667    3.750    0.000    4.333 
#    0.000    1.250    0.000    5.000    0.000    0.000 
#    0.000    0.000    0.000    0.000    0.000    0.000 
#
# Total GULP energy -268222.441443 kJ/mol
# GULP energy per Si atom -5587.967530 kJ/mol
# Density = 1.757619 g / cm^3
# Si number density = 17.616286 Si / 1000 Ang^3
#
#
#
# Elastic Constant Matrix: (Units=GPa)
#
#
# Indices 1 2 3 4 5 6 
#
# 1 162.6454 75.0237 64.9881 0.0000 0.0000 0.0000
# 2 75.0237 82.4314 54.5816 0.0000 0.0000 0.0000
# 3 64.9881 54.5816 71.5663 0.0000 0.0000 0.0000
# 4 0.0000 0.0000 0.0000 25.4317 0.0000 0.0000
# 5 0.0000 0.0000 0.0000 0.0000 -0.9784 0.0000
# 6 0.0000 0.0000 0.0000 0.0000 0.0000 18.0565
#
#
#
# Elastic Compliance Matrix: (Units=1/GPa)
#
#
# Indices 1 2 3 4 5 6 
#
# 1 0.011397 -0.007111 -0.004926 0.000000 0.000000 0.000000
# 2 -0.007111 0.028944 -0.015618 0.000000 0.000000 0.000000
# 3 -0.004926 -0.015618 0.030357 0.000000 0.000000 0.000000
# 4 0.000000 0.000000 0.000000 0.039321 0.000000 0.000000
# 5 0.000000 0.000000 0.000000 0.000000 -1.022098 0.000000
# 6 0.000000 0.000000 0.000000 0.000000 0.000000 0.055382
#
#
# Mechanical properties :
#
#
# Convention : Reuss Voigt Hill
#
# Bulk Modulus (GPa) = 64.97984 78.42555 71.70269
# Shear Modulus (GPa) = -6.27937 16.63861 5.17962
#
# Velocity S-wave (km/s) = -1.89004 3.07661 1.71657
# Velocity P-wave (km/s) = 5.67479 7.56546 6.68728
#
# Compressibility (1/GPa) = 0.01538939
#
# Stress axis : x y z
#
# Youngs Moduli (GPa) = 87.74585 34.54898 32.94091
#
# Poissons Ratio (x) = 0.24567 0.16226
# Poissons Ratio (y) = 0.62394 0.51447
# Poissons Ratio (z) = 0.43222 0.53958
#
# Static dielectric constant tensor:
#      x y z
#    x 1.577830 0.000000 0.000000 
#    y 0.000000 1.582040 0.000000 
#    z 0.000000 0.000000 1.588370 
# 
# From -- ./inp_files/14383.got.cif
#   From: 2010.05.17/outbox.cif.g08.bks.cpg/sg65_8_cif.got.tgz:14383.got - 2010.06.03 17:01:31.
