data_PCOD9487481
_publ_section_title
;
Structure prediction by ZEFSAII (Michael W. Deem and Ramdas Pophale) SiO2 
 PCOD9487481
Probable space group: C M M M
;
_chemical_formula_sum "Si O2"
_cell_formula_units_Z 88
_cell_length_a 8.782308
_cell_length_b 32.615731
_cell_length_c 16.798056
_cell_angle_alpha 90.000000
_cell_angle_beta 90.000000
_cell_angle_gamma 90.000000
_cell_volume 4811.658599
_symmetry_space_group_name_H-M "C M M M"
_symmetry_group_IT_number 65
_symmetry_cell_setting 'orthorhombic'
loop_
_space_group_symop_operation_xyz
x,y,z
-x,-y,z
x,-y,-z
-x,y,-z
-x,-y,-z
x,y,-z
-x,y,z
x,-y,z
1/2+x,1/2+y,z
1/2-x,1/2-y,z
1/2+x,1/2-y,-z
1/2-x,1/2+y,-z
1/2-x,1/2-y,-z
1/2+x,1/2+y,-z
1/2-x,1/2+y,z
1/2+x,1/2-y,z
loop_
_atom_site_type_symbol
_atom_site_label
_atom_site_fract_x
_atom_site_fract_y
_atom_site_fract_z
Si Si1 0.679418 0.206099 0.904431
Si Si2 0.677841 0.058897 0.413509
Si Si3 0.184348 0.545549 0.234056
Si Si4 0.676893 0.152039 0.636214
Si Si5 0.319503 0.294454 0.500000
Si Si6 0.181441 0.131739 0.194450
O O1 0.500000 0.206002 0.885570
O O2 0.750000 0.250000 0.877959
O O3 0.755415 0.165777 0.866469
O O4 0.697486 0.204190 0.000000
O O5 0.744303 0.046972 0.500000
O O6 0.500000 0.046370 0.414547
O O7 0.738848 0.045599 0.327015
O O8 0.680614 0.107945 0.406755
O O9 0.217410 0.500000 0.201231
O O10 0.252889 0.585131 0.189804
O O11 0.000000 0.550794 0.236036
O O12 0.500000 0.162632 0.649927
O O13 0.757521 0.183126 0.578017
O O14 0.762448 0.147171 0.719280
O O15 0.500000 0.294164 0.500000
O O16 0.250000 0.250000 0.500000
O O17 0.000000 0.130100 0.189838
#
# Coordination Sequence:
#
# PCOD9487481 Si02
#       6
#    16  16  16  16   8  16
#     4  10  21  39  64  93 122 149 179 221 275 338
#     4   8  13  24  46  72  96 128 174 227 280 327
#     4   9  18  32  51  77 110 150 196 242 287 339
#     4  10  19  35  54  73 100 139 186 232 278 329
#     4  12  24  36  50  72 101 136 181 232 288 340
#     4  11  22  36  57  85 116 153 191 231 283 337
#
# _framework density 18.288912
#
# number of rings (size 3 to 8) (size 9 to 14) (size 15 to 20)
#    0.000    2.182    0.909    4.636    0.000    2.545 
#    0.000    5.455    0.000    0.545    0.000    6.364 
#    0.000    0.000    0.000    0.000    0.000    0.000 
#
# Total GULP energy -245305.017842 kJ/mol
# GULP energy per Si atom -5575.114042 kJ/mol
# Density = 1.824729 g / cm^3
# Si number density = 18.288912 Si / 1000 Ang^3
#
#
#
# Elastic Constant Matrix: (Units=GPa)
#
#
# Indices 1 2 3 4 5 6 
#
# 1 114.5490 84.9341 39.5423 0.0000 0.0000 0.0000
# 2 84.9341 177.0593 43.7081 0.0000 0.0000 0.0000
# 3 39.5423 43.7081 37.3052 0.0000 0.0000 0.0000
# 4 0.0000 0.0000 0.0000 48.0465 0.0000 0.0000
# 5 0.0000 0.0000 0.0000 0.0000 22.8134 0.0000
# 6 0.0000 0.0000 0.0000 0.0000 0.0000 16.0630
#
#
#
# Elastic Compliance Matrix: (Units=1/GPa)
#
#
# Indices 1 2 3 4 5 6 
#
# 1 0.016449 -0.005046 -0.011524 0.000000 0.000000 0.000000
# 2 -0.005046 0.009494 -0.005775 0.000000 0.000000 0.000000
# 3 -0.011524 -0.005775 0.045787 0.000000 0.000000 0.000000
# 4 0.000000 0.000000 0.000000 0.020813 0.000000 0.000000
# 5 0.000000 0.000000 0.000000 0.000000 0.043834 0.000000
# 6 0.000000 0.000000 0.000000 0.000000 0.000000 0.062255
#
#
# Mechanical properties :
#
#
# Convention : Reuss Voigt Hill
#
# Bulk Modulus (GPa) = 36.98105 73.92027 55.45066
# Shear Modulus (GPa) = 19.81497 28.09984 23.95741
#
# Velocity S-wave (km/s) = 3.29514 3.92400 3.62324
# Velocity P-wave (km/s) = 5.89420 7.81257 6.92018
#
# Compressibility (1/GPa) = 0.02704087
#
# Stress axis : x y z
#
# Youngs Moduli (GPa) = 60.79317 105.33130 21.84040
#
# Poissons Ratio (x) = 0.53149 0.25168
# Poissons Ratio (y) = 0.30675 0.12613
# Poissons Ratio (z) = 0.70056 0.60827
#
# Static dielectric constant tensor:
#      x y z
#    x 1.614860 0.000000 0.000000 
#    y 0.000000 1.640970 0.000000 
#    z 0.000000 0.000000 1.620720 
# 
# From -- ./inp_files/50446.got.cif
#   From: 2010.05.17/outbox.cif.g08.bks.cpg/sg65_26_cif.got.tgz:50446.got - 2010.06.03 17:01:31.
