data_PCOD9487131
_publ_section_title
;
Structure prediction by ZEFSAII (Michael W. Deem and Ramdas Pophale) SiO2 
 PCOD9487131
Probable space group: C M M M
;
_chemical_formula_sum "Si O2"
_cell_formula_units_Z 120
_cell_length_a 18.327830
_cell_length_b 21.125609
_cell_length_c 19.087758
_cell_angle_alpha 90.000000
_cell_angle_beta 90.000000
_cell_angle_gamma 90.000000
_cell_volume 7390.523557
_symmetry_space_group_name_H-M "C M M M"
_symmetry_group_IT_number 65
_symmetry_cell_setting 'orthorhombic'
loop_
_space_group_symop_operation_xyz
x,y,z
-x,-y,z
x,-y,-z
-x,y,-z
-x,-y,-z
x,y,-z
-x,y,z
x,-y,z
1/2+x,1/2+y,z
1/2-x,1/2-y,z
1/2+x,1/2-y,-z
1/2-x,1/2+y,-z
1/2-x,1/2-y,-z
1/2+x,1/2+y,-z
1/2-x,1/2+y,z
1/2+x,1/2-y,z
loop_
_atom_site_type_symbol
_atom_site_label
_atom_site_fract_x
_atom_site_fract_y
_atom_site_fract_z
Si Si1 0.084148 0.000000 0.583581
Si Si2 0.914145 0.799997 0.171452
Si Si3 0.177910 0.111885 0.648371
Si Si4 0.307328 0.071957 0.082259
Si Si5 0.174718 0.927077 0.808119
Si Si6 0.416160 0.184449 0.916420
Si Si7 0.913702 0.761229 0.329502
Si Si8 0.697238 0.188078 0.580624
O O1 0.129939 0.059475 0.610257
O O2 0.081463 0.000000 0.500000
O O3 0.000000 0.000000 0.609879
O O4 0.878343 0.868989 0.172517
O O5 0.886415 0.750326 0.114141
O O6 0.904352 0.763783 0.245571
O O7 0.000000 0.809605 0.160693
O O8 0.194853 0.088538 0.727350
O O9 0.125794 0.173564 0.648784
O O10 0.252312 0.131752 0.609760
O O11 0.240765 0.076183 0.136560
O O12 0.366637 0.124564 0.101687
O O13 0.336528 0.000000 0.086403
O O14 0.285687 0.081809 0.000000
O O15 0.146151 0.000000 0.810411
O O16 0.500000 0.176512 0.891492
O O17 0.417812 0.188485 0.000000
O O18 0.870122 0.705801 0.369015
O O19 0.000000 0.761094 0.345204
O O20 0.675079 0.177659 0.500000
O O21 0.750000 0.250000 0.581612
#
# Coordination Sequence:
#
# PCOD9487131 Si02
#       8
#     8  16  16  16  16  16  16  16
#     4  11  22  34  52  78 106 136 170 213 262 308
#     4   9  19  33  49  73 102 133 171 215 258 304
#     4  10  19  34  50  73 104 136 172 210 255 313
#     4   9  19  34  52  77 108 135 169 215 257 304
#     4  10  20  34  51  73  98 138 177 212 257 305
#     4   9  18  33  53  77 105 136 168 208 260 313
#     4   9  18  32  50  73 100 132 168 212 259 302
#     4   9  18  31  48  70  98 131 165 204 253 311
#
# _framework density 16.237009
#
# number of rings (size 3 to 8) (size 9 to 14) (size 15 to 20)
#    0.000    2.600    0.667    0.800    1.867    2.933 
#    0.000    2.667    0.000    0.000    0.000    4.200 
#    0.000    1.600    0.000    0.000    0.000    0.000 
#
# Total GULP energy -334033.022871 kJ/mol
# GULP energy per Si atom -5567.217048 kJ/mol
# Density = 1.620005 g / cm^3
# Si number density = 16.237009 Si / 1000 Ang^3
#
#
#
# Elastic Constant Matrix: (Units=GPa)
#
#
# Indices 1 2 3 4 5 6 
#
# 1 74.7494 54.7788 42.6169 0.0000 0.0000 0.0000
# 2 54.7788 111.0509 49.9987 0.0000 0.0000 0.0000
# 3 42.6169 49.9987 50.6561 0.0000 0.0000 0.0000
# 4 0.0000 0.0000 0.0000 22.0354 0.0000 0.0000
# 5 0.0000 0.0000 0.0000 0.0000 23.1460 0.0000
# 6 0.0000 0.0000 0.0000 0.0000 0.0000 26.2114
#
#
#
# Elastic Compliance Matrix: (Units=1/GPa)
#
#
# Indices 1 2 3 4 5 6 
#
# 1 0.027567 -0.005681 -0.017585 0.000000 0.000000 0.000000
# 2 -0.005681 0.017378 -0.012373 0.000000 0.000000 0.000000
# 3 -0.017585 -0.012373 0.046748 0.000000 0.000000 0.000000
# 4 0.000000 0.000000 0.000000 0.045382 0.000000 0.000000
# 5 0.000000 0.000000 0.000000 0.000000 0.043204 0.000000
# 6 0.000000 0.000000 0.000000 0.000000 0.000000 0.038151
#
#
# Mechanical properties :
#
#
# Convention : Reuss Voigt Hill
#
# Bulk Modulus (GPa) = 48.98409 59.02725 54.00567
# Shear Modulus (GPa) = 16.86275 20.21601 18.53938
#
# Velocity S-wave (km/s) = 3.22613 3.53237 3.38272
# Velocity P-wave (km/s) = 6.64160 7.28486 6.97066
#
# Compressibility (1/GPa) = 0.02041479
#
# Stress axis : x y z
#
# Youngs Moduli (GPa) = 36.27554 57.54453 21.39146
#
# Poissons Ratio (x) = 0.32690 0.37617
# Poissons Ratio (y) = 0.20607 0.26468
# Poissons Ratio (z) = 0.63790 0.71200
#
# Static dielectric constant tensor:
#      x y z
#    x 1.530240 0.000000 0.000000 
#    y 0.000000 1.543980 0.000000 
#    z 0.000000 0.000000 1.557000 
# 
# From -- ./inp_files/54994.got.cif
#   From: 2010.05.17/outbox.cif.g08.bks.cpg/sg65_28_cif.got.tgz:54994.got - 2010.06.03 17:01:31.
