data_PCOD9487604
_publ_section_title
;
Structure prediction by ZEFSAII (Michael W. Deem and Ramdas Pophale) SiO2 
 PCOD9487604
Probable space group: C M M M
;
_chemical_formula_sum "Si O2"
_cell_formula_units_Z 88
_cell_length_a 11.723980
_cell_length_b 19.088586
_cell_length_c 17.578934
_cell_angle_alpha 90.000000
_cell_angle_beta 90.000000
_cell_angle_gamma 90.000000
_cell_volume 3934.063480
_symmetry_space_group_name_H-M "C M M M"
_symmetry_group_IT_number 65
_symmetry_cell_setting 'orthorhombic'
loop_
_space_group_symop_operation_xyz
x,y,z
-x,-y,z
x,-y,-z
-x,y,-z
-x,-y,-z
x,y,-z
-x,y,z
x,-y,z
1/2+x,1/2+y,z
1/2-x,1/2-y,z
1/2+x,1/2-y,-z
1/2-x,1/2+y,-z
1/2-x,1/2-y,-z
1/2+x,1/2+y,-z
1/2-x,1/2+y,z
1/2+x,1/2-y,z
loop_
_atom_site_type_symbol
_atom_site_label
_atom_site_fract_x
_atom_site_fract_y
_atom_site_fract_z
Si Si1 0.376210 0.083135 0.789431
Si Si2 0.624100 0.277202 0.149969
Si Si3 0.279241 0.583663 0.647225
Si Si4 0.698343 0.580332 0.909588
Si Si5 0.373327 0.916061 0.500000
Si Si6 0.876350 0.223762 0.667093
O O1 0.500000 0.115135 0.780273
O O2 0.290085 0.103777 0.723616
O O3 0.322224 0.092936 0.871926
O O4 0.386374 0.000000 0.778985
O O5 0.500000 0.249096 0.121597
O O6 0.750000 0.250000 0.122526
O O7 0.624761 0.359105 0.127874
O O8 0.624773 0.268425 0.241088
O O9 0.307504 0.500000 0.648712
O O10 0.197527 0.598161 0.575789
O O11 0.376806 0.641250 0.646004
O O12 0.665081 0.500000 0.889955
O O13 0.698331 0.586574 0.000000
O O14 0.500000 0.885221 0.500000
O O15 0.385434 0.000000 0.500000
O O16 0.750000 0.250000 0.640234
O O17 0.000000 0.254065 0.640844
#
# Coordination Sequence:
#
# PCOD9487604 Si02
#       6
#    16  16  16  16   8  16
#     4   9  17  30  51  81 117 158 199 240 293 355
#     4  10  22  41  62  88 121 159 204 252 305 365
#     4  10  19  35  60  91 122 157 203 253 303 360
#     4  10  21  37  57  86 122 157 200 254 306 357
#     4   9  18  32  54  91 134 167 199 247 306 365
#     4  10  22  40  62  91 125 162 204 253 307 364
#
# _framework density 22.368728999999998
#
# number of rings (size 3 to 8) (size 9 to 14) (size 15 to 20)
#    0.000    2.273    1.818    0.545    0.000    6.182 
#    0.000    5.455    0.000    1.636    0.000    0.000 
#    0.000    0.000    0.000    0.000    0.000    0.000 
#
# Total GULP energy -245174.610183 kJ/mol
# GULP energy per Si atom -5572.150231 kJ/mol
# Density = 2.231782 g / cm^3
# Si number density = 22.368729 Si / 1000 Ang^3
#
#
#
# Elastic Constant Matrix: (Units=GPa)
#
#
# Indices 1 2 3 4 5 6 
#
# 1 184.7178 52.4042 8.3509 0.0000 0.0000 0.0000
# 2 52.4042 101.9444 21.8693 0.0000 0.0000 0.0000
# 3 8.3509 21.8693 27.7732 0.0000 0.0000 0.0000
# 4 0.0000 0.0000 0.0000 18.0148 0.0000 0.0000
# 5 0.0000 0.0000 0.0000 0.0000 15.3062 0.0000
# 6 0.0000 0.0000 0.0000 0.0000 0.0000 19.5682
#
#
#
# Elastic Compliance Matrix: (Units=1/GPa)
#
#
# Indices 1 2 3 4 5 6 
#
# 1 0.006353 -0.003436 0.000796 0.000000 0.000000 0.000000
# 2 -0.003436 0.013662 -0.009724 0.000000 0.000000 0.000000
# 3 0.000796 -0.009724 0.043424 0.000000 0.000000 0.000000
# 4 0.000000 0.000000 0.000000 0.055510 0.000000 0.000000
# 5 0.000000 0.000000 0.000000 0.000000 0.065333 0.000000
# 6 0.000000 0.000000 0.000000 0.000000 0.000000 0.051103
#
#
# Mechanical properties :
#
#
# Convention : Reuss Voigt Hill
#
# Bulk Modulus (GPa) = 25.83424 53.29825 39.56624
# Shear Modulus (GPa) = 18.31385 26.03189 22.17287
#
# Velocity S-wave (km/s) = 2.86444 3.41510 3.15182
# Velocity P-wave (km/s) = 4.74493 6.27928 5.56524
#
# Compressibility (1/GPa) = 0.03870832
#
# Stress axis : x y z
#
# Youngs Moduli (GPa) = 157.41742 73.19715 23.02878
#
# Poissons Ratio (x) = 0.25152 -0.01832
# Poissons Ratio (y) = 0.54092 0.22394
# Poissons Ratio (z) = -0.12525 0.71180
#
# Static dielectric constant tensor:
#      x y z
#    x 1.925990 0.000000 0.000000 
#    y 0.000000 1.907460 0.000000 
#    z 0.000000 0.000000 1.761120 
# 
# From -- ./inp_files/51429.got.cif
#   From: 2010.05.17/outbox.cif.g08.bks.cpg/sg65_26_cif.got.tgz:51429.got - 2010.06.03 17:01:31.
