data_PCOD9487770
_publ_section_title
;
Structure prediction by ZEFSAII (Michael W. Deem and Ramdas Pophale) SiO2 
 PCOD9487770
Probable space group: C M M M
;
_chemical_formula_sum "Si O2"
_cell_formula_units_Z 120
_cell_length_a 28.490597
_cell_length_b 18.441406
_cell_length_c 13.919407
_cell_angle_alpha 90.000000
_cell_angle_beta 90.000000
_cell_angle_gamma 90.000000
_cell_volume 7313.349231
_symmetry_space_group_name_H-M "C M M M"
_symmetry_group_IT_number 65
_symmetry_cell_setting 'orthorhombic'
loop_
_space_group_symop_operation_xyz
x,y,z
-x,-y,z
x,-y,-z
-x,y,-z
-x,-y,-z
x,y,-z
-x,y,z
x,-y,z
1/2+x,1/2+y,z
1/2-x,1/2-y,z
1/2+x,1/2-y,-z
1/2-x,1/2+y,-z
1/2-x,1/2-y,-z
1/2+x,1/2+y,-z
1/2-x,1/2+y,z
1/2+x,1/2-y,z
loop_
_atom_site_type_symbol
_atom_site_label
_atom_site_fract_x
_atom_site_fract_y
_atom_site_fract_z
Si Si1 0.946567 0.338771 0.117241
Si Si2 0.213462 0.418458 0.884768
Si Si3 0.443269 0.000000 0.892122
Si Si4 0.948837 0.088359 0.693147
Si Si5 0.090386 0.085959 0.893954
Si Si6 0.650766 0.782061 0.115328
Si Si7 0.850059 0.087757 0.607783
Si Si8 0.687488 0.635587 0.193327
O O1 0.933354 0.420854 0.150839
O O2 0.904158 0.285380 0.143149
O O3 0.000000 0.321134 0.147172
O O4 0.947052 0.342386 0.000000
O O5 0.201097 0.500000 0.854378
O O6 0.174160 0.359177 0.862562
O O7 0.262910 0.394189 0.840761
O O8 0.218966 0.418388 0.000000
O O9 0.500000 0.000000 0.901109
O O10 0.422033 0.000000 0.000000
O O11 0.939421 0.112737 0.803084
O O12 0.904144 0.109001 0.629726
O O13 0.000000 0.112479 0.659750
O O14 0.948911 0.000000 0.694160
O O15 0.144587 0.096982 0.863987
O O16 0.081567 0.000000 0.899727
O O17 0.081166 0.117639 0.000000
O O18 0.679449 0.719292 0.167354
O O19 0.653825 0.770272 0.000000
O O20 0.836617 0.108772 0.500000
O O21 0.820200 0.120263 0.694464
O O22 0.847485 0.000000 0.614843
#
# Coordination Sequence:
#
# PCOD9487770 Si02
#       8
#    16  16   8  16  16  16  16  16
#     4   8  14  25  41  61  88 124 162 196 229 264
#     4  10  20  32  48  69  93 125 165 202 231 267
#     4   7  10  18  36  58  78 110 155 195 225 253
#     4   8  14  24  38  59  86 113 145 191 242 280
#     4   9  16  25  39  58  82 117 159 193 218 261
#     4  10  20  30  44  68  99 131 161 193 230 276
#     4   9  18  32  50  69  85 108 151 203 248 293
#     4  11  19  31  47  65  92 123 153 188 239 287
#
# _framework density 16.408351
#
# number of rings (size 3 to 8) (size 9 to 14) (size 15 to 20)
#    0.000    2.867    0.000    4.400    0.933    2.667 
#    0.000    5.333    0.000    4.800    0.000    0.000 
#    0.000    0.000    0.000    0.000    0.000    3.733 
#
# Total GULP energy -334202.429568 kJ/mol
# GULP energy per Si atom -5570.040493 kJ/mol
# Density = 1.637100 g / cm^3
# Si number density = 16.408351 Si / 1000 Ang^3
#
#
#
# Elastic Constant Matrix: (Units=GPa)
#
#
# Indices 1 2 3 4 5 6 
#
# 1 39.8573 12.9393 -2.3085 0.0000 0.0000 0.0000
# 2 12.9393 64.4360 22.2722 0.0000 0.0000 0.0000
# 3 -2.3085 22.2722 38.3741 0.0000 0.0000 0.0000
# 4 0.0000 0.0000 0.0000 7.0690 0.0000 0.0000
# 5 0.0000 0.0000 0.0000 0.0000 5.4532 0.0000
# 6 0.0000 0.0000 0.0000 0.0000 0.0000 1271.5197
#
#
#
# Elastic Compliance Matrix: (Units=1/GPa)
#
#
# Indices 1 2 3 4 5 6 
#
# 1 0.027964 -0.007752 0.006182 0.000000 0.000000 0.000000
# 2 -0.007752 0.021563 -0.012981 0.000000 0.000000 0.000000
# 3 0.006182 -0.012981 0.033965 0.000000 0.000000 0.000000
# 4 0.000000 0.000000 0.000000 0.141462 0.000000 0.000000
# 5 0.000000 0.000000 0.000000 0.000000 0.183378 0.000000
# 6 0.000000 0.000000 0.000000 0.000000 0.000000 0.000786
#
#
# Mechanical properties :
#
#
# Convention : Reuss Voigt Hill
#
# Bulk Modulus (GPa) = 18.38618 23.16370 20.77494
# Shear Modulus (GPa) = 10.95643 264.12601 137.54122
#
# Velocity S-wave (km/s) = 2.58686 12.70118 9.16547
# Velocity P-wave (km/s) = 4.48912 15.14070 11.16676
#
# Compressibility (1/GPa) = 0.05438869
#
# Stress axis : x y z
#
# Youngs Moduli (GPa) = 35.76005 46.37580 29.44167
#
# Poissons Ratio (x) = 0.35951 -0.18199
# Poissons Ratio (y) = 0.27721 0.38219
# Poissons Ratio (z) = -0.22105 0.60202
#
# Static dielectric constant tensor:
#      x y z
#    x 1.568000 0.000000 0.000000 
#    y 0.000000 1.598480 0.000000 
#    z 0.000000 0.000000 1.531690 
# 
# From -- ./inp_files/47264.got.cif
#   From: 2010.05.17/outbox.cif.g08.bks.cpg/sg65_24_cif.got.tgz:47264.got - 2010.06.03 17:01:31.
