data_PCOD9487165
_publ_section_title
;
Structure prediction by ZEFSAII (Michael W. Deem and Ramdas Pophale) SiO2 
 PCOD9487165
Probable space group: C M M M
;
_chemical_formula_sum "Si O2"
_cell_formula_units_Z 64
_cell_length_a 7.452150
_cell_length_b 27.390936
_cell_length_c 18.901538
_cell_angle_alpha 90.000000
_cell_angle_beta 90.000000
_cell_angle_gamma 90.000000
_cell_volume 3858.207713
_symmetry_space_group_name_H-M "C M M M"
_symmetry_group_IT_number 65
_symmetry_cell_setting 'orthorhombic'
loop_
_space_group_symop_operation_xyz
x,y,z
-x,-y,z
x,-y,-z
-x,y,-z
-x,-y,-z
x,y,-z
-x,y,z
x,-y,z
1/2+x,1/2+y,z
1/2-x,1/2-y,z
1/2+x,1/2-y,-z
1/2-x,1/2+y,-z
1/2-x,1/2-y,-z
1/2+x,1/2+y,-z
1/2-x,1/2+y,z
1/2+x,1/2-y,z
loop_
_atom_site_type_symbol
_atom_site_label
_atom_site_fract_x
_atom_site_fract_y
_atom_site_fract_z
Si Si1 0.500000 0.055573 0.670986
Si Si2 0.790748 0.194408 0.686745
Si Si3 0.282002 0.443427 0.078506
Si Si4 0.000000 0.652558 0.583725
Si Si5 0.285643 0.400025 0.774030
O O1 0.500000 0.096317 0.609789
O O2 0.327749 0.066574 0.720601
O O3 0.500000 0.000000 0.646422
O O4 0.750000 0.250000 0.706809
O O5 0.670107 0.178482 0.620478
O O6 0.750908 0.155364 0.748697
O O7 0.000000 0.190100 0.669340
O O8 0.500000 0.442964 0.077320
O O9 0.228175 0.500000 0.089153
O O10 0.228336 0.411721 0.145914
O O11 0.221713 0.428002 0.000000
O O12 0.000000 0.656727 0.500000
O O13 0.500000 0.409112 0.768028
#
# Coordination Sequence:
#
# PCOD9487165 Si02
#       5
#     8  16  16   8  16
#     4  10  20  33  51  74  98 129 167 197 230 285
#     4  10  19  34  53  74  97 125 161 199 246 291
#     4   8  13  23  42  68  96 126 160 197 239 282
#     4  10  22  37  52  75 103 126 155 196 242 295
#     4   9  18  31  49  71  98 130 164 203 240 283
#
# _framework density 16.588011999999999
#
# number of rings (size 3 to 8) (size 9 to 14) (size 15 to 20)
#    0.000    2.750    1.250    1.500    0.000    2.750 
#    0.000    0.625    0.000    3.000    0.000    7.000 
#    0.000    0.000    0.000    0.000    0.000    0.000 
#
# Total GULP energy -178354.642408 kJ/mol
# GULP energy per Si atom -5573.582575 kJ/mol
# Density = 1.655026 g / cm^3
# Si number density = 16.588012 Si / 1000 Ang^3
#
#
#
# Elastic Constant Matrix: (Units=GPa)
#
#
# Indices 1 2 3 4 5 6 
#
# 1 70.8962 27.8229 34.3079 0.0000 0.0000 0.0000
# 2 27.8229 105.7242 50.3934 0.0000 0.0000 0.0000
# 3 34.3079 50.3934 136.3001 0.0000 0.0000 0.0000
# 4 0.0000 0.0000 0.0000 10.8507 0.0000 0.0000
# 5 0.0000 0.0000 0.0000 0.0000 11.3761 0.0000
# 6 0.0000 0.0000 0.0000 0.0000 0.0000 0.0882
#
#
#
# Elastic Compliance Matrix: (Units=1/GPa)
#
#
# Indices 1 2 3 4 5 6 
#
# 1 0.016770 -0.002915 -0.003143 0.000000 0.000000 0.000000
# 2 -0.002915 0.011989 -0.003699 0.000000 0.000000 0.000000
# 3 -0.003143 -0.003699 0.009496 0.000000 0.000000 0.000000
# 4 0.000000 0.000000 0.000000 0.092160 0.000000 0.000000
# 5 0.000000 0.000000 0.000000 0.000000 0.087904 0.000000
# 6 0.000000 0.000000 0.000000 0.000000 0.000000 11.335667
#
#
# Mechanical properties :
#
#
# Convention : Reuss Voigt Hill
#
# Bulk Modulus (GPa) = 53.36182 59.77432 56.56807
# Shear Modulus (GPa) = 0.43179 17.82274 9.12727
#
# Velocity S-wave (km/s) = 0.51075 3.28141 2.34825
# Velocity P-wave (km/s) = 5.70846 7.10421 6.44424
#
# Compressibility (1/GPa) = 0.01873999
#
# Stress axis : x y z
#
# Youngs Moduli (GPa) = 59.62929 83.41166 105.31281
#
# Poissons Ratio (x) = 0.24315 0.33105
# Poissons Ratio (y) = 0.17382 0.38953
# Poissons Ratio (z) = 0.18744 0.30852
#
# Static dielectric constant tensor:
#      x y z
#    x 1.592620 0.000000 0.000000 
#    y 0.000000 1.546830 0.000000 
#    z 0.000000 0.000000 1.537190 
# 
# From -- ./inp_files/49641.got.cif
#   From: 2010.05.17/outbox.cif.g08.bks.cpg/sg65_25_cif.got.tgz:49641.got - 2010.06.03 17:01:31.
