data_PCOD9487477
_publ_section_title
;
Structure prediction by ZEFSAII (Michael W. Deem and Ramdas Pophale) SiO2 
 PCOD9487477
Probable space group: C M M M
;
_chemical_formula_sum "Si O2"
_cell_formula_units_Z 104
_cell_length_a 24.893161
_cell_length_b 31.973340
_cell_length_c 7.297504
_cell_angle_alpha 90.000000
_cell_angle_beta 90.000000
_cell_angle_gamma 90.000000
_cell_volume 5808.211142
_symmetry_space_group_name_H-M "C M M M"
_symmetry_group_IT_number 65
_symmetry_cell_setting 'orthorhombic'
loop_
_space_group_symop_operation_xyz
x,y,z
-x,-y,z
x,-y,-z
-x,y,-z
-x,-y,-z
x,y,-z
-x,y,z
x,-y,z
1/2+x,1/2+y,z
1/2-x,1/2-y,z
1/2+x,1/2-y,-z
1/2-x,1/2+y,-z
1/2-x,1/2-y,-z
1/2+x,1/2+y,-z
1/2-x,1/2+y,z
1/2+x,1/2-y,z
loop_
_atom_site_type_symbol
_atom_site_label
_atom_site_fract_x
_atom_site_fract_y
_atom_site_fract_z
Si Si1 0.338393 0.396896 0.779042
Si Si2 0.889583 0.262985 0.500000
Si Si3 0.438427 0.175009 0.218391
Si Si4 0.336650 0.322466 0.500000
Si Si5 0.265452 0.952275 0.221882
Si Si6 0.560104 0.547851 0.222419
Si Si7 0.784047 0.682945 0.500000
Si Si8 0.835910 0.377693 0.781101
O O1 0.338997 0.353087 0.674812
O O2 0.287131 0.425466 0.725739
O O3 0.392068 0.421894 0.724518
O O4 0.337025 0.391778 0.000000
O O5 0.919533 0.283732 0.673490
O O6 0.881529 0.213461 0.500000
O O7 0.829691 0.282194 0.500000
O O8 0.500000 0.164891 0.265095
O O9 0.395818 0.138285 0.265352
O O10 0.435194 0.181603 0.000000
O O11 0.276924 0.303070 0.500000
O O12 0.317313 0.924292 0.271442
O O13 0.265154 0.000000 0.288143
O O14 0.264125 0.954348 0.000000
O O15 0.500000 0.560186 0.280717
O O16 0.569829 0.500000 0.280687
O O17 0.560051 0.547382 0.000000
O O18 0.796484 0.653771 0.324460
O O19 0.829315 0.373767 0.000000
#
# Coordination Sequence:
#
# PCOD9487477 Si02
#       8
#    16   8  16   8  16  16   8  16
#     4  10  20  34  51  72 104 139 172 208 254 306
#     4  10  22  36  54  78 103 130 167 214 262 307
#     4   9  18  35  59  81 102 133 174 216 257 308
#     4  12  23  35  51  75 102 133 169 208 259 313
#     4   9  16  28  49  75 106 143 174 206 251 300
#     4   8  14  28  51  73  93 126 173 216 251 292
#     4  10  19  35  53  72 101 135 167 208 256 306
#     4   9  17  31  52  79 107 136 173 212 254 302
#
# _framework density 17.905684000000001
#
# number of rings (size 3 to 8) (size 9 to 14) (size 15 to 20)
#    0.000    2.615    1.538    1.385    0.000    2.462 
#    0.000    4.615    0.000    7.846    0.000    3.231 
#    0.000    3.692    0.000    0.308    0.000    0.000 
#
# Total GULP energy -289898.676848 kJ/mol
# GULP energy per Si atom -5574.974555 kJ/mol
# Density = 1.786493 g / cm^3
# Si number density = 17.905684 Si / 1000 Ang^3
#
#
#
# Elastic Constant Matrix: (Units=GPa)
#
#
# Indices 1 2 3 4 5 6 
#
# 1 129.1192 63.1816 24.9270 0.0000 0.0000 0.0000
# 2 63.1816 122.9215 29.2877 0.0000 0.0000 0.0000
# 3 24.9270 29.2877 76.9410 0.0000 0.0000 0.0000
# 4 0.0000 0.0000 0.0000 25.2630 0.0000 0.0000
# 5 0.0000 0.0000 0.0000 0.0000 5.0791 0.0000
# 6 0.0000 0.0000 0.0000 0.0000 0.0000 16.2056
#
#
#
# Elastic Compliance Matrix: (Units=1/GPa)
#
#
# Indices 1 2 3 4 5 6 
#
# 1 0.010499 -0.005043 -0.001482 0.000000 0.000000 0.000000
# 2 -0.005043 0.011369 -0.002694 0.000000 0.000000 0.000000
# 3 -0.001482 -0.002694 0.014502 0.000000 0.000000 0.000000
# 4 0.000000 0.000000 0.000000 0.039584 0.000000 0.000000
# 5 0.000000 0.000000 0.000000 0.000000 0.196884 0.000000
# 6 0.000000 0.000000 0.000000 0.000000 0.000000 0.061707
#
#
# Mechanical properties :
#
#
# Convention : Reuss Voigt Hill
#
# Bulk Modulus (GPa) = 55.76324 62.64157 59.20241
# Shear Modulus (GPa) = 13.92914 23.41525 18.67220
#
# Velocity S-wave (km/s) = 2.79214 3.62014 3.23276
# Velocity P-wave (km/s) = 6.45020 7.24803 6.86072
#
# Compressibility (1/GPa) = 0.01793296
#
# Stress axis : x y z
#
# Youngs Moduli (GPa) = 95.25058 87.95563 68.95413
#
# Poissons Ratio (x) = 0.44359 0.10216
# Poissons Ratio (y) = 0.48038 0.18575
# Poissons Ratio (z) = 0.14112 0.23694
#
# Static dielectric constant tensor:
#      x y z
#    x 1.614760 0.000000 0.000000 
#    y 0.000000 1.592840 0.000000 
#    z 0.000000 0.000000 0.235370 
# 
# From -- ./inp_files/12880.got.cif
#   From: 2010.05.17/outbox.cif.g08.bks.cpg/sg65_7_cif.got.tgz:12880.got - 2010.06.03 17:01:31.
