data_PCOD9487014
_publ_section_title
;
Structure prediction by ZEFSAII (Michael W. Deem and Ramdas Pophale) SiO2 
 PCOD9487014
Probable space group: C M M M
;
_chemical_formula_sum "Si O2"
_cell_formula_units_Z 80
_cell_length_a 23.165653
_cell_length_b 8.148305
_cell_length_c 22.222257
_cell_angle_alpha 90.000000
_cell_angle_beta 90.000000
_cell_angle_gamma 90.000000
_cell_volume 4194.691146
_symmetry_space_group_name_H-M "C M M M"
_symmetry_group_IT_number 65
_symmetry_cell_setting 'orthorhombic'
loop_
_space_group_symop_operation_xyz
x,y,z
-x,-y,z
x,-y,-z
-x,y,-z
-x,-y,-z
x,y,-z
-x,y,z
x,-y,z
1/2+x,1/2+y,z
1/2-x,1/2-y,z
1/2+x,1/2-y,-z
1/2-x,1/2+y,-z
1/2-x,1/2-y,-z
1/2+x,1/2+y,-z
1/2-x,1/2+y,z
1/2+x,1/2-y,z
loop_
_atom_site_type_symbol
_atom_site_label
_atom_site_fract_x
_atom_site_fract_y
_atom_site_fract_z
Si Si1 0.000000 0.199868 0.569189
Si Si2 0.879136 0.801074 0.621015
Si Si3 0.815245 0.197261 0.500000
Si Si4 0.312150 0.807820 0.735457
Si Si5 0.064619 0.198923 0.071329
Si Si6 0.684490 0.308672 0.870355
O O1 0.056270 0.248493 0.605152
O O2 0.000000 0.257639 0.500000
O O3 0.000000 0.000000 0.565801
O O4 0.843461 0.745343 0.562316
O O5 0.857153 0.730261 0.683415
O O6 0.875392 0.000000 0.624713
O O7 0.750000 0.250000 0.500000
O O8 0.821536 0.000000 0.500000
O O9 0.250000 0.750000 0.711490
O O10 0.321633 0.717071 0.798605
O O11 0.309954 0.000000 0.748893
O O12 0.124944 0.261340 0.100534
O O13 0.000000 0.255813 0.092488
O O14 0.064224 0.000000 0.079133
O O15 0.067380 0.231908 0.000000
O O16 0.684694 0.500000 0.885237
O O17 0.750000 0.250000 0.886520
#
# Coordination Sequence:
#
# PCOD9487014 Si02
#       6
#     8  16   8  16  16  16
#     4   9  16  32  57  79 101 131 168 209 254 307
#     4  10  19  34  55  78 102 132 170 212 256 309
#     4  10  20  31  49  75 101 126 161 208 257 306
#     4  11  22  37  55  75 104 139 175 217 263 311
#     4   8  15  30  53  81 111 142 179 222 262 304
#     4  10  19  33  55  81 110 142 179 220 266 317
#
# _framework density 19.071726000000002
#
# number of rings (size 3 to 8) (size 9 to 14) (size 15 to 20)
#    0.000    2.300    1.000    4.800    0.000    2.800 
#    1.800    0.500    0.000    4.200    0.000    5.600 
#    0.000    0.000    0.000    0.000    0.000    0.000 
#
# Total GULP energy -222903.340559 kJ/mol
# GULP energy per Si atom -5572.583514 kJ/mol
# Density = 1.902832 g / cm^3
# Si number density = 19.071726 Si / 1000 Ang^3
#
#
#
# Elastic Constant Matrix: (Units=GPa)
#
#
# Indices 1 2 3 4 5 6 
#
# 1 199.6551 6.8405 68.8984 0.0000 0.0000 0.0000
# 2 6.8405 11.3663 -6.1194 0.0000 0.0000 0.0000
# 3 68.8984 -6.1194 52.0825 0.0000 0.0000 0.0000
# 4 0.0000 0.0000 0.0000 -1.4785 0.0000 0.0000
# 5 0.0000 0.0000 0.0000 0.0000 41.9051 0.0000
# 6 0.0000 0.0000 0.0000 0.0000 0.0000 21.8399
#
#
#
# Elastic Compliance Matrix: (Units=1/GPa)
#
#
# Indices 1 2 3 4 5 6 
#
# 1 0.011421 -0.016020 -0.016990 0.000000 0.000000 0.000000
# 2 -0.016020 0.116393 0.034868 0.000000 0.000000 0.000000
# 3 -0.016990 0.034868 0.045773 0.000000 0.000000 0.000000
# 4 0.000000 0.000000 0.000000 -0.676379 0.000000 0.000000
# 5 0.000000 0.000000 0.000000 0.000000 0.023863 0.000000
# 6 0.000000 0.000000 0.000000 0.000000 0.000000 0.045788
#
#
# Mechanical properties :
#
#
# Convention : Reuss Voigt Hill
#
# Bulk Modulus (GPa) = 5.64009 44.70477 25.17243
# Shear Modulus (GPa) = -13.23607 25.35227 6.05810
#
# Velocity S-wave (km/s) = -2.63728 3.64993 1.78420
# Velocity P-wave (km/s) = 2.51195 6.42292 4.17995
#
# Compressibility (1/GPa) = 0.17730209
#
# Stress axis : x y z
#
# Youngs Moduli (GPa) = 87.56051 8.59158 21.84686
#
# Poissons Ratio (x) = 0.13764 0.37119
# Poissons Ratio (y) = 1.40276 -0.76176
# Poissons Ratio (z) = 1.48769 -0.29957
#
# Static dielectric constant tensor:
#      x y z
#    x 1.724900 0.000000 0.000000 
#    y 0.000000 1.695820 0.000000 
#    z 0.000000 0.000000 1.623090 
# 
# From -- ./inp_files/70802.got.cif
#   From: 2010.05.17/outbox.cif.g08.bks.cpg/sg65_36_cif.got.tgz:70802.got - 2010.06.03 17:01:31.
