data_PCOD9487011
_publ_section_title
;
Structure prediction by ZEFSAII (Michael W. Deem and Ramdas Pophale) SiO2 
 PCOD9487011
Probable space group: C M M M
;
_chemical_formula_sum "Si O2"
_cell_formula_units_Z 96
_cell_length_a 18.160337
_cell_length_b 15.112142
_cell_length_c 18.277851
_cell_angle_alpha 90.000000
_cell_angle_beta 90.000000
_cell_angle_gamma 90.000000
_cell_volume 5016.202518
_symmetry_space_group_name_H-M "C M M M"
_symmetry_group_IT_number 65
_symmetry_cell_setting 'orthorhombic'
loop_
_space_group_symop_operation_xyz
x,y,z
-x,-y,z
x,-y,-z
-x,y,-z
-x,-y,-z
x,y,-z
-x,y,z
x,-y,z
1/2+x,1/2+y,z
1/2-x,1/2-y,z
1/2+x,1/2-y,-z
1/2-x,1/2+y,-z
1/2-x,1/2-y,-z
1/2+x,1/2+y,-z
1/2-x,1/2+y,z
1/2+x,1/2-y,z
loop_
_atom_site_type_symbol
_atom_site_label
_atom_site_fract_x
_atom_site_fract_y
_atom_site_fract_z
Si Si1 0.699195 0.161552 0.082569
Si Si2 0.084217 0.749966 0.181961
Si Si3 0.380003 0.600571 0.584108
Si Si4 0.419052 0.215434 0.349718
Si Si5 0.280381 0.896792 0.640917
Si Si6 0.797426 0.900502 0.208357
O O1 0.750000 0.250000 0.079482
O O2 0.623281 0.190000 0.120928
O O3 0.743360 0.100848 0.139019
O O4 0.690693 0.128227 0.000000
O O5 0.084739 0.704869 0.261941
O O6 0.134965 0.836429 0.191679
O O7 0.000000 0.770895 0.163473
O O8 0.403063 0.610738 0.500000
O O9 0.398861 0.500000 0.607846
O O10 0.411884 0.680537 0.631361
O O11 0.291273 0.608500 0.589853
O O12 0.500000 0.185181 0.374865
O O13 0.349083 0.163312 0.381031
O O14 0.248447 0.868678 0.720703
O O15 0.302684 0.000000 0.645906
O O16 0.822133 0.000000 0.224624
#
# Coordination Sequence:
#
# PCOD9487011 Si02
#       6
#    16  16  16  16  16  16
#     4   9  18  33  54  77 104 145 187 224 270 324
#     4  10  20  33  52  81 113 145 183 225 276 340
#     4  10  22  39  60  87 115 147 188 231 278 336
#     4  11  22  35  56  83 114 153 190 228 282 339
#     4  10  20  36  58  82 111 149 192 238 282 327
#     4  10  19  33  55  81 109 144 185 231 280 330
#
# _framework density 19.137982999999998
#
# number of rings (size 3 to 8) (size 9 to 14) (size 15 to 20)
#    0.000    2.000    3.333    0.500    0.000    3.333 
#    0.000    2.500    0.000    0.500    0.000    9.333 
#    0.000    0.000    0.000    0.000    0.000    0.000 
#
# Total GULP energy -267795.337182 kJ/mol
# GULP energy per Si atom -5579.069525 kJ/mol
# Density = 1.909442 g / cm^3
# Si number density = 19.137983 Si / 1000 Ang^3
#
#
#
# Elastic Constant Matrix: (Units=GPa)
#
#
# Indices 1 2 3 4 5 6 
#
# 1 112.4444 23.6950 -1.8835 0.0000 0.0000 0.0000
# 2 23.6950 37.9184 -2.7232 0.0000 0.0000 0.0000
# 3 -1.8835 -2.7232 73.1703 0.0000 0.0000 0.0000
# 4 0.0000 0.0000 0.0000 16.0092 0.0000 0.0000
# 5 0.0000 0.0000 0.0000 0.0000 -1.3865 0.0000
# 6 0.0000 0.0000 0.0000 0.0000 0.0000 1.9742
#
#
#
# Elastic Compliance Matrix: (Units=1/GPa)
#
#
# Indices 1 2 3 4 5 6 
#
# 1 0.010242 -0.006398 0.000026 0.000000 0.000000 0.000000
# 2 -0.006398 0.030440 0.000968 0.000000 0.000000 0.000000
# 3 0.000026 0.000968 0.013703 0.000000 0.000000 0.000000
# 4 0.000000 0.000000 0.000000 0.062464 0.000000 0.000000
# 5 0.000000 0.000000 0.000000 0.000000 -0.721250 0.000000
# 6 0.000000 0.000000 0.000000 0.000000 0.000000 0.506533
#
#
# Mechanical properties :
#
#
# Convention : Reuss Voigt Hill
#
# Bulk Modulus (GPa) = 22.94821 29.07888 26.01354
# Shear Modulus (GPa) = -68.93463 16.94903 -25.99280
#
# Velocity S-wave (km/s) = -6.00816 2.97917 -3.68935
# Velocity P-wave (km/s) = 6.00947 5.20204 2.12749
#
# Compressibility (1/GPa) = 0.04357639
#
# Stress axis : x y z
#
# Youngs Moduli (GPa) = 97.63710 32.85128 72.97434
#
# Poissons Ratio (x) = 0.21019 -0.00186
# Poissons Ratio (y) = 0.62472 -0.07065
# Poissons Ratio (z) = -0.00249 -0.03181
#
# Static dielectric constant tensor:
#      x y z
#    x 1.668210 0.000000 0.000000 
#    y 0.000000 1.662050 0.000000 
#    z 0.000000 0.000000 1.673290 
# 
# From -- ./inp_files/54507.got.cif
#   From: 2010.05.17/outbox.cif.g08.bks.cpg/sg65_28_cif.got.tgz:54507.got - 2010.06.03 17:01:31.
