data_PCOD9487988
_publ_section_title
;
Structure prediction by ZEFSAII (Michael W. Deem and Ramdas Pophale) SiO2 
 PCOD9487988
Probable space group: C M M M
;
_chemical_formula_sum "Si O2"
_cell_formula_units_Z 72
_cell_length_a 18.632330
_cell_length_b 7.562915
_cell_length_c 24.922109
_cell_angle_alpha 90.000000
_cell_angle_beta 90.000000
_cell_angle_gamma 90.000000
_cell_volume 3511.892212
_symmetry_space_group_name_H-M "C M M M"
_symmetry_group_IT_number 65
_symmetry_cell_setting 'orthorhombic'
loop_
_space_group_symop_operation_xyz
x,y,z
-x,-y,z
x,-y,-z
-x,y,-z
-x,-y,-z
x,y,-z
-x,y,z
x,-y,z
1/2+x,1/2+y,z
1/2-x,1/2-y,z
1/2+x,1/2-y,-z
1/2-x,1/2+y,-z
1/2-x,1/2-y,-z
1/2+x,1/2+y,-z
1/2-x,1/2+y,z
1/2+x,1/2-y,z
loop_
_atom_site_type_symbol
_atom_site_label
_atom_site_fract_x
_atom_site_fract_y
_atom_site_fract_z
Si Si1 0.918106 0.710686 0.883459
Si Si2 0.913811 0.712740 0.442372
Si Si3 0.581658 0.290462 0.000000
Si Si4 0.083792 0.283750 0.674422
Si Si5 0.333845 0.212243 0.220213
O O1 0.923084 0.500000 0.876924
O O2 0.872548 0.780400 0.833601
O O3 0.000000 0.781673 0.882854
O O4 0.885772 0.740125 0.942710
O O5 0.886246 0.781080 0.500000
O O6 0.903848 0.500000 0.442980
O O7 0.888266 0.776824 0.384153
O O8 0.000000 0.742191 0.441942
O O9 0.576741 0.500000 0.000000
O O10 0.500000 0.214065 0.000000
O O11 0.085237 0.500000 0.673668
O O12 0.128794 0.221692 0.725338
O O13 0.000000 0.234274 0.680242
O O14 0.250000 0.250000 0.219533
O O15 0.342740 0.000000 0.220590
#
# Coordination Sequence:
#
# PCOD9487988 Si02
#       5
#    16  16   8  16  16
#     4   9  17  31  51  71  90 115 149 184 216 256
#     4   7   9  14  28  54  85 110 134 174 226 266
#     4   9  17  29  48  75 100 117 137 173 222 267
#     4   8  13  23  41  63  85 112 149 188 222 260
#     4  10  20  32  46  65  90 120 151 184 223 263
#
# _framework density 20.501767999999998
#
# number of rings (size 3 to 8) (size 9 to 14) (size 15 to 20)
#    0.000    3.444    0.000    3.000    0.000    4.889 
#    0.000    0.556    0.000    2.667    0.000    0.000 
#    0.000    0.000    0.000    5.556    0.000    4.444 
#
# Total GULP energy -200487.834990 kJ/mol
# GULP energy per Si atom -5569.106528 kJ/mol
# Density = 2.045511 g / cm^3
# Si number density = 20.501768 Si / 1000 Ang^3
#
#
#
# Elastic Constant Matrix: (Units=GPa)
#
#
# Indices 1 2 3 4 5 6 
#
# 1 61.9937 -0.2906 88.3284 0.0000 0.0000 0.0000
# 2 -0.2906 47.9109 8.9129 0.0000 0.0000 0.0000
# 3 88.3284 8.9129 285.1077 0.0000 0.0000 0.0000
# 4 0.0000 0.0000 0.0000 -17.4112 0.0000 0.0000
# 5 0.0000 0.0000 0.0000 0.0000 4.7754 0.0000
# 6 0.0000 0.0000 0.0000 0.0000 0.0000 11.3064
#
#
#
# Elastic Compliance Matrix: (Units=1/GPa)
#
#
# Indices 1 2 3 4 5 6 
#
# 1 0.029042 0.001861 -0.009055 0.000000 0.000000 0.000000
# 2 0.001861 0.021113 -0.001237 0.000000 0.000000 0.000000
# 3 -0.009055 -0.001237 0.006352 0.000000 0.000000 0.000000
# 4 0.000000 0.000000 0.000000 -0.057434 0.000000 0.000000
# 5 0.000000 0.000000 0.000000 0.000000 0.209407 0.000000
# 6 0.000000 0.000000 0.000000 0.000000 0.000000 0.088446
#
#
# Mechanical properties :
#
#
# Convention : Reuss Voigt Hill
#
# Bulk Modulus (GPa) = 25.22442 65.43485 45.32963
# Shear Modulus (GPa) = 15.29042 19.60489 17.44766
#
# Velocity S-wave (km/s) = 2.73392 3.09569 2.92041
# Velocity P-wave (km/s) = 4.72186 6.69057 5.79049
#
# Compressibility (1/GPa) = 0.03964412
#
# Stress axis : x y z
#
# Youngs Moduli (GPa) = 34.43331 47.36334 157.44172
#
# Poissons Ratio (x) = -0.08813 1.42571
# Poissons Ratio (y) = -0.06407 0.19468
# Poissons Ratio (z) = 0.31181 0.05857
#
# Static dielectric constant tensor:
#      x y z
#    x 1.671240 0.000000 0.000000 
#    y 0.000000 1.775460 0.000000 
#    z 0.000000 0.000000 1.799970 
# 
# From -- ./inp_files/70728.got.cif
#   From: 2010.05.17/outbox.cif.g08.bks.cpg/sg65_36_cif.got.tgz:70728.got - 2010.06.03 17:01:31.
