data_PCOD9487040
_publ_section_title
;
Structure prediction by ZEFSAII (Michael W. Deem and Ramdas Pophale) SiO2 
 PCOD9487040
Probable space group: C M M M
;
_chemical_formula_sum "Si O2"
_cell_formula_units_Z 58
_cell_length_a 34.567925
_cell_length_b 10.744056
_cell_length_c 7.608260
_cell_angle_alpha 90.000000
_cell_angle_beta 90.000000
_cell_angle_gamma 90.000000
_cell_volume 2825.705649
_symmetry_space_group_name_H-M "C M M M"
_symmetry_group_IT_number 65
_symmetry_cell_setting 'orthorhombic'
loop_
_space_group_symop_operation_xyz
x,y,z
-x,-y,z
x,-y,-z
-x,y,-z
-x,-y,-z
x,y,-z
-x,y,z
x,-y,z
1/2+x,1/2+y,z
1/2-x,1/2-y,z
1/2+x,1/2-y,-z
1/2-x,1/2+y,-z
1/2-x,1/2-y,-z
1/2+x,1/2+y,-z
1/2-x,1/2+y,z
1/2+x,1/2-y,z
loop_
_atom_site_type_symbol
_atom_site_label
_atom_site_fract_x
_atom_site_fract_y
_atom_site_fract_z
Si Si1 0.918038 0.859825 0.792906
Si Si2 0.000000 0.500000 0.500000
Si Si3 0.000000 0.757944 0.690705
Si Si4 0.798040 0.500000 0.215292
Si Si5 0.708749 0.500000 0.214221
Si Si6 0.338475 0.254411 0.214990
O O1 0.882522 0.777082 0.724225
O O2 0.960064 0.799664 0.775757
O O3 0.917362 0.000000 0.718873
O O4 0.910382 0.871546 0.000000
O O5 0.000000 0.388610 0.649988
O O6 0.000000 0.822406 0.500000
O O7 0.753289 0.500000 0.270480
O O8 0.819725 0.625145 0.273610
O O9 0.798010 0.500000 0.000000
O O10 0.686415 0.624963 0.268661
O O11 0.708446 0.500000 0.000000
O O12 0.337692 0.250576 0.000000
#
# Coordination Sequence:
#
# PCOD9487040 Si02
#       6
#    16   2   8   8   8  16
#     4  10  19  33  55  83 111 138 175 220 271 322
#     4   8  24  44  52  72 104 136 170 222 268 320
#     4  10  22  40  58  74 105 137 173 220 263 323
#     4   9  16  23  37  63  95 141 187 209 249 317
#     4   9  14  24  39  58  97 144 177 212 258 306
#     4   9  16  26  40  66 103 139 174 217 260 308
#
# _framework density 20.525846999999999
#
# number of rings (size 3 to 8) (size 9 to 14) (size 15 to 20)
#    0.414    2.207    1.379    1.655    0.000    6.621 
#    0.000    2.759    0.000    0.000    0.000    0.000 
#    0.000    6.621    0.000    0.000    0.000    0.000 
#
# Total GULP energy -161452.934845 kJ/mol
# GULP energy per Si atom -5567.342581 kJ/mol
# Density = 2.047913 g / cm^3
# Si number density = 20.525847 Si / 1000 Ang^3
#
#
#
# Elastic Constant Matrix: (Units=GPa)
#
#
# Indices 1 2 3 4 5 6 
#
# 1 210.8951 112.6741 -1.8234 0.0000 0.0000 0.0000
# 2 112.6741 184.6056 0.5420 0.0000 0.0000 0.0000
# 3 -1.8234 0.5420 35.5050 0.0000 0.0000 0.0000
# 4 0.0000 0.0000 0.0000 2.4180 0.0000 0.0000
# 5 0.0000 0.0000 0.0000 0.0000 -34.5973 0.0000
# 6 0.0000 0.0000 0.0000 0.0000 0.0000 6.4095
#
#
#
# Elastic Compliance Matrix: (Units=1/GPa)
#
#
# Indices 1 2 3 4 5 6 
#
# 1 0.007043 -0.004300 0.000427 0.000000 0.000000 0.000000
# 2 -0.004300 0.008042 -0.000344 0.000000 0.000000 0.000000
# 3 0.000427 -0.000344 0.028192 0.000000 0.000000 0.000000
# 4 0.000000 0.000000 0.000000 0.413573 0.000000 0.000000
# 5 0.000000 0.000000 0.000000 0.000000 -0.028904 0.000000
# 6 0.000000 0.000000 0.000000 0.000000 0.000000 0.156019
#
#
# Mechanical properties :
#
#
# Convention : Reuss Voigt Hill
#
# Bulk Modulus (GPa) = 28.69838 72.64347 50.67092
# Shear Modulus (GPa) = 8.27798 16.15357 12.21578
#
# Velocity S-wave (km/s) = 2.01040 2.80837 2.44220
# Velocity P-wave (km/s) = 4.40464 6.78115 5.71773
#
# Compressibility (1/GPa) = 0.03484517
#
# Stress axis : x y z
#
# Youngs Moduli (GPa) = 141.99373 124.34291 35.47074
#
# Poissons Ratio (x) = 0.53464 -0.01516
# Poissons Ratio (y) = 0.61053 0.01219
# Poissons Ratio (z) = -0.06068 0.04272
#
# Static dielectric constant tensor:
#      x y z
#    x 1.760590 0.000000 0.000000 
#    y 0.000000 1.689690 0.000000 
#    z 0.000000 0.000000 1.783640 
# 
# From -- ./inp_files/17753.got.cif
#   From: 2010.05.17/outbox.cif.g08.bks.cpg/sg65_9_cif.got.tgz:17753.got - 2010.06.03 17:01:31.
