data_PCOD9487055
_publ_section_title
;
Structure prediction by ZEFSAII (Michael W. Deem and Ramdas Pophale) SiO2 
 PCOD9487055
Probable space group: C M M M
;
_chemical_formula_sum "Si O2"
_cell_formula_units_Z 84
_cell_length_a 28.224804
_cell_length_b 14.776933
_cell_length_c 12.639120
_cell_angle_alpha 90.000000
_cell_angle_beta 90.000000
_cell_angle_gamma 90.000000
_cell_volume 5271.474089
_symmetry_space_group_name_H-M "C M M M"
_symmetry_group_IT_number 65
_symmetry_cell_setting 'orthorhombic'
loop_
_space_group_symop_operation_xyz
x,y,z
-x,-y,z
x,-y,-z
-x,y,-z
-x,-y,-z
x,y,-z
-x,y,z
x,-y,z
1/2+x,1/2+y,z
1/2-x,1/2-y,z
1/2+x,1/2-y,-z
1/2-x,1/2+y,-z
1/2-x,1/2-y,-z
1/2+x,1/2+y,-z
1/2-x,1/2+y,z
1/2+x,1/2-y,z
loop_
_atom_site_type_symbol
_atom_site_label
_atom_site_fract_x
_atom_site_fract_y
_atom_site_fract_z
Si Si1 0.197787 0.000000 0.500000
Si Si2 0.555874 0.895111 0.277604
Si Si3 0.689808 0.000000 0.114747
Si Si4 0.802299 0.794576 0.272172
Si Si5 0.225092 0.000000 0.273098
Si Si6 0.055503 0.705979 0.500000
Si Si7 0.129782 0.683747 0.121705
Si Si8 0.652885 0.693708 0.500000
O O1 0.231220 0.000000 0.398822
O O2 0.164223 0.087114 0.500000
O O3 0.500000 0.893654 0.255110
O O4 0.562421 0.854125 0.394704
O O5 0.583637 0.836323 0.191636
O O6 0.571737 0.000000 0.275052
O O7 0.657913 0.088814 0.119511
O O8 0.727008 0.000000 0.208117
O O9 0.714946 0.000000 0.000000
O O10 0.750000 0.750000 0.263694
O O11 0.799862 0.903112 0.253760
O O12 0.836704 0.752475 0.184641
O O13 0.822661 0.773605 0.390266
O O14 0.097555 0.779817 0.500000
O O15 0.000000 0.737400 0.500000
O O16 0.120332 0.710098 0.000000
#
# Coordination Sequence:
#
# PCOD9487055 Si02
#       8
#     4  16   8  16   8   8  16   8
#     4   8  20  34  53  76 108 134 169 220 256 318
#     4  10  20  35  55  80 110 141 173 214 267 322
#     4  10  20  34  51  72 106 141 181 224 256 297
#     4  11  21  35  55  77 107 140 178 216 264 316
#     4  10  20  36  52  76 104 141 176 217 266 310
#     4  10  19  33  56  81 104 132 172 218 268 321
#     4  11  22  35  52  78 108 143 185 223 256 304
#     4  10  19  35  54  78 106 135 167 215 269 318
#
# _framework density 15.934822
#
# number of rings (size 3 to 8) (size 9 to 14) (size 15 to 20)
#    0.000    1.714    4.762    0.571    0.000    2.667 
#    0.000    2.143    0.000    0.000    0.000    0.667 
#    0.000    1.524    0.000    0.000    0.000    0.000 
#
# Total GULP energy -234021.831319 kJ/mol
# GULP energy per Si atom -5571.948365 kJ/mol
# Density = 1.589855 g / cm^3
# Si number density = 15.934822 Si / 1000 Ang^3
#
#
#
# Elastic Constant Matrix: (Units=GPa)
#
#
# Indices 1 2 3 4 5 6 
#
# 1 79.4407 23.1531 66.2408 0.0000 0.0000 0.0000
# 2 23.1531 63.0844 48.8437 0.0000 0.0000 0.0000
# 3 66.2408 48.8437 140.7673 0.0000 0.0000 0.0000
# 4 0.0000 0.0000 0.0000 9.4418 0.0000 0.0000
# 5 0.0000 0.0000 0.0000 0.0000 19.1493 0.0000
# 6 0.0000 0.0000 0.0000 0.0000 0.0000 17.3144
#
#
#
# Elastic Compliance Matrix: (Units=1/GPa)
#
#
# Indices 1 2 3 4 5 6 
#
# 1 0.020717 -0.000076 -0.009723 0.000000 0.000000 0.000000
# 2 -0.000076 0.021675 -0.007485 0.000000 0.000000 0.000000
# 3 -0.009723 -0.007485 0.014276 0.000000 0.000000 0.000000
# 4 0.000000 0.000000 0.000000 0.105911 0.000000 0.000000
# 5 0.000000 0.000000 0.000000 0.000000 0.052221 0.000000
# 6 0.000000 0.000000 0.000000 0.000000 0.000000 0.057756
#
#
# Mechanical properties :
#
#
# Convention : Reuss Voigt Hill
#
# Bulk Modulus (GPa) = 45.24591 62.19642 53.72117
# Shear Modulus (GPa) = 15.89870 18.85141 17.37505
#
# Velocity S-wave (km/s) = 3.16212 3.44325 3.30568
# Velocity P-wave (km/s) = 6.46436 7.41111 6.95387
#
# Compressibility (1/GPa) = 0.02210145
#
# Stress axis : x y z
#
# Youngs Moduli (GPa) = 48.26915 46.13587 70.04610
#
# Poissons Ratio (x) = 0.00350 0.68103
# Poissons Ratio (y) = 0.00366 0.52431
# Poissons Ratio (z) = 0.46930 0.34534
#
# Static dielectric constant tensor:
#      x y z
#    x 1.509830 0.000000 0.000000 
#    y 0.000000 1.537230 0.000000 
#    z 0.000000 0.000000 1.543750 
# 
# From -- ./inp_files/33868.got.cif
#   From: 2010.05.17/outbox.cif.g08.bks.cpg/sg65_17_cif.got.tgz:33868.got - 2010.06.03 17:01:31.
