data_PCOD9487701
_publ_section_title
;
Structure prediction by ZEFSAII (Michael W. Deem and Ramdas Pophale) SiO2 
 PCOD9487701
Probable space group: C M M M
;
_chemical_formula_sum "Si O2"
_cell_formula_units_Z 36
_cell_length_a 13.660783
_cell_length_b 5.256488
_cell_length_c 23.551404
_cell_angle_alpha 90.000000
_cell_angle_beta 90.000000
_cell_angle_gamma 90.000000
_cell_volume 1691.173140
_symmetry_space_group_name_H-M "C M M M"
_symmetry_group_IT_number 65
_symmetry_cell_setting 'orthorhombic'
loop_
_space_group_symop_operation_xyz
x,y,z
-x,-y,z
x,-y,-z
-x,y,-z
-x,-y,-z
x,y,-z
-x,y,z
x,-y,z
1/2+x,1/2+y,z
1/2-x,1/2-y,z
1/2+x,1/2-y,-z
1/2-x,1/2+y,-z
1/2-x,1/2-y,-z
1/2+x,1/2+y,-z
1/2-x,1/2+y,z
1/2+x,1/2-y,z
loop_
_atom_site_type_symbol
_atom_site_label
_atom_site_fract_x
_atom_site_fract_y
_atom_site_fract_z
Si Si1 0.000000 0.000000 0.847320
Si Si2 0.184975 0.000000 0.067402
Si Si3 0.118554 0.500000 0.435792
Si Si4 0.312465 0.500000 0.235530
Si Si5 0.882188 0.000000 0.635704
O O1 0.086758 0.000000 0.896249
O O2 0.086267 0.000000 0.798159
O O3 0.250000 0.750000 0.079551
O O4 0.162909 0.000000 0.000000
O O5 0.157754 0.500000 0.500000
O O6 0.143104 0.248867 0.400548
O O7 0.000000 0.500000 0.440110
O O8 0.250000 0.750000 0.221311
O O9 0.333457 0.500000 0.302852
O O10 0.000000 0.000000 0.644038
#
# Coordination Sequence:
#
# PCOD9487701 Si02
#       5
#     4   8   8   8   8
#     4  12  25  46  70 102 135 184 228 278 320 396
#     4  10  23  44  71 106 144 180 222 273 330 388
#     4   9  17  30  58  91 119 154 209 265 325 402
#     4  12  27  44  65  94 132 177 224 279 331 389
#     4  10  19  37  58  86 122 165 208 263 334 395
#
# _framework density 21.286998000000001
#
# number of rings (size 3 to 8) (size 9 to 14) (size 15 to 20)
#    0.000    1.556    1.111    3.667    0.000    6.222 
#    0.000    3.333    0.000   13.333    0.000    0.000 
#    0.000    0.000    0.000    0.000    0.000    0.000 
#
# Total GULP energy -100243.439969 kJ/mol
# GULP energy per Si atom -5569.079998 kJ/mol
# Density = 2.123855 g / cm^3
# Si number density = 21.286998 Si / 1000 Ang^3
#
#
#
# Elastic Constant Matrix: (Units=GPa)
#
#
# Indices 1 2 3 4 5 6 
#
# 1 214.0543 85.0365 93.8767 0.0000 0.0000 0.0000
# 2 85.0365 203.6039 85.8145 0.0000 0.0000 0.0000
# 3 93.8767 85.8145 211.3540 0.0000 0.0000 0.0000
# 4 0.0000 0.0000 0.0000 -13.8184 0.0000 0.0000
# 5 0.0000 0.0000 0.0000 0.0000 89.7575 0.0000
# 6 0.0000 0.0000 0.0000 0.0000 0.0000 -536.5330
#
#
#
# Elastic Compliance Matrix: (Units=1/GPa)
#
#
# Indices 1 2 3 4 5 6 
#
# 1 0.006277 -0.001745 -0.002079 0.000000 0.000000 0.000000
# 2 -0.001745 0.006411 -0.001828 0.000000 0.000000 0.000000
# 3 -0.002079 -0.001828 0.006397 0.000000 0.000000 0.000000
# 4 0.000000 0.000000 0.000000 -0.072367 0.000000 0.000000
# 5 0.000000 0.000000 0.000000 0.000000 0.011141 0.000000
# 6 0.000000 0.000000 0.000000 0.000000 0.000000 -0.001864
#
#
# Mechanical properties :
#
#
# Convention : Reuss Voigt Hill
#
# Bulk Modulus (GPa) = 128.53326 128.71863 128.62594
# Shear Modulus (GPa) = -166.07543 -67.83314 -116.95428
#
# Velocity S-wave (km/s) = -8.84232 -5.65112 -7.42030
# Velocity P-wave (km/s) = 6.61337 4.24491 3.58591
#
# Compressibility (1/GPa) = 0.00778009
#
# Stress axis : x y z
#
# Youngs Moduli (GPa) = 159.31203 155.98828 156.31999
#
# Poissons Ratio (x) = 0.27223 0.32506
# Poissons Ratio (y) = 0.27803 0.28571
# Poissons Ratio (z) = 0.33128 0.28511
#
# Static dielectric constant tensor:
#      x y z
#    x 1.745090 0.000000 0.000000 
#    y 0.000000 1.710630 0.000000 
#    z 0.000000 0.000000 1.732850 
# 
# From -- ./inp_files/69408.got.cif
#   From: 2010.05.17/outbox.cif.g08.bks.cpg/sg65_35_cif.got.tgz:69408.got - 2010.06.03 17:01:31.
