data_PCOD9487291
_publ_section_title
;
Structure prediction by ZEFSAII (Michael W. Deem and Ramdas Pophale) SiO2 
 PCOD9487291
Probable space group: C M M M
;
_chemical_formula_sum "Si O2"
_cell_formula_units_Z 128
_cell_length_a 29.664568
_cell_length_b 26.545423
_cell_length_c 7.479101
_cell_angle_alpha 90.000000
_cell_angle_beta 90.000000
_cell_angle_gamma 90.000000
_cell_volume 5889.481697
_symmetry_space_group_name_H-M "C M M M"
_symmetry_group_IT_number 65
_symmetry_cell_setting 'orthorhombic'
loop_
_space_group_symop_operation_xyz
x,y,z
-x,-y,z
x,-y,-z
-x,y,-z
-x,-y,-z
x,y,-z
-x,y,z
x,-y,z
1/2+x,1/2+y,z
1/2-x,1/2-y,z
1/2+x,1/2-y,-z
1/2-x,1/2+y,-z
1/2-x,1/2-y,-z
1/2+x,1/2+y,-z
1/2-x,1/2+y,z
1/2+x,1/2-y,z
loop_
_atom_site_type_symbol
_atom_site_label
_atom_site_fract_x
_atom_site_fract_y
_atom_site_fract_z
Si Si1 0.288128 0.442407 0.215261
Si Si2 0.552149 0.845549 0.718781
Si Si3 0.893908 0.753338 0.285272
Si Si4 0.795756 0.275222 0.787511
Si Si5 0.802438 0.611141 0.216655
Si Si6 0.551802 0.351254 0.719220
Si Si7 0.104634 0.556592 0.710552
Si Si8 0.389000 0.443011 0.711473
O O1 0.284212 0.500000 0.279232
O O2 0.245451 0.410848 0.277274
O O3 0.337742 0.424093 0.266134
O O4 0.286526 0.443033 0.000000
O O5 0.553373 0.845696 0.500000
O O6 0.500000 0.839272 0.770609
O O7 0.583062 0.798679 0.778836
O O8 0.572908 0.898643 0.782016
O O9 0.897226 0.752485 0.500000
O O10 0.841254 0.755982 0.239952
O O11 0.921221 0.801862 0.221573
O O12 0.750000 0.250000 0.715928
O O13 0.805800 0.331450 0.717952
O O14 0.788973 0.280859 0.000000
O O15 0.844307 0.576786 0.272543
O O16 0.803066 0.611078 0.000000
O O17 0.552758 0.351375 0.500000
O O18 0.500000 0.349183 0.773436
O O19 0.576390 0.401949 0.782276
O O20 0.094378 0.553175 0.500000
O O21 0.099993 0.500000 0.785405
O O22 0.397363 0.446947 0.500000
O O23 0.391825 0.500000 0.786065
#
# Coordination Sequence:
#
# PCOD9487291 Si02
#       8
#    16  16  16  16  16  16  16  16
#     4   9  18  32  50  72  97 130 171 207 242 293
#     4   9  17  31  52  76 102 133 168 210 259 305
#     4  10  19  34  56  79 102 132 172 214 253 301
#     4  10  22  37  53  77 107 137 168 207 260 313
#     4  10  20  35  54  74 100 137 175 209 252 312
#     4   9  18  32  52  79 105 131 169 213 254 301
#     4  10  20  33  51  78 108 136 172 219 262 300
#     4   9  18  32  50  75 106 136 166 205 254 302
#
# _framework density 21.73366
#
# number of rings (size 3 to 8) (size 9 to 14) (size 15 to 20)
#    0.000    2.500    1.250    0.750    1.750    3.500 
#    0.000    3.750    0.000    3.750    0.000    2.625 
#    0.000    0.000    0.000    0.000    0.000    0.000 
#
# Total GULP energy -357450.391699 kJ/mol
# GULP energy per Si atom -5585.162370 kJ/mol
# Density = 2.168419 g / cm^3
# Si number density = 21.733660 Si / 1000 Ang^3
#
#
#
# Elastic Constant Matrix: (Units=GPa)
#
#
# Indices 1 2 3 4 5 6 
#
# 1 165.2035 72.9495 -12.0920 0.0000 0.0000 0.0000
# 2 72.9495 96.8299 1.3410 0.0000 0.0000 0.0000
# 3 -12.0920 1.3410 60.3235 0.0000 0.0000 0.0000
# 4 0.0000 0.0000 0.0000 3.3335 0.0000 0.0000
# 5 0.0000 0.0000 0.0000 0.0000 26.0247 0.0000
# 6 0.0000 0.0000 0.0000 0.0000 0.0000 67.2780
#
#
#
# Elastic Compliance Matrix: (Units=1/GPa)
#
#
# Indices 1 2 3 4 5 6 
#
# 1 0.009311 -0.007043 0.002023 0.000000 0.000000 0.000000
# 2 -0.007043 0.015658 -0.001760 0.000000 0.000000 0.000000
# 3 0.002023 -0.001760 0.017022 0.000000 0.000000 0.000000
# 4 0.000000 0.000000 0.000000 0.299989 0.000000 0.000000
# 5 0.000000 0.000000 0.000000 0.000000 0.038425 0.000000
# 6 0.000000 0.000000 0.000000 0.000000 0.000000 0.014864
#
#
# Mechanical properties :
#
#
# Convention : Reuss Voigt Hill
#
# Bulk Modulus (GPa) = 35.17234 49.63933 42.40583
# Shear Modulus (GPa) = 11.95299 36.67111 24.31205
#
# Velocity S-wave (km/s) = 2.34770 4.11213 3.34823
# Velocity P-wave (km/s) = 4.85463 6.74059 5.87380
#
# Compressibility (1/GPa) = 0.02843143
#
# Stress axis : x y z
#
# Youngs Moduli (GPa) = 107.39825 63.86644 58.74777
#
# Poissons Ratio (x) = 0.44980 -0.11885
# Poissons Ratio (y) = 0.75639 0.10339
# Poissons Ratio (z) = -0.21727 0.11239
#
# Static dielectric constant tensor:
#      x y z
#    x 1.741380 0.000000 0.000000 
#    y 0.000000 1.794190 0.000000 
#    z 0.000000 0.000000 1.819970 
# 
# From -- ./inp_files/32948.got.cif
#   From: 2010.05.17/outbox.cif.g08.bks.cpg/sg65_17_cif.got.tgz:32948.got - 2010.06.03 17:01:31.
