data_PCOD9487211
_publ_section_title
;
Structure prediction by ZEFSAII (Michael W. Deem and Ramdas Pophale) SiO2 
 PCOD9487211
Probable space group: C M M M
;
_chemical_formula_sum "Si O2"
_cell_formula_units_Z 72
_cell_length_a 13.963684
_cell_length_b 26.473248
_cell_length_c 10.353013
_cell_angle_alpha 90.000000
_cell_angle_beta 90.000000
_cell_angle_gamma 90.000000
_cell_volume 3827.136917
_symmetry_space_group_name_H-M "C M M M"
_symmetry_group_IT_number 65
_symmetry_cell_setting 'orthorhombic'
loop_
_space_group_symop_operation_xyz
x,y,z
-x,-y,z
x,-y,-z
-x,y,-z
-x,-y,-z
x,y,-z
-x,y,z
x,-y,z
1/2+x,1/2+y,z
1/2-x,1/2-y,z
1/2+x,1/2-y,-z
1/2-x,1/2+y,-z
1/2-x,1/2-y,-z
1/2+x,1/2+y,-z
1/2-x,1/2+y,z
1/2+x,1/2-y,z
loop_
_atom_site_type_symbol
_atom_site_label
_atom_site_fract_x
_atom_site_fract_y
_atom_site_fract_z
Si Si1 0.384116 0.000000 0.843592
Si Si2 0.883053 0.056496 0.500000
Si Si3 0.885735 0.883678 0.751995
Si Si4 0.253533 0.309453 0.653549
Si Si5 0.616795 0.557443 0.000000
Si Si6 0.615569 0.905317 0.652940
O O1 0.357376 0.050031 0.756135
O O2 0.500000 0.000000 0.845190
O O3 0.356950 0.000000 0.000000
O O4 0.853616 0.085504 0.373189
O O5 0.000000 0.055065 0.500000
O O6 0.847538 0.000000 0.500000
O O7 0.842023 0.829371 0.736586
O O8 0.850831 0.913243 0.875340
O O9 0.000000 0.882412 0.753659
O O10 0.272863 0.313218 0.500000
O O11 0.250000 0.250000 0.681044
O O12 0.168872 0.351082 0.678385
O O13 0.646331 0.500000 0.000000
O O14 0.500000 0.557377 0.000000
O O15 0.634796 0.918856 0.500000
O O16 0.500000 0.898729 0.662954
#
# Coordination Sequence:
#
# PCOD9487211 Si02
#       6
#     8   8  16  16   8  16
#     4   9  17  33  59  85 112 139 172 224 278 328
#     4   9  16  28  49  76 105 135 170 214 260 308
#     4  10  19  34  54  78 108 142 180 218 264 318
#     4  10  21  37  55  80 109 138 184 234 271 315
#     4   9  18  34  55  78 111 149 178 210 258 322
#     4   9  18  35  57  81 109 144 180 220 273 327
#
# _framework density 18.813019000000001
#
# number of rings (size 3 to 8) (size 9 to 14) (size 15 to 20)
#    0.000    2.556    1.111    1.000    0.000    4.889 
#    6.000    2.778    0.000    0.000    0.000    0.000 
#    0.000    0.000    0.000    0.000    0.000    0.000 
#
# Total GULP energy -200514.534240 kJ/mol
# GULP energy per Si atom -5569.848173 kJ/mol
# Density = 1.877020 g / cm^3
# Si number density = 18.813019 Si / 1000 Ang^3
#
#
#
# Elastic Constant Matrix: (Units=GPa)
#
#
# Indices 1 2 3 4 5 6 
#
# 1 57.5745 38.8536 35.5411 0.0000 0.0000 0.0000
# 2 38.8536 190.1878 99.3467 0.0000 0.0000 0.0000
# 3 35.5411 99.3467 148.1095 0.0000 0.0000 0.0000
# 4 0.0000 0.0000 0.0000 27.6276 0.0000 0.0000
# 5 0.0000 0.0000 0.0000 0.0000 1.9379 0.0000
# 6 0.0000 0.0000 0.0000 0.0000 0.0000 26.9443
#
#
#
# Elastic Compliance Matrix: (Units=1/GPa)
#
#
# Indices 1 2 3 4 5 6 
#
# 1 0.021177 -0.002573 -0.003356 0.000000 0.000000 0.000000
# 2 -0.002573 0.008407 -0.005021 0.000000 0.000000 0.000000
# 3 -0.003356 -0.005021 0.010925 0.000000 0.000000 0.000000
# 4 0.000000 0.000000 0.000000 0.036196 0.000000 0.000000
# 5 0.000000 0.000000 0.000000 0.000000 0.516015 0.000000
# 6 0.000000 0.000000 0.000000 0.000000 0.000000 0.037114
#
#
# Mechanical properties :
#
#
# Convention : Reuss Voigt Hill
#
# Bulk Modulus (GPa) = 53.74038 82.59498 68.16768
# Shear Modulus (GPa) = 7.59952 26.11065 16.85508
#
# Velocity S-wave (km/s) = 2.01203 3.72950 2.99645
# Velocity P-wave (km/s) = 5.83312 7.90847 6.94871
#
# Compressibility (1/GPa) = 0.01860798
#
# Stress axis : x y z
#
# Youngs Moduli (GPa) = 47.22133 118.95344 91.53207
#
# Poissons Ratio (x) = 0.30612 0.30714
# Poissons Ratio (y) = 0.12152 0.45962
# Poissons Ratio (z) = 0.15845 0.59731
#
# Static dielectric constant tensor:
#      x y z
#    x 1.706790 0.000000 0.000000 
#    y 0.000000 1.226220 0.000000 
#    z 0.000000 0.000000 1.642440 
# 
# From -- ./inp_files/7414.got.cif
#   From: 2010.05.17/outbox.cif.g08.bks.cpg/sg65_4_cif.got.tgz:7414.got - 2010.06.03 17:01:31.
