data_PCOD9487925
_publ_section_title
;
Structure prediction by ZEFSAII (Michael W. Deem and Ramdas Pophale) SiO2 
 PCOD9487925
Probable space group: C M M M
;
_chemical_formula_sum "Si O2"
_cell_formula_units_Z 88
_cell_length_a 30.223155
_cell_length_b 19.038846
_cell_length_c 9.027466
_cell_angle_alpha 90.000000
_cell_angle_beta 90.000000
_cell_angle_gamma 90.000000
_cell_volume 5194.530264
_symmetry_space_group_name_H-M "C M M M"
_symmetry_group_IT_number 65
_symmetry_cell_setting 'orthorhombic'
loop_
_space_group_symop_operation_xyz
x,y,z
-x,-y,z
x,-y,-z
-x,y,-z
-x,-y,-z
x,y,-z
-x,y,z
x,-y,z
1/2+x,1/2+y,z
1/2-x,1/2-y,z
1/2+x,1/2-y,-z
1/2-x,1/2+y,-z
1/2-x,1/2-y,-z
1/2+x,1/2+y,-z
1/2-x,1/2+y,z
1/2+x,1/2-y,z
loop_
_atom_site_type_symbol
_atom_site_label
_atom_site_fract_x
_atom_site_fract_y
_atom_site_fract_z
Si Si1 0.844334 0.000000 0.330367
Si Si2 0.263264 0.000000 0.330177
Si Si3 0.158150 0.287484 0.322942
Si Si4 0.236141 0.643748 0.826557
Si Si5 0.657178 0.355042 0.826370
Si Si6 0.500000 0.915294 0.667795
Si Si7 0.902432 0.580720 0.681115
O O1 0.790387 0.000000 0.333952
O O2 0.857371 0.071743 0.247772
O O3 0.859559 0.000000 0.500000
O O4 0.277062 0.931096 0.242699
O O5 0.279631 0.000000 0.500000
O O6 0.158266 0.282617 0.500000
O O7 0.207614 0.300357 0.262968
O O8 0.140488 0.215152 0.253800
O O9 0.130502 0.356744 0.277275
O O10 0.289111 0.647530 0.812501
O O11 0.225435 0.649470 0.000000
O O12 0.646626 0.354612 0.000000
O O13 0.500000 0.886050 0.500000
O O14 0.547923 0.899483 0.734909
O O15 0.500000 0.000000 0.656241
O O16 0.903785 0.579141 0.500000
O O17 0.891614 0.500000 0.726673
#
# Coordination Sequence:
#
# PCOD9487925 Si02
#       7
#     8   8  16  16  16   8  16
#     4   9  17  31  51  69  83 104 145 194 235 273
#     4   9  17  29  45  63  81 106 145 192 233 271
#     4  11  21  29  43  67  94 119 151 196 237 272
#     4  10  20  32  44  59  83 120 159 193 230 277
#     4  10  20  34  48  62  86 121 158 193 232 278
#     4   7  10  22  44  64  87 120 153 184 226 278
#     4   8  15  27  43  66  94 123 154 191 233 274
#
# _framework density 16.940895999999999
#
# number of rings (size 3 to 8) (size 9 to 14) (size 15 to 20)
#    0.000    2.636    0.000    3.818    1.273    6.545 
#    0.000    0.000    0.000    0.000    0.000    2.545 
#    0.000    9.455    0.000    8.545    0.000    1.636 
#
# Total GULP energy -245175.054242 kJ/mol
# GULP energy per Si atom -5572.160324 kJ/mol
# Density = 1.690234 g / cm^3
# Si number density = 16.940896 Si / 1000 Ang^3
#
#
#
# Elastic Constant Matrix: (Units=GPa)
#
#
# Indices 1 2 3 4 5 6 
#
# 1 39.6320 20.9275 18.0118 0.0000 0.0000 0.0000
# 2 20.9275 137.2714 54.0698 0.0000 0.0000 0.0000
# 3 18.0118 54.0698 74.1487 0.0000 0.0000 0.0000
# 4 0.0000 0.0000 0.0000 20.8763 0.0000 0.0000
# 5 0.0000 0.0000 0.0000 0.0000 1.9409 0.0000
# 6 0.0000 0.0000 0.0000 0.0000 0.0000 18.7789
#
#
#
# Elastic Compliance Matrix: (Units=1/GPa)
#
#
# Indices 1 2 3 4 5 6 
#
# 1 0.028872 -0.002300 -0.005336 0.000000 0.000000 0.000000
# 2 -0.002300 0.010404 -0.007028 0.000000 0.000000 0.000000
# 3 -0.005336 -0.007028 0.019907 0.000000 0.000000 0.000000
# 4 0.000000 0.000000 0.000000 0.047901 0.000000 0.000000
# 5 0.000000 0.000000 0.000000 0.000000 0.515229 0.000000
# 6 0.000000 0.000000 0.000000 0.000000 0.000000 0.053251
#
#
# Mechanical properties :
#
#
# Convention : Reuss Voigt Hill
#
# Bulk Modulus (GPa) = 33.49517 48.56336 41.02927
# Shear Modulus (GPa) = 6.99454 18.85541 12.92497
#
# Velocity S-wave (km/s) = 2.03415 3.33980 2.76514
# Velocity P-wave (km/s) = 5.03306 6.60310 5.87080
#
# Compressibility (1/GPa) = 0.02985505
#
# Stress axis : x y z
#
# Youngs Moduli (GPa) = 34.63598 96.12063 50.23251
#
# Poissons Ratio (x) = 0.22104 0.26806
# Poissons Ratio (y) = 0.07965 0.35302
# Poissons Ratio (z) = 0.18483 0.67551
#
# Static dielectric constant tensor:
#      x y z
#    x 1.593140 0.000000 0.000000 
#    y 0.000000 1.530800 0.000000 
#    z 0.000000 0.000000 1.564370 
# 
# From -- ./inp_files/18360.got.cif
#   From: 2010.05.17/outbox.cif.g08.bks.cpg/sg65_10_cif.got.tgz:18360.got - 2010.06.03 17:01:31.
