data_PCOD9487572
_publ_section_title
;
Structure prediction by ZEFSAII (Michael W. Deem and Ramdas Pophale) SiO2 
 PCOD9487572
Probable space group: C M M M
;
_chemical_formula_sum "Si O2"
_cell_formula_units_Z 52
_cell_length_a 15.311826
_cell_length_b 23.854357
_cell_length_c 7.232730
_cell_angle_alpha 90.000000
_cell_angle_beta 90.000000
_cell_angle_gamma 90.000000
_cell_volume 2641.781855
_symmetry_space_group_name_H-M "C M M M"
_symmetry_group_IT_number 65
_symmetry_cell_setting 'orthorhombic'
loop_
_space_group_symop_operation_xyz
x,y,z
-x,-y,z
x,-y,-z
-x,y,-z
-x,-y,-z
x,y,-z
-x,y,z
x,-y,z
1/2+x,1/2+y,z
1/2-x,1/2-y,z
1/2+x,1/2-y,-z
1/2-x,1/2+y,-z
1/2-x,1/2-y,-z
1/2+x,1/2+y,-z
1/2-x,1/2+y,z
1/2+x,1/2-y,z
loop_
_atom_site_type_symbol
_atom_site_label
_atom_site_fract_x
_atom_site_fract_y
_atom_site_fract_z
Si Si1 0.594729 0.620039 0.276330
Si Si2 0.731919 0.815161 0.278302
Si Si3 0.104056 0.625568 0.000000
Si Si4 0.663723 0.500000 0.278527
Si Si5 0.321370 0.000000 0.000000
O O1 0.593800 0.623512 0.500000
O O2 0.500000 0.639849 0.211622
O O3 0.679823 0.653398 0.217486
O O4 0.610777 0.555474 0.228182
O O5 0.720758 0.821050 0.500000
O O6 0.750000 0.750000 0.238237
O O7 0.651401 0.843812 0.173126
O O8 0.126265 0.558783 0.000000
O O9 0.000000 0.633178 0.000000
O O10 0.676843 0.500000 0.500000
O O11 0.756081 0.500000 0.175503
#
# Coordination Sequence:
#
# PCOD9487572 Si02
#       5
#    16  16   8   8   4
#     4   9  17  32  58  89 119 152 191 242 306 372
#     4  10  22  42  66  91 123 163 206 253 310 371
#     4  12  26  43  63  90 125 166 216 266 308 356
#     4  10  19  35  59  84 119 159 197 249 313 372
#     4  12  23  40  63  86 118 168 215 258 311 362
#
# _framework density 19.683684
#
# number of rings (size 3 to 8) (size 9 to 14) (size 15 to 20)
#    0.000    1.846    3.077    1.154    0.000    3.692 
#    0.000    6.923    0.000    2.769    0.000    0.000 
#    0.000    0.000    0.000    0.000    0.000    0.000 
#
# Total GULP energy -145197.210404 kJ/mol
# GULP energy per Si atom -5584.508092 kJ/mol
# Density = 1.963888 g / cm^3
# Si number density = 19.683684 Si / 1000 Ang^3
#
#
#
# Elastic Constant Matrix: (Units=GPa)
#
#
# Indices 1 2 3 4 5 6 
#
# 1 210.0395 77.4871 46.7159 0.0000 0.0000 0.0000
# 2 77.4871 126.3892 37.0147 0.0000 0.0000 0.0000
# 3 46.7159 37.0147 107.6218 0.0000 0.0000 0.0000
# 4 0.0000 0.0000 0.0000 -25.6302 0.0000 0.0000
# 5 0.0000 0.0000 0.0000 0.0000 21.3999 0.0000
# 6 0.0000 0.0000 0.0000 0.0000 0.0000 2.7594
#
#
#
# Elastic Compliance Matrix: (Units=1/GPa)
#
#
# Indices 1 2 3 4 5 6 
#
# 1 0.006387 -0.003451 -0.001585 0.000000 0.000000 0.000000
# 2 -0.003451 0.010663 -0.002169 0.000000 0.000000 0.000000
# 3 -0.001585 -0.002169 0.010726 0.000000 0.000000 0.000000
# 4 0.000000 0.000000 0.000000 -0.039017 0.000000 0.000000
# 5 0.000000 0.000000 0.000000 0.000000 0.046729 0.000000
# 6 0.000000 0.000000 0.000000 0.000000 0.000000 0.362395
#
#
# Mechanical properties :
#
#
# Convention : Reuss Voigt Hill
#
# Bulk Modulus (GPa) = 74.82679 85.16510 79.99594
# Shear Modulus (GPa) = 11.99758 18.56135 15.27947
#
# Velocity S-wave (km/s) = 2.47152 3.07413 2.78915
# Velocity P-wave (km/s) = 6.80013 7.48072 7.14853
#
# Compressibility (1/GPa) = 0.01336420
#
# Stress axis : x y z
#
# Youngs Moduli (GPa) = 156.57057 93.77885 93.23092
#
# Poissons Ratio (x) = 0.32367 0.14780
# Poissons Ratio (y) = 0.54039 0.20225
# Poissons Ratio (z) = 0.24822 0.20344
#
# Static dielectric constant tensor:
#      x y z
#    x 1.653200 0.000000 0.000000 
#    y 0.000000 1.687560 0.000000 
#    z 0.000000 0.000000 1.750470 
# 
# From -- ./inp_files/6123.got.cif
#   From: 2010.05.17/outbox.cif.g08.bks.cpg/sg65_4_cif.got.tgz:6123.got - 2010.06.03 17:01:31.
