data_PCOD9487734
_publ_section_title
;
Structure prediction by ZEFSAII (Michael W. Deem and Ramdas Pophale) SiO2 
 PCOD9487734
Probable space group: C M M M
;
_chemical_formula_sum "Si O2"
_cell_formula_units_Z 116
_cell_length_a 14.458321
_cell_length_b 18.456748
_cell_length_c 22.506904
_cell_angle_alpha 90.000000
_cell_angle_beta 90.000000
_cell_angle_gamma 90.000000
_cell_volume 6006.048069
_symmetry_space_group_name_H-M "C M M M"
_symmetry_group_IT_number 65
_symmetry_cell_setting 'orthorhombic'
loop_
_space_group_symop_operation_xyz
x,y,z
-x,-y,z
x,-y,-z
-x,y,-z
-x,-y,-z
x,y,-z
-x,y,z
x,-y,z
1/2+x,1/2+y,z
1/2-x,1/2-y,z
1/2+x,1/2-y,-z
1/2-x,1/2+y,-z
1/2-x,1/2-y,-z
1/2+x,1/2+y,-z
1/2-x,1/2+y,z
1/2+x,1/2-y,z
loop_
_atom_site_type_symbol
_atom_site_label
_atom_site_fract_x
_atom_site_fract_y
_atom_site_fract_z
Si Si1 0.605667 0.783382 0.106344
Si Si2 0.758361 0.000000 0.500000
Si Si3 0.607930 0.252408 0.571405
Si Si4 0.767901 0.370874 0.268524
Si Si5 0.248096 0.374994 0.601068
Si Si6 0.605806 0.261686 0.755211
Si Si7 0.221261 0.421049 0.863897
Si Si8 0.609337 0.373075 0.933177
O O1 0.500000 0.802450 0.091962
O O2 0.609299 0.754248 0.174251
O O3 0.667844 0.854429 0.105672
O O4 0.632292 0.712857 0.069041
O O5 0.757408 0.936251 0.551869
O O6 0.613585 0.261233 0.500000
O O7 0.500000 0.250855 0.588253
O O8 0.664186 0.319755 0.599151
O O9 0.661551 0.178323 0.586965
O O10 0.762839 0.406857 0.332701
O O11 0.671526 0.328830 0.258008
O O12 0.846474 0.308608 0.273334
O O13 0.786315 0.413070 0.207466
O O14 0.500000 0.271624 0.737552
O O15 0.185892 0.500000 0.881488
O O16 0.326559 0.412310 0.885691
O O17 0.500000 0.379400 0.919858
O O18 0.625690 0.400337 0.000000
#
# Coordination Sequence:
#
# PCOD9487734 Si02
#       8
#    16   4  16  16  16  16  16  16
#     4   9  18  35  59  84 113 148 191 239 284 330
#     4  12  24  42  58  76 120 160 186 234 286 344
#     4  10  19  38  64  86 108 140 188 242 289 338
#     4  10  21  33  55  85 112 147 191 230 284 346
#     4  11  22  39  59  84 112 149 190 233 290 343
#     4   9  16  32  58  85 113 141 182 244 290 324
#     4  11  23  37  53  84 122 156 189 230 282 341
#     4  10  21  39  64  88 112 150 197 242 285 330
#
# _framework density 19.313866000000001
#
# number of rings (size 3 to 8) (size 9 to 14) (size 15 to 20)
#    0.000    1.931    2.759    2.483    0.966    4.138 
#    0.000    2.069    0.000    0.000    0.000    2.897 
#    0.000    0.000    0.000    0.000    0.000    0.000 
#
# Total GULP energy -323162.348050 kJ/mol
# GULP energy per Si atom -5571.764622 kJ/mol
# Density = 1.926991 g / cm^3
# Si number density = 19.313866 Si / 1000 Ang^3
#
#
#
# Elastic Constant Matrix: (Units=GPa)
#
#
# Indices 1 2 3 4 5 6 
#
# 1 87.7214 22.2055 -8.6579 0.0000 0.0000 0.0000
# 2 22.2055 78.7175 5.9387 0.0000 0.0000 0.0000
# 3 -8.6579 5.9387 41.3854 0.0000 0.0000 0.0000
# 4 0.0000 0.0000 0.0000 -0.5830 0.0000 0.0000
# 5 0.0000 0.0000 0.0000 0.0000 8.7271 0.0000
# 6 0.0000 0.0000 0.0000 0.0000 0.0000 2.1430
#
#
#
# Elastic Compliance Matrix: (Units=1/GPa)
#
#
# Indices 1 2 3 4 5 6 
#
# 1 0.012682 -0.003819 0.003201 0.000000 0.000000 0.000000
# 2 -0.003819 0.013993 -0.002807 0.000000 0.000000 0.000000
# 3 0.003201 -0.002807 0.025236 0.000000 0.000000 0.000000
# 4 0.000000 0.000000 0.000000 -1.715158 0.000000 0.000000
# 5 0.000000 0.000000 0.000000 0.000000 0.114586 0.000000
# 6 0.000000 0.000000 0.000000 0.000000 0.000000 0.466628
#
#
# Mechanical properties :
#
#
# Convention : Reuss Voigt Hill
#
# Bulk Modulus (GPa) = 22.19204 27.42187 24.80696
# Shear Modulus (GPa) = -4.71625 14.61328 4.94851
#
# Velocity S-wave (km/s) = -1.56435 2.75366 1.60241
# Velocity P-wave (km/s) = 2.87267 4.93346 4.03678
#
# Compressibility (1/GPa) = 0.04506120
#
# Stress axis : x y z
#
# Youngs Moduli (GPa) = 78.84925 71.46556 39.62663
#
# Poissons Ratio (x) = 0.27293 -0.12685
# Poissons Ratio (y) = 0.30113 0.11123
# Poissons Ratio (z) = -0.25241 0.20059
#
# Static dielectric constant tensor:
#      x y z
#    x 1.672690 0.000000 0.000000 
#    y 0.000000 1.651300 0.000000 
#    z 0.000000 0.000000 1.711870 
# 
# From -- ./inp_files/70161.got.cif
#   From: 2010.05.17/outbox.cif.g08.bks.cpg/sg65_36_cif.got.tgz:70161.got - 2010.06.03 17:01:31.
