data_PCOD9487300
_publ_section_title
;
Structure prediction by ZEFSAII (Michael W. Deem and Ramdas Pophale) SiO2 
 PCOD9487300
Probable space group: C M M M
;
_chemical_formula_sum "Si O2"
_cell_formula_units_Z 88
_cell_length_a 8.701709
_cell_length_b 19.771108
_cell_length_c 28.566093
_cell_angle_alpha 90.000000
_cell_angle_beta 90.000000
_cell_angle_gamma 90.000000
_cell_volume 4914.580010
_symmetry_space_group_name_H-M "C M M M"
_symmetry_group_IT_number 65
_symmetry_cell_setting 'orthorhombic'
loop_
_space_group_symop_operation_xyz
x,y,z
-x,-y,z
x,-y,-z
-x,y,-z
-x,-y,-z
x,y,-z
-x,y,z
x,-y,z
1/2+x,1/2+y,z
1/2-x,1/2-y,z
1/2+x,1/2-y,-z
1/2-x,1/2+y,-z
1/2-x,1/2-y,-z
1/2+x,1/2+y,-z
1/2-x,1/2+y,z
1/2+x,1/2-y,z
loop_
_atom_site_type_symbol
_atom_site_label
_atom_site_fract_x
_atom_site_fract_y
_atom_site_fract_z
Si Si1 0.816830 0.079898 0.265556
Si Si2 0.815922 0.175078 0.553737
Si Si3 0.812948 0.922427 0.000000
Si Si4 0.316685 0.824054 0.813465
Si Si5 0.683539 0.079302 0.633349
Si Si6 0.185190 0.824408 0.915795
O O1 0.735723 0.123168 0.225593
O O2 0.757642 0.099719 0.317085
O O3 0.000000 0.089255 0.262838
O O4 0.783140 0.000000 0.259646
O O5 0.776161 0.156314 0.500000
O O6 0.750000 0.250000 0.562107
O O7 0.747286 0.123657 0.591107
O O8 0.000000 0.176664 0.557675
O O9 0.767645 0.879647 0.045752
O O10 0.000000 0.924256 0.000000
O O11 0.758707 0.000000 0.000000
O O12 0.500000 0.820361 0.816511
O O13 0.250000 0.750000 0.801644
O O14 0.248164 0.841944 0.864394
O O15 0.500000 0.086198 0.636480
O O16 0.720294 0.000000 0.625850
O O17 0.250000 0.750000 0.927949
O O18 0.000000 0.820790 0.914323
#
# Coordination Sequence:
#
# PCOD9487300 Si02
#       6
#    16  16   8  16  16  16
#     4  10  21  38  59  82 110 144 181 222 271 325
#     4  10  21  37  57  81 110 144 183 227 274 324
#     4   9  19  34  53  79 108 139 178 222 266 317
#     4  11  22  37  57  82 112 143 182 227 271 322
#     4  10  21  37  57  82 112 145 182 224 270 322
#     4  10  19  34  56  79 106 141 180 221 268 320
#
# _framework density 17.905904
#
# number of rings (size 3 to 8) (size 9 to 14) (size 15 to 20)
#    0.000    1.909    0.000    5.182    0.000    5.091 
#    0.000    8.636    0.000    3.818    0.000    0.000 
#    0.000    0.000    0.000    0.000    0.000    0.000 
#
# Total GULP energy -245783.757850 kJ/mol
# GULP energy per Si atom -5585.994497 kJ/mol
# Density = 1.786515 g / cm^3
# Si number density = 17.905904 Si / 1000 Ang^3
#
#
#
# Elastic Constant Matrix: (Units=GPa)
#
#
# Indices 1 2 3 4 5 6 
#
# 1 87.4048 54.9936 64.1073 0.0000 0.0000 0.0000
# 2 54.9936 104.4437 111.0699 0.0000 0.0000 0.0000
# 3 64.1073 111.0699 149.3223 0.0000 0.0000 0.0000
# 4 0.0000 0.0000 0.0000 42.7794 0.0000 0.0000
# 5 0.0000 0.0000 0.0000 0.0000 30.9262 0.0000
# 6 0.0000 0.0000 0.0000 0.0000 0.0000 28.3251
#
#
#
# Elastic Compliance Matrix: (Units=1/GPa)
#
#
# Indices 1 2 3 4 5 6 
#
# 1 0.017411 -0.005830 -0.003138 0.000000 0.000000 0.000000
# 2 -0.005830 0.047767 -0.033027 0.000000 0.000000 0.000000
# 3 -0.003138 -0.033027 0.032611 0.000000 0.000000 0.000000
# 4 0.000000 0.000000 0.000000 0.023376 0.000000 0.000000
# 5 0.000000 0.000000 0.000000 0.000000 0.032335 0.000000
# 6 0.000000 0.000000 0.000000 0.000000 0.000000 0.035304
#
#
# Mechanical properties :
#
#
# Convention : Reuss Voigt Hill
#
# Bulk Modulus (GPa) = 72.47801 89.05693 80.76747
# Shear Modulus (GPa) = 18.02484 27.80614 22.91549
#
# Velocity S-wave (km/s) = 3.17620 3.94496 3.58127
# Velocity P-wave (km/s) = 7.34956 8.40205 7.89337
#
# Compressibility (1/GPa) = 0.01379729
#
# Stress axis : x y z
#
# Youngs Moduli (GPa) = 57.43473 20.93492 30.66465
#
# Poissons Ratio (x) = 0.12206 0.09623
# Poissons Ratio (y) = 0.33486 1.01277
# Poissons Ratio (z) = 0.18024 0.69142
#
# Static dielectric constant tensor:
#      x y z
#    x 1.601410 0.000000 0.000000 
#    y 0.000000 1.588880 0.000000 
#    z 0.000000 0.000000 1.589020 
# 
# From -- ./inp_files/67583.got.cif
#   From: 2010.05.17/outbox.cif.g08.bks.cpg/sg65_34_cif.got.tgz:67583.got - 2010.06.03 17:01:31.
