data_PCOD9487468
_publ_section_title
;
Structure prediction by ZEFSAII (Michael W. Deem and Ramdas Pophale) SiO2 
 PCOD9487468
Probable space group: C M M M
;
_chemical_formula_sum "Si O2"
_cell_formula_units_Z 84
_cell_length_a 14.300566
_cell_length_b 25.112374
_cell_length_c 13.414951
_cell_angle_alpha 90.000000
_cell_angle_beta 90.000000
_cell_angle_gamma 90.000000
_cell_volume 4817.592789
_symmetry_space_group_name_H-M "C M M M"
_symmetry_group_IT_number 65
_symmetry_cell_setting 'orthorhombic'
loop_
_space_group_symop_operation_xyz
x,y,z
-x,-y,z
x,-y,-z
-x,y,-z
-x,-y,-z
x,y,-z
-x,y,z
x,-y,z
1/2+x,1/2+y,z
1/2-x,1/2-y,z
1/2+x,1/2-y,-z
1/2-x,1/2+y,-z
1/2-x,1/2-y,-z
1/2+x,1/2+y,-z
1/2-x,1/2+y,z
1/2+x,1/2-y,z
loop_
_atom_site_type_symbol
_atom_site_label
_atom_site_fract_x
_atom_site_fract_y
_atom_site_fract_z
Si Si1 0.000000 0.297276 0.500000
Si Si2 0.106192 0.172316 0.806085
Si Si3 0.149016 0.731361 0.331512
Si Si4 0.886398 0.361959 0.000000
Si Si5 0.612609 0.260994 0.000000
Si Si6 0.890411 0.435949 0.611245
Si Si7 0.699887 0.127862 0.789270
O O1 0.081479 0.293047 0.586917
O O2 0.106714 0.215411 0.717392
O O3 0.137894 0.205933 0.902694
O O4 0.187587 0.129564 0.791119
O O5 0.000000 0.152567 0.820045
O O6 0.250000 0.750000 0.371196
O O7 0.166884 0.686949 0.246144
O O8 0.844708 0.384744 0.896902
O O9 0.855818 0.299715 0.000000
O O10 0.000000 0.365668 0.000000
O O11 0.500000 0.257786 0.000000
O O12 0.857995 0.419346 0.500000
O O13 0.886100 0.500000 0.615461
O O14 0.836053 0.410521 0.702294
O O15 0.000000 0.420485 0.617448
#
# Coordination Sequence:
#
# PCOD9487468 Si02
#       7
#     4  16  16   8   8  16  16
#     4  12  22  32  48  60 105 144 173 228 256 304
#     4  10  19  35  49  73 106 144 181 215 252 301
#     4  10  22  33  46  71 102 139 180 212 258 311
#     4  11  21  31  51  81 114 143 176 219 262 307
#     4   9  17  29  51  68 104 149 181 209 243 295
#     4   9  20  39  61  81 103 133 172 220 272 327
#     4  11  22  33  54  79 105 137 181 218 260 317
#
# _framework density 17.436094000000001
#
# number of rings (size 3 to 8) (size 9 to 14) (size 15 to 20)
#    0.000    1.905    2.857    2.000    4.000    0.762 
#    1.714    0.476    0.000    2.286    0.000    1.333 
#    0.000    3.810    0.000    0.000    0.000    0.000 
#
# Total GULP energy -233849.110169 kJ/mol
# GULP energy per Si atom -5567.835956 kJ/mol
# Density = 1.739641 g / cm^3
# Si number density = 17.436094 Si / 1000 Ang^3
#
#
#
# Elastic Constant Matrix: (Units=GPa)
#
#
# Indices 1 2 3 4 5 6 
#
# 1 123.2452 22.8301 60.2711 0.0000 0.0000 0.0000
# 2 22.8301 32.8389 28.6779 0.0000 0.0000 0.0000
# 3 60.2711 28.6779 133.9864 0.0000 0.0000 0.0000
# 4 0.0000 0.0000 0.0000 23.5808 0.0000 0.0000
# 5 0.0000 0.0000 0.0000 0.0000 31.0393 0.0000
# 6 0.0000 0.0000 0.0000 0.0000 0.0000 19.9256
#
#
#
# Elastic Compliance Matrix: (Units=1/GPa)
#
#
# Indices 1 2 3 4 5 6 
#
# 1 0.010818 -0.004023 -0.004005 0.000000 0.000000 0.000000
# 2 -0.004023 0.038948 -0.006527 0.000000 0.000000 0.000000
# 3 -0.004005 -0.006527 0.010662 0.000000 0.000000 0.000000
# 4 0.000000 0.000000 0.000000 0.042407 0.000000 0.000000
# 5 0.000000 0.000000 0.000000 0.000000 0.032217 0.000000
# 6 0.000000 0.000000 0.000000 0.000000 0.000000 0.050187
#
#
# Mechanical properties :
#
#
# Convention : Reuss Voigt Hill
#
# Bulk Modulus (GPa) = 31.93007 57.06986 44.49997
# Shear Modulus (GPa) = 22.24315 26.79524 24.51919
#
# Velocity S-wave (km/s) = 3.57556 3.92442 3.75404
# Velocity P-wave (km/s) = 5.94967 7.30319 6.66090
#
# Compressibility (1/GPa) = 0.03131844
#
# Stress axis : x y z
#
# Youngs Moduli (GPa) = 92.44054 25.67509 93.79127
#
# Poissons Ratio (x) = 0.10329 0.37564
# Poissons Ratio (y) = 0.37190 0.61214
# Poissons Ratio (z) = 0.37023 0.16757
#
# Static dielectric constant tensor:
#      x y z
#    x 1.611550 0.000000 0.000000 
#    y 0.000000 1.585930 0.000000 
#    z 0.000000 0.000000 1.607240 
# 
# From -- ./inp_files/24856.got.cif
#   From: 2010.05.17/outbox.cif.g08.bks.cpg/sg65_13_cif.got.tgz:24856.got - 2010.06.03 17:01:31.
