data_PCOD9487284
_publ_section_title
;
Structure prediction by ZEFSAII (Michael W. Deem and Ramdas Pophale) SiO2 
 PCOD9487284
Probable space group: C M M M
;
_chemical_formula_sum "Si O2"
_cell_formula_units_Z 80
_cell_length_a 29.293350
_cell_length_b 21.201801
_cell_length_c 7.840169
_cell_angle_alpha 90.000000
_cell_angle_beta 90.000000
_cell_angle_gamma 90.000000
_cell_volume 4869.307695
_symmetry_space_group_name_H-M "C M M M"
_symmetry_group_IT_number 65
_symmetry_cell_setting 'orthorhombic'
loop_
_space_group_symop_operation_xyz
x,y,z
-x,-y,z
x,-y,-z
-x,y,-z
-x,-y,-z
x,y,-z
-x,y,z
x,-y,z
1/2+x,1/2+y,z
1/2-x,1/2-y,z
1/2+x,1/2-y,-z
1/2-x,1/2+y,-z
1/2-x,1/2-y,-z
1/2+x,1/2+y,-z
1/2-x,1/2+y,z
1/2+x,1/2-y,z
loop_
_atom_site_type_symbol
_atom_site_label
_atom_site_fract_x
_atom_site_fract_y
_atom_site_fract_z
Si Si1 0.853666 0.092972 0.196308
Si Si2 0.248597 0.569303 0.794336
Si Si3 0.052558 0.213173 0.500000
Si Si4 0.421827 0.567814 0.500000
Si Si5 0.618956 0.262557 0.190036
Si Si6 0.290116 0.796755 0.699284
O O1 0.802584 0.073400 0.243509
O O2 0.889832 0.069070 0.332643
O O3 0.857413 0.168643 0.202175
O O4 0.862692 0.073827 0.000000
O O5 0.231779 0.500000 0.739166
O O6 0.225193 0.631083 0.719052
O O7 0.244382 0.573066 0.000000
O O8 0.053752 0.136016 0.500000
O O9 0.080627 0.237411 0.664493
O O10 0.000000 0.233123 0.500000
O O11 0.446692 0.500000 0.500000
O O12 0.660940 0.215119 0.216359
O O13 0.599485 0.255804 0.000000
O O14 0.295778 0.780702 0.500000
O O15 0.250000 0.750000 0.767097
#
# Coordination Sequence:
#
# PCOD9487284 Si02
#       6
#    16  16   8   8  16  16
#     4   9  18  31  47  69  99 134 175 217 252 292
#     4  10  20  31  44  67 103 145 182 215 251 294
#     4  10  22  39  54  74 102 125 166 227 275 318
#     4  10  20  31  49  71  94 131 172 213 266 315
#     4  10  19  34  56  77  99 133 174 214 263 311
#     4  11  21  31  50  76 108 142 178 217 255 309
#
# _framework density 16.42944
#
# number of rings (size 3 to 8) (size 9 to 14) (size 15 to 20)
#    0.000    2.000    3.000    1.200    1.400    3.000 
#    0.000    0.000    0.000    0.000    0.000    5.600 
#    0.000    1.600    0.000    4.200    0.000    0.000 
#
# Total GULP energy -223095.044657 kJ/mol
# GULP energy per Si atom -5577.376116 kJ/mol
# Density = 1.639205 g / cm^3
# Si number density = 16.429440 Si / 1000 Ang^3
#
#
#
# Elastic Constant Matrix: (Units=GPa)
#
#
# Indices 1 2 3 4 5 6 
#
# 1 89.0108 34.5282 43.8842 0.0000 0.0000 0.0000
# 2 34.5282 72.6771 19.1135 0.0000 0.0000 0.0000
# 3 43.8842 19.1135 80.6730 0.0000 0.0000 0.0000
# 4 0.0000 0.0000 0.0000 27.0990 0.0000 0.0000
# 5 0.0000 0.0000 0.0000 0.0000 6.4114 0.0000
# 6 0.0000 0.0000 0.0000 0.0000 0.0000 -4.4953
#
#
#
# Elastic Compliance Matrix: (Units=1/GPa)
#
#
# Indices 1 2 3 4 5 6 
#
# 1 0.017670 -0.006257 -0.008129 0.000000 0.000000 0.000000
# 2 -0.006257 0.016889 -0.000598 0.000000 0.000000 0.000000
# 3 -0.008129 -0.000598 0.016960 0.000000 0.000000 0.000000
# 4 0.000000 0.000000 0.000000 0.036902 0.000000 0.000000
# 5 0.000000 0.000000 0.000000 0.000000 0.155973 0.000000
# 6 0.000000 0.000000 0.000000 0.000000 0.000000 -0.222457
#
#
# Mechanical properties :
#
#
# Convention : Reuss Voigt Hill
#
# Bulk Modulus (GPa) = 46.40335 48.60141 47.50238
# Shear Modulus (GPa) = 84.61915 15.45869 50.03892
#
# Velocity S-wave (km/s) = 7.18446 3.07076 5.52476
# Velocity P-wave (km/s) = 9.85531 6.49761 8.34704
#
# Compressibility (1/GPa) = 0.02155017
#
# Stress axis : x y z
#
# Youngs Moduli (GPa) = 56.59428 59.20922 58.96350
#
# Poissons Ratio (x) = 0.37045 0.47934
# Poissons Ratio (y) = 0.35409 0.03526
# Poissons Ratio (z) = 0.46008 0.03541
#
# Static dielectric constant tensor:
#      x y z
#    x 1.510900 0.000000 0.000000 
#    y 0.000000 1.580440 0.000000 
#    z 0.000000 0.000000 1.582770 
# 
# From -- ./inp_files/13829.got.cif
#   From: 2010.05.17/outbox.cif.g08.bks.cpg/sg65_7_cif.got.tgz:13829.got - 2010.06.03 17:01:31.
