data_PCOD9487263
_publ_section_title
;
Structure prediction by ZEFSAII (Michael W. Deem and Ramdas Pophale) SiO2 
 PCOD9487263
Probable space group: C M M M
;
_chemical_formula_sum "Si O2"
_cell_formula_units_Z 88
_cell_length_a 16.925902
_cell_length_b 19.093724
_cell_length_c 14.040240
_cell_angle_alpha 90.000000
_cell_angle_beta 90.000000
_cell_angle_gamma 90.000000
_cell_volume 4537.503720
_symmetry_space_group_name_H-M "C M M M"
_symmetry_group_IT_number 65
_symmetry_cell_setting 'orthorhombic'
loop_
_space_group_symop_operation_xyz
x,y,z
-x,-y,z
x,-y,-z
-x,y,-z
-x,-y,-z
x,y,-z
-x,y,z
x,-y,z
1/2+x,1/2+y,z
1/2-x,1/2-y,z
1/2+x,1/2-y,-z
1/2-x,1/2+y,-z
1/2-x,1/2-y,-z
1/2+x,1/2+y,-z
1/2-x,1/2+y,z
1/2+x,1/2-y,z
loop_
_atom_site_type_symbol
_atom_site_label
_atom_site_fract_x
_atom_site_fract_y
_atom_site_fract_z
Si Si1 0.093730 0.696427 0.706567
Si Si2 0.188589 0.417940 0.385424
Si Si3 0.653805 0.334695 0.614704
Si Si4 0.907045 0.924538 0.883839
Si Si5 0.000000 0.919866 0.616153
Si Si6 0.903939 0.771453 0.107594
O O1 0.118145 0.621135 0.668237
O O2 0.141853 0.755964 0.649803
O O3 0.114053 0.711731 0.816528
O O4 0.000000 0.708526 0.692917
O O5 0.178714 0.411203 0.500000
O O6 0.195539 0.500000 0.363939
O O7 0.267467 0.375600 0.357371
O O8 0.652952 0.333200 0.500000
O O9 0.577902 0.379295 0.647279
O O10 0.874149 0.848034 0.857413
O O11 0.000000 0.925102 0.857650
O O12 0.872936 0.000000 0.852197
O O13 0.904784 0.924046 0.000000
O O14 0.000000 0.919981 0.500000
O O15 0.000000 0.000000 0.646846
O O16 0.000000 0.776964 0.104149
O O17 0.876526 0.758231 0.000000
#
# Coordination Sequence:
#
# PCOD9487263 Si02
#       6
#    16  16  16  16   8  16
#     4  11  21  33  54  84 115 143 184 234 282 328
#     4  10  22  39  58  79 107 149 192 227 273 334
#     4  10  19  34  55  80 111 144 179 220 270 331
#     4   7   9  16  33  56  85 124 166 207 253 305
#     4   9  16  28  50  78 110 144 174 213 264 318
#     4   8  15  28  46  70 104 144 185 228 275 328
#
# _framework density 19.393923999999998
#
# number of rings (size 3 to 8) (size 9 to 14) (size 15 to 20)
#    0.000    2.818    0.909    3.273    0.000    5.091 
#    0.000    2.727    0.000    2.727    0.000    2.545 
#    0.000    0.000    0.000    0.000    0.000    0.000 
#
# Total GULP energy -245457.436714 kJ/mol
# GULP energy per Si atom -5578.578107 kJ/mol
# Density = 1.934978 g / cm^3
# Si number density = 19.393924 Si / 1000 Ang^3
#
#
#
# Elastic Constant Matrix: (Units=GPa)
#
#
# Indices 1 2 3 4 5 6 
#
# 1 34.9452 41.4578 24.7777 0.0000 0.0000 0.0000
# 2 41.4578 98.3064 38.4909 0.0000 0.0000 0.0000
# 3 24.7777 38.4909 58.9934 0.0000 0.0000 0.0000
# 4 0.0000 0.0000 0.0000 15.3786 0.0000 0.0000
# 5 0.0000 0.0000 0.0000 0.0000 5.2489 0.0000
# 6 0.0000 0.0000 0.0000 0.0000 0.0000 8.0771
#
#
#
# Elastic Compliance Matrix: (Units=1/GPa)
#
#
# Indices 1 2 3 4 5 6 
#
# 1 0.063295 -0.021871 -0.012314 0.000000 0.000000 0.000000
# 2 -0.021871 0.021220 -0.004659 0.000000 0.000000 0.000000
# 3 -0.012314 -0.004659 0.025163 0.000000 0.000000 0.000000
# 4 0.000000 0.000000 0.000000 0.065025 0.000000 0.000000
# 5 0.000000 0.000000 0.000000 0.000000 0.190517 0.000000
# 6 0.000000 0.000000 0.000000 0.000000 0.000000 0.123807
#
#
# Mechanical properties :
#
#
# Convention : Reuss Voigt Hill
#
# Bulk Modulus (GPa) = 31.26100 44.63309 37.94705
# Shear Modulus (GPa) = 8.65981 11.57548 10.11765
#
# Velocity S-wave (km/s) = 2.11540 2.44572 2.28653
# Velocity P-wave (km/s) = 4.70324 5.57130 5.15557
#
# Compressibility (1/GPa) = 0.03198874
#
# Stress axis : x y z
#
# Youngs Moduli (GPa) = 15.79903 47.12512 39.74080
#
# Poissons Ratio (x) = 1.03069 0.48938
# Poissons Ratio (y) = 0.34555 0.18516
# Poissons Ratio (z) = 0.19455 0.21956
#
# Static dielectric constant tensor:
#      x y z
#    x 1.677210 0.000000 0.000000 
#    y 0.000000 1.686980 0.000000 
#    z 0.000000 0.000000 1.721830 
# 
# From -- ./inp_files/42503.got.cif
#   From: 2010.05.17/outbox.cif.g08.bks.cpg/sg65_22_cif.got.tgz:42503.got - 2010.06.03 17:01:31.
