data_PCOD9487297
_publ_section_title
;
Structure prediction by ZEFSAII (Michael W. Deem and Ramdas Pophale) SiO2 
 PCOD9487297
Probable space group: C M M M
;
_chemical_formula_sum "Si O2"
_cell_formula_units_Z 104
_cell_length_a 19.824728
_cell_length_b 34.076232
_cell_length_c 9.005294
_cell_angle_alpha 90.000000
_cell_angle_beta 90.000000
_cell_angle_gamma 90.000000
_cell_volume 6083.544648
_symmetry_space_group_name_H-M "C M M M"
_symmetry_group_IT_number 65
_symmetry_cell_setting 'orthorhombic'
loop_
_space_group_symop_operation_xyz
x,y,z
-x,-y,z
x,-y,-z
-x,y,-z
-x,-y,-z
x,y,-z
-x,y,z
x,-y,z
1/2+x,1/2+y,z
1/2-x,1/2-y,z
1/2+x,1/2-y,-z
1/2-x,1/2+y,-z
1/2-x,1/2-y,-z
1/2+x,1/2+y,-z
1/2-x,1/2+y,z
1/2+x,1/2-y,z
loop_
_atom_site_type_symbol
_atom_site_label
_atom_site_fract_x
_atom_site_fract_y
_atom_site_fract_z
Si Si1 0.318780 0.156801 0.822771
Si Si2 0.671210 0.760090 0.323437
Si Si3 0.578893 0.306948 0.820756
Si Si4 0.671118 0.622271 0.177028
Si Si5 0.220918 0.044392 0.321357
Si Si6 0.500000 0.046650 0.168307
Si Si7 0.632830 0.921567 0.677679
O O1 0.339660 0.198164 0.754606
O O2 0.239928 0.146722 0.791528
O O3 0.358523 0.121490 0.746221
O O4 0.327705 0.156669 0.000000
O O5 0.660372 0.762839 0.500000
O O6 0.750000 0.750000 0.297917
O O7 0.623388 0.726814 0.254834
O O8 0.500000 0.303805 0.783418
O O9 0.609854 0.349385 0.778535
O O10 0.585913 0.303474 0.000000
O O11 0.677704 0.580060 0.254253
O O12 0.668394 0.615992 0.000000
O O13 0.215501 0.045720 0.500000
O O14 0.299038 0.054332 0.283387
O O15 0.204213 0.000000 0.272314
O O16 0.566650 0.059649 0.254010
O O17 0.500000 0.000000 0.160712
O O18 0.500000 0.062596 0.000000
O O19 0.628698 0.919806 0.500000
#
# Coordination Sequence:
#
# PCOD9487297 Si02
#       7
#    16  16  16  16  16   8  16
#     4  10  19  34  56  79 106 138 177 223 273 323
#     4  11  22  35  56  84 113 145 184 227 270 322
#     4  10  21  38  58  81 110 144 183 225 274 328
#     4   9  18  32  53  80 106 136 172 215 265 317
#     4   9  18  32  52  79 107 135 171 217 268 321
#     4  11  23  37  53  75 105 143 187 229 273 331
#     4  10  20  35  54  76 105 139 179 226 276 328
#
# _framework density 17.095296999999999
#
# number of rings (size 3 to 8) (size 9 to 14) (size 15 to 20)
#    0.000    2.077    1.538    2.077    0.000    4.308 
#    1.385    0.000    0.000    0.462    0.000    3.231 
#    0.000    0.000    0.000    0.000    0.000    0.000 
#
# Total GULP energy -290178.041981 kJ/mol
# GULP energy per Si atom -5580.346961 kJ/mol
# Density = 1.705639 g / cm^3
# Si number density = 17.095297 Si / 1000 Ang^3
#
#
#
# Elastic Constant Matrix: (Units=GPa)
#
#
# Indices 1 2 3 4 5 6 
#
# 1 89.8096 60.6828 51.1493 0.0000 0.0000 0.0000
# 2 60.6828 160.7369 59.0803 0.0000 0.0000 0.0000
# 3 51.1493 59.0803 51.8964 0.0000 0.0000 0.0000
# 4 0.0000 0.0000 0.0000 31.1790 0.0000 0.0000
# 5 0.0000 0.0000 0.0000 0.0000 -66.3135 0.0000
# 6 0.0000 0.0000 0.0000 0.0000 0.0000 22.6954
#
#
#
# Elastic Compliance Matrix: (Units=1/GPa)
#
#
# Indices 1 2 3 4 5 6 
#
# 1 0.025424 -0.000667 -0.024299 0.000000 0.000000 0.000000
# 2 -0.000667 0.010715 -0.011541 0.000000 0.000000 0.000000
# 3 -0.024299 -0.011541 0.056356 0.000000 0.000000 0.000000
# 4 0.000000 0.000000 0.000000 0.032073 0.000000 0.000000
# 5 0.000000 0.000000 0.000000 0.000000 -0.015080 0.000000
# 6 0.000000 0.000000 0.000000 0.000000 0.000000 0.044062
#
#
# Mechanical properties :
#
#
# Convention : Reuss Voigt Hill
#
# Bulk Modulus (GPa) = 51.32840 71.58530 61.45685
# Shear Modulus (GPa) = 21.45386 6.28089 13.86737
#
# Velocity S-wave (km/s) = 3.54638 1.91886 2.85121
# Velocity P-wave (km/s) = 6.84537 6.84650 6.84594
#
# Compressibility (1/GPa) = 0.01948239
#
# Stress axis : x y z
#
# Youngs Moduli (GPa) = 39.33239 93.32565 17.74422
#
# Poissons Ratio (x) = 0.06227 0.43116
# Poissons Ratio (y) = 0.02624 0.20478
# Poissons Ratio (z) = 0.95573 1.07705
#
# Static dielectric constant tensor:
#      x y z
#    x 1.572200 0.000000 0.000000 
#    y 0.000000 1.566960 0.000000 
#    z 0.000000 0.000000 1.571680 
# 
# From -- ./inp_files/12838.got.cif
#   From: 2010.05.17/outbox.cif.g08.bks.cpg/sg65_7_cif.got.tgz:12838.got - 2010.06.03 17:01:31.
