data_PCOD9487476
_publ_section_title
;
Structure prediction by ZEFSAII (Michael W. Deem and Ramdas Pophale) SiO2 
 PCOD9487476
Probable space group: C M M M
;
_chemical_formula_sum "Si O2"
_cell_formula_units_Z 88
_cell_length_a 8.888591
_cell_length_b 32.657491
_cell_length_c 16.887712
_cell_angle_alpha 90.000000
_cell_angle_beta 90.000000
_cell_angle_gamma 90.000000
_cell_volume 4902.149513
_symmetry_space_group_name_H-M "C M M M"
_symmetry_group_IT_number 65
_symmetry_cell_setting 'orthorhombic'
loop_
_space_group_symop_operation_xyz
x,y,z
-x,-y,z
x,-y,-z
-x,y,-z
-x,-y,-z
x,y,-z
-x,y,z
x,-y,z
1/2+x,1/2+y,z
1/2-x,1/2-y,z
1/2+x,1/2-y,-z
1/2-x,1/2+y,-z
1/2-x,1/2-y,-z
1/2+x,1/2+y,-z
1/2-x,1/2+y,z
1/2+x,1/2-y,z
loop_
_atom_site_type_symbol
_atom_site_label
_atom_site_fract_x
_atom_site_fract_y
_atom_site_fract_z
Si Si1 0.677413 0.206428 0.904977
Si Si2 0.674817 0.059812 0.411918
Si Si3 0.318997 0.544556 0.242509
Si Si4 0.674475 0.153612 0.635430
Si Si5 0.321598 0.294063 0.500000
Si Si6 0.180902 0.134591 0.197103
O O1 0.500000 0.207035 0.886451
O O2 0.750000 0.250000 0.879017
O O3 0.751717 0.166239 0.866233
O O4 0.695498 0.204155 0.000000
O O5 0.730723 0.048182 0.500000
O O6 0.500000 0.047052 0.405934
O O7 0.762408 0.046068 0.333573
O O8 0.676352 0.108928 0.404854
O O9 0.500000 0.545680 0.243698
O O10 0.271570 0.500000 0.209378
O O11 0.270564 0.586242 0.197155
O O12 0.500000 0.165388 0.646822
O O13 0.760052 0.183275 0.577110
O O14 0.759278 0.150163 0.718357
O O15 0.500000 0.293098 0.500000
O O16 0.250000 0.250000 0.500000
O O17 0.000000 0.135807 0.192995
#
# Coordination Sequence:
#
# PCOD9487476 Si02
#       6
#    16  16  16  16   8  16
#     4  10  21  38  61  89 118 145 174 214 267 327
#     4   9  17  30  48  69  95 130 173 222 275 324
#     4   9  19  34  50  73 106 143 184 228 272 320
#     4  10  19  35  53  71  99 136 178 223 271 321
#     4  12  24  36  50  70  97 132 177 226 276 325
#     4  10  20  35  57  84 111 145 185 224 272 324
#
# _framework density 17.951309999999999
#
# number of rings (size 3 to 8) (size 9 to 14) (size 15 to 20)
#    0.000    2.182    0.909    2.455    0.000    4.364 
#    0.000    5.455    0.000    0.545    0.000    3.818 
#    0.000    0.000    0.000    0.000    0.000    0.000 
#
# Total GULP energy -245323.755386 kJ/mol
# GULP energy per Si atom -5575.539895 kJ/mol
# Density = 1.791045 g / cm^3
# Si number density = 17.951310 Si / 1000 Ang^3
#
#
#
# Elastic Constant Matrix: (Units=GPa)
#
#
# Indices 1 2 3 4 5 6 
#
# 1 77.3556 68.8645 33.5597 0.0000 0.0000 0.0000
# 2 68.8645 167.7889 48.4031 0.0000 0.0000 0.0000
# 3 33.5597 48.4031 44.4701 0.0000 0.0000 0.0000
# 4 0.0000 0.0000 0.0000 207.8048 0.0000 0.0000
# 5 0.0000 0.0000 0.0000 0.0000 27.9171 0.0000
# 6 0.0000 0.0000 0.0000 0.0000 0.0000 16.2592
#
#
#
# Elastic Compliance Matrix: (Units=1/GPa)
#
#
# Indices 1 2 3 4 5 6 
#
# 1 0.023286 -0.006542 -0.010452 0.000000 0.000000 0.000000
# 2 -0.006542 0.010525 -0.006520 0.000000 0.000000 0.000000
# 3 -0.010452 -0.006520 0.037471 0.000000 0.000000 0.000000
# 4 0.000000 0.000000 0.000000 0.004812 0.000000 0.000000
# 5 0.000000 0.000000 0.000000 0.000000 0.035820 0.000000
# 6 0.000000 0.000000 0.000000 0.000000 0.000000 0.061503
#
#
# Mechanical properties :
#
#
# Convention : Reuss Voigt Hill
#
# Bulk Modulus (GPa) = 41.22888 65.69659 53.46274
# Shear Modulus (GPa) = 21.87890 59.64870 40.76380
#
# Velocity S-wave (km/s) = 3.49491 5.77063 4.77046
# Velocity P-wave (km/s) = 6.26919 9.00427 7.75821
#
# Compressibility (1/GPa) = 0.02425484
#
# Stress axis : x y z
#
# Youngs Moduli (GPa) = 42.94510 95.00745 26.68713
#
# Poissons Ratio (x) = 0.62151 0.27894
# Poissons Ratio (y) = 0.28093 0.17399
# Poissons Ratio (z) = 0.44888 0.61942
#
# Static dielectric constant tensor:
#      x y z
#    x 1.602110 0.000000 0.000000 
#    y 0.000000 1.647160 0.000000 
#    z 0.000000 0.000000 1.574180 
# 
# From -- ./inp_files/50320.got.cif
#   From: 2010.05.17/outbox.cif.g08.bks.cpg/sg65_26_cif.got.tgz:50320.got - 2010.06.03 17:01:31.
