data_PCOD9487562
_publ_section_title
;
Structure prediction by ZEFSAII (Michael W. Deem and Ramdas Pophale) SiO2 
 PCOD9487562
Probable space group: C M M M
;
_chemical_formula_sum "Si O2"
_cell_formula_units_Z 96
_cell_length_a 24.272072
_cell_length_b 26.163971
_cell_length_c 8.522840
_cell_angle_alpha 90.000000
_cell_angle_beta 90.000000
_cell_angle_gamma 90.000000
_cell_volume 5412.461826
_symmetry_space_group_name_H-M "C M M M"
_symmetry_group_IT_number 65
_symmetry_cell_setting 'orthorhombic'
loop_
_space_group_symop_operation_xyz
x,y,z
-x,-y,z
x,-y,-z
-x,y,-z
-x,-y,-z
x,y,-z
-x,y,z
x,-y,z
1/2+x,1/2+y,z
1/2-x,1/2-y,z
1/2+x,1/2-y,-z
1/2-x,1/2+y,-z
1/2-x,1/2-y,-z
1/2+x,1/2+y,-z
1/2-x,1/2+y,z
1/2+x,1/2-y,z
loop_
_atom_site_type_symbol
_atom_site_label
_atom_site_fract_x
_atom_site_fract_y
_atom_site_fract_z
Si Si1 0.436393 0.195434 0.810630
Si Si2 0.631215 0.096997 0.809972
Si Si3 0.436215 0.000000 0.311763
Si Si4 0.436257 0.500000 0.311670
Si Si5 0.063439 0.808169 0.312304
Si Si6 0.749888 0.440489 0.808755
Si Si7 0.630941 0.402972 0.188098
O O1 0.500000 0.183471 0.766846
O O2 0.395973 0.150261 0.758224
O O3 0.422652 0.250944 0.742668
O O4 0.434216 0.198440 0.000000
O O5 0.693984 0.087089 0.757986
O O6 0.594484 0.049950 0.751921
O O7 0.630673 0.096522 0.000000
O O8 0.500000 0.000000 0.261987
O O9 0.434025 0.000000 0.500000
O O10 0.500000 0.500000 0.261853
O O11 0.434516 0.500000 0.500000
O O12 0.405620 0.550089 0.249469
O O13 0.064411 0.810504 0.500000
O O14 0.104362 0.850407 0.245435
O O15 0.000000 0.818573 0.260417
O O16 0.749930 0.500000 0.758921
O O17 0.693740 0.412983 0.758205
O O18 0.749982 0.440887 0.000000
O O19 0.630549 0.403928 0.000000
#
# Coordination Sequence:
#
# PCOD9487562 Si02
#       7
#    16  16   8   8  16  16  16
#     4   9  18  33  55  83 108 134 176 224 267 315
#     4  10  19  35  59  81 105 140 183 226 265 312
#     4  11  23  34  47  76 116 147 174 217 272 325
#     4  11  23  36  51  76 110 141 172 217 272 327
#     4  10  21  37  56  78 107 143 178 217 271 326
#     4   9  17  33  55  80 108 140 178 221 267 314
#     4  11  21  35  56  80 107 140 180 223 266 315
#
# _framework density 17.736844999999999
#
# number of rings (size 3 to 8) (size 9 to 14) (size 15 to 20)
#    0.000    2.000    1.667    2.500    0.000    5.667 
#    0.000    5.000    0.000    5.000    0.000    0.000 
#    0.000    0.000    0.000    0.000    0.000    0.000 
#
# Total GULP energy -267995.067384 kJ/mol
# GULP energy per Si atom -5583.230571 kJ/mol
# Density = 1.769647 g / cm^3
# Si number density = 17.736845 Si / 1000 Ang^3
#
#
#
# Elastic Constant Matrix: (Units=GPa)
#
#
# Indices 1 2 3 4 5 6 
#
# 1 190.8366 124.6253 33.6993 0.0000 0.0000 0.0000
# 2 124.6253 164.2001 30.5136 0.0000 0.0000 0.0000
# 3 33.6993 30.5136 20.2628 0.0000 0.0000 0.0000
# 4 0.0000 0.0000 0.0000 -22.8342 0.0000 0.0000
# 5 0.0000 0.0000 0.0000 0.0000 6.5849 0.0000
# 6 0.0000 0.0000 0.0000 0.0000 0.0000 13.1809
#
#
#
# Elastic Compliance Matrix: (Units=1/GPa)
#
#
# Indices 1 2 3 4 5 6 
#
# 1 0.011282 -0.007049 -0.008149 0.000000 0.000000 0.000000
# 2 -0.007049 0.012860 -0.007644 0.000000 0.000000 0.000000
# 3 -0.008149 -0.007644 0.074415 0.000000 0.000000 0.000000
# 4 0.000000 0.000000 0.000000 -0.043794 0.000000 0.000000
# 5 0.000000 0.000000 0.000000 0.000000 0.151862 0.000000
# 6 0.000000 0.000000 0.000000 0.000000 0.000000 0.075867
#
#
# Mechanical properties :
#
#
# Convention : Reuss Voigt Hill
#
# Bulk Modulus (GPa) = 18.91264 83.66398 51.28831
# Shear Modulus (GPa) = 14.45921 11.81707 13.13814
#
# Velocity S-wave (km/s) = 2.85828 2.58397 2.72458
# Velocity P-wave (km/s) = 4.64533 7.49497 6.23513
#
# Compressibility (1/GPa) = 0.05287469
#
# Stress axis : x y z
#
# Youngs Moduli (GPa) = 88.63517 77.75808 13.43819
#
# Poissons Ratio (x) = 0.54809 0.10951
# Poissons Ratio (y) = 0.62476 0.10272
# Poissons Ratio (z) = 0.72229 0.59436
#
# Static dielectric constant tensor:
#      x y z
#    x 1.606080 0.000000 0.000000 
#    y 0.000000 1.567040 0.000000 
#    z 0.000000 0.000000 1.600510 
# 
# From -- ./inp_files/14431.got.cif
#   From: 2010.05.17/outbox.cif.g08.bks.cpg/sg65_8_cif.got.tgz:14431.got - 2010.06.03 17:01:31.
