data_PCOD9487614
_publ_section_title
;
Structure prediction by ZEFSAII (Michael W. Deem and Ramdas Pophale) SiO2 
 PCOD9487614
Probable space group: C M M M
;
_chemical_formula_sum "Si O2"
_cell_formula_units_Z 82
_cell_length_a 20.290054
_cell_length_b 25.817264
_cell_length_c 7.639147
_cell_angle_alpha 90.000000
_cell_angle_beta 90.000000
_cell_angle_gamma 90.000000
_cell_volume 4001.642490
_symmetry_space_group_name_H-M "C M M M"
_symmetry_group_IT_number 65
_symmetry_cell_setting 'orthorhombic'
loop_
_space_group_symop_operation_xyz
x,y,z
-x,-y,z
x,-y,-z
-x,y,-z
-x,-y,-z
x,y,-z
-x,y,z
x,-y,z
1/2+x,1/2+y,z
1/2-x,1/2-y,z
1/2+x,1/2-y,-z
1/2-x,1/2+y,-z
1/2-x,1/2-y,-z
1/2+x,1/2+y,-z
1/2-x,1/2+y,z
1/2+x,1/2-y,z
loop_
_atom_site_type_symbol
_atom_site_label
_atom_site_fract_x
_atom_site_fract_y
_atom_site_fract_z
Si Si1 0.198552 0.899970 0.287453
Si Si2 0.500000 0.500000 0.500000
Si Si3 0.648330 0.102793 0.288430
Si Si4 0.387352 0.500000 0.196023
Si Si5 0.810426 0.215642 0.297439
Si Si6 0.075257 0.709047 0.205366
Si Si7 0.575044 0.000000 0.285861
O O1 0.193419 0.903563 0.500000
O O2 0.275530 0.901454 0.237874
O O3 0.177443 0.842183 0.227571
O O4 0.157643 0.948389 0.216713
O O5 0.442209 0.500000 0.346229
O O6 0.646860 0.104664 0.500000
O O7 0.610851 0.153861 0.226672
O O8 0.611017 0.051723 0.227717
O O9 0.415334 0.500000 0.000000
O O10 0.790715 0.206829 0.500000
O O11 0.750000 0.250000 0.219533
O O12 0.876578 0.248993 0.290230
O O13 0.000000 0.707734 0.272600
O O14 0.072770 0.721267 0.000000
O O15 0.500000 0.000000 0.229688
O O16 0.576354 0.000000 0.500000
#
# Coordination Sequence:
#
# PCOD9487614 Si02
#       7
#    16   2  16   8  16  16   8
#     4  10  20  40  67  96 131 164 214 285 334 387
#     4  12  26  56  76  98 148 172 224 300 340 416
#     4  10  19  35  62  86 118 164 211 263 323 380
#     4  12  26  46  76 105 136 184 227 273 354 419
#     4  10  20  39  66  93 121 163 218 271 331 394
#     4  11  24  39  54  83 129 172 208 262 327 393
#     4   9  17  28  48  84 116 150 202 256 303 368
#
# _framework density 20.491585000000001
#
# number of rings (size 3 to 8) (size 9 to 14) (size 15 to 20)
#    0.000    1.659    2.927    1.902    0.000    5.854 
#    1.756    0.488    0.000    1.756    0.000    0.000 
#    0.000    0.000    0.000    0.000    0.000    0.000 
#
# Total GULP energy -228734.065238 kJ/mol
# GULP energy per Si atom -5578.879640 kJ/mol
# Density = 2.044495 g / cm^3
# Si number density = 20.491585 Si / 1000 Ang^3
#
#
#
# Elastic Constant Matrix: (Units=GPa)
#
#
# Indices 1 2 3 4 5 6 
#
# 1 149.5622 79.9797 20.5217 0.0000 0.0000 0.0000
# 2 79.9797 186.9534 15.5927 0.0000 0.0000 0.0000
# 3 20.5217 15.5927 73.8006 0.0000 0.0000 0.0000
# 4 0.0000 0.0000 0.0000 -25.1556 0.0000 0.0000
# 5 0.0000 0.0000 0.0000 0.0000 63.8133 0.0000
# 6 0.0000 0.0000 0.0000 0.0000 0.0000 -23.1236
#
#
#
# Elastic Compliance Matrix: (Units=1/GPa)
#
#
# Indices 1 2 3 4 5 6 
#
# 1 0.008873 -0.003655 -0.001695 0.000000 0.000000 0.000000
# 2 -0.003655 0.006950 -0.000452 0.000000 0.000000 0.000000
# 3 -0.001695 -0.000452 0.014117 0.000000 0.000000 0.000000
# 4 0.000000 0.000000 0.000000 -0.039753 0.000000 0.000000
# 5 0.000000 0.000000 0.000000 0.000000 0.015671 0.000000
# 6 0.000000 0.000000 0.000000 0.000000 0.000000 -0.043246
#
#
# Mechanical properties :
#
#
# Convention : Reuss Voigt Hill
#
# Bulk Modulus (GPa) = 54.53692 71.38939 62.96316
# Shear Modulus (GPa) = -254.17263 22.72162 -115.72550
#
# Velocity S-wave (km/s) = -11.14930 3.33352 -7.52311
# Velocity P-wave (km/s) = 11.79281 7.05198 6.68356
#
# Compressibility (1/GPa) = 0.01833620
#
# Stress axis : x y z
#
# Youngs Moduli (GPa) = 112.70019 143.88301 70.83679
#
# Poissons Ratio (x) = 0.52583 0.12008
# Poissons Ratio (y) = 0.41187 0.03203
# Poissons Ratio (z) = 0.19105 0.06506
#
# Static dielectric constant tensor:
#      x y z
#    x 1.694620 0.000000 0.000000 
#    y 0.000000 1.714930 0.000000 
#    z 0.000000 0.000000 1.766460 
# 
# From -- ./inp_files/11645.got.cif
#   From: 2010.05.17/outbox.cif.g08.bks.cpg/sg65_6_cif.got.tgz:11645.got - 2010.06.03 17:01:31.
