data_PCOD9487501
_publ_section_title
;
Structure prediction by ZEFSAII (Michael W. Deem and Ramdas Pophale) SiO2 
 PCOD9487501
Probable space group: C M M M
;
_chemical_formula_sum "Si O2"
_cell_formula_units_Z 96
_cell_length_a 14.369280
_cell_length_b 29.726377
_cell_length_c 11.175242
_cell_angle_alpha 90.000000
_cell_angle_beta 90.000000
_cell_angle_gamma 90.000000
_cell_volume 4773.467010
_symmetry_space_group_name_H-M "C M M M"
_symmetry_group_IT_number 65
_symmetry_cell_setting 'orthorhombic'
loop_
_space_group_symop_operation_xyz
x,y,z
-x,-y,z
x,-y,-z
-x,y,-z
-x,-y,-z
x,y,-z
-x,y,z
x,-y,z
1/2+x,1/2+y,z
1/2-x,1/2-y,z
1/2+x,1/2-y,-z
1/2-x,1/2+y,-z
1/2-x,1/2-y,-z
1/2+x,1/2+y,-z
1/2-x,1/2+y,z
1/2+x,1/2-y,z
loop_
_atom_site_type_symbol
_atom_site_label
_atom_site_fract_x
_atom_site_fract_y
_atom_site_fract_z
Si Si1 0.275516 0.051430 0.000000
Si Si2 0.104320 0.354006 0.277022
Si Si3 0.373068 0.208860 0.500000
Si Si4 0.385755 0.774227 0.136573
Si Si5 0.887463 0.450255 0.753903
Si Si6 0.111288 0.818630 0.760041
Si Si7 0.112634 0.124163 0.000000
Si Si8 0.656756 0.690516 0.500000
O O1 0.341419 0.056651 0.884016
O O2 0.186250 0.083551 0.000000
O O3 0.241946 0.000000 0.000000
O O4 0.096643 0.319486 0.385670
O O5 0.152491 0.322691 0.177909
O O6 0.139972 0.403462 0.311572
O O7 0.000000 0.362865 0.230634
O O8 0.397661 0.261458 0.500000
O O9 0.263183 0.203912 0.500000
O O10 0.500000 0.775524 0.142859
O O11 0.354263 0.732427 0.217132
O O12 0.361759 0.764992 0.000000
O O13 0.856991 0.500000 0.708707
O O14 0.000000 0.452832 0.758655
O O15 0.140341 0.833806 0.626978
O O16 0.000000 0.816216 0.756099
O O17 0.131553 0.847862 0.877948
O O18 0.000000 0.113528 0.000000
#
# Coordination Sequence:
#
# PCOD9487501 Si02
#       8
#     8  16   8  16  16  16   8   8
#     4  10  21  37  61  86 114 151 184 224 291 354
#     4  10  20  33  53  76 105 147 191 234 283 336
#     4  11  23  35  48  74 113 146 195 241 283 326
#     4   9  16  28  48  75 106 141 183 226 277 340
#     4   9  19  36  57  84 114 144 187 238 287 345
#     4  10  19  35  56  79 109 149 192 235 279 330
#     4  10  22  38  60  91 121 148 187 238 289 340
#     4  11  23  35  51  75 115 159 195 235 280 335
#
# _framework density 20.111167999999999
#
# number of rings (size 3 to 8) (size 9 to 14) (size 15 to 20)
#    0.000    2.167    2.500    0.750    3.500    1.833 
#    0.000    0.417    0.000    5.000    0.000    0.583 
#    0.000    2.667    0.000    0.000    0.000    0.000 
#
# Total GULP energy -267394.934413 kJ/mol
# GULP energy per Si atom -5570.727800 kJ/mol
# Density = 2.006539 g / cm^3
# Si number density = 20.111168 Si / 1000 Ang^3
#
#
#
# Elastic Constant Matrix: (Units=GPa)
#
#
# Indices 1 2 3 4 5 6 
#
# 1 64.7505 15.3211 2.5259 0.0000 0.0000 0.0000
# 2 15.3211 86.1874 17.6996 0.0000 0.0000 0.0000
# 3 2.5259 17.6996 97.6479 0.0000 0.0000 0.0000
# 4 0.0000 0.0000 0.0000 11.1087 0.0000 0.0000
# 5 0.0000 0.0000 0.0000 0.0000 72.6386 0.0000
# 6 0.0000 0.0000 0.0000 0.0000 0.0000 21.5649
#
#
#
# Elastic Compliance Matrix: (Units=1/GPa)
#
#
# Indices 1 2 3 4 5 6 
#
# 1 0.016123 -0.002888 0.000106 0.000000 0.000000 0.000000
# 2 -0.002888 0.012569 -0.002203 0.000000 0.000000 0.000000
# 3 0.000106 -0.002203 0.010638 0.000000 0.000000 0.000000
# 4 0.000000 0.000000 0.000000 0.090019 0.000000 0.000000
# 5 0.000000 0.000000 0.000000 0.000000 0.013767 0.000000
# 6 0.000000 0.000000 0.000000 0.000000 0.000000 0.046372
#
#
# Mechanical properties :
#
#
# Convention : Reuss Voigt Hill
#
# Bulk Modulus (GPa) = 34.06100 35.51988 34.79044
# Shear Modulus (GPa) = 23.89564 35.26505 29.58035
#
# Velocity S-wave (km/s) = 3.45073 4.19203 3.83932
# Velocity P-wave (km/s) = 5.73148 6.41334 6.08197
#
# Compressibility (1/GPa) = 0.02935909
#
# Stress axis : x y z
#
# Youngs Moduli (GPa) = 62.02289 79.56388 94.00686
#
# Poissons Ratio (x) = 0.22978 -0.01000
# Poissons Ratio (y) = 0.17912 0.20714
# Poissons Ratio (z) = -0.00660 0.17532
#
# Static dielectric constant tensor:
#      x y z
#    x 1.749200 0.000000 0.000000 
#    y 0.000000 1.754060 0.000000 
#    z 0.000000 0.000000 1.773730 
# 
# From -- ./inp_files/25519.got.cif
#   From: 2010.05.17/outbox.cif.g08.bks.cpg/sg65_13_cif.got.tgz:25519.got - 2010.06.03 17:01:31.
