data_PCOD9487123
_publ_section_title
;
Structure prediction by ZEFSAII (Michael W. Deem and Ramdas Pophale) SiO2 
 PCOD9487123
Probable space group: C M M M
;
_chemical_formula_sum "Si O2"
_cell_formula_units_Z 64
_cell_length_a 17.906871
_cell_length_b 10.586192
_cell_length_c 18.032218
_cell_angle_alpha 90.000000
_cell_angle_beta 90.000000
_cell_angle_gamma 90.000000
_cell_volume 3418.287765
_symmetry_space_group_name_H-M "C M M M"
_symmetry_group_IT_number 65
_symmetry_cell_setting 'orthorhombic'
loop_
_space_group_symop_operation_xyz
x,y,z
-x,-y,z
x,-y,-z
-x,y,-z
-x,-y,-z
x,y,-z
-x,y,z
x,-y,z
1/2+x,1/2+y,z
1/2-x,1/2-y,z
1/2+x,1/2-y,-z
1/2-x,1/2+y,-z
1/2-x,1/2-y,-z
1/2+x,1/2+y,-z
1/2-x,1/2+y,z
1/2+x,1/2-y,z
loop_
_atom_site_type_symbol
_atom_site_label
_atom_site_fract_x
_atom_site_fract_y
_atom_site_fract_z
Si Si1 0.911650 0.220346 0.410971
Si Si2 0.590131 0.000000 0.416251
Si Si3 0.812205 0.857264 0.715016
Si Si4 0.680472 0.346305 0.000000
Si Si5 0.084300 0.848029 0.146291
O O1 0.900859 0.210850 0.500000
O O2 0.891753 0.363683 0.384929
O O3 0.858281 0.137244 0.361476
O O4 0.000000 0.197228 0.397729
O O5 0.500000 0.000000 0.421649
O O6 0.620506 0.000000 0.500000
O O7 0.750000 0.750000 0.710550
O O8 0.869621 0.817318 0.779964
O O9 0.783979 0.000000 0.731545
O O10 0.750000 0.250000 0.000000
O O11 0.631091 0.317808 0.072812
O O12 0.698017 0.500000 0.000000
O O13 0.000000 0.795937 0.145931
O O14 0.078057 0.000000 0.146481
#
# Coordination Sequence:
#
# PCOD9487123 Si02
#       5
#    16   8  16   8  16
#     4   9  18  34  57  81 105 138 183 230 275 326
#     4   7  12  26  50  78 102 127 164 216 271 317
#     4  11  24  38  54  78 111 147 181 227 281 329
#     4  10  19  33  59  89 117 150 180 216 268 324
#     4   9  18  35  59  85 110 141 187 232 267 313
#
# _framework density 18.722823999999999
#
# number of rings (size 3 to 8) (size 9 to 14) (size 15 to 20)
#    0.000    2.625    0.000    3.375    1.750    4.000 
#    0.000    1.250    0.000    3.000    0.000    0.000 
#    0.000    0.000    0.000    0.000    0.000    0.000 
#
# Total GULP energy -178214.441352 kJ/mol
# GULP energy per Si atom -5569.201292 kJ/mol
# Density = 1.868021 g / cm^3
# Si number density = 18.722824 Si / 1000 Ang^3
#
#
#
# Elastic Constant Matrix: (Units=GPa)
#
#
# Indices 1 2 3 4 5 6 
#
# 1 132.1530 60.5947 74.0580 0.0000 0.0000 0.0000
# 2 60.5947 91.0552 32.4260 0.0000 0.0000 0.0000
# 3 74.0580 32.4260 93.6040 0.0000 0.0000 0.0000
# 4 0.0000 0.0000 0.0000 -19.2823 0.0000 0.0000
# 5 0.0000 0.0000 0.0000 0.0000 23.4678 0.0000
# 6 0.0000 0.0000 0.0000 0.0000 0.0000 13.3933
#
#
#
# Elastic Compliance Matrix: (Units=1/GPa)
#
#
# Indices 1 2 3 4 5 6 
#
# 1 0.017163 -0.007512 -0.010976 0.000000 0.000000 0.000000
# 2 -0.007512 0.015816 0.000465 0.000000 0.000000 0.000000
# 3 -0.010976 0.000465 0.019207 0.000000 0.000000 0.000000
# 4 0.000000 0.000000 0.000000 -0.051861 0.000000 0.000000
# 5 0.000000 0.000000 0.000000 0.000000 0.042612 0.000000
# 6 0.000000 0.000000 0.000000 0.000000 0.000000 0.074664
#
#
# Mechanical properties :
#
#
# Convention : Reuss Voigt Hill
#
# Bulk Modulus (GPa) = 61.96822 72.32996 67.14909
# Shear Modulus (GPa) = 31.44100 13.49798 22.46949
#
# Velocity S-wave (km/s) = 4.10236 2.68794 3.46802
# Velocity P-wave (km/s) = 7.45712 6.95336 7.20964
#
# Compressibility (1/GPa) = 0.01613730
#
# Stress axis : x y z
#
# Youngs Moduli (GPa) = 58.26561 63.22636 52.06514
#
# Poissons Ratio (x) = 0.47499 0.57149
# Poissons Ratio (y) = 0.43772 -0.02420
# Poissons Ratio (z) = 0.63955 -0.02939
#
# Static dielectric constant tensor:
#      x y z
#    x 1.645600 0.000000 0.000000 
#    y 0.000000 1.684210 0.000000 
#    z 0.000000 0.000000 1.647560 
# 
# From -- ./inp_files/41897.got.cif
#   From: 2010.05.17/outbox.cif.g08.bks.cpg/sg65_21_cif.got.tgz:41897.got - 2010.06.03 17:01:31.
