data_PCOD9487686
_publ_section_title
;
Structure prediction by ZEFSAII (Michael W. Deem and Ramdas Pophale) SiO2 
 PCOD9487686
Probable space group: C M M M
;
_chemical_formula_sum "Si O2"
_cell_formula_units_Z 50
_cell_length_a 7.547125
_cell_length_b 14.574512
_cell_length_c 20.577406
_cell_angle_alpha 90.000000
_cell_angle_beta 90.000000
_cell_angle_gamma 90.000000
_cell_volume 2263.425434
_symmetry_space_group_name_H-M "C M M M"
_symmetry_group_IT_number 65
_symmetry_cell_setting 'orthorhombic'
loop_
_space_group_symop_operation_xyz
x,y,z
-x,-y,z
x,-y,-z
-x,y,-z
-x,-y,-z
x,y,-z
-x,y,z
x,-y,z
1/2+x,1/2+y,z
1/2-x,1/2-y,z
1/2+x,1/2-y,-z
1/2-x,1/2+y,-z
1/2-x,1/2-y,-z
1/2+x,1/2+y,-z
1/2-x,1/2+y,z
1/2+x,1/2-y,z
loop_
_atom_site_type_symbol
_atom_site_label
_atom_site_fract_x
_atom_site_fract_y
_atom_site_fract_z
Si Si1 0.193906 0.000000 0.390089
Si Si2 0.213050 0.640477 0.000000
Si Si3 0.000000 0.500000 0.500000
Si Si4 0.288366 0.858123 0.718279
Si Si5 0.712530 0.859206 0.139863
O O1 0.211652 0.913526 0.341615
O O2 0.346060 0.000000 0.443071
O O3 0.000000 0.000000 0.420138
O O4 0.250000 0.750000 0.000000
O O5 0.279935 0.605904 0.069993
O O6 0.000000 0.627279 0.000000
O O7 0.500000 0.871625 0.717291
O O8 0.250000 0.750000 0.712835
O O9 0.222276 0.890758 0.789594
O O10 0.500000 0.873097 0.139739
O O11 0.750000 0.750000 0.139757
#
# Coordination Sequence:
#
# PCOD9487686 Si02
#       5
#     8   8   2  16  16
#     4  12  25  45  73  97 128 166 199 251 308 376
#     4   8  12  20  34  63 104 151 200 247 301 350
#     4  12  26  52  72  98 132 156 198 248 316 378
#     4  10  19  36  61  93 128 166 213 261 307 365
#     4   8  14  23  42  71 110 154 201 253 300 350
#
# _framework density 22.090413000000002
#
# number of rings (size 3 to 8) (size 9 to 14) (size 15 to 20)
#    0.000    2.560    1.600    1.200    0.000    1.280 
#    0.000    0.800    0.000    0.960    0.000    6.720 
#    0.000    0.000    0.000    0.000    0.000    0.000 
#
# Total GULP energy -139225.389068 kJ/mol
# GULP energy per Si atom -5569.015563 kJ/mol
# Density = 2.204013 g / cm^3
# Si number density = 22.090413 Si / 1000 Ang^3
#
#
#
# Elastic Constant Matrix: (Units=GPa)
#
#
# Indices 1 2 3 4 5 6 
#
# 1 127.9719 4.0140 60.6548 0.0000 0.0000 0.0000
# 2 4.0140 95.0013 48.4443 0.0000 0.0000 0.0000
# 3 60.6548 48.4443 240.6365 0.0000 0.0000 0.0000
# 4 0.0000 0.0000 0.0000 -12.5560 0.0000 0.0000
# 5 0.0000 0.0000 0.0000 0.0000 6.5651 0.0000
# 6 0.0000 0.0000 0.0000 0.0000 0.0000 5.7297
#
#
#
# Elastic Compliance Matrix: (Units=1/GPa)
#
#
# Indices 1 2 3 4 5 6 
#
# 1 0.008937 0.000859 -0.002426 0.000000 0.000000 0.000000
# 2 0.000859 0.011813 -0.002595 0.000000 0.000000 0.000000
# 3 -0.002426 -0.002595 0.005289 0.000000 0.000000 0.000000
# 4 0.000000 0.000000 0.000000 -0.079643 0.000000 0.000000
# 5 0.000000 0.000000 0.000000 0.000000 0.152321 0.000000
# 6 0.000000 0.000000 0.000000 0.000000 0.000000 0.174529
#
#
# Mechanical properties :
#
#
# Convention : Reuss Voigt Hill
#
# Bulk Modulus (GPa) = 56.44235 76.64844 66.54540
# Shear Modulus (GPa) = 17.39287 23.31420 20.35354
#
# Velocity S-wave (km/s) = 2.80902 3.25222 3.03871
# Velocity P-wave (km/s) = 6.01056 6.99110 6.51929
#
# Compressibility (1/GPa) = 0.01771719
#
# Stress axis : x y z
#
# Youngs Moduli (GPa) = 111.89513 84.65241 189.05659
#
# Poissons Ratio (x) = -0.07274 0.45858
# Poissons Ratio (y) = -0.09615 0.49056
# Poissons Ratio (z) = 0.27142 0.21965
#
# Static dielectric constant tensor:
#      x y z
#    x 1.806930 0.000000 0.000000 
#    y 0.000000 1.813660 0.000000 
#    z 0.000000 0.000000 1.816180 
# 
# From -- ./inp_files/48680.got.cif
#   From: 2010.05.17/outbox.cif.g08.bks.cpg/sg65_25_cif.got.tgz:48680.got - 2010.06.03 17:01:31.
