data_PCOD9487187
_publ_section_title
;
Structure prediction by ZEFSAII (Michael W. Deem and Ramdas Pophale) SiO2 
 PCOD9487187
Probable space group: C M M M
;
_chemical_formula_sum "Si O2"
_cell_formula_units_Z 92
_cell_length_a 27.594148
_cell_length_b 18.999927
_cell_length_c 7.618388
_cell_angle_alpha 90.000000
_cell_angle_beta 90.000000
_cell_angle_gamma 90.000000
_cell_volume 3994.220248
_symmetry_space_group_name_H-M "C M M M"
_symmetry_group_IT_number 65
_symmetry_cell_setting 'orthorhombic'
loop_
_space_group_symop_operation_xyz
x,y,z
-x,-y,z
x,-y,-z
-x,y,-z
-x,-y,-z
x,y,-z
-x,y,z
x,-y,z
1/2+x,1/2+y,z
1/2-x,1/2-y,z
1/2+x,1/2-y,-z
1/2-x,1/2+y,-z
1/2-x,1/2-y,-z
1/2+x,1/2+y,-z
1/2-x,1/2+y,z
1/2+x,1/2-y,z
loop_
_atom_site_type_symbol
_atom_site_label
_atom_site_fract_x
_atom_site_fract_y
_atom_site_fract_z
Si Si1 0.683166 0.269231 0.300135
Si Si2 0.918519 0.191625 0.792464
Si Si3 0.500000 0.579865 0.709041
Si Si4 0.946792 0.650499 0.214698
Si Si5 0.261550 0.599402 0.206744
Si Si6 0.844045 0.614980 0.199448
Si Si7 0.701038 0.500000 0.500000
O O1 0.693937 0.249124 0.500000
O O2 0.633518 0.314174 0.295319
O O3 0.724685 0.318501 0.223132
O O4 0.668041 0.198424 0.199929
O O5 0.953705 0.126475 0.760647
O O6 0.941586 0.266797 0.736311
O O7 0.910509 0.196744 0.000000
O O8 0.500000 0.500000 0.779700
O O9 0.500000 0.575197 0.500000
O O10 0.898041 0.610925 0.278350
O O11 0.000000 0.624980 0.270071
O O12 0.945519 0.647859 0.000000
O O13 0.206226 0.584204 0.270167
O O14 0.295151 0.559907 0.343781
O O15 0.265835 0.581114 0.000000
O O16 0.847525 0.589262 0.000000
#
# Coordination Sequence:
#
# PCOD9487187 Si02
#       7
#    16  16   8  16  16  16   4
#     4  11  21  35  58  89 118 150 189 243 302 353
#     4  10  19  34  54  75 104 146 190 236 291 343
#     4  11  23  37  49  69 101 145 197 247 288 335
#     4   8  13  26  51  83 114 141 175 225 282 344
#     4  11  23  42  62  85 119 153 196 246 291 352
#     4   9  19  33  57  90 120 154 190 234 298 355
#     4  12  26  44  62  86 109 159 204 238 290 350
#
# _framework density 23.033280000000001
#
# number of rings (size 3 to 8) (size 9 to 14) (size 15 to 20)
#    0.000    2.000    1.739    4.174    1.217    2.783 
#    1.565    0.000    0.000    0.000    0.000    1.217 
#    0.000    4.174    0.000    0.000    0.000    0.000 
#
# Total GULP energy -256223.494406 kJ/mol
# GULP energy per Si atom -5570.075965 kJ/mol
# Density = 2.298086 g / cm^3
# Si number density = 23.033280 Si / 1000 Ang^3
#
#
#
# Elastic Constant Matrix: (Units=GPa)
#
#
# Indices 1 2 3 4 5 6 
#
# 1 116.3272 -11.8368 -4.3267 0.0000 0.0000 0.0000
# 2 -11.8368 49.6314 5.0937 0.0000 0.0000 0.0000
# 3 -4.3267 5.0937 107.0168 0.0000 0.0000 0.0000
# 4 0.0000 0.0000 0.0000 76.3940 0.0000 0.0000
# 5 0.0000 0.0000 0.0000 0.0000 -9.4195 0.0000
# 6 0.0000 0.0000 0.0000 0.0000 0.0000 -41.9684
#
#
#
# Elastic Compliance Matrix: (Units=1/GPa)
#
#
# Indices 1 2 3 4 5 6 
#
# 1 0.008817 0.002076 0.000258 0.000000 0.000000 0.000000
# 2 0.002076 0.020736 -0.000903 0.000000 0.000000 0.000000
# 3 0.000258 -0.000903 0.009398 0.000000 0.000000 0.000000
# 4 0.000000 0.000000 0.000000 0.013090 0.000000 0.000000
# 5 0.000000 0.000000 0.000000 0.000000 -0.106162 0.000000
# 6 0.000000 0.000000 0.000000 0.000000 0.000000 -0.023827
#
#
# Mechanical properties :
#
#
# Convention : Reuss Voigt Hill
#
# Bulk Modulus (GPa) = 23.91570 27.87065 25.89318
# Shear Modulus (GPa) = -74.76921 23.93755 -25.41583
#
# Velocity S-wave (km/s) = -5.70367 3.22725 -3.32541
# Velocity P-wave (km/s) = 5.74196 5.10032 1.86505
#
# Compressibility (1/GPa) = 0.04181353
#
# Stress axis : x y z
#
# Youngs Moduli (GPa) = 113.41324 48.22430 106.40871
#
# Poissons Ratio (x) = -0.10013 -0.02742
# Poissons Ratio (y) = -0.23549 0.09609
# Poissons Ratio (z) = -0.02922 0.04355
#
# Static dielectric constant tensor:
#      x y z
#    x 1.940510 0.000000 0.000000 
#    y 0.000000 1.904040 0.000000 
#    z 0.000000 0.000000 1.838320 
# 
# From -- ./inp_files/16399.got.cif
#   From: 2010.05.17/outbox.cif.g08.bks.cpg/sg65_9_cif.got.tgz:16399.got - 2010.06.03 17:01:31.
