data_PCOD9487339
_publ_section_title
;
Structure prediction by ZEFSAII (Michael W. Deem and Ramdas Pophale) SiO2 
 PCOD9487339
Probable space group: C M M M
;
_chemical_formula_sum "Si O2"
_cell_formula_units_Z 88
_cell_length_a 29.642145
_cell_length_b 8.197263
_cell_length_c 18.547263
_cell_angle_alpha 90.000000
_cell_angle_beta 90.000000
_cell_angle_gamma 90.000000
_cell_volume 4506.696656
_symmetry_space_group_name_H-M "C M M M"
_symmetry_group_IT_number 65
_symmetry_cell_setting 'orthorhombic'
loop_
_space_group_symop_operation_xyz
x,y,z
-x,-y,z
x,-y,-z
-x,y,-z
-x,-y,-z
x,y,-z
-x,y,z
x,-y,z
1/2+x,1/2+y,z
1/2-x,1/2-y,z
1/2+x,1/2-y,-z
1/2-x,1/2+y,-z
1/2-x,1/2-y,-z
1/2+x,1/2+y,-z
1/2-x,1/2+y,z
1/2+x,1/2-y,z
loop_
_atom_site_type_symbol
_atom_site_label
_atom_site_fract_x
_atom_site_fract_y
_atom_site_fract_z
Si Si1 0.799090 0.694819 0.185784
Si Si2 0.894425 0.805552 0.141465
Si Si3 0.947835 0.199702 0.000000
Si Si4 0.392782 0.800362 0.580631
Si Si5 0.798932 0.696370 0.352509
Si Si6 0.551152 0.196717 0.281594
O O1 0.800441 0.500000 0.187112
O O2 0.750000 0.750000 0.159195
O O3 0.842084 0.756672 0.142250
O O4 0.803402 0.754053 0.269263
O O5 0.921616 0.745310 0.071566
O O6 0.917921 0.742285 0.214092
O O7 0.897306 0.000000 0.142030
O O8 0.000000 0.251424 0.000000
O O9 0.947685 0.000000 0.000000
O O10 0.404600 0.747183 0.500000
O O11 0.342056 0.748962 0.602063
O O12 0.426266 0.745937 0.643858
O O13 0.393218 0.000000 0.580928
O O14 0.799715 0.500000 0.351186
O O15 0.750000 0.750000 0.379899
O O16 0.500000 0.257210 0.272600
O O17 0.549799 0.000000 0.284755
#
# Coordination Sequence:
#
# PCOD9487339 Si02
#       6
#    16  16   8  16  16  16
#     4  10  19  34  56  84 116 146 183 226 270 322
#     4  11  21  36  60  85 111 145 183 224 276 332
#     4   9  20  38  58  83 114 145 182 229 276 327
#     4   9  17  31  50  74 106 142 180 225 275 324
#     4   9  17  30  49  73 104 138 174 218 265 315
#     4  10  20  35  55  79 107 141 184 233 280 328
#
# _framework density 19.526496999999999
#
# number of rings (size 3 to 8) (size 9 to 14) (size 15 to 20)
#    0.000    2.273    1.818    1.636    0.000    2.545 
#    0.000    4.091    0.000    4.909    0.000    1.273 
#    0.000    0.000    0.000    0.000    0.000    0.000 
#
# Total GULP energy -245607.435464 kJ/mol
# GULP energy per Si atom -5581.987170 kJ/mol
# Density = 1.948205 g / cm^3
# Si number density = 19.526497 Si / 1000 Ang^3
#
#
#
# Elastic Constant Matrix: (Units=GPa)
#
#
# Indices 1 2 3 4 5 6 
#
# 1 165.1796 9.8662 81.4858 0.0000 0.0000 0.0000
# 2 9.8662 10.4378 8.8900 0.0000 0.0000 0.0000
# 3 81.4858 8.8900 124.6744 0.0000 0.0000 0.0000
# 4 0.0000 0.0000 0.0000 127.3744 0.0000 0.0000
# 5 0.0000 0.0000 0.0000 0.0000 26.8390 0.0000
# 6 0.0000 0.0000 0.0000 0.0000 0.0000 26.4092
#
#
#
# Elastic Compliance Matrix: (Units=1/GPa)
#
#
# Indices 1 2 3 4 5 6 
#
# 1 0.009071 -0.003752 -0.005661 0.000000 0.000000 0.000000
# 2 -0.003752 0.103553 -0.004931 0.000000 0.000000 0.000000
# 3 -0.005661 -0.004931 0.012072 0.000000 0.000000 0.000000
# 4 0.000000 0.000000 0.000000 0.007851 0.000000 0.000000
# 5 0.000000 0.000000 0.000000 0.000000 0.037259 0.000000
# 6 0.000000 0.000000 0.000000 0.000000 0.000000 0.037866
#
#
# Mechanical properties :
#
#
# Convention : Reuss Voigt Hill
#
# Bulk Modulus (GPa) = 10.41595 55.64174 33.02885
# Shear Modulus (GPa) = 18.63141 49.46116 34.04629
#
# Velocity S-wave (km/s) = 3.09230 5.03838 4.18017
# Velocity P-wave (km/s) = 4.25389 7.89964 6.34429
#
# Compressibility (1/GPa) = 0.09600657
#
# Stress axis : x y z
#
# Youngs Moduli (GPa) = 110.24363 9.65689 82.83290
#
# Poissons Ratio (x) = 0.03624 0.46892
# Poissons Ratio (y) = 0.41369 0.40848
# Poissons Ratio (z) = 0.62409 0.04762
#
# Static dielectric constant tensor:
#      x y z
#    x 1.656550 0.000000 0.000000 
#    y 0.000000 1.694280 0.000000 
#    z 0.000000 0.000000 1.673300 
# 
# From -- ./inp_files/50339.got.cif
#   From: 2010.05.17/outbox.cif.g08.bks.cpg/sg65_26_cif.got.tgz:50339.got - 2010.06.03 17:01:31.
