data_PCOD9487764
_publ_section_title
;
Structure prediction by ZEFSAII (Michael W. Deem and Ramdas Pophale) SiO2 
 PCOD9487764
Probable space group: C M M M
;
_chemical_formula_sum "Si O2"
_cell_formula_units_Z 112
_cell_length_a 29.693056
_cell_length_b 13.898733
_cell_length_c 15.204820
_cell_angle_alpha 90.000000
_cell_angle_beta 90.000000
_cell_angle_gamma 90.000000
_cell_volume 6274.966225
_symmetry_space_group_name_H-M "C M M M"
_symmetry_group_IT_number 65
_symmetry_cell_setting 'orthorhombic'
loop_
_space_group_symop_operation_xyz
x,y,z
-x,-y,z
x,-y,-z
-x,y,-z
-x,-y,-z
x,y,-z
-x,y,z
x,-y,z
1/2+x,1/2+y,z
1/2-x,1/2-y,z
1/2+x,1/2-y,-z
1/2-x,1/2+y,-z
1/2-x,1/2-y,-z
1/2+x,1/2+y,-z
1/2-x,1/2+y,z
1/2+x,1/2-y,z
loop_
_atom_site_type_symbol
_atom_site_label
_atom_site_fract_x
_atom_site_fract_y
_atom_site_fract_z
Si Si1 0.592266 0.884286 0.099399
Si Si2 0.806849 0.680716 0.099799
Si Si3 0.715509 0.608207 0.849799
Si Si4 0.629304 0.213300 0.395373
Si Si5 0.948278 0.384515 0.282873
Si Si6 0.280118 0.109096 0.604926
Si Si7 0.318241 0.390253 0.346490
O O1 0.642447 0.847772 0.121073
O O2 0.560360 0.858135 0.180498
O O3 0.593573 0.000000 0.096302
O O4 0.580324 0.850997 0.000000
O O5 0.768868 0.632010 0.160531
O O6 0.801402 0.796215 0.101030
O O7 0.797351 0.646530 0.000000
O O8 0.711036 0.500000 0.887140
O O9 0.689004 0.609174 0.758041
O O10 0.623966 0.197906 0.500000
O O11 0.587184 0.171329 0.343141
O O12 0.675299 0.161526 0.362038
O O13 0.640973 0.324266 0.376821
O O14 0.940709 0.500000 0.291465
O O15 0.000000 0.364850 0.306532
O O16 0.285621 0.105208 0.500000
O O17 0.230017 0.149027 0.619726
O O18 0.279166 0.000000 0.640550
O O19 0.323025 0.500000 0.377869
#
# Coordination Sequence:
#
# PCOD9487764 Si02
#       7
#    16  16  16  16  16  16  16
#     4   9  18  33  54  79 106 136 171 212 260 315
#     4  10  20  31  46  70 100 138 180 219 259 309
#     4  10  20  30  43  67 100 140 179 216 257 300
#     4  11  22  35  54  76 103 143 181 217 266 318
#     4  10  22  38  57  82 108 135 171 218 271 326
#     4   9  18  31  47  72 103 134 170 208 251 304
#     4  10  21  33  49  75 104 137 177 220 260 302
#
# _framework density 17.848703
#
# number of rings (size 3 to 8) (size 9 to 14) (size 15 to 20)
#    0.000    2.143    0.000    3.429    6.000    5.143 
#    0.000    2.143    0.000    0.429    0.000    1.000 
#    0.000    0.000    0.000   12.286    0.000    0.286 
#
# Total GULP energy -312307.290986 kJ/mol
# GULP energy per Si atom -5576.915910 kJ/mol
# Density = 1.780808 g / cm^3
# Si number density = 17.848703 Si / 1000 Ang^3
#
#
#
# Elastic Constant Matrix: (Units=GPa)
#
#
# Indices 1 2 3 4 5 6 
#
# 1 106.1336 39.0409 45.9830 0.0000 0.0000 0.0000
# 2 39.0409 57.8750 26.9301 0.0000 0.0000 0.0000
# 3 45.9830 26.9301 64.1652 0.0000 0.0000 0.0000
# 4 0.0000 0.0000 0.0000 16.6474 0.0000 0.0000
# 5 0.0000 0.0000 0.0000 0.0000 17.5974 0.0000
# 6 0.0000 0.0000 0.0000 0.0000 0.0000 23.7991
#
#
#
# Elastic Compliance Matrix: (Units=1/GPa)
#
#
# Indices 1 2 3 4 5 6 
#
# 1 0.015429 -0.006540 -0.008312 0.000000 0.000000 0.000000
# 2 -0.006540 0.024244 -0.005488 0.000000 0.000000 0.000000
# 3 -0.008312 -0.005488 0.023845 0.000000 0.000000 0.000000
# 4 0.000000 0.000000 0.000000 0.060069 0.000000 0.000000
# 5 0.000000 0.000000 0.000000 0.000000 0.056827 0.000000
# 6 0.000000 0.000000 0.000000 0.000000 0.000000 0.042018
#
#
# Mechanical properties :
#
#
# Convention : Reuss Voigt Hill
#
# Bulk Modulus (GPa) = 43.78865 50.23130 47.00998
# Shear Modulus (GPa) = 18.46881 19.35677 18.91279
#
# Velocity S-wave (km/s) = 3.22023 3.29673 3.25871
# Velocity P-wave (km/s) = 6.19782 6.53416 6.36821
#
# Compressibility (1/GPa) = 0.02283697
#
# Stress axis : x y z
#
# Youngs Moduli (GPa) = 64.81222 41.24668 41.93763
#
# Poissons Ratio (x) = 0.26977 0.34859
# Poissons Ratio (y) = 0.42390 0.23017
# Poissons Ratio (z) = 0.53872 0.22637
#
# Static dielectric constant tensor:
#      x y z
#    x 1.579130 0.000000 0.000000 
#    y 0.000000 1.639420 0.000000 
#    z 0.000000 0.000000 1.652330 
# 
# From -- ./inp_files/47021.got.cif
#   From: 2010.05.17/outbox.cif.g08.bks.cpg/sg65_24_cif.got.tgz:47021.got - 2010.06.03 17:01:31.
