data_PCOD9487821
_publ_section_title
;
Structure prediction by ZEFSAII (Michael W. Deem and Ramdas Pophale) SiO2 
 PCOD9487821
Probable space group: C M M M
;
_chemical_formula_sum "Si O2"
_cell_formula_units_Z 104
_cell_length_a 9.291076
_cell_length_b 27.691766
_cell_length_c 27.328075
_cell_angle_alpha 90.000000
_cell_angle_beta 90.000000
_cell_angle_gamma 90.000000
_cell_volume 7031.139371
_symmetry_space_group_name_H-M "C M M M"
_symmetry_group_IT_number 65
_symmetry_cell_setting 'orthorhombic'
loop_
_space_group_symop_operation_xyz
x,y,z
-x,-y,z
x,-y,-z
-x,y,-z
-x,-y,-z
x,y,-z
-x,y,z
x,-y,z
1/2+x,1/2+y,z
1/2-x,1/2-y,z
1/2+x,1/2-y,-z
1/2-x,1/2+y,-z
1/2-x,1/2-y,-z
1/2+x,1/2+y,-z
1/2-x,1/2+y,z
1/2+x,1/2-y,z
loop_
_atom_site_type_symbol
_atom_site_label
_atom_site_fract_x
_atom_site_fract_y
_atom_site_fract_z
Si Si1 0.828282 0.055821 0.607380
Si Si2 0.827631 0.641970 0.555653
Si Si3 0.329239 0.942615 0.804514
Si Si4 0.828880 0.700699 0.650921
Si Si5 0.172540 0.400237 0.699564
Si Si6 0.834203 0.941201 0.097325
Si Si7 0.166015 0.441115 0.000000
O O1 0.754747 0.093088 0.570051
O O2 0.758067 0.068163 0.659971
O O3 0.000000 0.063441 0.609034
O O4 0.800890 0.000000 0.594890
O O5 0.796684 0.656364 0.500000
O O6 0.788409 0.681547 0.596573
O O7 0.000000 0.633793 0.560330
O O8 0.500000 0.936566 0.813535
O O9 0.291100 0.915152 0.754670
O O10 0.241811 0.926567 0.852204
O O11 0.304037 0.000000 0.797000
O O12 0.750000 0.750000 0.663088
O O13 0.796892 0.655571 0.686559
O O14 0.000000 0.708531 0.651636
O O15 0.000000 0.407797 0.692734
O O16 0.000000 0.925980 0.095278
O O17 0.832022 0.000000 0.096970
O O18 0.747645 0.925482 0.049174
O O19 0.167274 0.500000 0.000000
O O20 0.000000 0.425982 0.000000
#
# Coordination Sequence:
#
# PCOD9487821 Si02
#       7
#    16  16  16  16  16  16   8
#     4  10  20  31  44  65  91 115 139 170 208 247
#     4   9  19  35  51  66  85 110 141 172 201 243
#     4   9  16  26  41  60  81 108 143 178 209 242
#     4   9  18  32  49  68  87 107 134 169 210 255
#     4   9  18  32  48  64  84 112 145 177 207 248
#     4   9  16  24  34  51  77 108 141 178 218 253
#     4   9  15  23  35  49  69 103 148 189 216 243
#
# _framework density 14.791344
#
# number of rings (size 3 to 8) (size 9 to 14) (size 15 to 20)
#    0.000    2.846    0.000    2.538    0.000    8.615 
#    0.000    3.077    0.000    0.000    0.000    0.000 
#    0.000    0.000    0.000    0.692    0.000    8.385 
#
# Total GULP energy -289739.653882 kJ/mol
# GULP energy per Si atom -5571.916421 kJ/mol
# Density = 1.475768 g / cm^3
# Si number density = 14.791344 Si / 1000 Ang^3
#
#
#
# Elastic Constant Matrix: (Units=GPa)
#
#
# Indices 1 2 3 4 5 6 
#
# 1 44.9108 19.8985 40.6723 0.0000 0.0000 0.0000
# 2 19.8985 42.3166 16.0967 0.0000 0.0000 0.0000
# 3 40.6723 16.0967 112.3293 0.0000 0.0000 0.0000
# 4 0.0000 0.0000 0.0000 8.7895 0.0000 0.0000
# 5 0.0000 0.0000 0.0000 0.0000 8.9149 0.0000
# 6 0.0000 0.0000 0.0000 0.0000 0.0000 20.9836
#
#
#
# Elastic Compliance Matrix: (Units=1/GPa)
#
#
# Indices 1 2 3 4 5 6 
#
# 1 0.039626 -0.013935 -0.012351 0.000000 0.000000 0.000000
# 2 -0.013935 0.029894 0.000762 0.000000 0.000000 0.000000
# 3 -0.012351 0.000762 0.013265 0.000000 0.000000 0.000000
# 4 0.000000 0.000000 0.000000 0.113772 0.000000 0.000000
# 5 0.000000 0.000000 0.000000 0.000000 0.112172 0.000000
# 6 0.000000 0.000000 0.000000 0.000000 0.000000 0.047656
#
#
# Mechanical properties :
#
#
# Convention : Reuss Voigt Hill
#
# Bulk Modulus (GPa) = 31.50895 39.21020 35.35957
# Shear Modulus (GPa) = 11.96135 15.93020 13.94578
#
# Velocity S-wave (km/s) = 2.84680 3.28532 3.07389
# Velocity P-wave (km/s) = 5.67047 6.39981 6.04615
#
# Compressibility (1/GPa) = 0.03173702
#
# Stress axis : x y z
#
# Youngs Moduli (GPa) = 25.23612 33.45113 75.38511
#
# Poissons Ratio (x) = 0.46615 0.93107
# Poissons Ratio (y) = 0.35167 -0.05743
# Poissons Ratio (z) = 0.31169 -0.02548
#
# Static dielectric constant tensor:
#      x y z
#    x 1.494660 0.000000 0.000000 
#    y 0.000000 1.458150 0.000000 
#    z 0.000000 0.000000 1.488460 
# 
# From -- ./inp_files/73806.got.cif
#   From: 2010.05.17/outbox.cif.g08.bks.cpg/sg65_37_cif.got.tgz:73806.got - 2010.06.03 17:01:31.
