data_PCOD9487558
_publ_section_title
;
Structure prediction by ZEFSAII (Michael W. Deem and Ramdas Pophale) SiO2 
 PCOD9487558
Probable space group: C M M M
;
_chemical_formula_sum "Si O2"
_cell_formula_units_Z 76
_cell_length_a 27.630681
_cell_length_b 15.979047
_cell_length_c 7.404051
_cell_angle_alpha 90.000000
_cell_angle_beta 90.000000
_cell_angle_gamma 90.000000
_cell_volume 3268.976997
_symmetry_space_group_name_H-M "C M M M"
_symmetry_group_IT_number 65
_symmetry_cell_setting 'orthorhombic'
loop_
_space_group_symop_operation_xyz
x,y,z
-x,-y,z
x,-y,-z
-x,y,-z
-x,-y,-z
x,y,-z
-x,y,z
x,-y,z
1/2+x,1/2+y,z
1/2-x,1/2-y,z
1/2+x,1/2-y,-z
1/2-x,1/2+y,-z
1/2-x,1/2-y,-z
1/2+x,1/2+y,-z
1/2-x,1/2+y,z
1/2+x,1/2-y,z
loop_
_atom_site_type_symbol
_atom_site_label
_atom_site_fract_x
_atom_site_fract_y
_atom_site_fract_z
Si Si1 0.918407 0.650377 0.206999
Si Si2 0.000000 0.389433 0.500000
Si Si3 0.706182 0.596761 0.713106
Si Si4 0.054895 0.000000 0.719628
Si Si5 0.607909 0.330569 0.718888
Si Si6 0.187283 0.404406 0.216388
O O1 0.957652 0.613542 0.341885
O O2 0.920518 0.751038 0.208029
O O3 0.863365 0.634403 0.274467
O O4 0.923527 0.619647 0.000000
O O5 0.697083 0.588955 0.500000
O O6 0.703861 0.500000 0.785362
O O7 0.663581 0.657192 0.780284
O O8 0.760297 0.631524 0.735264
O O9 0.082330 0.916465 0.773193
O O10 0.054777 0.000000 0.500000
O O11 0.000000 0.000000 0.781543
O O12 0.606151 0.322852 0.500000
O O13 0.188233 0.500000 0.282904
O O14 0.185793 0.404961 0.000000
#
# Coordination Sequence:
#
# PCOD9487558 Si02
#       6
#    16   4  16   8  16  16
#     4  11  25  43  66  95 123 161 210 260 314 379
#     4  12  26  48  69  87 126 164 200 262 326 375
#     4   9  17  31  56  90 128 170 210 254 305 368
#     4   9  18  30  55  85 119 171 218 260 309 358
#     4  10  19  35  58  90 132 167 214 262 311 362
#     4   9  20  40  63  89 126 164 202 255 319 377
#
# _framework density 23.248861000000002
#
# number of rings (size 3 to 8) (size 9 to 14) (size 15 to 20)
#    0.000    2.211    2.105    0.316    2.947    1.684 
#    0.000    5.789    0.000    3.158    0.000    0.000 
#    0.000    0.000    0.000    0.000    0.000    0.000 
#
# Total GULP energy -211760.990179 kJ/mol
# GULP energy per Si atom -5572.657636 kJ/mol
# Density = 2.319595 g / cm^3
# Si number density = 23.248861 Si / 1000 Ang^3
#
#
#
# Elastic Constant Matrix: (Units=GPa)
#
#
# Indices 1 2 3 4 5 6 
#
# 1 137.9176 1.9694 26.6033 0.0000 0.0000 0.0000
# 2 1.9694 30.1153 -5.3784 0.0000 0.0000 0.0000
# 3 26.6033 -5.3784 115.9226 0.0000 0.0000 0.0000
# 4 0.0000 0.0000 0.0000 -16.8233 0.0000 0.0000
# 5 0.0000 0.0000 0.0000 0.0000 66.0965 0.0000
# 6 0.0000 0.0000 0.0000 0.0000 0.0000 -42.0212
#
#
#
# Elastic Compliance Matrix: (Units=1/GPa)
#
#
# Indices 1 2 3 4 5 6 
#
# 1 0.007606 -0.000816 -0.001783 0.000000 0.000000 0.000000
# 2 -0.000816 0.033571 0.001745 0.000000 0.000000 0.000000
# 3 -0.001783 0.001745 0.009117 0.000000 0.000000 0.000000
# 4 0.000000 0.000000 0.000000 -0.059441 0.000000 0.000000
# 5 0.000000 0.000000 0.000000 0.000000 0.015129 0.000000
# 6 0.000000 0.000000 0.000000 0.000000 0.000000 -0.023797
#
#
# Mechanical properties :
#
#
# Convention : Reuss Voigt Hill
#
# Bulk Modulus (GPa) = 20.58267 36.70490 28.64379
# Shear Modulus (GPa) = 56560.69473 18.83446 28289.76460
#
# Velocity S-wave (km/s) = 156.14476 2.84936 110.42940
# Velocity P-wave (km/s) = 180.32504 5.16209 127.56130
#
# Compressibility (1/GPa) = 0.04858455
#
# Stress axis : x y z
#
# Youngs Moduli (GPa) = 131.46869 29.78791 109.68898
#
# Poissons Ratio (x) = 0.02430 0.19563
# Poissons Ratio (y) = 0.10727 -0.19139
# Poissons Ratio (z) = 0.23447 -0.05197
#
# Static dielectric constant tensor:
#      x y z
#    x 1.867680 0.000000 0.000000 
#    y 0.000000 1.894690 0.000000 
#    z 0.000000 0.000000 1.901140 
# 
# From -- ./inp_files/16113.got.cif
#   From: 2010.05.17/outbox.cif.g08.bks.cpg/sg65_9_cif.got.tgz:16113.got - 2010.06.03 17:01:31.
