data_PCOD9487373
_publ_section_title
;
Structure prediction by ZEFSAII (Michael W. Deem and Ramdas Pophale) SiO2 
 PCOD9487373
Probable space group: C M M M
;
_chemical_formula_sum "Si O2"
_cell_formula_units_Z 104
_cell_length_a 9.397465
_cell_length_b 32.120733
_cell_length_c 18.770812
_cell_angle_alpha 90.000000
_cell_angle_beta 90.000000
_cell_angle_gamma 90.000000
_cell_volume 5666.034627
_symmetry_space_group_name_H-M "C M M M"
_symmetry_group_IT_number 65
_symmetry_cell_setting 'orthorhombic'
loop_
_space_group_symop_operation_xyz
x,y,z
-x,-y,z
x,-y,-z
-x,y,-z
-x,-y,-z
x,y,-z
-x,y,z
x,-y,z
1/2+x,1/2+y,z
1/2-x,1/2-y,z
1/2+x,1/2-y,-z
1/2-x,1/2+y,-z
1/2-x,1/2-y,-z
1/2+x,1/2+y,-z
1/2-x,1/2+y,z
1/2+x,1/2-y,z
loop_
_atom_site_type_symbol
_atom_site_label
_atom_site_fract_x
_atom_site_fract_y
_atom_site_fract_z
Si Si1 0.672655 0.000000 0.082305
Si Si2 0.669486 0.293563 0.675514
Si Si3 0.833005 0.454160 0.357888
Si Si4 0.167981 0.846067 0.817623
Si Si5 0.661792 0.209435 0.085352
Si Si6 0.833034 0.430306 0.195622
Si Si7 0.667905 0.373799 0.584727
O O1 0.711826 0.959853 0.130030
O O2 0.500000 0.000000 0.080354
O O3 0.722560 0.000000 0.000000
O O4 0.500000 0.286871 0.666077
O O5 0.750000 0.250000 0.666460
O O6 0.692264 0.313180 0.753855
O O7 0.715405 0.330800 0.622244
O O8 0.782646 0.500000 0.382368
O O9 0.824773 0.452869 0.271868
O O10 0.749398 0.414619 0.387976
O O11 0.000000 0.450238 0.376681
O O12 0.253442 0.829644 0.885393
O O13 0.234387 0.890207 0.798141
O O14 0.000000 0.848815 0.830166
O O15 0.500000 0.210896 0.112369
O O16 0.750000 0.250000 0.107592
O O17 0.657282 0.208864 0.000000
O O18 0.000000 0.418761 0.185044
O O19 0.683364 0.370355 0.500000
O O20 0.500000 0.378526 0.602150
#
# Coordination Sequence:
#
# PCOD9487373 Si02
#       7
#     8  16  16  16  16  16  16
#     4   9  18  34  57  85 116 149 190 238 287 347
#     4  10  22  38  57  84 115 151 195 240 290 347
#     4  10  20  36  60  88 118 152 193 240 289 344
#     4  11  22  36  56  83 114 148 191 239 286 341
#     4  10  21  37  56  79 109 145 185 230 282 338
#     4  10  19  34  57  83 111 149 192 234 284 339
#     4  10  22  41  61  84 118 155 193 239 291 353
#
# _framework density 18.354987999999999
#
# number of rings (size 3 to 8) (size 9 to 14) (size 15 to 20)
#    0.000    1.923    2.308    1.385    0.000    5.846 
#    0.000    3.462    0.000    0.462    0.000    0.000 
#    0.000    0.000    0.000    0.000    0.000    0.000 
#
# Total GULP energy -290151.204979 kJ/mol
# GULP energy per Si atom -5579.830865 kJ/mol
# Density = 1.831321 g / cm^3
# Si number density = 18.354988 Si / 1000 Ang^3
#
#
#
# Elastic Constant Matrix: (Units=GPa)
#
#
# Indices 1 2 3 4 5 6 
#
# 1 84.6650 73.6020 35.6307 0.0000 0.0000 0.0000
# 2 73.6020 159.6251 37.0573 0.0000 0.0000 0.0000
# 3 35.6307 37.0573 47.2182 0.0000 0.0000 0.0000
# 4 0.0000 0.0000 0.0000 21.8777 0.0000 0.0000
# 5 0.0000 0.0000 0.0000 0.0000 17.1987 0.0000
# 6 0.0000 0.0000 0.0000 0.0000 0.0000 26.7454
#
#
#
# Elastic Compliance Matrix: (Units=1/GPa)
#
#
# Indices 1 2 3 4 5 6 
#
# 1 0.023911 -0.008359 -0.011482 0.000000 0.000000 0.000000
# 2 -0.008359 0.010583 -0.001998 0.000000 0.000000 0.000000
# 3 -0.011482 -0.001998 0.031411 0.000000 0.000000 0.000000
# 4 0.000000 0.000000 0.000000 0.045709 0.000000 0.000000
# 5 0.000000 0.000000 0.000000 0.000000 0.058144 0.000000
# 6 0.000000 0.000000 0.000000 0.000000 0.000000 0.037390
#
#
# Mechanical properties :
#
#
# Convention : Reuss Voigt Hill
#
# Bulk Modulus (GPa) = 44.99355 64.89869 54.94612
# Shear Modulus (GPa) = 19.36234 22.84557 21.10395
#
# Velocity S-wave (km/s) = 3.25142 3.53179 3.39450
# Velocity P-wave (km/s) = 6.21786 7.21565 6.73526
#
# Compressibility (1/GPa) = 0.02222541
#
# Stress axis : x y z
#
# Youngs Moduli (GPa) = 41.82255 94.49242 31.83647
#
# Poissons Ratio (x) = 0.78989 0.36556
# Poissons Ratio (y) = 0.34961 0.06360
# Poissons Ratio (z) = 0.48022 0.18876
#
# Static dielectric constant tensor:
#      x y z
#    x 1.614040 0.000000 0.000000 
#    y 0.000000 1.650740 0.000000 
#    z 0.000000 0.000000 1.639830 
# 
# From -- ./inp_files/60433.got.cif
#   From: 2010.05.17/outbox.cif.g08.bks.cpg/sg65_31_cif.got.tgz:60433.got - 2010.06.03 17:01:31.
