data_PCOD9487030
_publ_section_title
;
Structure prediction by ZEFSAII (Michael W. Deem and Ramdas Pophale) SiO2 
 PCOD9487030
Probable space group: C M M M
;
_chemical_formula_sum "Si O2"
_cell_formula_units_Z 88
_cell_length_a 9.024102
_cell_length_b 16.492112
_cell_length_c 30.971070
_cell_angle_alpha 90.000000
_cell_angle_beta 90.000000
_cell_angle_gamma 90.000000
_cell_volume 4609.315977
_symmetry_space_group_name_H-M "C M M M"
_symmetry_group_IT_number 65
_symmetry_cell_setting 'orthorhombic'
loop_
_space_group_symop_operation_xyz
x,y,z
-x,-y,z
x,-y,-z
-x,y,-z
-x,-y,-z
x,y,-z
-x,y,z
x,-y,z
1/2+x,1/2+y,z
1/2-x,1/2-y,z
1/2+x,1/2-y,-z
1/2-x,1/2+y,-z
1/2-x,1/2-y,-z
1/2+x,1/2+y,-z
1/2-x,1/2+y,z
1/2+x,1/2-y,z
loop_
_atom_site_type_symbol
_atom_site_label
_atom_site_fract_x
_atom_site_fract_y
_atom_site_fract_z
Si Si1 0.670937 0.597613 0.451924
Si Si2 0.319828 0.500000 0.950178
Si Si3 0.824903 0.663094 0.632448
Si Si4 0.180348 0.905828 0.809357
Si Si5 0.679471 0.335126 0.900326
Si Si6 0.668497 0.403077 0.715416
O O1 0.717691 0.625156 0.500000
O O2 0.500000 0.624104 0.445056
O O3 0.670255 0.500000 0.452366
O O4 0.770291 0.625490 0.412562
O O5 0.500000 0.500000 0.948715
O O6 0.275191 0.583953 0.926821
O O7 0.273181 0.500000 0.000000
O O8 0.750000 0.750000 0.635536
O O9 0.766604 0.615494 0.674191
O O10 0.000000 0.668339 0.633026
O O11 0.223851 0.853549 0.850635
O O12 0.227391 0.874409 0.762117
O O13 0.000000 0.907094 0.808107
O O14 0.227084 0.000000 0.815475
O O15 0.500000 0.329299 0.902530
O O16 0.750000 0.250000 0.914710
O O17 0.500000 0.372237 0.708345
O O18 0.658783 0.500000 0.720034
#
# Coordination Sequence:
#
# PCOD9487030 Si02
#       6
#    16   8  16  16  16  16
#     4   9  19  38  63  86 107 134 170 213 263 321
#     4   9  18  34  57  81 109 151 197 237 280 343
#     4  12  25  38  53  75 108 145 180 220 268 319
#     4   8  14  29  54  79 103 140 185 224 266 327
#     4  10  19  33  55  82 112 146 190 238 285 340
#     4   9  18  34  57  81 106 139 179 220 267 324
#
# _framework density 19.091771000000001
#
# number of rings (size 3 to 8) (size 9 to 14) (size 15 to 20)
#    0.000    2.455    0.909    3.818    0.000    4.727 
#    0.000    4.091    0.000    1.636    0.000    0.000 
#    0.000    0.000    0.000    0.000    0.000    0.000 
#
# Total GULP energy -245360.501212 kJ/mol
# GULP energy per Si atom -5576.375028 kJ/mol
# Density = 1.904832 g / cm^3
# Si number density = 19.091771 Si / 1000 Ang^3
#
#
#
# Elastic Constant Matrix: (Units=GPa)
#
#
# Indices 1 2 3 4 5 6 
#
# 1 57.9450 27.2394 53.7945 0.0000 0.0000 0.0000
# 2 27.2394 84.6556 57.1820 0.0000 0.0000 0.0000
# 3 53.7945 57.1820 158.5272 0.0000 0.0000 0.0000
# 4 0.0000 0.0000 0.0000 -8.3954 0.0000 0.0000
# 5 0.0000 0.0000 0.0000 0.0000 2.9112 0.0000
# 6 0.0000 0.0000 0.0000 0.0000 0.0000 26.7583
#
#
#
# Elastic Compliance Matrix: (Units=1/GPa)
#
#
# Indices 1 2 3 4 5 6 
#
# 1 0.025819 -0.003159 -0.007622 0.000000 0.000000 0.000000
# 2 -0.003159 0.016004 -0.004701 0.000000 0.000000 0.000000
# 3 -0.007622 -0.004701 0.010590 0.000000 0.000000 0.000000
# 4 0.000000 0.000000 0.000000 -0.119112 0.000000 0.000000
# 5 0.000000 0.000000 0.000000 0.000000 0.343504 0.000000
# 6 0.000000 0.000000 0.000000 0.000000 0.000000 0.037372
#
#
# Mechanical properties :
#
#
# Convention : Reuss Voigt Hill
#
# Bulk Modulus (GPa) = 46.62149 64.17329 55.39739
# Shear Modulus (GPa) = 14.19287 15.11560 14.65424
#
# Velocity S-wave (km/s) = 2.72950 2.81683 2.77351
# Velocity P-wave (km/s) = 5.86568 6.65322 6.27183
#
# Compressibility (1/GPa) = 0.02144934
#
# Stress axis : x y z
#
# Youngs Moduli (GPa) = 38.73159 62.48285 94.42856
#
# Poissons Ratio (x) = 0.19741 0.71970
# Poissons Ratio (y) = 0.12237 0.44389
# Poissons Ratio (z) = 0.29520 0.29372
#
# Static dielectric constant tensor:
#      x y z
#    x 1.640820 0.000000 0.000000 
#    y 0.000000 1.696560 0.000000 
#    z 0.000000 0.000000 1.739320 
# 
# From -- ./inp_files/76663.got.cif
#   From: 2010.05.17/outbox.cif.g08.bks.cpg/sg65_39_cif.got.tgz:76663.got - 2010.06.03 17:01:31.
