data_PCOD9487322
_publ_section_title
;
Structure prediction by ZEFSAII (Michael W. Deem and Ramdas Pophale) SiO2 
 PCOD9487322
Probable space group: C M M M
;
_chemical_formula_sum "Si O2"
_cell_formula_units_Z 96
_cell_length_a 8.625568
_cell_length_b 26.149654
_cell_length_c 24.185883
_cell_angle_alpha 90.000000
_cell_angle_beta 90.000000
_cell_angle_gamma 90.000000
_cell_volume 5455.261805
_symmetry_space_group_name_H-M "C M M M"
_symmetry_group_IT_number 65
_symmetry_cell_setting 'orthorhombic'
loop_
_space_group_symop_operation_xyz
x,y,z
-x,-y,z
x,-y,-z
-x,y,-z
-x,-y,-z
x,y,-z
-x,y,z
x,-y,z
1/2+x,1/2+y,z
1/2-x,1/2-y,z
1/2+x,1/2-y,-z
1/2-x,1/2+y,-z
1/2-x,1/2-y,-z
1/2+x,1/2+y,-z
1/2-x,1/2+y,z
1/2+x,1/2-y,z
loop_
_atom_site_type_symbol
_atom_site_label
_atom_site_fract_x
_atom_site_fract_y
_atom_site_fract_z
Si Si1 0.685633 0.193591 0.936397
Si Si2 0.314122 0.500000 0.435456
Si Si3 0.311015 0.500000 0.063232
Si Si4 0.312623 0.559953 0.748202
Si Si5 0.686144 0.904004 0.632220
Si Si6 0.313066 0.194184 0.563647
Si Si7 0.312477 0.400339 0.132139
O O1 0.500000 0.194874 0.934580
O O2 0.750000 0.250000 0.923770
O O3 0.747637 0.150980 0.894745
O O4 0.733424 0.181149 0.000000
O O5 0.500000 0.500000 0.430526
O O6 0.271872 0.500000 0.500000
O O7 0.248096 0.549750 0.405227
O O8 0.500000 0.500000 0.063250
O O9 0.262636 0.449040 0.095368
O O10 0.258256 0.500000 0.000000
O O11 0.500000 0.560568 0.745534
O O12 0.265696 0.500000 0.749547
O O13 0.246344 0.586712 0.693952
O O14 0.265527 0.587887 0.804853
O O15 0.500000 0.905229 0.632162
O O16 0.737961 0.850700 0.604617
O O17 0.264919 0.183116 0.500000
O O18 0.500000 0.195834 0.564378
O O19 0.250000 0.250000 0.578546
O O20 0.500000 0.398201 0.130791
#
# Coordination Sequence:
#
# PCOD9487322 Si02
#       7
#    16   8   8  16  16  16  16
#     4  10  21  37  57  82 112 146 184 230 283 336
#     4  11  23  36  53  80 112 145 182 227 280 337
#     4   9  16  27  49  80 108 135 172 217 266 325
#     4  10  20  36  56  79 111 149 188 228 271 323
#     4  11  22  36  56  82 111 145 186 229 276 328
#     4   9  19  36  57  81 109 140 176 221 272 326
#     4  10  19  34  56  82 110 145 186 227 273 325
#
# _framework density 17.597688999999999
#
# number of rings (size 3 to 8) (size 9 to 14) (size 15 to 20)
#    0.000    2.000    1.667    2.250    0.000    5.000 
#    0.000    2.917    0.000    3.500    0.000    0.000 
#    0.000    0.000    0.000    0.000    0.000    0.000 
#
# Total GULP energy -268008.837610 kJ/mol
# GULP energy per Si atom -5583.517450 kJ/mol
# Density = 1.755764 g / cm^3
# Si number density = 17.597689 Si / 1000 Ang^3
#
#
#
# Elastic Constant Matrix: (Units=GPa)
#
#
# Indices 1 2 3 4 5 6 
#
# 1 21.5289 36.1910 42.6461 0.0000 0.0000 0.0000
# 2 36.1910 173.3485 125.0549 0.0000 0.0000 0.0000
# 3 42.6461 125.0549 187.5752 0.0000 0.0000 0.0000
# 4 0.0000 0.0000 0.0000 347.5545 0.0000 0.0000
# 5 0.0000 0.0000 0.0000 0.0000 19.7122 0.0000
# 6 0.0000 0.0000 0.0000 0.0000 0.0000 29.0730
#
#
#
# Elastic Compliance Matrix: (Units=1/GPa)
#
#
# Indices 1 2 3 4 5 6 
#
# 1 0.089574 -0.007724 -0.015215 0.000000 0.000000 0.000000
# 2 -0.007724 0.011780 -0.006098 0.000000 0.000000 0.000000
# 3 -0.015215 -0.006098 0.012856 0.000000 0.000000 0.000000
# 4 0.000000 0.000000 0.000000 0.002877 0.000000 0.000000
# 5 0.000000 0.000000 0.000000 0.000000 0.050730 0.000000
# 6 0.000000 0.000000 0.000000 0.000000 0.000000 0.034396
#
#
# Mechanical properties :
#
#
# Convention : Reuss Voigt Hill
#
# Bulk Modulus (GPa) = 17.81418 87.80407 52.80913
# Shear Modulus (GPa) = 17.92121 91.17197 54.54659
#
# Velocity S-wave (km/s) = 3.19468 7.20566 5.57349
# Velocity P-wave (km/s) = 4.87370 10.91935 8.45533
#
# Compressibility (1/GPa) = 0.05613504
#
# Stress axis : x y z
#
# Youngs Moduli (GPa) = 11.16401 84.88759 77.78675
#
# Poissons Ratio (x) = 0.65571 1.18353
# Poissons Ratio (y) = 0.08624 0.47431
# Poissons Ratio (z) = 0.16986 0.51761
#
# Static dielectric constant tensor:
#      x y z
#    x 1.599470 0.000000 0.000000 
#    y 0.000000 1.568460 0.000000 
#    z 0.000000 0.000000 1.587980 
# 
# From -- ./inp_files/67924.got.cif
#   From: 2010.05.17/outbox.cif.g08.bks.cpg/sg65_34_cif.got.tgz:67924.got - 2010.06.03 17:01:31.
