data_PCOD9487520
_publ_section_title
;
Structure prediction by ZEFSAII (Michael W. Deem and Ramdas Pophale) SiO2 
 PCOD9487520
Probable space group: C M M M
;
_chemical_formula_sum "Si O2"
_cell_formula_units_Z 92
_cell_length_a 19.932321
_cell_length_b 9.112909
_cell_length_c 27.452303
_cell_angle_alpha 90.000000
_cell_angle_beta 90.000000
_cell_angle_gamma 90.000000
_cell_volume 4986.475503
_symmetry_space_group_name_H-M "C M M M"
_symmetry_group_IT_number 65
_symmetry_cell_setting 'orthorhombic'
loop_
_space_group_symop_operation_xyz
x,y,z
-x,-y,z
x,-y,-z
-x,y,-z
-x,-y,-z
x,y,-z
-x,y,z
x,-y,z
1/2+x,1/2+y,z
1/2-x,1/2-y,z
1/2+x,1/2-y,-z
1/2-x,1/2+y,-z
1/2-x,1/2-y,-z
1/2+x,1/2+y,-z
1/2-x,1/2+y,z
1/2+x,1/2-y,z
loop_
_atom_site_type_symbol
_atom_site_label
_atom_site_fract_x
_atom_site_fract_y
_atom_site_fract_z
Si Si1 0.226578 0.500000 0.000000
Si Si2 0.420918 0.666412 0.895925
Si Si3 0.319417 0.322416 0.276320
Si Si4 0.818538 0.675097 0.829135
Si Si5 0.576469 0.321987 0.639427
Si Si6 0.820956 0.823473 0.443342
Si Si7 0.643892 0.289880 0.000000
O O1 0.287500 0.620472 0.000000
O O2 0.168639 0.625239 0.000000
O O3 0.500000 0.690461 0.891103
O O4 0.405412 0.500000 0.878389
O O5 0.378161 0.780748 0.864762
O O6 0.398408 0.676201 0.951752
O O7 0.312685 0.500000 0.272644
O O8 0.250000 0.250000 0.294942
O O9 0.330310 0.249733 0.223502
O O10 0.380140 0.286985 0.312684
O O11 0.810305 0.500000 0.824976
O O12 0.750000 0.750000 0.848503
O O13 0.500000 0.267394 0.640295
O O14 0.573354 0.500000 0.637396
O O15 0.619844 0.274779 0.592613
O O16 0.835492 0.789643 0.500000
O O17 0.750000 0.750000 0.430522
O O18 0.814095 0.000000 0.438982
#
# Coordination Sequence:
#
# PCOD9487520 Si02
#       7
#     4  16  16  16  16  16   8
#     4  10  24  38  64  94 120 148 198 238 280 316
#     4  11  24  42  63  87 121 158 191 228 279 338
#     4  10  19  35  57  81 106 140 182 229 278 327
#     4  11  24  40  62  87 115 146 188 237 282 334
#     4   9  18  31  50  77 107 140 179 224 271 325
#     4   9  17  30  50  76 105 139 178 222 270 320
#     4  11  23  41  62  93 119 156 189 238 279 330
#
# _framework density 18.449904
#
# number of rings (size 3 to 8) (size 9 to 14) (size 15 to 20)
#    0.000    1.913    0.870    3.913    3.652    2.087 
#    0.000    4.783    0.000    4.174    0.000    2.435 
#    0.000    0.000    0.000    0.000    0.000    0.000 
#
# Total GULP energy -256177.921530 kJ/mol
# GULP energy per Si atom -5569.085251 kJ/mol
# Density = 1.840791 g / cm^3
# Si number density = 18.449904 Si / 1000 Ang^3
#
#
#
# Elastic Constant Matrix: (Units=GPa)
#
#
# Indices 1 2 3 4 5 6 
#
# 1 135.0176 44.4187 63.9865 0.0000 0.0000 0.0000
# 2 44.4187 112.4324 27.5027 0.0000 0.0000 0.0000
# 3 63.9865 27.5027 70.8850 0.0000 0.0000 0.0000
# 4 0.0000 0.0000 0.0000 22.4222 0.0000 0.0000
# 5 0.0000 0.0000 0.0000 0.0000 43.5159 0.0000
# 6 0.0000 0.0000 0.0000 0.0000 0.0000 28.9892
#
#
#
# Elastic Compliance Matrix: (Units=1/GPa)
#
#
# Indices 1 2 3 4 5 6 
#
# 1 0.013608 -0.002620 -0.011267 0.000000 0.000000 0.000000
# 2 -0.002620 0.010331 -0.001643 0.000000 0.000000 0.000000
# 3 -0.011267 -0.001643 0.024916 0.000000 0.000000 0.000000
# 4 0.000000 0.000000 0.000000 0.044599 0.000000 0.000000
# 5 0.000000 0.000000 0.000000 0.000000 0.022980 0.000000
# 6 0.000000 0.000000 0.000000 0.000000 0.000000 0.034496
#
#
# Mechanical properties :
#
#
# Convention : Reuss Voigt Hill
#
# Bulk Modulus (GPa) = 56.19931 65.57230 60.88581
# Shear Modulus (GPa) = 26.60681 31.14728 28.87704
#
# Velocity S-wave (km/s) = 3.80163 4.11324 3.96050
# Velocity P-wave (km/s) = 7.05666 7.62733 7.34754
#
# Compressibility (1/GPa) = 0.01779381
#
# Stress axis : x y z
#
# Youngs Moduli (GPa) = 73.48596 96.79299 40.13538
#
# Poissons Ratio (x) = 0.25360 0.45221
# Poissons Ratio (y) = 0.19253 0.06596
# Poissons Ratio (z) = 0.82798 0.15907
#
# Static dielectric constant tensor:
#      x y z
#    x 1.612950 0.000000 0.000000 
#    y 0.000000 1.641040 0.000000 
#    z 0.000000 0.000000 1.653460 
# 
# From -- ./inp_files/75423.got.cif
#   From: 2010.05.17/outbox.cif.g08.bks.cpg/sg65_38_cif.got.tgz:75423.got - 2010.06.03 17:01:31.
