data_PCOD9487720
_publ_section_title
;
Structure prediction by ZEFSAII (Michael W. Deem and Ramdas Pophale) SiO2 
 PCOD9487720
Probable space group: C M M M
;
_chemical_formula_sum "Si O2"
_cell_formula_units_Z 56
_cell_length_a 11.743812
_cell_length_b 15.887332
_cell_length_c 16.884777
_cell_angle_alpha 90.000000
_cell_angle_beta 90.000000
_cell_angle_gamma 90.000000
_cell_volume 3150.325225
_symmetry_space_group_name_H-M "C M M M"
_symmetry_group_IT_number 65
_symmetry_cell_setting 'orthorhombic'
loop_
_space_group_symop_operation_xyz
x,y,z
-x,-y,z
x,-y,-z
-x,y,-z
-x,-y,-z
x,y,-z
-x,y,z
x,-y,z
1/2+x,1/2+y,z
1/2-x,1/2-y,z
1/2+x,1/2-y,-z
1/2-x,1/2+y,-z
1/2-x,1/2-y,-z
1/2+x,1/2+y,-z
1/2-x,1/2+y,z
1/2+x,1/2-y,z
loop_
_atom_site_type_symbol
_atom_site_label
_atom_site_fract_x
_atom_site_fract_y
_atom_site_fract_z
Si Si1 0.868738 0.600086 0.833433
Si Si2 0.366057 0.194309 0.000000
Si Si3 0.230936 0.348165 0.326023
Si Si4 0.636235 0.500000 0.592577
Si Si5 0.500000 0.100685 0.410422
O O1 0.852510 0.500000 0.836556
O O2 0.857466 0.639476 0.920138
O O3 0.784087 0.637365 0.768023
O O4 0.000000 0.615643 0.807886
O O5 0.250000 0.250000 0.000000
O O6 0.500000 0.229225 0.000000
O O7 0.250000 0.250000 0.341917
O O8 0.317727 0.416051 0.363601
O O9 0.111594 0.370997 0.365648
O O10 0.500000 0.500000 0.593489
O O11 0.675161 0.500000 0.500000
O O12 0.500000 0.133050 0.500000
O O13 0.500000 0.000000 0.412185
#
# Coordination Sequence:
#
# PCOD9487720 Si02
#       5
#    16   8  16   8   8
#     4  10  19  37  64  92 122 158 208 261 306 370
#     4  10  21  37  61  95 127 164 206 257 317 375
#     4  12  24  40  64  93 123 162 210 261 316 372
#     4  11  26  45  61  86 129 171 208 259 325 389
#     4  11  22  40  64  88 116 158 213 264 314 367
#
# _framework density 17.775942000000001
#
# number of rings (size 3 to 8) (size 9 to 14) (size 15 to 20)
#    0.000    1.143    4.286    2.143    2.000    4.000 
#    0.000    1.429    0.000    0.857    0.000    0.000 
#    0.000    0.000    0.000    0.000    0.000    0.000 
#
# Total GULP energy -156210.148909 kJ/mol
# GULP energy per Si atom -5578.933890 kJ/mol
# Density = 1.773548 g / cm^3
# Si number density = 17.775942 Si / 1000 Ang^3
#
#
#
# Elastic Constant Matrix: (Units=GPa)
#
#
# Indices 1 2 3 4 5 6 
#
# 1 84.3263 42.8418 37.2354 0.0000 0.0000 0.0000
# 2 42.8418 117.2174 44.4441 0.0000 0.0000 0.0000
# 3 37.2354 44.4441 131.0841 0.0000 0.0000 0.0000
# 4 0.0000 0.0000 0.0000 31.4456 0.0000 0.0000
# 5 0.0000 0.0000 0.0000 0.0000 33.5610 0.0000
# 6 0.0000 0.0000 0.0000 0.0000 0.0000 23.5319
#
#
#
# Elastic Compliance Matrix: (Units=1/GPa)
#
#
# Indices 1 2 3 4 5 6 
#
# 1 0.015430 -0.004564 -0.002835 0.000000 0.000000 0.000000
# 2 -0.004564 0.011140 -0.002480 0.000000 0.000000 0.000000
# 3 -0.002835 -0.002480 0.009275 0.000000 0.000000 0.000000
# 4 0.000000 0.000000 0.000000 0.031801 0.000000 0.000000
# 5 0.000000 0.000000 0.000000 0.000000 0.029796 0.000000
# 6 0.000000 0.000000 0.000000 0.000000 0.000000 0.042496
#
#
# Mechanical properties :
#
#
# Convention : Reuss Voigt Hill
#
# Bulk Modulus (GPa) = 62.17242 64.63004 63.40123
# Shear Modulus (GPa) = 30.29217 31.58146 30.93682
#
# Velocity S-wave (km/s) = 4.13257 4.21959 4.17631
# Velocity P-wave (km/s) = 7.60410 7.75739 7.68113
#
# Compressibility (1/GPa) = 0.01608430
#
# Stress axis : x y z
#
# Youngs Moduli (GPa) = 64.81060 89.76777 107.81566
#
# Poissons Ratio (x) = 0.40973 0.30570
# Poissons Ratio (y) = 0.29582 0.26743
# Poissons Ratio (z) = 0.18376 0.22266
#
# Static dielectric constant tensor:
#      x y z
#    x 1.603000 0.000000 0.000000 
#    y 0.000000 1.542840 0.000000 
#    z 0.000000 0.000000 1.620710 
# 
# From -- ./inp_files/37453.got.cif
#   From: 2010.05.17/outbox.cif.g08.bks.cpg/sg65_19_cif.got.tgz:37453.got - 2010.06.03 17:01:31.
