data_PCOD9487099
_publ_section_title
;
Structure prediction by ZEFSAII (Michael W. Deem and Ramdas Pophale) SiO2 
 PCOD9487099
Probable space group: C M M M
;
_chemical_formula_sum "Si O2"
_cell_formula_units_Z 64
_cell_length_a 25.385615
_cell_length_b 15.026905
_cell_length_c 8.761128
_cell_angle_alpha 90.000000
_cell_angle_beta 90.000000
_cell_angle_gamma 90.000000
_cell_volume 3342.083186
_symmetry_space_group_name_H-M "C M M M"
_symmetry_group_IT_number 65
_symmetry_cell_setting 'orthorhombic'
loop_
_space_group_symop_operation_xyz
x,y,z
-x,-y,z
x,-y,-z
-x,y,-z
-x,-y,-z
x,y,-z
-x,y,z
x,-y,z
1/2+x,1/2+y,z
1/2-x,1/2-y,z
1/2+x,1/2-y,-z
1/2-x,1/2+y,-z
1/2-x,1/2-y,-z
1/2+x,1/2+y,-z
1/2-x,1/2+y,z
1/2+x,1/2-y,z
loop_
_atom_site_type_symbol
_atom_site_label
_atom_site_fract_x
_atom_site_fract_y
_atom_site_fract_z
Si Si1 0.939822 0.000000 0.186060
Si Si2 0.636650 0.147361 0.683691
Si Si3 0.361917 0.655542 0.817879
Si Si4 0.938677 0.500000 0.183064
Si Si5 0.253107 0.641809 0.324433
O O1 0.906926 0.913080 0.232093
O O2 0.000000 0.000000 0.239271
O O3 0.940514 0.000000 0.000000
O O4 0.635597 0.145466 0.500000
O O5 0.631187 0.248511 0.740360
O O6 0.695261 0.113410 0.730298
O O7 0.591805 0.085360 0.751808
O O8 0.304319 0.618443 0.772061
O O9 0.364087 0.666315 0.000000
O O10 0.000000 0.500000 0.227620
O O11 0.935643 0.500000 0.000000
O O12 0.260551 0.613494 0.500000
O O13 0.250000 0.750000 0.324573
#
# Coordination Sequence:
#
# PCOD9487099 Si02
#       5
#     8  16  16   8  16
#     4   9  20  37  53  74 108 147 186 227 272 321
#     4  10  21  38  59  83 113 148 181 220 278 338
#     4  10  19  33  57  85 111 145 188 232 277 324
#     4  11  25  42  59  82 110 143 188 235 276 327
#     4   8  16  32  53  79 112 146 178 217 272 335
#
# _framework density 19.149733000000001
#
# number of rings (size 3 to 8) (size 9 to 14) (size 15 to 20)
#    0.000    2.500    0.000    3.375    0.000    8.500 
#    0.000    7.500    0.000    5.250    0.000    0.000 
#    0.000    0.000    0.000    0.000    0.000    0.000 
#
# Total GULP energy -178623.502496 kJ/mol
# GULP energy per Si atom -5581.984453 kJ/mol
# Density = 1.910615 g / cm^3
# Si number density = 19.149733 Si / 1000 Ang^3
#
#
#
# Elastic Constant Matrix: (Units=GPa)
#
#
# Indices 1 2 3 4 5 6 
#
# 1 210.4321 89.2337 55.1937 0.0000 0.0000 0.0000
# 2 89.2337 105.2351 30.3168 0.0000 0.0000 0.0000
# 3 55.1937 30.3168 46.7247 0.0000 0.0000 0.0000
# 4 0.0000 0.0000 0.0000 -791.4970 0.0000 0.0000
# 5 0.0000 0.0000 0.0000 0.0000 10.5778 0.0000
# 6 0.0000 0.0000 0.0000 0.0000 0.0000 34.5455
#
#
#
# Elastic Compliance Matrix: (Units=1/GPa)
#
#
# Indices 1 2 3 4 5 6 
#
# 1 0.008938 -0.005580 -0.006937 0.000000 0.000000 0.000000
# 2 -0.005580 0.015171 -0.003252 0.000000 0.000000 0.000000
# 3 -0.006937 -0.003252 0.031707 0.000000 0.000000 0.000000
# 4 0.000000 0.000000 0.000000 -0.001263 0.000000 0.000000
# 5 0.000000 0.000000 0.000000 0.000000 0.094538 0.000000
# 6 0.000000 0.000000 0.000000 0.000000 0.000000 0.028947
#
#
# Mechanical properties :
#
#
# Convention : Reuss Voigt Hill
#
# Bulk Modulus (GPa) = 41.19153 79.09781 60.14467
# Shear Modulus (GPa) = 22.97066 -136.76489 -56.89711
#
# Velocity S-wave (km/s) = 3.46718 -8.46013 -5.45676
# Velocity P-wave (km/s) = 6.13069 7.35099 2.86807
#
# Compressibility (1/GPa) = 0.02427683
#
# Stress axis : x y z
#
# Youngs Moduli (GPa) = 111.88052 65.91412 31.53920
#
# Poissons Ratio (x) = 0.36783 0.21880
# Poissons Ratio (y) = 0.62435 0.10256
# Poissons Ratio (z) = 0.77615 0.21433
#
# Static dielectric constant tensor:
#      x y z
#    x 1.668930 0.000000 0.000000 
#    y 0.000000 1.673730 0.000000 
#    z 0.000000 0.000000 1.641140 
# 
# From -- ./inp_files/13348.got.cif
#   From: 2010.05.17/outbox.cif.g08.bks.cpg/sg65_7_cif.got.tgz:13348.got - 2010.06.03 17:01:31.
