data_PCOD9487239
_publ_section_title
;
Structure prediction by ZEFSAII (Michael W. Deem and Ramdas Pophale) SiO2 
 PCOD9487239
Probable space group: C M M M
;
_chemical_formula_sum "Si O2"
_cell_formula_units_Z 96
_cell_length_a 7.822521
_cell_length_b 29.837925
_cell_length_c 21.346318
_cell_angle_alpha 90.000000
_cell_angle_beta 90.000000
_cell_angle_gamma 90.000000
_cell_volume 4982.397014
_symmetry_space_group_name_H-M "C M M M"
_symmetry_group_IT_number 65
_symmetry_cell_setting 'orthorhombic'
loop_
_space_group_symop_operation_xyz
x,y,z
-x,-y,z
x,-y,-z
-x,y,-z
-x,-y,-z
x,y,-z
-x,y,z
x,-y,z
1/2+x,1/2+y,z
1/2-x,1/2-y,z
1/2+x,1/2-y,-z
1/2-x,1/2+y,-z
1/2-x,1/2-y,-z
1/2+x,1/2+y,-z
1/2-x,1/2+y,z
1/2+x,1/2-y,z
loop_
_atom_site_type_symbol
_atom_site_label
_atom_site_fract_x
_atom_site_fract_y
_atom_site_fract_z
Si Si1 0.299448 0.395311 0.931886
Si Si2 0.797003 0.449522 0.809208
Si Si3 0.705044 0.799128 0.258719
Si Si4 0.208573 0.448477 0.429206
Si Si5 0.709951 0.107411 0.689772
Si Si6 0.704346 0.200471 0.114247
O O1 0.500000 0.405086 0.932410
O O2 0.226336 0.421666 0.872731
O O3 0.275587 0.342153 0.921920
O O4 0.226254 0.407895 0.000000
O O5 0.726759 0.500000 0.813577
O O6 0.731547 0.421998 0.749299
O O7 0.000000 0.453162 0.799231
O O8 0.500000 0.801903 0.255376
O O9 0.750000 0.750000 0.283320
O O10 0.765784 0.841586 0.298248
O O11 0.767868 0.802194 0.186594
O O12 0.263170 0.437083 0.500000
O O13 0.258927 0.500000 0.415947
O O14 0.266559 0.415303 0.374738
O O15 0.000000 0.447949 0.429031
O O16 0.500000 0.107260 0.689470
O O17 0.500000 0.196261 0.114316
O O18 0.750000 0.250000 0.090177
#
# Coordination Sequence:
#
# PCOD9487239 Si02
#       6
#    16  16  16  16  16  16
#     4  11  24  39  53  71  99 134 168 206 255 306
#     4  10  20  35  55  76  97 126 167 213 258 303
#     4   9  17  29  47  71  98 126 159 199 244 290
#     4   8  13  21  37  66 102 135 164 196 240 293
#     4   9  15  27  46  70  99 130 163 202 247 294
#     4  10  19  34  55  78 102 129 164 206 253 305
#
# _framework density 19.267833
#
# number of rings (size 3 to 8) (size 9 to 14) (size 15 to 20)
#    0.000    2.500    1.667    2.000    0.000    5.000 
#    0.000    1.667    0.000    0.500    0.000    0.000 
#    0.000    2.000    0.000    9.167    0.000    8.333 
#
# Total GULP energy -267813.859138 kJ/mol
# GULP energy per Si atom -5579.455399 kJ/mol
# Density = 1.922398 g / cm^3
# Si number density = 19.267833 Si / 1000 Ang^3
#
#
#
# Elastic Constant Matrix: (Units=GPa)
#
#
# Indices 1 2 3 4 5 6 
#
# 1 20.9017 -2.7834 -0.8662 0.0000 0.0000 0.0000
# 2 -2.7834 140.8339 83.8924 0.0000 0.0000 0.0000
# 3 -0.8662 83.8924 133.0567 0.0000 0.0000 0.0000
# 4 0.0000 0.0000 0.0000 23.1461 0.0000 0.0000
# 5 0.0000 0.0000 0.0000 0.0000 -136.4348 0.0000
# 6 0.0000 0.0000 0.0000 0.0000 0.0000 18.6663
#
#
#
# Elastic Compliance Matrix: (Units=1/GPa)
#
#
# Indices 1 2 3 4 5 6 
#
# 1 0.047987 0.001221 -0.000457 0.000000 0.000000 0.000000
# 2 0.001221 0.011402 -0.007181 0.000000 0.000000 0.000000
# 3 -0.000457 -0.007181 0.012040 0.000000 0.000000 0.000000
# 4 0.000000 0.000000 0.000000 0.043204 0.000000 0.000000
# 5 0.000000 0.000000 0.000000 0.000000 -0.007330 0.000000
# 6 0.000000 0.000000 0.000000 0.000000 0.000000 0.053573
#
#
# Mechanical properties :
#
#
# Convention : Reuss Voigt Hill
#
# Bulk Modulus (GPa) = 17.06662 50.58643 33.82652
# Shear Modulus (GPa) = 25.87410 -4.62118 10.62646
#
# Velocity S-wave (km/s) = 3.66849 -1.55035 2.35098
# Velocity P-wave (km/s) = 5.17885 4.80693 4.99635
#
# Compressibility (1/GPa) = 0.05859392
#
# Stress axis : x y z
#
# Youngs Moduli (GPa) = 20.83912 87.70011 83.05333
#
# Poissons Ratio (x) = -0.10707 0.03798
# Poissons Ratio (y) = -0.02544 0.59643
# Poissons Ratio (z) = 0.00953 0.62980
#
# Static dielectric constant tensor:
#      x y z
#    x 1.714790 0.000000 0.000000 
#    y 0.000000 1.669000 0.000000 
#    z 0.000000 0.000000 1.668820 
# 
# From -- ./inp_files/60169.got.cif
#   From: 2010.05.17/outbox.cif.g08.bks.cpg/sg65_31_cif.got.tgz:60169.got - 2010.06.03 17:01:31.
