data_PCOD9487218
_publ_section_title
;
Structure prediction by ZEFSAII (Michael W. Deem and Ramdas Pophale) SiO2 
 PCOD9487218
Probable space group: C M M M
;
_chemical_formula_sum "Si O2"
_cell_formula_units_Z 104
_cell_length_a 8.872483
_cell_length_b 29.191835
_cell_length_c 23.425912
_cell_angle_alpha 90.000000
_cell_angle_beta 90.000000
_cell_angle_gamma 90.000000
_cell_volume 6067.406312
_symmetry_space_group_name_H-M "C M M M"
_symmetry_group_IT_number 65
_symmetry_cell_setting 'orthorhombic'
loop_
_space_group_symop_operation_xyz
x,y,z
-x,-y,z
x,-y,-z
-x,y,-z
-x,-y,-z
x,y,-z
-x,y,z
x,-y,z
1/2+x,1/2+y,z
1/2-x,1/2-y,z
1/2+x,1/2-y,-z
1/2-x,1/2+y,-z
1/2-x,1/2-y,-z
1/2+x,1/2+y,-z
1/2-x,1/2+y,z
1/2+x,1/2-y,z
loop_
_atom_site_type_symbol
_atom_site_label
_atom_site_fract_x
_atom_site_fract_y
_atom_site_fract_z
Si Si1 0.319169 0.298293 0.849344
Si Si2 0.819131 0.896676 0.890471
Si Si3 0.180593 0.798700 0.284461
Si Si4 0.681313 0.553100 0.433875
Si Si5 0.180832 0.446279 0.000000
Si Si6 0.319538 0.946124 0.781290
Si Si7 0.679999 0.110535 0.332673
O O1 0.500000 0.294810 0.851615
O O2 0.250000 0.250000 0.868093
O O3 0.273124 0.343307 0.884229
O O4 0.277344 0.305705 0.782571
O O5 0.745332 0.921453 0.944217
O O6 0.766668 0.922125 0.833022
O O7 0.000000 0.898504 0.894993
O O8 0.250000 0.750000 0.301788
O O9 0.245680 0.840483 0.320520
O O10 0.000000 0.797444 0.288065
O O11 0.720075 0.562655 0.500000
O O12 0.500000 0.556637 0.428633
O O13 0.722326 0.500000 0.421922
O O14 0.759382 0.586532 0.389441
O O15 0.223732 0.500000 0.000000
O O16 0.000000 0.443761 0.000000
O O17 0.500000 0.941349 0.790587
O O18 0.282069 0.921676 0.721659
O O19 0.284586 0.000000 0.778940
O O20 0.500000 0.115124 0.335031
#
# Coordination Sequence:
#
# PCOD9487218 Si02
#       7
#    16  16  16  16   8  16  16
#     4   9  19  34  55  82 111 140 176 220 269 324
#     4  11  22  38  58  83 109 139 181 228 273 322
#     4  10  19  34  54  80 113 146 183 225 274 330
#     4   9  19  36  56  78 108 149 193 234 278 328
#     4  11  25  43  60  79 106 145 188 225 268 327
#     4  10  21  35  51  76 111 146 179 220 271 325
#     4  11  21  33  53  82 114 147 184 227 277 330
#
# _framework density 17.140765999999999
#
# number of rings (size 3 to 8) (size 9 to 14) (size 15 to 20)
#    0.000    1.923    1.538    3.000    0.000    6.462 
#    0.000    1.154    0.000    0.462    0.000    0.000 
#    0.000    0.000    0.000    0.000    0.000    0.000 
#
# Total GULP energy -290390.231760 kJ/mol
# GULP energy per Si atom -5584.427534 kJ/mol
# Density = 1.710175 g / cm^3
# Si number density = 17.140766 Si / 1000 Ang^3
#
#
#
# Elastic Constant Matrix: (Units=GPa)
#
#
# Indices 1 2 3 4 5 6 
#
# 1 47.0398 64.7207 49.6049 0.0000 0.0000 0.0000
# 2 64.7207 183.4503 90.7919 0.0000 0.0000 0.0000
# 3 49.6049 90.7919 106.0374 0.0000 0.0000 0.0000
# 4 0.0000 0.0000 0.0000 29.5182 0.0000 0.0000
# 5 0.0000 0.0000 0.0000 0.0000 -23.0323 0.0000
# 6 0.0000 0.0000 0.0000 0.0000 0.0000 30.3475
#
#
#
# Elastic Compliance Matrix: (Units=1/GPa)
#
#
# Indices 1 2 3 4 5 6 
#
# 1 0.052213 -0.010989 -0.015017 0.000000 0.000000 0.000000
# 2 -0.010989 0.011772 -0.004939 0.000000 0.000000 0.000000
# 3 -0.015017 -0.004939 0.020685 0.000000 0.000000 0.000000
# 4 0.000000 0.000000 0.000000 0.033877 0.000000 0.000000
# 5 0.000000 0.000000 0.000000 0.000000 -0.043417 0.000000
# 6 0.000000 0.000000 0.000000 0.000000 0.000000 0.032952
#
#
# Mechanical properties :
#
#
# Convention : Reuss Voigt Hill
#
# Bulk Modulus (GPa) = 43.89663 82.97362 63.43513
# Shear Modulus (GPa) = 28.15864 16.12734 22.14299
#
# Velocity S-wave (km/s) = 4.05753 3.07070 3.59811
# Velocity P-wave (km/s) = 6.90047 7.81566 7.37228
#
# Compressibility (1/GPa) = 0.02278079
#
# Stress axis : x y z
#
# Youngs Moduli (GPa) = 19.15218 84.94518 48.34483
#
# Poissons Ratio (x) = 0.93343 0.72599
# Poissons Ratio (y) = 0.21046 0.23878
# Poissons Ratio (z) = 0.28761 0.41956
#
# Static dielectric constant tensor:
#      x y z
#    x 1.569640 0.000000 0.000000 
#    y 0.000000 1.568630 0.000000 
#    z 0.000000 0.000000 1.553340 
# 
# From -- ./inp_files/60419.got.cif
#   From: 2010.05.17/outbox.cif.g08.bks.cpg/sg65_31_cif.got.tgz:60419.got - 2010.06.03 17:01:31.
