data_PCOD9487038
_publ_section_title
;
Structure prediction by ZEFSAII (Michael W. Deem and Ramdas Pophale) SiO2 
 PCOD9487038
Probable space group: C M M M
;
_chemical_formula_sum "Si O2"
_cell_formula_units_Z 72
_cell_length_a 27.627655
_cell_length_b 15.252866
_cell_length_c 8.077902
_cell_angle_alpha 90.000000
_cell_angle_beta 90.000000
_cell_angle_gamma 90.000000
_cell_volume 3404.035331
_symmetry_space_group_name_H-M "C M M M"
_symmetry_group_IT_number 65
_symmetry_cell_setting 'orthorhombic'
loop_
_space_group_symop_operation_xyz
x,y,z
-x,-y,z
x,-y,-z
-x,y,-z
-x,-y,-z
x,y,-z
-x,y,z
x,-y,z
1/2+x,1/2+y,z
1/2-x,1/2-y,z
1/2+x,1/2-y,-z
1/2-x,1/2+y,-z
1/2-x,1/2-y,-z
1/2+x,1/2+y,-z
1/2-x,1/2+y,z
1/2+x,1/2-y,z
loop_
_atom_site_type_symbol
_atom_site_label
_atom_site_fract_x
_atom_site_fract_y
_atom_site_fract_z
Si Si1 0.270637 0.158778 0.803000
Si Si2 0.000000 0.100918 0.802242
Si Si3 0.171907 0.094083 0.300779
Si Si4 0.375979 0.901752 0.800565
Si Si5 0.090052 0.779392 0.697579
O O1 0.250000 0.250000 0.730950
O O2 0.225508 0.096148 0.771100
O O3 0.321967 0.124623 0.737890
O O4 0.277102 0.169942 0.000000
O O5 0.953711 0.157789 0.748087
O O6 0.000000 0.000000 0.737988
O O7 0.000000 0.096218 0.000000
O O8 0.175329 0.100441 0.500000
O O9 0.139116 0.173756 0.237484
O O10 0.148456 0.000000 0.261131
O O11 0.410774 0.821093 0.755380
O O12 0.388562 0.000000 0.741685
O O13 0.373998 0.905438 0.000000
O O14 0.092267 0.778495 0.500000
#
# Coordination Sequence:
#
# PCOD9487038 Si02
#       5
#    16   8  16  16  16
#     4  10  19  33  55  82 116 158 204 250 292 340
#     4  11  25  45  70  97 122 151 189 236 296 363
#     4  10  21  35  53  81 117 156 196 239 291 351
#     4  10  21  38  59  85 121 164 208 253 300 349
#     4  11  23  40  63  89 121 156 195 245 300 359
#
# _framework density 21.151365999999999
#
# number of rings (size 3 to 8) (size 9 to 14) (size 15 to 20)
#    0.000    1.667    2.222    2.333    0.000    5.778 
#    0.000    0.556    0.000    3.333    0.000    0.000 
#    0.000    0.000    0.000    0.000    0.000    0.000 
#
# Total GULP energy -200953.192284 kJ/mol
# GULP energy per Si atom -5582.033119 kJ/mol
# Density = 2.110322 g / cm^3
# Si number density = 21.151366 Si / 1000 Ang^3
#
#
#
# Elastic Constant Matrix: (Units=GPa)
#
#
# Indices 1 2 3 4 5 6 
#
# 1 79.8641 55.3787 -0.4300 0.0000 0.0000 0.0000
# 2 55.3787 204.6635 18.9239 0.0000 0.0000 0.0000
# 3 -0.4300 18.9239 21.3878 0.0000 0.0000 0.0000
# 4 0.0000 0.0000 0.0000 13.1468 0.0000 0.0000
# 5 0.0000 0.0000 0.0000 0.0000 25.7198 0.0000
# 6 0.0000 0.0000 0.0000 0.0000 0.0000 30.6796
#
#
#
# Elastic Compliance Matrix: (Units=1/GPa)
#
#
# Indices 1 2 3 4 5 6 
#
# 1 0.015795 -0.004687 0.004464 0.000000 0.000000 0.000000
# 2 -0.004687 0.006712 -0.006033 0.000000 0.000000 0.000000
# 3 0.004464 -0.006033 0.052183 0.000000 0.000000 0.000000
# 4 0.000000 0.000000 0.000000 0.076064 0.000000 0.000000
# 5 0.000000 0.000000 0.000000 0.000000 0.038881 0.000000
# 6 0.000000 0.000000 0.000000 0.000000 0.000000 0.032595
#
#
# Mechanical properties :
#
#
# Convention : Reuss Voigt Hill
#
# Bulk Modulus (GPa) = 16.08241 50.40671 33.24456
# Shear Modulus (GPa) = 19.57198 29.37877 24.47538
#
# Velocity S-wave (km/s) = 3.04522 3.73094 3.40539
# Velocity P-wave (km/s) = 4.47040 6.51483 5.58693
#
# Compressibility (1/GPa) = 0.06217973
#
# Stress axis : x y z
#
# Youngs Moduli (GPa) = 63.31069 148.98584 19.16321
#
# Poissons Ratio (x) = 0.69825 -0.08555
# Poissons Ratio (y) = 0.29672 0.11561
# Poissons Ratio (z) = -0.28264 0.89884
#
# Static dielectric constant tensor:
#      x y z
#    x 1.757670 0.000000 0.000000 
#    y 0.000000 1.845570 0.000000 
#    z 0.000000 0.000000 1.742330 
# 
# From -- ./inp_files/7280.got.cif
#   From: 2010.05.17/outbox.cif.g08.bks.cpg/sg65_4_cif.got.tgz:7280.got - 2010.06.03 17:01:31.
