data_PCOD9487374
_publ_section_title
;
Structure prediction by ZEFSAII (Michael W. Deem and Ramdas Pophale) SiO2 
 PCOD9487374
Probable space group: C M M M
;
_chemical_formula_sum "Si O2"
_cell_formula_units_Z 64
_cell_length_a 16.816288
_cell_length_b 8.117917
_cell_length_c 22.669002
_cell_angle_alpha 90.000000
_cell_angle_beta 90.000000
_cell_angle_gamma 90.000000
_cell_volume 3094.618689
_symmetry_space_group_name_H-M "C M M M"
_symmetry_group_IT_number 65
_symmetry_cell_setting 'orthorhombic'
loop_
_space_group_symop_operation_xyz
x,y,z
-x,-y,z
x,-y,-z
-x,y,-z
-x,-y,-z
x,y,-z
-x,y,z
x,-y,z
1/2+x,1/2+y,z
1/2-x,1/2-y,z
1/2+x,1/2-y,-z
1/2-x,1/2+y,-z
1/2-x,1/2-y,-z
1/2+x,1/2+y,-z
1/2-x,1/2+y,z
1/2+x,1/2-y,z
loop_
_atom_site_type_symbol
_atom_site_label
_atom_site_fract_x
_atom_site_fract_y
_atom_site_fract_z
Si Si1 0.840037 0.196341 0.875911
Si Si2 0.089919 0.200926 0.753776
Si Si3 0.000000 0.201008 0.568497
Si Si4 0.337653 0.698627 0.634030
Si Si5 0.911023 0.303971 0.000000
O O1 0.750000 0.250000 0.867210
O O2 0.888877 0.259565 0.819348
O O3 0.868821 0.253575 0.939720
O O4 0.845560 0.000000 0.875667
O O5 0.148647 0.255081 0.701825
O O6 0.000000 0.248021 0.738191
O O7 0.092282 0.000000 0.754751
O O8 0.916817 0.254835 0.598738
O O9 0.000000 0.247534 0.500000
O O10 0.000000 0.000000 0.572243
O O11 0.339243 0.500000 0.633032
O O12 0.250000 0.750000 0.612747
O O13 0.915004 0.500000 0.000000
O O14 0.000000 0.233262 0.000000
#
# Coordination Sequence:
#
# PCOD9487374 Si02
#       5
#    16  16   8  16   8
#     4  11  22  36  56  80 108 140 181 227 276 333
#     4   9  17  32  55  81 107 142 186 231 276 329
#     4   9  18  34  57  83 113 154 197 230 270 337
#     4  10  19  34  57  83 114 149 191 237 283 334
#     4  11  24  41  58  77 105 139 178 225 280 335
#
# _framework density 20.681061
#
# number of rings (size 3 to 8) (size 9 to 14) (size 15 to 20)
#    0.000    2.000    1.250    3.000    0.000    2.500 
#    0.000    1.875    0.000    3.750    0.000    0.000 
#    0.000    0.000    0.000    0.000    0.000    0.000 
#
# Total GULP energy -178620.070238 kJ/mol
# GULP energy per Si atom -5581.877195 kJ/mol
# Density = 2.063399 g / cm^3
# Si number density = 20.681061 Si / 1000 Ang^3
#
#
#
# Elastic Constant Matrix: (Units=GPa)
#
#
# Indices 1 2 3 4 5 6 
#
# 1 152.5234 5.6442 63.0433 0.0000 0.0000 0.0000
# 2 5.6442 20.0397 13.7339 0.0000 0.0000 0.0000
# 3 63.0433 13.7339 131.5824 0.0000 0.0000 0.0000
# 4 0.0000 0.0000 0.0000 3.7412 0.0000 0.0000
# 5 0.0000 0.0000 0.0000 0.0000 24.8585 0.0000
# 6 0.0000 0.0000 0.0000 0.0000 0.0000 187.0175
#
#
#
# Elastic Compliance Matrix: (Units=1/GPa)
#
#
# Indices 1 2 3 4 5 6 
#
# 1 0.008179 0.000411 -0.003961 0.000000 0.000000 0.000000
# 2 0.000411 0.053766 -0.005809 0.000000 0.000000 0.000000
# 3 -0.003961 -0.005809 0.010104 0.000000 0.000000 0.000000
# 4 0.000000 0.000000 0.000000 0.267293 0.000000 0.000000
# 5 0.000000 0.000000 0.000000 0.000000 0.040228 0.000000
# 6 0.000000 0.000000 0.000000 0.000000 0.000000 0.005347
#
#
# Mechanical properties :
#
#
# Convention : Reuss Voigt Hill
#
# Bulk Modulus (GPa) = 18.75085 52.10982 35.43033
# Shear Modulus (GPa) = 11.86487 57.90506 34.88497
#
# Velocity S-wave (km/s) = 2.39782 5.29716 4.11153
# Velocity P-wave (km/s) = 4.09297 7.91611 6.30147
#
# Compressibility (1/GPa) = 0.05333092
#
# Stress axis : x y z
#
# Youngs Moduli (GPa) = 122.27124 18.59902 98.96982
#
# Poissons Ratio (x) = -0.00765 0.39206
# Poissons Ratio (y) = -0.05030 0.57491
# Poissons Ratio (z) = 0.48437 0.10804
#
# Static dielectric constant tensor:
#      x y z
#    x 1.726090 0.000000 0.000000 
#    y 0.000000 1.737660 0.000000 
#    z 0.000000 0.000000 1.816010 
# 
# From -- ./inp_files/66796.got.cif
#   From: 2010.05.17/outbox.cif.g08.bks.cpg/sg65_34_cif.got.tgz:66796.got - 2010.06.03 17:01:31.
