data_PCOD9487443
_publ_section_title
;
Structure prediction by ZEFSAII (Michael W. Deem and Ramdas Pophale) SiO2 
 PCOD9487443
Probable space group: C M M M
;
_chemical_formula_sum "Si O2"
_cell_formula_units_Z 90
_cell_length_a 23.367482
_cell_length_b 7.823117
_cell_length_c 22.505964
_cell_angle_alpha 90.000000
_cell_angle_beta 90.000000
_cell_angle_gamma 90.000000
_cell_volume 4114.237536
_symmetry_space_group_name_H-M "C M M M"
_symmetry_group_IT_number 65
_symmetry_cell_setting 'orthorhombic'
loop_
_space_group_symop_operation_xyz
x,y,z
-x,-y,z
x,-y,-z
-x,y,-z
-x,-y,-z
x,y,-z
-x,y,z
x,-y,z
1/2+x,1/2+y,z
1/2-x,1/2-y,z
1/2+x,1/2-y,-z
1/2-x,1/2+y,-z
1/2-x,1/2-y,-z
1/2+x,1/2+y,-z
1/2-x,1/2+y,z
1/2+x,1/2-y,z
loop_
_atom_site_type_symbol
_atom_site_label
_atom_site_fract_x
_atom_site_fract_y
_atom_site_fract_z
Si Si1 0.000000 0.700520 0.218775
Si Si2 0.093907 0.310463 0.000000
Si Si3 0.608309 0.297096 0.566826
Si Si4 0.684891 0.796929 0.329993
Si Si5 0.500000 0.500000 0.000000
Si Si6 0.125408 0.291906 0.210855
Si Si7 0.500000 0.291279 0.643336
Si Si8 0.815098 0.198326 0.906729
O O1 0.060897 0.770971 0.196961
O O2 0.000000 0.500000 0.203662
O O3 0.000000 0.720070 0.290180
O O4 0.136886 0.295779 0.944040
O O5 0.067462 0.500000 0.000000
O O6 0.049904 0.153224 0.000000
O O7 0.610736 0.226574 0.500000
O O8 0.599218 0.500000 0.561742
O O9 0.664195 0.269465 0.606458
O O10 0.555306 0.232545 0.606245
O O11 0.750000 0.750000 0.317390
O O12 0.644717 0.732880 0.276307
O O13 0.679489 0.000000 0.331283
O O14 0.125013 0.500000 0.210783
O O15 0.170065 0.230198 0.162100
O O16 0.500000 0.500000 0.647649
O O17 0.750000 0.250000 0.919794
O O18 0.821238 0.000000 0.920983
#
# Coordination Sequence:
#
# PCOD9487443 Si02
#       8
#     8   8  16  16   2  16   8  16
#     4  10  20  38  62  89 128 165 209 262 325 405
#     4  12  26  50  80 111 156 203 246 307 360 416
#     4  10  21  37  58  84 115 152 198 252 316 391
#     4  11  23  39  60  84 118 158 208 265 324 395
#     4  12  26  52  76 118 156 200 266 290 362 442
#     4  10  22  40  63  96 131 174 220 269 341 403
#     4  10  19  34  59  87 117 151 195 247 315 386
#     4  12  25  45  72 108 147 186 246 297 350 426
#
# _framework density 21.875257000000001
#
# number of rings (size 3 to 8) (size 9 to 14) (size 15 to 20)
#    0.000    1.244    2.667    3.333    0.000    6.044 
#    0.000    1.778    0.000    1.600    0.000    0.000 
#    0.000    0.000    0.000    0.000    0.000    0.000 
#
# Total GULP energy -251335.596485 kJ/mol
# GULP energy per Si atom -5585.235477 kJ/mol
# Density = 2.182547 g / cm^3
# Si number density = 21.875257 Si / 1000 Ang^3
#
#
#
# Elastic Constant Matrix: (Units=GPa)
#
#
# Indices 1 2 3 4 5 6 
#
# 1 129.1999 17.9721 5.1539 0.0000 0.0000 0.0000
# 2 17.9721 76.2094 -3.4623 0.0000 0.0000 0.0000
# 3 5.1539 -3.4623 62.6293 0.0000 0.0000 0.0000
# 4 0.0000 0.0000 0.0000 26.2718 0.0000 0.0000
# 5 0.0000 0.0000 0.0000 0.0000 -126.0862 0.0000
# 6 0.0000 0.0000 0.0000 0.0000 0.0000 8.2658
#
#
#
# Elastic Compliance Matrix: (Units=1/GPa)
#
#
# Indices 1 2 3 4 5 6 
#
# 1 0.008039 -0.001931 -0.000768 0.000000 0.000000 0.000000
# 2 -0.001931 0.013618 0.000912 0.000000 0.000000 0.000000
# 3 -0.000768 0.000912 0.016081 0.000000 0.000000 0.000000
# 4 0.000000 0.000000 0.000000 0.038064 0.000000 0.000000
# 5 0.000000 0.000000 0.000000 0.000000 -0.007931 0.000000
# 6 0.000000 0.000000 0.000000 0.000000 0.000000 0.120981
#
#
# Mechanical properties :
#
#
# Convention : Reuss Voigt Hill
#
# Bulk Modulus (GPa) = 29.27087 34.15178 31.71133
# Shear Modulus (GPa) = 24.53215 -1.75141 11.39037
#
# Velocity S-wave (km/s) = 3.35245 -0.89575 2.28435
# Velocity P-wave (km/s) = 5.32870 3.81787 4.63526
#
# Compressibility (1/GPa) = 0.03416366
#
# Stress axis : x y z
#
# Youngs Moduli (GPa) = 124.39105 73.42959 62.18675
#
# Poissons Ratio (x) = 0.14177 0.04778
# Poissons Ratio (y) = 0.24017 -0.05670
# Poissons Ratio (z) = 0.09557 -0.06695
#
# Static dielectric constant tensor:
#      x y z
#    x 1.789420 0.000000 0.000000 
#    y 0.000000 1.793550 0.000000 
#    z 0.000000 0.000000 1.805240 
# 
# From -- ./inp_files/65307.got.cif
#   From: 2010.05.17/outbox.cif.g08.bks.cpg/sg65_33_cif.got.tgz:65307.got - 2010.06.03 17:01:31.
