data_PCOD9487441
_publ_section_title
;
Structure prediction by ZEFSAII (Michael W. Deem and Ramdas Pophale) SiO2 
 PCOD9487441
Probable space group: C M M M
;
_chemical_formula_sum "Si O2"
_cell_formula_units_Z 88
_cell_length_a 24.996418
_cell_length_b 8.195895
_cell_length_c 22.603831
_cell_angle_alpha 90.000000
_cell_angle_beta 90.000000
_cell_angle_gamma 90.000000
_cell_volume 4630.802040
_symmetry_space_group_name_H-M "C M M M"
_symmetry_group_IT_number 65
_symmetry_cell_setting 'orthorhombic'
loop_
_space_group_symop_operation_xyz
x,y,z
-x,-y,z
x,-y,-z
-x,y,-z
-x,-y,-z
x,y,-z
-x,y,z
x,-y,z
1/2+x,1/2+y,z
1/2-x,1/2-y,z
1/2+x,1/2-y,-z
1/2-x,1/2+y,-z
1/2-x,1/2-y,-z
1/2+x,1/2+y,-z
1/2-x,1/2+y,z
1/2+x,1/2-y,z
loop_
_atom_site_type_symbol
_atom_site_label
_atom_site_fract_x
_atom_site_fract_y
_atom_site_fract_z
Si Si1 0.188591 0.802563 0.500000
Si Si2 0.903467 0.194441 0.850480
Si Si3 0.062458 0.693084 0.278728
Si Si4 0.112921 0.196619 0.607037
Si Si5 0.000000 0.185552 0.569622
Si Si6 0.311335 0.195436 0.066284
Si Si7 0.500000 0.699154 0.066704
O O1 0.250000 0.750000 0.500000
O O2 0.157722 0.746327 0.439854
O O3 0.187017 0.000000 0.500000
O O4 0.918048 0.270479 0.787498
O O5 0.847389 0.236647 0.880934
O O6 0.948056 0.251076 0.897308
O O7 0.907643 0.000000 0.843538
O O8 0.060510 0.500000 0.288036
O O9 0.107252 0.764265 0.323668
O O10 0.000000 0.754668 0.286747
O O11 0.055439 0.265724 0.586486
O O12 0.113000 0.000000 0.600753
O O13 0.000000 0.169527 0.500000
O O14 0.000000 0.000000 0.594863
O O15 0.250000 0.250000 0.072502
O O16 0.313931 0.000000 0.067471
O O17 0.329528 0.250779 0.000000
O O18 0.500000 0.500000 0.065225
O O19 0.500000 0.759147 0.000000
#
# Coordination Sequence:
#
# PCOD9487441 Si02
#       7
#     8  16  16  16   8  16   8
#     4  10  22  39  61  88 118 153 190 234 284 341
#     4  11  21  36  58  83 116 156 199 244 292 347
#     4  11  23  37  54  82 121 157 190 234 293 354
#     4  10  19  34  59  86 111 146 193 234 280 340
#     4   9  14  25  51  84 110 131 170 229 278 321
#     4  10  21  38  60  86 115 149 191 241 295 347
#     4   9  18  31  51  82 116 150 191 238 291 351
#
# _framework density 19.003188000000002
#
# number of rings (size 3 to 8) (size 9 to 14) (size 15 to 20)
#    0.000    1.818    2.727    2.182    0.000    3.273 
#    0.000    0.909    0.000    6.000    0.000    0.000 
#    0.000    0.000    0.000    0.000    0.000    0.000 
#
# Total GULP energy -245248.979526 kJ/mol
# GULP energy per Si atom -5573.840444 kJ/mol
# Density = 1.895994 g / cm^3
# Si number density = 19.003188 Si / 1000 Ang^3
#
#
#
# Elastic Constant Matrix: (Units=GPa)
#
#
# Indices 1 2 3 4 5 6 
#
# 1 110.7095 9.5681 72.1832 0.0000 0.0000 0.0000
# 2 9.5681 27.0656 12.1006 0.0000 0.0000 0.0000
# 3 72.1832 12.1006 155.1664 0.0000 0.0000 0.0000
# 4 0.0000 0.0000 0.0000 15.4080 0.0000 0.0000
# 5 0.0000 0.0000 0.0000 0.0000 25.4129 0.0000
# 6 0.0000 0.0000 0.0000 0.0000 0.0000 27.2648
#
#
#
# Elastic Compliance Matrix: (Units=1/GPa)
#
#
# Indices 1 2 3 4 5 6 
#
# 1 0.013066 -0.001970 -0.005925 0.000000 0.000000 0.000000
# 2 -0.001970 0.038579 -0.002092 0.000000 0.000000 0.000000
# 3 -0.005925 -0.002092 0.009364 0.000000 0.000000 0.000000
# 4 0.000000 0.000000 0.000000 0.064901 0.000000 0.000000
# 5 0.000000 0.000000 0.000000 0.000000 0.039350 0.000000
# 6 0.000000 0.000000 0.000000 0.000000 0.000000 0.036677
#
#
# Mechanical properties :
#
#
# Convention : Reuss Voigt Hill
#
# Bulk Modulus (GPa) = 24.36932 53.40505 38.88718
# Shear Modulus (GPa) = 21.22336 26.88978 24.05657
#
# Velocity S-wave (km/s) = 3.34553 3.76575 3.56184
# Velocity P-wave (km/s) = 5.27020 6.86091 6.11748
#
# Compressibility (1/GPa) = 0.04103520
#
# Stress axis : x y z
#
# Youngs Moduli (GPa) = 76.53599 25.92081 106.79282
#
# Poissons Ratio (x) = 0.05107 0.63270
# Poissons Ratio (y) = 0.15079 0.22341
# Poissons Ratio (z) = 0.45344 0.05423
#
# Static dielectric constant tensor:
#      x y z
#    x 1.647510 0.000000 0.000000 
#    y 0.000000 1.680850 0.000000 
#    z 0.000000 0.000000 1.701000 
# 
# From -- ./inp_files/65220.got.cif
#   From: 2010.05.17/outbox.cif.g08.bks.cpg/sg65_33_cif.got.tgz:65220.got - 2010.06.03 17:01:31.
