data_PCOD9487563
_publ_section_title
;
Structure prediction by ZEFSAII (Michael W. Deem and Ramdas Pophale) SiO2 
 PCOD9487563
Probable space group: C M M M
;
_chemical_formula_sum "Si O2"
_cell_formula_units_Z 116
_cell_length_a 29.851236
_cell_length_b 7.607405
_cell_length_c 23.331470
_cell_angle_alpha 90.000000
_cell_angle_beta 90.000000
_cell_angle_gamma 90.000000
_cell_volume 5298.353835
_symmetry_space_group_name_H-M "C M M M"
_symmetry_group_IT_number 65
_symmetry_cell_setting 'orthorhombic'
loop_
_space_group_symop_operation_xyz
x,y,z
-x,-y,z
x,-y,-z
-x,y,-z
-x,-y,-z
x,y,-z
-x,y,z
x,-y,z
1/2+x,1/2+y,z
1/2-x,1/2-y,z
1/2+x,1/2-y,-z
1/2-x,1/2+y,-z
1/2-x,1/2-y,-z
1/2+x,1/2+y,-z
1/2-x,1/2+y,z
1/2+x,1/2-y,z
loop_
_atom_site_type_symbol
_atom_site_label
_atom_site_fract_x
_atom_site_fract_y
_atom_site_fract_z
Si Si1 0.000000 0.500000 0.926202
Si Si2 0.395198 0.206520 0.435150
Si Si3 0.798735 0.209210 0.814044
Si Si4 0.603244 0.794841 0.216315
Si Si5 0.424630 0.700212 0.909293
Si Si6 0.702171 0.291529 0.565589
Si Si7 0.177997 0.787917 0.061210
Si Si8 0.948763 0.715454 0.671907
O O1 0.039070 0.654947 0.925354
O O2 0.396558 0.281567 0.500000
O O3 0.344631 0.222852 0.410976
O O4 0.429010 0.279973 0.388381
O O5 0.404860 0.000000 0.440487
O O6 0.750000 0.250000 0.789221
O O7 0.843015 0.279244 0.783139
O O8 0.800846 0.279577 0.879751
O O9 0.804132 0.000000 0.815885
O O10 0.583737 0.704875 0.159522
O O11 0.581217 0.727615 0.274534
O O12 0.591237 0.000000 0.210220
O O13 0.436461 0.500000 0.925935
O O14 0.375374 0.743259 0.934098
O O15 0.704195 0.219081 0.500000
O O16 0.698382 0.500000 0.562932
O O17 0.750000 0.250000 0.593424
O O18 0.183695 0.000000 0.061216
O O19 0.194652 0.719295 0.000000
O O20 0.947179 0.500000 0.670786
O O21 0.000000 0.767071 0.679872
#
# Coordination Sequence:
#
# PCOD9487563 Si02
#       8
#     4  16  16  16  16  16  16  16
#     4  12  22  36  57  84 116 152 205 254 304 352
#     4   9  17  31  51  77 111 147 183 223 271 334
#     4  10  20  35  58  86 116 151 190 234 290 354
#     4  10  19  35  59  81 113 147 186 241 296 345
#     4  10  21  36  57  84 114 154 200 247 302 359
#     4   9  16  27  46  71  98 131 171 214 261 314
#     4   8  16  34  57  80 115 158 195 239 292 341
#     4   9  19  33  54  83 111 144 184 229 282 335
#
# _framework density 21.893592999999999
#
# number of rings (size 3 to 8) (size 9 to 14) (size 15 to 20)
#    0.000    2.621    0.690    2.276    0.966    2.207 
#    0.000    4.483    0.000    3.724    0.000    1.931 
#    0.000    0.000    0.000    0.000    0.000    0.000 
#
# Total GULP energy -323191.808882 kJ/mol
# GULP energy per Si atom -5572.272567 kJ/mol
# Density = 2.184376 g / cm^3
# Si number density = 21.893593 Si / 1000 Ang^3
#
#
#
# Elastic Constant Matrix: (Units=GPa)
#
#
# Indices 1 2 3 4 5 6 
#
# 1 129.9162 6.7023 57.1363 0.0000 0.0000 0.0000
# 2 6.7023 80.5516 -1.2298 0.0000 0.0000 0.0000
# 3 57.1363 -1.2298 103.1702 0.0000 0.0000 0.0000
# 4 0.0000 0.0000 0.0000 4.7899 0.0000 0.0000
# 5 0.0000 0.0000 0.0000 0.0000 -43.5374 0.0000
# 6 0.0000 0.0000 0.0000 0.0000 0.0000 24.1162
#
#
#
# Elastic Compliance Matrix: (Units=1/GPa)
#
#
# Indices 1 2 3 4 5 6 
#
# 1 0.010246 -0.000939 -0.005686 0.000000 0.000000 0.000000
# 2 -0.000939 0.012503 0.000669 0.000000 0.000000 0.000000
# 3 -0.005686 0.000669 0.012849 0.000000 0.000000 0.000000
# 4 0.000000 0.000000 0.000000 0.208775 0.000000 0.000000
# 5 0.000000 0.000000 0.000000 0.000000 -0.022969 0.000000
# 6 0.000000 0.000000 0.000000 0.000000 0.000000 0.041466
#
#
# Mechanical properties :
#
#
# Convention : Reuss Voigt Hill
#
# Bulk Modulus (GPa) = 42.21722 48.76171 45.48947
# Shear Modulus (GPa) = 17.68801 13.80901 15.74851
#
# Velocity S-wave (km/s) = 2.84546 2.51416 2.68492
# Velocity P-wave (km/s) = 5.48819 5.54513 5.51674
#
# Compressibility (1/GPa) = 0.02368702
#
# Stress axis : x y z
#
# Youngs Moduli (GPa) = 97.59689 79.98218 77.82445
#
# Poissons Ratio (x) = 0.07513 0.44248
# Poissons Ratio (y) = 0.09168 -0.05208
# Poissons Ratio (z) = 0.55490 -0.05353
#
# Static dielectric constant tensor:
#      x y z
#    x 1.789510 0.000000 0.000000 
#    y 0.000000 1.813020 0.000000 
#    z 0.000000 0.000000 1.833950 
# 
# From -- ./inp_files/72241.got.cif
#   From: 2010.05.17/outbox.cif.g08.bks.cpg/sg65_37_cif.got.tgz:72241.got - 2010.06.03 17:01:31.
