data_PCOD9487952
_publ_section_title
;
Structure prediction by ZEFSAII (Michael W. Deem and Ramdas Pophale) SiO2 
 PCOD9487952
Probable space group: C M M M
;
_chemical_formula_sum "Si O2"
_cell_formula_units_Z 88
_cell_length_a 27.515255
_cell_length_b 9.643192
_cell_length_c 20.157011
_cell_angle_alpha 90.000000
_cell_angle_beta 90.000000
_cell_angle_gamma 90.000000
_cell_volume 5348.358234
_symmetry_space_group_name_H-M "C M M M"
_symmetry_group_IT_number 65
_symmetry_cell_setting 'orthorhombic'
loop_
_space_group_symop_operation_xyz
x,y,z
-x,-y,z
x,-y,-z
-x,y,-z
-x,-y,-z
x,y,-z
-x,y,z
x,-y,z
1/2+x,1/2+y,z
1/2-x,1/2-y,z
1/2+x,1/2-y,-z
1/2-x,1/2+y,-z
1/2-x,1/2-y,-z
1/2+x,1/2+y,-z
1/2-x,1/2+y,z
1/2+x,1/2-y,z
loop_
_atom_site_type_symbol
_atom_site_label
_atom_site_fract_x
_atom_site_fract_y
_atom_site_fract_z
Si Si1 0.605746 0.837099 0.767936
Si Si2 0.200414 0.664307 0.851561
Si Si3 0.941903 0.843766 0.123831
Si Si4 0.799684 0.335293 0.000000
Si Si5 0.058974 0.656510 0.000000
Si Si6 0.557344 0.162358 0.372299
Si Si7 0.558893 0.658448 0.500000
O O1 0.660036 0.808752 0.795187
O O2 0.572453 0.733544 0.809445
O O3 0.591930 0.817923 0.691206
O O4 0.595356 0.000000 0.783768
O O5 0.211352 0.500000 0.849576
O O6 0.250000 0.750000 0.842619
O O7 0.179643 0.695068 0.926160
O O8 0.000000 0.853687 0.120030
O O9 0.921951 0.000000 0.118955
O O10 0.926973 0.744534 0.063783
O O11 0.750000 0.250000 0.000000
O O12 0.790876 0.500000 0.000000
O O13 0.079026 0.500000 0.000000
O O14 0.000000 0.646161 0.000000
O O15 0.500000 0.189933 0.355395
O O16 0.572257 0.258384 0.433636
O O17 0.559647 0.000000 0.391604
O O18 0.576327 0.500000 0.500000
O O19 0.500000 0.655691 0.500000
#
# Coordination Sequence:
#
# PCOD9487952 Si02
#       7
#    16  16  16   8   8  16   8
#     4  10  20  32  48  71  96 125 161 196 235 287
#     4   9  18  32  49  69  93 122 159 203 248 292
#     4  10  20  32  45  64  92 123 156 197 241 282
#     4   8  14  27  46  65  86 113 147 192 242 286
#     4   9  17  30  47  62  81 118 164 202 235 276
#     4   9  17  30  48  70  98 130 161 192 227 273
#     4   9  17  29  47  71  98 127 158 191 228 273
#
# _framework density 16.453648000000001
#
# number of rings (size 3 to 8) (size 9 to 14) (size 15 to 20)
#    0.000    2.727    0.000    1.636    0.000    6.182 
#    0.000    3.636    0.000    2.182    0.000    0.636 
#    0.000    0.000    0.000    0.000    0.000    0.000 
#
# Total GULP energy -245061.313730 kJ/mol
# GULP energy per Si atom -5569.575312 kJ/mol
# Density = 1.641620 g / cm^3
# Si number density = 16.453648 Si / 1000 Ang^3
#
#
#
# Elastic Constant Matrix: (Units=GPa)
#
#
# Indices 1 2 3 4 5 6 
#
# 1 69.0327 38.8390 39.8939 0.0000 0.0000 0.0000
# 2 38.8390 104.6522 81.9438 0.0000 0.0000 0.0000
# 3 39.8939 81.9438 126.3414 0.0000 0.0000 0.0000
# 4 0.0000 0.0000 0.0000 963.0424 0.0000 0.0000
# 5 0.0000 0.0000 0.0000 0.0000 25.2783 0.0000
# 6 0.0000 0.0000 0.0000 0.0000 0.0000 15.1680
#
#
#
# Elastic Compliance Matrix: (Units=1/GPa)
#
#
# Indices 1 2 3 4 5 6 
#
# 1 0.018807 -0.004734 -0.002868 0.000000 0.000000 0.000000
# 2 -0.004734 0.020607 -0.011871 0.000000 0.000000 0.000000
# 3 -0.002868 -0.011871 0.016520 0.000000 0.000000 0.000000
# 4 0.000000 0.000000 0.000000 0.001038 0.000000 0.000000
# 5 0.000000 0.000000 0.000000 0.000000 0.039560 0.000000
# 6 0.000000 0.000000 0.000000 0.000000 0.000000 0.065928
#
#
# Mechanical properties :
#
#
# Convention : Reuss Voigt Hill
#
# Bulk Modulus (GPa) = 58.86405 69.04220 63.95312
# Shear Modulus (GPa) = 24.14649 209.98771 117.06710
#
# Velocity S-wave (km/s) = 3.83501 11.30933 8.44418
# Velocity P-wave (km/s) = 7.44736 14.58037 11.57692
#
# Compressibility (1/GPa) = 0.01698830
#
# Stress axis : x y z
#
# Youngs Moduli (GPa) = 53.17245 48.52615 60.53225
#
# Poissons Ratio (x) = 0.22972 0.17361
# Poissons Ratio (y) = 0.25171 0.71858
# Poissons Ratio (z) = 0.15251 0.57605
#
# Static dielectric constant tensor:
#      x y z
#    x 1.532100 0.000000 0.000000 
#    y 0.000000 1.560400 0.000000 
#    z 0.000000 0.000000 1.562460 
# 
# From -- ./inp_files/58049.got.cif
#   From: 2010.05.17/outbox.cif.g08.bks.cpg/sg65_30_cif.got.tgz:58049.got - 2010.06.03 17:01:31.
