data_PCOD9487472
_publ_section_title
;
Structure prediction by ZEFSAII (Michael W. Deem and Ramdas Pophale) SiO2 
 PCOD9487472
Probable space group: C M M M
;
_chemical_formula_sum "Si O2"
_cell_formula_units_Z 104
_cell_length_a 17.998880
_cell_length_b 28.368268
_cell_length_c 13.153682
_cell_angle_alpha 90.000000
_cell_angle_beta 90.000000
_cell_angle_gamma 90.000000
_cell_volume 6716.231246
_symmetry_space_group_name_H-M "C M M M"
_symmetry_group_IT_number 65
_symmetry_cell_setting 'orthorhombic'
loop_
_space_group_symop_operation_xyz
x,y,z
-x,-y,z
x,-y,-z
-x,y,-z
-x,-y,-z
x,y,-z
-x,y,z
x,-y,z
1/2+x,1/2+y,z
1/2-x,1/2-y,z
1/2+x,1/2-y,-z
1/2-x,1/2+y,-z
1/2-x,1/2-y,-z
1/2+x,1/2+y,-z
1/2-x,1/2+y,z
1/2+x,1/2-y,z
loop_
_atom_site_type_symbol
_atom_site_label
_atom_site_fract_x
_atom_site_fract_y
_atom_site_fract_z
Si Si1 0.297618 0.624043 0.198872
Si Si2 0.264416 0.169608 0.000000
Si Si3 0.088720 0.443883 0.500000
Si Si4 0.415808 0.708694 0.215140
Si Si5 0.192288 0.622790 0.388468
Si Si6 0.917890 0.056392 0.118743
Si Si7 0.130005 0.754381 0.000000
Si Si8 0.334412 0.767577 0.382454
O O1 0.248069 0.639038 0.101455
O O2 0.355428 0.666870 0.216579
O O3 0.247077 0.614317 0.296047
O O4 0.349720 0.580081 0.173914
O O5 0.198784 0.208679 0.000000
O O6 0.338292 0.201326 0.000000
O O7 0.104549 0.500000 0.500000
O O8 0.127979 0.416186 0.594182
O O9 0.000000 0.437621 0.500000
O O10 0.500000 0.692186 0.231020
O O11 0.411176 0.733757 0.104843
O O12 0.389849 0.744059 0.303292
O O13 0.231527 0.623148 0.500000
O O14 0.162147 0.675864 0.374775
O O15 0.000000 0.070978 0.156300
O O16 0.914391 0.000000 0.123184
O O17 0.913895 0.070587 0.000000
O O18 0.349312 0.754358 0.500000
O O19 0.250000 0.750000 0.358870
#
# Coordination Sequence:
#
# PCOD9487472 Si02
#       8
#    16   8   8  16  16  16   8  16
#     4  11  18  32  51  76 107 134 175 216 259 313
#     4   9  18  28  49  71  90 141 171 209 258 304
#     4   9  20  40  61  84 107 127 170 229 274 316
#     4  11  22  31  48  75 105 141 178 215 252 300
#     4   9  20  34  56  79 102 136 170 207 269 320
#     4   9  18  32  49  71 102 139 177 221 267 303
#     4   9  19  32  44  64 104 134 176 210 252 301
#     4  10  19  35  53  70 103 137 172 215 256 304
#
# _framework density 15.484875000000001
#
# number of rings (size 3 to 8) (size 9 to 14) (size 15 to 20)
#    0.462    1.769    2.308    2.077    2.154    1.538 
#    0.000    0.000    0.000    1.385    0.000    1.077 
#    0.000    1.231    0.000    0.000    0.000    0.000 
#
# Total GULP energy -289558.107757 kJ/mol
# GULP energy per Si atom -5568.425149 kJ/mol
# Density = 1.544963 g / cm^3
# Si number density = 15.484875 Si / 1000 Ang^3
#
#
#
# Elastic Constant Matrix: (Units=GPa)
#
#
# Indices 1 2 3 4 5 6 
#
# 1 80.8000 40.2959 52.9463 0.0000 0.0000 0.0000
# 2 40.2959 66.4902 31.3046 0.0000 0.0000 0.0000
# 3 52.9463 31.3046 94.8732 0.0000 0.0000 0.0000
# 4 0.0000 0.0000 0.0000 11.8338 0.0000 0.0000
# 5 0.0000 0.0000 0.0000 0.0000 2.8057 0.0000
# 6 0.0000 0.0000 0.0000 0.0000 0.0000 19.5373
#
#
#
# Elastic Compliance Matrix: (Units=1/GPa)
#
#
# Indices 1 2 3 4 5 6 
#
# 1 0.023824 -0.009683 -0.010100 0.000000 0.000000 0.000000
# 2 -0.009683 0.021741 -0.001770 0.000000 0.000000 0.000000
# 3 -0.010100 -0.001770 0.016761 0.000000 0.000000 0.000000
# 4 0.000000 0.000000 0.000000 0.084504 0.000000 0.000000
# 5 0.000000 0.000000 0.000000 0.000000 0.356412 0.000000
# 6 0.000000 0.000000 0.000000 0.000000 0.000000 0.051184
#
#
# Mechanical properties :
#
#
# Convention : Reuss Voigt Hill
#
# Bulk Modulus (GPa) = 52.03002 54.58409 53.30705
# Shear Modulus (GPa) = 8.27898 14.67647 11.47772
#
# Velocity S-wave (km/s) = 2.31476 3.08197 2.72549
# Velocity P-wave (km/s) = 6.38887 6.92756 6.66366
#
# Compressibility (1/GPa) = 0.01921967
#
# Stress axis : x y z
#
# Youngs Moduli (GPa) = 41.97500 45.99521 59.66133
#
# Poissons Ratio (x) = 0.44536 0.60261
# Poissons Ratio (y) = 0.40643 0.10561
# Poissons Ratio (z) = 0.42397 0.08142
#
# Static dielectric constant tensor:
#      x y z
#    x 1.510640 0.000000 0.000000 
#    y 0.000000 1.519730 0.000000 
#    z 0.000000 0.000000 1.516050 
# 
# From -- ./inp_files/27770.got.cif
#   From: 2010.05.17/outbox.cif.g08.bks.cpg/sg65_14_cif.got.tgz:27770.got - 2010.06.03 17:01:31.
