data_PCOD9487731
_publ_section_title
;
Structure prediction by ZEFSAII (Michael W. Deem and Ramdas Pophale) SiO2 
 PCOD9487731
Probable space group: C M M M
;
_chemical_formula_sum "Si O2"
_cell_formula_units_Z 88
_cell_length_a 17.324069
_cell_length_b 8.415173
_cell_length_c 31.404750
_cell_angle_alpha 90.000000
_cell_angle_beta 90.000000
_cell_angle_gamma 90.000000
_cell_volume 4578.342663
_symmetry_space_group_name_H-M "C M M M"
_symmetry_group_IT_number 65
_symmetry_cell_setting 'orthorhombic'
loop_
_space_group_symop_operation_xyz
x,y,z
-x,-y,z
x,-y,-z
-x,y,-z
-x,-y,-z
x,y,-z
-x,y,z
x,-y,z
1/2+x,1/2+y,z
1/2-x,1/2-y,z
1/2+x,1/2-y,-z
1/2-x,1/2+y,-z
1/2-x,1/2-y,-z
1/2+x,1/2+y,-z
1/2-x,1/2+y,z
1/2+x,1/2-y,z
loop_
_atom_site_type_symbol
_atom_site_label
_atom_site_fract_x
_atom_site_fract_y
_atom_site_fract_z
Si Si1 0.162439 0.192453 0.910184
Si Si2 0.915210 0.742762 0.387566
Si Si3 0.588261 0.306943 0.000000
Si Si4 0.865001 0.000000 0.675675
Si Si5 0.777195 0.500000 0.614082
Si Si6 0.592531 0.180700 0.175757
Si Si7 0.136867 0.000000 0.449704
Si Si8 0.905712 0.000000 0.226991
O O1 0.250000 0.250000 0.906415
O O2 0.130508 0.240085 0.956575
O O3 0.115301 0.275421 0.872433
O O4 0.156999 0.000000 0.906095
O O5 0.837108 0.643228 0.386701
O O6 0.907195 0.850408 0.429601
O O7 0.000000 0.668482 0.387634
O O8 0.907967 0.851280 0.345707
O O9 0.587145 0.500000 0.000000
O O10 0.500000 0.251262 0.000000
O O11 0.871022 0.000000 0.725825
O O12 0.779214 0.000000 0.654918
O O13 0.720480 0.500000 0.573510
O O14 0.500000 0.176416 0.179485
O O15 0.618186 0.335205 0.203395
O O16 0.620798 0.000000 0.186459
O O17 0.141671 0.000000 0.500000
O O18 0.000000 0.000000 0.229165
#
# Coordination Sequence:
#
# PCOD9487731 Si02
#       8
#    16  16   8   8   8  16   8   8
#     4  11  21  36  58  84 122 161 199 245 299 358
#     4  10  20  36  59  85 116 153 197 248 299 354
#     4   9  19  34  57  87 114 152 204 248 296 358
#     4  10  19  38  62  84 113 154 195 237 296 371
#     4  10  21  37  58  86 121 152 193 247 311 357
#     4  10  21  39  63  91 121 156 200 247 298 362
#     4  10  20  36  57  81 115 164 209 242 289 361
#     4  10  20  38  65  90 120 159 200 248 304 362
#
# _framework density 19.220928000000001
#
# number of rings (size 3 to 8) (size 9 to 14) (size 15 to 20)
#    0.000    2.091    0.909    5.455    0.000    2.909 
#    1.636    3.182    0.000    4.909    0.000    0.000 
#    0.000    0.000    0.000    0.000    0.000    0.000 
#
# Total GULP energy -245296.175634 kJ/mol
# GULP energy per Si atom -5574.913083 kJ/mol
# Density = 1.917718 g / cm^3
# Si number density = 19.220928 Si / 1000 Ang^3
#
#
#
# Elastic Constant Matrix: (Units=GPa)
#
#
# Indices 1 2 3 4 5 6 
#
# 1 86.3150 35.2624 22.3824 0.0000 0.0000 0.0000
# 2 35.2624 123.0803 64.0903 0.0000 0.0000 0.0000
# 3 22.3824 64.0903 164.0443 0.0000 0.0000 0.0000
# 4 0.0000 0.0000 0.0000 1238.3025 0.0000 0.0000
# 5 0.0000 0.0000 0.0000 0.0000 2.0936 0.0000
# 6 0.0000 0.0000 0.0000 0.0000 0.0000 192.5018
#
#
#
# Elastic Compliance Matrix: (Units=1/GPa)
#
#
# Indices 1 2 3 4 5 6 
#
# 1 0.013143 -0.003555 -0.000404 0.000000 0.000000 0.000000
# 2 -0.003555 0.011161 -0.003876 0.000000 0.000000 0.000000
# 3 -0.000404 -0.003876 0.007665 0.000000 0.000000 0.000000
# 4 0.000000 0.000000 0.000000 0.000808 0.000000 0.000000
# 5 0.000000 0.000000 0.000000 0.000000 0.477643 0.000000
# 6 0.000000 0.000000 0.000000 0.000000 0.000000 0.005195
#
#
# Mechanical properties :
#
#
# Convention : Reuss Voigt Hill
#
# Bulk Modulus (GPa) = 61.35101 68.54553 64.94827
# Shear Modulus (GPa) = 9.31589 303.35986 156.33788
#
# Velocity S-wave (km/s) = 2.20392 12.57659 9.02850
# Velocity P-wave (km/s) = 6.20198 15.70457 11.93939
#
# Compressibility (1/GPa) = 0.01629965
#
# Stress axis : x y z
#
# Youngs Moduli (GPa) = 76.08862 89.59518 130.45910
#
# Poissons Ratio (x) = 0.31849 0.05275
# Poissons Ratio (y) = 0.27048 0.50561
# Poissons Ratio (z) = 0.03077 0.34723
#
# Static dielectric constant tensor:
#      x y z
#    x 1.655220 0.000000 0.000000 
#    y 0.000000 1.781390 0.000000 
#    z 0.000000 0.000000 1.620440 
# 
# From -- ./inp_files/78040.got.cif
#   From: 2010.05.17/outbox.cif.g08.bks.cpg/sg65_40_cif.got.tgz:78040.got - 2010.06.03 17:01:31.
