data_PCOD9487063
_publ_section_title
;
Structure prediction by ZEFSAII (Michael W. Deem and Ramdas Pophale) SiO2 
 PCOD9487063
Probable space group: C M M M
;
_chemical_formula_sum "Si O2"
_cell_formula_units_Z 72
_cell_length_a 19.616220
_cell_length_b 23.430269
_cell_length_c 7.624237
_cell_angle_alpha 90.000000
_cell_angle_beta 90.000000
_cell_angle_gamma 90.000000
_cell_volume 3504.200814
_symmetry_space_group_name_H-M "C M M M"
_symmetry_group_IT_number 65
_symmetry_cell_setting 'orthorhombic'
loop_
_space_group_symop_operation_xyz
x,y,z
-x,-y,z
x,-y,-z
-x,y,-z
-x,-y,-z
x,y,-z
-x,y,z
x,-y,z
1/2+x,1/2+y,z
1/2-x,1/2-y,z
1/2+x,1/2-y,-z
1/2-x,1/2+y,-z
1/2-x,1/2-y,-z
1/2+x,1/2+y,-z
1/2-x,1/2+y,z
1/2+x,1/2-y,z
loop_
_atom_site_type_symbol
_atom_site_label
_atom_site_fract_x
_atom_site_fract_y
_atom_site_fract_z
Si Si1 0.921574 0.331120 0.784903
Si Si2 0.675399 0.729345 0.211760
Si Si3 0.820460 0.098206 0.293470
Si Si4 0.168171 0.436385 0.794340
Si Si5 0.921977 0.000000 0.714703
O O1 0.881191 0.274447 0.728758
O O2 0.880195 0.386741 0.722155
O O3 0.000000 0.331615 0.730447
O O4 0.920347 0.331306 0.000000
O O5 0.750000 0.750000 0.273266
O O6 0.662915 0.664294 0.264056
O O7 0.676734 0.730789 0.000000
O O8 0.813520 0.087959 0.500000
O O9 0.746658 0.083248 0.216061
O O10 0.878986 0.055442 0.228481
O O11 0.161110 0.500000 0.717856
O O12 0.151038 0.440401 0.000000
O O13 0.923870 0.000000 0.500000
O O14 0.000000 0.000000 0.774774
#
# Coordination Sequence:
#
# PCOD9487063 Si02
#       5
#    16  16  16  16   8
#     4   9  18  33  53  79 110 142 176 218 268 317
#     4  10  19  34  55  78 107 142 177 218 269 316
#     4  11  21  34  56  82 106 138 181 222 262 319
#     4  10  19  33  56  82 108 140 178 221 264 312
#     4   9  20  38  55  75 108 145 176 216 271 319
#
# _framework density 20.546768
#
# number of rings (size 3 to 8) (size 9 to 14) (size 15 to 20)
#    0.000    2.111    3.333    0.667    0.000    1.778 
#    0.000    2.222    0.000    6.667    0.000    1.556 
#    0.000    0.000    0.000    0.000    0.000    0.000 
#
# Total GULP energy -201066.537767 kJ/mol
# GULP energy per Si atom -5585.181605 kJ/mol
# Density = 2.050000 g / cm^3
# Si number density = 20.546768 Si / 1000 Ang^3
#
#
#
# Elastic Constant Matrix: (Units=GPa)
#
#
# Indices 1 2 3 4 5 6 
#
# 1 181.7962 107.6508 -5.0675 0.0000 0.0000 0.0000
# 2 107.6508 216.5379 -5.2452 0.0000 0.0000 0.0000
# 3 -5.0675 -5.2452 38.5054 0.0000 0.0000 0.0000
# 4 0.0000 0.0000 0.0000 22.0199 0.0000 0.0000
# 5 0.0000 0.0000 0.0000 0.0000 -9.7636 0.0000
# 6 0.0000 0.0000 0.0000 0.0000 0.0000 35.9318
#
#
#
# Elastic Compliance Matrix: (Units=1/GPa)
#
#
# Indices 1 2 3 4 5 6 
#
# 1 0.007805 -0.003868 0.000500 0.000000 0.000000 0.000000
# 2 -0.003868 0.006550 0.000383 0.000000 0.000000 0.000000
# 3 0.000500 0.000383 0.026088 0.000000 0.000000 0.000000
# 4 0.000000 0.000000 0.000000 0.045413 0.000000 0.000000
# 5 0.000000 0.000000 0.000000 0.000000 -0.102421 0.000000
# 6 0.000000 0.000000 0.000000 0.000000 0.000000 0.027830
#
#
# Mechanical properties :
#
#
# Convention : Reuss Voigt Hill
#
# Bulk Modulus (GPa) = 29.00679 70.16842 49.58760
# Shear Modulus (GPa) = 174.04765 32.27105 103.15935
#
# Velocity S-wave (km/s) = 9.21368 3.96740 7.09338
# Velocity P-wave (km/s) = 11.28438 7.43046 9.55377
#
# Compressibility (1/GPa) = 0.03447469
#
# Stress axis : x y z
#
# Youngs Moduli (GPa) = 128.12046 152.66104 38.33118
#
# Poissons Ratio (x) = 0.59052 -0.01918
# Poissons Ratio (y) = 0.49559 -0.01469
# Poissons Ratio (z) = -0.06410 -0.05850
#
# Static dielectric constant tensor:
#      x y z
#    x 1.684150 0.000000 0.000000 
#    y 0.000000 1.718890 0.000000 
#    z 0.000000 0.000000 1.779920 
# 
# From -- ./inp_files/9203.got.cif
#   From: 2010.05.17/outbox.cif.g08.bks.cpg/sg65_5_cif.got.tgz:9203.got - 2010.06.03 17:01:31.
