data_PCOD9487307
_publ_section_title
;
Structure prediction by ZEFSAII (Michael W. Deem and Ramdas Pophale) SiO2 
 PCOD9487307
Probable space group: C M M M
;
_chemical_formula_sum "Si O2"
_cell_formula_units_Z 64
_cell_length_a 8.234883
_cell_length_b 18.365163
_cell_length_c 22.605030
_cell_angle_alpha 90.000000
_cell_angle_beta 90.000000
_cell_angle_gamma 90.000000
_cell_volume 3418.671002
_symmetry_space_group_name_H-M "C M M M"
_symmetry_group_IT_number 65
_symmetry_cell_setting 'orthorhombic'
loop_
_space_group_symop_operation_xyz
x,y,z
-x,-y,z
x,-y,-z
-x,y,-z
-x,-y,-z
x,y,-z
-x,y,z
x,-y,z
1/2+x,1/2+y,z
1/2-x,1/2-y,z
1/2+x,1/2-y,-z
1/2-x,1/2+y,-z
1/2-x,1/2-y,-z
1/2+x,1/2+y,-z
1/2-x,1/2+y,z
1/2+x,1/2-y,z
loop_
_atom_site_type_symbol
_atom_site_label
_atom_site_fract_x
_atom_site_fract_y
_atom_site_fract_z
Si Si1 0.180843 0.588717 0.359677
Si Si2 0.195208 0.084225 0.000000
Si Si3 0.307357 0.167251 0.882693
Si Si4 0.691571 0.415121 0.232988
Si Si5 0.000000 0.911121 0.568577
O O1 0.182917 0.500000 0.361105
O O2 0.212580 0.609285 0.291401
O O3 0.334609 0.613010 0.398673
O O4 0.000000 0.612047 0.378786
O O5 0.257717 0.123622 0.941306
O O6 0.000000 0.087107 0.000000
O O7 0.246202 0.000000 0.000000
O O8 0.500000 0.164988 0.875916
O O9 0.250000 0.250000 0.888746
O O10 0.228913 0.131084 0.824835
O O11 0.500000 0.411977 0.246954
O O12 0.732543 0.500000 0.221280
O O13 0.000000 0.889836 0.500000
O O14 0.000000 0.000000 0.570848
#
# Coordination Sequence:
#
# PCOD9487307 Si02
#       5
#    16   8  16  16   8
#     4   9  16  27  44  68  99 139 184 227 276 333
#     4  11  24  43  64  85 111 145 186 227 276 337
#     4  12  25  40  58  82 113 147 183 232 283 336
#     4  10  19  34  56  80 108 144 185 231 282 337
#     4   9  16  26  40  64 102 143 181 225 277 333
#
# _framework density 18.720725999999999
#
# number of rings (size 3 to 8) (size 9 to 14) (size 15 to 20)
#    0.000    1.750    1.250    4.500    0.000    6.000 
#    0.000    2.500    0.000    0.000    0.000    0.000 
#    0.000    1.000    0.500    0.000    0.000    0.000 
#
# Total GULP energy -178720.114803 kJ/mol
# GULP energy per Si atom -5585.003588 kJ/mol
# Density = 1.867812 g / cm^3
# Si number density = 18.720726 Si / 1000 Ang^3
#
#
#
# Elastic Constant Matrix: (Units=GPa)
#
#
# Indices 1 2 3 4 5 6 
#
# 1 119.2673 21.7594 54.1993 0.0000 0.0000 0.0000
# 2 21.7594 60.2006 35.7630 0.0000 0.0000 0.0000
# 3 54.1993 35.7630 129.2358 0.0000 0.0000 0.0000
# 4 0.0000 0.0000 0.0000 -4.5344 0.0000 0.0000
# 5 0.0000 0.0000 0.0000 0.0000 9.5760 0.0000
# 6 0.0000 0.0000 0.0000 0.0000 0.0000 19.4676
#
#
#
# Elastic Compliance Matrix: (Units=1/GPa)
#
#
# Indices 1 2 3 4 5 6 
#
# 1 0.010457 -0.001405 -0.003997 0.000000 0.000000 0.000000
# 2 -0.001405 0.020068 -0.004964 0.000000 0.000000 0.000000
# 3 -0.003997 -0.004964 0.010788 0.000000 0.000000 0.000000
# 4 0.000000 0.000000 0.000000 -0.220537 0.000000 0.000000
# 5 0.000000 0.000000 0.000000 0.000000 0.104428 0.000000
# 6 0.000000 0.000000 0.000000 0.000000 0.000000 0.051367
#
#
# Mechanical properties :
#
#
# Convention : Reuss Voigt Hill
#
# Bulk Modulus (GPa) = 48.58920 59.12746 53.85833
# Shear Modulus (GPa) = 1200.76969 18.03397 609.40183
#
# Velocity S-wave (km/s) = 25.35359 3.10710 18.06182
# Velocity P-wave (km/s) = 29.71672 6.67268 21.53611
#
# Compressibility (1/GPa) = 0.02058071
#
# Stress axis : x y z
#
# Youngs Moduli (GPa) = 95.62837 49.83046 92.69939
#
# Poissons Ratio (x) = 0.07004 0.37048
# Poissons Ratio (y) = 0.13440 0.46015
# Poissons Ratio (z) = 0.38219 0.24736
#
# Static dielectric constant tensor:
#      x y z
#    x 1.662470 0.000000 0.000000 
#    y 0.000000 1.606970 0.000000 
#    z 0.000000 0.000000 1.642740 
# 
# From -- ./inp_files/58774.got.cif
#   From: 2010.05.17/outbox.cif.g08.bks.cpg/sg65_30_cif.got.tgz:58774.got - 2010.06.03 17:01:31.
