data_PCOD9487314
_publ_section_title
;
Structure prediction by ZEFSAII (Michael W. Deem and Ramdas Pophale) SiO2 
 PCOD9487314
Probable space group: C M M M
;
_chemical_formula_sum "Si O2"
_cell_formula_units_Z 88
_cell_length_a 7.961350
_cell_length_b 29.642386
_cell_length_c 18.628101
_cell_angle_alpha 90.000000
_cell_angle_beta 90.000000
_cell_angle_gamma 90.000000
_cell_volume 4396.109073
_symmetry_space_group_name_H-M "C M M M"
_symmetry_group_IT_number 65
_symmetry_cell_setting 'orthorhombic'
loop_
_space_group_symop_operation_xyz
x,y,z
-x,-y,z
x,-y,-z
-x,y,-z
-x,-y,-z
x,y,-z
-x,y,z
x,-y,z
1/2+x,1/2+y,z
1/2-x,1/2-y,z
1/2+x,1/2-y,-z
1/2-x,1/2+y,-z
1/2-x,1/2-y,-z
1/2+x,1/2+y,-z
1/2-x,1/2+y,z
1/2+x,1/2-y,z
loop_
_atom_site_type_symbol
_atom_site_label
_atom_site_fract_x
_atom_site_fract_y
_atom_site_fract_z
Si Si1 0.798221 0.299495 0.806018
Si Si2 0.299659 0.050860 0.282275
Si Si3 0.198033 0.893907 0.421113
Si Si4 0.294474 0.052199 0.000000
Si Si5 0.701011 0.799796 0.360127
Si Si6 0.294091 0.894876 0.142308
O O1 0.750000 0.250000 0.833120
O O2 0.738832 0.303551 0.723022
O O3 0.739780 0.342816 0.850627
O O4 0.000000 0.301251 0.803410
O O5 0.500000 0.047814 0.272403
O O6 0.270795 0.077457 0.355763
O O7 0.236591 0.078975 0.213848
O O8 0.231360 0.000000 0.284671
O O9 0.267928 0.905070 0.500000
O O10 0.227322 0.841197 0.404714
O O11 0.000000 0.902446 0.421907
O O12 0.240354 0.078821 0.928776
O O13 0.500000 0.051769 0.000000
O O14 0.240551 0.000000 0.000000
O O15 0.500000 0.803814 0.360290
O O16 0.750000 0.750000 0.386142
O O17 0.500000 0.894895 0.141991
#
# Coordination Sequence:
#
# PCOD9487314 Si02
#       6
#    16  16  16   8  16  16
#     4   9  17  30  50  76 107 139 174 216 259 309
#     4  10  20  36  58  80 104 138 182 229 276 329
#     4  11  24  39  54  76 108 143 181 227 276 327
#     4   9  16  26  47  80 113 143 175 217 270 319
#     4  10  19  34  56  81 109 142 180 223 271 323
#     4   9  16  30  50  78 112 142 174 218 269 318
#
# _framework density 20.017703000000001
#
# number of rings (size 3 to 8) (size 9 to 14) (size 15 to 20)
#    0.000    2.273    1.818    1.636    0.000    5.455 
#    0.000    2.273    0.000    0.000    0.000    1.909 
#    0.000    4.364    0.000    0.000    0.000    0.000 
#
# Total GULP energy -245616.421014 kJ/mol
# GULP energy per Si atom -5582.191387 kJ/mol
# Density = 1.997214 g / cm^3
# Si number density = 20.017703 Si / 1000 Ang^3
#
#
#
# Elastic Constant Matrix: (Units=GPa)
#
#
# Indices 1 2 3 4 5 6 
#
# 1 13.4457 -2.0431 0.8517 0.0000 0.0000 0.0000
# 2 -2.0431 167.5022 97.6178 0.0000 0.0000 0.0000
# 3 0.8517 97.6178 149.0002 0.0000 0.0000 0.0000
# 4 0.0000 0.0000 0.0000 5.8159 0.0000 0.0000
# 5 0.0000 0.0000 0.0000 0.0000 49.7643 0.0000
# 6 0.0000 0.0000 0.0000 0.0000 0.0000 23.0031
#
#
#
# Elastic Compliance Matrix: (Units=1/GPa)
#
#
# Indices 1 2 3 4 5 6 
#
# 1 0.074764 0.001878 -0.001658 0.000000 0.000000 0.000000
# 2 0.001878 0.009705 -0.006369 0.000000 0.000000 0.000000
# 3 -0.001658 -0.006369 0.010893 0.000000 0.000000 0.000000
# 4 0.000000 0.000000 0.000000 0.171942 0.000000 0.000000
# 5 0.000000 0.000000 0.000000 0.000000 0.020095 0.000000
# 6 0.000000 0.000000 0.000000 0.000000 0.000000 0.043472
#
#
# Mechanical properties :
#
#
# Convention : Reuss Voigt Hill
#
# Bulk Modulus (GPa) = 12.03880 58.08900 35.06390
# Shear Modulus (GPa) = 13.48234 31.28479 22.38357
#
# Velocity S-wave (km/s) = 2.59804 3.95759 3.34756
# Velocity P-wave (km/s) = 3.87646 7.06860 5.70053
#
# Compressibility (1/GPa) = 0.08306477
#
# Stress axis : x y z
#
# Youngs Moduli (GPa) = 13.37548 103.04433 91.79917
#
# Poissons Ratio (x) = -0.19352 0.15218
# Poissons Ratio (y) = -0.02512 0.58464
# Poissons Ratio (z) = 0.02217 0.65626
#
# Static dielectric constant tensor:
#      x y z
#    x 1.729330 0.000000 0.000000 
#    y 0.000000 1.699640 0.000000 
#    z 0.000000 0.000000 1.696690 
# 
# From -- ./inp_files/50407.got.cif
#   From: 2010.05.17/outbox.cif.g08.bks.cpg/sg65_26_cif.got.tgz:50407.got - 2010.06.03 17:01:31.
