data_PCOD9487057
_publ_section_title
;
Structure prediction by ZEFSAII (Michael W. Deem and Ramdas Pophale) SiO2 
 PCOD9487057
Probable space group: C M M M
;
_chemical_formula_sum "Si O2"
_cell_formula_units_Z 104
_cell_length_a 25.588278
_cell_length_b 24.545234
_cell_length_c 9.306367
_cell_angle_alpha 90.000000
_cell_angle_beta 90.000000
_cell_angle_gamma 90.000000
_cell_volume 5845.052445
_symmetry_space_group_name_H-M "C M M M"
_symmetry_group_IT_number 65
_symmetry_cell_setting 'orthorhombic'
loop_
_space_group_symop_operation_xyz
x,y,z
-x,-y,z
x,-y,-z
-x,y,-z
-x,-y,-z
x,y,-z
-x,y,z
x,-y,z
1/2+x,1/2+y,z
1/2-x,1/2-y,z
1/2+x,1/2-y,-z
1/2-x,1/2+y,-z
1/2-x,1/2-y,-z
1/2+x,1/2+y,-z
1/2-x,1/2+y,z
1/2+x,1/2-y,z
loop_
_atom_site_type_symbol
_atom_site_label
_atom_site_fract_x
_atom_site_fract_y
_atom_site_fract_z
Si Si1 0.811487 0.239618 0.838990
Si Si2 0.437848 0.891919 0.167334
Si Si3 0.563273 0.000000 0.661421
Si Si4 0.730902 0.937056 0.326745
Si Si5 0.168760 0.887502 0.827299
Si Si6 0.557957 0.436104 0.174273
Si Si7 0.149453 0.340430 0.670248
O O1 0.750000 0.250000 0.849274
O O2 0.822730 0.176866 0.802785
O O3 0.829683 0.282469 0.721274
O O4 0.833808 0.250634 0.000000
O O5 0.500000 0.884691 0.179806
O O6 0.405077 0.846990 0.248275
O O7 0.422772 0.947104 0.249572
O O8 0.424719 0.895346 0.000000
O O9 0.500000 0.000000 0.650609
O O10 0.585249 0.000000 0.500000
O O11 0.736410 0.934506 0.500000
O O12 0.785570 0.920833 0.252032
O O13 0.688569 0.890234 0.286271
O O14 0.716374 0.000000 0.290236
O O15 0.110505 0.905257 0.779669
O O16 0.173182 0.896792 0.000000
O O17 0.500000 0.416999 0.223155
O O18 0.562702 0.500000 0.212033
O O19 0.557365 0.433072 0.000000
O O20 0.142945 0.343758 0.500000
#
# Coordination Sequence:
#
# PCOD9487057 Si02
#       7
#    16  16   8  16  16  16  16
#     4  10  20  36  55  77 109 143 181 231 276 321
#     4  10  21  37  56  79 108 141 180 227 277 327
#     4   9  17  31  53  79 107 141 179 217 262 321
#     4  10  22  37  52  77 112 143 173 220 278 331
#     4  10  19  33  56  81 105 141 184 224 268 326
#     4   8  14  26  47  78 112 139 169 215 265 315
#     4  11  23  37  57  80 106 144 186 228 278 339
#
# _framework density 17.792826000000002
#
# number of rings (size 3 to 8) (size 9 to 14) (size 15 to 20)
#    0.000    2.231    1.538    2.077    1.077    4.308 
#    0.000    0.769    0.000    3.231    0.000    2.154 
#    0.000    0.000    0.000    0.000    0.000    0.000 
#
# Total GULP energy -289877.848010 kJ/mol
# GULP energy per Si atom -5574.574000 kJ/mol
# Density = 1.775233 g / cm^3
# Si number density = 17.792826 Si / 1000 Ang^3
#
#
#
# Elastic Constant Matrix: (Units=GPa)
#
#
# Indices 1 2 3 4 5 6 
#
# 1 61.6400 28.6960 34.4524 0.0000 0.0000 0.0000
# 2 28.6960 71.7956 28.0251 0.0000 0.0000 0.0000
# 3 34.4524 28.0251 63.6890 0.0000 0.0000 0.0000
# 4 0.0000 0.0000 0.0000 22.7454 0.0000 0.0000
# 5 0.0000 0.0000 0.0000 0.0000 21.1318 0.0000
# 6 0.0000 0.0000 0.0000 0.0000 0.0000 20.5289
#
#
#
# Elastic Compliance Matrix: (Units=1/GPa)
#
#
# Indices 1 2 3 4 5 6 
#
# 1 0.025049 -0.005702 -0.011041 0.000000 0.000000 0.000000
# 2 -0.005702 0.018115 -0.004887 0.000000 0.000000 0.000000
# 3 -0.011041 -0.004887 0.023824 0.000000 0.000000 0.000000
# 4 0.000000 0.000000 0.000000 0.043965 0.000000 0.000000
# 5 0.000000 0.000000 0.000000 0.000000 0.047322 0.000000
# 6 0.000000 0.000000 0.000000 0.000000 0.000000 0.048712
#
#
# Mechanical properties :
#
#
# Convention : Reuss Voigt Hill
#
# Bulk Modulus (GPa) = 42.14319 42.16351 42.15335
# Shear Modulus (GPa) = 19.36814 19.94462 19.65638
#
# Velocity S-wave (km/s) = 3.30288 3.35167 3.32736
# Velocity P-wave (km/s) = 6.18726 6.22307 6.20519
#
# Compressibility (1/GPa) = 0.02372863
#
# Stress axis : x y z
#
# Youngs Moduli (GPa) = 39.92189 55.20308 41.97408
#
# Poissons Ratio (x) = 0.31477 0.46344
# Poissons Ratio (y) = 0.22763 0.20511
# Poissons Ratio (z) = 0.44078 0.26976
#
# Static dielectric constant tensor:
#      x y z
#    x 1.626310 0.000000 0.000000 
#    y 0.000000 1.720080 0.000000 
#    z 0.000000 0.000000 1.602380 
# 
# From -- ./inp_files/16477.got.cif
#   From: 2010.05.17/outbox.cif.g08.bks.cpg/sg65_9_cif.got.tgz:16477.got - 2010.06.03 17:01:31.
