data_PCOD9487947
_publ_section_title
;
Structure prediction by ZEFSAII (Michael W. Deem and Ramdas Pophale) SiO2 
 PCOD9487947
Probable space group: C M M M
;
_chemical_formula_sum "Si O2"
_cell_formula_units_Z 104
_cell_length_a 7.330105
_cell_length_b 30.294463
_cell_length_c 21.014032
_cell_angle_alpha 90.000000
_cell_angle_beta 90.000000
_cell_angle_gamma 90.000000
_cell_volume 4666.409457
_symmetry_space_group_name_H-M "C M M M"
_symmetry_group_IT_number 65
_symmetry_cell_setting 'orthorhombic'
loop_
_space_group_symop_operation_xyz
x,y,z
-x,-y,z
x,-y,-z
-x,y,-z
-x,-y,-z
x,y,-z
-x,y,z
x,-y,z
1/2+x,1/2+y,z
1/2-x,1/2-y,z
1/2+x,1/2-y,-z
1/2-x,1/2+y,-z
1/2-x,1/2-y,-z
1/2+x,1/2+y,-z
1/2-x,1/2+y,z
1/2+x,1/2-y,z
loop_
_atom_site_type_symbol
_atom_site_label
_atom_site_fract_x
_atom_site_fract_y
_atom_site_fract_z
Si Si1 0.776751 0.642291 0.121807
Si Si2 0.782605 0.299254 0.616461
Si Si3 0.277872 0.949997 0.166619
Si Si4 0.282200 0.197539 0.000000
Si Si5 0.221455 0.550547 0.312138
Si Si6 0.222865 0.391735 0.430972
Si Si7 0.217115 0.299944 0.238841
O O1 0.721573 0.590976 0.122886
O O2 0.715250 0.671994 0.062738
O O3 0.715734 0.665376 0.187327
O O4 0.000000 0.642939 0.121673
O O5 0.750000 0.250000 0.591849
O O6 0.719042 0.340894 0.576538
O O7 0.710640 0.302671 0.689109
O O8 0.000000 0.303626 0.620345
O O9 0.500000 0.950888 0.166240
O O10 0.222203 0.939697 0.239690
O O11 0.218605 0.000000 0.150817
O O12 0.250000 0.250000 0.000000
O O13 0.500000 0.192521 0.000000
O O14 0.271530 0.500000 0.325791
O O15 0.284431 0.582003 0.368608
O O16 0.000000 0.552984 0.311430
O O17 0.279959 0.409268 0.500000
O O18 0.000000 0.393227 0.430352
O O19 0.250000 0.250000 0.215864
O O20 0.000000 0.306625 0.243198
#
# Coordination Sequence:
#
# PCOD9487947 Si02
#       7
#    16  16  16   8  16  16  16
#     4   9  16  26  40  58  82 111 138 167 204 241
#     4   9  17  28  41  57  77 103 135 169 204 241
#     4   8  13  22  37  56  78 105 136 167 201 243
#     4  10  20  32  45  63  89 117 144 172 203 242
#     4   8  13  21  34  53  77 105 135 165 199 243
#     4   9  16  24  34  50  74 104 135 165 200 243
#     4   9  16  26  41  59  79 103 133 169 205 241
#
# _framework density 22.286942
#
# number of rings (size 3 to 8) (size 9 to 14) (size 15 to 20)
#    0.000    3.231    0.000    2.308    0.000    4.308 
#    0.000    1.923    0.000    2.308    0.000    0.000 
#    0.000    3.692    0.000   16.308    0.000   18.308 
#
# Total GULP energy -290189.297865 kJ/mol
# GULP energy per Si atom -5580.563420 kJ/mol
# Density = 2.223622 g / cm^3
# Si number density = 22.286942 Si / 1000 Ang^3
#
#
#
# Elastic Constant Matrix: (Units=GPa)
#
#
# Indices 1 2 3 4 5 6 
#
# 1 85.7374 -3.9740 1.6097 0.0000 0.0000 0.0000
# 2 -3.9740 159.0359 77.1589 0.0000 0.0000 0.0000
# 3 1.6097 77.1589 69.1739 0.0000 0.0000 0.0000
# 4 0.0000 0.0000 0.0000 25.0023 0.0000 0.0000
# 5 0.0000 0.0000 0.0000 0.0000 -11.3096 0.0000
# 6 0.0000 0.0000 0.0000 0.0000 0.0000 7.4938
#
#
#
# Elastic Compliance Matrix: (Units=1/GPa)
#
#
# Indices 1 2 3 4 5 6 
#
# 1 0.011731 0.000928 -0.001308 0.000000 0.000000 0.000000
# 2 0.000928 0.013778 -0.015390 0.000000 0.000000 0.000000
# 3 -0.001308 -0.015390 0.031653 0.000000 0.000000 0.000000
# 4 0.000000 0.000000 0.000000 0.039996 0.000000 0.000000
# 5 0.000000 0.000000 0.000000 0.000000 -0.088421 0.000000
# 6 0.000000 0.000000 0.000000 0.000000 0.000000 0.133444
#
#
# Mechanical properties :
#
#
# Convention : Reuss Voigt Hill
#
# Bulk Modulus (GPa) = 39.02862 51.50402 45.26632
# Shear Modulus (GPa) = 27.43323 20.18081 23.80702
#
# Velocity S-wave (km/s) = 3.51224 3.01242 3.27189
# Velocity P-wave (km/s) = 5.83075 5.93795 5.88459
#
# Compressibility (1/GPa) = 0.02562222
#
# Stress axis : x y z
#
# Youngs Moduli (GPa) = 85.24374 72.58190 31.59284
#
# Poissons Ratio (x) = -0.06732 0.04131
# Poissons Ratio (y) = -0.07907 0.48620
# Poissons Ratio (z) = 0.11146 1.11700
#
# Static dielectric constant tensor:
#      x y z
#    x 1.915270 0.000000 0.000000 
#    y 0.000000 1.801630 0.000000 
#    z 0.000000 0.000000 1.796460 
# 
# From -- ./inp_files/69322.got.cif
#   From: 2010.05.17/outbox.cif.g08.bks.cpg/sg65_35_cif.got.tgz:69322.got - 2010.06.03 17:01:31.
