data_PCOD9487126
_publ_section_title
;
Structure prediction by ZEFSAII (Michael W. Deem and Ramdas Pophale) SiO2 
 PCOD9487126
Probable space group: C M M M
;
_chemical_formula_sum "Si O2"
_cell_formula_units_Z 112
_cell_length_a 14.315336
_cell_length_b 26.636109
_cell_length_c 12.937121
_cell_angle_alpha 90.000000
_cell_angle_beta 90.000000
_cell_angle_gamma 90.000000
_cell_volume 4932.986983
_symmetry_space_group_name_H-M "C M M M"
_symmetry_group_IT_number 65
_symmetry_cell_setting 'orthorhombic'
loop_
_space_group_symop_operation_xyz
x,y,z
-x,-y,z
x,-y,-z
-x,y,-z
-x,-y,-z
x,y,-z
-x,y,z
x,-y,z
1/2+x,1/2+y,z
1/2-x,1/2-y,z
1/2+x,1/2-y,-z
1/2-x,1/2+y,-z
1/2-x,1/2-y,-z
1/2+x,1/2+y,-z
1/2-x,1/2+y,z
1/2+x,1/2-y,z
loop_
_atom_site_type_symbol
_atom_site_label
_atom_site_fract_x
_atom_site_fract_y
_atom_site_fract_z
Si Si1 0.285082 0.302651 0.114604
Si Si2 0.604891 0.337462 0.377158
Si Si3 0.896308 0.342048 0.189103
Si Si4 0.111329 0.099046 0.877011
Si Si5 0.400378 0.055823 0.704440
Si Si6 0.808340 0.056166 0.678046
Si Si7 0.886247 0.728091 0.382583
O O1 0.250000 0.250000 0.160094
O O2 0.187185 0.331866 0.112716
O O3 0.357899 0.344002 0.155880
O O4 0.321340 0.290013 0.000000
O O5 0.599049 0.330176 0.500000
O O6 0.500000 0.339730 0.334553
O O7 0.647607 0.392531 0.363543
O O8 0.648851 0.283337 0.346858
O O9 0.899969 0.400647 0.212084
O O10 0.869866 0.315044 0.298255
O O11 0.000000 0.323888 0.158894
O O12 0.169283 0.062719 0.801064
O O13 0.000000 0.091436 0.864166
O O14 0.131918 0.093920 0.000000
O O15 0.500000 0.061727 0.645822
O O16 0.301051 0.059426 0.649115
O O17 0.400382 0.000000 0.749569
O O18 0.841602 0.000000 0.646982
O O19 0.854129 0.716230 0.500000
O O20 0.000000 0.732317 0.386967
#
# Coordination Sequence:
#
# PCOD9487126 Si02
#       7
#    16  16  16  16  16  16  16
#     4  10  22  38  55  81 118 156 194 233 282 350
#     4   9  19  36  57  85 123 159 192 237 291 349
#     4  10  19  33  60  89 112 147 193 243 290 337
#     4  10  22  40  60  84 118 157 194 237 291 346
#     4   9  19  37  59  83 114 151 190 237 293 346
#     4  11  22  37  61  88 115 152 198 245 292 349
#     4   8  16  32  55  86 121 155 191 232 284 346
#
# _framework density 22.704298000000001
#
# number of rings (size 3 to 8) (size 9 to 14) (size 15 to 20)
#    0.000    2.429    1.429    1.286    2.000    2.571 
#    0.000    3.571    0.000    5.571    0.000   11.000 
#    0.000    0.000    0.000    0.000    0.000    0.000 
#
# Total GULP energy -311858.269469 kJ/mol
# GULP energy per Si atom -5568.897669 kJ/mol
# Density = 2.265262 g / cm^3
# Si number density = 22.704298 Si / 1000 Ang^3
#
#
#
# Elastic Constant Matrix: (Units=GPa)
#
#
# Indices 1 2 3 4 5 6 
#
# 1 98.0179 29.2519 7.7248 0.0000 0.0000 0.0000
# 2 29.2519 132.4582 15.5111 0.0000 0.0000 0.0000
# 3 7.7248 15.5111 56.3286 0.0000 0.0000 0.0000
# 4 0.0000 0.0000 0.0000 10.4517 0.0000 0.0000
# 5 0.0000 0.0000 0.0000 0.0000 11.4052 0.0000
# 6 0.0000 0.0000 0.0000 0.0000 0.0000 30.9957
#
#
#
# Elastic Compliance Matrix: (Units=1/GPa)
#
#
# Indices 1 2 3 4 5 6 
#
# 1 0.010963 -0.002320 -0.000865 0.000000 0.000000 0.000000
# 2 -0.002320 0.008292 -0.001965 0.000000 0.000000 0.000000
# 3 -0.000865 -0.001965 0.018413 0.000000 0.000000 0.000000
# 4 0.000000 0.000000 0.000000 0.095678 0.000000 0.000000
# 5 0.000000 0.000000 0.000000 0.000000 0.087679 0.000000
# 6 0.000000 0.000000 0.000000 0.000000 0.000000 0.032263
#
#
# Mechanical properties :
#
#
# Convention : Reuss Voigt Hill
#
# Bulk Modulus (GPa) = 36.53879 43.53116 40.03498
# Shear Modulus (GPa) = 18.33456 26.19164 22.26310
#
# Velocity S-wave (km/s) = 2.84480 3.40015 3.13480
# Velocity P-wave (km/s) = 5.18833 5.88468 5.54744
#
# Compressibility (1/GPa) = 0.02736818
#
# Stress axis : x y z
#
# Youngs Moduli (GPa) = 91.21887 120.59863 54.31029
#
# Poissons Ratio (x) = 0.27976 0.04696
# Poissons Ratio (y) = 0.21160 0.10673
# Poissons Ratio (z) = 0.07887 0.23700
#
# Static dielectric constant tensor:
#      x y z
#    x 1.913410 0.000000 0.000000 
#    y 0.000000 1.851500 0.000000 
#    z 0.000000 0.000000 1.868260 
# 
# From -- ./inp_files/41150.got.cif
#   From: 2010.05.17/outbox.cif.g08.bks.cpg/sg65_21_cif.got.tgz:41150.got - 2010.06.03 17:01:31.
