data_PCOD9487455
_publ_section_title
;
Structure prediction by ZEFSAII (Michael W. Deem and Ramdas Pophale) SiO2 
 PCOD9487455
Probable space group: C M M M
;
_chemical_formula_sum "Si O2"
_cell_formula_units_Z 48
_cell_length_a 13.990698
_cell_length_b 12.269788
_cell_length_c 12.432427
_cell_angle_alpha 90.000000
_cell_angle_beta 90.000000
_cell_angle_gamma 90.000000
_cell_volume 2134.186453
_symmetry_space_group_name_H-M "C M M M"
_symmetry_group_IT_number 65
_symmetry_cell_setting 'orthorhombic'
loop_
_space_group_symop_operation_xyz
x,y,z
-x,-y,z
x,-y,-z
-x,y,-z
-x,-y,-z
x,y,-z
-x,y,z
x,-y,z
1/2+x,1/2+y,z
1/2-x,1/2-y,z
1/2+x,1/2-y,-z
1/2-x,1/2+y,-z
1/2-x,1/2-y,-z
1/2+x,1/2+y,-z
1/2-x,1/2+y,z
1/2+x,1/2-y,z
loop_
_atom_site_type_symbol
_atom_site_label
_atom_site_fract_x
_atom_site_fract_y
_atom_site_fract_z
Si Si1 0.201812 0.372299 0.000000
Si Si2 0.116251 0.500000 0.618854
Si Si3 0.614683 0.810130 0.774699
Si Si4 0.383151 0.626290 0.379222
O O1 0.250000 0.250000 0.000000
O O2 0.146256 0.358948 0.887965
O O3 0.241978 0.500000 0.000000
O O4 0.154064 0.500000 0.500000
O O5 0.144166 0.393724 0.682613
O O6 0.000000 0.500000 0.614816
O O7 0.500000 0.805136 0.779848
O O8 0.647789 0.694181 0.726134
O O9 0.354733 0.666049 0.500000
O O10 0.500000 0.630989 0.379829
O O11 0.356333 0.500000 0.369550
#
# Coordination Sequence:
#
# PCOD9487455 Si02
#       4
#     8   8  16  16
#     4  12  27  45  61  81 113 166 210 252 302 354
#     4   9  16  27  53  93 123 138 167 230 304 359
#     4  10  19  34  60  90 117 146 193 248 299 351
#     4   8  14  26  48  83 124 156 180 221 291 364
#
# _framework density 22.491005000000001
#
# number of rings (size 3 to 8) (size 9 to 14) (size 15 to 20)
#    0.000    2.500    1.667    2.500    0.000    6.000 
#    0.000    0.000    0.000    9.000    0.000    0.000 
#    0.000    0.000    0.000    0.000    0.000    0.000 
#
# Total GULP energy -133797.259918 kJ/mol
# GULP energy per Si atom -5574.885830 kJ/mol
# Density = 2.243981 g / cm^3
# Si number density = 22.491005 Si / 1000 Ang^3
#
#
#
# Elastic Constant Matrix: (Units=GPa)
#
#
# Indices 1 2 3 4 5 6 
#
# 1 55.0228 24.5823 9.3853 0.0000 0.0000 0.0000
# 2 24.5823 135.2851 62.0063 0.0000 0.0000 0.0000
# 3 9.3853 62.0063 180.5706 0.0000 0.0000 0.0000
# 4 0.0000 0.0000 0.0000 233.2324 0.0000 0.0000
# 5 0.0000 0.0000 0.0000 0.0000 -0.8090 0.0000
# 6 0.0000 0.0000 0.0000 0.0000 0.0000 27.5732
#
#
#
# Elastic Compliance Matrix: (Units=1/GPa)
#
#
# Indices 1 2 3 4 5 6 
#
# 1 0.019789 -0.003708 0.000245 0.000000 0.000000 0.000000
# 2 -0.003708 0.009467 -0.003058 0.000000 0.000000 0.000000
# 3 0.000245 -0.003058 0.006575 0.000000 0.000000 0.000000
# 4 0.000000 0.000000 0.000000 0.004288 0.000000 0.000000
# 5 0.000000 0.000000 0.000000 0.000000 -1.236113 0.000000
# 6 0.000000 0.000000 0.000000 0.000000 0.000000 0.036267
#
#
# Mechanical properties :
#
#
# Convention : Reuss Voigt Hill
#
# Bulk Modulus (GPa) = 43.88111 62.53626 53.20869
# Shear Modulus (GPa) = -4.38948 70.32628 32.96840
#
# Velocity S-wave (km/s) = -1.39853 5.59790 3.83279
# Velocity P-wave (km/s) = 4.11643 8.34550 6.57998
#
# Compressibility (1/GPa) = 0.02278885
#
# Stress axis : x y z
#
# Youngs Moduli (GPa) = 50.53272 105.62689 152.08069
#
# Poissons Ratio (x) = 0.39167 -0.03722
# Poissons Ratio (y) = 0.18738 0.46510
# Poissons Ratio (z) = -0.01237 0.32303
#
# Static dielectric constant tensor:
#      x y z
#    x 1.918980 0.000000 0.000000 
#    y 0.000000 1.898190 0.000000 
#    z 0.000000 0.000000 1.819640 
# 
# From -- ./inp_files/21723.got.cif
#   From: 2010.05.17/outbox.cif.g08.bks.cpg/sg65_11_cif.got.tgz:21723.got - 2010.06.03 17:01:31.
