data_PCOD9487570
_publ_section_title
;
Structure prediction by ZEFSAII (Michael W. Deem and Ramdas Pophale) SiO2 
 PCOD9487570
Probable space group: C M M M
;
_chemical_formula_sum "Si O2"
_cell_formula_units_Z 88
_cell_length_a 15.526987
_cell_length_b 7.770942
_cell_length_c 33.919687
_cell_angle_alpha 90.000000
_cell_angle_beta 90.000000
_cell_angle_gamma 90.000000
_cell_volume 4092.726212
_symmetry_space_group_name_H-M "C M M M"
_symmetry_group_IT_number 65
_symmetry_cell_setting 'orthorhombic'
loop_
_space_group_symop_operation_xyz
x,y,z
-x,-y,z
x,-y,-z
-x,y,-z
-x,-y,-z
x,y,-z
-x,y,z
x,-y,z
1/2+x,1/2+y,z
1/2-x,1/2-y,z
1/2+x,1/2-y,-z
1/2-x,1/2+y,-z
1/2-x,1/2-y,-z
1/2+x,1/2+y,-z
1/2-x,1/2+y,z
1/2+x,1/2-y,z
loop_
_atom_site_type_symbol
_atom_site_label
_atom_site_fract_x
_atom_site_fract_y
_atom_site_fract_z
Si Si1 0.851154 0.206557 0.829389
Si Si2 0.648776 0.794409 0.542899
Si Si3 0.398369 0.316137 0.370980
Si Si4 0.352098 0.706740 0.915345
Si Si5 0.606782 0.000000 0.319381
Si Si6 0.147599 0.207740 0.000000
Si Si7 0.099994 0.500000 0.230946
O O1 0.750000 0.250000 0.831901
O O2 0.887693 0.259877 0.872636
O O3 0.881995 0.329483 0.794623
O O4 0.863711 0.000000 0.823576
O O5 0.615309 0.734638 0.500000
O O6 0.750000 0.750000 0.543722
O O7 0.610044 0.718777 0.582524
O O8 0.637938 0.000000 0.544507
O O9 0.500000 0.323895 0.362549
O O10 0.357875 0.500000 0.361944
O O11 0.363454 0.164674 0.344128
O O12 0.359858 0.500000 0.915538
O O13 0.250000 0.750000 0.915510
O O14 0.386859 0.771135 0.957609
O O15 0.640096 0.000000 0.274574
O O16 0.500000 0.000000 0.320116
O O17 0.250000 0.250000 0.000000
O O18 0.138311 0.000000 0.000000
O O19 0.000000 0.500000 0.238581
#
# Coordination Sequence:
#
# PCOD9487570 Si02
#       7
#    16  16  16  16   8   8   8
#     4  10  19  35  59  84 115 151 189 234 292 351
#     4  10  20  34  54  80 115 153 186 223 268 318
#     4  10  20  36  60  84 109 143 183 227 274 325
#     4   8  14  22  39  67  99 139 176 219 275 330
#     4   9  20  40  59  80 110 141 182 232 286 337
#     4   8  12  20  32  58 100 133 171 218 266 322
#     4  11  24  40  62  88 115 149 191 245 300 355
#
# _framework density 21.501560999999999
#
# number of rings (size 3 to 8) (size 9 to 14) (size 15 to 20)
#    0.000    2.545    1.818    0.545    1.273    2.545 
#    0.000    4.545    0.000    0.000    0.000    1.273 
#    0.000    3.636    0.000    0.000    0.000    0.000 
#
# Total GULP energy -245215.353796 kJ/mol
# GULP energy per Si atom -5573.076223 kJ/mol
# Density = 2.145262 g / cm^3
# Si number density = 21.501561 Si / 1000 Ang^3
#
#
#
# Elastic Constant Matrix: (Units=GPa)
#
#
# Indices 1 2 3 4 5 6 
#
# 1 16.0103 1.9569 3.4862 0.0000 0.0000 0.0000
# 2 1.9569 137.3046 98.5495 0.0000 0.0000 0.0000
# 3 3.4862 98.5495 213.8239 0.0000 0.0000 0.0000
# 4 0.0000 0.0000 0.0000 -141.4977 0.0000 0.0000
# 5 0.0000 0.0000 0.0000 0.0000 18.7184 0.0000
# 6 0.0000 0.0000 0.0000 0.0000 0.0000 9.8040
#
#
#
# Elastic Compliance Matrix: (Units=1/GPa)
#
#
# Indices 1 2 3 4 5 6 
#
# 1 0.062688 -0.000239 -0.000912 0.000000 0.000000 0.000000
# 2 -0.000239 0.010884 -0.005013 0.000000 0.000000 0.000000
# 3 -0.000912 -0.005013 0.007002 0.000000 0.000000 0.000000
# 4 0.000000 0.000000 0.000000 -0.007067 0.000000 0.000000
# 5 0.000000 0.000000 0.000000 0.000000 0.053423 0.000000
# 6 0.000000 0.000000 0.000000 0.000000 0.000000 0.101999
#
#
# Mechanical properties :
#
#
# Convention : Reuss Voigt Hill
#
# Bulk Modulus (GPa) = 14.65268 63.90269 39.27768
# Shear Modulus (GPa) = 18.93909 -5.05197 6.94356
#
# Velocity S-wave (km/s) = 2.97109 -1.53450 1.79898
# Velocity P-wave (km/s) = 4.31269 5.16188 4.75627
#
# Compressibility (1/GPa) = 0.06824690
#
# Stress axis : x y z
#
# Youngs Moduli (GPa) = 15.95211 91.87637 142.81952
#
# Poissons Ratio (x) = 0.02195 0.13025
# Poissons Ratio (y) = 0.00381 0.71589
# Poissons Ratio (z) = 0.01455 0.46053
#
# Static dielectric constant tensor:
#      x y z
#    x 1.947230 0.000000 0.000000 
#    y 0.000000 1.772510 0.000000 
#    z 0.000000 0.000000 1.836210 
# 
# From -- ./inp_files/78027.got.cif
#   From: 2010.05.17/outbox.cif.g08.bks.cpg/sg65_40_cif.got.tgz:78027.got - 2010.06.03 17:01:31.
