data_PCOD9487578
_publ_section_title
;
Structure prediction by ZEFSAII (Michael W. Deem and Ramdas Pophale) SiO2 
 PCOD9487578
Probable space group: C M M M
;
_chemical_formula_sum "Si O2"
_cell_formula_units_Z 96
_cell_length_a 10.354529
_cell_length_b 15.052897
_cell_length_c 32.775726
_cell_angle_alpha 90.000000
_cell_angle_beta 90.000000
_cell_angle_gamma 90.000000
_cell_volume 5108.610116
_symmetry_space_group_name_H-M "C M M M"
_symmetry_group_IT_number 65
_symmetry_cell_setting 'orthorhombic'
loop_
_space_group_symop_operation_xyz
x,y,z
-x,-y,z
x,-y,-z
-x,y,-z
-x,-y,-z
x,y,-z
-x,y,z
x,-y,z
1/2+x,1/2+y,z
1/2-x,1/2-y,z
1/2+x,1/2-y,-z
1/2-x,1/2+y,-z
1/2-x,1/2-y,-z
1/2+x,1/2+y,-z
1/2-x,1/2+y,z
1/2+x,1/2-y,z
loop_
_atom_site_type_symbol
_atom_site_label
_atom_site_fract_x
_atom_site_fract_y
_atom_site_fract_z
Si Si1 0.500000 0.828436 0.545838
Si Si2 0.844241 0.500000 0.953795
Si Si3 0.262772 0.099618 0.595944
Si Si4 0.750000 0.750000 0.255932
Si Si5 0.500000 0.619246 0.453580
Si Si6 0.349341 0.604782 0.681609
Si Si7 0.342837 0.833867 0.896288
Si Si8 0.346658 0.099441 0.194717
O O1 0.500000 0.868360 0.500000
O O2 0.628758 0.851048 0.570585
O O3 0.500000 0.724059 0.542646
O O4 0.811763 0.411693 0.928451
O O5 0.000000 0.500000 0.955927
O O6 0.793340 0.500000 0.000000
O O7 0.128919 0.096252 0.571128
O O8 0.232251 0.131148 0.641617
O O9 0.312703 0.000000 0.600524
O O10 0.671252 0.681294 0.284746
O O11 0.682848 0.821607 0.226150
O O12 0.500000 0.586732 0.500000
O O13 0.500000 0.603577 0.670217
O O14 0.317739 0.500000 0.692761
O O15 0.500000 0.815772 0.897798
O O16 0.250000 0.750000 0.903833
O O17 0.310876 0.870747 0.851017
O O18 0.500000 0.090600 0.194500
O O19 0.292580 0.000000 0.204150
#
# Coordination Sequence:
#
# PCOD9487578 Si02
#       8
#     8   8  16   8   8  16  16  16
#     4  11  25  41  61  93 125 149 185 241 295 341
#     4   9  18  34  59  89 121 169 221 257 309 381
#     4  11  23  41  63  86 117 155 188 233 286 346
#     4  12  22  36  62  88 112 152 190 254 306 354
#     4  11  23  39  63  91 113 147 195 231 275 345
#     4  10  23  42  60  85 118 154 198 237 291 357
#     4  10  19  35  59  86 120 163 207 259 313 369
#     4  10  20  36  57  85 118 153 199 247 302 365
#
# _framework density 18.791803999999999
#
# number of rings (size 3 to 8) (size 9 to 14) (size 15 to 20)
#    0.000    1.583    2.500    2.500    2.333    3.667 
#    1.500    0.417    0.000    1.500    0.000    0.000 
#    0.000    0.000    0.000    0.000    0.000    0.000 
#
# Total GULP energy -267479.945811 kJ/mol
# GULP energy per Si atom -5572.498871 kJ/mol
# Density = 1.874903 g / cm^3
# Si number density = 18.791804 Si / 1000 Ang^3
#
#
#
# Elastic Constant Matrix: (Units=GPa)
#
#
# Indices 1 2 3 4 5 6 
#
# 1 69.5549 49.7335 40.1325 0.0000 0.0000 0.0000
# 2 49.7335 160.3182 79.7658 0.0000 0.0000 0.0000
# 3 40.1325 79.7658 145.3961 0.0000 0.0000 0.0000
# 4 0.0000 0.0000 0.0000 32.8066 0.0000 0.0000
# 5 0.0000 0.0000 0.0000 0.0000 25.5545 0.0000
# 6 0.0000 0.0000 0.0000 0.0000 0.0000 9.3696
#
#
#
# Elastic Compliance Matrix: (Units=1/GPa)
#
#
# Indices 1 2 3 4 5 6 
#
# 1 0.019273 -0.004583 -0.002805 0.000000 0.000000 0.000000
# 2 -0.004583 0.009669 -0.004040 0.000000 0.000000 0.000000
# 3 -0.002805 -0.004040 0.009868 0.000000 0.000000 0.000000
# 4 0.000000 0.000000 0.000000 0.030482 0.000000 0.000000
# 5 0.000000 0.000000 0.000000 0.000000 0.039132 0.000000
# 6 0.000000 0.000000 0.000000 0.000000 0.000000 0.106729
#
#
# Mechanical properties :
#
#
# Convention : Reuss Voigt Hill
#
# Bulk Modulus (GPa) = 62.67920 79.39253 71.03587
# Shear Modulus (GPa) = 20.54852 27.25530 23.90191
#
# Velocity S-wave (km/s) = 3.31037 3.81252 3.57029
# Velocity P-wave (km/s) = 6.93097 7.85625 7.40807
#
# Compressibility (1/GPa) = 0.01595426
#
# Stress axis : x y z
#
# Youngs Moduli (GPa) = 51.88671 103.42120 101.33432
#
# Poissons Ratio (x) = 0.47397 0.28429
# Poissons Ratio (y) = 0.23779 0.40935
# Poissons Ratio (z) = 0.14557 0.41778
#
# Static dielectric constant tensor:
#      x y z
#    x 1.657450 0.000000 0.000000 
#    y 0.000000 1.672220 0.000000 
#    z 0.000000 0.000000 1.684250 
# 
# From -- ./inp_files/77404.got.cif
#   From: 2010.05.17/outbox.cif.g08.bks.cpg/sg65_39_cif.got.tgz:77404.got - 2010.06.03 17:01:31.
