data_PCOD9487557
_publ_section_title
;
Structure prediction by ZEFSAII (Michael W. Deem and Ramdas Pophale) SiO2 
 PCOD9487557
Probable space group: C M M M
;
_chemical_formula_sum "Si O2"
_cell_formula_units_Z 66
_cell_length_a 21.020652
_cell_length_b 20.454586
_cell_length_c 8.193350
_cell_angle_alpha 90.000000
_cell_angle_beta 90.000000
_cell_angle_gamma 90.000000
_cell_volume 3522.884328
_symmetry_space_group_name_H-M "C M M M"
_symmetry_group_IT_number 65
_symmetry_cell_setting 'orthorhombic'
loop_
_space_group_symop_operation_xyz
x,y,z
-x,-y,z
x,-y,-z
-x,y,-z
-x,-y,-z
x,y,-z
-x,y,z
x,-y,z
1/2+x,1/2+y,z
1/2-x,1/2-y,z
1/2+x,1/2-y,-z
1/2-x,1/2+y,-z
1/2-x,1/2-y,-z
1/2+x,1/2+y,-z
1/2-x,1/2+y,z
1/2+x,1/2-y,z
loop_
_atom_site_type_symbol
_atom_site_label
_atom_site_fract_x
_atom_site_fract_y
_atom_site_fract_z
Si Si1 0.608579 0.188128 0.810055
Si Si2 0.000000 0.500000 0.000000
Si Si3 0.000000 0.400440 0.685218
Si Si4 0.620124 0.339448 0.805023
Si Si5 0.757800 0.671198 0.685546
Si Si6 0.500000 0.424810 0.304615
O O1 0.561520 0.145312 0.704471
O O2 0.607590 0.263971 0.754057
O O3 0.680001 0.159867 0.793490
O O4 0.589543 0.187177 0.000000
O O5 0.000000 0.555319 0.150321
O O6 0.000000 0.428403 0.500000
O O7 0.690224 0.357685 0.739910
O O8 0.563006 0.386047 0.751034
O O9 0.623466 0.339248 0.000000
O O10 0.771438 0.651835 0.500000
O O11 0.750000 0.750000 0.690718
O O12 0.500000 0.500000 0.244689
O O13 0.500000 0.426027 0.500000
#
# Coordination Sequence:
#
# PCOD9487557 Si02
#       6
#    16   2   8  16  16   8
#     4  10  19  35  58  90 123 149 187 244 295 344
#     4  12  26  48  60  82 120 156 188 250 288 362
#     4  12  24  40  65  88 115 157 199 239 296 353
#     4  10  20  34  57  86 117 152 189 238 295 346
#     4   9  17  30  52  84 119 150 185 231 288 349
#     4  11  24  39  55  75 110 155 197 243 289 344
#
# _framework density 18.734649000000001
#
# number of rings (size 3 to 8) (size 9 to 14) (size 15 to 20)
#    0.000    1.818    1.212    3.455    0.000    9.697 
#    0.000    0.000    2.667    0.000    0.000    0.000 
#    0.000    0.000    0.000    0.000    0.000    0.000 
#
# Total GULP energy -183759.317432 kJ/mol
# GULP energy per Si atom -5568.464165 kJ/mol
# Density = 1.869201 g / cm^3
# Si number density = 18.734649 Si / 1000 Ang^3
#
#
#
# Elastic Constant Matrix: (Units=GPa)
#
#
# Indices 1 2 3 4 5 6 
#
# 1 127.4557 56.0256 22.4256 0.0000 0.0000 0.0000
# 2 56.0256 78.2620 30.2333 0.0000 0.0000 0.0000
# 3 22.4256 30.2333 89.4174 0.0000 0.0000 0.0000
# 4 0.0000 0.0000 0.0000 15.8056 0.0000 0.0000
# 5 0.0000 0.0000 0.0000 0.0000 38.0741 0.0000
# 6 0.0000 0.0000 0.0000 0.0000 0.0000 3.9919
#
#
#
# Elastic Compliance Matrix: (Units=1/GPa)
#
#
# Indices 1 2 3 4 5 6 
#
# 1 0.011449 -0.008152 -0.000115 0.000000 0.000000 0.000000
# 2 -0.008152 0.020501 -0.004887 0.000000 0.000000 0.000000
# 3 -0.000115 -0.004887 0.012865 0.000000 0.000000 0.000000
# 4 0.000000 0.000000 0.000000 0.063269 0.000000 0.000000
# 5 0.000000 0.000000 0.000000 0.000000 0.026265 0.000000
# 6 0.000000 0.000000 0.000000 0.000000 0.000000 0.250506
#
#
# Mechanical properties :
#
#
# Convention : Reuss Voigt Hill
#
# Bulk Modulus (GPa) = 54.03410 56.94491 55.48951
# Shear Modulus (GPa) = 11.98087 24.00436 17.99261
#
# Velocity S-wave (km/s) = 2.53158 3.58338 3.10238
# Velocity P-wave (km/s) = 6.11961 6.89799 6.52043
#
# Compressibility (1/GPa) = 0.01850683
#
# Stress axis : x y z
#
# Youngs Moduli (GPa) = 87.34066 48.77747 77.73098
#
# Poissons Ratio (x) = 0.39762 0.00896
# Poissons Ratio (y) = 0.71198 0.37990
# Poissons Ratio (z) = 0.01006 0.23839
#
# Static dielectric constant tensor:
#      x y z
#    x 1.653030 0.000000 0.000000 
#    y 0.000000 1.639250 0.000000 
#    z 0.000000 0.000000 1.656490 
# 
# From -- ./inp_files/10943.got.cif
#   From: 2010.05.17/outbox.cif.g08.bks.cpg/sg65_6_cif.got.tgz:10943.got - 2010.06.03 17:01:31.
