data_PCOD9487633
_publ_section_title
;
Structure prediction by ZEFSAII (Michael W. Deem and Ramdas Pophale) SiO2 
 PCOD9487633
Probable space group: C M M M
;
_chemical_formula_sum "Si O2"
_cell_formula_units_Z 104
_cell_length_a 23.315703
_cell_length_b 19.521446
_cell_length_c 13.753718
_cell_angle_alpha 90.000000
_cell_angle_beta 90.000000
_cell_angle_gamma 90.000000
_cell_volume 6260.090531
_symmetry_space_group_name_H-M "C M M M"
_symmetry_group_IT_number 65
_symmetry_cell_setting 'orthorhombic'
loop_
_space_group_symop_operation_xyz
x,y,z
-x,-y,z
x,-y,-z
-x,y,-z
-x,-y,-z
x,y,-z
-x,y,z
x,-y,z
1/2+x,1/2+y,z
1/2-x,1/2-y,z
1/2+x,1/2-y,-z
1/2-x,1/2+y,-z
1/2-x,1/2-y,-z
1/2+x,1/2+y,-z
1/2-x,1/2+y,z
1/2+x,1/2-y,z
loop_
_atom_site_type_symbol
_atom_site_label
_atom_site_fract_x
_atom_site_fract_y
_atom_site_fract_z
Si Si1 0.431129 0.582397 0.000000
Si Si2 0.382518 0.236236 0.281765
Si Si3 0.000000 0.766038 0.615122
Si Si4 0.243228 0.076748 0.220504
Si Si5 0.781144 0.322603 0.610825
Si Si6 0.000000 0.924284 0.325658
Si Si7 0.199492 0.305285 0.887213
Si Si8 0.386216 0.611349 0.208619
O O1 0.405042 0.616315 0.903657
O O2 0.418964 0.500000 0.000000
O O3 0.500000 0.589886 0.000000
O O4 0.446418 0.237169 0.323521
O O5 0.345751 0.197991 0.363700
O O6 0.355757 0.204121 0.182455
O O7 0.373001 0.316748 0.261131
O O8 0.000000 0.748229 0.500000
O O9 0.000000 0.850362 0.620034
O O10 0.258885 0.119733 0.316748
O O11 0.271329 0.121737 0.134987
O O12 0.174590 0.074124 0.211270
O O13 0.266110 0.000000 0.223662
O O14 0.772749 0.342973 0.500000
O O15 0.750000 0.250000 0.627962
O O16 0.058356 0.921169 0.261503
O O17 0.000000 0.000000 0.374946
O O18 0.250000 0.250000 0.862414
O O19 0.185080 0.296526 0.000000
#
# Coordination Sequence:
#
# PCOD9487633 Si02
#       8
#     8  16   8  16  16   8  16  16
#     4  11  22  32  44  65  98 150 197 221 258 304
#     4  10  19  36  55  78 103 138 176 224 269 313
#     4  10  22  35  54  80 103 131 181 235 272 316
#     4  11  21  33  51  80 112 139 177 226 273 318
#     4  10  19  36  59  76 101 141 182 220 269 327
#     4  10  20  34  48  64 102 151 186 225 269 305
#     4  10  20  36  56  77 107 146 184 221 268 326
#     4  11  20  33  48  70 103 143 188 229 261 300
#
# _framework density 16.613178000000001
#
# number of rings (size 3 to 8) (size 9 to 14) (size 15 to 20)
#    0.000    1.615    3.846    2.769    2.154    0.769 
#    0.000    0.385    0.000    1.846    0.000    8.615 
#    0.000   19.692    0.000    0.000    0.000    0.000 
#
# Total GULP energy -289491.042788 kJ/mol
# GULP energy per Si atom -5567.135438 kJ/mol
# Density = 1.657537 g / cm^3
# Si number density = 16.613178 Si / 1000 Ang^3
#
#
#
# Elastic Constant Matrix: (Units=GPa)
#
#
# Indices 1 2 3 4 5 6 
#
# 1 107.3050 37.0310 30.2349 0.0000 0.0000 0.0000
# 2 37.0310 64.0917 20.8194 0.0000 0.0000 0.0000
# 3 30.2349 20.8194 77.5496 0.0000 0.0000 0.0000
# 4 0.0000 0.0000 0.0000 10.4197 0.0000 0.0000
# 5 0.0000 0.0000 0.0000 0.0000 71.3205 0.0000
# 6 0.0000 0.0000 0.0000 0.0000 0.0000 -28.8704
#
#
#
# Elastic Compliance Matrix: (Units=1/GPa)
#
#
# Indices 1 2 3 4 5 6 
#
# 1 0.012311 -0.006085 -0.003166 0.000000 0.000000 0.000000
# 2 -0.006085 0.020101 -0.003024 0.000000 0.000000 0.000000
# 3 -0.003166 -0.003024 0.014941 0.000000 0.000000 0.000000
# 4 0.000000 0.000000 0.000000 0.095972 0.000000 0.000000
# 5 0.000000 0.000000 0.000000 0.000000 0.014021 0.000000
# 6 0.000000 0.000000 0.000000 0.000000 0.000000 -0.034638
#
#
# Mechanical properties :
#
#
# Convention : Reuss Voigt Hill
#
# Bulk Modulus (GPa) = 43.85388 47.23523 45.54455
# Shear Modulus (GPa) = 32.28724 21.29803 26.79263
#
# Velocity S-wave (km/s) = 4.41326 3.58438 4.02024
# Velocity P-wave (km/s) = 7.24041 6.75459 7.00172
#
# Compressibility (1/GPa) = 0.02280300
#
# Stress axis : x y z
#
# Youngs Moduli (GPa) = 81.22679 49.74990 66.92851
#
# Poissons Ratio (x) = 0.30271 0.21192
# Poissons Ratio (y) = 0.49423 0.20239
# Poissons Ratio (z) = 0.25719 0.15045
#
# Static dielectric constant tensor:
#      x y z
#    x 1.599490 0.000000 0.000000 
#    y 0.000000 1.561000 0.000000 
#    z 0.000000 0.000000 1.566950 
# 
# From -- ./inp_files/45982.got.cif
#   From: 2010.05.17/outbox.cif.g08.bks.cpg/sg65_23_cif.got.tgz:45982.got - 2010.06.03 17:01:31.
