data_PCOD9487452
_publ_section_title
;
Structure prediction by ZEFSAII (Michael W. Deem and Ramdas Pophale) SiO2 
 PCOD9487452
Probable space group: C M M M
;
_chemical_formula_sum "Si O2"
_cell_formula_units_Z 96
_cell_length_a 13.652912
_cell_length_b 21.783442
_cell_length_c 15.382657
_cell_angle_alpha 90.000000
_cell_angle_beta 90.000000
_cell_angle_gamma 90.000000
_cell_volume 4574.916280
_symmetry_space_group_name_H-M "C M M M"
_symmetry_group_IT_number 65
_symmetry_cell_setting 'orthorhombic'
loop_
_space_group_symop_operation_xyz
x,y,z
-x,-y,z
x,-y,-z
-x,y,-z
-x,-y,-z
x,y,-z
-x,y,z
x,-y,z
1/2+x,1/2+y,z
1/2-x,1/2-y,z
1/2+x,1/2-y,-z
1/2-x,1/2+y,-z
1/2-x,1/2-y,-z
1/2+x,1/2+y,-z
1/2-x,1/2+y,z
1/2+x,1/2-y,z
loop_
_atom_site_type_symbol
_atom_site_label
_atom_site_fract_x
_atom_site_fract_y
_atom_site_fract_z
Si Si1 0.114482 0.929854 0.638485
Si Si2 0.322309 0.069144 0.906558
Si Si3 0.110447 0.907925 0.155188
Si Si4 0.614199 0.165097 0.771197
Si Si5 0.384543 0.731457 0.900681
Si Si6 0.267925 0.176123 0.403866
O O1 0.118624 0.925805 0.743804
O O2 0.176731 0.871825 0.604089
O O3 0.000000 0.923695 0.613838
O O4 0.146254 0.000000 0.613987
O O5 0.204587 0.067472 0.894998
O O6 0.368074 0.104259 0.826405
O O7 0.358549 0.000000 0.907620
O O8 0.345486 0.099154 0.000000
O O9 0.120453 0.834820 0.143669
O O10 0.000000 0.924711 0.125090
O O11 0.500000 0.176830 0.756398
O O12 0.656115 0.217386 0.835874
O O13 0.666503 0.161937 0.679305
O O14 0.500000 0.746208 0.907791
O O15 0.348021 0.728597 0.000000
O O16 0.311477 0.165468 0.500000
O O17 0.250000 0.250000 0.398828
#
# Coordination Sequence:
#
# PCOD9487452 Si02
#       6
#    16  16  16  16  16  16
#     4  10  21  40  69 101 134 175 219 264 322 397
#     4  11  24  39  58  88 125 169 219 263 310 372
#     4  10  19  34  59  92 131 167 200 252 320 386
#     4  11  24  42  64  88 120 166 217 269 319 369
#     4   9  18  33  56  88 123 162 210 256 304 370
#     4  11  25  44  68 100 134 168 210 266 336 406
#
# _framework density 20.983989999999999
#
# number of rings (size 3 to 8) (size 9 to 14) (size 15 to 20)
#    0.000    1.667    1.667    2.500    0.000    6.333 
#    0.000    5.833    0.000    0.000    0.000    2.333 
#    0.000    0.000    0.000    0.000    0.000    0.000 
#
# Total GULP energy -267997.519237 kJ/mol
# GULP energy per Si atom -5583.281651 kJ/mol
# Density = 2.093623 g / cm^3
# Si number density = 20.983990 Si / 1000 Ang^3
#
#
#
# Elastic Constant Matrix: (Units=GPa)
#
#
# Indices 1 2 3 4 5 6 
#
# 1 50.9793 32.0345 15.1476 0.0000 0.0000 0.0000
# 2 32.0345 120.9317 49.4491 0.0000 0.0000 0.0000
# 3 15.1476 49.4491 155.9503 0.0000 0.0000 0.0000
# 4 0.0000 0.0000 0.0000 21.8720 0.0000 0.0000
# 5 0.0000 0.0000 0.0000 0.0000 10.5044 0.0000
# 6 0.0000 0.0000 0.0000 0.0000 0.0000 15.1924
#
#
#
# Elastic Compliance Matrix: (Units=1/GPa)
#
#
# Indices 1 2 3 4 5 6 
#
# 1 0.023550 -0.006093 -0.000355 0.000000 0.000000 0.000000
# 2 -0.006093 0.011077 -0.002921 0.000000 0.000000 0.000000
# 3 -0.000355 -0.002921 0.007373 0.000000 0.000000 0.000000
# 4 0.000000 0.000000 0.000000 0.045721 0.000000 0.000000
# 5 0.000000 0.000000 0.000000 0.000000 0.095198 0.000000
# 6 0.000000 0.000000 0.000000 0.000000 0.000000 0.065823
#
#
# Mechanical properties :
#
#
# Convention : Reuss Voigt Hill
#
# Bulk Modulus (GPa) = 42.98813 57.90264 50.44539
# Shear Modulus (GPa) = 18.16637 24.92910 21.54773
#
# Velocity S-wave (km/s) = 2.94551 3.45049 3.20795
# Velocity P-wave (km/s) = 5.66557 6.59758 6.14926
#
# Compressibility (1/GPa) = 0.02326224
#
# Stress axis : x y z
#
# Youngs Moduli (GPa) = 42.46257 90.27393 135.63180
#
# Poissons Ratio (x) = 0.55004 0.04821
# Poissons Ratio (y) = 0.25873 0.39613
# Poissons Ratio (z) = 0.01509 0.26366
#
# Static dielectric constant tensor:
#      x y z
#    x 1.787340 0.000000 0.000000 
#    y 0.000000 1.816280 0.000000 
#    z 0.000000 0.000000 1.741450 
# 
# From -- ./inp_files/40328.got.cif
#   From: 2010.05.17/outbox.cif.g08.bks.cpg/sg65_21_cif.got.tgz:40328.got - 2010.06.03 17:01:31.
