data_PCOD9487938
_publ_section_title
;
Structure prediction by ZEFSAII (Michael W. Deem and Ramdas Pophale) SiO2 
 PCOD9487938
Probable space group: C M M M
;
_chemical_formula_sum "Si O2"
_cell_formula_units_Z 96
_cell_length_a 29.096432
_cell_length_b 30.277496
_cell_length_c 8.639617
_cell_angle_alpha 90.000000
_cell_angle_beta 90.000000
_cell_angle_gamma 90.000000
_cell_volume 7611.218364
_symmetry_space_group_name_H-M "C M M M"
_symmetry_group_IT_number 65
_symmetry_cell_setting 'orthorhombic'
loop_
_space_group_symop_operation_xyz
x,y,z
-x,-y,z
x,-y,-z
-x,y,-z
-x,-y,-z
x,y,-z
-x,y,z
x,-y,z
1/2+x,1/2+y,z
1/2-x,1/2-y,z
1/2+x,1/2-y,-z
1/2-x,1/2+y,-z
1/2-x,1/2-y,-z
1/2+x,1/2+y,-z
1/2-x,1/2+y,z
1/2+x,1/2-y,z
loop_
_atom_site_type_symbol
_atom_site_label
_atom_site_fract_x
_atom_site_fract_y
_atom_site_fract_z
Si Si1 0.096970 0.785539 0.183676
Si Si2 0.176749 0.267558 0.316743
Si Si3 0.592158 0.449322 0.687022
Si Si4 0.000000 0.905338 0.184464
Si Si5 0.845742 0.131346 0.312113
Si Si6 0.500000 0.305745 0.315662
Si Si7 0.259779 0.320324 0.317031
O O1 0.129948 0.745045 0.232053
O O2 0.121040 0.830073 0.249446
O O3 0.046312 0.783208 0.254207
O O4 0.094391 0.789029 0.000000
O O5 0.167886 0.273943 0.500000
O O6 0.209612 0.306851 0.254761
O O7 0.208503 0.223551 0.304643
O O8 0.587666 0.447718 0.500000
O O9 0.600191 0.500000 0.732250
O O10 0.545153 0.431002 0.758686
O O11 0.632878 0.415660 0.730678
O O12 0.000000 0.856231 0.255052
O O13 0.000000 0.901896 0.000000
O O14 0.845824 0.134918 0.500000
O O15 0.793708 0.141598 0.256787
O O16 0.500000 0.306441 0.500000
O O17 0.252626 0.328233 0.500000
#
# Coordination Sequence:
#
# PCOD9487938 Si02
#       7
#    16  16  16   8  16   8  16
#     4  11  20  28  39  57  76  91 114 147 183 220
#     4   8  13  24  39  54  72  94 117 140 169 209
#     4  10  20  32  45  58  72  94 125 156 189 232
#     4  12  23  33  44  57  70  88 118 158 202 237
#     4   9  16  28  43  55  71  96 120 146 182 221
#     4  12  22  33  45  54  68  95 124 152 185 225
#     4   7  11  21  39  57  70  90 120 143 165 208
#
# _framework density 12.612961
#
# number of rings (size 3 to 8) (size 9 to 14) (size 15 to 20)
#    0.000    2.500    1.667    5.250    0.000    1.333 
#    0.000    6.667    0.000    0.000    0.000    0.000 
#    0.000    0.000    0.000    0.000    0.000    0.000 
#
# Total GULP energy -267238.906237 kJ/mol
# GULP energy per Si atom -5567.477213 kJ/mol
# Density = 1.258425 g / cm^3
# Si number density = 12.612961 Si / 1000 Ang^3
#
#
#
# Elastic Constant Matrix: (Units=GPa)
#
#
# Indices 1 2 3 4 5 6 
#
# 1 108.4048 59.6201 29.7693 0.0000 0.0000 0.0000
# 2 59.6201 51.7012 20.0512 0.0000 0.0000 0.0000
# 3 29.7693 20.0512 31.0626 0.0000 0.0000 0.0000
# 4 0.0000 0.0000 0.0000 1.3467 0.0000 0.0000
# 5 0.0000 0.0000 0.0000 0.0000 -20.3689 0.0000
# 6 0.0000 0.0000 0.0000 0.0000 0.0000 8.8249
#
#
#
# Elastic Compliance Matrix: (Units=1/GPa)
#
#
# Indices 1 2 3 4 5 6 
#
# 1 0.026486 -0.027611 -0.007560 0.000000 0.000000 0.000000
# 2 -0.027611 0.054584 -0.008773 0.000000 0.000000 0.000000
# 3 -0.007560 -0.008773 0.045102 0.000000 0.000000 0.000000
# 4 0.000000 0.000000 0.000000 0.742537 0.000000 0.000000
# 5 0.000000 0.000000 0.000000 0.000000 -0.049095 0.000000
# 6 0.000000 0.000000 0.000000 0.000000 0.000000 0.113316
#
#
# Mechanical properties :
#
#
# Convention : Reuss Voigt Hill
#
# Bulk Modulus (GPa) = 26.12111 45.56110 35.84110
# Shear Modulus (GPa) = 4.83755 3.40909 4.12332
#
# Velocity S-wave (km/s) = 1.96054 1.64582 1.81003
# Velocity P-wave (km/s) = 5.08720 6.30971 5.73115
#
# Compressibility (1/GPa) = 0.03828321
#
# Stress axis : x y z
#
# Youngs Moduli (GPa) = 37.75551 18.32024 22.17203
#
# Poissons Ratio (x) = 0.50584 0.16763
# Poissons Ratio (y) = 1.04246 0.19452
# Poissons Ratio (z) = 0.28544 0.16073
#
# Static dielectric constant tensor:
#      x y z
#    x 1.432890 0.000000 0.000000 
#    y 0.000000 1.404930 0.000000 
#    z 0.000000 0.000000 1.416950 
# 
# From -- ./inp_files/19196.got.cif
#   From: 2010.05.17/outbox.cif.g08.bks.cpg/sg65_10_cif.got.tgz:19196.got - 2010.06.03 17:01:31.
