data_PCOD9487967
_publ_section_title
;
Structure prediction by ZEFSAII (Michael W. Deem and Ramdas Pophale) SiO2 
 PCOD9487967
Probable space group: C M M M
;
_chemical_formula_sum "Si O2"
_cell_formula_units_Z 96
_cell_length_a 8.062037
_cell_length_b 29.632186
_cell_length_c 22.460914
_cell_angle_alpha 90.000000
_cell_angle_beta 90.000000
_cell_angle_gamma 90.000000
_cell_volume 5365.817568
_symmetry_space_group_name_H-M "C M M M"
_symmetry_group_IT_number 65
_symmetry_cell_setting 'orthorhombic'
loop_
_space_group_symop_operation_xyz
x,y,z
-x,-y,z
x,-y,-z
-x,y,-z
-x,-y,-z
x,y,-z
-x,y,z
x,-y,z
1/2+x,1/2+y,z
1/2-x,1/2-y,z
1/2+x,1/2-y,-z
1/2-x,1/2+y,-z
1/2-x,1/2-y,-z
1/2+x,1/2+y,-z
1/2-x,1/2+y,z
1/2+x,1/2-y,z
loop_
_atom_site_type_symbol
_atom_site_label
_atom_site_fract_x
_atom_site_fract_y
_atom_site_fract_z
Si Si1 0.199757 0.300551 0.270308
Si Si2 0.184385 0.611176 0.928401
Si Si3 0.299313 0.802244 0.500000
Si Si4 0.799920 0.050408 0.568670
Si Si5 0.801254 0.644040 0.383203
Si Si6 0.500000 0.551976 0.927463
Si Si7 0.193672 0.801124 0.135005
O O1 0.250000 0.250000 0.288935
O O2 0.258026 0.334686 0.321336
O O3 0.276079 0.308558 0.205380
O O4 0.000000 0.302567 0.264308
O O5 0.334646 0.578808 0.908597
O O6 0.210379 0.660559 0.900894
O O7 0.000000 0.594239 0.912705
O O8 0.193518 0.614391 0.000000
O O9 0.500000 0.804596 0.500000
O O10 0.250000 0.750000 0.500000
O O11 0.238398 0.828002 0.559327
O O12 0.745172 0.057741 0.500000
O O13 0.739944 0.091804 0.607811
O O14 0.000000 0.050645 0.568546
O O15 0.745511 0.000000 0.586655
O O16 0.000000 0.648959 0.383048
O O17 0.500000 0.500000 0.907768
O O18 0.500000 0.551640 0.000000
O O19 0.250000 0.750000 0.121764
O O20 0.000000 0.805389 0.121341
#
# Coordination Sequence:
#
# PCOD9487967 Si02
#       7
#    16  16   8  16  16   8  16
#     4  10  20  34  51  74 102 136 179 219 258 315
#     4  10  20  35  56  85 120 153 189 235 284 334
#     4  10  20  32  45  68  99 129 162 201 253 308
#     4   9  18  32  50  73  98 124 160 205 253 312
#     4  10  20  33  50  72 100 130 165 209 256 310
#     4   9  18  34  56  84 118 154 194 237 282 336
#     4  11  21  35  55  79 110 149 190 231 274 329
#
# _framework density 17.891029
#
# number of rings (size 3 to 8) (size 9 to 14) (size 15 to 20)
#    0.000    2.083    1.667    4.000    0.000    3.000 
#    0.000    2.500    0.000    1.000    0.000    2.333 
#    0.000    0.000    0.000    0.000    0.000    0.000 
#
# Total GULP energy -267848.341159 kJ/mol
# GULP energy per Si atom -5580.173774 kJ/mol
# Density = 1.785031 g / cm^3
# Si number density = 17.891029 Si / 1000 Ang^3
#
#
#
# Elastic Constant Matrix: (Units=GPa)
#
#
# Indices 1 2 3 4 5 6 
#
# 1 74.5806 30.5171 18.9882 0.0000 0.0000 0.0000
# 2 30.5171 120.8175 33.0657 0.0000 0.0000 0.0000
# 3 18.9882 33.0657 18.2802 0.0000 0.0000 0.0000
# 4 0.0000 0.0000 0.0000 5.1215 0.0000 0.0000
# 5 0.0000 0.0000 0.0000 0.0000 16.5777 0.0000
# 6 0.0000 0.0000 0.0000 0.0000 0.0000 27.1359
#
#
#
# Elastic Compliance Matrix: (Units=1/GPa)
#
#
# Indices 1 2 3 4 5 6 
#
# 1 0.018309 0.001149 -0.021098 0.000000 0.000000 0.000000
# 2 0.001149 0.016464 -0.030974 0.000000 0.000000 0.000000
# 3 -0.021098 -0.030974 0.132645 0.000000 0.000000 0.000000
# 4 0.000000 0.000000 0.000000 0.195255 0.000000 0.000000
# 5 0.000000 0.000000 0.000000 0.000000 0.060322 0.000000
# 6 0.000000 0.000000 0.000000 0.000000 0.000000 0.036852
#
#
# Mechanical properties :
#
#
# Convention : Reuss Voigt Hill
#
# Bulk Modulus (GPa) = 15.24988 42.09115 28.67052
# Shear Modulus (GPa) = 8.56826 18.50751 13.53788
#
# Velocity S-wave (km/s) = 2.19078 3.21979 2.75378
# Velocity P-wave (km/s) = 3.86544 6.11557 5.11575
#
# Compressibility (1/GPa) = 0.06557427
#
# Stress axis : x y z
#
# Youngs Moduli (GPa) = 54.61649 60.73981 7.53891
#
# Poissons Ratio (x) = -0.06981 0.15905
# Poissons Ratio (y) = -0.06277 0.23351
# Poissons Ratio (z) = 1.15227 1.88134
#
# Static dielectric constant tensor:
#      x y z
#    x 1.639830 0.000000 0.000000 
#    y 0.000000 1.596470 0.000000 
#    z 0.000000 0.000000 1.596470 
# 
# From -- ./inp_files/68118.got.cif
#   From: 2010.05.17/outbox.cif.g08.bks.cpg/sg65_35_cif.got.tgz:68118.got - 2010.06.03 17:01:31.
