data_PCOD9487678
_publ_section_title
;
Structure prediction by ZEFSAII (Michael W. Deem and Ramdas Pophale) SiO2 
 PCOD9487678
Probable space group: C M M M
;
_chemical_formula_sum "Si O2"
_cell_formula_units_Z 100
_cell_length_a 7.566110
_cell_length_b 30.255141
_cell_length_c 20.998530
_cell_angle_alpha 90.000000
_cell_angle_beta 90.000000
_cell_angle_gamma 90.000000
_cell_volume 4806.851719
_symmetry_space_group_name_H-M "C M M M"
_symmetry_group_IT_number 65
_symmetry_cell_setting 'orthorhombic'
loop_
_space_group_symop_operation_xyz
x,y,z
-x,-y,z
x,-y,-z
-x,y,-z
-x,-y,-z
x,y,-z
-x,y,z
x,-y,z
1/2+x,1/2+y,z
1/2-x,1/2-y,z
1/2+x,1/2-y,-z
1/2-x,1/2+y,-z
1/2-x,1/2-y,-z
1/2+x,1/2+y,-z
1/2-x,1/2+y,z
1/2+x,1/2-y,z
loop_
_atom_site_type_symbol
_atom_site_label
_atom_site_fract_x
_atom_site_fract_y
_atom_site_fract_z
Si Si1 0.500000 0.096068 0.500000
Si Si2 0.194257 0.111364 0.396370
Si Si3 0.711669 0.801185 0.186195
Si Si4 0.783656 0.638564 0.929604
Si Si5 0.288814 0.198670 0.669972
Si Si6 0.786454 0.551061 0.721720
Si Si7 0.715483 0.049648 0.867372
O O1 0.346210 0.097608 0.444451
O O2 0.212609 0.163115 0.378466
O O3 0.215426 0.084337 0.330542
O O4 0.000000 0.102691 0.422250
O O5 0.500000 0.807226 0.188915
O O6 0.750000 0.750000 0.172982
O O7 0.778483 0.831232 0.128803
O O8 0.777463 0.810554 0.257842
O O9 0.729829 0.588388 0.914268
O O10 0.000000 0.639872 0.929221
O O11 0.726326 0.652521 0.000000
O O12 0.500000 0.192826 0.669453
O O13 0.250000 0.250000 0.655637
O O14 0.738389 0.500000 0.707732
O O15 0.731972 0.560502 0.794538
O O16 0.000000 0.553924 0.720214
O O17 0.500000 0.048919 0.867512
O O18 0.774601 0.000000 0.882833
#
# Coordination Sequence:
#
# PCOD9487678 Si02
#       7
#     4  16  16  16  16  16  16
#     4  12  26  48  63  88 130 166 194 238 285 350
#     4  12  24  41  66  90 121 161 200 241 290 353
#     4   9  18  31  50  75 104 141 184 239 297 339
#     4   9  16  25  39  65 105 150 193 233 285 350
#     4  10  19  36  61  87 116 147 194 253 303 353
#     4   9  17  34  60  87 115 151 195 250 309 353
#     4   8  14  25  45  73 104 141 188 238 293 349
#
# _framework density 20.803636000000001
#
# number of rings (size 3 to 8) (size 9 to 14) (size 15 to 20)
#    0.000    2.400    1.600    2.640    0.000    4.160 
#    0.000    2.800    0.000    0.960    0.000    0.000 
#    0.000    0.000    0.000    9.760    0.000    9.600 
#
# Total GULP energy -278706.930546 kJ/mol
# GULP energy per Si atom -5574.138611 kJ/mol
# Density = 2.075629 g / cm^3
# Si number density = 20.803636 Si / 1000 Ang^3
#
#
#
# Elastic Constant Matrix: (Units=GPa)
#
#
# Indices 1 2 3 4 5 6 
#
# 1 91.6010 -2.0275 4.8404 0.0000 0.0000 0.0000
# 2 -2.0275 23.0900 -1.4908 0.0000 0.0000 0.0000
# 3 4.8404 -1.4908 14.2433 0.0000 0.0000 0.0000
# 4 0.0000 0.0000 0.0000 -22.8931 0.0000 0.0000
# 5 0.0000 0.0000 0.0000 0.0000 -35.9706 0.0000
# 6 0.0000 0.0000 0.0000 0.0000 0.0000 5.6011
#
#
#
# Elastic Compliance Matrix: (Units=1/GPa)
#
#
# Indices 1 2 3 4 5 6 
#
# 1 0.011129 0.000738 -0.003705 0.000000 0.000000 0.000000
# 2 0.000738 0.043652 0.004318 0.000000 0.000000 0.000000
# 3 -0.003705 0.004318 0.071919 0.000000 0.000000 0.000000
# 4 0.000000 0.000000 0.000000 -0.043681 0.000000 0.000000
# 5 0.000000 0.000000 0.000000 0.000000 -0.027800 0.000000
# 6 0.000000 0.000000 0.000000 0.000000 0.000000 0.178537
#
#
# Mechanical properties :
#
#
# Convention : Reuss Voigt Hill
#
# Bulk Modulus (GPa) = 7.72778 14.61986 11.17382
# Shear Modulus (GPa) = 18.23563 -2.14505 8.04529
#
# Velocity S-wave (km/s) = 2.96389 -1.01653 1.96867
# Velocity P-wave (km/s) = 3.92881 2.38013 3.24812
#
# Compressibility (1/GPa) = 0.12940320
#
# Stress axis : x y z
#
# Youngs Moduli (GPa) = 89.85518 22.90829 13.90444
#
# Poissons Ratio (x) = -0.01691 0.05151
# Poissons Ratio (y) = -0.06632 -0.06004
# Poissons Ratio (z) = 0.33290 -0.09892
#
# Static dielectric constant tensor:
#      x y z
#    x 1.779770 0.000000 0.000000 
#    y 0.000000 1.729480 0.000000 
#    z 0.000000 0.000000 1.721090 
# 
# From -- ./inp_files/60435.got.cif
#   From: 2010.05.17/outbox.cif.g08.bks.cpg/sg65_31_cif.got.tgz:60435.got - 2010.06.03 17:01:31.
