data_PCOD9487405
_publ_section_title
;
Structure prediction by ZEFSAII (Michael W. Deem and Ramdas Pophale) SiO2 
 PCOD9487405
Probable space group: C M M M
;
_chemical_formula_sum "Si O2"
_cell_formula_units_Z 104
_cell_length_a 23.005379
_cell_length_b 27.945947
_cell_length_c 8.573211
_cell_angle_alpha 90.000000
_cell_angle_beta 90.000000
_cell_angle_gamma 90.000000
_cell_volume 5511.778241
_symmetry_space_group_name_H-M "C M M M"
_symmetry_group_IT_number 65
_symmetry_cell_setting 'orthorhombic'
loop_
_space_group_symop_operation_xyz
x,y,z
-x,-y,z
x,-y,-z
-x,y,-z
-x,-y,-z
x,y,-z
-x,y,z
x,-y,z
1/2+x,1/2+y,z
1/2-x,1/2-y,z
1/2+x,1/2-y,-z
1/2-x,1/2+y,-z
1/2-x,1/2-y,-z
1/2+x,1/2+y,-z
1/2-x,1/2+y,z
1/2+x,1/2-y,z
loop_
_atom_site_type_symbol
_atom_site_label
_atom_site_fract_x
_atom_site_fract_y
_atom_site_fract_z
Si Si1 0.290104 0.446166 0.190318
Si Si2 0.658234 0.922900 0.185562
Si Si3 0.932004 0.500000 0.686787
Si Si4 0.126292 0.861041 0.187277
Si Si5 0.309731 0.269517 0.319733
Si Si6 0.500000 0.216562 0.814209
Si Si7 0.500000 0.328155 0.190821
Si Si8 0.384687 0.173641 0.678602
O O1 0.306786 0.500000 0.235641
O O2 0.223312 0.436847 0.240577
O O3 0.336108 0.406297 0.244987
O O4 0.289452 0.444058 0.000000
O O5 0.606342 0.954734 0.256753
O O6 0.647392 0.867922 0.228310
O O7 0.656762 0.930200 0.000000
O O8 0.933359 0.500000 0.500000
O O9 0.000000 0.500000 0.740993
O O10 0.161108 0.813175 0.231397
O O11 0.059727 0.853716 0.242789
O O12 0.123449 0.864788 0.000000
O O13 0.298811 0.284676 0.500000
O O14 0.250000 0.250000 0.249482
O O15 0.350309 0.223348 0.321656
O O16 0.500000 0.272185 0.758551
O O17 0.445140 0.187431 0.754878
O O18 0.500000 0.218679 0.000000
O O19 0.500000 0.327978 0.000000
O O20 0.391964 0.157514 0.500000
#
# Coordination Sequence:
#
# PCOD9487405 Si02
#       8
#    16  16   8  16  16   8   8  16
#     4   9  18  35  59  87 115 147 191 245 296 345
#     4  11  22  39  62  86 114 151 195 242 290 342
#     4  11  25  43  61  83 113 150 193 242 293 348
#     4  10  19  34  58  83 113 152 194 240 290 346
#     4  10  21  36  53  78 114 148 182 230 285 341
#     4  11  21  37  57  79 112 151 194 238 279 337
#     4   9  18  33  54  85 117 148 193 243 286 341
#     4  11  23  37  55  82 115 148 185 230 282 340
#
# _framework density 18.868683000000001
#
# number of rings (size 3 to 8) (size 9 to 14) (size 15 to 20)
#    0.000    1.769    2.308    2.308    1.077    1.538 
#    0.000    1.538    0.000    2.308    0.000    0.000 
#    0.000    1.231    0.000    0.000    0.000    0.000 
#
# Total GULP energy -290190.882332 kJ/mol
# GULP energy per Si atom -5580.593891 kJ/mol
# Density = 1.882574 g / cm^3
# Si number density = 18.868683 Si / 1000 Ang^3
#
#
#
# Elastic Constant Matrix: (Units=GPa)
#
#
# Indices 1 2 3 4 5 6 
#
# 1 136.5991 59.5431 10.5699 0.0000 0.0000 0.0000
# 2 59.5431 121.1620 0.5466 0.0000 0.0000 0.0000
# 3 10.5699 0.5466 14.3012 0.0000 0.0000 0.0000
# 4 0.0000 0.0000 0.0000 16.8191 0.0000 0.0000
# 5 0.0000 0.0000 0.0000 0.0000 4.5636 0.0000
# 6 0.0000 0.0000 0.0000 0.0000 0.0000 32.6576
#
#
#
# Elastic Compliance Matrix: (Units=1/GPa)
#
#
# Indices 1 2 3 4 5 6 
#
# 1 0.010008 -0.004886 -0.007210 0.000000 0.000000 0.000000
# 2 -0.004886 0.010640 0.003205 0.000000 0.000000 0.000000
# 3 -0.007210 0.003205 0.075131 0.000000 0.000000 0.000000
# 4 0.000000 0.000000 0.000000 0.059456 0.000000 0.000000
# 5 0.000000 0.000000 0.000000 0.000000 0.219125 0.000000
# 6 0.000000 0.000000 0.000000 0.000000 0.000000 0.030621
#
#
# Mechanical properties :
#
#
# Convention : Reuss Voigt Hill
#
# Bulk Modulus (GPa) = 12.82123 45.93128 29.37626
# Shear Modulus (GPa) = 11.14174 24.23492 17.68833
#
# Velocity S-wave (km/s) = 2.43263 3.58774 3.06509
# Velocity P-wave (km/s) = 3.83406 6.44654 5.30368
#
# Compressibility (1/GPa) = 0.07799563
#
# Stress axis : x y z
#
# Youngs Moduli (GPa) = 99.91622 93.98431 13.31012
#
# Poissons Ratio (x) = 0.45920 0.09597
# Poissons Ratio (y) = 0.48818 -0.04265
# Poissons Ratio (z) = 0.72043 -0.30117
#
# Static dielectric constant tensor:
#      x y z
#    x 1.626860 0.000000 0.000000 
#    y 0.000000 1.639610 0.000000 
#    z 0.000000 0.000000 1.659550 
# 
# From -- ./inp_files/12494.got.cif
#   From: 2010.05.17/outbox.cif.g08.bks.cpg/sg65_7_cif.got.tgz:12494.got - 2010.06.03 17:01:31.
