data_PCOD9487288
_publ_section_title
;
Structure prediction by ZEFSAII (Michael W. Deem and Ramdas Pophale) SiO2 
 PCOD9487288
Probable space group: C M M M
;
_chemical_formula_sum "Si O2"
_cell_formula_units_Z 72
_cell_length_a 27.560664
_cell_length_b 15.816679
_cell_length_c 7.933955
_cell_angle_alpha 90.000000
_cell_angle_beta 90.000000
_cell_angle_gamma 90.000000
_cell_volume 3458.555188
_symmetry_space_group_name_H-M "C M M M"
_symmetry_group_IT_number 65
_symmetry_cell_setting 'orthorhombic'
loop_
_space_group_symop_operation_xyz
x,y,z
-x,-y,z
x,-y,-z
-x,y,-z
-x,-y,-z
x,y,-z
-x,y,z
x,-y,z
1/2+x,1/2+y,z
1/2-x,1/2-y,z
1/2+x,1/2-y,-z
1/2-x,1/2+y,-z
1/2-x,1/2-y,-z
1/2+x,1/2+y,-z
1/2-x,1/2+y,z
1/2+x,1/2-y,z
loop_
_atom_site_type_symbol
_atom_site_label
_atom_site_fract_x
_atom_site_fract_y
_atom_site_fract_z
Si Si1 0.734207 0.000000 0.702210
Si Si2 0.945530 0.652633 0.799011
Si Si3 0.394799 0.324148 0.700677
Si Si4 0.783864 0.827528 0.293476
Si Si5 0.878254 0.500000 0.204276
Si Si6 0.444400 0.500000 0.201877
O O1 0.760468 0.915437 0.764740
O O2 0.739423 0.000000 0.500000
O O3 0.677341 0.000000 0.740833
O O4 0.926555 0.747069 0.769484
O O5 0.907375 0.583002 0.735098
O O6 0.000000 0.641373 0.730237
O O7 0.948281 0.639656 0.000000
O O8 0.393704 0.314716 0.500000
O O9 0.339351 0.318598 0.763388
O O10 0.417283 0.415191 0.741492
O O11 0.784338 0.828021 0.500000
O O12 0.750000 0.750000 0.240553
O O13 0.878149 0.500000 0.000000
O O14 0.500000 0.500000 0.264683
O O15 0.445561 0.500000 0.000000
#
# Coordination Sequence:
#
# PCOD9487288 Si02
#       6
#     8  16  16  16   8   8
#     4  10  19  34  56  78 104 141 182 224 272 326
#     4  10  21  38  58  80 111 151 188 223 273 335
#     4  11  22  37  60  87 112 142 185 235 278 320
#     4   9  18  33  53  78 109 144 179 217 270 333
#     4  10  21  37  57  82 112 147 188 230 271 323
#     4  11  24  41  59  80 112 153 188 222 275 339
#
# _framework density 20.817941000000001
#
# number of rings (size 3 to 8) (size 9 to 14) (size 15 to 20)
#    0.000    1.889    0.000    4.000    0.000    9.778 
#    0.000    3.333    0.000    8.000    0.000    0.000 
#    0.000    0.000    0.000    0.000    0.000    0.000 
#
# Total GULP energy -201236.304571 kJ/mol
# GULP energy per Si atom -5589.897349 kJ/mol
# Density = 2.077056 g / cm^3
# Si number density = 20.817941 Si / 1000 Ang^3
#
#
#
# Elastic Constant Matrix: (Units=GPa)
#
#
# Indices 1 2 3 4 5 6 
#
# 1 92.3781 -17.5521 -6.2231 0.0000 0.0000 0.0000
# 2 -17.5521 58.4331 -14.0982 0.0000 0.0000 0.0000
# 3 -6.2231 -14.0982 16.4753 0.0000 0.0000 0.0000
# 4 0.0000 0.0000 0.0000 400.7997 0.0000 0.0000
# 5 0.0000 0.0000 0.0000 0.0000 26.9012 0.0000
# 6 0.0000 0.0000 0.0000 0.0000 0.0000 44.6162
#
#
#
# Elastic Compliance Matrix: (Units=1/GPa)
#
#
# Indices 1 2 3 4 5 6 
#
# 1 0.012700 0.006266 0.010159 0.000000 0.000000 0.000000
# 2 0.006266 0.024658 0.023467 0.000000 0.000000 0.000000
# 3 0.010159 0.023467 0.084615 0.000000 0.000000 0.000000
# 4 0.000000 0.000000 0.000000 0.002495 0.000000 0.000000
# 5 0.000000 0.000000 0.000000 0.000000 0.037173 0.000000
# 6 0.000000 0.000000 0.000000 0.000000 0.000000 0.022413
#
#
# Mechanical properties :
#
#
# Convention : Reuss Voigt Hill
#
# Bulk Modulus (GPa) = 4.95651 10.17108 7.56379
# Shear Modulus (GPa) = 29.15062 108.14075 68.64568
#
# Velocity S-wave (km/s) = 3.74607 7.21517 5.74855
# Velocity P-wave (km/s) = 4.59312 8.62021 6.90669
#
# Compressibility (1/GPa) = 0.20175504
#
# Stress axis : x y z
#
# Youngs Moduli (GPa) = 78.74040 40.55558 11.81824
#
# Poissons Ratio (x) = -0.25411 -0.12006
# Poissons Ratio (y) = -0.49337 -0.27733
# Poissons Ratio (z) = -0.79991 -0.95170
#
# Static dielectric constant tensor:
#      x y z
#    x 1.719090 0.000000 0.000000 
#    y 0.000000 1.690360 0.000000 
#    z 0.000000 0.000000 1.757200 
# 
# From -- ./inp_files/7711.got.cif
#   From: 2010.05.17/outbox.cif.g08.bks.cpg/sg65_4_cif.got.tgz:7711.got - 2010.06.03 17:01:31.
