data_PCOD9487262
_publ_section_title
;
Structure prediction by ZEFSAII (Michael W. Deem and Ramdas Pophale) SiO2 
 PCOD9487262
Probable space group: C M M M
;
_chemical_formula_sum "Si O2"
_cell_formula_units_Z 104
_cell_length_a 17.935173
_cell_length_b 17.420125
_cell_length_c 18.686575
_cell_angle_alpha 90.000000
_cell_angle_beta 90.000000
_cell_angle_gamma 90.000000
_cell_volume 5838.301856
_symmetry_space_group_name_H-M "C M M M"
_symmetry_group_IT_number 65
_symmetry_cell_setting 'orthorhombic'
loop_
_space_group_symop_operation_xyz
x,y,z
-x,-y,z
x,-y,-z
-x,y,-z
-x,-y,-z
x,y,-z
-x,y,z
x,-y,z
1/2+x,1/2+y,z
1/2-x,1/2-y,z
1/2+x,1/2-y,-z
1/2-x,1/2+y,-z
1/2-x,1/2-y,-z
1/2+x,1/2+y,-z
1/2-x,1/2+y,z
1/2+x,1/2-y,z
loop_
_atom_site_type_symbol
_atom_site_label
_atom_site_fract_x
_atom_site_fract_y
_atom_site_fract_z
Si Si1 0.237776 0.592548 0.416947
Si Si2 0.909353 0.000000 0.082552
Si Si3 0.912082 0.153980 0.834553
Si Si4 0.918165 0.593077 0.653543
Si Si5 0.790443 0.832749 0.718017
Si Si6 0.667246 0.215198 0.083928
Si Si7 0.157828 0.410232 0.797832
O O1 0.249930 0.609411 0.500000
O O2 0.243658 0.500000 0.406883
O O3 0.153449 0.616122 0.393225
O O4 0.292249 0.636581 0.362827
O O5 0.886956 0.075450 0.126366
O O6 0.000000 0.000000 0.079525
O O7 0.882611 0.000000 0.000000
O O8 0.866684 0.168812 0.761845
O O9 0.890910 0.221611 0.888990
O O10 0.000000 0.150124 0.821890
O O11 0.919111 0.500000 0.650518
O O12 0.901260 0.613401 0.736208
O O13 0.000000 0.620758 0.631097
O O14 0.750000 0.750000 0.720517
O O15 0.736489 0.891915 0.759824
O O16 0.750000 0.250000 0.098329
O O17 0.654833 0.140465 0.131728
O O18 0.661118 0.200493 0.000000
O O19 0.149721 0.500000 0.812054
#
# Coordination Sequence:
#
# PCOD9487262 Si02
#       7
#    16   8  16  16  16  16  16
#     4   9  19  34  55  83 112 145 181 222 277 335
#     4   9  20  36  54  82 113 139 180 237 295 343
#     4  11  22  37  58  82 110 147 189 237 288 332
#     4   8  15  28  49  77 108 142 180 223 266 315
#     4  11  20  37  57  80 110 145 189 229 273 334
#     4  11  22  38  55  77 112 148 187 233 284 339
#     4  10  19  34  55  80 110 149 190 229 275 329
#
# _framework density 17.813399
#
# number of rings (size 3 to 8) (size 9 to 14) (size 15 to 20)
#    0.000    2.077    3.077    1.846    2.154    2.462 
#    0.000    1.538    0.000    0.462    0.000    4.308 
#    0.000    0.000    0.000    0.000    0.000    0.000 
#
# Total GULP energy -290082.439706 kJ/mol
# GULP energy per Si atom -5578.508456 kJ/mol
# Density = 1.777286 g / cm^3
# Si number density = 17.813399 Si / 1000 Ang^3
#
#
#
# Elastic Constant Matrix: (Units=GPa)
#
#
# Indices 1 2 3 4 5 6 
#
# 1 45.5560 10.0250 25.6567 0.0000 0.0000 0.0000
# 2 10.0250 85.2428 59.9761 0.0000 0.0000 0.0000
# 3 25.6567 59.9761 140.0788 0.0000 0.0000 0.0000
# 4 0.0000 0.0000 0.0000 29.8175 0.0000 0.0000
# 5 0.0000 0.0000 0.0000 0.0000 12.3074 0.0000
# 6 0.0000 0.0000 0.0000 0.0000 0.0000 17.9385
#
#
#
# Elastic Compliance Matrix: (Units=1/GPa)
#
#
# Indices 1 2 3 4 5 6 
#
# 1 0.024485 0.000395 -0.004654 0.000000 0.000000 0.000000
# 2 0.000395 0.016795 -0.007263 0.000000 0.000000 0.000000
# 3 -0.004654 -0.007263 0.011101 0.000000 0.000000 0.000000
# 4 0.000000 0.000000 0.000000 0.033537 0.000000 0.000000
# 5 0.000000 0.000000 0.000000 0.000000 0.081252 0.000000
# 6 0.000000 0.000000 0.000000 0.000000 0.000000 0.055746
#
#
# Mechanical properties :
#
#
# Convention : Reuss Voigt Hill
#
# Bulk Modulus (GPa) = 34.08697 51.35481 42.72089
# Shear Modulus (GPa) = 19.55112 23.69400 21.62256
#
# Velocity S-wave (km/s) = 3.31653 3.65104 3.48780
# Velocity P-wave (km/s) = 5.81747 6.83121 6.34461
#
# Compressibility (1/GPa) = 0.02933673
#
# Stress axis : x y z
#
# Youngs Moduli (GPa) = 40.84129 59.54088 90.08157
#
# Poissons Ratio (x) = -0.02350 0.41921
# Poissons Ratio (y) = -0.01612 0.65429
# Poissons Ratio (z) = 0.19006 0.43246
#
# Static dielectric constant tensor:
#      x y z
#    x 1.623680 0.000000 0.000000 
#    y 0.000000 1.618440 0.000000 
#    z 0.000000 0.000000 1.609470 
# 
# From -- ./inp_files/54596.got.cif
#   From: 2010.05.17/outbox.cif.g08.bks.cpg/sg65_28_cif.got.tgz:54596.got - 2010.06.03 17:01:31.
