data_PCOD9487617
_publ_section_title
;
Structure prediction by ZEFSAII (Michael W. Deem and Ramdas Pophale) SiO2 
 PCOD9487617
Probable space group: C M M M
;
_chemical_formula_sum "Si O2"
_cell_formula_units_Z 88
_cell_length_a 17.613968
_cell_length_b 11.106079
_cell_length_c 21.797458
_cell_angle_alpha 90.000000
_cell_angle_beta 90.000000
_cell_angle_gamma 90.000000
_cell_volume 4264.064947
_symmetry_space_group_name_H-M "C M M M"
_symmetry_group_IT_number 65
_symmetry_cell_setting 'orthorhombic'
loop_
_space_group_symop_operation_xyz
x,y,z
-x,-y,z
x,-y,-z
-x,y,-z
-x,-y,-z
x,y,-z
-x,y,z
x,-y,z
1/2+x,1/2+y,z
1/2-x,1/2-y,z
1/2+x,1/2-y,-z
1/2-x,1/2+y,-z
1/2-x,1/2-y,-z
1/2+x,1/2+y,-z
1/2-x,1/2+y,z
1/2+x,1/2-y,z
loop_
_atom_site_type_symbol
_atom_site_label
_atom_site_fract_x
_atom_site_fract_y
_atom_site_fract_z
Si Si1 0.916995 0.141278 0.169427
Si Si2 0.160562 0.274911 0.072034
Si Si3 0.908806 0.500000 0.711853
Si Si4 0.591160 0.235502 0.368126
Si Si5 0.092368 0.500000 0.854552
Si Si6 0.407574 0.860503 0.500000
Si Si7 0.191675 0.859439 0.719270
O O1 0.886725 0.166606 0.101661
O O2 0.855073 0.176761 0.219489
O O3 0.000000 0.199240 0.179746
O O4 0.924501 0.000000 0.178216
O O5 0.250000 0.250000 0.080853
O O6 0.129328 0.386328 0.111320
O O7 0.147049 0.292765 0.000000
O O8 0.888715 0.618422 0.673197
O O9 0.885253 0.500000 0.782858
O O10 0.000000 0.500000 0.714101
O O11 0.500000 0.250502 0.366117
O O12 0.614880 0.205928 0.437549
O O13 0.633277 0.346868 0.337184
O O14 0.000000 0.500000 0.860236
O O15 0.500000 0.864212 0.500000
O O16 0.382268 0.000000 0.500000
O O17 0.250000 0.750000 0.710736
O O18 0.217969 0.000000 0.724154
#
# Coordination Sequence:
#
# PCOD9487617 Si02
#       7
#    16  16   8  16   8   8  16
#     4  10  22  42  67  94 124 161 208 262 325 393
#     4  11  25  42  62  90 129 172 215 264 326 391
#     4   9  18  32  60  96 126 160 211 268 321 382
#     4  10  19  35  62  96 131 171 218 266 322 388
#     4  11  23  40  64  94 128 169 223 282 330 386
#     4   9  16  30  56  95 138 173 213 269 324 383
#     4  11  25  43  65  93 130 170 214 272 333 394
#
# _framework density 20.637585000000001
#
# number of rings (size 3 to 8) (size 9 to 14) (size 15 to 20)
#    0.000    1.727    0.909    3.000    2.545    4.727 
#    1.636    1.818    0.000    1.636    0.000    0.000 
#    0.000    0.000    0.000    0.000    0.000    0.000 
#
# Total GULP energy -245691.713796 kJ/mol
# GULP energy per Si atom -5583.902586 kJ/mol
# Density = 2.059061 g / cm^3
# Si number density = 20.637585 Si / 1000 Ang^3
#
#
#
# Elastic Constant Matrix: (Units=GPa)
#
#
# Indices 1 2 3 4 5 6 
#
# 1 78.2417 39.1935 45.4906 0.0000 0.0000 0.0000
# 2 39.1935 72.6873 36.8029 0.0000 0.0000 0.0000
# 3 45.4906 36.8029 160.1590 0.0000 0.0000 0.0000
# 4 0.0000 0.0000 0.0000 14.7532 0.0000 0.0000
# 5 0.0000 0.0000 0.0000 0.0000 -57.4979 0.0000
# 6 0.0000 0.0000 0.0000 0.0000 0.0000 25.6113
#
#
#
# Elastic Compliance Matrix: (Units=1/GPa)
#
#
# Indices 1 2 3 4 5 6 
#
# 1 0.019062 -0.008529 -0.003454 0.000000 0.000000 0.000000
# 2 -0.008529 0.019385 -0.002032 0.000000 0.000000 0.000000
# 3 -0.003454 -0.002032 0.007692 0.000000 0.000000 0.000000
# 4 0.000000 0.000000 0.000000 0.067782 0.000000 0.000000
# 5 0.000000 0.000000 0.000000 0.000000 -0.017392 0.000000
# 6 0.000000 0.000000 0.000000 0.000000 0.000000 0.039045
#
#
# Mechanical properties :
#
#
# Convention : Reuss Voigt Hill
#
# Bulk Modulus (GPa) = 55.22406 61.56243 58.39324
# Shear Modulus (GPa) = 29.47396 9.21340 19.34368
#
# Velocity S-wave (km/s) = 3.78321 2.11520 3.06486
# Velocity P-wave (km/s) = 6.77500 5.98836 6.39379
#
# Compressibility (1/GPa) = 0.01810805
#
# Stress axis : x y z
#
# Youngs Moduli (GPa) = 52.46094 51.58516 130.00785
#
# Poissons Ratio (x) = 0.43999 0.44908
# Poissons Ratio (y) = 0.44745 0.26417
# Poissons Ratio (z) = 0.18121 0.10482
#
# Static dielectric constant tensor:
#      x y z
#    x 1.806840 0.000000 0.000000 
#    y 0.000000 1.812310 0.000000 
#    z 0.000000 0.000000 1.703330 
# 
# From -- ./inp_files/63663.got.cif
#   From: 2010.05.17/outbox.cif.g08.bks.cpg/sg65_32_cif.got.tgz:63663.got - 2010.06.03 17:01:31.
