data_PCOD9487149
_publ_section_title
;
Structure prediction by ZEFSAII (Michael W. Deem and Ramdas Pophale) SiO2 
 PCOD9487149
Probable space group: C M M M
;
_chemical_formula_sum "Si O2"
_cell_formula_units_Z 88
_cell_length_a 18.297703
_cell_length_b 13.929021
_cell_length_c 16.398890
_cell_angle_alpha 90.000000
_cell_angle_beta 90.000000
_cell_angle_gamma 90.000000
_cell_volume 4179.570160
_symmetry_space_group_name_H-M "C M M M"
_symmetry_group_IT_number 65
_symmetry_cell_setting 'orthorhombic'
loop_
_space_group_symop_operation_xyz
x,y,z
-x,-y,z
x,-y,-z
-x,y,-z
-x,-y,-z
x,y,-z
-x,y,z
x,-y,z
1/2+x,1/2+y,z
1/2-x,1/2-y,z
1/2+x,1/2-y,-z
1/2-x,1/2+y,-z
1/2-x,1/2-y,-z
1/2+x,1/2+y,-z
1/2-x,1/2+y,z
1/2+x,1/2-y,z
loop_
_atom_site_type_symbol
_atom_site_label
_atom_site_fract_x
_atom_site_fract_y
_atom_site_fract_z
Si Si1 0.344532 0.189878 0.844680
Si Si2 0.630374 0.602517 0.402362
Si Si3 0.298691 0.609479 0.906391
Si Si4 0.500000 0.115272 0.902854
Si Si5 0.577979 0.185992 0.403071
Si Si6 0.721263 0.147866 0.666875
O O1 0.337262 0.304673 0.856999
O O2 0.287188 0.137902 0.905027
O O3 0.426334 0.155796 0.861277
O O4 0.309001 0.161223 0.757988
O O5 0.647314 0.611103 0.500000
O O6 0.590296 0.500000 0.392875
O O7 0.591127 0.702033 0.377997
O O8 0.704550 0.593624 0.350146
O O9 0.307879 0.500000 0.876414
O O10 0.324315 0.613712 0.000000
O O11 0.500000 0.000000 0.896031
O O12 0.500000 0.139617 0.000000
O O13 0.574043 0.186957 0.500000
O O14 0.500000 0.153059 0.369062
O O15 0.647712 0.122973 0.380203
O O16 0.750000 0.250000 0.634200
#
# Coordination Sequence:
#
# PCOD9487149 Si02
#       6
#    16  16  16   8  16  16
#     4  11  21  37  57  86 117 148 186 235 286 338
#     4   9  18  32  52  78 107 140 182 230 275 326
#     4  10  20  37  62  87 111 145 190 233 278 338
#     4  11  24  40  59  83 114 152 189 232 285 343
#     4   9  18  32  52  75 103 141 181 218 263 327
#     4  10  19  34  52  78 106 144 180 225 277 328
#
# _framework density 21.054797000000001
#
# number of rings (size 3 to 8) (size 9 to 14) (size 15 to 20)
#    0.000    2.091    1.818    3.273    1.273    5.455 
#    0.000    2.273    0.000    1.636    0.000    2.545 
#    0.000    0.000    0.000    0.000    0.000    0.000 
#
# Total GULP energy -245039.921075 kJ/mol
# GULP energy per Si atom -5569.089115 kJ/mol
# Density = 2.100687 g / cm^3
# Si number density = 21.054797 Si / 1000 Ang^3
#
#
#
# Elastic Constant Matrix: (Units=GPa)
#
#
# Indices 1 2 3 4 5 6 
#
# 1 133.0505 6.4888 26.4512 0.0000 0.0000 0.0000
# 2 6.4888 90.6600 7.4839 0.0000 0.0000 0.0000
# 3 26.4512 7.4839 39.4821 0.0000 0.0000 0.0000
# 4 0.0000 0.0000 0.0000 -8.3348 0.0000 0.0000
# 5 0.0000 0.0000 0.0000 0.0000 80.2206 0.0000
# 6 0.0000 0.0000 0.0000 0.0000 0.0000 -170.2671
#
#
#
# Elastic Compliance Matrix: (Units=1/GPa)
#
#
# Indices 1 2 3 4 5 6 
#
# 1 0.008673 -0.000143 -0.005783 0.000000 0.000000 0.000000
# 2 -0.000143 0.011208 -0.002028 0.000000 0.000000 0.000000
# 3 -0.005783 -0.002028 0.029587 0.000000 0.000000 0.000000
# 4 0.000000 0.000000 0.000000 -0.119979 0.000000 0.000000
# 5 0.000000 0.000000 0.000000 0.000000 0.012466 0.000000
# 6 0.000000 0.000000 0.000000 0.000000 0.000000 -0.005873
#
#
# Mechanical properties :
#
#
# Convention : Reuss Voigt Hill
#
# Bulk Modulus (GPa) = 29.79948 38.22670 34.01309
# Shear Modulus (GPa) = -135.78465 -4.82501 -70.30483
#
# Velocity S-wave (km/s) = -8.03935 -1.51546 -5.78479
# Velocity P-wave (km/s) = 8.48474 3.89012 5.33187
#
# Compressibility (1/GPa) = 0.03355763
#
# Stress axis : x y z
#
# Youngs Moduli (GPa) = 115.30505 89.22257 33.79880
#
# Poissons Ratio (x) = 0.01279 0.19546
# Poissons Ratio (y) = 0.01653 0.06856
# Poissons Ratio (z) = 0.66682 0.18099
#
# Static dielectric constant tensor:
#      x y z
#    x 1.768030 0.000000 0.000000 
#    y 0.000000 1.825030 0.000000 
#    z 0.000000 0.000000 1.824190 
# 
# From -- ./inp_files/54343.got.cif
#   From: 2010.05.17/outbox.cif.g08.bks.cpg/sg65_28_cif.got.tgz:54343.got - 2010.06.03 17:01:31.
