data_PCOD9487591
_publ_section_title
;
Structure prediction by ZEFSAII (Michael W. Deem and Ramdas Pophale) SiO2 
 PCOD9487591
Probable space group: C M M M
;
_chemical_formula_sum "Si O2"
_cell_formula_units_Z 112
_cell_length_a 17.973029
_cell_length_b 22.579142
_cell_length_c 14.052815
_cell_angle_alpha 90.000000
_cell_angle_beta 90.000000
_cell_angle_gamma 90.000000
_cell_volume 5702.851185
_symmetry_space_group_name_H-M "C M M M"
_symmetry_group_IT_number 65
_symmetry_cell_setting 'orthorhombic'
loop_
_space_group_symop_operation_xyz
x,y,z
-x,-y,z
x,-y,-z
-x,y,-z
-x,-y,-z
x,y,-z
-x,y,z
x,-y,z
1/2+x,1/2+y,z
1/2-x,1/2-y,z
1/2+x,1/2-y,-z
1/2-x,1/2+y,-z
1/2-x,1/2-y,-z
1/2+x,1/2+y,-z
1/2-x,1/2+y,z
1/2+x,1/2-y,z
loop_
_atom_site_type_symbol
_atom_site_label
_atom_site_fract_x
_atom_site_fract_y
_atom_site_fract_z
Si Si1 0.587496 0.166974 0.746712
Si Si2 0.211236 0.070076 0.899460
Si Si3 0.650691 0.608873 0.395204
Si Si4 0.833062 0.751702 0.393068
Si Si5 0.704388 0.070737 0.708052
Si Si6 0.660669 0.253729 0.112304
Si Si7 0.087005 0.127838 0.195319
O O1 0.500000 0.159021 0.757515
O O2 0.608184 0.215560 0.666956
O O3 0.629092 0.107977 0.710489
O O4 0.623169 0.195419 0.841984
O O5 0.255869 0.089727 0.807038
O O6 0.125608 0.084769 0.880463
O O7 0.221602 0.000000 0.903301
O O8 0.235613 0.097121 0.000000
O O9 0.628116 0.585689 0.500000
O O10 0.647332 0.679831 0.400046
O O11 0.735315 0.588991 0.371870
O O12 0.603852 0.598355 0.298929
O O13 0.827387 0.726469 0.500000
O O14 0.750000 0.750000 0.349552
O O15 0.693886 0.000000 0.705692
O O16 0.750000 0.250000 0.120853
O O17 0.629057 0.309874 0.172609
O O18 0.642564 0.260728 0.000000
O O19 0.000000 0.136946 0.184457
#
# Coordination Sequence:
#
# PCOD9487591 Si02
#       7
#    16  16  16  16  16  16  16
#     4  12  24  37  57  88 124 157 193 241 300 363
#     4   9  19  37  60  83 108 148 203 251 289 339
#     4  10  20  36  62  87 113 153 200 243 288 343
#     4  10  19  35  60  85 111 147 193 242 287 339
#     4  10  22  40  61  85 116 155 205 254 290 341
#     4  11  23  39  59  82 114 158 202 246 298 356
#     4  11  22  35  54  86 125 154 185 237 303 367
#
# _framework density 19.639299999999999
#
# number of rings (size 3 to 8) (size 9 to 14) (size 15 to 20)
#    0.000    1.571    2.857    3.000    0.000    5.143 
#    0.000    2.143    0.000    0.000    0.000    9.000 
#    0.000    0.000    0.000    0.000    0.000    0.000 
#
# Total GULP energy -312318.665363 kJ/mol
# GULP energy per Si atom -5577.119024 kJ/mol
# Density = 1.959460 g / cm^3
# Si number density = 19.639300 Si / 1000 Ang^3
#
#
#
# Elastic Constant Matrix: (Units=GPa)
#
#
# Indices 1 2 3 4 5 6 
#
# 1 107.1368 24.5155 7.4023 0.0000 0.0000 0.0000
# 2 24.5155 58.0726 13.8334 0.0000 0.0000 0.0000
# 3 7.4023 13.8334 102.0944 0.0000 0.0000 0.0000
# 4 0.0000 0.0000 0.0000 28.5613 0.0000 0.0000
# 5 0.0000 0.0000 0.0000 0.0000 9.3519 0.0000
# 6 0.0000 0.0000 0.0000 0.0000 0.0000 12.9423
#
#
#
# Elastic Compliance Matrix: (Units=1/GPa)
#
#
# Indices 1 2 3 4 5 6 
#
# 1 0.010335 -0.004324 -0.000163 0.000000 0.000000 0.000000
# 2 -0.004324 0.019603 -0.002343 0.000000 0.000000 0.000000
# 3 -0.000163 -0.002343 0.010124 0.000000 0.000000 0.000000
# 4 0.000000 0.000000 0.000000 0.035012 0.000000 0.000000
# 5 0.000000 0.000000 0.000000 0.000000 0.106930 0.000000
# 6 0.000000 0.000000 0.000000 0.000000 0.000000 0.077266
#
#
# Mechanical properties :
#
#
# Convention : Reuss Voigt Hill
#
# Bulk Modulus (GPa) = 37.87593 39.86739 38.87166
# Shear Modulus (GPa) = 17.74742 24.94126 21.34434
#
# Velocity S-wave (km/s) = 3.00937 3.56753 3.30027
# Velocity P-wave (km/s) = 5.60381 6.10848 5.86158
#
# Compressibility (1/GPa) = 0.02640199
#
# Stress axis : x y z
#
# Youngs Moduli (GPa) = 96.76281 51.01216 98.77397
#
# Poissons Ratio (x) = 0.22057 0.01614
# Poissons Ratio (y) = 0.41839 0.23139
# Poissons Ratio (z) = 0.01582 0.11950
#
# Static dielectric constant tensor:
#      x y z
#    x 1.668810 0.000000 0.000000 
#    y 0.000000 1.709130 0.000000 
#    z 0.000000 0.000000 1.774240 
# 
# From -- ./inp_files/40775.got.cif
#   From: 2010.05.17/outbox.cif.g08.bks.cpg/sg65_21_cif.got.tgz:40775.got - 2010.06.03 17:01:31.
