data_PCOD9487833
_publ_section_title
;
Structure prediction by ZEFSAII (Michael W. Deem and Ramdas Pophale) SiO2 
 PCOD9487833
Probable space group: C M M M
;
_chemical_formula_sum "Si O2"
_cell_formula_units_Z 80
_cell_length_a 29.953644
_cell_length_b 21.609894
_cell_length_c 7.427954
_cell_angle_alpha 90.000000
_cell_angle_beta 90.000000
_cell_angle_gamma 90.000000
_cell_volume 4808.078017
_symmetry_space_group_name_H-M "C M M M"
_symmetry_group_IT_number 65
_symmetry_cell_setting 'orthorhombic'
loop_
_space_group_symop_operation_xyz
x,y,z
-x,-y,z
x,-y,-z
-x,y,-z
-x,-y,-z
x,y,-z
-x,y,z
x,-y,z
1/2+x,1/2+y,z
1/2-x,1/2-y,z
1/2+x,1/2-y,-z
1/2-x,1/2+y,-z
1/2-x,1/2-y,-z
1/2+x,1/2+y,-z
1/2-x,1/2+y,z
1/2+x,1/2-y,z
loop_
_atom_site_type_symbol
_atom_site_label
_atom_site_fract_x
_atom_site_fract_y
_atom_site_fract_z
Si Si1 0.350591 0.907162 0.207911
Si Si2 0.249913 0.932578 0.780644
Si Si3 0.551157 0.207815 0.500000
Si Si4 0.923373 0.433553 0.500000
Si Si5 0.212988 0.199166 0.219964
Si Si6 0.875854 0.735256 0.791061
O O1 0.301937 0.927779 0.271079
O O2 0.390444 0.931289 0.329004
O O3 0.353250 0.832731 0.216655
O O4 0.355973 0.925322 0.000000
O O5 0.225794 0.869910 0.721015
O O6 0.232301 0.000000 0.724193
O O7 0.249236 0.931212 0.000000
O O8 0.500000 0.228467 0.500000
O O9 0.551731 0.132320 0.500000
O O10 0.580149 0.230935 0.329855
O O11 0.947365 0.500000 0.500000
O O12 0.250000 0.250000 0.277055
O O13 0.163145 0.218983 0.273429
O O14 0.213527 0.200426 0.000000
O O15 0.886550 0.748048 0.000000
#
# Coordination Sequence:
#
# PCOD9487833 Si02
#       6
#    16  16   8   8  16  16
#     4   9  16  28  44  63  90 123 158 192 221 257
#     4   9  15  22  37  63  95 130 161 188 221 259
#     4  10  22  37  50  68  90 111 150 205 249 282
#     4  10  20  31  45  65  86 115 154 191 236 285
#     4   9  14  24  43  66  95 129 159 188 223 270
#     4   9  17  31  51  70  90 121 157 191 231 277
#
# _framework density 16.638666000000001
#
# number of rings (size 3 to 8) (size 9 to 14) (size 15 to 20)
#    0.000    2.800    2.000    0.600    0.000    1.800 
#    0.000    1.500    0.000    0.000    0.000    5.600 
#    0.000    1.600    0.000    7.800    0.000    0.000 
#
# Total GULP energy -223025.800125 kJ/mol
# GULP energy per Si atom -5575.645003 kJ/mol
# Density = 1.660080 g / cm^3
# Si number density = 16.638666 Si / 1000 Ang^3
#
#
#
# Elastic Constant Matrix: (Units=GPa)
#
#
# Indices 1 2 3 4 5 6 
#
# 1 115.0118 58.8475 35.7282 0.0000 0.0000 0.0000
# 2 58.8475 105.8727 20.8498 0.0000 0.0000 0.0000
# 3 35.7282 20.8498 67.3191 0.0000 0.0000 0.0000
# 4 0.0000 0.0000 0.0000 0.8712 0.0000 0.0000
# 5 0.0000 0.0000 0.0000 0.0000 12.6068 0.0000
# 6 0.0000 0.0000 0.0000 0.0000 0.0000 -1.1512
#
#
#
# Elastic Compliance Matrix: (Units=1/GPa)
#
#
# Indices 1 2 3 4 5 6 
#
# 1 0.013683 -0.006576 -0.005225 0.000000 0.000000 0.000000
# 2 -0.006576 0.013220 -0.000604 0.000000 0.000000 0.000000
# 3 -0.005225 -0.000604 0.017815 0.000000 0.000000 0.000000
# 4 0.000000 0.000000 0.000000 1.147815 0.000000 0.000000
# 5 0.000000 0.000000 0.000000 0.000000 0.079322 0.000000
# 6 0.000000 0.000000 0.000000 0.000000 0.000000 -0.868639
#
#
# Mechanical properties :
#
#
# Convention : Reuss Voigt Hill
#
# Bulk Modulus (GPa) = 50.23542 57.67273 53.95407
# Shear Modulus (GPa) = 11.50320 13.98389 12.74355
#
# Velocity S-wave (km/s) = 2.63221 2.90219 2.77049
# Velocity P-wave (km/s) = 6.28455 6.77993 6.53693
#
# Compressibility (1/GPa) = 0.01990627
#
# Stress axis : x y z
#
# Youngs Moduli (GPa) = 73.08444 75.64517 56.13305
#
# Poissons Ratio (x) = 0.49747 0.29330
# Poissons Ratio (y) = 0.48063 0.03391
# Poissons Ratio (z) = 0.38187 0.04569
#
# Static dielectric constant tensor:
#      x y z
#    x 1.513920 0.000000 0.000000 
#    y 0.000000 1.594850 0.000000 
#    z 0.000000 0.000000 1.613910 
# 
# From -- ./inp_files/11595.got.cif
#   From: 2010.05.17/outbox.cif.g08.bks.cpg/sg65_6_cif.got.tgz:11595.got - 2010.06.03 17:01:31.
