data_PCOD9487534
_publ_section_title
;
Structure prediction by ZEFSAII (Michael W. Deem and Ramdas Pophale) SiO2 
 PCOD9487534
Probable space group: C M M M
;
_chemical_formula_sum "Si O2"
_cell_formula_units_Z 88
_cell_length_a 29.043268
_cell_length_b 18.995058
_cell_length_c 7.692965
_cell_angle_alpha 90.000000
_cell_angle_beta 90.000000
_cell_angle_gamma 90.000000
_cell_volume 4244.043855
_symmetry_space_group_name_H-M "C M M M"
_symmetry_group_IT_number 65
_symmetry_cell_setting 'orthorhombic'
loop_
_space_group_symop_operation_xyz
x,y,z
-x,-y,z
x,-y,-z
-x,y,-z
-x,-y,-z
x,y,-z
-x,y,z
x,-y,z
1/2+x,1/2+y,z
1/2-x,1/2-y,z
1/2+x,1/2-y,-z
1/2-x,1/2+y,-z
1/2-x,1/2-y,-z
1/2+x,1/2+y,-z
1/2-x,1/2+y,z
1/2+x,1/2-y,z
loop_
_atom_site_type_symbol
_atom_site_label
_atom_site_fract_x
_atom_site_fract_y
_atom_site_fract_z
Si Si1 0.221010 0.182077 0.710006
Si Si2 0.104851 0.360054 0.299483
Si Si3 0.617957 0.292604 0.292945
Si Si4 0.299792 0.080139 0.205170
Si Si5 0.552887 0.421853 0.209791
Si Si6 0.946128 0.500000 0.287299
O O1 0.220275 0.181956 0.500000
O O2 0.250000 0.250000 0.768104
O O3 0.168869 0.188612 0.774895
O O4 0.250213 0.114591 0.765700
O O5 0.089196 0.356580 0.500000
O O6 0.099259 0.282034 0.221441
O O7 0.159459 0.375943 0.293684
O O8 0.079149 0.428666 0.224201
O O9 0.623249 0.281506 0.500000
O O10 0.584391 0.357830 0.266651
O O11 0.301377 0.000000 0.268672
O O12 0.309585 0.080725 0.000000
O O13 0.500000 0.412442 0.267228
O O14 0.568446 0.500000 0.267676
O O15 0.552805 0.422368 0.000000
O O16 0.942528 0.500000 0.500000
O O17 0.000000 0.500000 0.242661
#
# Coordination Sequence:
#
# PCOD9487534 Si02
#       6
#    16  16  16  16  16   8
#     4  10  20  37  57  79 111 147 186 228 276 330
#     4  10  19  35  58  80 109 150 190 232 283 335
#     4  10  21  35  57  89 116 143 186 238 286 333
#     4  11  23  36  53  80 112 147 191 232 271 328
#     4   9  20  40  62  82 110 151 191 226 276 344
#     4   9  18  32  55  85 111 143 191 239 282 333
#
# _framework density 20.734940999999999
#
# number of rings (size 3 to 8) (size 9 to 14) (size 15 to 20)
#    0.000    2.091    2.727    1.091    0.000    5.091 
#    0.000    6.364    0.000    1.091    0.000    0.000 
#    0.000    0.000    0.000    0.000    0.000    0.000 
#
# Total GULP energy -245634.882540 kJ/mol
# GULP energy per Si atom -5582.610967 kJ/mol
# Density = 2.068775 g / cm^3
# Si number density = 20.734941 Si / 1000 Ang^3
#
#
#
# Elastic Constant Matrix: (Units=GPa)
#
#
# Indices 1 2 3 4 5 6 
#
# 1 106.2111 81.6077 -3.6512 0.0000 0.0000 0.0000
# 2 81.6077 186.5125 -1.3676 0.0000 0.0000 0.0000
# 3 -3.6512 -1.3676 35.4619 0.0000 0.0000 0.0000
# 4 0.0000 0.0000 0.0000 30.9453 0.0000 0.0000
# 5 0.0000 0.0000 0.0000 0.0000 10.2320 0.0000
# 6 0.0000 0.0000 0.0000 0.0000 0.0000 36.8249
#
#
#
# Elastic Compliance Matrix: (Units=1/GPa)
#
#
# Indices 1 2 3 4 5 6 
#
# 1 0.014237 -0.006220 0.001226 0.000000 0.000000 0.000000
# 2 -0.006220 0.008081 -0.000329 0.000000 0.000000 0.000000
# 3 0.001226 -0.000329 0.028313 0.000000 0.000000 0.000000
# 4 0.000000 0.000000 0.000000 0.032315 0.000000 0.000000
# 5 0.000000 0.000000 0.000000 0.000000 0.097732 0.000000
# 6 0.000000 0.000000 0.000000 0.000000 0.000000 0.027156
#
#
# Mechanical properties :
#
#
# Convention : Reuss Voigt Hill
#
# Bulk Modulus (GPa) = 25.00988 53.48482 39.24735
# Shear Modulus (GPa) = 21.56961 32.37354 26.97158
#
# Velocity S-wave (km/s) = 3.22880 3.95562 3.61054
# Velocity P-wave (km/s) = 5.09785 6.83470 6.02914
#
# Compressibility (1/GPa) = 0.03998419
#
# Stress axis : x y z
#
# Youngs Moduli (GPa) = 70.24117 123.75046 35.31964
#
# Poissons Ratio (x) = 0.76975 -0.04330
# Poissons Ratio (y) = 0.43691 0.01161
# Poissons Ratio (z) = -0.08611 0.04069
#
# Static dielectric constant tensor:
#      x y z
#    x 1.705060 0.000000 0.000000 
#    y 0.000000 1.753290 0.000000 
#    z 0.000000 0.000000 1.785090 
# 
# From -- ./inp_files/10090.got.cif
#   From: 2010.05.17/outbox.cif.g08.bks.cpg/sg65_6_cif.got.tgz:10090.got - 2010.06.03 17:01:31.
