data_PCOD9487411
_publ_section_title
;
Structure prediction by ZEFSAII (Michael W. Deem and Ramdas Pophale) SiO2 
 PCOD9487411
Probable space group: C M M M
;
_chemical_formula_sum "Si O2"
_cell_formula_units_Z 64
_cell_length_a 15.704985
_cell_length_b 8.701550
_cell_length_c 23.774250
_cell_angle_alpha 90.000000
_cell_angle_beta 90.000000
_cell_angle_gamma 90.000000
_cell_volume 3248.934615
_symmetry_space_group_name_H-M "C M M M"
_symmetry_group_IT_number 65
_symmetry_cell_setting 'orthorhombic'
loop_
_space_group_symop_operation_xyz
x,y,z
-x,-y,z
x,-y,-z
-x,y,-z
-x,-y,-z
x,y,-z
-x,y,z
x,-y,z
1/2+x,1/2+y,z
1/2-x,1/2-y,z
1/2+x,1/2-y,-z
1/2-x,1/2+y,-z
1/2-x,1/2-y,-z
1/2+x,1/2+y,-z
1/2-x,1/2+y,z
1/2+x,1/2-y,z
loop_
_atom_site_type_symbol
_atom_site_label
_atom_site_fract_x
_atom_site_fract_y
_atom_site_fract_z
Si Si1 0.900204 0.831707 0.000000
Si Si2 0.500000 0.312863 0.435586
Si Si3 0.153441 0.314934 0.237546
Si Si4 0.346086 0.684716 0.355071
Si Si5 0.655412 0.183377 0.115852
O O1 0.880396 0.745784 0.057730
O O2 0.000000 0.850921 0.000000
O O3 0.856805 0.000000 0.000000
O O4 0.500000 0.500000 0.435848
O O5 0.500000 0.259763 0.500000
O O6 0.585798 0.267263 0.402369
O O7 0.154975 0.500000 0.242403
O O8 0.250000 0.250000 0.236016
O O9 0.118551 0.243112 0.294766
O O10 0.114066 0.274539 0.176464
O O11 0.340143 0.500000 0.353861
O O12 0.250000 0.750000 0.363225
O O13 0.750000 0.250000 0.118166
O O14 0.657033 0.000000 0.113587
#
# Coordination Sequence:
#
# PCOD9487411 Si02
#       5
#     8   8  16  16  16
#     4  11  24  39  52  71 103 141 180 225 272 323
#     4   9  20  38  57  81 115 154 193 228 271 335
#     4   9  17  31  53  81 109 138 174 220 271 324
#     4  10  19  34  58  84 113 149 188 232 281 331
#     4  10  20  35  57  80 104 137 177 221 271 328
#
# _framework density 19.698763
#
# number of rings (size 3 to 8) (size 9 to 14) (size 15 to 20)
#    0.000    2.250    0.000    4.500    0.000    4.500 
#    2.250    2.500    0.000    5.250    0.000    0.000 
#    0.000    0.000    0.000    0.000    0.000    0.000 
#
# Total GULP energy -178337.607035 kJ/mol
# GULP energy per Si atom -5573.050220 kJ/mol
# Density = 1.965393 g / cm^3
# Si number density = 19.698763 Si / 1000 Ang^3
#
#
#
# Elastic Constant Matrix: (Units=GPa)
#
#
# Indices 1 2 3 4 5 6 
#
# 1 71.5830 23.4801 75.5957 0.0000 0.0000 0.0000
# 2 23.4801 75.7980 61.4846 0.0000 0.0000 0.0000
# 3 75.5957 61.4846 239.1323 0.0000 0.0000 0.0000
# 4 0.0000 0.0000 0.0000 28.3108 0.0000 0.0000
# 5 0.0000 0.0000 0.0000 0.0000 69.1391 0.0000
# 6 0.0000 0.0000 0.0000 0.0000 0.0000 14.0824
#
#
#
# Elastic Compliance Matrix: (Units=1/GPa)
#
#
# Indices 1 2 3 4 5 6 
#
# 1 0.021091 -0.001422 -0.006302 0.000000 0.000000 0.000000
# 2 -0.001422 0.016765 -0.003861 0.000000 0.000000 0.000000
# 3 -0.006302 -0.003861 0.007167 0.000000 0.000000 0.000000
# 4 0.000000 0.000000 0.000000 0.035322 0.000000 0.000000
# 5 0.000000 0.000000 0.000000 0.000000 0.014464 0.000000
# 6 0.000000 0.000000 0.000000 0.000000 0.000000 0.071011
#
#
# Mechanical properties :
#
#
# Convention : Reuss Voigt Hill
#
# Bulk Modulus (GPa) = 45.75834 78.62600 62.19217
# Shear Modulus (GPa) = 25.47453 37.36997 31.42225
#
# Velocity S-wave (km/s) = 3.60002 4.36026 3.99825
# Velocity P-wave (km/s) = 6.36864 8.08394 7.27701
#
# Compressibility (1/GPa) = 0.02185394
#
# Stress axis : x y z
#
# Youngs Moduli (GPa) = 47.41284 59.64658 139.53240
#
# Poissons Ratio (x) = 0.08479 0.87933
# Poissons Ratio (y) = 0.06740 0.53877
# Poissons Ratio (z) = 0.29880 0.23031
#
# Static dielectric constant tensor:
#      x y z
#    x 1.717540 0.000000 0.000000 
#    y 0.000000 1.736820 0.000000 
#    z 0.000000 0.000000 1.772310 
# 
# From -- ./inp_files/66827.got.cif
#   From: 2010.05.17/outbox.cif.g08.bks.cpg/sg65_34_cif.got.tgz:66827.got - 2010.06.03 17:01:31.
