data_PCOD9487886
_publ_section_title
;
Structure prediction by ZEFSAII (Michael W. Deem and Ramdas Pophale) SiO2 
 PCOD9487886
Probable space group: C M M M
;
_chemical_formula_sum "Si O2"
_cell_formula_units_Z 72
_cell_length_a 15.185572
_cell_length_b 9.169660
_cell_length_c 25.793567
_cell_angle_alpha 90.000000
_cell_angle_beta 90.000000
_cell_angle_gamma 90.000000
_cell_volume 3591.664756
_symmetry_space_group_name_H-M "C M M M"
_symmetry_group_IT_number 65
_symmetry_cell_setting 'orthorhombic'
loop_
_space_group_symop_operation_xyz
x,y,z
-x,-y,z
x,-y,-z
-x,y,-z
-x,-y,-z
x,y,-z
-x,y,z
x,-y,z
1/2+x,1/2+y,z
1/2-x,1/2-y,z
1/2+x,1/2-y,-z
1/2-x,1/2+y,-z
1/2-x,1/2-y,-z
1/2+x,1/2+y,-z
1/2-x,1/2+y,z
1/2+x,1/2-y,z
loop_
_atom_site_type_symbol
_atom_site_label
_atom_site_fract_x
_atom_site_fract_y
_atom_site_fract_z
Si Si1 0.396376 0.338587 0.842827
Si Si2 0.653767 0.174950 0.375259
Si Si3 0.344158 0.827164 0.258415
Si Si4 0.107684 0.330834 0.942693
Si Si5 0.500000 0.327694 0.437982
O O1 0.500000 0.353951 0.852844
O O2 0.357858 0.500000 0.834692
O O3 0.389517 0.243452 0.791107
O O4 0.359254 0.260889 0.893926
O O5 0.750000 0.250000 0.379482
O O6 0.618636 0.197890 0.316204
O O7 0.585523 0.249022 0.414151
O O8 0.661154 0.000000 0.383206
O O9 0.250000 0.750000 0.259628
O O10 0.337081 0.000000 0.251370
O O11 0.133545 0.500000 0.937485
O O12 0.000000 0.329330 0.941916
O O13 0.134123 0.277116 0.000000
O O14 0.500000 0.500000 0.424575
O O15 0.500000 0.314895 0.500000
#
# Coordination Sequence:
#
# PCOD9487886 Si02
#       5
#    16  16  16  16   8
#     4  10  20  31  47  76 108 140 179 224 276 331
#     4  10  22  41  65  93 124 163 207 253 306 361
#     4  10  21  37  57  80 109 144 184 228 280 339
#     4   8  14  26  44  66  95 133 176 223 275 329
#     4  11  25  43  65  95 129 167 208 251 300 353
#
# _framework density 20.046415
#
# number of rings (size 3 to 8) (size 9 to 14) (size 15 to 20)
#    0.000    2.333    0.000    3.000    1.556    5.778 
#    0.000    2.222    0.000    0.667    0.000    0.000 
#    0.000    0.000    0.000    0.000    0.000    0.000 
#
# Total GULP energy -200857.315085 kJ/mol
# GULP energy per Si atom -5579.369863 kJ/mol
# Density = 2.000079 g / cm^3
# Si number density = 20.046415 Si / 1000 Ang^3
#
#
#
# Elastic Constant Matrix: (Units=GPa)
#
#
# Indices 1 2 3 4 5 6 
#
# 1 58.6221 36.1699 45.6751 0.0000 0.0000 0.0000
# 2 36.1699 144.7582 102.8956 0.0000 0.0000 0.0000
# 3 45.6751 102.8956 151.7429 0.0000 0.0000 0.0000
# 4 0.0000 0.0000 0.0000 33.1616 0.0000 0.0000
# 5 0.0000 0.0000 0.0000 0.0000 1046.4448 0.0000
# 6 0.0000 0.0000 0.0000 0.0000 0.0000 22.9305
#
#
#
# Elastic Compliance Matrix: (Units=1/GPa)
#
#
# Indices 1 2 3 4 5 6 
#
# 1 0.022465 -0.001557 -0.005706 0.000000 0.000000 0.000000
# 2 -0.001557 0.013444 -0.008647 0.000000 0.000000 0.000000
# 3 -0.005706 -0.008647 0.014171 0.000000 0.000000 0.000000
# 4 0.000000 0.000000 0.000000 0.030155 0.000000 0.000000
# 5 0.000000 0.000000 0.000000 0.000000 0.000956 0.000000
# 6 0.000000 0.000000 0.000000 0.000000 0.000000 0.043610
#
#
# Mechanical properties :
#
#
# Convention : Reuss Voigt Hill
#
# Bulk Modulus (GPa) = 54.76817 80.51161 67.63989
# Shear Modulus (GPa) = 30.72963 231.86621 131.29792
#
# Velocity S-wave (km/s) = 3.91951 10.76642 8.10180
# Velocity P-wave (km/s) = 6.91833 13.95723 11.01516
#
# Compressibility (1/GPa) = 0.01825878
#
# Stress axis : x y z
#
# Youngs Moduli (GPa) = 44.51340 74.38341 70.56466
#
# Poissons Ratio (x) = 0.11584 0.40265
# Poissons Ratio (y) = 0.06932 0.61020
# Poissons Ratio (z) = 0.25400 0.64322
#
# Static dielectric constant tensor:
#      x y z
#    x 1.719010 0.000000 0.000000 
#    y 0.000000 1.693870 0.000000 
#    z 0.000000 0.000000 1.718580 
# 
# From -- ./inp_files/67058.got.cif
#   From: 2010.05.17/outbox.cif.g08.bks.cpg/sg65_34_cif.got.tgz:67058.got - 2010.06.03 17:01:31.
