data_PCOD9487512
_publ_section_title
;
Structure prediction by ZEFSAII (Michael W. Deem and Ramdas Pophale) SiO2 
 PCOD9487512
Probable space group: C M M M
;
_chemical_formula_sum "Si O2"
_cell_formula_units_Z 128
_cell_length_a 14.717025
_cell_length_b 20.153528
_cell_length_c 21.008645
_cell_angle_alpha 90.000000
_cell_angle_beta 90.000000
_cell_angle_gamma 90.000000
_cell_volume 6231.163590
_symmetry_space_group_name_H-M "C M M M"
_symmetry_group_IT_number 65
_symmetry_cell_setting 'orthorhombic'
loop_
_space_group_symop_operation_xyz
x,y,z
-x,-y,z
x,-y,-z
-x,y,-z
-x,-y,-z
x,y,-z
-x,y,z
x,-y,z
1/2+x,1/2+y,z
1/2-x,1/2-y,z
1/2+x,1/2-y,-z
1/2-x,1/2+y,-z
1/2-x,1/2-y,-z
1/2+x,1/2+y,-z
1/2-x,1/2+y,z
1/2+x,1/2-y,z
loop_
_atom_site_type_symbol
_atom_site_label
_atom_site_fract_x
_atom_site_fract_y
_atom_site_fract_z
Si Si1 0.889835 0.571768 0.609426
Si Si2 0.107067 0.234971 0.702786
Si Si3 0.138478 0.924205 0.928906
Si Si4 0.395032 0.785092 0.931139
Si Si5 0.607283 0.113613 0.750657
Si Si6 0.611445 0.217840 0.569614
Si Si7 0.605985 0.313739 0.828140
Si Si8 0.154727 0.426300 0.112142
O O1 0.857732 0.500000 0.585071
O O2 0.869333 0.577850 0.684658
O O3 0.859839 0.640686 0.577813
O O4 0.000000 0.571902 0.604097
O O5 0.114864 0.308135 0.734701
O O6 0.144067 0.241282 0.631268
O O7 0.146675 0.186416 0.756991
O O8 0.000000 0.220055 0.693304
O O9 0.107449 0.879105 0.870743
O O10 0.247121 0.925609 0.920826
O O11 0.106494 0.000000 0.924130
O O12 0.114865 0.898955 0.000000
O O13 0.500000 0.763490 0.934572
O O14 0.353527 0.743204 0.873645
O O15 0.395143 0.862874 0.916324
O O16 0.352676 0.772961 0.000000
O O17 0.500000 0.101276 0.764542
O O18 0.660708 0.088880 0.812296
O O19 0.637966 0.242885 0.500000
O O20 0.500000 0.217059 0.571936
O O21 0.500000 0.296392 0.817497
O O22 0.115331 0.500000 0.103257
#
# Coordination Sequence:
#
# PCOD9487512 Si02
#       8
#    16  16  16  16  16  16  16  16
#     4   8  13  19  29  49  79 118 165 206 231 254
#     4   8  14  26  44  65  91 118 150 193 231 266
#     4  10  23  40  53  69  94 120 148 188 246 307
#     4  10  20  32  47  69  93 120 159 198 230 271
#     4   9  15  26  42  62  89 124 165 203 233 262
#     4   8  13  20  32  54  88 126 153 178 222 275
#     4  10  19  35  57  74  89 114 151 197 243 284
#     4  11  21  32  46  64  94 131 161 192 232 276
#
# _framework density 20.541909
#
# number of rings (size 3 to 8) (size 9 to 14) (size 15 to 20)
#    0.000    2.750    1.250    3.000    0.000    4.000 
#    0.000    3.750    0.000    0.000    0.000    0.000 
#    0.000    8.500    0.000   16.125    0.000    8.500 
#
# Total GULP energy -356753.406296 kJ/mol
# GULP energy per Si atom -5574.271973 kJ/mol
# Density = 2.049516 g / cm^3
# Si number density = 20.541909 Si / 1000 Ang^3
#
#
#
# Elastic Constant Matrix: (Units=GPa)
#
#
# Indices 1 2 3 4 5 6 
#
# 1 42.6864 -5.5223 7.7320 0.0000 0.0000 0.0000
# 2 -5.5223 60.7611 50.3584 0.0000 0.0000 0.0000
# 3 7.7320 50.3584 188.1661 0.0000 0.0000 0.0000
# 4 0.0000 0.0000 0.0000 15.8636 0.0000 0.0000
# 5 0.0000 0.0000 0.0000 0.0000 0.8106 0.0000
# 6 0.0000 0.0000 0.0000 0.0000 0.0000 15.4165
#
#
#
# Elastic Compliance Matrix: (Units=1/GPa)
#
#
# Indices 1 2 3 4 5 6 
#
# 1 0.024301 0.003902 -0.002043 0.000000 0.000000 0.000000
# 2 0.003902 0.021775 -0.005988 0.000000 0.000000 0.000000
# 3 -0.002043 -0.005988 0.007001 0.000000 0.000000 0.000000
# 4 0.000000 0.000000 0.000000 0.063038 0.000000 0.000000
# 5 0.000000 0.000000 0.000000 0.000000 1.233606 0.000000
# 6 0.000000 0.000000 0.000000 0.000000 0.000000 0.064866
#
#
# Mechanical properties :
#
#
# Convention : Reuss Voigt Hill
#
# Bulk Modulus (GPa) = 22.31168 44.08331 33.19749
# Shear Modulus (GPa) = 3.47757 22.35451 12.91604
#
# Velocity S-wave (km/s) = 1.30253 3.30243 2.51024
# Velocity P-wave (km/s) = 3.62591 6.00401 4.95961
#
# Compressibility (1/GPa) = 0.04481957
#
# Stress axis : x y z
#
# Youngs Moduli (GPa) = 41.14979 45.92359 142.83791
#
# Poissons Ratio (x) = -0.17918 0.29179
# Poissons Ratio (y) = -0.16055 0.85531
# Poissons Ratio (z) = 0.08406 0.27499
#
# Static dielectric constant tensor:
#      x y z
#    x 1.754940 0.000000 0.000000 
#    y 0.000000 1.744730 0.000000 
#    z 0.000000 0.000000 1.791120 
# 
# From -- ./inp_files/64120.got.cif
#   From: 2010.05.17/outbox.cif.g08.bks.cpg/sg65_33_cif.got.tgz:64120.got - 2010.06.03 17:01:31.
