data_PCOD9487807
_publ_section_title
;
Structure prediction by ZEFSAII (Michael W. Deem and Ramdas Pophale) SiO2 
 PCOD9487807
Probable space group: C M M M
;
_chemical_formula_sum "Si O2"
_cell_formula_units_Z 72
_cell_length_a 13.834358
_cell_length_b 30.872780
_cell_length_c 7.324161
_cell_angle_alpha 90.000000
_cell_angle_beta 90.000000
_cell_angle_gamma 90.000000
_cell_volume 3128.186450
_symmetry_space_group_name_H-M "C M M M"
_symmetry_group_IT_number 65
_symmetry_cell_setting 'orthorhombic'
loop_
_space_group_symop_operation_xyz
x,y,z
-x,-y,z
x,-y,-z
-x,y,-z
-x,-y,-z
x,y,-z
-x,y,z
x,-y,z
1/2+x,1/2+y,z
1/2-x,1/2-y,z
1/2+x,1/2-y,-z
1/2-x,1/2+y,-z
1/2-x,1/2-y,-z
1/2+x,1/2+y,-z
1/2-x,1/2+y,z
1/2+x,1/2-y,z
loop_
_atom_site_type_symbol
_atom_site_label
_atom_site_fract_x
_atom_site_fract_y
_atom_site_fract_z
Si Si1 0.500000 0.447811 0.281435
Si Si2 0.792903 0.949311 0.277374
Si Si3 0.391823 0.285242 0.778066
Si Si4 0.395320 0.902172 0.288369
Si Si5 0.317162 0.809755 0.779784
O O1 0.500000 0.500000 0.251466
O O2 0.500000 0.441750 0.500000
O O3 0.396818 0.431417 0.212998
O O4 0.794578 0.946882 0.500000
O O5 0.699284 0.924609 0.208539
O O6 0.786580 0.000000 0.230956
O O7 0.500000 0.297572 0.716424
O O8 0.366420 0.235581 0.725721
O O9 0.295565 0.311184 0.719723
O O10 0.393180 0.286658 0.000000
O O11 0.398783 0.915803 0.500000
O O12 0.500000 0.912257 0.207476
O O13 0.376123 0.851038 0.282996
O O14 0.316989 0.809938 0.000000
#
# Coordination Sequence:
#
# PCOD9487807 Si02
#       5
#     8  16  16  16  16
#     4   7  10  20  40  62  81 105 143 187 221 251
#     4   8  14  26  44  64  86 116 153 187 220 262
#     4   8  14  27  48  70  89 113 151 193 224 257
#     4  10  20  31  43  65  97 124 147 184 231 271
#     4   9  17  30  49  69  88 117 155 188 220 265
#
# _framework density 23.016531000000001
#
# number of rings (size 3 to 8) (size 9 to 14) (size 15 to 20)
#    0.000    3.444    0.000    3.333    0.000    1.778 
#    2.000    4.444    0.000    2.000    0.000    1.556 
#    0.000    2.667    0.000    0.000    0.000    0.000 
#
# Total GULP energy -200839.145898 kJ/mol
# GULP energy per Si atom -5578.865164 kJ/mol
# Density = 2.296414 g / cm^3
# Si number density = 23.016531 Si / 1000 Ang^3
#
#
#
# Elastic Constant Matrix: (Units=GPa)
#
#
# Indices 1 2 3 4 5 6 
#
# 1 247.9688 38.6528 13.8961 0.0000 0.0000 0.0000
# 2 38.6528 16.3531 -6.0816 0.0000 0.0000 0.0000
# 3 13.8961 -6.0816 90.1208 0.0000 0.0000 0.0000
# 4 0.0000 0.0000 0.0000 10.2891 0.0000 0.0000
# 5 0.0000 0.0000 0.0000 0.0000 -9.7048 0.0000
# 6 0.0000 0.0000 0.0000 0.0000 0.0000 22.6105
#
#
#
# Elastic Compliance Matrix: (Units=1/GPa)
#
#
# Indices 1 2 3 4 5 6 
#
# 1 0.006779 -0.016835 -0.002181 0.000000 0.000000 0.000000
# 2 -0.016835 0.104531 0.009650 0.000000 0.000000 0.000000
# 3 -0.002181 0.009650 0.012084 0.000000 0.000000 0.000000
# 4 0.000000 0.000000 0.000000 0.097191 0.000000 0.000000
# 5 0.000000 0.000000 0.000000 0.000000 -0.103042 0.000000
# 6 0.000000 0.000000 0.000000 0.000000 0.000000 0.044227
#
#
# Mechanical properties :
#
#
# Convention : Reuss Voigt Hill
#
# Bulk Modulus (GPa) = 9.55465 49.70858 29.63161
# Shear Modulus (GPa) = 23.21381 25.17065 24.19223
#
# Velocity S-wave (km/s) = 3.17925 3.31054 3.24555
# Velocity P-wave (km/s) = 4.19965 6.02135 5.19103
#
# Compressibility (1/GPa) = 0.10466104
#
# Stress axis : x y z
#
# Youngs Moduli (GPa) = 147.51055 9.56657 82.75563
#
# Poissons Ratio (x) = 0.16105 0.18052
# Poissons Ratio (y) = 2.48331 -0.79858
# Poissons Ratio (z) = 0.32177 -0.09232
#
# Static dielectric constant tensor:
#      x y z
#    x 1.903440 0.000000 0.000000 
#    y 0.000000 1.803830 0.000000 
#    z 0.000000 0.000000 1.897730 
# 
# From -- ./inp_files/7288.got.cif
#   From: 2010.05.17/outbox.cif.g08.bks.cpg/sg65_4_cif.got.tgz:7288.got - 2010.06.03 17:01:31.
