data_PCOD9487567
_publ_section_title
;
Structure prediction by ZEFSAII (Michael W. Deem and Ramdas Pophale) SiO2 
 PCOD9487567
Probable space group: C M M M
;
_chemical_formula_sum "Si O2"
_cell_formula_units_Z 72
_cell_length_a 18.236172
_cell_length_b 24.560273
_cell_length_c 7.748698
_cell_angle_alpha 90.000000
_cell_angle_beta 90.000000
_cell_angle_gamma 90.000000
_cell_volume 3470.528415
_symmetry_space_group_name_H-M "C M M M"
_symmetry_group_IT_number 65
_symmetry_cell_setting 'orthorhombic'
loop_
_space_group_symop_operation_xyz
x,y,z
-x,-y,z
x,-y,-z
-x,y,-z
-x,-y,-z
x,y,-z
-x,y,z
x,-y,z
1/2+x,1/2+y,z
1/2-x,1/2-y,z
1/2+x,1/2-y,-z
1/2-x,1/2+y,-z
1/2-x,1/2-y,-z
1/2+x,1/2+y,-z
1/2-x,1/2+y,z
1/2+x,1/2-y,z
loop_
_atom_site_type_symbol
_atom_site_label
_atom_site_fract_x
_atom_site_fract_y
_atom_site_fract_z
Si Si1 0.286504 0.061818 0.205108
Si Si2 0.000000 0.937950 0.211024
Si Si3 0.082832 0.640501 0.296099
Si Si4 0.643437 0.626941 0.788596
Si Si5 0.165177 0.751631 0.208636
O O1 0.361790 0.094521 0.229118
O O2 0.218677 0.098396 0.271560
O O3 0.287776 0.000000 0.274695
O O4 0.274463 0.057491 0.000000
O O5 0.926622 0.907454 0.266088
O O6 0.000000 0.000000 0.268319
O O7 0.000000 0.937858 0.000000
O O8 0.078451 0.632429 0.500000
O O9 0.119057 0.699564 0.265284
O O10 0.000000 0.638085 0.224261
O O11 0.636127 0.689589 0.734384
O O12 0.645339 0.627517 0.000000
O O13 0.250000 0.750000 0.265027
O O14 0.165255 0.750117 0.000000
#
# Coordination Sequence:
#
# PCOD9487567 Si02
#       5
#    16   8  16  16  16
#     4  10  20  37  61  85 111 146 190 239 288 340
#     4   9  16  26  44  76 117 151 176 211 268 333
#     4  11  25  41  56  80 116 154 191 235 289 344
#     4   9  17  30  50  82 116 145 178 223 278 330
#     4  10  19  35  59  84 111 142 183 234 284 333
#
# _framework density 20.746120000000001
#
# number of rings (size 3 to 8) (size 9 to 14) (size 15 to 20)
#    0.000    2.111    2.222    1.333    1.556    5.778 
#    0.000    2.222    0.000    0.000    0.000    0.000 
#    0.000    3.556    0.000    0.000    0.000    0.000 
#
# Total GULP energy -201052.914865 kJ/mol
# GULP energy per Si atom -5584.803191 kJ/mol
# Density = 2.069890 g / cm^3
# Si number density = 20.746120 Si / 1000 Ang^3
#
#
#
# Elastic Constant Matrix: (Units=GPa)
#
#
# Indices 1 2 3 4 5 6 
#
# 1 122.3910 40.2339 -6.4604 0.0000 0.0000 0.0000
# 2 40.2339 141.9631 -2.8099 0.0000 0.0000 0.0000
# 3 -6.4604 -2.8099 27.2030 0.0000 0.0000 0.0000
# 4 0.0000 0.0000 0.0000 -58.9789 0.0000 0.0000
# 5 0.0000 0.0000 0.0000 0.0000 38.5599 0.0000
# 6 0.0000 0.0000 0.0000 0.0000 0.0000 29.3238
#
#
#
# Elastic Compliance Matrix: (Units=1/GPa)
#
#
# Indices 1 2 3 4 5 6 
#
# 1 0.009107 -0.002543 0.001900 0.000000 0.000000 0.000000
# 2 -0.002543 0.007769 0.000198 0.000000 0.000000 0.000000
# 3 0.001900 0.000198 0.037232 0.000000 0.000000 0.000000
# 4 0.000000 0.000000 0.000000 -0.016955 0.000000 0.000000
# 5 0.000000 0.000000 0.000000 0.000000 0.025934 0.000000
# 6 0.000000 0.000000 0.000000 0.000000 0.000000 0.034102
#
#
# Mechanical properties :
#
#
# Convention : Reuss Voigt Hill
#
# Bulk Modulus (GPa) = 18.79050 39.27604 29.03327
# Shear Modulus (GPa) = 43.17125 19.15387 31.16256
#
# Velocity S-wave (km/s) = 4.56667 3.04180 3.87989
# Velocity P-wave (km/s) = 6.07314 5.59550 5.83920
#
# Compressibility (1/GPa) = 0.05321839
#
# Stress axis : x y z
#
# Youngs Moduli (GPa) = 109.80647 128.71938 26.85835
#
# Poissons Ratio (x) = 0.32738 -0.05103
# Poissons Ratio (y) = 0.27928 -0.00533
# Poissons Ratio (z) = -0.20864 -0.02554
#
# Static dielectric constant tensor:
#      x y z
#    x 1.726530 0.000000 0.000000 
#    y 0.000000 1.717670 0.000000 
#    z 0.000000 0.000000 1.781520 
# 
# From -- ./inp_files/9242.got.cif
#   From: 2010.05.17/outbox.cif.g08.bks.cpg/sg65_5_cif.got.tgz:9242.got - 2010.06.03 17:01:31.
