data_PCOD9487272
_publ_section_title
;
Structure prediction by ZEFSAII (Michael W. Deem and Ramdas Pophale) SiO2 
 PCOD9487272
Probable space group: C M M M
;
_chemical_formula_sum "Si O2"
_cell_formula_units_Z 120
_cell_length_a 8.859868
_cell_length_b 26.656667
_cell_length_c 27.864705
_cell_angle_alpha 90.000000
_cell_angle_beta 90.000000
_cell_angle_gamma 90.000000
_cell_volume 6580.934190
_symmetry_space_group_name_H-M "C M M M"
_symmetry_group_IT_number 65
_symmetry_cell_setting 'orthorhombic'
loop_
_space_group_symop_operation_xyz
x,y,z
-x,-y,z
x,-y,-z
-x,y,-z
-x,-y,-z
x,y,-z
-x,y,z
x,-y,z
1/2+x,1/2+y,z
1/2-x,1/2-y,z
1/2+x,1/2-y,-z
1/2-x,1/2+y,-z
1/2-x,1/2-y,-z
1/2+x,1/2+y,-z
1/2-x,1/2+y,z
1/2+x,1/2-y,z
loop_
_atom_site_type_symbol
_atom_site_label
_atom_site_fract_x
_atom_site_fract_y
_atom_site_fract_z
Si Si1 0.817218 0.898692 0.610706
Si Si2 0.817738 0.837417 0.053081
Si Si3 0.181717 0.054552 0.910001
Si Si4 0.680559 0.804028 0.443600
Si Si5 0.179827 0.409499 0.811691
Si Si6 0.316316 0.500000 0.444746
Si Si7 0.679312 0.199535 0.150852
Si Si8 0.819732 0.941735 0.711557
O O1 0.746877 0.849337 0.587483
O O2 0.775306 0.907826 0.666223
O O3 0.000000 0.895582 0.608043
O O4 0.769795 0.948920 0.581839
O O5 0.774787 0.896153 0.060147
O O6 0.744164 0.808806 0.097364
O O7 0.000000 0.833744 0.056702
O O8 0.772150 0.820386 0.000000
O O9 0.244237 0.062003 0.856322
O O10 0.000000 0.054885 0.908070
O O11 0.229947 0.000000 0.928845
O O12 0.717726 0.812753 0.500000
O O13 0.500000 0.802096 0.439009
O O14 0.750000 0.750000 0.430279
O O15 0.217039 0.350741 0.819801
O O16 0.238618 0.428085 0.760807
O O17 0.000000 0.415557 0.814989
O O18 0.500000 0.500000 0.443956
O O19 0.267147 0.500000 0.500000
O O20 0.500000 0.204179 0.148338
O O21 0.750000 0.250000 0.171475
O O22 0.000000 0.936660 0.718471
O O23 0.790753 0.000000 0.699230
#
# Coordination Sequence:
#
# PCOD9487272 Si02
#       8
#    16  16  16  16  16   8  16  16
#     4  10  19  34  55  82 113 146 185 227 271 322
#     4   9  18  32  50  74 104 136 169 205 250 306
#     4   9  17  30  49  73 101 134 172 212 253 300
#     4  10  21  37  57  81 109 144 187 232 276 323
#     4  10  21  35  52  76 102 132 172 217 263 312
#     4   9  16  28  51  81 111 145 183 221 264 319
#     4  10  21  37  56  76  99 128 167 215 262 312
#     4  10  20  35  55  80 111 144 178 215 257 312
#
# _framework density 18.234491999999999
#
# number of rings (size 3 to 8) (size 9 to 14) (size 15 to 20)
#    0.000    2.333    0.667    2.000    0.000    6.400 
#    0.000    2.333    0.000    2.800    0.000    3.733 
#    0.000    0.000    0.000    0.000    0.000    0.000 
#
# Total GULP energy -334854.430371 kJ/mol
# GULP energy per Si atom -5580.907173 kJ/mol
# Density = 1.819299 g / cm^3
# Si number density = 18.234492 Si / 1000 Ang^3
#
#
#
# Elastic Constant Matrix: (Units=GPa)
#
#
# Indices 1 2 3 4 5 6 
#
# 1 12.0664 19.5860 8.1449 0.0000 0.0000 0.0000
# 2 19.5860 88.3305 6.0093 0.0000 0.0000 0.0000
# 3 8.1449 6.0093 58.7853 0.0000 0.0000 0.0000
# 4 0.0000 0.0000 0.0000 0.8039 0.0000 0.0000
# 5 0.0000 0.0000 0.0000 0.0000 13.9981 0.0000
# 6 0.0000 0.0000 0.0000 0.0000 0.0000 28.6021
#
#
#
# Elastic Compliance Matrix: (Units=1/GPa)
#
#
# Indices 1 2 3 4 5 6 
#
# 1 0.144331 -0.030857 -0.016843 0.000000 0.000000 0.000000
# 2 -0.030857 0.017998 0.002436 0.000000 0.000000 0.000000
# 3 -0.016843 0.002436 0.019096 0.000000 0.000000 0.000000
# 4 0.000000 0.000000 0.000000 1.243956 0.000000 0.000000
# 5 0.000000 0.000000 0.000000 0.000000 0.071438 0.000000
# 6 0.000000 0.000000 0.000000 0.000000 0.000000 0.034963
#
#
# Mechanical properties :
#
#
# Convention : Reuss Voigt Hill
#
# Bulk Modulus (GPa) = 11.00176 25.18472 18.09324
# Shear Modulus (GPa) = 3.02552 17.04362 10.03457
#
# Velocity S-wave (km/s) = 1.28951 3.06059 2.34841
# Velocity P-wave (km/s) = 2.87466 5.13139 4.15902
#
# Compressibility (1/GPa) = 0.09089451
#
# Stress axis : x y z
#
# Youngs Moduli (GPa) = 6.92852 55.56309 52.36770
#
# Poissons Ratio (x) = 1.71453 0.88204
# Poissons Ratio (y) = 0.21380 -0.12755
# Poissons Ratio (z) = 0.11670 -0.13533
#
# Static dielectric constant tensor:
#      x y z
#    x 1.611320 0.000000 0.000000 
#    y 0.000000 1.638500 0.000000 
#    z 0.000000 0.000000 1.599640 
# 
# From -- ./inp_files/74015.got.cif
#   From: 2010.05.17/outbox.cif.g08.bks.cpg/sg65_38_cif.got.tgz:74015.got - 2010.06.03 17:01:31.
