data_PCOD9487897
_publ_section_title
;
Structure prediction by ZEFSAII (Michael W. Deem and Ramdas Pophale) SiO2 
 PCOD9487897
Probable space group: C M M M
;
_chemical_formula_sum "Si O2"
_cell_formula_units_Z 112
_cell_length_a 30.243095
_cell_length_b 14.754578
_cell_length_c 14.108023
_cell_angle_alpha 90.000000
_cell_angle_beta 90.000000
_cell_angle_gamma 90.000000
_cell_volume 6295.339924
_symmetry_space_group_name_H-M "C M M M"
_symmetry_group_IT_number 65
_symmetry_cell_setting 'orthorhombic'
loop_
_space_group_symop_operation_xyz
x,y,z
-x,-y,z
x,-y,-z
-x,y,-z
-x,-y,-z
x,y,-z
-x,y,z
x,-y,z
1/2+x,1/2+y,z
1/2-x,1/2-y,z
1/2+x,1/2-y,-z
1/2-x,1/2+y,-z
1/2-x,1/2-y,-z
1/2+x,1/2+y,-z
1/2-x,1/2+y,z
1/2+x,1/2-y,z
loop_
_atom_site_type_symbol
_atom_site_label
_atom_site_fract_x
_atom_site_fract_y
_atom_site_fract_z
Si Si1 0.864496 0.897385 0.613361
Si Si2 0.718176 0.894672 0.221256
Si Si3 0.101681 0.206757 0.886701
Si Si4 0.549339 0.608110 0.266187
Si Si5 0.804924 0.109346 0.111162
Si Si6 0.369960 0.099077 0.886960
Si Si7 0.801858 0.729618 0.393298
O O1 0.869186 0.900367 0.500000
O O2 0.911271 0.872825 0.660078
O O3 0.828437 0.820500 0.633578
O O4 0.851791 0.000000 0.645041
O O5 0.764777 0.860563 0.179029
O O6 0.681510 0.890327 0.139045
O O7 0.696881 0.843565 0.310185
O O8 0.724899 0.000000 0.246642
O O9 0.063555 0.156092 0.830523
O O10 0.148679 0.157462 0.866293
O O11 0.105246 0.310993 0.853715
O O12 0.095533 0.203253 0.000000
O O13 0.500000 0.634741 0.296985
O O14 0.549506 0.500000 0.252267
O O15 0.809717 0.000000 0.119196
O O16 0.794569 0.128586 0.000000
O O17 0.384312 0.000000 0.849914
O O18 0.374271 0.097956 0.000000
O O19 0.816648 0.701437 0.500000
O O20 0.750000 0.750000 0.400190
#
# Coordination Sequence:
#
# PCOD9487897 Si02
#       7
#    16  16  16  16  16  16  16
#     4   9  19  37  59  79 103 138 176 216 262 309
#     4  10  20  31  48  71  98 136 173 215 262 299
#     4  10  20  33  51  72 100 140 175 209 257 312
#     4  10  21  35  54  82 110 135 169 215 265 319
#     4   9  18  31  47  71 101 135 178 218 253 304
#     4   9  18  32  49  72 101 132 171 216 259 303
#     4  10  22  36  50  72 102 136 174 213 252 306
#
# _framework density 17.790938000000001
#
# number of rings (size 3 to 8) (size 9 to 14) (size 15 to 20)
#    0.000    2.429    0.000    1.714    4.000    4.000 
#    0.000    5.714    0.000    0.429    0.000    2.000 
#    0.000    0.000    0.000   12.286    0.000    0.429 
#
# Total GULP energy -312355.168305 kJ/mol
# GULP energy per Si atom -5577.770863 kJ/mol
# Density = 1.775044 g / cm^3
# Si number density = 17.790938 Si / 1000 Ang^3
#
#
#
# Elastic Constant Matrix: (Units=GPa)
#
#
# Indices 1 2 3 4 5 6 
#
# 1 93.2886 50.1335 28.8328 0.0000 0.0000 0.0000
# 2 50.1335 65.1142 30.8808 0.0000 0.0000 0.0000
# 3 28.8328 30.8808 47.0498 0.0000 0.0000 0.0000
# 4 0.0000 0.0000 0.0000 22.8663 0.0000 0.0000
# 5 0.0000 0.0000 0.0000 0.0000 23.6856 0.0000
# 6 0.0000 0.0000 0.0000 0.0000 0.0000 21.7906
#
#
#
# Elastic Compliance Matrix: (Units=1/GPa)
#
#
# Indices 1 2 3 4 5 6 
#
# 1 0.018553 -0.012911 -0.002895 0.000000 0.000000 0.000000
# 2 -0.012911 0.031284 -0.012621 0.000000 0.000000 0.000000
# 3 -0.002895 -0.012621 0.031312 0.000000 0.000000 0.000000
# 4 0.000000 0.000000 0.000000 0.043732 0.000000 0.000000
# 5 0.000000 0.000000 0.000000 0.000000 0.042220 0.000000
# 6 0.000000 0.000000 0.000000 0.000000 0.000000 0.045891
#
#
# Mechanical properties :
#
#
# Convention : Reuss Voigt Hill
#
# Bulk Modulus (GPa) = 41.16229 47.23853 44.20041
# Shear Modulus (GPa) = 17.98919 20.04221 19.01570
#
# Velocity S-wave (km/s) = 3.18330 3.36004 3.27286
# Velocity P-wave (km/s) = 6.05789 6.45467 6.25943
#
# Compressibility (1/GPa) = 0.02429408
#
# Stress axis : x y z
#
# Youngs Moduli (GPa) = 53.90012 31.96524 31.93684
#
# Poissons Ratio (x) = 0.41272 0.09246
# Poissons Ratio (y) = 0.69592 0.40307
# Poissons Ratio (z) = 0.15605 0.40342
#
# Static dielectric constant tensor:
#      x y z
#    x 1.585930 0.000000 0.000000 
#    y 0.000000 1.648290 0.000000 
#    z 0.000000 0.000000 1.644260 
# 
# From -- ./inp_files/41083.got.cif
#   From: 2010.05.17/outbox.cif.g08.bks.cpg/sg65_21_cif.got.tgz:41083.got - 2010.06.03 17:01:31.
