data_PCOD9487095
_publ_section_title
;
Structure prediction by ZEFSAII (Michael W. Deem and Ramdas Pophale) SiO2 
 PCOD9487095
Probable space group: C M M M
;
_chemical_formula_sum "Si O2"
_cell_formula_units_Z 96
_cell_length_a 9.470117
_cell_length_b 22.903304
_cell_length_c 23.565175
_cell_angle_alpha 90.000000
_cell_angle_beta 90.000000
_cell_angle_gamma 90.000000
_cell_volume 5111.215021
_symmetry_space_group_name_H-M "C M M M"
_symmetry_group_IT_number 65
_symmetry_cell_setting 'orthorhombic'
loop_
_space_group_symop_operation_xyz
x,y,z
-x,-y,z
x,-y,-z
-x,y,-z
-x,-y,-z
x,y,-z
-x,y,z
x,-y,z
1/2+x,1/2+y,z
1/2-x,1/2-y,z
1/2+x,1/2-y,-z
1/2-x,1/2+y,-z
1/2-x,1/2-y,-z
1/2+x,1/2+y,-z
1/2-x,1/2+y,z
1/2+x,1/2-y,z
loop_
_atom_site_type_symbol
_atom_site_label
_atom_site_fract_x
_atom_site_fract_y
_atom_site_fract_z
Si Si1 0.658670 0.159969 0.662151
Si Si2 0.341800 0.647382 0.164275
Si Si3 0.668033 0.380903 0.566934
Si Si4 0.833757 0.311018 0.064037
Si Si5 0.337893 0.000000 0.431703
Si Si6 0.250000 0.750000 0.751936
Si Si7 0.837329 0.068487 0.268633
O O1 0.500000 0.148561 0.642707
O O2 0.761179 0.166736 0.608085
O O3 0.658584 0.212043 0.707949
O O4 0.726818 0.105986 0.696149
O O5 0.500000 0.649519 0.140468
O O6 0.229216 0.650544 0.114332
O O7 0.323349 0.702990 0.206685
O O8 0.326331 0.591084 0.204123
O O9 0.690927 0.369396 0.500000
O O10 0.500000 0.386036 0.575960
O O11 0.747501 0.441985 0.581539
O O12 0.750000 0.250000 0.067554
O O13 0.000000 0.300891 0.072267
O O14 0.812919 0.334257 0.000000
O O15 0.500000 0.000000 0.409304
O O16 0.349248 0.000000 0.500000
O O17 0.000000 0.081811 0.286480
O O18 0.814410 0.000000 0.274081
#
# Coordination Sequence:
#
# PCOD9487095 Si02
#       7
#    16  16  16  16   8   8  16
#     4  11  23  37  58  84 111 142 180 229 275 325
#     4  10  19  33  57  82 108 144 183 224 268 320
#     4  10  21  37  56  78 106 142 180 219 273 334
#     4  10  20  32  49  77 112 146 181 223 272 323
#     4   9  17  31  53  79 105 133 171 219 266 317
#     4  10  22  38  56  80 110 144 182 220 274 330
#     4   9  20  38  57  80 112 148 184 224 273 327
#
# _framework density 18.782228
#
# number of rings (size 3 to 8) (size 9 to 14) (size 15 to 20)
#    0.000    2.083    0.833    2.250    1.167    8.000 
#    0.000    0.417    0.000    0.500    0.000    3.500 
#    0.000    0.000    0.000    0.000    0.000    0.000 
#
# Total GULP energy -267768.384746 kJ/mol
# GULP energy per Si atom -5578.508016 kJ/mol
# Density = 1.873948 g / cm^3
# Si number density = 18.782228 Si / 1000 Ang^3
#
#
#
# Elastic Constant Matrix: (Units=GPa)
#
#
# Indices 1 2 3 4 5 6 
#
# 1 129.7442 16.5872 51.6752 0.0000 0.0000 0.0000
# 2 16.5872 36.6385 14.6063 0.0000 0.0000 0.0000
# 3 51.6752 14.6063 101.6155 0.0000 0.0000 0.0000
# 4 0.0000 0.0000 0.0000 17.7326 0.0000 0.0000
# 5 0.0000 0.0000 0.0000 0.0000 23.9966 0.0000
# 6 0.0000 0.0000 0.0000 0.0000 0.0000 10.8143
#
#
#
# Elastic Compliance Matrix: (Units=1/GPa)
#
#
# Indices 1 2 3 4 5 6 
#
# 1 0.009897 -0.002625 -0.004656 0.000000 0.000000 0.000000
# 2 -0.002625 0.029649 -0.002927 0.000000 0.000000 0.000000
# 3 -0.004656 -0.002927 0.012629 0.000000 0.000000 0.000000
# 4 0.000000 0.000000 0.000000 0.056393 0.000000 0.000000
# 5 0.000000 0.000000 0.000000 0.000000 0.041673 0.000000
# 6 0.000000 0.000000 0.000000 0.000000 0.000000 0.092470
#
#
# Mechanical properties :
#
#
# Convention : Reuss Voigt Hill
#
# Bulk Modulus (GPa) = 31.48568 48.19283 39.83926
# Shear Modulus (GPa) = 18.26729 22.85068 20.55898
#
# Velocity S-wave (km/s) = 3.12201 3.49178 3.31206
# Velocity P-wave (km/s) = 5.45856 6.47851 5.99028
#
# Compressibility (1/GPa) = 0.03176047
#
# Stress axis : x y z
#
# Youngs Moduli (GPa) = 101.03655 33.72819 79.17999
#
# Poissons Ratio (x) = 0.08853 0.36866
# Poissons Ratio (y) = 0.26519 0.23176
# Poissons Ratio (z) = 0.47042 0.09872
#
# Static dielectric constant tensor:
#      x y z
#    x 1.650040 0.000000 0.000000 
#    y 0.000000 1.647280 0.000000 
#    z 0.000000 0.000000 1.675530 
# 
# From -- ./inp_files/67926.got.cif
#   From: 2010.05.17/outbox.cif.g08.bks.cpg/sg65_34_cif.got.tgz:67926.got - 2010.06.03 17:01:31.
