data_PCOD9487907
_publ_section_title
;
Structure prediction by ZEFSAII (Michael W. Deem and Ramdas Pophale) SiO2 
 PCOD9487907
Probable space group: C M M M
;
_chemical_formula_sum "Si O2"
_cell_formula_units_Z 104
_cell_length_a 18.047896
_cell_length_b 15.949136
_cell_length_c 18.338763
_cell_angle_alpha 90.000000
_cell_angle_beta 90.000000
_cell_angle_gamma 90.000000
_cell_volume 5278.782631
_symmetry_space_group_name_H-M "C M M M"
_symmetry_group_IT_number 65
_symmetry_cell_setting 'orthorhombic'
loop_
_space_group_symop_operation_xyz
x,y,z
-x,-y,z
x,-y,-z
-x,y,-z
-x,-y,-z
x,y,-z
-x,y,z
x,-y,z
1/2+x,1/2+y,z
1/2-x,1/2-y,z
1/2+x,1/2-y,-z
1/2-x,1/2+y,-z
1/2-x,1/2-y,-z
1/2+x,1/2+y,-z
1/2-x,1/2+y,z
1/2+x,1/2-y,z
loop_
_atom_site_type_symbol
_atom_site_label
_atom_site_fract_x
_atom_site_fract_y
_atom_site_fract_z
Si Si1 0.912568 0.093854 0.356718
Si Si2 0.500000 0.598446 0.081003
Si Si3 0.118267 0.160306 0.193157
Si Si4 0.418764 0.159670 0.232900
Si Si5 0.759264 0.595971 0.746441
Si Si6 0.584445 0.774422 0.397958
Si Si7 0.284723 0.901055 0.579532
O O1 0.905766 0.117203 0.270660
O O2 0.889515 0.177582 0.400909
O O3 0.000000 0.088639 0.371680
O O4 0.881274 0.000000 0.372551
O O5 0.500000 0.500000 0.072827
O O6 0.573092 0.618874 0.128232
O O7 0.500000 0.637618 0.000000
O O8 0.095712 0.257190 0.186675
O O9 0.206571 0.150726 0.202152
O O10 0.500000 0.122054 0.217861
O O11 0.345515 0.103854 0.233251
O O12 0.420857 0.199654 0.313496
O O13 0.735915 0.500000 0.754751
O O14 0.750534 0.619271 0.659879
O O15 0.500000 0.781526 0.425176
O O16 0.644498 0.840103 0.425664
O O17 0.245782 0.892849 0.500000
O O18 0.305668 0.000000 0.585774
#
# Coordination Sequence:
#
# PCOD9487907 Si02
#       7
#    16   8  16  16  16  16  16
#     4   9  15  25  46  71  97 131 172 222 272 322
#     4  11  22  34  54  88 128 158 176 211 274 340
#     4  11  18  33  54  82 113 145 187 228 271 332
#     4   9  17  32  52  76 106 146 187 235 281 320
#     4  10  20  31  52  84 112 143 188 242 289 333
#     4   8  15  26  42  68  97 127 176 231 279 330
#     4   9  18  32  47  67  99 137 178 228 291 349
#
# _framework density 19.701512000000001
#
# number of rings (size 3 to 8) (size 9 to 14) (size 15 to 20)
#    0.000    2.538    1.538    2.769    0.000    0.923 
#    0.000    3.846    0.000   18.923    0.000    2.692 
#    0.000    3.692    0.000    0.000    0.000    0.000 
#
# Total GULP energy -289496.190481 kJ/mol
# GULP energy per Si atom -5567.234432 kJ/mol
# Density = 1.965667 g / cm^3
# Si number density = 19.701512 Si / 1000 Ang^3
#
#
#
# Elastic Constant Matrix: (Units=GPa)
#
#
# Indices 1 2 3 4 5 6 
#
# 1 118.3977 30.6630 29.9173 0.0000 0.0000 0.0000
# 2 30.6630 69.7196 21.7723 0.0000 0.0000 0.0000
# 3 29.9173 21.7723 84.0684 0.0000 0.0000 0.0000
# 4 0.0000 0.0000 0.0000 -37.5574 0.0000 0.0000
# 5 0.0000 0.0000 0.0000 0.0000 51.2105 0.0000
# 6 0.0000 0.0000 0.0000 0.0000 0.0000 26.0436
#
#
#
# Elastic Compliance Matrix: (Units=1/GPa)
#
#
# Indices 1 2 3 4 5 6 
#
# 1 0.010045 -0.003592 -0.002644 0.000000 0.000000 0.000000
# 2 -0.003592 0.016890 -0.003096 0.000000 0.000000 0.000000
# 3 -0.002644 -0.003096 0.013638 0.000000 0.000000 0.000000
# 4 0.000000 0.000000 0.000000 -0.026626 0.000000 0.000000
# 5 0.000000 0.000000 0.000000 0.000000 0.019527 0.000000
# 6 0.000000 0.000000 0.000000 0.000000 0.000000 0.038397
#
#
# Mechanical properties :
#
#
# Convention : Reuss Voigt Hill
#
# Bulk Modulus (GPa) = 45.64549 48.54340 47.09445
# Shear Modulus (GPa) = 51.10520 20.59487 35.85004
#
# Velocity S-wave (km/s) = 5.09863 3.23669 4.27037
# Velocity P-wave (km/s) = 7.60790 6.21781 6.94771
#
# Compressibility (1/GPa) = 0.02190797
#
# Stress axis : x y z
#
# Youngs Moduli (GPa) = 99.55687 59.20771 73.32513
#
# Poissons Ratio (x) = 0.21267 0.19389
# Poissons Ratio (y) = 0.35759 0.22701
# Poissons Ratio (z) = 0.26326 0.18330
#
# Static dielectric constant tensor:
#      x y z
#    x 1.796600 0.000000 0.000000 
#    y 0.000000 1.705970 0.000000 
#    z 0.000000 0.000000 1.699570 
# 
# From -- ./inp_files/54578.got.cif
#   From: 2010.05.17/outbox.cif.g08.bks.cpg/sg65_28_cif.got.tgz:54578.got - 2010.06.03 17:01:31.
