data_PCOD9487001
_publ_section_title
;
Structure prediction by ZEFSAII (Michael W. Deem and Ramdas Pophale) SiO2 
 PCOD9487001
Probable space group: C M M M
;
_chemical_formula_sum "Si O2"
_cell_formula_units_Z 104
_cell_length_a 28.649583
_cell_length_b 21.934770
_cell_length_c 7.900037
_cell_angle_alpha 90.000000
_cell_angle_beta 90.000000
_cell_angle_gamma 90.000000
_cell_volume 4964.557160
_symmetry_space_group_name_H-M "C M M M"
_symmetry_group_IT_number 65
_symmetry_cell_setting 'orthorhombic'
loop_
_space_group_symop_operation_xyz
x,y,z
-x,-y,z
x,-y,-z
-x,y,-z
-x,-y,-z
x,y,-z
-x,y,z
x,-y,z
1/2+x,1/2+y,z
1/2-x,1/2-y,z
1/2+x,1/2-y,-z
1/2-x,1/2+y,-z
1/2-x,1/2-y,-z
1/2+x,1/2+y,-z
1/2-x,1/2+y,z
1/2+x,1/2-y,z
loop_
_atom_site_type_symbol
_atom_site_label
_atom_site_fract_x
_atom_site_fract_y
_atom_site_fract_z
Si Si1 0.812720 0.430759 0.295984
Si Si2 0.127630 0.841239 0.691072
Si Si3 0.595133 0.872155 0.192262
Si Si4 0.205036 0.930484 0.292843
Si Si5 0.055618 0.500000 0.693993
Si Si6 0.052592 0.748928 0.696859
Si Si7 0.948021 0.927582 0.800309
O O1 0.814003 0.430140 0.500000
O O2 0.825499 0.500000 0.240998
O O3 0.850394 0.382505 0.232905
O O4 0.759069 0.420798 0.245092
O O5 0.140689 0.821485 0.500000
O O6 0.172569 0.875077 0.769244
O O7 0.095814 0.788004 0.772525
O O8 0.090616 0.896183 0.689521
O O9 0.572905 0.938325 0.221124
O O10 0.568488 0.821168 0.298209
O O11 0.589297 0.852980 0.000000
O O12 0.202491 0.930370 0.500000
O O13 0.191419 0.000000 0.239962
O O14 0.073232 0.500000 0.500000
O O15 0.000000 0.500000 0.692775
O O16 0.049950 0.768167 0.500000
O O17 0.000000 0.755950 0.769062
O O18 0.000000 0.905962 0.755740
O O19 0.946827 0.000000 0.781407
O O20 0.940222 0.914362 0.000000
#
# Coordination Sequence:
#
# PCOD9487001 Si02
#       7
#    16  16  16  16   8  16  16
#     4   9  17  33  58  83 111 148 182 216 272 339
#     4  10  19  33  55  81 107 138 185 240 281 316
#     4  12  24  37  57  85 113 142 182 231 276 321
#     4   8  15  29  53  86 116 142 179 229 279 328
#     4  11  23  39  61  87 115 145 175 215 274 341
#     4  10  22  39  56  76 108 151 192 228 276 338
#     4   9  18  31  46  68 102 142 181 222 276 342
#
# _framework density 20.948495000000001
#
# number of rings (size 3 to 8) (size 9 to 14) (size 15 to 20)
#    0.000    2.231    0.769    4.385    0.000    5.231 
#    0.000    2.308    0.000    5.538    0.000    0.000 
#    0.000    0.000    0.000    0.000    0.000    0.000 
#
# Total GULP energy -290029.147410 kJ/mol
# GULP energy per Si atom -5577.483604 kJ/mol
# Density = 2.090081 g / cm^3
# Si number density = 20.948495 Si / 1000 Ang^3
#
#
#
# Elastic Constant Matrix: (Units=GPa)
#
#
# Indices 1 2 3 4 5 6 
#
# 1 105.7629 48.5107 1.2203 0.0000 0.0000 0.0000
# 2 48.5107 88.0605 -4.5262 0.0000 0.0000 0.0000
# 3 1.2203 -4.5262 29.7280 0.0000 0.0000 0.0000
# 4 0.0000 0.0000 0.0000 -6.3704 0.0000 0.0000
# 5 0.0000 0.0000 0.0000 0.0000 -49.3120 0.0000
# 6 0.0000 0.0000 0.0000 0.0000 0.0000 53.5728
#
#
#
# Elastic Compliance Matrix: (Units=1/GPa)
#
#
# Indices 1 2 3 4 5 6 
#
# 1 0.012727 -0.007094 -0.001602 0.000000 0.000000 0.000000
# 2 -0.007094 0.015399 0.002636 0.000000 0.000000 0.000000
# 3 -0.001602 0.002636 0.034105 0.000000 0.000000 0.000000
# 4 0.000000 0.000000 0.000000 -0.156976 0.000000 0.000000
# 5 0.000000 0.000000 0.000000 0.000000 -0.020279 0.000000
# 6 0.000000 0.000000 0.000000 0.000000 0.000000 0.018666
#
#
# Mechanical properties :
#
#
# Convention : Reuss Voigt Hill
#
# Bulk Modulus (GPa) = 19.95564 34.88456 27.42010
# Shear Modulus (GPa) = -74.03736 11.46787 -31.28474
#
# Velocity S-wave (km/s) = -5.95141 2.34226 -3.86866
# Velocity P-wave (km/s) = 6.13832 4.89935 2.61490
#
# Compressibility (1/GPa) = 0.05011116
#
# Stress axis : x y z
#
# Youngs Moduli (GPa) = 78.57182 64.93940 29.32084
#
# Poissons Ratio (x) = 0.46065 0.04699
# Poissons Ratio (y) = 0.55735 -0.07728
# Poissons Ratio (z) = 0.12591 -0.17116
#
# Static dielectric constant tensor:
#      x y z
#    x 1.781110 0.000000 0.000000 
#    y 0.000000 1.763260 0.000000 
#    z 0.000000 0.000000 1.778340 
# 
# From -- ./inp_files/16488.got.cif
#   From: 2010.05.17/outbox.cif.g08.bks.cpg/sg65_9_cif.got.tgz:16488.got - 2010.06.03 17:01:31.
