data_PCOD9487722
_publ_section_title
;
Structure prediction by ZEFSAII (Michael W. Deem and Ramdas Pophale) SiO2 
 PCOD9487722
Probable space group: C M M M
;
_chemical_formula_sum "Si O2"
_cell_formula_units_Z 100
_cell_length_a 14.284848
_cell_length_b 17.871292
_cell_length_c 21.231779
_cell_angle_alpha 90.000000
_cell_angle_beta 90.000000
_cell_angle_gamma 90.000000
_cell_volume 5420.233043
_symmetry_space_group_name_H-M "C M M M"
_symmetry_group_IT_number 65
_symmetry_cell_setting 'orthorhombic'
loop_
_space_group_symop_operation_xyz
x,y,z
-x,-y,z
x,-y,-z
-x,y,-z
-x,-y,-z
x,y,-z
-x,y,z
x,-y,z
1/2+x,1/2+y,z
1/2-x,1/2-y,z
1/2+x,1/2-y,-z
1/2-x,1/2+y,-z
1/2-x,1/2-y,-z
1/2+x,1/2+y,-z
1/2-x,1/2+y,z
1/2+x,1/2-y,z
loop_
_atom_site_type_symbol
_atom_site_label
_atom_site_fract_x
_atom_site_fract_y
_atom_site_fract_z
Si Si1 0.000000 0.733026 0.500000
Si Si2 0.611369 0.137418 0.827751
Si Si3 0.189756 0.415235 0.306502
Si Si4 0.748169 0.414526 0.073878
Si Si5 0.392789 0.687591 0.849846
Si Si6 0.356675 0.772467 0.383378
Si Si7 0.896442 0.865358 0.706621
O O1 0.919529 0.733046 0.555576
O O2 0.500000 0.127327 0.822675
O O3 0.660254 0.109457 0.763840
O O4 0.656881 0.094996 0.886490
O O5 0.631166 0.225496 0.838664
O O6 0.159669 0.500000 0.317982
O O7 0.144835 0.355180 0.353580
O O8 0.302834 0.409385 0.312147
O O9 0.713917 0.500000 0.081965
O O10 0.675641 0.355978 0.103827
O O11 0.762047 0.400697 0.000000
O O12 0.500000 0.684252 0.872850
O O13 0.389670 0.649484 0.781123
O O14 0.250000 0.750000 0.397724
O O15 0.389925 0.713855 0.329823
O O16 0.000000 0.897847 0.693031
#
# Coordination Sequence:
#
# PCOD9487722 Si02
#       7
#     4  16  16  16  16  16  16
#     4  12  22  40  69  94 129 166 220 246 302 366
#     4  11  23  39  61  87 118 161 213 262 308 354
#     4  11  23  38  60  93 129 164 205 254 315 370
#     4  11  25  42  59  87 127 165 200 249 319 386
#     4  10  21  37  63  90 118 154 204 260 311 363
#     4  10  22  39  63  95 128 165 207 256 302 360
#     4  10  19  37  64  94 124 155 202 263 312 356
#
# _framework density 18.449392
#
# number of rings (size 3 to 8) (size 9 to 14) (size 15 to 20)
#    0.000    1.440    4.000    1.200    1.120    3.840 
#    0.000    5.600    0.000    0.000    0.000    2.240 
#    0.000    0.000    0.000    0.000    0.000    0.000 
#
# Total GULP energy -278705.896663 kJ/mol
# GULP energy per Si atom -5574.117933 kJ/mol
# Density = 1.840740 g / cm^3
# Si number density = 18.449392 Si / 1000 Ang^3
#
#
#
# Elastic Constant Matrix: (Units=GPa)
#
#
# Indices 1 2 3 4 5 6 
#
# 1 96.6940 17.7275 32.5669 0.0000 0.0000 0.0000
# 2 17.7275 83.3852 24.1865 0.0000 0.0000 0.0000
# 3 32.5669 24.1865 88.2694 0.0000 0.0000 0.0000
# 4 0.0000 0.0000 0.0000 -0.8345 0.0000 0.0000
# 5 0.0000 0.0000 0.0000 0.0000 81.4108 0.0000
# 6 0.0000 0.0000 0.0000 0.0000 0.0000 9.1481
#
#
#
# Elastic Compliance Matrix: (Units=1/GPa)
#
#
# Indices 1 2 3 4 5 6 
#
# 1 0.011952 -0.001371 -0.004034 0.000000 0.000000 0.000000
# 2 -0.001371 0.013185 -0.003107 0.000000 0.000000 0.000000
# 3 -0.004034 -0.003107 0.013669 0.000000 0.000000 0.000000
# 4 0.000000 0.000000 0.000000 -1.198258 0.000000 0.000000
# 5 0.000000 0.000000 0.000000 0.000000 0.012283 0.000000
# 6 0.000000 0.000000 0.000000 0.000000 0.000000 0.109313
#
#
# Mechanical properties :
#
#
# Convention : Reuss Voigt Hill
#
# Bulk Modulus (GPa) = 45.90970 46.36781 46.13876
# Shear Modulus (GPa) = -4.93305 30.86939 12.96817
#
# Velocity S-wave (km/s) = -1.63696 4.09491 2.65411
# Velocity P-wave (km/s) = 4.62226 6.89526 5.86984
#
# Compressibility (1/GPa) = 0.02178189
#
# Stress axis : x y z
#
# Youngs Moduli (GPa) = 83.66874 75.84265 73.16003
#
# Poissons Ratio (x) = 0.10397 0.29513
# Poissons Ratio (y) = 0.11470 0.22731
# Poissons Ratio (z) = 0.33752 0.23565
#
# Static dielectric constant tensor:
#      x y z
#    x 1.664170 0.000000 0.000000 
#    y 0.000000 1.635940 0.000000 
#    z 0.000000 0.000000 1.584000 
# 
# From -- ./inp_files/62881.got.cif
#   From: 2010.05.17/outbox.cif.g08.bks.cpg/sg65_32_cif.got.tgz:62881.got - 2010.06.03 17:01:31.
