data_PCOD9487328
_publ_section_title
;
Structure prediction by ZEFSAII (Michael W. Deem and Ramdas Pophale) SiO2 
 PCOD9487328
Probable space group: C M M M
;
_chemical_formula_sum "Si O2"
_cell_formula_units_Z 80
_cell_length_a 14.717808
_cell_length_b 22.325557
_cell_length_c 12.088083
_cell_angle_alpha 90.000000
_cell_angle_beta 90.000000
_cell_angle_gamma 90.000000
_cell_volume 3971.941736
_symmetry_space_group_name_H-M "C M M M"
_symmetry_group_IT_number 65
_symmetry_cell_setting 'orthorhombic'
loop_
_space_group_symop_operation_xyz
x,y,z
-x,-y,z
x,-y,-z
-x,y,-z
-x,-y,-z
x,y,-z
-x,y,z
x,-y,z
1/2+x,1/2+y,z
1/2-x,1/2-y,z
1/2+x,1/2-y,-z
1/2-x,1/2+y,-z
1/2-x,1/2-y,-z
1/2+x,1/2+y,-z
1/2-x,1/2+y,z
1/2+x,1/2-y,z
loop_
_atom_site_type_symbol
_atom_site_label
_atom_site_fract_x
_atom_site_fract_y
_atom_site_fract_z
Si Si1 0.607212 0.433688 0.695557
Si Si2 0.263678 0.611759 0.129525
Si Si3 0.652714 0.781957 0.500000
Si Si4 0.397388 0.352020 0.500000
Si Si5 0.398117 0.277478 0.124136
Si Si6 0.895111 0.339942 0.729238
O O1 0.500000 0.424973 0.719889
O O2 0.616727 0.500000 0.644716
O O3 0.666622 0.430760 0.806085
O O4 0.641372 0.381658 0.611660
O O5 0.318242 0.675029 0.135286
O O6 0.172149 0.618104 0.201011
O O7 0.248791 0.597989 0.000000
O O8 0.750000 0.750000 0.500000
O O9 0.596633 0.719586 0.500000
O O10 0.636067 0.823269 0.394019
O O11 0.500000 0.376174 0.500000
O O12 0.500000 0.304816 0.135487
O O13 0.391385 0.224247 0.209545
O O14 0.392731 0.251860 0.000000
O O15 0.000000 0.360336 0.729329
#
# Coordination Sequence:
#
# PCOD9487328 Si02
#       6
#    16  16   8   8  16  16
#     4  10  21  37  58  84 113 145 185 239 300 354
#     4  11  22  35  53  77 107 147 193 236 281 335
#     4  12  22  33  55  85 116 149 184 227 277 330
#     4  10  19  34  56  82 115 151 183 217 269 341
#     4   9  17  30  49  73 103 139 178 222 272 328
#     4  11  22  35  51  76 112 150 187 225 269 327
#
# _framework density 20.141282
#
# number of rings (size 3 to 8) (size 9 to 14) (size 15 to 20)
#    0.000    1.600    0.000    6.600    0.000    8.800 
#    0.000    1.000    0.000    0.600    0.000    1.400 
#    0.000    4.800    0.000    0.000    0.000    0.000 
#
# Total GULP energy -223224.612443 kJ/mol
# GULP energy per Si atom -5580.615311 kJ/mol
# Density = 2.009544 g / cm^3
# Si number density = 20.141282 Si / 1000 Ang^3
#
#
#
# Elastic Constant Matrix: (Units=GPa)
#
#
# Indices 1 2 3 4 5 6 
#
# 1 132.2912 9.1916 58.9517 0.0000 0.0000 0.0000
# 2 9.1916 30.7120 27.4549 0.0000 0.0000 0.0000
# 3 58.9517 27.4549 150.2668 0.0000 0.0000 0.0000
# 4 0.0000 0.0000 0.0000 2.7775 0.0000 0.0000
# 5 0.0000 0.0000 0.0000 0.0000 21.9232 0.0000
# 6 0.0000 0.0000 0.0000 0.0000 0.0000 14.8233
#
#
#
# Elastic Compliance Matrix: (Units=1/GPa)
#
#
# Indices 1 2 3 4 5 6 
#
# 1 0.009169 0.000564 -0.003700 0.000000 0.000000 0.000000
# 2 0.000564 0.038952 -0.007338 0.000000 0.000000 0.000000
# 3 -0.003700 -0.007338 0.009447 0.000000 0.000000 0.000000
# 4 0.000000 0.000000 0.000000 0.360034 0.000000 0.000000
# 5 0.000000 0.000000 0.000000 0.000000 0.045614 0.000000
# 6 0.000000 0.000000 0.000000 0.000000 0.000000 0.067461
#
#
# Mechanical properties :
#
#
# Convention : Reuss Voigt Hill
#
# Bulk Modulus (GPa) = 27.30841 56.05184 41.68013
# Shear Modulus (GPa) = 8.86791 22.41627 15.64209
#
# Velocity S-wave (km/s) = 2.10057 3.33971 2.78981
# Velocity P-wave (km/s) = 4.41260 6.53921 5.57819
#
# Compressibility (1/GPa) = 0.03661875
#
# Stress axis : x y z
#
# Youngs Moduli (GPa) = 109.06654 25.67293 105.85311
#
# Poissons Ratio (x) = -0.01447 0.39165
# Poissons Ratio (y) = -0.06146 0.77673
# Poissons Ratio (z) = 0.40354 0.18838
#
# Static dielectric constant tensor:
#      x y z
#    x 2.035230 0.000000 0.000000 
#    y 0.000000 1.708000 0.000000 
#    z 0.000000 0.000000 1.760960 
# 
# From -- ./inp_files/24691.got.cif
#   From: 2010.05.17/outbox.cif.g08.bks.cpg/sg65_13_cif.got.tgz:24691.got - 2010.06.03 17:01:31.
