data_PCOD9487451
_publ_section_title
;
Structure prediction by ZEFSAII (Michael W. Deem and Ramdas Pophale) SiO2 
 PCOD9487451
Probable space group: C M M M
;
_chemical_formula_sum "Si O2"
_cell_formula_units_Z 78
_cell_length_a 26.128343
_cell_length_b 19.914815
_cell_length_c 7.436196
_cell_angle_alpha 90.000000
_cell_angle_beta 90.000000
_cell_angle_gamma 90.000000
_cell_volume 3869.358534
_symmetry_space_group_name_H-M "C M M M"
_symmetry_group_IT_number 65
_symmetry_cell_setting 'orthorhombic'
loop_
_space_group_symop_operation_xyz
x,y,z
-x,-y,z
x,-y,-z
-x,y,-z
-x,-y,-z
x,y,-z
-x,y,z
x,-y,z
1/2+x,1/2+y,z
1/2-x,1/2-y,z
1/2+x,1/2-y,-z
1/2-x,1/2+y,-z
1/2-x,1/2-y,-z
1/2+x,1/2+y,-z
1/2-x,1/2+y,z
1/2+x,1/2-y,z
loop_
_atom_site_type_symbol
_atom_site_label
_atom_site_fract_x
_atom_site_fract_y
_atom_site_fract_z
Si Si1 0.270158 0.138780 0.216949
Si Si2 0.369401 0.780818 0.783401
Si Si3 0.557890 0.150911 0.500000
Si Si4 0.325969 0.000000 0.214227
Si Si5 0.085832 0.500000 0.500000
Si Si6 0.653741 0.367593 0.217207
Si Si7 0.500000 0.500000 0.000000
Si Si8 0.910344 0.000000 0.698596
O O1 0.312316 0.193883 0.270249
O O2 0.294278 0.066562 0.259874
O O3 0.212174 0.140437 0.283169
O O4 0.266941 0.144703 0.000000
O O5 0.410399 0.823205 0.672532
O O6 0.374442 0.702174 0.740240
O O7 0.374288 0.790107 0.000000
O O8 0.500000 0.176857 0.500000
O O9 0.557035 0.070315 0.500000
O O10 0.377506 0.000000 0.326214
O O11 0.335257 0.000000 0.000000
O O12 0.625296 0.433991 0.281522
O O13 0.655641 0.372385 0.000000
O O14 0.454684 0.500000 0.154967
O O15 0.932751 0.000000 0.500000
#
# Coordination Sequence:
#
# PCOD9487451 Si02
#       8
#    16  16   8   8   4  16   2   8
#     4   9  17  34  64  96 133 176 210 255 325 397
#     4  10  22  42  66  95 132 171 217 264 332 396
#     4  12  27  46  64  92 125 169 224 280 321 384
#     4  10  19  34  59  92 126 168 209 252 304 382
#     4  12  23  42  66  84 122 168 216 259 324 376
#     4  10  20  41  68  97 138 174 210 269 328 395
#     4  12  26  56  76  86 128 184 230 298 326 382
#     4  12  26  46  69 102 131 173 235 278 333 388
#
# _framework density 20.158379
#
# number of rings (size 3 to 8) (size 9 to 14) (size 15 to 20)
#    0.000    1.641    3.077    1.538    1.436    4.513 
#    7.385    1.026    0.000    1.846    0.000    0.000 
#    0.000    0.000    0.000    0.000    0.000    0.000 
#
# Total GULP energy -217635.662244 kJ/mol
# GULP energy per Si atom -5580.401596 kJ/mol
# Density = 2.011250 g / cm^3
# Si number density = 20.158379 Si / 1000 Ang^3
#
#
#
# Elastic Constant Matrix: (Units=GPa)
#
#
# Indices 1 2 3 4 5 6 
#
# 1 141.6618 56.7673 46.1125 0.0000 0.0000 0.0000
# 2 56.7673 152.5573 41.7677 0.0000 0.0000 0.0000
# 3 46.1125 41.7677 98.7648 0.0000 0.0000 0.0000
# 4 0.0000 0.0000 0.0000 21.7383 0.0000 0.0000
# 5 0.0000 0.0000 0.0000 0.0000 26.1223 0.0000
# 6 0.0000 0.0000 0.0000 0.0000 0.0000 7.3863
#
#
#
# Elastic Compliance Matrix: (Units=1/GPa)
#
#
# Indices 1 2 3 4 5 6 
#
# 1 0.009104 -0.002515 -0.003187 0.000000 0.000000 0.000000
# 2 -0.002515 0.008108 -0.002255 0.000000 0.000000 0.000000
# 3 -0.003187 -0.002255 0.012567 0.000000 0.000000 0.000000
# 4 0.000000 0.000000 0.000000 0.046002 0.000000 0.000000
# 5 0.000000 0.000000 0.000000 0.000000 0.038282 0.000000
# 6 0.000000 0.000000 0.000000 0.000000 0.000000 0.135385
#
#
# Mechanical properties :
#
#
# Convention : Reuss Voigt Hill
#
# Bulk Modulus (GPa) = 72.12258 75.80877 73.96567
# Shear Modulus (GPa) = 18.51970 27.60515 23.06242
#
# Velocity S-wave (km/s) = 3.03431 3.70457 3.38607
# Velocity P-wave (km/s) = 6.93770 7.48243 7.21521
#
# Compressibility (1/GPa) = 0.01386528
#
# Stress axis : x y z
#
# Youngs Moduli (GPa) = 109.83695 123.33331 79.57634
#
# Poissons Ratio (x) = 0.31021 0.25362
# Poissons Ratio (y) = 0.27626 0.17941
# Poissons Ratio (z) = 0.35006 0.27807
#
# Static dielectric constant tensor:
#      x y z
#    x 1.669820 0.000000 0.000000 
#    y 0.000000 1.705740 0.000000 
#    z 0.000000 0.000000 1.723680 
# 
# From -- ./inp_files/16145.got.cif
#   From: 2010.05.17/outbox.cif.g08.bks.cpg/sg65_9_cif.got.tgz:16145.got - 2010.06.03 17:01:31.
