data_PCOD9487671
_publ_section_title
;
Structure prediction by ZEFSAII (Michael W. Deem and Ramdas Pophale) SiO2 
 PCOD9487671
Probable space group: C M M M
;
_chemical_formula_sum "Si O2"
_cell_formula_units_Z 92
_cell_length_a 19.074691
_cell_length_b 14.342250
_cell_length_c 15.081303
_cell_angle_alpha 90.000000
_cell_angle_beta 90.000000
_cell_angle_gamma 90.000000
_cell_volume 4125.852191
_symmetry_space_group_name_H-M "C M M M"
_symmetry_group_IT_number 65
_symmetry_cell_setting 'orthorhombic'
loop_
_space_group_symop_operation_xyz
x,y,z
-x,-y,z
x,-y,-z
-x,y,-z
-x,-y,-z
x,y,-z
-x,y,z
x,-y,z
1/2+x,1/2+y,z
1/2-x,1/2-y,z
1/2+x,1/2-y,-z
1/2-x,1/2+y,-z
1/2-x,1/2-y,-z
1/2+x,1/2+y,-z
1/2-x,1/2+y,z
1/2+x,1/2-y,z
loop_
_atom_site_type_symbol
_atom_site_label
_atom_site_fract_x
_atom_site_fract_y
_atom_site_fract_z
Si Si1 0.907113 0.500000 0.000000
Si Si2 0.644421 0.199514 0.335145
Si Si3 0.768922 0.893338 0.895134
Si Si4 0.881998 0.665034 0.860621
Si Si5 0.081365 0.601964 0.500000
Si Si6 0.576128 0.632835 0.897790
Si Si7 0.708278 0.610992 0.608366
O O1 0.905343 0.419407 0.078101
O O2 0.607628 0.168874 0.244428
O O3 0.600752 0.160727 0.415486
O O4 0.656253 0.310639 0.350223
O O5 0.718601 0.145058 0.348003
O O6 0.703554 0.831242 0.865941
O O7 0.847673 0.891803 0.856604
O O8 0.743515 0.000000 0.885750
O O9 0.776622 0.874367 0.000000
O O10 0.918113 0.756375 0.898131
O O11 0.117954 0.500000 0.500000
O O12 0.000000 0.588309 0.500000
O O13 0.500000 0.605895 0.859081
O O14 0.576532 0.599977 0.000000
O O15 0.711273 0.623575 0.500000
O O16 0.695870 0.500000 0.625049
#
# Coordination Sequence:
#
# PCOD9487671 Si02
#       7
#     4  16  16  16   8  16  16
#     4  12  24  44  63  98 133 178 238 290 360 406
#     4  11  23  39  65 100 133 176 222 279 346 409
#     4  10  19  36  60  86 118 158 215 279 335 398
#     4  12  23  40  65  92 128 173 226 290 345 404
#     4  11  24  43  65  95 141 187 227 276 338 417
#     4  10  22  39  57  81 119 166 215 273 340 404
#     4  10  20  39  67 100 136 166 212 279 347 417
#
# _framework density 22.298423
#
# number of rings (size 3 to 8) (size 9 to 14) (size 15 to 20)
#    0.000    1.304    4.348    1.565    7.304    2.435 
#    0.000    2.609    0.000    1.043    0.000    0.000 
#    0.000    0.000    0.000    0.000    0.000    0.000 
#
# Total GULP energy -256107.457169 kJ/mol
# GULP energy per Si atom -5567.553417 kJ/mol
# Density = 2.224767 g / cm^3
# Si number density = 22.298423 Si / 1000 Ang^3
#
#
#
# Elastic Constant Matrix: (Units=GPa)
#
#
# Indices 1 2 3 4 5 6 
#
# 1 92.4483 16.5069 -0.0445 0.0000 0.0000 0.0000
# 2 16.5069 180.9397 66.3832 0.0000 0.0000 0.0000
# 3 -0.0445 66.3832 150.0271 0.0000 0.0000 0.0000
# 4 0.0000 0.0000 0.0000 -100.3607 0.0000 0.0000
# 5 0.0000 0.0000 0.0000 0.0000 -65.6915 0.0000
# 6 0.0000 0.0000 0.0000 0.0000 0.0000 52.1184
#
#
#
# Elastic Compliance Matrix: (Units=1/GPa)
#
#
# Indices 1 2 3 4 5 6 
#
# 1 0.011032 -0.001203 0.000536 0.000000 0.000000 0.000000
# 2 -0.001203 0.006729 -0.002978 0.000000 0.000000 0.000000
# 3 0.000536 -0.002978 0.007983 0.000000 0.000000 0.000000
# 4 0.000000 0.000000 0.000000 -0.009964 0.000000 0.000000
# 5 0.000000 0.000000 0.000000 0.000000 -0.015223 0.000000
# 6 0.000000 0.000000 0.000000 0.000000 0.000000 0.019187
#
#
# Mechanical properties :
#
#
# Convention : Reuss Voigt Hill
#
# Bulk Modulus (GPa) = 54.18943 65.45625 59.82284
# Shear Modulus (GPa) = 150.66688 -0.08211 75.29239
#
# Velocity S-wave (km/s) = 8.22892 -0.19210 5.81714
# Velocity P-wave (km/s) = 10.70707 5.41933 8.48559
#
# Compressibility (1/GPa) = 0.01845378
#
# Stress axis : x y z
#
# Youngs Moduli (GPa) = 90.64630 148.61246 125.26323
#
# Poissons Ratio (x) = 0.17877 -0.06708
# Poissons Ratio (y) = 0.10904 0.37300
# Poissons Ratio (z) = -0.04854 0.44253
#
# Static dielectric constant tensor:
#      x y z
#    x 1.900960 0.000000 0.000000 
#    y 0.000000 1.872000 0.000000 
#    z 0.000000 0.000000 1.840490 
# 
# From -- ./inp_files/44167.got.cif
#   From: 2010.05.17/outbox.cif.g08.bks.cpg/sg65_23_cif.got.tgz:44167.got - 2010.06.03 17:01:31.
