data_PCOD9487883
_publ_section_title
;
Structure prediction by ZEFSAII (Michael W. Deem and Ramdas Pophale) SiO2 
 PCOD9487883
Probable space group: C M M M
;
_chemical_formula_sum "Si O2"
_cell_formula_units_Z 56
_cell_length_a 18.670673
_cell_length_b 7.452157
_cell_length_c 20.885288
_cell_angle_alpha 90.000000
_cell_angle_beta 90.000000
_cell_angle_gamma 90.000000
_cell_volume 2905.911857
_symmetry_space_group_name_H-M "C M M M"
_symmetry_group_IT_number 65
_symmetry_cell_setting 'orthorhombic'
loop_
_space_group_symop_operation_xyz
x,y,z
-x,-y,z
x,-y,-z
-x,y,-z
-x,-y,-z
x,y,-z
-x,y,z
x,-y,z
1/2+x,1/2+y,z
1/2-x,1/2-y,z
1/2+x,1/2-y,-z
1/2-x,1/2+y,-z
1/2-x,1/2-y,-z
1/2+x,1/2+y,-z
1/2-x,1/2+y,z
1/2+x,1/2-y,z
loop_
_atom_site_type_symbol
_atom_site_label
_atom_site_fract_x
_atom_site_fract_y
_atom_site_fract_z
Si Si1 0.916762 0.281294 0.071259
Si Si2 0.165971 0.285683 0.804104
Si Si3 0.413053 0.500000 0.572678
Si Si4 0.085522 0.711963 0.323451
O O1 0.914705 0.500000 0.071052
O O2 0.869357 0.216605 0.130323
O O3 0.000000 0.231280 0.080230
O O4 0.893817 0.223128 0.000000
O O5 0.154997 0.500000 0.804525
O O6 0.250000 0.250000 0.802022
O O7 0.126444 0.222370 0.739897
O O8 0.500000 0.500000 0.569443
O O9 0.386066 0.500000 0.500000
O O10 0.392868 0.326957 0.614786
O O11 0.099143 0.500000 0.332815
O O12 0.000000 0.734027 0.313494
#
# Coordination Sequence:
#
# PCOD9487883 Si02
#       4
#    16  16   8  16
#     4   8  14  27  48  71  96 129 171 216 257 303
#     4  10  20  31  47  73 100 134 172 212 258 305
#     4   9  18  32  54  84 109 131 164 209 263 313
#     4   9  18  33  53  77 104 136 173 214 256 305
#
# _framework density 19.271059000000001
#
# number of rings (size 3 to 8) (size 9 to 14) (size 15 to 20)
#    0.000    3.000    0.000    1.714    2.000    4.571 
#    0.000    2.857    0.000    0.857    0.000    2.000 
#    0.000    0.000    0.000    0.000    0.000    0.000 
#
# Total GULP energy -156183.930232 kJ/mol
# GULP energy per Si atom -5577.997508 kJ/mol
# Density = 1.922720 g / cm^3
# Si number density = 19.271059 Si / 1000 Ang^3
#
#
#
# Elastic Constant Matrix: (Units=GPa)
#
#
# Indices 1 2 3 4 5 6 
#
# 1 62.5866 24.9606 89.2130 0.0000 0.0000 0.0000
# 2 24.9606 72.6335 58.1619 0.0000 0.0000 0.0000
# 3 89.2130 58.1619 240.2289 0.0000 0.0000 0.0000
# 4 0.0000 0.0000 0.0000 -47.1325 0.0000 0.0000
# 5 0.0000 0.0000 0.0000 0.0000 -4.3426 0.0000
# 6 0.0000 0.0000 0.0000 0.0000 0.0000 16.3541
#
#
#
# Elastic Compliance Matrix: (Units=1/GPa)
#
#
# Indices 1 2 3 4 5 6 
#
# 1 0.034173 -0.001962 -0.012216 0.000000 0.000000 0.000000
# 2 -0.001962 0.017191 -0.003434 0.000000 0.000000 0.000000
# 3 -0.012216 -0.003434 0.009531 0.000000 0.000000 0.000000
# 4 0.000000 0.000000 0.000000 -0.021217 0.000000 0.000000
# 5 0.000000 0.000000 0.000000 0.000000 -0.230276 0.000000
# 6 0.000000 0.000000 0.000000 0.000000 0.000000 0.061147
#
#
# Mechanical properties :
#
#
# Convention : Reuss Voigt Hill
#
# Bulk Modulus (GPa) = 38.95193 80.01333 59.48263
# Shear Modulus (GPa) = -58.36274 6.51669 -25.92303
#
# Velocity S-wave (km/s) = -5.50917 1.84091 -3.67165
# Velocity P-wave (km/s) = 4.49570 6.79181 3.59981
#
# Compressibility (1/GPa) = 0.02567267
#
# Stress axis : x y z
#
# Youngs Moduli (GPa) = 29.26285 58.16829 104.92548
#
# Poissons Ratio (x) = 0.11411 1.28175
# Poissons Ratio (y) = 0.05741 0.36029
# Poissons Ratio (z) = 0.35747 0.19973
#
# Static dielectric constant tensor:
#      x y z
#    x 1.631000 0.000000 0.000000 
#    y 0.000000 1.728460 0.000000 
#    z 0.000000 0.000000 1.667430 
# 
# From -- ./inp_files/48772.got.cif
#   From: 2010.05.17/outbox.cif.g08.bks.cpg/sg65_25_cif.got.tgz:48772.got - 2010.06.03 17:01:31.
