data_PCOD9487116
_publ_section_title
;
Structure prediction by ZEFSAII (Michael W. Deem and Ramdas Pophale) SiO2 
 PCOD9487116
Probable space group: C M M M
;
_chemical_formula_sum "Si O2"
_cell_formula_units_Z 72
_cell_length_a 15.523928
_cell_length_b 8.193811
_cell_length_c 28.989350
_cell_angle_alpha 90.000000
_cell_angle_beta 90.000000
_cell_angle_gamma 90.000000
_cell_volume 3687.449147
_symmetry_space_group_name_H-M "C M M M"
_symmetry_group_IT_number 65
_symmetry_cell_setting 'orthorhombic'
loop_
_space_group_symop_operation_xyz
x,y,z
-x,-y,z
x,-y,-z
-x,y,-z
-x,-y,-z
x,y,-z
-x,y,z
x,-y,z
1/2+x,1/2+y,z
1/2-x,1/2-y,z
1/2+x,1/2-y,-z
1/2-x,1/2+y,-z
1/2-x,1/2-y,-z
1/2+x,1/2+y,-z
1/2-x,1/2+y,z
1/2+x,1/2-y,z
loop_
_atom_site_type_symbol
_atom_site_label
_atom_site_fract_x
_atom_site_fract_y
_atom_site_fract_z
Si Si1 0.395458 0.315975 0.611576
Si Si2 0.000000 0.192369 0.882859
Si Si3 0.605382 0.000000 0.446813
Si Si4 0.846589 0.694927 0.052213
Si Si5 0.000000 0.695854 0.222252
Si Si6 0.844551 0.696703 0.287402
O O1 0.500000 0.313846 0.611924
O O2 0.368339 0.500000 0.597869
O O3 0.366877 0.165810 0.579196
O O4 0.364124 0.276980 0.663139
O O5 0.916500 0.248339 0.911290
O O6 0.000000 0.255751 0.830771
O O7 0.000000 0.000000 0.881013
O O8 0.500000 0.000000 0.445883
O O9 0.632337 0.000000 0.500000
O O10 0.848536 0.500000 0.050928
O O11 0.750000 0.750000 0.063834
O O12 0.866102 0.755759 0.000000
O O13 0.083959 0.750638 0.250572
O O14 0.000000 0.500000 0.224047
O O15 0.849037 0.500000 0.292738
O O16 0.750000 0.750000 0.272290
#
# Coordination Sequence:
#
# PCOD9487116 Si02
#       6
#    16   8   8  16   8  16
#     4  10  19  33  58  87 119 158 201 251 302 362
#     4  12  25  39  60  89 126 168 205 253 312 377
#     4   9  18  32  54  86 124 161 201 249 303 368
#     4  10  21  39  64  92 123 161 210 260 307 367
#     4  10  24  43  63  84 124 166 203 256 317 366
#     4  11  22  39  63  91 119 155 204 255 306 368
#
# _framework density 19.525693
#
# number of rings (size 3 to 8) (size 9 to 14) (size 15 to 20)
#    0.000    1.667    2.222    2.667    0.000    5.778 
#    0.000    4.444    0.000    0.667    0.000    0.000 
#    0.000    0.000    0.000    0.000    0.000    0.000 
#
# Total GULP energy -201180.085446 kJ/mol
# GULP energy per Si atom -5588.335707 kJ/mol
# Density = 1.948125 g / cm^3
# Si number density = 19.525693 Si / 1000 Ang^3
#
#
#
# Elastic Constant Matrix: (Units=GPa)
#
#
# Indices 1 2 3 4 5 6 
#
# 1 101.0854 47.1984 92.8900 0.0000 0.0000 0.0000
# 2 47.1984 94.4635 55.6682 0.0000 0.0000 0.0000
# 3 92.8900 55.6682 170.3080 0.0000 0.0000 0.0000
# 4 0.0000 0.0000 0.0000 16.5265 0.0000 0.0000
# 5 0.0000 0.0000 0.0000 0.0000 -7.7725 0.0000
# 6 0.0000 0.0000 0.0000 0.0000 0.0000 26.4323
#
#
#
# Elastic Compliance Matrix: (Units=1/GPa)
#
#
# Indices 1 2 3 4 5 6 
#
# 1 0.021411 -0.004726 -0.010133 0.000000 0.000000 0.000000
# 2 -0.004726 0.014155 -0.002049 0.000000 0.000000 0.000000
# 3 -0.010133 -0.002049 0.012068 0.000000 0.000000 0.000000
# 4 0.000000 0.000000 0.000000 0.060509 0.000000 0.000000
# 5 0.000000 0.000000 0.000000 0.000000 -0.128659 0.000000
# 6 0.000000 0.000000 0.000000 0.000000 0.000000 0.037832
#
#
# Mechanical properties :
#
#
# Convention : Reuss Voigt Hill
#
# Bulk Modulus (GPa) = 72.37240 84.15222 78.26231
# Shear Modulus (GPa) = 89.70245 18.37729 54.03987
#
# Velocity S-wave (km/s) = 6.78531 3.07120 5.26653
# Velocity P-wave (km/s) = 9.92638 7.46781 8.78354
#
# Compressibility (1/GPa) = 0.01381742
#
# Stress axis : x y z
#
# Youngs Moduli (GPa) = 46.70464 70.64591 82.86125
#
# Poissons Ratio (x) = 0.33390 0.83965
# Poissons Ratio (y) = 0.22074 0.16978
# Poissons Ratio (z) = 0.47327 0.14475
#
# Static dielectric constant tensor:
#      x y z
#    x 1.684160 0.000000 0.000000 
#    y 0.000000 1.686980 0.000000 
#    z 0.000000 0.000000 1.683490 
# 
# From -- ./inp_files/74686.got.cif
#   From: 2010.05.17/outbox.cif.g08.bks.cpg/sg65_38_cif.got.tgz:74686.got - 2010.06.03 17:01:31.
