data_PCOD9487089
_publ_section_title
;
Structure prediction by ZEFSAII (Michael W. Deem and Ramdas Pophale) SiO2 
 PCOD9487089
Probable space group: C M M M
;
_chemical_formula_sum "Si O2"
_cell_formula_units_Z 50
_cell_length_a 8.031684
_cell_length_b 15.663715
_cell_length_c 19.010689
_cell_angle_alpha 90.000000
_cell_angle_beta 90.000000
_cell_angle_gamma 90.000000
_cell_volume 2391.658914
_symmetry_space_group_name_H-M "C M M M"
_symmetry_group_IT_number 65
_symmetry_cell_setting 'orthorhombic'
loop_
_space_group_symop_operation_xyz
x,y,z
-x,-y,z
x,-y,-z
-x,y,-z
-x,-y,-z
x,y,-z
-x,y,z
x,-y,z
1/2+x,1/2+y,z
1/2-x,1/2-y,z
1/2+x,1/2-y,-z
1/2-x,1/2+y,-z
1/2-x,1/2-y,-z
1/2+x,1/2+y,-z
1/2-x,1/2+y,z
1/2+x,1/2-y,z
loop_
_atom_site_type_symbol
_atom_site_label
_atom_site_fract_x
_atom_site_fract_y
_atom_site_fract_z
Si Si1 0.692341 0.156195 0.700007
Si Si2 0.500000 0.000000 0.500000
Si Si3 0.687693 0.500000 0.611704
Si Si4 0.697388 0.600449 0.151489
Si Si5 0.301123 0.099655 0.000000
O O1 0.500000 0.144447 0.682134
O O2 0.750000 0.250000 0.678481
O O3 0.715031 0.146122 0.783781
O O4 0.794956 0.082968 0.661215
O O5 0.651984 0.000000 0.560374
O O6 0.500000 0.500000 0.580825
O O7 0.500000 0.604779 0.162470
O O8 0.748305 0.500000 0.153111
O O9 0.738392 0.635694 0.074006
O O10 0.500000 0.101132 0.000000
O O11 0.243468 0.000000 0.000000
#
# Coordination Sequence:
#
# PCOD9487089 Si02
#       5
#    16   2   8  16   8
#     4  12  24  42  69 103 140 182 234 284 340 406
#     4  12  26  52  80 114 140 188 222 264 348 414
#     4  12  25  49  79 109 146 182 224 280 333 409
#     4  10  19  33  56  88 126 176 228 285 343 403
#     4   9  17  29  48  79 122 170 227 284 342 400
#
# _framework density 20.905992000000001
#
# number of rings (size 3 to 8) (size 9 to 14) (size 15 to 20)
#    0.000    1.120    3.200    4.560    0.000    3.200 
#    0.000    1.600    0.000    0.000    0.000    0.000 
#    0.000    0.000    0.000    0.000    0.000    0.000 
#
# Total GULP energy -139474.310944 kJ/mol
# GULP energy per Si atom -5578.972438 kJ/mol
# Density = 2.085841 g / cm^3
# Si number density = 20.905992 Si / 1000 Ang^3
#
#
#
# Elastic Constant Matrix: (Units=GPa)
#
#
# Indices 1 2 3 4 5 6 
#
# 1 127.9288 27.8476 35.0391 0.0000 0.0000 0.0000
# 2 27.8476 105.0182 32.6179 0.0000 0.0000 0.0000
# 3 35.0391 32.6179 104.6321 0.0000 0.0000 0.0000
# 4 0.0000 0.0000 0.0000 -8.9332 0.0000 0.0000
# 5 0.0000 0.0000 0.0000 0.0000 26.0663 0.0000
# 6 0.0000 0.0000 0.0000 0.0000 0.0000 19.0550
#
#
#
# Elastic Compliance Matrix: (Units=1/GPa)
#
#
# Indices 1 2 3 4 5 6 
#
# 1 0.008836 -0.001577 -0.002467 0.000000 0.000000 0.000000
# 2 -0.001577 0.010824 -0.002846 0.000000 0.000000 0.000000
# 3 -0.002467 -0.002846 0.011271 0.000000 0.000000 0.000000
# 4 0.000000 0.000000 0.000000 -0.111942 0.000000 0.000000
# 5 0.000000 0.000000 0.000000 0.000000 0.038364 0.000000
# 6 0.000000 0.000000 0.000000 0.000000 0.000000 0.052480
#
#
# Mechanical properties :
#
#
# Convention : Reuss Voigt Hill
#
# Bulk Modulus (GPa) = 58.30841 58.73201 58.52021
# Shear Modulus (GPa) = 170.47385 23.37594 96.92489
#
# Velocity S-wave (km/s) = 9.03992 3.34750 6.81637
# Velocity P-wave (km/s) = 11.70092 6.56470 9.48701
#
# Compressibility (1/GPa) = 0.01715018
#
# Stress axis : x y z
#
# Youngs Moduli (GPa) = 113.17506 92.38475 88.72395
#
# Poissons Ratio (x) = 0.14566 0.21892
# Poissons Ratio (y) = 0.17844 0.25254
# Poissons Ratio (z) = 0.27925 0.26296
#
# Static dielectric constant tensor:
#      x y z
#    x 1.730710 0.000000 0.000000 
#    y 0.000000 1.767590 0.000000 
#    z 0.000000 0.000000 1.741550 
# 
# From -- ./inp_files/48525.got.cif
#   From: 2010.05.17/outbox.cif.g08.bks.cpg/sg65_25_cif.got.tgz:48525.got - 2010.06.03 17:01:31.
