data_PCOD9487460
_publ_section_title
;
Structure prediction by ZEFSAII (Michael W. Deem and Ramdas Pophale) SiO2 
 PCOD9487460
Probable space group: C M M M
;
_chemical_formula_sum "Si O2"
_cell_formula_units_Z 104
_cell_length_a 28.205110
_cell_length_b 22.216432
_cell_length_c 9.010993
_cell_angle_alpha 90.000000
_cell_angle_beta 90.000000
_cell_angle_gamma 90.000000
_cell_volume 5646.440575
_symmetry_space_group_name_H-M "C M M M"
_symmetry_group_IT_number 65
_symmetry_cell_setting 'orthorhombic'
loop_
_space_group_symop_operation_xyz
x,y,z
-x,-y,z
x,-y,-z
-x,y,-z
-x,-y,-z
x,y,-z
-x,y,z
x,-y,z
1/2+x,1/2+y,z
1/2-x,1/2-y,z
1/2+x,1/2-y,-z
1/2-x,1/2+y,-z
1/2-x,1/2-y,-z
1/2+x,1/2+y,-z
1/2-x,1/2+y,z
1/2+x,1/2-y,z
loop_
_atom_site_type_symbol
_atom_site_label
_atom_site_fract_x
_atom_site_fract_y
_atom_site_fract_z
Si Si1 0.054720 0.871418 0.321212
Si Si2 0.297338 0.500000 0.821225
Si Si3 0.232897 0.868455 0.822558
Si Si4 0.000000 0.573132 0.170354
Si Si5 0.098899 0.000000 0.321841
Si Si6 0.597926 0.930486 0.678253
Si Si7 0.136991 0.794667 0.822884
Si Si8 0.171649 0.672424 0.677688
O O1 0.058752 0.865547 0.500000
O O2 0.070740 0.939390 0.282095
O O3 0.090561 0.825745 0.243756
O O4 0.000000 0.861711 0.280438
O O5 0.270928 0.561439 0.778466
O O6 0.349753 0.500000 0.753144
O O7 0.301890 0.500000 0.000000
O O8 0.182466 0.837299 0.791458
O O9 0.275529 0.835977 0.739406
O O10 0.241000 0.864735 0.000000
O O11 0.048438 0.591153 0.251261
O O12 0.000000 0.500000 0.173551
O O13 0.000000 0.592840 0.000000
O O14 0.104986 0.000000 0.500000
O O15 0.592886 0.929895 0.500000
O O16 0.640654 0.886365 0.718497
O O17 0.606502 0.000000 0.723938
O O18 0.147706 0.730756 0.749091
O O19 0.132982 0.788672 0.000000
O O20 0.172357 0.677933 0.500000
#
# Coordination Sequence:
#
# PCOD9487460 Si02
#       8
#    16   8  16   8   8  16  16  16
#     4  10  21  38  61  90 124 160 201 250 302 353
#     4  10  20  37  59  87 122 159 197 242 299 356
#     4  10  22  39  60  85 117 156 195 239 292 347
#     4   9  17  31  55  85 111 139 177 222 271 328
#     4  10  19  34  60  92 124 158 199 249 301 350
#     4   9  19  37  58  81 111 146 182 227 284 344
#     4  11  23  41  62  83 116 158 202 244 289 350
#     4  11  24  39  60  88 117 151 194 241 294 352
#
# _framework density 18.418683000000001
#
# number of rings (size 3 to 8) (size 9 to 14) (size 15 to 20)
#    0.000    1.923    1.538    1.846    1.077    7.077 
#    1.385    0.000    0.000    1.385    0.000    0.000 
#    0.000    0.000    0.000    0.000    0.000    0.000 
#
# Total GULP energy -290441.413525 kJ/mol
# GULP energy per Si atom -5585.411799 kJ/mol
# Density = 1.837676 g / cm^3
# Si number density = 18.418683 Si / 1000 Ang^3
#
#
#
# Elastic Constant Matrix: (Units=GPa)
#
#
# Indices 1 2 3 4 5 6 
#
# 1 135.2755 67.6859 48.6971 0.0000 0.0000 0.0000
# 2 67.6859 123.5943 44.9056 0.0000 0.0000 0.0000
# 3 48.6971 44.9056 31.1429 0.0000 0.0000 0.0000
# 4 0.0000 0.0000 0.0000 23.9725 0.0000 0.0000
# 5 0.0000 0.0000 0.0000 0.0000 197.3108 0.0000
# 6 0.0000 0.0000 0.0000 0.0000 0.0000 10.7447
#
#
#
# Elastic Compliance Matrix: (Units=1/GPa)
#
#
# Indices 1 2 3 4 5 6 
#
# 1 0.016943 0.000729 -0.027544 0.000000 0.000000 0.000000
# 2 0.000729 0.017025 -0.025689 0.000000 0.000000 0.000000
# 3 -0.027544 -0.025689 0.112222 0.000000 0.000000 0.000000
# 4 0.000000 0.000000 0.000000 0.041714 0.000000 0.000000
# 5 0.000000 0.000000 0.000000 0.000000 0.005068 0.000000
# 6 0.000000 0.000000 0.000000 0.000000 0.000000 0.093069
#
#
# Mechanical properties :
#
#
# Convention : Reuss Voigt Hill
#
# Bulk Modulus (GPa) = 24.28293 68.06556 46.17425
# Shear Modulus (GPa) = 12.35244 54.98721 33.66983
#
# Velocity S-wave (km/s) = 2.59250 5.46981 4.28018
# Velocity P-wave (km/s) = 4.70891 8.77078 7.03919
#
# Compressibility (1/GPa) = 0.04118119
#
# Stress axis : x y z
#
# Youngs Moduli (GPa) = 59.02063 58.73583 8.91094
#
# Poissons Ratio (x) = -0.04281 0.24545
# Poissons Ratio (y) = -0.04302 0.22891
# Poissons Ratio (z) = 1.62569 1.50886
#
# Static dielectric constant tensor:
#      x y z
#    x 1.601320 0.000000 0.000000 
#    y 0.000000 1.631920 0.000000 
#    z 0.000000 0.000000 1.616430 
# 
# From -- ./inp_files/16548.got.cif
#   From: 2010.05.17/outbox.cif.g08.bks.cpg/sg65_9_cif.got.tgz:16548.got - 2010.06.03 17:01:31.
