data_PCOD9487247
_publ_section_title
;
Structure prediction by ZEFSAII (Michael W. Deem and Ramdas Pophale) SiO2 
 PCOD9487247
Probable space group: C M M M
;
_chemical_formula_sum "Si O2"
_cell_formula_units_Z 104
_cell_length_a 28.387717
_cell_length_b 14.650074
_cell_length_c 14.418039
_cell_angle_alpha 90.000000
_cell_angle_beta 90.000000
_cell_angle_gamma 90.000000
_cell_volume 5996.205126
_symmetry_space_group_name_H-M "C M M M"
_symmetry_group_IT_number 65
_symmetry_cell_setting 'orthorhombic'
loop_
_space_group_symop_operation_xyz
x,y,z
-x,-y,z
x,-y,-z
-x,y,-z
-x,-y,-z
x,y,-z
-x,y,z
x,-y,z
1/2+x,1/2+y,z
1/2-x,1/2-y,z
1/2+x,1/2-y,-z
1/2-x,1/2+y,-z
1/2-x,1/2-y,-z
1/2+x,1/2+y,-z
1/2-x,1/2+y,z
1/2+x,1/2-y,z
loop_
_atom_site_type_symbol
_atom_site_label
_atom_site_fract_x
_atom_site_fract_y
_atom_site_fract_z
Si Si1 0.178305 0.389996 0.801902
Si Si2 0.155229 0.604352 0.399391
Si Si3 0.054369 0.166870 0.259888
Si Si4 0.051085 0.338493 0.604755
Si Si5 0.720411 0.605868 0.109823
Si Si6 0.870864 0.773164 0.889833
Si Si7 0.557264 0.500000 0.607756
O O1 0.169275 0.500000 0.806069
O O2 0.174942 0.356200 0.695555
O O3 0.230779 0.373810 0.839364
O O4 0.141153 0.330718 0.860339
O O5 0.166010 0.647388 0.500000
O O6 0.171851 0.500000 0.402659
O O7 0.098499 0.603973 0.389058
O O8 0.054143 0.258953 0.320518
O O9 0.087546 0.184356 0.172000
O O10 0.000000 0.146771 0.232951
O O11 0.070923 0.087722 0.330579
O O12 0.051295 0.298879 0.500000
O O13 0.000000 0.385248 0.615590
O O14 0.707925 0.500000 0.128100
O O15 0.676809 0.670487 0.132337
O O16 0.729676 0.615274 0.000000
O O17 0.879796 0.779531 0.000000
O O18 0.500000 0.500000 0.603021
O O19 0.573719 0.500000 0.500000
#
# Coordination Sequence:
#
# PCOD9487247 Si02
#       7
#    16  16  16  16  16  16   8
#     4  10  19  34  55  79 104 139 180 225 271 316
#     4   9  17  29  47  73 103 135 170 208 258 316
#     4  10  20  34  52  78 108 140 174 212 262 319
#     4   9  16  28  48  72  99 131 169 213 255 298
#     4   9  19  35  56  80 102 128 172 228 277 320
#     4  11  22  35  54  79 108 142 180 225 271 317
#     4   9  18  34  57  81 105 137 178 222 267 317
#
# _framework density 17.344303
#
# number of rings (size 3 to 8) (size 9 to 14) (size 15 to 20)
#    0.000    2.385    1.538    1.385    1.077    4.615 
#    0.000    1.538    0.000    5.538    0.000    1.077 
#    0.000    0.000    0.000    0.000    0.000    0.000 
#
# Total GULP energy -289544.900667 kJ/mol
# GULP energy per Si atom -5568.171167 kJ/mol
# Density = 1.730483 g / cm^3
# Si number density = 17.344303 Si / 1000 Ang^3
#
#
#
# Elastic Constant Matrix: (Units=GPa)
#
#
# Indices 1 2 3 4 5 6 
#
# 1 66.5701 28.3683 54.7863 0.0000 0.0000 0.0000
# 2 28.3683 54.2317 44.5630 0.0000 0.0000 0.0000
# 3 54.7863 44.5630 112.9224 0.0000 0.0000 0.0000
# 4 0.0000 0.0000 0.0000 19.9414 0.0000 0.0000
# 5 0.0000 0.0000 0.0000 0.0000 20.9038 0.0000
# 6 0.0000 0.0000 0.0000 0.0000 0.0000 20.1103
#
#
#
# Elastic Compliance Matrix: (Units=1/GPa)
#
#
# Indices 1 2 3 4 5 6 
#
# 1 0.025808 -0.004752 -0.010646 0.000000 0.000000 0.000000
# 2 -0.004752 0.028163 -0.008809 0.000000 0.000000 0.000000
# 3 -0.010646 -0.008809 0.017497 0.000000 0.000000 0.000000
# 4 0.000000 0.000000 0.000000 0.050147 0.000000 0.000000
# 5 0.000000 0.000000 0.000000 0.000000 0.047838 0.000000
# 6 0.000000 0.000000 0.000000 0.000000 0.000000 0.049726
#
#
# Mechanical properties :
#
#
# Convention : Reuss Voigt Hill
#
# Bulk Modulus (GPa) = 43.37450 54.35106 48.86278
# Shear Modulus (GPa) = 18.16343 19.25821 18.71082
#
# Velocity S-wave (km/s) = 3.23960 3.33580 3.28805
# Velocity P-wave (km/s) = 6.24944 6.80010 6.53058
#
# Compressibility (1/GPa) = 0.02305502
#
# Stress axis : x y z
#
# Youngs Moduli (GPa) = 38.74707 35.50703 57.15288
#
# Poissons Ratio (x) = 0.16874 0.60845
# Poissons Ratio (y) = 0.18414 0.50344
# Poissons Ratio (z) = 0.41250 0.31277
#
# Static dielectric constant tensor:
#      x y z
#    x 1.583270 0.000000 0.000000 
#    y 0.000000 1.620570 0.000000 
#    z 0.000000 0.000000 1.602660 
# 
# From -- ./inp_files/45758.got.cif
#   From: 2010.05.17/outbox.cif.g08.bks.cpg/sg65_23_cif.got.tgz:45758.got - 2010.06.03 17:01:31.
