data_PCOD9487873
_publ_section_title
;
Structure prediction by ZEFSAII (Michael W. Deem and Ramdas Pophale) SiO2 
 PCOD9487873
Probable space group: C M M M
;
_chemical_formula_sum "Si O2"
_cell_formula_units_Z 80
_cell_length_a 28.479513
_cell_length_b 13.310123
_cell_length_c 12.211625
_cell_angle_alpha 90.000000
_cell_angle_beta 90.000000
_cell_angle_gamma 90.000000
_cell_volume 4629.009656
_symmetry_space_group_name_H-M "C M M M"
_symmetry_group_IT_number 65
_symmetry_cell_setting 'orthorhombic'
loop_
_space_group_symop_operation_xyz
x,y,z
-x,-y,z
x,-y,-z
-x,y,-z
-x,-y,-z
x,y,-z
-x,y,z
x,-y,z
1/2+x,1/2+y,z
1/2-x,1/2-y,z
1/2+x,1/2-y,-z
1/2-x,1/2+y,-z
1/2-x,1/2-y,-z
1/2+x,1/2+y,-z
1/2-x,1/2+y,z
1/2+x,1/2-y,z
loop_
_atom_site_type_symbol
_atom_site_label
_atom_site_fract_x
_atom_site_fract_y
_atom_site_fract_z
Si Si1 0.260499 0.387015 0.500000
Si Si2 0.782958 0.121231 0.739329
Si Si3 0.130132 0.259637 0.725059
Si Si4 0.556183 0.383592 0.629018
Si Si5 0.351260 0.882516 0.500000
Si Si6 0.311849 0.120126 0.876226
O O1 0.279773 0.500000 0.500000
O O2 0.276607 0.343991 0.386211
O O3 0.204862 0.391223 0.500000
O O4 0.830694 0.178312 0.765527
O O5 0.735245 0.144590 0.805861
O O6 0.788137 0.000000 0.744614
O O7 0.083517 0.194936 0.704542
O O8 0.136745 0.319704 0.609664
O O9 0.140863 0.342811 0.816885
O O10 0.568116 0.366514 0.500000
O O11 0.500000 0.374352 0.639036
O O12 0.568952 0.500000 0.653118
O O13 0.368903 0.000000 0.500000
O O14 0.312886 0.000000 0.879693
O O15 0.307518 0.159293 0.000000
#
# Coordination Sequence:
#
# PCOD9487873 Si02
#       6
#     8  16  16  16   8  16
#     4   9  17  29  41  62 103 141 164 200 254 305
#     4  10  20  31  46  74 108 137 175 220 261 309
#     4  12  20  31  55  78 100 139 185 218 257 312
#     4   9  19  36  56  82 115 141 164 205 265 327
#     4  11  21  31  45  72 107 141 175 216 264 312
#     4  10  22  38  52  71 106 148 183 219 263 307
#
# _framework density 17.282315000000001
#
# number of rings (size 3 to 8) (size 9 to 14) (size 15 to 20)
#    0.000    1.800    3.000    3.000    0.000    2.400 
#    0.000    0.000    0.000    5.400    0.000    2.800 
#    0.000    0.000    0.000    0.000    0.000    0.000 
#
# Total GULP energy -222673.719304 kJ/mol
# GULP energy per Si atom -5566.842983 kJ/mol
# Density = 1.724298 g / cm^3
# Si number density = 17.282315 Si / 1000 Ang^3
#
#
#
# Elastic Constant Matrix: (Units=GPa)
#
#
# Indices 1 2 3 4 5 6 
#
# 1 43.4166 22.5456 16.7540 0.0000 0.0000 0.0000
# 2 22.5456 80.4064 11.8847 0.0000 0.0000 0.0000
# 3 16.7540 11.8847 90.5208 0.0000 0.0000 0.0000
# 4 0.0000 0.0000 0.0000 -0.3564 0.0000 0.0000
# 5 0.0000 0.0000 0.0000 0.0000 187.5753 0.0000
# 6 0.0000 0.0000 0.0000 0.0000 0.0000 33.5169
#
#
#
# Elastic Compliance Matrix: (Units=1/GPa)
#
#
# Indices 1 2 3 4 5 6 
#
# 1 0.028518 -0.007359 -0.004312 0.000000 0.000000 0.000000
# 2 -0.007359 0.014582 -0.000552 0.000000 0.000000 0.000000
# 3 -0.004312 -0.000552 0.011918 0.000000 0.000000 0.000000
# 4 0.000000 0.000000 0.000000 -2.805649 0.000000 0.000000
# 5 0.000000 0.000000 0.000000 0.000000 0.005331 0.000000
# 6 0.000000 0.000000 0.000000 0.000000 0.000000 0.029836
#
#
# Mechanical properties :
#
#
# Convention : Reuss Voigt Hill
#
# Bulk Modulus (GPa) = 32.71099 35.19026 33.95063
# Shear Modulus (GPa) = -1.86510 55.02445 26.57968
#
# Velocity S-wave (km/s) = -1.03997 5.64869 3.92595
# Velocity P-wave (km/s) = 4.18646 7.93409 6.34335
#
# Compressibility (1/GPa) = 0.03057076
#
# Stress axis : x y z
#
# Youngs Moduli (GPa) = 35.06547 68.57820 83.90792
#
# Poissons Ratio (x) = 0.50466 0.36182
# Poissons Ratio (y) = 0.25805 0.04636
# Poissons Ratio (z) = 0.15121 0.03789
#
# Static dielectric constant tensor:
#      x y z
#    x 1.564710 0.000000 0.000000 
#    y 0.000000 1.676530 0.000000 
#    z 0.000000 0.000000 1.637010 
# 
# From -- ./inp_files/25047.got.cif
#   From: 2010.05.17/outbox.cif.g08.bks.cpg/sg65_13_cif.got.tgz:25047.got - 2010.06.03 17:01:31.
