data_PCOD9487306
_publ_section_title
;
Structure prediction by ZEFSAII (Michael W. Deem and Ramdas Pophale) SiO2 
 PCOD9487306
Probable space group: C M M M
;
_chemical_formula_sum "Si O2"
_cell_formula_units_Z 88
_cell_length_a 29.385422
_cell_length_b 19.080587
_cell_length_c 7.713329
_cell_angle_alpha 90.000000
_cell_angle_beta 90.000000
_cell_angle_gamma 90.000000
_cell_volume 4324.794929
_symmetry_space_group_name_H-M "C M M M"
_symmetry_group_IT_number 65
_symmetry_cell_setting 'orthorhombic'
loop_
_space_group_symop_operation_xyz
x,y,z
-x,-y,z
x,-y,-z
-x,y,-z
-x,-y,-z
x,y,-z
-x,y,z
x,-y,z
1/2+x,1/2+y,z
1/2-x,1/2-y,z
1/2+x,1/2-y,-z
1/2-x,1/2+y,-z
1/2-x,1/2-y,-z
1/2+x,1/2+y,-z
1/2-x,1/2+y,z
1/2+x,1/2-y,z
loop_
_atom_site_type_symbol
_atom_site_label
_atom_site_fract_x
_atom_site_fract_y
_atom_site_fract_z
Si Si1 0.388859 0.363721 0.291637
Si Si2 0.552052 0.922412 0.791472
Si Si3 0.448696 0.500000 0.205419
Si Si4 0.208310 0.920169 0.288059
Si Si5 0.614972 0.208918 0.292008
Si Si6 0.217614 0.314304 0.288385
O O1 0.387354 0.361330 0.500000
O O2 0.421177 0.429297 0.250637
O O3 0.337365 0.380242 0.231540
O O4 0.401819 0.285594 0.229164
O O5 0.500000 0.912866 0.730235
O O6 0.582930 0.856740 0.744723
O O7 0.567912 0.000000 0.731357
O O8 0.550818 0.924845 0.000000
O O9 0.500000 0.500000 0.280159
O O10 0.452438 0.500000 0.000000
O O11 0.207834 0.919220 0.500000
O O12 0.254737 0.882926 0.233156
O O13 0.205535 0.000000 0.231219
O O14 0.618045 0.214099 0.500000
O O15 0.666193 0.194413 0.226240
O O16 0.215897 0.314336 0.500000
O O17 0.250000 0.250000 0.238249
#
# Coordination Sequence:
#
# PCOD9487306 Si02
#       6
#    16  16   8  16  16  16
#     4  10  19  34  56  80 107 142 181 221 269 325
#     4   9  20  40  61  77 101 145 190 222 266 331
#     4  11  25  41  55  75 105 141 185 237 284 323
#     4   9  15  25  46  74 103 140 181 212 247 305
#     4  10  20  32  55  90 118 139 173 225 278 321
#     4   9  15  26  45  75 113 143 168 207 259 314
#
# _framework density 20.347784999999998
#
# number of rings (size 3 to 8) (size 9 to 14) (size 15 to 20)
#    0.000    2.455    2.727    0.818    0.000    3.636 
#    0.000    6.364    0.000    1.636    0.000    0.000 
#    0.000    0.000    0.000    0.000    0.000    0.000 
#
# Total GULP energy -245427.821612 kJ/mol
# GULP energy per Si atom -5577.905037 kJ/mol
# Density = 2.030147 g / cm^3
# Si number density = 20.347785 Si / 1000 Ang^3
#
#
#
# Elastic Constant Matrix: (Units=GPa)
#
#
# Indices 1 2 3 4 5 6 
#
# 1 134.1545 109.7835 9.0095 0.0000 0.0000 0.0000
# 2 109.7835 218.7964 12.5864 0.0000 0.0000 0.0000
# 3 9.0095 12.5864 32.5189 0.0000 0.0000 0.0000
# 4 0.0000 0.0000 0.0000 -136.9061 0.0000 0.0000
# 5 0.0000 0.0000 0.0000 0.0000 22.8255 0.0000
# 6 0.0000 0.0000 0.0000 0.0000 0.0000 37.0193
#
#
#
# Elastic Compliance Matrix: (Units=1/GPa)
#
#
# Indices 1 2 3 4 5 6 
#
# 1 0.012684 -0.006302 -0.001075 0.000000 0.000000 0.000000
# 2 -0.006302 0.007806 -0.001275 0.000000 0.000000 0.000000
# 3 -0.001075 -0.001275 0.031543 0.000000 0.000000 0.000000
# 4 0.000000 0.000000 0.000000 -0.007304 0.000000 0.000000
# 5 0.000000 0.000000 0.000000 0.000000 0.043811 0.000000
# 6 0.000000 0.000000 0.000000 0.000000 0.000000 0.027013
#
#
# Mechanical properties :
#
#
# Convention : Reuss Voigt Hill
#
# Bulk Modulus (GPa) = 28.79537 72.02538 50.41038
# Shear Modulus (GPa) = 34.61824 1.52711 18.07268
#
# Velocity S-wave (km/s) = 4.12919 0.86726 2.98348
# Velocity P-wave (km/s) = 6.07585 6.03961 6.05775
#
# Compressibility (1/GPa) = 0.03472781
#
# Stress axis : x y z
#
# Youngs Moduli (GPa) = 78.84121 128.10496 31.70305
#
# Poissons Ratio (x) = 0.80736 0.03407
# Poissons Ratio (y) = 0.49689 0.04043
# Poissons Ratio (z) = 0.08473 0.16337
#
# Static dielectric constant tensor:
#      x y z
#    x 1.708920 0.000000 0.000000 
#    y 0.000000 1.750910 0.000000 
#    z 0.000000 0.000000 1.767880 
# 
# From -- ./inp_files/18282.got.cif
#   From: 2010.05.17/outbox.cif.g08.bks.cpg/sg65_10_cif.got.tgz:18282.got - 2010.06.03 17:01:31.
