data_PCOD9487296
_publ_section_title
;
Structure prediction by ZEFSAII (Michael W. Deem and Ramdas Pophale) SiO2 
 PCOD9487296
Probable space group: C M M M
;
_chemical_formula_sum "Si O2"
_cell_formula_units_Z 80
_cell_length_a 20.633729
_cell_length_b 25.049083
_cell_length_c 9.082692
_cell_angle_alpha 90.000000
_cell_angle_beta 90.000000
_cell_angle_gamma 90.000000
_cell_volume 4694.443768
_symmetry_space_group_name_H-M "C M M M"
_symmetry_group_IT_number 65
_symmetry_cell_setting 'orthorhombic'
loop_
_space_group_symop_operation_xyz
x,y,z
-x,-y,z
x,-y,-z
-x,y,-z
-x,-y,-z
x,y,-z
-x,y,z
x,-y,z
1/2+x,1/2+y,z
1/2-x,1/2-y,z
1/2+x,1/2-y,-z
1/2-x,1/2+y,-z
1/2-x,1/2-y,-z
1/2+x,1/2+y,-z
1/2-x,1/2+y,z
1/2+x,1/2-y,z
loop_
_atom_site_type_symbol
_atom_site_label
_atom_site_fract_x
_atom_site_fract_y
_atom_site_fract_z
Si Si1 0.728016 0.500000 0.830606
Si Si2 0.186528 0.712707 0.673938
Si Si3 0.252533 0.615181 0.178453
Si Si4 0.392199 0.381033 0.328204
Si Si5 0.928543 0.776868 0.172976
Si Si6 0.425420 0.500000 0.239846
O O1 0.757163 0.554238 0.768564
O O2 0.648310 0.500000 0.830440
O O3 0.746324 0.500000 0.000000
O O4 0.176482 0.704633 0.500000
O O5 0.250000 0.750000 0.692023
O O6 0.203298 0.657656 0.755703
O O7 0.125980 0.742545 0.746363
O O8 0.323762 0.624905 0.244774
O O9 0.254201 0.618065 0.000000
O O10 0.384305 0.368696 0.500000
O O11 0.431827 0.335022 0.247890
O O12 0.420252 0.441465 0.316180
O O13 0.000000 0.751982 0.185280
O O14 0.912835 0.782802 0.000000
O O15 0.500000 0.500000 0.174605
#
# Coordination Sequence:
#
# PCOD9487296 Si02
#       6
#     8  16  16  16  16   8
#     4   8  18  34  51  76 105 135 173 220 267 312
#     4  11  22  36  57  83 108 139 181 222 267 323
#     4  10  19  34  56  79 106 138 176 221 266 311
#     4  11  21  34  51  72 101 139 183 227 269 312
#     4  11  24  39  55  78 107 141 180 222 271 323
#     4  10  21  33  46  67  98 141 186 224 266 313
#
# _framework density 17.041423000000002
#
# number of rings (size 3 to 8) (size 9 to 14) (size 15 to 20)
#    0.000    1.600    2.000    3.300    0.000    5.000 
#    0.000    1.500    0.000    0.000    0.000    0.700 
#    0.000    5.600    0.000    0.000    0.000    0.000 
#
# Total GULP energy -222703.459593 kJ/mol
# GULP energy per Si atom -5567.586490 kJ/mol
# Density = 1.700264 g / cm^3
# Si number density = 17.041423 Si / 1000 Ang^3
#
#
#
# Elastic Constant Matrix: (Units=GPa)
#
#
# Indices 1 2 3 4 5 6 
#
# 1 86.1005 60.9879 56.5011 0.0000 0.0000 0.0000
# 2 60.9879 120.1732 60.0530 0.0000 0.0000 0.0000
# 3 56.5011 60.0530 119.3529 0.0000 0.0000 0.0000
# 4 0.0000 0.0000 0.0000 11.5807 0.0000 0.0000
# 5 0.0000 0.0000 0.0000 0.0000 24.2894 0.0000
# 6 0.0000 0.0000 0.0000 0.0000 0.0000 14.6113
#
#
#
# Elastic Compliance Matrix: (Units=1/GPa)
#
#
# Indices 1 2 3 4 5 6 
#
# 1 0.021022 -0.007609 -0.006123 0.000000 0.000000 0.000000
# 2 -0.007609 0.013870 -0.003377 0.000000 0.000000 0.000000
# 3 -0.006123 -0.003377 0.012976 0.000000 0.000000 0.000000
# 4 0.000000 0.000000 0.000000 0.086351 0.000000 0.000000
# 5 0.000000 0.000000 0.000000 0.000000 0.041170 0.000000
# 6 0.000000 0.000000 0.000000 0.000000 0.000000 0.068440
#
#
# Mechanical properties :
#
#
# Convention : Reuss Voigt Hill
#
# Bulk Modulus (GPa) = 73.25654 75.63453 74.44554
# Shear Modulus (GPa) = 17.69295 19.96858 18.83077
#
# Velocity S-wave (km/s) = 3.22566 3.42682 3.32776
# Velocity P-wave (km/s) = 7.54677 7.75478 7.65148
#
# Compressibility (1/GPa) = 0.01365066
#
# Stress axis : x y z
#
# Youngs Moduli (GPa) = 47.56871 72.09641 77.06269
#
# Poissons Ratio (x) = 0.54857 0.47189
# Poissons Ratio (y) = 0.36194 0.26024
# Poissons Ratio (z) = 0.29128 0.24347
#
# Static dielectric constant tensor:
#      x y z
#    x 1.586430 0.000000 0.000000 
#    y 0.000000 1.622180 0.000000 
#    z 0.000000 0.000000 1.575910 
# 
# From -- ./inp_files/11545.got.cif
#   From: 2010.05.17/outbox.cif.g08.bks.cpg/sg65_6_cif.got.tgz:11545.got - 2010.06.03 17:01:31.
