data_PCOD9487285
_publ_section_title
;
Structure prediction by ZEFSAII (Michael W. Deem and Ramdas Pophale) SiO2 
 PCOD9487285
Probable space group: C M M M
;
_chemical_formula_sum "Si O2"
_cell_formula_units_Z 120
_cell_length_a 27.539204
_cell_length_b 29.021889
_cell_length_c 8.026505
_cell_angle_alpha 90.000000
_cell_angle_beta 90.000000
_cell_angle_gamma 90.000000
_cell_volume 6415.101622
_symmetry_space_group_name_H-M "C M M M"
_symmetry_group_IT_number 65
_symmetry_cell_setting 'orthorhombic'
loop_
_space_group_symop_operation_xyz
x,y,z
-x,-y,z
x,-y,-z
-x,y,-z
-x,-y,-z
x,y,-z
-x,y,z
x,-y,z
1/2+x,1/2+y,z
1/2-x,1/2-y,z
1/2+x,1/2-y,-z
1/2-x,1/2+y,-z
1/2-x,1/2-y,-z
1/2+x,1/2+y,-z
1/2-x,1/2+y,z
1/2+x,1/2-y,z
loop_
_atom_site_type_symbol
_atom_site_label
_atom_site_fract_x
_atom_site_fract_y
_atom_site_fract_z
Si Si1 0.444606 0.690041 0.700884
Si Si2 0.149465 0.138595 0.198074
Si Si3 0.000000 0.552337 0.801304
Si Si4 0.943152 0.292266 0.298089
Si Si5 0.258813 0.697855 0.798820
Si Si6 0.293457 0.448187 0.700335
Si Si7 0.798542 0.609477 0.298817
Si Si8 0.405990 0.889070 0.701467
O O1 0.446205 0.691614 0.500000
O O2 0.500000 0.681148 0.757973
O O3 0.403960 0.654137 0.751666
O O4 0.429269 0.741316 0.761177
O O5 0.190560 0.174788 0.262020
O O6 0.164579 0.088044 0.257929
O O7 0.152842 0.139062 0.000000
O O8 0.048566 0.579429 0.749155
O O9 0.000000 0.500000 0.734622
O O10 0.000000 0.550355 0.000000
O O11 0.939169 0.291908 0.500000
O O12 0.914920 0.336821 0.236862
O O13 0.000000 0.298732 0.259215
O O14 0.250000 0.750000 0.738116
O O15 0.217269 0.661284 0.749351
O O16 0.260446 0.699566 0.000000
O O17 0.290036 0.450407 0.500000
O O18 0.300326 0.500000 0.763589
O O19 0.243531 0.424741 0.763286
O O20 0.798376 0.607498 0.500000
O O21 0.852450 0.596443 0.240890
O O22 0.405377 0.887960 0.500000
#
# Coordination Sequence:
#
# PCOD9487285 Si02
#       8
#    16  16   8  16  16  16  16  16
#     4   9  18  32  52  77 107 143 176 207 250 304
#     4  10  20  33  51  77 107 138 175 216 255 302
#     4  11  25  41  53  71 101 137 179 225 274 327
#     4   8  14  27  48  72  99 132 170 209 248 296
#     4   9  19  34  48  68 106 150 181 208 251 308
#     4   9  18  35  56  76 102 134 170 214 263 316
#     4   9  19  32  51  81 105 127 169 222 269 311
#     4  10  19  34  56  78 102 132 173 223 272 319
#
# _framework density 18.705860000000001
#
# number of rings (size 3 to 8) (size 9 to 14) (size 15 to 20)
#    0.000    2.733    0.667    1.400    1.867    2.933 
#    0.000    2.000    0.000    0.400    0.000    2.800 
#    0.000    0.000    0.000    0.000    0.000    0.000 
#
# Total GULP energy -334531.219578 kJ/mol
# GULP energy per Si atom -5575.520326 kJ/mol
# Density = 1.866329 g / cm^3
# Si number density = 18.705860 Si / 1000 Ang^3
#
#
#
# Elastic Constant Matrix: (Units=GPa)
#
#
# Indices 1 2 3 4 5 6 
#
# 1 125.7038 89.8522 8.2945 0.0000 0.0000 0.0000
# 2 89.8522 163.2343 12.7952 0.0000 0.0000 0.0000
# 3 8.2945 12.7952 13.0714 0.0000 0.0000 0.0000
# 4 0.0000 0.0000 0.0000 3.6559 0.0000 0.0000
# 5 0.0000 0.0000 0.0000 0.0000 8.0281 0.0000
# 6 0.0000 0.0000 0.0000 0.0000 0.0000 12.3224
#
#
#
# Elastic Compliance Matrix: (Units=1/GPa)
#
#
# Indices 1 2 3 4 5 6 
#
# 1 0.013138 -0.007125 -0.001362 0.000000 0.000000 0.000000
# 2 -0.007125 0.010499 -0.005756 0.000000 0.000000 0.000000
# 3 -0.001362 -0.005756 0.083002 0.000000 0.000000 0.000000
# 4 0.000000 0.000000 0.000000 0.273530 0.000000 0.000000
# 5 0.000000 0.000000 0.000000 0.000000 0.124563 0.000000
# 6 0.000000 0.000000 0.000000 0.000000 0.000000 0.081153
#
#
# Mechanical properties :
#
#
# Convention : Reuss Voigt Hill
#
# Bulk Modulus (GPa) = 12.79559 58.21037 35.50298
# Shear Modulus (GPa) = 7.80734 17.53912 12.67323
#
# Velocity S-wave (km/s) = 2.04519 3.06539 2.60571
# Velocity P-wave (km/s) = 3.52595 6.61175 5.29847
#
# Compressibility (1/GPa) = 0.07815192
#
# Stress axis : x y z
#
# Youngs Moduli (GPa) = 76.11501 95.24413 12.04795
#
# Poissons Ratio (x) = 0.67862 0.01641
# Poissons Ratio (y) = 0.54232 0.06935
# Poissons Ratio (z) = 0.10369 0.54825
#
# Static dielectric constant tensor:
#      x y z
#    x 1.648100 0.000000 0.000000 
#    y 0.000000 1.649040 0.000000 
#    z 0.000000 0.000000 1.659840 
# 
# From -- ./inp_files/17102.got.cif
#   From: 2010.05.17/outbox.cif.g08.bks.cpg/sg65_9_cif.got.tgz:17102.got - 2010.06.03 17:01:31.
