data_PCOD9487175
_publ_section_title
;
Structure prediction by ZEFSAII (Michael W. Deem and Ramdas Pophale) SiO2 
 PCOD9487175
Probable space group: C M M M
;
_chemical_formula_sum "Si O2"
_cell_formula_units_Z 104
_cell_length_a 8.696548
_cell_length_b 29.319945
_cell_length_c 23.722290
_cell_angle_alpha 90.000000
_cell_angle_beta 90.000000
_cell_angle_gamma 90.000000
_cell_volume 6048.764280
_symmetry_space_group_name_H-M "C M M M"
_symmetry_group_IT_number 65
_symmetry_cell_setting 'orthorhombic'
loop_
_space_group_symop_operation_xyz
x,y,z
-x,-y,z
x,-y,-z
-x,y,-z
-x,-y,-z
x,y,-z
-x,y,z
x,-y,z
1/2+x,1/2+y,z
1/2-x,1/2-y,z
1/2+x,1/2-y,-z
1/2-x,1/2+y,-z
1/2-x,1/2-y,-z
1/2+x,1/2+y,-z
1/2-x,1/2+y,z
1/2+x,1/2-y,z
loop_
_atom_site_type_symbol
_atom_site_label
_atom_site_fract_x
_atom_site_fract_y
_atom_site_fract_z
Si Si1 0.314166 0.103926 0.108559
Si Si2 0.184153 0.109697 0.670765
Si Si3 0.684718 0.053610 0.775052
Si Si4 0.312716 0.552382 0.436208
Si Si5 0.684152 0.447178 0.000000
Si Si6 0.183998 0.298878 0.718234
Si Si7 0.684999 0.201262 0.849978
O O1 0.500000 0.102834 0.104149
O O2 0.272212 0.077869 0.166335
O O3 0.265887 0.156768 0.115281
O O4 0.244433 0.078658 0.055194
O O5 0.235077 0.077849 0.722659
O O6 0.238675 0.086338 0.612689
O O7 0.252803 0.159389 0.682209
O O8 0.000000 0.112668 0.669570
O O9 0.500000 0.058941 0.768639
O O10 0.720243 0.000000 0.777125
O O11 0.264077 0.564069 0.500000
O O12 0.500000 0.552648 0.435907
O O13 0.265879 0.500000 0.424327
O O14 0.736771 0.500000 0.000000
O O15 0.500000 0.446890 0.000000
O O16 0.250000 0.250000 0.700570
O O17 0.229762 0.305723 0.784179
O O18 0.000000 0.298262 0.716139
O O19 0.500000 0.203323 0.851551
O O20 0.750000 0.250000 0.868693
#
# Coordination Sequence:
#
# PCOD9487175 Si02
#       7
#    16  16  16  16   8  16  16
#     4  10  20  38  59  78 101 139 182 215 254 315
#     4  11  20  30  50  80 109 138 175 219 270 321
#     4  10  20  34  52  75 106 141 175 217 268 316
#     4   8  15  29  48  71 103 143 184 223 261 308
#     4  11  25  41  56  79 108 137 174 223 270 309
#     4  10  19  34  53  77 109 140 174 215 263 319
#     4   9  18  33  55  80 106 134 170 211 256 310
#
# _framework density 17.193594000000001
#
# number of rings (size 3 to 8) (size 9 to 14) (size 15 to 20)
#    0.000    2.231    1.538    2.538    0.000    4.000 
#    0.000    0.385    0.000    2.308    0.000    5.385 
#    0.000    0.000    0.000    0.000    0.000    0.000 
#
# Total GULP energy -290188.873211 kJ/mol
# GULP energy per Si atom -5580.555254 kJ/mol
# Density = 1.715446 g / cm^3
# Si number density = 17.193594 Si / 1000 Ang^3
#
#
#
# Elastic Constant Matrix: (Units=GPa)
#
#
# Indices 1 2 3 4 5 6 
#
# 1 22.9544 44.4396 31.8540 0.0000 0.0000 0.0000
# 2 44.4396 181.2457 97.6253 0.0000 0.0000 0.0000
# 3 31.8540 97.6253 124.1377 0.0000 0.0000 0.0000
# 4 0.0000 0.0000 0.0000 30.4857 0.0000 0.0000
# 5 0.0000 0.0000 0.0000 0.0000 20.9808 0.0000
# 6 0.0000 0.0000 0.0000 0.0000 0.0000 30.2872
#
#
#
# Elastic Compliance Matrix: (Units=1/GPa)
#
#
# Indices 1 2 3 4 5 6 
#
# 1 0.089428 -0.016597 -0.009895 0.000000 0.000000 0.000000
# 2 -0.016597 0.012652 -0.005691 0.000000 0.000000 0.000000
# 3 -0.009895 -0.005691 0.015070 0.000000 0.000000 0.000000
# 4 0.000000 0.000000 0.000000 0.032802 0.000000 0.000000
# 5 0.000000 0.000000 0.000000 0.000000 0.047663 0.000000
# 6 0.000000 0.000000 0.000000 0.000000 0.000000 0.033017
#
#
# Mechanical properties :
#
#
# Convention : Reuss Voigt Hill
#
# Bulk Modulus (GPa) = 18.94519 75.13059 47.03789
# Shear Modulus (GPa) = 15.99521 26.64534 21.32028
#
# Velocity S-wave (km/s) = 3.05339 3.94093 3.52520
# Velocity P-wave (km/s) = 4.84496 8.03116 6.63224
#
# Compressibility (1/GPa) = 0.05278384
#
# Stress axis : x y z
#
# Youngs Moduli (GPa) = 11.18223 79.03691 66.35497
#
# Poissons Ratio (x) = 1.31177 0.65658
# Poissons Ratio (y) = 0.18559 0.37765
# Poissons Ratio (z) = 0.11065 0.44982
#
# Static dielectric constant tensor:
#      x y z
#    x 1.584570 0.000000 0.000000 
#    y 0.000000 1.577380 0.000000 
#    z 0.000000 0.000000 1.562860 
# 
# From -- ./inp_files/60418.got.cif
#   From: 2010.05.17/outbox.cif.g08.bks.cpg/sg65_31_cif.got.tgz:60418.got - 2010.06.03 17:01:31.
