data_PCOD9487856
_publ_section_title
;
Structure prediction by ZEFSAII (Michael W. Deem and Ramdas Pophale) SiO2 
 PCOD9487856
Probable space group: C M M M
;
_chemical_formula_sum "Si O2"
_cell_formula_units_Z 88
_cell_length_a 31.379970
_cell_length_b 8.816229
_cell_length_c 17.902243
_cell_angle_alpha 90.000000
_cell_angle_beta 90.000000
_cell_angle_gamma 90.000000
_cell_volume 4952.709260
_symmetry_space_group_name_H-M "C M M M"
_symmetry_group_IT_number 65
_symmetry_cell_setting 'orthorhombic'
loop_
_space_group_symop_operation_xyz
x,y,z
-x,-y,z
x,-y,-z
-x,y,-z
-x,-y,-z
x,y,-z
-x,y,z
x,-y,z
1/2+x,1/2+y,z
1/2-x,1/2-y,z
1/2+x,1/2-y,-z
1/2-x,1/2+y,-z
1/2-x,1/2-y,-z
1/2+x,1/2+y,-z
1/2-x,1/2+y,z
1/2+x,1/2-y,z
loop_
_atom_site_type_symbol
_atom_site_label
_atom_site_fract_x
_atom_site_fract_y
_atom_site_fract_z
Si Si1 0.952181 0.684720 0.086931
Si Si2 0.174835 0.817610 0.418809
Si Si3 0.620596 0.821986 0.199212
Si Si4 0.500000 0.326289 0.589519
Si Si5 0.411505 0.823873 0.368321
Si Si6 0.705516 0.318493 0.743430
O O1 0.952167 0.500000 0.090784
O O2 0.913272 0.736792 0.138500
O O3 0.000000 0.733516 0.110663
O O4 0.946553 0.725906 0.000000
O O5 0.191043 0.763507 0.500000
O O6 0.125822 0.767060 0.409871
O O7 0.197582 0.763658 0.342747
O O8 0.176972 0.000000 0.418337
O O9 0.598426 0.813014 0.280279
O O10 0.665168 0.735721 0.208322
O O11 0.629325 0.000000 0.184046
O O12 0.500000 0.500000 0.616094
O O13 0.500000 0.326749 0.500000
O O14 0.457568 0.242739 0.615718
O O15 0.409343 0.000000 0.390377
O O16 0.707333 0.500000 0.743038
O O17 0.750000 0.250000 0.769778
#
# Coordination Sequence:
#
# PCOD9487856 Si02
#       6
#    16  16  16   8  16  16
#     4   8  14  26  49  81 111 137 165 197 236 287
#     4   9  18  33  50  67  92 126 161 201 252 306
#     4   9  18  32  52  76 104 133 163 201 247 293
#     4  11  23  35  45  59  86 127 170 210 251 293
#     4  10  20  31  46  69  94 123 162 207 249 291
#     4  10  20  34  52  73  99 129 168 210 254 302
#
# _framework density 17.768052999999998
#
# number of rings (size 3 to 8) (size 9 to 14) (size 15 to 20)
#    0.000    2.636    0.000    2.455    1.273    5.091 
#    0.000    0.000    0.000    1.091    0.000    1.273 
#    0.000    0.000    0.000    0.000    0.000    0.000 
#
# Total GULP energy -245332.667286 kJ/mol
# GULP energy per Si atom -5575.742438 kJ/mol
# Density = 1.772761 g / cm^3
# Si number density = 17.768053 Si / 1000 Ang^3
#
#
#
# Elastic Constant Matrix: (Units=GPa)
#
#
# Indices 1 2 3 4 5 6 
#
# 1 140.9336 26.2752 48.9343 0.0000 0.0000 0.0000
# 2 26.2752 18.4802 16.2044 0.0000 0.0000 0.0000
# 3 48.9343 16.2044 61.8530 0.0000 0.0000 0.0000
# 4 0.0000 0.0000 0.0000 12.0830 0.0000 0.0000
# 5 0.0000 0.0000 0.0000 0.0000 140.1018 0.0000
# 6 0.0000 0.0000 0.0000 0.0000 0.0000 7.6372
#
#
#
# Elastic Compliance Matrix: (Units=1/GPa)
#
#
# Indices 1 2 3 4 5 6 
#
# 1 0.011173 -0.010561 -0.006073 0.000000 0.000000 0.000000
# 2 -0.010561 0.080232 -0.012664 0.000000 0.000000 0.000000
# 3 -0.006073 -0.012664 0.024289 0.000000 0.000000 0.000000
# 4 0.000000 0.000000 0.000000 0.082761 0.000000 0.000000
# 5 0.000000 0.000000 0.000000 0.000000 0.007138 0.000000
# 6 0.000000 0.000000 0.000000 0.000000 0.000000 0.130938
#
#
# Mechanical properties :
#
#
# Convention : Reuss Voigt Hill
#
# Bulk Modulus (GPa) = 17.51345 44.89943 31.20644
# Shear Modulus (GPa) = 12.07262 40.62125 26.34693
#
# Velocity S-wave (km/s) = 2.60947 4.78661 3.85493
# Velocity P-wave (km/s) = 4.35399 7.47485 6.11680
#
# Compressibility (1/GPa) = 0.05709896
#
# Stress axis : x y z
#
# Youngs Moduli (GPa) = 89.50147 12.46382 41.17014
#
# Poissons Ratio (x) = 0.13163 0.25001
# Poissons Ratio (y) = 0.94523 0.52139
# Poissons Ratio (z) = 0.54351 0.15784
#
# Static dielectric constant tensor:
#      x y z
#    x 1.590010 0.000000 0.000000 
#    y 0.000000 1.602460 0.000000 
#    z 0.000000 0.000000 1.617390 
# 
# From -- ./inp_files/50362.got.cif
#   From: 2010.05.17/outbox.cif.g08.bks.cpg/sg65_26_cif.got.tgz:50362.got - 2010.06.03 17:01:31.
