data_PCOD9487253
_publ_section_title
;
Structure prediction by ZEFSAII (Michael W. Deem and Ramdas Pophale) SiO2 
 PCOD9487253
Probable space group: C M M M
;
_chemical_formula_sum "Si O2"
_cell_formula_units_Z 116
_cell_length_a 15.293044
_cell_length_b 26.050718
_cell_length_c 15.255836
_cell_angle_alpha 90.000000
_cell_angle_beta 90.000000
_cell_angle_gamma 90.000000
_cell_volume 6077.845375
_symmetry_space_group_name_H-M "C M M M"
_symmetry_group_IT_number 65
_symmetry_cell_setting 'orthorhombic'
loop_
_space_group_symop_operation_xyz
x,y,z
-x,-y,z
x,-y,-z
-x,y,-z
-x,-y,-z
x,y,-z
-x,y,z
x,-y,z
1/2+x,1/2+y,z
1/2-x,1/2-y,z
1/2+x,1/2-y,-z
1/2-x,1/2+y,-z
1/2-x,1/2-y,-z
1/2+x,1/2+y,-z
1/2-x,1/2+y,z
1/2+x,1/2-y,z
loop_
_atom_site_type_symbol
_atom_site_label
_atom_site_fract_x
_atom_site_fract_y
_atom_site_fract_z
Si Si1 0.396811 0.345378 0.285345
Si Si2 0.605235 0.840805 0.735322
Si Si3 0.647772 0.557842 0.399564
Si Si4 0.606786 0.751916 0.398676
Si Si5 0.500000 0.071485 0.500000
Si Si6 0.349624 0.941893 0.648257
Si Si7 0.154936 0.723993 0.902612
Si Si8 0.401087 0.663907 0.095693
O O1 0.500000 0.334209 0.272559
O O2 0.387637 0.397384 0.338911
O O3 0.362226 0.297289 0.342245
O O4 0.357794 0.351515 0.187714
O O5 0.500000 0.843509 0.735756
O O6 0.630670 0.803381 0.654067
O O7 0.643144 0.896979 0.719102
O O8 0.635642 0.814182 0.824449
O O9 0.620958 0.566478 0.500000
O O10 0.620796 0.500000 0.373988
O O11 0.753094 0.559809 0.393192
O O12 0.636124 0.751243 0.500000
O O13 0.500000 0.750274 0.401072
O O14 0.576418 0.069085 0.576016
O O15 0.363379 0.000000 0.681400
O O16 0.250000 0.750000 0.894336
O O17 0.094494 0.774327 0.898002
O O18 0.146772 0.701140 0.000000
O O19 0.500000 0.642960 0.093553
O O20 0.360100 0.652220 0.000000
#
# Coordination Sequence:
#
# PCOD9487253 Si02
#       8
#    16  16  16  16   4  16  16  16
#     4  10  19  34  55  79 111 148 184 221 278 339
#     4  11  22  33  55  83 110 142 184 231 280 337
#     4  10  22  38  55  79 109 145 191 235 274 323
#     4   9  18  30  46  74 111 144 175 211 262 325
#     4  12  21  40  64  80 102 148 206 244 285 338
#     4  11  23  37  57  81 109 145 190 243 288 330
#     4  10  21  36  54  80 112 146 182 225 277 333
#     4   9  17  32  55  78 104 139 182 227 269 320
#
# _framework density 19.085711
#
# number of rings (size 3 to 8) (size 9 to 14) (size 15 to 20)
#    0.000    1.931    2.759    1.448    2.897    1.931 
#    0.000    0.690    0.000    2.897    0.000    4.828 
#    0.000    0.000    0.000    0.000    0.000    0.000 
#
# Total GULP energy -323104.805084 kJ/mol
# GULP energy per Si atom -5570.772501 kJ/mol
# Density = 1.904227 g / cm^3
# Si number density = 19.085711 Si / 1000 Ang^3
#
#
#
# Elastic Constant Matrix: (Units=GPa)
#
#
# Indices 1 2 3 4 5 6 
#
# 1 32.1180 -6.7552 0.7204 0.0000 0.0000 0.0000
# 2 -6.7552 96.3395 74.6062 0.0000 0.0000 0.0000
# 3 0.7204 74.6062 155.9749 0.0000 0.0000 0.0000
# 4 0.0000 0.0000 0.0000 -118.2259 0.0000 0.0000
# 5 0.0000 0.0000 0.0000 0.0000 16.8493 0.0000
# 6 0.0000 0.0000 0.0000 0.0000 0.0000 18.9493
#
#
#
# Elastic Compliance Matrix: (Units=1/GPa)
#
#
# Indices 1 2 3 4 5 6 
#
# 1 0.031966 0.003742 -0.001937 0.000000 0.000000 0.000000
# 2 0.003742 0.016925 -0.008113 0.000000 0.000000 0.000000
# 3 -0.001937 -0.008113 0.010301 0.000000 0.000000 0.000000
# 4 0.000000 0.000000 0.000000 -0.008458 0.000000 0.000000
# 5 0.000000 0.000000 0.000000 0.000000 0.059350 0.000000
# 6 0.000000 0.000000 0.000000 0.000000 0.000000 0.052772
#
#
# Mechanical properties :
#
#
# Convention : Reuss Voigt Hill
#
# Bulk Modulus (GPa) = 21.47106 46.84168 34.15637
# Shear Modulus (GPa) = 26.17845 -2.09470 12.04188
#
# Velocity S-wave (km/s) = 3.70756 -1.04876 2.51457
# Velocity P-wave (km/s) = 5.44080 4.80932 5.13477
#
# Compressibility (1/GPa) = 0.04657431
#
# Stress axis : x y z
#
# Youngs Moduli (GPa) = 31.28365 59.08417 97.07984
#
# Poissons Ratio (x) = -0.22108 0.18808
# Poissons Ratio (y) = -0.11705 0.78760
# Poissons Ratio (z) = 0.06061 0.47934
#
# Static dielectric constant tensor:
#      x y z
#    x 1.723740 0.000000 0.000000 
#    y 0.000000 1.644450 0.000000 
#    z 0.000000 0.000000 1.683410 
# 
# From -- ./inp_files/43182.got.cif
#   From: 2010.05.17/outbox.cif.g08.bks.cpg/sg65_22_cif.got.tgz:43182.got - 2010.06.03 17:01:31.
