data_PCOD9487767
_publ_section_title
;
Structure prediction by ZEFSAII (Michael W. Deem and Ramdas Pophale) SiO2 
 PCOD9487767
Probable space group: C M M M
;
_chemical_formula_sum "Si O2"
_cell_formula_units_Z 104
_cell_length_a 30.740980
_cell_length_b 9.475602
_cell_length_c 23.123422
_cell_angle_alpha 90.000000
_cell_angle_beta 90.000000
_cell_angle_gamma 90.000000
_cell_volume 6735.605213
_symmetry_space_group_name_H-M "C M M M"
_symmetry_group_IT_number 65
_symmetry_cell_setting 'orthorhombic'
loop_
_space_group_symop_operation_xyz
x,y,z
-x,-y,z
x,-y,-z
-x,y,-z
-x,-y,-z
x,y,-z
-x,y,z
x,-y,z
1/2+x,1/2+y,z
1/2-x,1/2-y,z
1/2+x,1/2-y,-z
1/2-x,1/2+y,-z
1/2-x,1/2-y,-z
1/2+x,1/2+y,-z
1/2-x,1/2+y,z
1/2+x,1/2-y,z
loop_
_atom_site_type_symbol
_atom_site_label
_atom_site_fract_x
_atom_site_fract_y
_atom_site_fract_z
Si Si1 0.416959 0.661865 0.601111
Si Si2 0.112523 0.162679 0.734262
Si Si3 0.321754 0.328851 0.562781
Si Si4 0.500000 0.841360 0.430867
Si Si5 0.792639 0.170467 0.690416
Si Si6 0.051494 0.331280 0.178975
Si Si7 0.552681 0.337770 0.935164
O O1 0.426678 0.500000 0.584252
O O2 0.405989 0.663616 0.669050
O O3 0.372816 0.706575 0.568880
O O4 0.457262 0.759695 0.588523
O O5 0.163296 0.202823 0.726000
O O6 0.082982 0.261023 0.773948
O O7 0.110388 0.000000 0.755135
O O8 0.305330 0.278442 0.500000
O O9 0.319300 0.500000 0.562997
O O10 0.300095 0.283827 0.623095
O O11 0.500000 0.845877 0.500000
O O12 0.500000 0.000000 0.407599
O O13 0.750000 0.250000 0.712167
O O14 0.787625 0.000000 0.691034
O O15 0.055322 0.500000 0.178929
O O16 0.064296 0.265974 0.116728
O O17 0.000000 0.296762 0.189503
O O18 0.500000 0.338404 0.936831
O O19 0.566239 0.500000 0.923617
O O20 0.567538 0.298055 0.000000
#
# Coordination Sequence:
#
# PCOD9487767 Si02
#       7
#    16  16  16   8  16  16  16
#     4   9  18  32  49  64  77 107 153 191 221 260
#     4   9  19  34  49  66  89 118 155 194 228 269
#     4   8  14  27  47  67  86 107 136 178 222 269
#     4  11  23  33  41  59  87 113 138 179 234 281
#     4   9  18  32  49  69  90 113 144 182 230 282
#     4  10  20  30  43  68  99 130 162 194 232 273
#     4   8  14  26  44  65  91 127 167 199 227 260
#
# _framework density 15.440334999999999
#
# number of rings (size 3 to 8) (size 9 to 14) (size 15 to 20)
#    0.000    3.000    0.000    3.462    1.077    4.000 
#    0.000    3.846    0.000    0.923    0.000    0.000 
#    0.000    0.615    0.000    2.000    0.000    2.462 
#
# Total GULP energy -289569.410663 kJ/mol
# GULP energy per Si atom -5568.642513 kJ/mol
# Density = 1.540519 g / cm^3
# Si number density = 15.440335 Si / 1000 Ang^3
#
#
#
# Elastic Constant Matrix: (Units=GPa)
#
#
# Indices 1 2 3 4 5 6 
#
# 1 93.6079 51.8352 32.7804 0.0000 0.0000 0.0000
# 2 51.8352 57.7936 34.5834 0.0000 0.0000 0.0000
# 3 32.7804 34.5834 74.6888 0.0000 0.0000 0.0000
# 4 0.0000 0.0000 0.0000 15.9615 0.0000 0.0000
# 5 0.0000 0.0000 0.0000 0.0000 2.4521 0.0000
# 6 0.0000 0.0000 0.0000 0.0000 0.0000 21.1324
#
#
#
# Elastic Compliance Matrix: (Units=1/GPa)
#
#
# Indices 1 2 3 4 5 6 
#
# 1 0.021250 -0.018644 -0.000694 0.000000 0.000000 0.000000
# 2 -0.018644 0.040292 -0.010474 0.000000 0.000000 0.000000
# 3 -0.000694 -0.010474 0.018543 0.000000 0.000000 0.000000
# 4 0.000000 0.000000 0.000000 0.062651 0.000000 0.000000
# 5 0.000000 0.000000 0.000000 0.000000 0.407810 0.000000
# 6 0.000000 0.000000 0.000000 0.000000 0.000000 0.047321
#
#
# Mechanical properties :
#
#
# Convention : Reuss Voigt Hill
#
# Bulk Modulus (GPa) = 48.87075 51.60981 50.24028
# Shear Modulus (GPa) = 7.52661 15.03529 11.28095
#
# Velocity S-wave (km/s) = 2.21025 3.12391 2.70592
# Velocity P-wave (km/s) = 6.18334 6.81980 6.50935
#
# Compressibility (1/GPa) = 0.02046214
#
# Stress axis : x y z
#
# Youngs Moduli (GPa) = 47.05936 24.81874 53.92842
#
# Poissons Ratio (x) = 0.46272 0.03741
# Poissons Ratio (y) = 0.87737 0.56484
# Poissons Ratio (z) = 0.03264 0.25995
#
# Static dielectric constant tensor:
#      x y z
#    x 1.501290 0.000000 0.000000 
#    y 0.000000 1.515000 0.000000 
#    z 0.000000 0.000000 1.524040 
# 
# From -- ./inp_files/72115.got.cif
#   From: 2010.05.17/outbox.cif.g08.bks.cpg/sg65_37_cif.got.tgz:72115.got - 2010.06.03 17:01:31.
