data_PCOD9487750
_publ_section_title
;
Structure prediction by ZEFSAII (Michael W. Deem and Ramdas Pophale) SiO2 
 PCOD9487750
Probable space group: C M M M
;
_chemical_formula_sum "Si O2"
_cell_formula_units_Z 72
_cell_length_a 16.928303
_cell_length_b 29.546455
_cell_length_c 9.010556
_cell_angle_alpha 90.000000
_cell_angle_beta 90.000000
_cell_angle_gamma 90.000000
_cell_volume 4506.821894
_symmetry_space_group_name_H-M "C M M M"
_symmetry_group_IT_number 65
_symmetry_cell_setting 'orthorhombic'
loop_
_space_group_symop_operation_xyz
x,y,z
-x,-y,z
x,-y,-z
-x,y,-z
-x,-y,-z
x,y,-z
-x,y,z
x,-y,z
1/2+x,1/2+y,z
1/2-x,1/2-y,z
1/2+x,1/2-y,-z
1/2-x,1/2+y,-z
1/2-x,1/2-y,-z
1/2+x,1/2+y,-z
1/2-x,1/2+y,z
1/2+x,1/2-y,z
loop_
_atom_site_type_symbol
_atom_site_label
_atom_site_fract_x
_atom_site_fract_y
_atom_site_fract_z
Si Si1 0.766632 0.642570 0.320982
Si Si2 0.666249 0.277177 0.671318
Si Si3 0.000000 0.445136 0.167637
Si Si4 0.089283 0.303545 0.823111
Si Si5 0.164389 0.551680 0.321570
O O1 0.770804 0.646830 0.500000
O O2 0.691291 0.672769 0.275672
O O3 0.844791 0.665536 0.253584
O O4 0.771265 0.589673 0.282164
O O5 0.639086 0.278395 0.500000
O O6 0.750000 0.250000 0.672544
O O7 0.607758 0.247616 0.769705
O O8 0.919440 0.433759 0.251868
O O9 0.000000 0.500000 0.160432
O O10 0.000000 0.426883 0.000000
O O11 0.000000 0.316412 0.781342
O O12 0.097281 0.306570 0.000000
O O13 0.155931 0.551482 0.500000
O O14 0.181871 0.500000 0.274547
#
# Coordination Sequence:
#
# PCOD9487750 Si02
#       5
#    16  16   8  16  16
#     4   9  18  30  44  61  81 108 140 170 201 241
#     4   8  15  29  45  60  79 104 134 166 203 245
#     4   9  17  27  37  51  75 105 135 171 207 231
#     4  10  20  30  41  61  85 107 135 169 203 243
#     4   9  17  29  43  58  78 106 139 171 202 237
#
# _framework density 15.975781
#
# number of rings (size 3 to 8) (size 9 to 14) (size 15 to 20)
#    0.000    3.000    0.000    2.333    1.556    8.000 
#    0.000    0.000    0.000    0.000    0.000    0.000 
#    0.000    0.889    0.000   11.111    0.000    1.778 
#
# Total GULP energy -200438.374996 kJ/mol
# GULP energy per Si atom -5567.732639 kJ/mol
# Density = 1.593942 g / cm^3
# Si number density = 15.975781 Si / 1000 Ang^3
#
#
#
# Elastic Constant Matrix: (Units=GPa)
#
#
# Indices 1 2 3 4 5 6 
#
# 1 11.7393 7.7723 3.9259 0.0000 0.0000 0.0000
# 2 7.7723 94.4140 8.5561 0.0000 0.0000 0.0000
# 3 3.9259 8.5561 9.4686 0.0000 0.0000 0.0000
# 4 0.0000 0.0000 0.0000 7.7266 0.0000 0.0000
# 5 0.0000 0.0000 0.0000 0.0000 17.8424 0.0000
# 6 0.0000 0.0000 0.0000 0.0000 0.0000 23.9609
#
#
#
# Elastic Compliance Matrix: (Units=1/GPa)
#
#
# Indices 1 2 3 4 5 6 
#
# 1 0.100953 -0.004920 -0.037412 0.000000 0.000000 0.000000
# 2 -0.004920 0.011776 -0.008601 0.000000 0.000000 0.000000
# 3 -0.037412 -0.008601 0.128896 0.000000 0.000000 0.000000
# 4 0.000000 0.000000 0.000000 0.129422 0.000000 0.000000
# 5 0.000000 0.000000 0.000000 0.000000 0.056046 0.000000
# 6 0.000000 0.000000 0.000000 0.000000 0.000000 0.041735
#
#
# Mechanical properties :
#
#
# Convention : Reuss Voigt Hill
#
# Bulk Modulus (GPa) = 7.15514 17.34782 12.25148
# Shear Modulus (GPa) = 8.10003 16.26384 12.18193
#
# Velocity S-wave (km/s) = 2.25415 3.19412 2.76438
# Velocity P-wave (km/s) = 3.35610 4.94829 4.22783
#
# Compressibility (1/GPa) = 0.13975965
#
# Stress axis : x y z
#
# Youngs Moduli (GPa) = 9.90559 84.91731 7.75817
#
# Poissons Ratio (x) = 0.41781 0.29025
# Poissons Ratio (y) = 0.04874 0.06673
# Poissons Ratio (z) = 0.37058 0.73040
#
# Static dielectric constant tensor:
#      x y z
#    x 1.507710 0.000000 0.000000 
#    y 0.000000 1.615600 0.000000 
#    z 0.000000 0.000000 1.534200 
# 
# From -- ./inp_files/12001.got.cif
#   From: 2010.05.17/outbox.cif.g08.bks.cpg/sg65_7_cif.got.tgz:12001.got - 2010.06.03 17:01:31.
