data_PCOD9487121
_publ_section_title
;
Structure prediction by ZEFSAII (Michael W. Deem and Ramdas Pophale) SiO2 
 PCOD9487121
Probable space group: C M M M
;
_chemical_formula_sum "Si O2"
_cell_formula_units_Z 64
_cell_length_a 25.571008
_cell_length_b 8.236875
_cell_length_c 14.786223
_cell_angle_alpha 90.000000
_cell_angle_beta 90.000000
_cell_angle_gamma 90.000000
_cell_volume 3114.351125
_symmetry_space_group_name_H-M "C M M M"
_symmetry_group_IT_number 65
_symmetry_cell_setting 'orthorhombic'
loop_
_space_group_symop_operation_xyz
x,y,z
-x,-y,z
x,-y,-z
-x,y,-z
-x,-y,-z
x,y,-z
-x,y,z
x,-y,z
1/2+x,1/2+y,z
1/2-x,1/2-y,z
1/2+x,1/2-y,-z
1/2-x,1/2+y,-z
1/2-x,1/2-y,-z
1/2+x,1/2+y,-z
1/2-x,1/2+y,z
1/2+x,1/2-y,z
loop_
_atom_site_type_symbol
_atom_site_label
_atom_site_fract_x
_atom_site_fract_y
_atom_site_fract_z
Si Si1 0.000000 0.688222 0.307326
Si Si2 0.109824 0.809114 0.141877
Si Si3 0.690869 0.193363 0.000000
Si Si4 0.108384 0.190203 0.353231
Si Si5 0.689959 0.192024 0.500000
Si Si6 0.500000 0.739418 0.895145
O O1 0.052422 0.722202 0.363589
O O2 0.000000 0.803510 0.216169
O O3 0.000000 0.500000 0.276163
O O4 0.120551 0.786693 0.247261
O O5 0.060219 0.702712 0.108967
O O6 0.094764 0.000000 0.126407
O O7 0.160138 0.765031 0.085304
O O8 0.750000 0.250000 0.000000
O O9 0.687739 0.000000 0.000000
O O10 0.155746 0.249860 0.414467
O O11 0.100451 0.000000 0.370810
O O12 0.750000 0.250000 0.500000
O O13 0.691060 0.000000 0.500000
O O14 0.500000 0.672266 0.000000
#
# Coordination Sequence:
#
# PCOD9487121 Si02
#       6
#     8  16   8  16   8   8
#     4  10  21  37  59  93 134 170 209 255 310 375
#     4  10  21  39  63  91 124 163 205 251 305 365
#     4  12  26  41  58  81 115 160 210 258 307 364
#     4  10  22  42  66  94 127 164 206 256 312 374
#     4  12  26  45  70  97 124 160 206 260 316 376
#     4  10  19  33  58  95 128 169 204 251 303 367
#
# _framework density 20.550027
#
# number of rings (size 3 to 8) (size 9 to 14) (size 15 to 20)
#    0.000    1.500    1.250    3.750    0.000   10.250 
#    0.000    2.500    0.000    0.000    0.000    0.000 
#    0.000    0.000    0.000    0.000    0.000    0.000 
#
# Total GULP energy -178155.532634 kJ/mol
# GULP energy per Si atom -5567.360395 kJ/mol
# Density = 2.050325 g / cm^3
# Si number density = 20.550027 Si / 1000 Ang^3
#
#
#
# Elastic Constant Matrix: (Units=GPa)
#
#
# Indices 1 2 3 4 5 6 
#
# 1 216.6147 50.5374 85.7970 0.0000 0.0000 0.0000
# 2 50.5374 113.2351 42.2988 0.0000 0.0000 0.0000
# 3 85.7970 42.2988 112.7255 0.0000 0.0000 0.0000
# 4 0.0000 0.0000 0.0000 21.5668 0.0000 0.0000
# 5 0.0000 0.0000 0.0000 0.0000 -51.2133 0.0000
# 6 0.0000 0.0000 0.0000 0.0000 0.0000 21.4262
#
#
#
# Elastic Compliance Matrix: (Units=1/GPa)
#
#
# Indices 1 2 3 4 5 6 
#
# 1 0.006763 -0.001274 -0.004669 0.000000 0.000000 0.000000
# 2 -0.001274 0.010511 -0.002974 0.000000 0.000000 0.000000
# 3 -0.004669 -0.002974 0.013541 0.000000 0.000000 0.000000
# 4 0.000000 0.000000 0.000000 0.046367 0.000000 0.000000
# 5 0.000000 0.000000 0.000000 0.000000 -0.019526 0.000000
# 6 0.000000 0.000000 0.000000 0.000000 0.000000 0.046672
#
#
# Mechanical properties :
#
#
# Convention : Reuss Voigt Hill
#
# Bulk Modulus (GPa) = 77.04504 88.87131 82.95817
# Shear Modulus (GPa) = 39.52853 15.95208 27.74030
#
# Velocity S-wave (km/s) = 4.39056 2.78916 3.67807
# Velocity P-wave (km/s) = 7.95459 7.32890 7.64815
#
# Compressibility (1/GPa) = 0.01297942
#
# Stress axis : x y z
#
# Youngs Moduli (GPa) = 147.85752 95.13934 73.84880
#
# Poissons Ratio (x) = 0.12123 0.34484
# Poissons Ratio (y) = 0.18840 0.21965
# Poissons Ratio (z) = 0.69042 0.28297
#
# Static dielectric constant tensor:
#      x y z
#    x 1.725690 0.000000 0.000000 
#    y 0.000000 1.841790 0.000000 
#    z 0.000000 0.000000 1.781230 
# 
# From -- ./inp_files/45139.got.cif
#   From: 2010.05.17/outbox.cif.g08.bks.cpg/sg65_23_cif.got.tgz:45139.got - 2010.06.03 17:01:31.
