data_PCOD9487811
_publ_section_title
;
Structure prediction by ZEFSAII (Michael W. Deem and Ramdas Pophale) SiO2 
 PCOD9487811
Probable space group: C M M M
;
_chemical_formula_sum "Si O2"
_cell_formula_units_Z 104
_cell_length_a 17.040050
_cell_length_b 19.358460
_cell_length_c 19.391064
_cell_angle_alpha 90.000000
_cell_angle_beta 90.000000
_cell_angle_gamma 90.000000
_cell_volume 6396.513340
_symmetry_space_group_name_H-M "C M M M"
_symmetry_group_IT_number 65
_symmetry_cell_setting 'orthorhombic'
loop_
_space_group_symop_operation_xyz
x,y,z
-x,-y,z
x,-y,-z
-x,y,-z
-x,-y,-z
x,y,-z
-x,y,z
x,-y,z
1/2+x,1/2+y,z
1/2-x,1/2-y,z
1/2+x,1/2-y,-z
1/2-x,1/2+y,-z
1/2-x,1/2-y,-z
1/2+x,1/2+y,-z
1/2-x,1/2+y,z
1/2+x,1/2-y,z
loop_
_atom_site_type_symbol
_atom_site_label
_atom_site_fract_x
_atom_site_fract_y
_atom_site_fract_z
Si Si1 0.851946 0.079387 0.346596
Si Si2 0.595032 0.338793 0.788704
Si Si3 0.404577 0.420281 0.921960
Si Si4 0.589131 0.916304 0.500000
Si Si5 0.335630 0.079701 0.353448
Si Si6 0.593836 0.292086 0.424625
Si Si7 0.094781 0.707011 0.709208
O O1 0.876206 0.112123 0.273241
O O2 0.758103 0.081863 0.353729
O O3 0.887425 0.129180 0.404657
O O4 0.877831 0.000000 0.351547
O O5 0.500000 0.340769 0.786976
O O6 0.621992 0.369084 0.861740
O O7 0.617623 0.260047 0.769891
O O8 0.500000 0.418938 0.921926
O O9 0.382112 0.500000 0.907238
O O10 0.379358 0.402948 0.000000
O O11 0.500000 0.888995 0.500000
O O12 0.631425 0.897930 0.428626
O O13 0.586100 0.000000 0.500000
O O14 0.368551 0.131597 0.296047
O O15 0.360285 0.000000 0.342260
O O16 0.625409 0.273672 0.500000
O O17 0.500000 0.284295 0.425954
O O18 0.621933 0.245926 0.360906
O O19 0.000000 0.701442 0.708524
#
# Coordination Sequence:
#
# PCOD9487811 Si02
#       7
#    16  16  16   8  16  16  16
#     4  10  20  31  44  62  88 118 149 185 223 262
#     4   9  17  29  45  67  95 126 156 179 210 262
#     4   8  13  22  40  68  99 127 154 185 216 248
#     4   9  18  32  48  63  79 103 136 185 251 299
#     4  10  21  33  46  67  87 106 143 191 242 290
#     4   9  19  32  44  60  81 111 150 183 215 260
#     4   9  18  32  48  64  84 112 146 185 229 275
#
# _framework density 16.258858
#
# number of rings (size 3 to 8) (size 9 to 14) (size 15 to 20)
#    0.000    2.846    0.000    2.769    2.154    5.538 
#    0.000    1.538    0.000    0.000    0.000    2.154 
#    0.000    1.846    0.000    6.000    0.000    0.154 
#
# Total GULP energy -289723.031372 kJ/mol
# GULP energy per Si atom -5571.596757 kJ/mol
# Density = 1.622185 g / cm^3
# Si number density = 16.258858 Si / 1000 Ang^3
#
#
#
# Elastic Constant Matrix: (Units=GPa)
#
#
# Indices 1 2 3 4 5 6 
#
# 1 7.9844 9.9742 14.3078 0.0000 0.0000 0.0000
# 2 9.9742 93.3704 43.5310 0.0000 0.0000 0.0000
# 3 14.3078 43.5310 97.3375 0.0000 0.0000 0.0000
# 4 0.0000 0.0000 0.0000 25.1890 0.0000 0.0000
# 5 0.0000 0.0000 0.0000 0.0000 8.0447 0.0000
# 6 0.0000 0.0000 0.0000 0.0000 0.0000 17.6267
#
#
#
# Elastic Compliance Matrix: (Units=1/GPa)
#
#
# Indices 1 2 3 4 5 6 
#
# 1 0.175185 -0.008476 -0.021960 0.000000 0.000000 0.000000
# 2 -0.008476 0.013941 -0.004989 0.000000 0.000000 0.000000
# 3 -0.021960 -0.004989 0.015733 0.000000 0.000000 0.000000
# 4 0.000000 0.000000 0.000000 0.039700 0.000000 0.000000
# 5 0.000000 0.000000 0.000000 0.000000 0.124306 0.000000
# 6 0.000000 0.000000 0.000000 0.000000 0.000000 0.056732
#
#
# Mechanical properties :
#
#
# Convention : Reuss Voigt Hill
#
# Bulk Modulus (GPa) = 7.46218 37.14648 22.30433
# Shear Modulus (GPa) = 9.24016 18.89736 14.06876
#
# Velocity S-wave (km/s) = 2.38652 3.41292 2.94479
# Velocity P-wave (km/s) = 3.49193 6.19897 5.03094
#
# Compressibility (1/GPa) = 0.13400901
#
# Stress axis : x y z
#
# Youngs Moduli (GPa) = 5.70826 71.72887 63.56208
#
# Poissons Ratio (x) = 0.60795 1.39584
# Poissons Ratio (y) = 0.04838 0.31711
# Poissons Ratio (z) = 0.12535 0.35785
#
# Static dielectric constant tensor:
#      x y z
#    x 1.535260 0.000000 0.000000 
#    y 0.000000 1.582880 0.000000 
#    z 0.000000 0.000000 1.545210 
# 
# From -- ./inp_files/63923.got.cif
#   From: 2010.05.17/outbox.cif.g08.bks.cpg/sg65_32_cif.got.tgz:63923.got - 2010.06.03 17:01:31.
