data_PCOD9487829
_publ_section_title
;
Structure prediction by ZEFSAII (Michael W. Deem and Ramdas Pophale) SiO2 
 PCOD9487829
Probable space group: C M M M
;
_chemical_formula_sum "Si O2"
_cell_formula_units_Z 80
_cell_length_a 14.997274
_cell_length_b 27.424211
_cell_length_c 12.046076
_cell_angle_alpha 90.000000
_cell_angle_beta 90.000000
_cell_angle_gamma 90.000000
_cell_volume 4954.411404
_symmetry_space_group_name_H-M "C M M M"
_symmetry_group_IT_number 65
_symmetry_cell_setting 'orthorhombic'
loop_
_space_group_symop_operation_xyz
x,y,z
-x,-y,z
x,-y,-z
-x,y,-z
-x,-y,-z
x,y,-z
-x,y,z
x,-y,z
1/2+x,1/2+y,z
1/2-x,1/2-y,z
1/2+x,1/2-y,-z
1/2-x,1/2+y,-z
1/2-x,1/2-y,-z
1/2+x,1/2+y,-z
1/2-x,1/2+y,z
1/2+x,1/2-y,z
loop_
_atom_site_type_symbol
_atom_site_label
_atom_site_fract_x
_atom_site_fract_y
_atom_site_fract_z
Si Si1 0.902021 0.324201 0.240199
Si Si2 0.675433 0.675557 0.000000
Si Si3 0.206833 0.138987 0.239164
Si Si4 0.125572 0.718711 0.000000
Si Si5 0.604533 0.276713 0.630763
Si Si6 0.395803 0.557737 0.630895
O O1 0.814314 0.357675 0.245023
O O2 0.907484 0.303497 0.115014
O O3 0.885900 0.277269 0.318627
O O4 0.000000 0.345309 0.268316
O O5 0.672972 0.644904 0.112625
O O6 0.771634 0.701769 0.000000
O O7 0.612130 0.722990 0.000000
O O8 0.166506 0.185608 0.304250
O O9 0.167391 0.091215 0.296084
O O10 0.624657 0.276961 0.500000
O O11 0.500000 0.290679 0.644767
O O12 0.381826 0.568071 0.500000
O O13 0.500000 0.568461 0.654889
O O14 0.381993 0.500000 0.647910
#
# Coordination Sequence:
#
# PCOD9487829 Si02
#       6
#    16   8  16   8  16  16
#     4  10  20  31  46  69  99 136 170 199 233 281
#     4   9  18  28  47  75  98 128 169 206 237 283
#     4  11  19  32  51  71  99 129 163 203 245 289
#     4   9  15  32  48  64  98 137 174 205 234 270
#     4  10  20  31  44  67  97 128 164 202 243 290
#     4   9  19  37  59  79  96 118 156 204 252 304
#
# _framework density 16.147226
#
# number of rings (size 3 to 8) (size 9 to 14) (size 15 to 20)
#    0.000    2.200    2.000    2.700    0.000    4.000 
#    0.000    2.500    0.000    1.800    0.000    1.400 
#    0.000    4.800    0.000    0.000    0.000    0.000 
#
# Total GULP energy -223013.244668 kJ/mol
# GULP energy per Si atom -5575.331117 kJ/mol
# Density = 1.611047 g / cm^3
# Si number density = 16.147226 Si / 1000 Ang^3
#
#
#
# Elastic Constant Matrix: (Units=GPa)
#
#
# Indices 1 2 3 4 5 6 
#
# 1 104.7743 54.5753 56.0898 0.0000 0.0000 0.0000
# 2 54.5753 61.6723 43.9442 0.0000 0.0000 0.0000
# 3 56.0898 43.9442 107.0439 0.0000 0.0000 0.0000
# 4 0.0000 0.0000 0.0000 103.1533 0.0000 0.0000
# 5 0.0000 0.0000 0.0000 0.0000 8.6128 0.0000
# 6 0.0000 0.0000 0.0000 0.0000 0.0000 24.2281
#
#
#
# Elastic Compliance Matrix: (Units=1/GPa)
#
#
# Indices 1 2 3 4 5 6 
#
# 1 0.019022 -0.013754 -0.004321 0.000000 0.000000 0.000000
# 2 -0.013754 0.032864 -0.006285 0.000000 0.000000 0.000000
# 3 -0.004321 -0.006285 0.014186 0.000000 0.000000 0.000000
# 4 0.000000 0.000000 0.000000 0.009694 0.000000 0.000000
# 5 0.000000 0.000000 0.000000 0.000000 0.116107 0.000000
# 6 0.000000 0.000000 0.000000 0.000000 0.000000 0.041274
#
#
# Mechanical properties :
#
#
# Convention : Reuss Voigt Hill
#
# Bulk Modulus (GPa) = 57.62697 64.74544 61.18620
# Shear Modulus (GPa) = 17.38224 35.12425 26.25325
#
# Velocity S-wave (km/s) = 3.28454 4.66902 4.03658
# Velocity P-wave (km/s) = 7.08168 8.32168 7.72659
#
# Compressibility (1/GPa) = 0.01735299
#
# Stress axis : x y z
#
# Youngs Moduli (GPa) = 52.57173 30.42843 70.49222
#
# Poissons Ratio (x) = 0.41851 0.30458
# Poissons Ratio (y) = 0.72307 0.44301
# Poissons Ratio (z) = 0.22715 0.19123
#
# Static dielectric constant tensor:
#      x y z
#    x 1.589810 0.000000 0.000000 
#    y 0.000000 1.504010 0.000000 
#    z 0.000000 0.000000 1.541000 
# 
# From -- ./inp_files/25049.got.cif
#   From: 2010.05.17/outbox.cif.g08.bks.cpg/sg65_13_cif.got.tgz:25049.got - 2010.06.03 17:01:31.
