data_PCOD9487661
_publ_section_title
;
Structure prediction by ZEFSAII (Michael W. Deem and Ramdas Pophale) SiO2 
 PCOD9487661
Probable space group: C M M M
;
_chemical_formula_sum "Si O2"
_cell_formula_units_Z 52
_cell_length_a 10.321902
_cell_length_b 23.574029
_cell_length_c 11.668011
_cell_angle_alpha 90.000000
_cell_angle_beta 90.000000
_cell_angle_gamma 90.000000
_cell_volume 2839.163314
_symmetry_space_group_name_H-M "C M M M"
_symmetry_group_IT_number 65
_symmetry_cell_setting 'orthorhombic'
loop_
_space_group_symop_operation_xyz
x,y,z
-x,-y,z
x,-y,-z
-x,y,-z
-x,-y,-z
x,y,-z
-x,y,z
x,-y,z
1/2+x,1/2+y,z
1/2-x,1/2-y,z
1/2+x,1/2-y,-z
1/2-x,1/2+y,-z
1/2-x,1/2-y,-z
1/2+x,1/2+y,-z
1/2-x,1/2+y,z
1/2+x,1/2-y,z
loop_
_atom_site_type_symbol
_atom_site_label
_atom_site_fract_x
_atom_site_fract_y
_atom_site_fract_z
Si Si1 0.500000 0.311035 0.861419
Si Si2 0.000000 0.676933 0.135668
Si Si3 0.751454 0.500000 0.500000
Si Si4 0.151826 0.376936 0.500000
Si Si5 0.245547 0.126157 0.752811
Si Si6 0.649848 0.500000 0.252461
O O1 0.500000 0.243907 0.837631
O O2 0.375114 0.339548 0.803662
O O3 0.500000 0.319219 0.000000
O O4 0.125773 0.647106 0.185791
O O5 0.000000 0.671674 0.000000
O O6 0.841625 0.554820 0.500000
O O7 0.660280 0.500000 0.389977
O O8 0.227860 0.362073 0.617313
O O9 0.000000 0.358491 0.500000
O O10 0.218432 0.059452 0.777971
O O11 0.500000 0.500000 0.214695
#
# Coordination Sequence:
#
# PCOD9487661 Si02
#       6
#     8   8   4   8  16   8
#     4  11  24  44  66  89 120 166 220 265 298 358
#     4  11  24  44  66  87 118 166 222 263 298 362
#     4   8  18  28  60  86 120 170 208 230 292 370
#     4  10  19  36  59  94 133 160 197 254 308 371
#     4  11  22  40  66  94 127 164 205 251 317 370
#     4  10  19  36  59  93 129 158 195 252 311 375
#
# _framework density 18.315255000000001
#
# number of rings (size 3 to 8) (size 9 to 14) (size 15 to 20)
#    0.000    1.538    3.077    2.308    0.000    3.692 
#    0.000    9.231    0.000    0.000    0.000    0.000 
#    0.000    0.000    0.000    0.000    0.000    0.000 
#
# Total GULP energy -145038.242977 kJ/mol
# GULP energy per Si atom -5578.393961 kJ/mol
# Density = 1.827357 g / cm^3
# Si number density = 18.315255 Si / 1000 Ang^3
#
#
#
# Elastic Constant Matrix: (Units=GPa)
#
#
# Indices 1 2 3 4 5 6 
#
# 1 193.5587 97.6526 75.7753 0.0000 0.0000 0.0000
# 2 97.6526 149.4286 87.5792 0.0000 0.0000 0.0000
# 3 75.7753 87.5792 92.7100 0.0000 0.0000 0.0000
# 4 0.0000 0.0000 0.0000 31.2437 0.0000 0.0000
# 5 0.0000 0.0000 0.0000 0.0000 28.1416 0.0000
# 6 0.0000 0.0000 0.0000 0.0000 0.0000 -7.6508
#
#
#
# Elastic Compliance Matrix: (Units=1/GPa)
#
#
# Indices 1 2 3 4 5 6 
#
# 1 0.008235 -0.003219 -0.003690 0.000000 0.000000 0.000000
# 2 -0.003219 0.016252 -0.012721 0.000000 0.000000 0.000000
# 3 -0.003690 -0.012721 0.025819 0.000000 0.000000 0.000000
# 4 0.000000 0.000000 0.000000 0.032006 0.000000 0.000000
# 5 0.000000 0.000000 0.000000 0.000000 0.035535 0.000000
# 6 0.000000 0.000000 0.000000 0.000000 0.000000 -0.130706
#
#
# Mechanical properties :
#
#
# Convention : Reuss Voigt Hill
#
# Bulk Modulus (GPa) = 90.53229 106.41238 98.47234
# Shear Modulus (GPa) = 166.20366 21.99291 94.09829
#
# Velocity S-wave (km/s) = 9.53641 3.46901 7.17555
# Velocity P-wave (km/s) = 13.06884 8.61812 11.06948
#
# Compressibility (1/GPa) = 0.01104578
#
# Stress axis : x y z
#
# Youngs Moduli (GPa) = 121.43389 61.53240 38.73053
#
# Poissons Ratio (x) = 0.19807 0.14291
# Poissons Ratio (y) = 0.39089 0.49270
# Poissons Ratio (z) = 0.44808 0.78277
#
# Static dielectric constant tensor:
#      x y z
#    x 1.586350 0.000000 0.000000 
#    y 0.000000 1.626650 0.000000 
#    z 0.000000 0.000000 1.636160 
# 
# From -- ./inp_files/20397.got.cif
#   From: 2010.05.17/outbox.cif.g08.bks.cpg/sg65_11_cif.got.tgz:20397.got - 2010.06.03 17:01:31.
