data_PCOD9487005
_publ_section_title
;
Structure prediction by ZEFSAII (Michael W. Deem and Ramdas Pophale) SiO2 
 PCOD9487005
Probable space group: C M M M
;
_chemical_formula_sum "Si O2"
_cell_formula_units_Z 80
_cell_length_a 8.430447
_cell_length_b 18.484783
_cell_length_c 26.830091
_cell_angle_alpha 90.000000
_cell_angle_beta 90.000000
_cell_angle_gamma 90.000000
_cell_volume 4181.066785
_symmetry_space_group_name_H-M "C M M M"
_symmetry_group_IT_number 65
_symmetry_cell_setting 'orthorhombic'
loop_
_space_group_symop_operation_xyz
x,y,z
-x,-y,z
x,-y,-z
-x,y,-z
-x,-y,-z
x,y,-z
-x,y,z
x,-y,z
1/2+x,1/2+y,z
1/2-x,1/2-y,z
1/2+x,1/2-y,-z
1/2-x,1/2+y,-z
1/2-x,1/2-y,-z
1/2+x,1/2+y,-z
1/2-x,1/2+y,z
1/2+x,1/2-y,z
loop_
_atom_site_type_symbol
_atom_site_label
_atom_site_fract_x
_atom_site_fract_y
_atom_site_fract_z
Si Si1 0.691833 0.667867 0.000000
Si Si2 0.691564 0.082994 0.294913
Si Si3 0.191216 0.167275 0.500000
Si Si4 0.308055 0.583552 0.900626
Si Si5 0.690253 0.168037 0.803665
Si Si6 0.690549 0.332786 0.391151
O O1 0.750000 0.750000 0.000000
O O2 0.744531 0.625758 0.049686
O O3 0.500000 0.668106 0.000000
O O4 0.500000 0.082927 0.294235
O O5 0.746162 0.128671 0.246955
O O6 0.746584 0.120186 0.345729
O O7 0.746172 0.000000 0.291654
O O8 0.250000 0.250000 0.500000
O O9 0.242274 0.137868 0.554032
O O10 0.000000 0.166380 0.500000
O O11 0.500000 0.584123 0.900254
O O12 0.255957 0.500000 0.901428
O O13 0.248421 0.624041 0.851612
O O14 0.500000 0.168441 0.803602
O O15 0.750000 0.250000 0.805450
O O16 0.500000 0.331913 0.389658
O O17 0.750000 0.250000 0.386410
#
# Coordination Sequence:
#
# PCOD9487005 Si02
#       6
#     8  16   8  16  16  16
#     4  10  21  37  57  83 115 150 187 228 272 318
#     4  10  22  39  56  77 108 143 179 223 273 322
#     4   8  16  30  49  76 107 137 173 219 267 314
#     4  10  21  38  60  85 114 148 185 226 273 324
#     4  11  23  39  59  83 111 143 181 226 274 324
#     4  10  19  33  55  81 108 140 179 222 268 320
#
# _framework density 19.133872
#
# number of rings (size 3 to 8) (size 9 to 14) (size 15 to 20)
#    0.000    2.000    0.000    3.300    0.000    9.200 
#    0.000    0.500    0.000    4.800    0.000    0.000 
#    0.000    0.000    0.000    0.000    0.000    0.000 
#
# Total GULP energy -223354.332786 kJ/mol
# GULP energy per Si atom -5583.858320 kJ/mol
# Density = 1.909032 g / cm^3
# Si number density = 19.133872 Si / 1000 Ang^3
#
#
#
# Elastic Constant Matrix: (Units=GPa)
#
#
# Indices 1 2 3 4 5 6 
#
# 1 14.1433 24.7506 27.8135 0.0000 0.0000 0.0000
# 2 24.7506 175.1117 122.5503 0.0000 0.0000 0.0000
# 3 27.8135 122.5503 233.9719 0.0000 0.0000 0.0000
# 4 0.0000 0.0000 0.0000 -89.4971 0.0000 0.0000
# 5 0.0000 0.0000 0.0000 0.0000 -1.4625 0.0000
# 6 0.0000 0.0000 0.0000 0.0000 0.0000 22.8349
#
#
#
# Elastic Compliance Matrix: (Units=1/GPa)
#
#
# Indices 1 2 3 4 5 6 
#
# 1 0.100987 -0.009270 -0.007149 0.000000 0.000000 0.000000
# 2 -0.009270 0.009866 -0.004066 0.000000 0.000000 0.000000
# 3 -0.007149 -0.004066 0.007253 0.000000 0.000000 0.000000
# 4 0.000000 0.000000 0.000000 -0.011174 0.000000 0.000000
# 5 0.000000 0.000000 0.000000 0.000000 -0.683779 0.000000
# 6 0.000000 0.000000 0.000000 0.000000 0.000000 0.043793
#
#
# Mechanical properties :
#
#
# Convention : Reuss Voigt Hill
#
# Bulk Modulus (GPa) = 12.96407 85.93951 49.45179
# Shear Modulus (GPa) = -10.72110 2.91591 -3.90259
#
# Velocity S-wave (km/s) = -2.36968 1.23582 -1.42970
# Velocity P-wave (km/s) = 0.83486 6.85921 4.81413
#
# Compressibility (1/GPa) = 0.07713627
#
# Stress axis : x y z
#
# Youngs Moduli (GPa) = 9.90224 101.35479 137.86500
#
# Poissons Ratio (x) = 0.93960 0.98563
# Poissons Ratio (y) = 0.09180 0.56053
# Poissons Ratio (z) = 0.07079 0.41209
#
# Static dielectric constant tensor:
#      x y z
#    x 1.661950 0.000000 0.000000 
#    y 0.000000 1.624950 0.000000 
#    z 0.000000 0.000000 1.668680 
# 
# From -- ./inp_files/72862.got.cif
#   From: 2010.05.17/outbox.cif.g08.bks.cpg/sg65_37_cif.got.tgz:72862.got - 2010.06.03 17:01:31.
