data_PCOD9487637
_publ_section_title
;
Structure prediction by ZEFSAII (Michael W. Deem and Ramdas Pophale) SiO2 
 PCOD9487637
Probable space group: C M M M
;
_chemical_formula_sum "Si O2"
_cell_formula_units_Z 112
_cell_length_a 18.745942
_cell_length_b 27.665472
_cell_length_c 13.195198
_cell_angle_alpha 90.000000
_cell_angle_beta 90.000000
_cell_angle_gamma 90.000000
_cell_volume 6843.232012
_symmetry_space_group_name_H-M "C M M M"
_symmetry_group_IT_number 65
_symmetry_cell_setting 'orthorhombic'
loop_
_space_group_symop_operation_xyz
x,y,z
-x,-y,z
x,-y,-z
-x,y,-z
-x,-y,-z
x,y,-z
-x,y,z
x,-y,z
1/2+x,1/2+y,z
1/2-x,1/2-y,z
1/2+x,1/2-y,-z
1/2-x,1/2+y,-z
1/2-x,1/2-y,-z
1/2+x,1/2+y,-z
1/2-x,1/2+y,z
1/2+x,1/2-y,z
loop_
_atom_site_type_symbol
_atom_site_label
_atom_site_fract_x
_atom_site_fract_y
_atom_site_fract_z
Si Si1 0.271572 0.054357 0.121443
Si Si2 0.821729 0.128937 0.248114
Si Si3 0.579198 0.901557 0.120604
Si Si4 0.281644 0.195951 0.618103
Si Si5 0.084787 0.796110 0.119319
Si Si6 0.082165 0.301963 0.243540
Si Si7 0.415167 0.444210 0.620380
O O1 0.225167 0.094433 0.176798
O O2 0.354818 0.064038 0.145054
O O3 0.251465 0.000000 0.151770
O O4 0.263072 0.058373 0.000000
O O5 0.769436 0.160501 0.318607
O O6 0.869478 0.164630 0.179901
O O7 0.871340 0.094557 0.316366
O O8 0.500000 0.921190 0.143666
O O9 0.587773 0.851078 0.178893
O O10 0.581844 0.892114 0.000000
O O11 0.284040 0.182121 0.500000
O O12 0.250000 0.250000 0.625222
O O13 0.359826 0.196477 0.668070
O O14 0.096750 0.743883 0.170940
O O15 0.000000 0.806621 0.127653
O O16 0.102983 0.795039 0.000000
O O17 0.000000 0.297694 0.279420
O O18 0.402628 0.438096 0.500000
O O19 0.500000 0.438345 0.637571
O O20 0.396808 0.500000 0.646359
#
# Coordination Sequence:
#
# PCOD9487637 Si02
#       7
#    16  16  16  16  16  16  16
#     4  10  21  34  50  77 109 138 174 218 259 306
#     4  12  20  35  55  77 105 145 174 207 261 321
#     4   9  17  31  53  78 104 136 174 215 257 305
#     4  11  23  38  53  78 110 138 176 224 262 306
#     4  10  21  35  53  79 109 139 173 212 252 309
#     4  10  19  36  56  78 105 140 178 212 257 311
#     4   9  19  36  57  80 102 128 172 225 267 306
#
# _framework density 16.366534999999999
#
# number of rings (size 3 to 8) (size 9 to 14) (size 15 to 20)
#    0.000    1.857    2.857    2.571    0.000    2.286 
#    0.000    2.143    0.000    0.000    0.000    6.000 
#    0.000    2.286    0.000    0.000    0.000    0.000 
#
# Total GULP energy -312449.910057 kJ/mol
# GULP energy per Si atom -5579.462680 kJ/mol
# Density = 1.632928 g / cm^3
# Si number density = 16.366535 Si / 1000 Ang^3
#
#
#
# Elastic Constant Matrix: (Units=GPa)
#
#
# Indices 1 2 3 4 5 6 
#
# 1 80.2558 46.2917 61.7064 0.0000 0.0000 0.0000
# 2 46.2917 91.0126 56.7148 0.0000 0.0000 0.0000
# 3 61.7064 56.7148 92.7043 0.0000 0.0000 0.0000
# 4 0.0000 0.0000 0.0000 28.1615 0.0000 0.0000
# 5 0.0000 0.0000 0.0000 0.0000 30.0425 0.0000
# 6 0.0000 0.0000 0.0000 0.0000 0.0000 22.5695
#
#
#
# Elastic Compliance Matrix: (Units=1/GPa)
#
#
# Indices 1 2 3 4 5 6 
#
# 1 0.026394 -0.004003 -0.015120 0.000000 0.000000 0.000000
# 2 -0.004003 0.018364 -0.008570 0.000000 0.000000 0.000000
# 3 -0.015120 -0.008570 0.026094 0.000000 0.000000 0.000000
# 4 0.000000 0.000000 0.000000 0.035509 0.000000 0.000000
# 5 0.000000 0.000000 0.000000 0.000000 0.033286 0.000000
# 6 0.000000 0.000000 0.000000 0.000000 0.000000 0.044308
#
#
# Mechanical properties :
#
#
# Convention : Reuss Voigt Hill
#
# Bulk Modulus (GPa) = 64.65591 65.93316 65.29454
# Shear Modulus (GPa) = 20.45013 22.77205 21.61109
#
# Velocity S-wave (km/s) = 3.53867 3.73417 3.63773
# Velocity P-wave (km/s) = 7.50247 7.67885 7.59117
#
# Compressibility (1/GPa) = 0.01546649
#
# Stress axis : x y z
#
# Youngs Moduli (GPa) = 37.88716 54.45382 38.32263
#
# Poissons Ratio (x) = 0.21798 0.57943
# Poissons Ratio (y) = 0.15166 0.32844
# Poissons Ratio (z) = 0.57284 0.46669
#
# Static dielectric constant tensor:
#      x y z
#    x 1.548010 0.000000 0.000000 
#    y 0.000000 1.526010 0.000000 
#    z 0.000000 0.000000 1.517880 
# 
# From -- ./inp_files/29376.got.cif
#   From: 2010.05.17/outbox.cif.g08.bks.cpg/sg65_15_cif.got.tgz:29376.got - 2010.06.03 17:01:31.
