data_PCOD9487830
_publ_section_title
;
Structure prediction by ZEFSAII (Michael W. Deem and Ramdas Pophale) SiO2 
 PCOD9487830
Probable space group: C M M M
;
_chemical_formula_sum "Si O2"
_cell_formula_units_Z 96
_cell_length_a 33.154142
_cell_length_b 18.674859
_cell_length_c 9.364525
_cell_angle_alpha 90.000000
_cell_angle_beta 90.000000
_cell_angle_gamma 90.000000
_cell_volume 5798.035607
_symmetry_space_group_name_H-M "C M M M"
_symmetry_group_IT_number 65
_symmetry_cell_setting 'orthorhombic'
loop_
_space_group_symop_operation_xyz
x,y,z
-x,-y,z
x,-y,-z
-x,y,-z
-x,-y,-z
x,y,-z
-x,y,z
x,-y,z
1/2+x,1/2+y,z
1/2-x,1/2-y,z
1/2+x,1/2-y,-z
1/2-x,1/2+y,-z
1/2-x,1/2-y,-z
1/2+x,1/2+y,-z
1/2-x,1/2+y,z
1/2+x,1/2-y,z
loop_
_atom_site_type_symbol
_atom_site_label
_atom_site_fract_x
_atom_site_fract_y
_atom_site_fract_z
Si Si1 0.822798 0.916368 0.170495
Si Si2 0.546427 0.218651 0.669490
Si Si3 0.078375 0.581712 0.169911
Si Si4 0.834889 0.354233 0.833136
Si Si5 0.117478 0.792026 0.830797
Si Si6 0.240581 0.585608 0.668125
O O1 0.859776 0.864814 0.208623
O O2 0.782191 0.895251 0.253010
O O3 0.831065 0.000000 0.200494
O O4 0.816003 0.908963 0.000000
O O5 0.553425 0.214412 0.500000
O O6 0.500000 0.238749 0.694573
O O7 0.555020 0.141383 0.740943
O O8 0.577917 0.272837 0.741709
O O9 0.067830 0.500000 0.204941
O O10 0.126100 0.595668 0.194129
O O11 0.071512 0.593170 0.000000
O O12 0.851400 0.273983 0.810081
O O13 0.797318 0.374532 0.736692
O O14 0.823833 0.362122 0.000000
O O15 0.107666 0.793104 0.000000
O O16 0.243593 0.599816 0.500000
O O17 0.234767 0.500000 0.688398
#
# Coordination Sequence:
#
# PCOD9487830 Si02
#       6
#    16  16  16  16  16  16
#     4   9  18  34  55  75  95 122 157 198 245 294
#     4  10  21  35  51  73 100 129 160 195 240 293
#     4   9  18  32  50  72  98 132 173 210 243 280
#     4   9  17  30  47  67  95 130 166 202 237 274
#     4   9  19  35  54  75  96 122 159 200 243 292
#     4  10  20  31  44  67  99 133 168 202 236 277
#
# _framework density 16.557331999999999
#
# number of rings (size 3 to 8) (size 9 to 14) (size 15 to 20)
#    0.000    2.667    0.000    2.500    0.000    7.667 
#    0.000    5.000    0.000    0.500    0.000    3.500 
#    0.000    0.000    0.000    0.000    0.000    0.000 
#
# Total GULP energy -267735.622844 kJ/mol
# GULP energy per Si atom -5577.825476 kJ/mol
# Density = 1.651965 g / cm^3
# Si number density = 16.557332 Si / 1000 Ang^3
#
#
#
# Elastic Constant Matrix: (Units=GPa)
#
#
# Indices 1 2 3 4 5 6 
#
# 1 122.1911 54.1467 79.6107 0.0000 0.0000 0.0000
# 2 54.1467 41.2321 44.4442 0.0000 0.0000 0.0000
# 3 79.6107 44.4442 69.1258 0.0000 0.0000 0.0000
# 4 0.0000 0.0000 0.0000 14.2402 0.0000 0.0000
# 5 0.0000 0.0000 0.0000 0.0000 36.2778 0.0000
# 6 0.0000 0.0000 0.0000 0.0000 0.0000 4.1046
#
#
#
# Elastic Compliance Matrix: (Units=1/GPa)
#
#
# Indices 1 2 3 4 5 6 
#
# 1 0.033543 -0.007848 -0.033585 0.000000 0.000000 0.000000
# 2 -0.007848 0.080845 -0.042940 0.000000 0.000000 0.000000
# 3 -0.033585 -0.042940 0.080754 0.000000 0.000000 0.000000
# 4 0.000000 0.000000 0.000000 0.070224 0.000000 0.000000
# 5 0.000000 0.000000 0.000000 0.000000 0.027565 0.000000
# 6 0.000000 0.000000 0.000000 0.000000 0.000000 0.243632
#
#
# Mechanical properties :
#
#
# Convention : Reuss Voigt Hill
#
# Bulk Modulus (GPa) = 37.88629 65.43912 51.66270
# Shear Modulus (GPa) = 7.00175 14.54768 10.77471
#
# Velocity S-wave (km/s) = 2.05863 2.96738 2.55375
# Velocity P-wave (km/s) = 5.34623 7.16582 6.32183
#
# Compressibility (1/GPa) = 0.02639478
#
# Stress axis : x y z
#
# Youngs Moduli (GPa) = 29.81241 12.36942 12.38329
#
# Poissons Ratio (x) = 0.09707 0.41589
# Poissons Ratio (y) = 0.23397 0.53174
# Poissons Ratio (z) = 1.00125 0.53115
#
# Static dielectric constant tensor:
#      x y z
#    x 1.533210 0.000000 0.000000 
#    y 0.000000 1.555840 0.000000 
#    z 0.000000 0.000000 1.546880 
# 
# From -- ./inp_files/16308.got.cif
#   From: 2010.05.17/outbox.cif.g08.bks.cpg/sg65_9_cif.got.tgz:16308.got - 2010.06.03 17:01:31.
