data_PCOD9487167
_publ_section_title
;
Structure prediction by ZEFSAII (Michael W. Deem and Ramdas Pophale) SiO2 
 PCOD9487167
Probable space group: C M M M
;
_chemical_formula_sum "Si O2"
_cell_formula_units_Z 120
_cell_length_a 8.647287
_cell_length_b 29.189505
_cell_length_c 29.493368
_cell_angle_alpha 90.000000
_cell_angle_beta 90.000000
_cell_angle_gamma 90.000000
_cell_volume 7444.421817
_symmetry_space_group_name_H-M "C M M M"
_symmetry_group_IT_number 65
_symmetry_cell_setting 'orthorhombic'
loop_
_space_group_symop_operation_xyz
x,y,z
-x,-y,z
x,-y,-z
-x,y,-z
-x,-y,-z
x,y,-z
-x,y,z
x,-y,z
1/2+x,1/2+y,z
1/2-x,1/2-y,z
1/2+x,1/2-y,-z
1/2-x,1/2+y,-z
1/2-x,1/2-y,-z
1/2+x,1/2+y,-z
1/2-x,1/2+y,z
1/2+x,1/2-y,z
loop_
_atom_site_type_symbol
_atom_site_label
_atom_site_fract_x
_atom_site_fract_y
_atom_site_fract_z
Si Si1 0.185231 0.608339 0.766648
Si Si2 0.814836 0.895964 0.412261
Si Si3 0.187454 0.053600 0.148181
Si Si4 0.686089 0.299180 0.623112
Si Si5 0.816297 0.055390 0.048735
Si Si6 0.813768 0.553648 0.675876
Si Si7 0.814778 0.446974 0.500000
Si Si8 0.314616 0.700498 0.728800
O O1 0.249210 0.584263 0.811469
O O2 0.231521 0.578490 0.722507
O O3 0.249275 0.659104 0.758286
O O4 0.000000 0.609394 0.768433
O O5 0.763621 0.843092 0.405838
O O6 0.765188 0.922446 0.366837
O O7 0.743815 0.920895 0.455506
O O8 0.000000 0.896465 0.416104
O O9 0.243223 0.069800 0.098140
O O10 0.000000 0.054967 0.148157
O O11 0.231752 0.000000 0.154430
O O12 0.500000 0.297337 0.622303
O O13 0.750000 0.250000 0.608354
O O14 0.733032 0.306576 0.675865
O O15 0.000000 0.065733 0.048190
O O16 0.804239 0.000000 0.049056
O O17 0.750918 0.071412 0.000000
O O18 0.774923 0.500000 0.677621
O O19 0.000000 0.557624 0.670934
O O20 0.761179 0.500000 0.500000
O O21 0.000000 0.447266 0.500000
O O22 0.500000 0.700649 0.730513
O O23 0.250000 0.750000 0.742556
#
# Coordination Sequence:
#
# PCOD9487167 Si02
#       8
#    16  16  16  16  16  16   8  16
#     4  11  21  32  47  69 100 136 169 202 245 295
#     4  11  22  38  58  82 104 127 162 205 247 288
#     4   9  17  28  43  65  95 132 171 212 256 297
#     4   9  19  34  55  81 106 128 157 196 240 290
#     4   7  10  19  37  60  85 117 162 212 256 297
#     4  10  21  35  50  70  98 133 170 203 237 285
#     4  11  25  43  60  79 104 135 168 201 240 289
#     4  10  19  34  53  75 101 128 163 203 246 294
#
# _framework density 16.119453
#
# number of rings (size 3 to 8) (size 9 to 14) (size 15 to 20)
#    0.000    2.333    1.333    3.400    0.000    5.333 
#    0.000    0.333    0.000    0.400    0.000    1.867 
#    0.000    0.533    0.000    1.467    0.000    2.133 
#
# Total GULP energy -334566.133585 kJ/mol
# GULP energy per Si atom -5576.102226 kJ/mol
# Density = 1.608276 g / cm^3
# Si number density = 16.119453 Si / 1000 Ang^3
#
#
#
# Elastic Constant Matrix: (Units=GPa)
#
#
# Indices 1 2 3 4 5 6 
#
# 1 24.3689 33.9581 34.8445 0.0000 0.0000 0.0000
# 2 33.9581 135.5220 81.9725 0.0000 0.0000 0.0000
# 3 34.8445 81.9725 150.8029 0.0000 0.0000 0.0000
# 4 0.0000 0.0000 0.0000 7.1053 0.0000 0.0000
# 5 0.0000 0.0000 0.0000 0.0000 21.6242 0.0000
# 6 0.0000 0.0000 0.0000 0.0000 0.0000 22.4176
#
#
#
# Elastic Compliance Matrix: (Units=1/GPa)
#
#
# Indices 1 2 3 4 5 6 
#
# 1 0.072262 -0.011930 -0.010212 0.000000 0.000000 0.000000
# 2 -0.011930 0.012963 -0.004290 0.000000 0.000000 0.000000
# 3 -0.010212 -0.004290 0.011323 0.000000 0.000000 0.000000
# 4 0.000000 0.000000 0.000000 0.140740 0.000000 0.000000
# 5 0.000000 0.000000 0.000000 0.000000 0.046245 0.000000
# 6 0.000000 0.000000 0.000000 0.000000 0.000000 0.044608
#
#
# Mechanical properties :
#
#
# Convention : Reuss Voigt Hill
#
# Bulk Modulus (GPa) = 22.89160 68.02711 45.45935
# Shear Modulus (GPa) = 12.64012 20.89065 16.76539
#
# Velocity S-wave (km/s) = 2.80331 3.60389 3.22851
# Velocity P-wave (km/s) = 4.97093 7.72081 6.49311
#
# Compressibility (1/GPa) = 0.04368415
#
# Stress axis : x y z
#
# Youngs Moduli (GPa) = 13.83845 77.14294 88.31913
#
# Poissons Ratio (x) = 0.92032 0.90192
# Poissons Ratio (y) = 0.16509 0.37887
# Poissons Ratio (z) = 0.14132 0.33092
#
# Static dielectric constant tensor:
#      x y z
#    x 1.542460 0.000000 0.000000 
#    y 0.000000 1.524260 0.000000 
#    z 0.000000 0.000000 1.547300 
# 
# From -- ./inp_files/73869.got.cif
#   From: 2010.05.17/outbox.cif.g08.bks.cpg/sg65_37_cif.got.tgz:73869.got - 2010.06.03 17:01:31.
