data_PCOD9487392
_publ_section_title
;
Structure prediction by ZEFSAII (Michael W. Deem and Ramdas Pophale) SiO2 
 PCOD9487392
Probable space group: C M M M
;
_chemical_formula_sum "Si O2"
_cell_formula_units_Z 88
_cell_length_a 17.627136
_cell_length_b 11.030600
_cell_length_c 22.924311
_cell_angle_alpha 90.000000
_cell_angle_beta 90.000000
_cell_angle_gamma 90.000000
_cell_volume 4457.354577
_symmetry_space_group_name_H-M "C M M M"
_symmetry_group_IT_number 65
_symmetry_cell_setting 'orthorhombic'
loop_
_space_group_symop_operation_xyz
x,y,z
-x,-y,z
x,-y,-z
-x,y,-z
-x,-y,-z
x,y,-z
-x,y,z
x,-y,z
1/2+x,1/2+y,z
1/2-x,1/2-y,z
1/2+x,1/2-y,-z
1/2-x,1/2+y,-z
1/2-x,1/2-y,-z
1/2+x,1/2+y,-z
1/2-x,1/2+y,z
1/2+x,1/2-y,z
loop_
_atom_site_type_symbol
_atom_site_label
_atom_site_fract_x
_atom_site_fract_y
_atom_site_fract_z
Si Si1 0.409525 0.261705 0.856591
Si Si2 0.408402 0.000000 0.432033
Si Si3 0.802250 0.367206 0.067186
Si Si4 0.188279 0.139882 0.500000
Si Si5 0.591626 0.500000 0.066845
Si Si6 0.907691 0.860950 0.734261
Si Si7 0.907842 0.765515 0.606627
O O1 0.500000 0.248242 0.855861
O O2 0.369973 0.149987 0.887752
O O3 0.391256 0.379912 0.896112
O O4 0.382355 0.286107 0.790741
O O5 0.384883 0.125117 0.402424
O O6 0.500000 0.000000 0.430348
O O7 0.387243 0.000000 0.500000
O O8 0.766037 0.500000 0.075050
O O9 0.750000 0.250000 0.075968
O O10 0.829064 0.360932 0.000000
O O11 0.250000 0.250000 0.500000
O O12 0.135327 0.160274 0.556751
O O13 0.216494 0.000000 0.500000
O O14 0.500000 0.500000 0.062152
O O15 0.621115 0.500000 0.000000
O O16 0.887085 0.809065 0.671255
O O17 0.000000 0.861674 0.736177
O O18 0.882620 0.000000 0.740004
O O19 0.000000 0.775941 0.599541
#
# Coordination Sequence:
#
# PCOD9487392 Si02
#       7
#    16   8  16   8   8  16  16
#     4  10  19  34  57  87 122 156 192 239 297 356
#     4   9  16  30  56  88 114 144 187 241 297 343
#     4  10  23  41  60  84 115 154 199 248 302 356
#     4  12  27  41  60  90 124 159 194 245 303 357
#     4   9  16  26  48  84 116 149 194 234 280 345
#     4   9  17  32  55  86 122 155 192 244 297 347
#     4  10  20  37  64  90 116 154 204 250 292 349
#
# _framework density 19.742652
#
# number of rings (size 3 to 8) (size 9 to 14) (size 15 to 20)
#    0.000    2.182    1.818    1.364    2.545    2.909 
#    1.636    1.818    0.000    2.182    0.000    0.000 
#    0.000    0.000    0.000    0.000    0.000    0.000 
#
# Total GULP energy -245538.975661 kJ/mol
# GULP energy per Si atom -5580.431265 kJ/mol
# Density = 1.969772 g / cm^3
# Si number density = 19.742652 Si / 1000 Ang^3
#
#
#
# Elastic Constant Matrix: (Units=GPa)
#
#
# Indices 1 2 3 4 5 6 
#
# 1 38.6777 35.5902 50.5630 0.0000 0.0000 0.0000
# 2 35.5902 126.6956 53.5933 0.0000 0.0000 0.0000
# 3 50.5630 53.5933 131.7207 0.0000 0.0000 0.0000
# 4 0.0000 0.0000 0.0000 27.0654 0.0000 0.0000
# 5 0.0000 0.0000 0.0000 0.0000 9.1553 0.0000
# 6 0.0000 0.0000 0.0000 0.0000 0.0000 17.2028
#
#
#
# Elastic Compliance Matrix: (Units=1/GPa)
#
#
# Indices 1 2 3 4 5 6 
#
# 1 0.058417 -0.008364 -0.019021 0.000000 0.000000 0.000000
# 2 -0.008364 0.010731 -0.001156 0.000000 0.000000 0.000000
# 3 -0.019021 -0.001156 0.015364 0.000000 0.000000 0.000000
# 4 0.000000 0.000000 0.000000 0.036948 0.000000 0.000000
# 5 0.000000 0.000000 0.000000 0.000000 0.109227 0.000000
# 6 0.000000 0.000000 0.000000 0.000000 0.000000 0.058130
#
#
# Mechanical properties :
#
#
# Convention : Reuss Voigt Hill
#
# Bulk Modulus (GPa) = 36.45574 64.06521 50.26048
# Shear Modulus (GPa) = 14.08285 21.17452 17.62868
#
# Velocity S-wave (km/s) = 2.67370 3.27850 2.99142
# Velocity P-wave (km/s) = 5.29501 6.84485 6.11920
#
# Compressibility (1/GPa) = 0.02743052
#
# Stress axis : x y z
#
# Youngs Moduli (GPa) = 17.11820 93.18542 65.08866
#
# Poissons Ratio (x) = 0.77939 1.23807
# Poissons Ratio (y) = 0.14317 0.07522
# Poissons Ratio (z) = 0.32561 0.10769
#
# Static dielectric constant tensor:
#      x y z
#    x 1.725750 0.000000 0.000000 
#    y 0.000000 1.703710 0.000000 
#    z 0.000000 0.000000 1.660160 
# 
# From -- ./inp_files/63671.got.cif
#   From: 2010.05.17/outbox.cif.g08.bks.cpg/sg65_32_cif.got.tgz:63671.got - 2010.06.03 17:01:31.
