data_PCOD9487863
_publ_section_title
;
Structure prediction by ZEFSAII (Michael W. Deem and Ramdas Pophale) SiO2 
 PCOD9487863
Probable space group: C M M M
;
_chemical_formula_sum "Si O2"
_cell_formula_units_Z 88
_cell_length_a 25.645476
_cell_length_b 7.637636
_cell_length_c 23.040946
_cell_angle_alpha 90.000000
_cell_angle_beta 90.000000
_cell_angle_gamma 90.000000
_cell_volume 4513.048773
_symmetry_space_group_name_H-M "C M M M"
_symmetry_group_IT_number 65
_symmetry_cell_setting 'orthorhombic'
loop_
_space_group_symop_operation_xyz
x,y,z
-x,-y,z
x,-y,-z
-x,y,-z
-x,-y,-z
x,y,-z
-x,y,z
x,-y,z
1/2+x,1/2+y,z
1/2-x,1/2-y,z
1/2+x,1/2-y,-z
1/2-x,1/2+y,-z
1/2-x,1/2-y,-z
1/2+x,1/2+y,-z
1/2-x,1/2+y,z
1/2+x,1/2-y,z
loop_
_atom_site_type_symbol
_atom_site_label
_atom_site_fract_x
_atom_site_fract_y
_atom_site_fract_z
Si Si1 0.500000 0.289720 0.750415
Si Si2 0.585853 0.792980 0.844171
Si Si3 0.111203 0.708238 0.564726
Si Si4 0.500000 0.290379 0.382485
Si Si5 0.000000 0.284818 0.066711
Si Si6 0.308926 0.789300 0.207190
Si Si7 0.190961 0.710193 0.339462
O O1 0.500000 0.500000 0.750326
O O2 0.449474 0.229303 0.786521
O O3 0.500000 0.225892 0.684240
O O4 0.550650 0.723947 0.897020
O O5 0.643449 0.721452 0.831816
O O6 0.591336 0.000000 0.854890
O O7 0.119435 0.780399 0.500000
O O8 0.120986 0.500000 0.561824
O O9 0.149427 0.780008 0.614442
O O10 0.051923 0.732863 0.584690
O O11 0.500000 0.500000 0.380574
O O12 0.000000 0.500000 0.068085
O O13 0.000000 0.231067 0.000000
O O14 0.250000 0.750000 0.188027
O O15 0.315419 0.722835 0.273503
O O16 0.313452 0.000000 0.209243
O O17 0.185029 0.500000 0.336427
O O18 0.250000 0.750000 0.357858
#
# Coordination Sequence:
#
# PCOD9487863 Si02
#       7
#     8  16  16   8   8  16  16
#     4  10  20  31  46  71  98 121 149 192 242 284
#     4   9  17  30  49  72  97 127 162 193 228 277
#     4  10  21  36  52  68  88 119 157 193 232 283
#     4  11  23  35  48  69  95 121 151 191 240 287
#     4   8  14  26  47  74  99 124 160 204 236 260
#     4   9  17  29  46  68  93 122 154 190 233 279
#     4   9  18  32  49  69  92 117 149 190 235 281
#
# _framework density 19.499013999999999
#
# number of rings (size 3 to 8) (size 9 to 14) (size 15 to 20)
#    0.000    2.636    0.000    2.455    0.000    6.182 
#    0.000    3.636    0.000    4.909    0.000    0.000 
#    0.000    0.000    0.000    0.000    0.000    0.000 
#
# Total GULP energy -245493.633480 kJ/mol
# GULP energy per Si atom -5579.400761 kJ/mol
# Density = 1.945463 g / cm^3
# Si number density = 19.499014 Si / 1000 Ang^3
#
#
#
# Elastic Constant Matrix: (Units=GPa)
#
#
# Indices 1 2 3 4 5 6 
#
# 1 181.9493 -1.8653 84.2495 0.0000 0.0000 0.0000
# 2 -1.8653 35.7724 7.7596 0.0000 0.0000 0.0000
# 3 84.2495 7.7596 110.8956 0.0000 0.0000 0.0000
# 4 0.0000 0.0000 0.0000 4.4149 0.0000 0.0000
# 5 0.0000 0.0000 0.0000 0.0000 28.6317 0.0000
# 6 0.0000 0.0000 0.0000 0.0000 0.0000 20.2825
#
#
#
# Elastic Compliance Matrix: (Units=1/GPa)
#
#
# Indices 1 2 3 4 5 6 
#
# 1 0.008603 0.001895 -0.006669 0.000000 0.000000 0.000000
# 2 0.001895 0.028803 -0.003455 0.000000 0.000000 0.000000
# 3 -0.006669 -0.003455 0.014326 0.000000 0.000000 0.000000
# 4 0.000000 0.000000 0.000000 0.226503 0.000000 0.000000
# 5 0.000000 0.000000 0.000000 0.000000 0.034926 0.000000
# 6 0.000000 0.000000 0.000000 0.000000 0.000000 0.049304
#
#
# Mechanical properties :
#
#
# Convention : Reuss Voigt Hill
#
# Bulk Modulus (GPa) = 28.34929 56.54501 42.44715
# Shear Modulus (GPa) = 12.79818 26.56407 19.68113
#
# Velocity S-wave (km/s) = 2.56471 3.69498 3.18046
# Velocity P-wave (km/s) = 4.83122 6.87500 5.94165
#
# Compressibility (1/GPa) = 0.03527426
#
# Stress axis : x y z
#
# Youngs Moduli (GPa) = 116.23399 34.71881 69.80508
#
# Poissons Ratio (x) = -0.06580 0.46551
# Poissons Ratio (y) = -0.22028 0.24119
# Poissons Ratio (z) = 0.77513 0.11996
#
# Static dielectric constant tensor:
#      x y z
#    x 1.659720 0.000000 0.000000 
#    y 0.000000 1.726010 0.000000 
#    z 0.000000 0.000000 1.674670 
# 
# From -- ./inp_files/65218.got.cif
#   From: 2010.05.17/outbox.cif.g08.bks.cpg/sg65_33_cif.got.tgz:65218.got - 2010.06.03 17:01:31.
