data_PCOD9487634
_publ_section_title
;
Structure prediction by ZEFSAII (Michael W. Deem and Ramdas Pophale) SiO2 
 PCOD9487634
Probable space group: C M M M
;
_chemical_formula_sum "Si O2"
_cell_formula_units_Z 116
_cell_length_a 29.535943
_cell_length_b 23.735379
_cell_length_c 7.840655
_cell_angle_alpha 90.000000
_cell_angle_beta 90.000000
_cell_angle_gamma 90.000000
_cell_volume 5496.666107
_symmetry_space_group_name_H-M "C M M M"
_symmetry_group_IT_number 65
_symmetry_cell_setting 'orthorhombic'
loop_
_space_group_symop_operation_xyz
x,y,z
-x,-y,z
x,-y,-z
-x,y,-z
-x,-y,-z
x,y,-z
-x,y,z
x,-y,z
1/2+x,1/2+y,z
1/2-x,1/2-y,z
1/2+x,1/2-y,-z
1/2-x,1/2+y,-z
1/2-x,1/2-y,-z
1/2+x,1/2+y,-z
1/2-x,1/2+y,z
1/2+x,1/2-y,z
loop_
_atom_site_type_symbol
_atom_site_label
_atom_site_fract_x
_atom_site_fract_y
_atom_site_fract_z
Si Si1 0.500000 0.427596 0.000000
Si Si2 0.699936 0.740519 0.302695
Si Si3 0.431807 0.600831 0.308470
Si Si4 0.625559 0.182447 0.199131
Si Si5 0.257706 0.934028 0.801391
Si Si6 0.332678 0.377132 0.199790
Si Si7 0.360246 0.937728 0.302063
Si Si8 0.948549 0.771857 0.794934
O O1 0.460549 0.425467 0.847150
O O2 0.705051 0.724221 0.500000
O O3 0.750000 0.750000 0.228503
O O4 0.671240 0.797403 0.289806
O O5 0.671256 0.690459 0.217157
O O6 0.443803 0.581632 0.500000
O O7 0.377593 0.597569 0.282919
O O8 0.441289 0.668084 0.292438
O O9 0.616653 0.116646 0.222035
O O10 0.585736 0.223485 0.260277
O O11 0.632332 0.193475 0.000000
O O12 0.215144 0.899991 0.730791
O O13 0.306143 0.928393 0.713896
O O14 0.245628 0.000000 0.797001
O O15 0.264556 0.917318 0.000000
O O16 0.334772 0.391584 0.000000
O O17 0.372272 0.938854 0.500000
O O18 0.369417 0.000000 0.227226
O O19 0.000000 0.753776 0.766348
O O20 0.943388 0.781990 0.000000
#
# Coordination Sequence:
#
# PCOD9487634 Si02
#       8
#     4  16  16  16  16  16  16  16
#     4  12  22  40  56  82 119 146 195 244 276 352
#     4  11  23  35  49  74 112 153 191 228 276 347
#     4  12  22  35  58  83 114 155 189 234 292 345
#     4  11  22  34  55  80 107 144 184 229 285 342
#     4   9  19  36  59  83 110 148 193 235 280 335
#     4  11  21  35  53  80 118 150 187 237 284 341
#     4  10  21  37  56  78 108 145 187 240 288 331
#     4  10  19  36  55  79 114 145 184 235 287 343
#
# _framework density 21.1037
#
# number of rings (size 3 to 8) (size 9 to 14) (size 15 to 20)
#    0.000    1.379    3.448    2.690    0.000    5.793 
#    0.000    0.000    0.000    0.414    0.000    3.862 
#    0.000    1.103    0.000    0.000    0.000    0.000 
#
# Total GULP energy -323507.301929 kJ/mol
# GULP energy per Si atom -5577.712102 kJ/mol
# Density = 2.105567 g / cm^3
# Si number density = 21.103700 Si / 1000 Ang^3
#
#
#
# Elastic Constant Matrix: (Units=GPa)
#
#
# Indices 1 2 3 4 5 6 
#
# 1 41.1114 -5.2204 10.6461 0.0000 0.0000 0.0000
# 2 -5.2204 47.9039 -4.5173 0.0000 0.0000 0.0000
# 3 10.6461 -4.5173 85.7087 0.0000 0.0000 0.0000
# 4 0.0000 0.0000 0.0000 4.9070 0.0000 0.0000
# 5 0.0000 0.0000 0.0000 0.0000 35.4882 0.0000
# 6 0.0000 0.0000 0.0000 0.0000 0.0000 -16.4118
#
#
#
# Elastic Compliance Matrix: (Units=1/GPa)
#
#
# Indices 1 2 3 4 5 6 
#
# 1 0.025424 0.002485 -0.003027 0.000000 0.000000 0.000000
# 2 0.002485 0.021222 0.000810 0.000000 0.000000 0.000000
# 3 -0.003027 0.000810 0.012086 0.000000 0.000000 0.000000
# 4 0.000000 0.000000 0.000000 0.203791 0.000000 0.000000
# 5 0.000000 0.000000 0.000000 0.000000 0.028178 0.000000
# 6 0.000000 0.000000 0.000000 0.000000 0.000000 -0.060932
#
#
# Mechanical properties :
#
#
# Convention : Reuss Voigt Hill
#
# Bulk Modulus (GPa) = 16.87250 19.61565 18.24407
# Shear Modulus (GPa) = 20.08118 16.38439 18.23279
#
# Velocity S-wave (km/s) = 3.08806 2.78937 2.94251
# Velocity P-wave (km/s) = 4.55272 4.43725 4.49536
#
# Compressibility (1/GPa) = 0.05926803
#
# Stress axis : x y z
#
# Youngs Moduli (GPa) = 39.33358 47.12025 82.73968
#
# Poissons Ratio (x) = -0.11710 0.25045
# Poissons Ratio (y) = -0.09775 -0.06701
# Poissons Ratio (z) = 0.11906 -0.03816
#
# Static dielectric constant tensor:
#      x y z
#    x 1.758930 0.000000 0.000000 
#    y 0.000000 1.786550 0.000000 
#    z 0.000000 0.000000 1.777720 
# 
# From -- ./inp_files/18958.got.cif
#   From: 2010.05.17/outbox.cif.g08.bks.cpg/sg65_10_cif.got.tgz:18958.got - 2010.06.03 17:01:31.
