data_PCOD9487547
_publ_section_title
;
Structure prediction by ZEFSAII (Michael W. Deem and Ramdas Pophale) SiO2 
 PCOD9487547
Probable space group: C M M M
;
_chemical_formula_sum "Si O2"
_cell_formula_units_Z 64
_cell_length_a 24.170927
_cell_length_b 16.170645
_cell_length_c 7.566328
_cell_angle_alpha 90.000000
_cell_angle_beta 90.000000
_cell_angle_gamma 90.000000
_cell_volume 2957.371026
_symmetry_space_group_name_H-M "C M M M"
_symmetry_group_IT_number 65
_symmetry_cell_setting 'orthorhombic'
loop_
_space_group_symop_operation_xyz
x,y,z
-x,-y,z
x,-y,-z
-x,y,-z
-x,-y,-z
x,y,-z
-x,y,z
x,-y,z
1/2+x,1/2+y,z
1/2-x,1/2-y,z
1/2+x,1/2-y,-z
1/2-x,1/2+y,-z
1/2-x,1/2-y,-z
1/2+x,1/2+y,-z
1/2-x,1/2+y,z
1/2+x,1/2-y,z
loop_
_atom_site_type_symbol
_atom_site_label
_atom_site_fract_x
_atom_site_fract_y
_atom_site_fract_z
Si Si1 0.303911 0.500000 0.299655
Si Si2 0.380449 0.838937 0.783694
Si Si3 0.500000 0.403960 0.784529
Si Si4 0.681167 0.000000 0.798822
Si Si5 0.000000 0.404068 0.214956
Si Si6 0.119723 0.155929 0.786195
O O1 0.285033 0.500000 0.500000
O O2 0.247006 0.500000 0.194233
O O3 0.340873 0.580958 0.267390
O O4 0.342620 0.914923 0.721141
O O5 0.443586 0.859148 0.731392
O O6 0.363256 0.747340 0.725436
O O7 0.378875 0.836606 0.000000
O O8 0.500000 0.500000 0.732233
O O9 0.443083 0.362165 0.726433
O O10 0.500000 0.401622 0.000000
O O11 0.659054 0.000000 0.000000
O O12 0.000000 0.500000 0.271674
O O13 0.000000 0.404535 0.000000
O O14 0.119192 0.155474 0.000000
#
# Coordination Sequence:
#
# PCOD9487547 Si02
#       6
#     8  16   8   8   8  16
#     4  12  26  41  54  73 102 144 191 236 281 316
#     4   9  17  29  53  86 117 145 173 211 266 324
#     4   9  15  27  53  84 111 139 169 209 264 319
#     4  10  20  37  57  81 110 142 182 224 265 316
#     4   9  13  23  47  86 128 147 158 204 271 326
#     4  10  19  35  58  84 112 143 178 218 264 323
#
# _framework density 21.640841999999999
#
# number of rings (size 3 to 8) (size 9 to 14) (size 15 to 20)
#    0.000    2.250    2.500    1.875    0.000    4.000 
#    0.000    7.500    0.000    0.000    0.000    3.500 
#    0.000    0.000    0.000    0.000    0.000    0.000 
#
# Total GULP energy -178723.554274 kJ/mol
# GULP energy per Si atom -5585.111071 kJ/mol
# Density = 2.159159 g / cm^3
# Si number density = 21.640842 Si / 1000 Ang^3
#
#
#
# Elastic Constant Matrix: (Units=GPa)
#
#
# Indices 1 2 3 4 5 6 
#
# 1 116.0066 77.8195 -7.6785 0.0000 0.0000 0.0000
# 2 77.8195 224.0306 5.7850 0.0000 0.0000 0.0000
# 3 -7.6785 5.7850 52.2950 0.0000 0.0000 0.0000
# 4 0.0000 0.0000 0.0000 -34.5029 0.0000 0.0000
# 5 0.0000 0.0000 0.0000 0.0000 -63.1221 0.0000
# 6 0.0000 0.0000 0.0000 0.0000 0.0000 0.4037
#
#
#
# Elastic Compliance Matrix: (Units=1/GPa)
#
#
# Indices 1 2 3 4 5 6 
#
# 1 0.011471 -0.004040 0.002131 0.000000 0.000000 0.000000
# 2 -0.004040 0.005899 -0.001246 0.000000 0.000000 0.000000
# 3 0.002131 -0.001246 0.019573 0.000000 0.000000 0.000000
# 4 0.000000 0.000000 0.000000 -0.028983 0.000000 0.000000
# 5 0.000000 0.000000 0.000000 0.000000 -0.015842 0.000000
# 6 0.000000 0.000000 0.000000 0.000000 0.000000 2.476960
#
#
# Mechanical properties :
#
#
# Convention : Reuss Voigt Hill
#
# Bulk Modulus (GPa) = 32.64256 60.46492 46.55374
# Shear Modulus (GPa) = 2.01159 1.64949 1.83054
#
# Velocity S-wave (km/s) = 0.96517 0.87399 0.92071
# Velocity P-wave (km/s) = 4.04458 5.38696 4.76329
#
# Compressibility (1/GPa) = 0.03063485
#
# Stress axis : x y z
#
# Youngs Moduli (GPa) = 87.17523 169.51837 51.09076
#
# Poissons Ratio (x) = 0.68480 -0.10888
# Poissons Ratio (y) = 0.35216 0.06364
# Poissons Ratio (z) = -0.18579 0.21117
#
# Static dielectric constant tensor:
#      x y z
#    x 1.736420 0.000000 0.000000 
#    y 0.000000 1.778980 0.000000 
#    z 0.000000 0.000000 1.818670 
# 
# From -- ./inp_files/13426.got.cif
#   From: 2010.05.17/outbox.cif.g08.bks.cpg/sg65_7_cif.got.tgz:13426.got - 2010.06.03 17:01:31.
