data_PCOD9487888
_publ_section_title
;
Structure prediction by ZEFSAII (Michael W. Deem and Ramdas Pophale) SiO2 
 PCOD9487888
Probable space group: C M M M
;
_chemical_formula_sum "Si O2"
_cell_formula_units_Z 120
_cell_length_a 19.257233
_cell_length_b 22.072362
_cell_length_c 14.265302
_cell_angle_alpha 90.000000
_cell_angle_beta 90.000000
_cell_angle_gamma 90.000000
_cell_volume 6063.503960
_symmetry_space_group_name_H-M "C M M M"
_symmetry_group_IT_number 65
_symmetry_cell_setting 'orthorhombic'
loop_
_space_group_symop_operation_xyz
x,y,z
-x,-y,z
x,-y,-z
-x,y,-z
-x,-y,-z
x,y,-z
-x,y,z
x,-y,z
1/2+x,1/2+y,z
1/2-x,1/2-y,z
1/2+x,1/2-y,-z
1/2-x,1/2+y,-z
1/2-x,1/2-y,-z
1/2+x,1/2+y,-z
1/2-x,1/2+y,z
1/2+x,1/2-y,z
loop_
_atom_site_type_symbol
_atom_site_label
_atom_site_fract_x
_atom_site_fract_y
_atom_site_fract_z
Si Si1 0.826062 0.764374 0.111960
Si Si2 0.917961 0.879271 0.889723
Si Si3 0.179274 0.677685 0.610720
Si Si4 0.152688 0.190115 0.389242
Si Si5 0.140053 0.630909 0.110273
Si Si6 0.370936 0.566272 0.705577
Si Si7 0.000000 0.568465 0.114287
Si Si8 0.293639 0.931373 0.732145
O O1 0.750000 0.750000 0.153485
O O2 0.869469 0.822502 0.140326
O O3 0.866023 0.702078 0.125854
O O4 0.816424 0.772888 0.000000
O O5 0.899548 0.928593 0.811518
O O6 0.000000 0.864327 0.884138
O O7 0.904150 0.894213 0.000000
O O8 0.164816 0.671768 0.500000
O O9 0.142698 0.740094 0.645257
O O10 0.263315 0.683761 0.620002
O O11 0.165321 0.615832 0.666265
O O12 0.137397 0.189668 0.500000
O O13 0.115000 0.131280 0.344869
O O14 0.069912 0.600306 0.143989
O O15 0.201905 0.599720 0.166125
O O16 0.150004 0.621119 0.000000
O O17 0.393801 0.500000 0.666307
O O18 0.287083 0.564944 0.705474
O O19 0.000000 0.500000 0.145248
O O20 0.000000 0.569972 0.000000
O O21 0.320996 0.000000 0.732702
#
# Coordination Sequence:
#
# PCOD9487888 Si02
#       8
#    16  16  16  16  16  16   8  16
#     4   9  18  32  51  75 101 133 176 225 275 320
#     4  10  22  38  55  75 106 146 189 230 271 326
#     4   8  15  29  49  74 104 138 173 212 265 331
#     4   8  15  30  52  76 103 135 172 218 275 333
#     4  10  20  32  49  71 102 140 178 221 271 325
#     4  10  21  34  51  78 108 139 180 228 274 322
#     4   9  18  32  48  66  93 135 180 218 260 313
#     4  10  20  31  47  77 111 143 179 220 270 323
#
# _framework density 19.790537
#
# number of rings (size 3 to 8) (size 9 to 14) (size 15 to 20)
#    0.000    2.733    0.000    2.000    2.800    3.467 
#    0.000    4.667    0.000    0.400    0.000    1.400 
#    0.000    1.600    0.000    0.000    0.000    0.000 
#
# Total GULP energy -334087.393178 kJ/mol
# GULP energy per Si atom -5568.123220 kJ/mol
# Density = 1.974549 g / cm^3
# Si number density = 19.790537 Si / 1000 Ang^3
#
#
#
# Elastic Constant Matrix: (Units=GPa)
#
#
# Indices 1 2 3 4 5 6 
#
# 1 21.8609 14.5490 -1.5856 0.0000 0.0000 0.0000
# 2 14.5490 118.9861 48.7884 0.0000 0.0000 0.0000
# 3 -1.5856 48.7884 66.5630 0.0000 0.0000 0.0000
# 4 0.0000 0.0000 0.0000 13.5740 0.0000 0.0000
# 5 0.0000 0.0000 0.0000 0.0000 -18.7133 0.0000
# 6 0.0000 0.0000 0.0000 0.0000 0.0000 53.2146
#
#
#
# Elastic Compliance Matrix: (Units=1/GPa)
#
#
# Indices 1 2 3 4 5 6 
#
# 1 0.053030 -0.010011 0.008601 0.000000 0.000000 0.000000
# 2 -0.010011 0.013905 -0.010431 0.000000 0.000000 0.000000
# 3 0.008601 -0.010431 0.022873 0.000000 0.000000 0.000000
# 4 0.000000 0.000000 0.000000 0.073670 0.000000 0.000000
# 5 0.000000 0.000000 0.000000 0.000000 -0.053438 0.000000
# 6 0.000000 0.000000 0.000000 0.000000 0.000000 0.018792
#
#
# Mechanical properties :
#
#
# Convention : Reuss Voigt Hill
#
# Bulk Modulus (GPa) = 15.12227 36.76818 25.94522
# Shear Modulus (GPa) = 28.64401 19.32562 23.98482
#
# Velocity S-wave (km/s) = 3.80854 3.12830 3.48506
# Velocity P-wave (km/s) = 5.19594 5.62738 5.41596
#
# Compressibility (1/GPa) = 0.06612764
#
# Stress axis : x y z
#
# Youngs Moduli (GPa) = 18.85723 71.91497 43.71876
#
# Poissons Ratio (x) = 0.71993 -0.37602
# Poissons Ratio (y) = 0.18878 0.45601
# Poissons Ratio (z) = -0.16219 0.75011
#
# Static dielectric constant tensor:
#      x y z
#    x 1.427240 0.000000 0.000000 
#    y 0.000000 1.731770 0.000000 
#    z 0.000000 0.000000 1.730280 
# 
# From -- ./inp_files/44717.got.cif
#   From: 2010.05.17/outbox.cif.g08.bks.cpg/sg65_23_cif.got.tgz:44717.got - 2010.06.03 17:01:31.
