data_PCOD9487138
_publ_section_title
;
Structure prediction by ZEFSAII (Michael W. Deem and Ramdas Pophale) SiO2 
 PCOD9487138
Probable space group: C M M M
;
_chemical_formula_sum "Si O2"
_cell_formula_units_Z 96
_cell_length_a 31.310372
_cell_length_b 13.988791
_cell_length_c 12.655426
_cell_angle_alpha 90.000000
_cell_angle_beta 90.000000
_cell_angle_gamma 90.000000
_cell_volume 5543.003820
_symmetry_space_group_name_H-M "C M M M"
_symmetry_group_IT_number 65
_symmetry_cell_setting 'orthorhombic'
loop_
_space_group_symop_operation_xyz
x,y,z
-x,-y,z
x,-y,-z
-x,y,-z
-x,-y,-z
x,y,-z
-x,y,z
x,-y,z
1/2+x,1/2+y,z
1/2-x,1/2-y,z
1/2+x,1/2-y,-z
1/2-x,1/2+y,-z
1/2-x,1/2-y,-z
1/2+x,1/2+y,-z
1/2-x,1/2+y,z
1/2+x,1/2-y,z
loop_
_atom_site_type_symbol
_atom_site_label
_atom_site_fract_x
_atom_site_fract_y
_atom_site_fract_z
Si Si1 0.648996 0.608014 0.125604
Si Si2 0.360508 0.384252 0.500000
Si Si3 0.238757 0.884960 0.500000
Si Si4 0.752181 0.136040 0.120420
Si Si5 0.051016 0.609352 0.625368
Si Si6 0.118390 0.243905 0.695916
Si Si7 0.196061 0.608217 0.680986
O O1 0.633310 0.500000 0.146013
O O2 0.699615 0.609275 0.152850
O O3 0.625739 0.686955 0.195536
O O4 0.646183 0.627002 0.000000
O O5 0.363954 0.500000 0.500000
O O6 0.310266 0.355237 0.500000
O O7 0.380522 0.335188 0.603278
O O8 0.266435 0.858437 0.602042
O O9 0.236745 0.000000 0.500000
O O10 0.750000 0.250000 0.120229
O O11 0.717290 0.103472 0.203740
O O12 0.745073 0.103968 0.000000
O O13 0.060842 0.619856 0.500000
O O14 0.062639 0.500000 0.655479
O O15 0.076742 0.689963 0.687418
O O16 0.000000 0.618822 0.637357
O O17 0.157631 0.317459 0.678726
O O18 0.182762 0.500000 0.649833
#
# Coordination Sequence:
#
# PCOD9487138 Si02
#       7
#    16   8   8  16  16  16  16
#     4  10  21  36  54  75 105 150 196 231 266 313
#     4  11  23  35  49  74 107 147 185 219 262 310
#     4   9  21  35  43  62 105 149 180 209 252 317
#     4  10  19  34  51  70 101 144 194 237 269 302
#     4   9  19  38  63  88 113 140 170 208 265 338
#     4  12  21  34  56  82 108 137 175 230 273 322
#     4  11  22  33  48  74 106 141 180 226 274 316
#
# _framework density 17.319130000000001
#
# number of rings (size 3 to 8) (size 9 to 14) (size 15 to 20)
#    0.000    1.667    2.500    3.500    0.000    3.000 
#    0.000    0.000    0.000    4.500    0.000    2.333 
#    0.000    0.000    0.000    0.000    0.000    0.000 
#
# Total GULP energy -268024.992702 kJ/mol
# GULP energy per Si atom -5583.854015 kJ/mol
# Density = 1.727971 g / cm^3
# Si number density = 17.319130 Si / 1000 Ang^3
#
#
#
# Elastic Constant Matrix: (Units=GPa)
#
#
# Indices 1 2 3 4 5 6 
#
# 1 46.8469 36.3043 18.5805 0.0000 0.0000 0.0000
# 2 36.3043 138.5676 31.6900 0.0000 0.0000 0.0000
# 3 18.5805 31.6900 47.6034 0.0000 0.0000 0.0000
# 4 0.0000 0.0000 0.0000 35.6148 0.0000 0.0000
# 5 0.0000 0.0000 0.0000 0.0000 14.5613 0.0000
# 6 0.0000 0.0000 0.0000 0.0000 0.0000 85.1482
#
#
#
# Elastic Compliance Matrix: (Units=1/GPa)
#
#
# Indices 1 2 3 4 5 6 
#
# 1 0.028804 -0.005869 -0.007336 0.000000 0.000000 0.000000
# 2 -0.005869 0.009709 -0.004172 0.000000 0.000000 0.000000
# 3 -0.007336 -0.004172 0.026648 0.000000 0.000000 0.000000
# 4 0.000000 0.000000 0.000000 0.028078 0.000000 0.000000
# 5 0.000000 0.000000 0.000000 0.000000 0.068675 0.000000
# 6 0.000000 0.000000 0.000000 0.000000 0.000000 0.011744
#
#
# Mechanical properties :
#
#
# Convention : Reuss Voigt Hill
#
# Bulk Modulus (GPa) = 32.88799 45.12971 39.00885
# Shear Modulus (GPa) = 22.87840 36.82773 29.85307
#
# Velocity S-wave (km/s) = 3.63849 4.61631 4.15626
# Velocity P-wave (km/s) = 6.05657 7.38431 6.75315
#
# Compressibility (1/GPa) = 0.03040623
#
# Stress axis : x y z
#
# Youngs Moduli (GPa) = 34.71774 103.00248 37.52662
#
# Poissons Ratio (x) = 0.60450 0.27528
# Poissons Ratio (y) = 0.20375 0.15657
# Poissons Ratio (z) = 0.25468 0.42976
#
# Static dielectric constant tensor:
#      x y z
#    x 1.559540 0.000000 0.000000 
#    y 0.000000 1.615230 0.000000 
#    z 0.000000 0.000000 1.598220 
# 
# From -- ./inp_files/33914.got.cif
#   From: 2010.05.17/outbox.cif.g08.bks.cpg/sg65_17_cif.got.tgz:33914.got - 2010.06.03 17:01:31.
