data_PCOD9487007
_publ_section_title
;
Structure prediction by ZEFSAII (Michael W. Deem and Ramdas Pophale) SiO2 
 PCOD9487007
Probable space group: C M M M
;
_chemical_formula_sum "Si O2"
_cell_formula_units_Z 104
_cell_length_a 17.438302
_cell_length_b 16.080015
_cell_length_c 20.268061
_cell_angle_alpha 90.000000
_cell_angle_beta 90.000000
_cell_angle_gamma 90.000000
_cell_volume 5683.329646
_symmetry_space_group_name_H-M "C M M M"
_symmetry_group_IT_number 65
_symmetry_cell_setting 'orthorhombic'
loop_
_space_group_symop_operation_xyz
x,y,z
-x,-y,z
x,-y,-z
-x,y,-z
-x,-y,-z
x,y,-z
-x,y,z
x,-y,z
1/2+x,1/2+y,z
1/2-x,1/2-y,z
1/2+x,1/2-y,-z
1/2-x,1/2+y,-z
1/2-x,1/2-y,-z
1/2+x,1/2+y,-z
1/2-x,1/2+y,z
1/2+x,1/2-y,z
loop_
_atom_site_type_symbol
_atom_site_label
_atom_site_fract_x
_atom_site_fract_y
_atom_site_fract_z
Si Si1 0.591733 0.900358 0.500000
Si Si2 0.323054 0.200188 0.613546
Si Si3 0.872928 0.093340 0.076284
Si Si4 0.703013 0.093852 0.875974
Si Si5 0.238769 0.905636 0.725539
Si Si6 0.413847 0.764796 0.855938
Si Si7 0.911527 0.193233 0.713966
O O1 0.500000 0.882809 0.500000
O O2 0.633827 0.859413 0.562880
O O3 0.601026 0.000000 0.500000
O O4 0.250000 0.250000 0.583707
O O5 0.284816 0.151517 0.674936
O O6 0.384650 0.261508 0.647230
O O7 0.780628 0.099882 0.081985
O O8 0.905035 0.171779 0.115504
O O9 0.893288 0.000000 0.101154
O O10 0.896207 0.098412 0.000000
O O11 0.730160 0.101547 0.799801
O O12 0.645532 0.169943 0.886524
O O13 0.671046 0.000000 0.885082
O O14 0.150149 0.878858 0.725634
O O15 0.247204 0.000000 0.703877
O O16 0.500000 0.794249 0.868154
O O17 0.402833 0.754583 0.777089
O O18 0.000000 0.167353 0.711620
#
# Coordination Sequence:
#
# PCOD9487007 Si02
#       7
#     8  16  16  16  16  16  16
#     4  11  23  38  56  82 119 153 186 230 276 327
#     4  10  20  36  59  81 109 151 188 230 273 329
#     4  10  22  39  60  85 112 146 190 238 289 345
#     4  10  20  36  57  80 111 147 192 238 277 332
#     4  10  19  33  55  81 108 145 187 230 276 329
#     4  11  22  35  55  81 114 151 188 233 285 342
#     4  10  20  33  52  81 113 145 183 228 281 335
#
# _framework density 18.299130999999999
#
# number of rings (size 3 to 8) (size 9 to 14) (size 15 to 20)
#    0.000    1.769    3.077    1.615    0.000    2.462 
#    0.000    2.308    0.000    0.000    0.000    3.231 
#    0.000   11.077    0.000    0.000    0.000    0.000 
#
# Total GULP energy -290126.680536 kJ/mol
# GULP energy per Si atom -5579.359241 kJ/mol
# Density = 1.825748 g / cm^3
# Si number density = 18.299131 Si / 1000 Ang^3
#
#
#
# Elastic Constant Matrix: (Units=GPa)
#
#
# Indices 1 2 3 4 5 6 
#
# 1 78.3273 32.1402 9.0698 0.0000 0.0000 0.0000
# 2 32.1402 77.4738 14.0732 0.0000 0.0000 0.0000
# 3 9.0698 14.0732 42.6198 0.0000 0.0000 0.0000
# 4 0.0000 0.0000 0.0000 23.3462 0.0000 0.0000
# 5 0.0000 0.0000 0.0000 0.0000 -22.1942 0.0000
# 6 0.0000 0.0000 0.0000 0.0000 0.0000 4.7470
#
#
#
# Elastic Compliance Matrix: (Units=1/GPa)
#
#
# Indices 1 2 3 4 5 6 
#
# 1 0.015448 -0.006182 -0.001246 0.000000 0.000000 0.000000
# 2 -0.006182 0.016205 -0.004035 0.000000 0.000000 0.000000
# 3 -0.001246 -0.004035 0.025061 0.000000 0.000000 0.000000
# 4 0.000000 0.000000 0.000000 0.042833 0.000000 0.000000
# 5 0.000000 0.000000 0.000000 0.000000 -0.045057 0.000000
# 6 0.000000 0.000000 0.000000 0.000000 0.000000 0.210661
#
#
# Mechanical properties :
#
#
# Convention : Reuss Voigt Hill
#
# Bulk Modulus (GPa) = 29.59735 34.33192 31.96463
# Shear Modulus (GPa) = 16.70329 10.72231 13.71280
#
# Velocity S-wave (km/s) = 3.02452 2.42326 2.74043
# Velocity P-wave (km/s) = 5.32975 5.16060 5.24586
#
# Compressibility (1/GPa) = 0.03378681
#
# Stress axis : x y z
#
# Youngs Moduli (GPa) = 64.73319 61.70794 39.90268
#
# Poissons Ratio (x) = 0.38150 0.04972
# Poissons Ratio (y) = 0.40020 0.16102
# Poissons Ratio (z) = 0.08066 0.24902
#
# Static dielectric constant tensor:
#      x y z
#    x 1.619620 0.000000 0.000000 
#    y 0.000000 1.626670 0.000000 
#    z 0.000000 0.000000 1.628980 
# 
# From -- ./inp_files/62877.got.cif
#   From: 2010.05.17/outbox.cif.g08.bks.cpg/sg65_32_cif.got.tgz:62877.got - 2010.06.03 17:01:31.
