data_PCOD9487662
_publ_section_title
;
Structure prediction by ZEFSAII (Michael W. Deem and Ramdas Pophale) SiO2 
 PCOD9487662
Probable space group: C M M M
;
_chemical_formula_sum "Si O2"
_cell_formula_units_Z 104
_cell_length_a 26.822656
_cell_length_b 22.501358
_cell_length_c 7.427533
_cell_angle_alpha 90.000000
_cell_angle_beta 90.000000
_cell_angle_gamma 90.000000
_cell_volume 4482.859207
_symmetry_space_group_name_H-M "C M M M"
_symmetry_group_IT_number 65
_symmetry_cell_setting 'orthorhombic'
loop_
_space_group_symop_operation_xyz
x,y,z
-x,-y,z
x,-y,-z
-x,y,-z
-x,-y,-z
x,y,-z
-x,y,z
x,-y,z
1/2+x,1/2+y,z
1/2-x,1/2-y,z
1/2+x,1/2-y,-z
1/2-x,1/2+y,-z
1/2-x,1/2-y,-z
1/2+x,1/2+y,-z
1/2-x,1/2+y,z
1/2+x,1/2-y,z
loop_
_atom_site_type_symbol
_atom_site_label
_atom_site_fract_x
_atom_site_fract_y
_atom_site_fract_z
Si Si1 0.610944 0.317949 0.786424
Si Si2 0.942672 0.500000 0.217033
Si Si3 0.057484 0.933696 0.219452
Si Si4 0.628919 0.107491 0.292959
Si Si5 0.222233 0.192524 0.706419
Si Si6 0.444997 0.797555 0.284755
Si Si7 0.262536 0.933006 0.720069
O O1 0.593660 0.382011 0.717513
O O2 0.663318 0.297154 0.708061
O O3 0.567728 0.270716 0.748469
O O4 0.617974 0.321542 0.000000
O O5 0.912802 0.443182 0.285276
O O6 0.000000 0.500000 0.274398
O O7 0.941172 0.500000 0.000000
O O8 0.000000 0.923093 0.273059
O O9 0.071920 0.000000 0.276065
O O10 0.057779 0.932710 0.000000
O O11 0.640754 0.122657 0.500000
O O12 0.601103 0.164111 0.210006
O O13 0.680565 0.081466 0.221056
O O14 0.240500 0.189445 0.500000
O O15 0.250000 0.250000 0.788498
O O16 0.232327 0.125870 0.779866
O O17 0.446062 0.807549 0.500000
O O18 0.500000 0.813684 0.215127
O O19 0.260571 0.935591 0.500000
O O20 0.248298 0.000000 0.780508
#
# Coordination Sequence:
#
# PCOD9487662 Si02
#       7
#    16   8  16  16  16  16  16
#     4  11  22  35  55  83 113 144 181 229 284 337
#     4  11  23  35  49  77 117 151 179 221 278 329
#     4   8  15  30  52  77 107 145 184 216 255 320
#     4  10  19  36  60  81 104 141 191 234 268 319
#     4  10  21  38  58  78 105 143 185 230 283 338
#     4  10  21  36  56  83 113 148 190 231 273 327
#     4   9  17  32  57  84 105 134 182 236 280 322
#
# _framework density 23.199480999999999
#
# number of rings (size 3 to 8) (size 9 to 14) (size 15 to 20)
#    0.000    2.231    0.769    3.000    0.000    6.154 
#    0.000    0.769    0.000    1.385    0.000    5.385 
#    0.000    0.000    0.000    0.000    0.000    0.000 
#
# Total GULP energy -290403.414397 kJ/mol
# GULP energy per Si atom -5584.681046 kJ/mol
# Density = 2.314668 g / cm^3
# Si number density = 23.199481 Si / 1000 Ang^3
#
#
#
# Elastic Constant Matrix: (Units=GPa)
#
#
# Indices 1 2 3 4 5 6 
#
# 1 44.3836 15.8544 -4.7474 0.0000 0.0000 0.0000
# 2 15.8544 136.8455 -0.1267 0.0000 0.0000 0.0000
# 3 -4.7474 -0.1267 78.9686 0.0000 0.0000 0.0000
# 4 0.0000 0.0000 0.0000 -284.0984 0.0000 0.0000
# 5 0.0000 0.0000 0.0000 0.0000 -0.2139 0.0000
# 6 0.0000 0.0000 0.0000 0.0000 0.0000 42.7899
#
#
#
# Elastic Compliance Matrix: (Units=1/GPa)
#
#
# Indices 1 2 3 4 5 6 
#
# 1 0.023661 -0.002740 0.001418 0.000000 0.000000 0.000000
# 2 -0.002740 0.007625 -0.000152 0.000000 0.000000 0.000000
# 3 0.001418 -0.000152 0.012748 0.000000 0.000000 0.000000
# 4 0.000000 0.000000 0.000000 -0.003520 0.000000 0.000000
# 5 0.000000 0.000000 0.000000 0.000000 -4.674988 0.000000
# 6 0.000000 0.000000 0.000000 0.000000 0.000000 0.023370
#
#
# Mechanical properties :
#
#
# Convention : Reuss Voigt Hill
#
# Bulk Modulus (GPa) = 24.33948 31.35092 27.84520
# Shear Modulus (GPa) = -1.08827 -31.68997 -16.38912
#
# Velocity S-wave (km/s) = -0.68565 -3.69992 -2.66078
# Velocity P-wave (km/s) = 3.14442 2.17016 1.60900
#
# Compressibility (1/GPa) = 0.04108551
#
# Stress axis : x y z
#
# Youngs Moduli (GPa) = 42.26317 131.15075 78.44208
#
# Poissons Ratio (x) = 0.35935 -0.11124
# Poissons Ratio (y) = 0.11580 0.01196
# Poissons Ratio (z) = -0.05993 0.02000
#
# Static dielectric constant tensor:
#      x y z
#    x 1.829910 0.000000 0.000000 
#    y 0.000000 1.885510 0.000000 
#    z 0.000000 0.000000 1.888110 
# 
# From -- ./inp_files/16519.got.cif
#   From: 2010.05.17/outbox.cif.g08.bks.cpg/sg65_9_cif.got.tgz:16519.got - 2010.06.03 17:01:31.
