data_PCOD9487628
_publ_section_title
;
Structure prediction by ZEFSAII (Michael W. Deem and Ramdas Pophale) SiO2 
 PCOD9487628
Probable space group: C M M M
;
_chemical_formula_sum "Si O2"
_cell_formula_units_Z 116
_cell_length_a 7.786069
_cell_length_b 29.553097
_cell_length_c 28.218435
_cell_angle_alpha 90.000000
_cell_angle_beta 90.000000
_cell_angle_gamma 90.000000
_cell_volume 6493.131097
_symmetry_space_group_name_H-M "C M M M"
_symmetry_group_IT_number 65
_symmetry_cell_setting 'orthorhombic'
loop_
_space_group_symop_operation_xyz
x,y,z
-x,-y,z
x,-y,-z
-x,y,-z
-x,-y,-z
x,y,-z
-x,y,z
x,-y,z
1/2+x,1/2+y,z
1/2-x,1/2-y,z
1/2+x,1/2-y,-z
1/2-x,1/2+y,-z
1/2-x,1/2-y,-z
1/2+x,1/2+y,-z
1/2-x,1/2+y,z
1/2+x,1/2-y,z
loop_
_atom_site_type_symbol
_atom_site_label
_atom_site_fract_x
_atom_site_fract_y
_atom_site_fract_z
Si Si1 0.710201 0.353824 0.327775
Si Si2 0.702770 0.359652 0.142730
Si Si3 0.798929 0.050513 0.294483
Si Si4 0.704286 0.801284 0.053392
Si Si5 0.201875 0.449712 0.812374
Si Si6 0.500000 0.676754 0.500000
Si Si7 0.799098 0.302735 0.423270
Si Si8 0.706420 0.697295 0.767824
O O1 0.500000 0.353193 0.329598
O O2 0.769553 0.405944 0.322128
O O3 0.780871 0.329458 0.374063
O O4 0.764616 0.326949 0.280405
O O5 0.500000 0.361857 0.149129
O O6 0.737226 0.336604 0.092598
O O7 0.767843 0.410371 0.150188
O O8 0.774143 0.328531 0.185556
O O9 0.787451 0.060874 0.238274
O O10 0.000000 0.047729 0.306501
O O11 0.723699 0.000000 0.301884
O O12 0.500000 0.804030 0.051004
O O13 0.750000 0.750000 0.067876
O O14 0.774230 0.808489 0.000000
O O15 0.259446 0.500000 0.827317
O O16 0.000000 0.451448 0.802565
O O17 0.345751 0.678878 0.459108
O O18 0.750000 0.250000 0.416287
O O19 0.000000 0.304846 0.439370
O O20 0.500000 0.693796 0.768326
O O21 0.750000 0.750000 0.768594
#
# Coordination Sequence:
#
# PCOD9487628 Si02
#       8
#    16  16  16  16  16   4  16  16
#     4  10  19  36  52  79 119 150 187 230 280 335
#     4  11  21  35  54  78 104 144 189 229 277 332
#     4   9  17  32  56  80 110 151 189 229 279 335
#     4  10  21  37  56  79 108 141 183 234 281 329
#     4  10  20  33  51  78 110 144 184 230 280 333
#     4  12  24  44  62  86 117 152 191 252 276 332
#     4  12  24  38  61  87 114 154 193 237 290 334
#     4  10  21  33  48  71 108 149 181 217 263 328
#
# _framework density 17.865034000000001
#
# number of rings (size 3 to 8) (size 9 to 14) (size 15 to 20)
#    0.000    1.655    2.759    2.483    0.000    6.069 
#    0.000    0.000    0.000    0.414    0.000    3.862 
#    0.000    1.103    0.000    0.000    0.000    0.000 
#
# Total GULP energy -323107.595231 kJ/mol
# GULP energy per Si atom -5570.820607 kJ/mol
# Density = 1.782437 g / cm^3
# Si number density = 17.865034 Si / 1000 Ang^3
#
#
#
# Elastic Constant Matrix: (Units=GPa)
#
#
# Indices 1 2 3 4 5 6 
#
# 1 73.8570 17.4579 17.5702 0.0000 0.0000 0.0000
# 2 17.4579 53.7340 37.0055 0.0000 0.0000 0.0000
# 3 17.5702 37.0055 84.6309 0.0000 0.0000 0.0000
# 4 0.0000 0.0000 0.0000 218.8439 0.0000 0.0000
# 5 0.0000 0.0000 0.0000 0.0000 19.5657 0.0000
# 6 0.0000 0.0000 0.0000 0.0000 0.0000 18.4983
#
#
#
# Elastic Compliance Matrix: (Units=1/GPa)
#
#
# Indices 1 2 3 4 5 6 
#
# 1 0.014779 -0.003847 -0.001386 0.000000 0.000000 0.000000
# 2 -0.003847 0.027630 -0.011283 0.000000 0.000000 0.000000
# 3 -0.001386 -0.011283 0.017037 0.000000 0.000000 0.000000
# 4 0.000000 0.000000 0.000000 0.004569 0.000000 0.000000
# 5 0.000000 0.000000 0.000000 0.000000 0.051110 0.000000
# 6 0.000000 0.000000 0.000000 0.000000 0.000000 0.054059
#
#
# Mechanical properties :
#
#
# Convention : Reuss Voigt Hill
#
# Bulk Modulus (GPa) = 37.85805 39.58771 38.72288
# Shear Modulus (GPa) = 23.69423 60.72744 42.21084
#
# Velocity S-wave (km/s) = 3.64578 5.83662 4.86610
# Velocity P-wave (km/s) = 6.24175 8.22368 7.30029
#
# Compressibility (1/GPa) = 0.02641446
#
# Stress axis : x y z
#
# Youngs Moduli (GPa) = 67.66467 36.19205 58.69464
#
# Poissons Ratio (x) = 0.13923 0.08136
# Poissons Ratio (y) = 0.26030 0.66225
# Poissons Ratio (z) = 0.09379 0.40835
#
# Static dielectric constant tensor:
#      x y z
#    x 1.649290 0.000000 0.000000 
#    y 0.000000 1.619000 0.000000 
#    z 0.000000 0.000000 1.603160 
# 
# From -- ./inp_files/68637.got.cif
#   From: 2010.05.17/outbox.cif.g08.bks.cpg/sg65_35_cif.got.tgz:68637.got - 2010.06.03 17:01:31.
