data_PCOD9487141
_publ_section_title
;
Structure prediction by ZEFSAII (Michael W. Deem and Ramdas Pophale) SiO2 
 PCOD9487141
Probable space group: C M M M
;
_chemical_formula_sum "Si O2"
_cell_formula_units_Z 96
_cell_length_a 7.634444
_cell_length_b 24.057830
_cell_length_c 27.156472
_cell_angle_alpha 90.000000
_cell_angle_beta 90.000000
_cell_angle_gamma 90.000000
_cell_volume 4987.779133
_symmetry_space_group_name_H-M "C M M M"
_symmetry_group_IT_number 65
_symmetry_cell_setting 'orthorhombic'
loop_
_space_group_symop_operation_xyz
x,y,z
-x,-y,z
x,-y,-z
-x,y,-z
-x,-y,-z
x,y,-z
-x,y,z
x,-y,z
1/2+x,1/2+y,z
1/2-x,1/2-y,z
1/2+x,1/2-y,-z
1/2-x,1/2+y,-z
1/2-x,1/2-y,-z
1/2+x,1/2+y,-z
1/2-x,1/2+y,z
1/2+x,1/2-y,z
loop_
_atom_site_type_symbol
_atom_site_label
_atom_site_fract_x
_atom_site_fract_y
_atom_site_fract_z
Si Si1 0.294460 0.116410 0.753424
Si Si2 0.284712 0.000000 0.794719
Si Si3 0.288643 0.815531 0.339423
Si Si4 0.210326 0.684095 0.552894
Si Si5 0.290916 0.314983 0.150087
Si Si6 0.210142 0.500000 0.909012
Si Si7 0.707345 0.621494 0.054030
O O1 0.500000 0.107748 0.743243
O O2 0.222968 0.056050 0.768115
O O3 0.219852 0.148076 0.705931
O O4 0.280191 0.155330 0.801271
O O5 0.230594 0.000000 0.851993
O O6 0.500000 0.000000 0.795286
O O7 0.500000 0.819567 0.339924
O O8 0.250000 0.750000 0.332721
O O9 0.224195 0.834879 0.393531
O O10 0.276727 0.661857 0.500000
O O11 0.250000 0.750000 0.552663
O O12 0.000000 0.677088 0.552763
O O13 0.500000 0.322402 0.151504
O O14 0.250000 0.250000 0.149873
O O15 0.220736 0.344535 0.100601
O O16 0.270935 0.556221 0.935031
O O17 0.000000 0.500000 0.909470
O O18 0.500000 0.633418 0.052335
O O19 0.781262 0.634860 0.000000
#
# Coordination Sequence:
#
# PCOD9487141 Si02
#       7
#    16   8  16  16  16   8  16
#     4  10  19  34  52  71  96 125 159 197 239 284
#     4   9  18  32  52  73  95 122 153 195 238 277
#     4   9  17  27  43  66  93 125 157 190 232 280
#     4   8  13  22  36  57  86 119 154 190 227 269
#     4  11  23  37  54  74  97 127 160 192 234 284
#     4  11  20  34  57  82 102 123 158 199 239 280
#     4  10  22  39  56  75 101 130 158 192 237 286
#
# _framework density 19.247043000000001
#
# number of rings (size 3 to 8) (size 9 to 14) (size 15 to 20)
#    0.000    2.333    1.667    1.500    0.000    4.333 
#    0.000    0.417    0.000    0.000    0.000    0.583 
#    0.000    4.667    0.000    0.000    0.000   80.167 
#
# Total GULP energy -267709.291211 kJ/mol
# GULP energy per Si atom -5577.276900 kJ/mol
# Density = 1.920324 g / cm^3
# Si number density = 19.247043 Si / 1000 Ang^3
#
#
#
# Elastic Constant Matrix: (Units=GPa)
#
#
# Indices 1 2 3 4 5 6 
#
# 1 39.1154 -15.0389 -2.2127 0.0000 0.0000 0.0000
# 2 -15.0389 90.1065 63.0468 0.0000 0.0000 0.0000
# 3 -2.2127 63.0468 206.9498 0.0000 0.0000 0.0000
# 4 0.0000 0.0000 0.0000 22.9406 0.0000 0.0000
# 5 0.0000 0.0000 0.0000 0.0000 16.8767 0.0000
# 6 0.0000 0.0000 0.0000 0.0000 0.0000 46.6488
#
#
#
# Elastic Compliance Matrix: (Units=1/GPa)
#
#
# Indices 1 2 3 4 5 6 
#
# 1 0.027639 0.005600 -0.001410 0.000000 0.000000 0.000000
# 2 0.005600 0.015239 -0.004583 0.000000 0.000000 0.000000
# 3 -0.001410 -0.004583 0.006213 0.000000 0.000000 0.000000
# 4 0.000000 0.000000 0.000000 0.043591 0.000000 0.000000
# 5 0.000000 0.000000 0.000000 0.000000 0.059253 0.000000
# 6 0.000000 0.000000 0.000000 0.000000 0.000000 0.021437
#
#
# Mechanical properties :
#
#
# Convention : Reuss Voigt Hill
#
# Bulk Modulus (GPa) = 20.70220 47.52916 34.11568
# Shear Modulus (GPa) = 26.27990 36.65165 31.46578
#
# Velocity S-wave (km/s) = 3.69914 4.36853 4.04770
# Velocity P-wave (km/s) = 5.38741 7.08472 6.29355
#
# Compressibility (1/GPa) = 0.04830405
#
# Stress axis : x y z
#
# Youngs Moduli (GPa) = 36.18131 65.62088 160.94997
#
# Poissons Ratio (x) = -0.36746 0.22701
# Poissons Ratio (y) = -0.20261 0.73758
# Poissons Ratio (z) = 0.05103 0.30072
#
# Static dielectric constant tensor:
#      x y z
#    x 1.734470 0.000000 0.000000 
#    y 0.000000 1.631250 0.000000 
#    z 0.000000 0.000000 1.727710 
# 
# From -- ./inp_files/73479.got.cif
#   From: 2010.05.17/outbox.cif.g08.bks.cpg/sg65_37_cif.got.tgz:73479.got - 2010.06.03 17:01:31.
