data_PCOD9487274
_publ_section_title
;
Structure prediction by ZEFSAII (Michael W. Deem and Ramdas Pophale) SiO2 
 PCOD9487274
Probable space group: C M M M
;
_chemical_formula_sum "Si O2"
_cell_formula_units_Z 100
_cell_length_a 32.354230
_cell_length_b 7.867259
_cell_length_c 20.376433
_cell_angle_alpha 90.000000
_cell_angle_beta 90.000000
_cell_angle_gamma 90.000000
_cell_volume 5186.599063
_symmetry_space_group_name_H-M "C M M M"
_symmetry_group_IT_number 65
_symmetry_cell_setting 'orthorhombic'
loop_
_space_group_symop_operation_xyz
x,y,z
-x,-y,z
x,-y,-z
-x,y,-z
-x,-y,-z
x,y,-z
-x,y,z
x,-y,z
1/2+x,1/2+y,z
1/2-x,1/2-y,z
1/2+x,1/2-y,-z
1/2-x,1/2+y,-z
1/2-x,1/2-y,-z
1/2+x,1/2+y,-z
1/2-x,1/2+y,z
1/2+x,1/2-y,z
loop_
_atom_site_type_symbol
_atom_site_label
_atom_site_fract_x
_atom_site_fract_y
_atom_site_fract_z
Si Si1 0.500000 0.500000 0.703474
Si Si2 0.045539 0.796701 0.074574
Si Si3 0.932478 0.693699 0.302784
Si Si4 0.118618 0.301026 0.828813
Si Si5 0.295528 0.795097 0.213095
Si Si6 0.704214 0.203358 0.634998
Si Si7 0.618864 0.699928 0.574132
O O1 0.464455 0.652181 0.702971
O O2 0.083766 0.761899 0.121524
O O3 0.000000 0.735332 0.098510
O O4 0.042699 0.000000 0.071024
O O5 0.051510 0.732629 0.000000
O O6 0.949094 0.500000 0.295656
O O7 0.899314 0.717107 0.244448
O O8 0.908877 0.707728 0.371914
O O9 0.122380 0.500000 0.843422
O O10 0.165069 0.228470 0.827361
O O11 0.250000 0.750000 0.188096
O O12 0.298516 0.735634 0.289034
O O13 0.298274 0.000000 0.215210
O O14 0.750000 0.250000 0.610852
O O15 0.666714 0.278262 0.593736
O O16 0.699811 0.000000 0.634783
O O17 0.612038 0.761324 0.500000
O O18 0.608530 0.500000 0.576652
#
# Coordination Sequence:
#
# PCOD9487274 Si02
#       7
#     4  16  16  16  16  16  16
#     4  12  26  44  65  92 121 156 198 264 306 366
#     4   9  20  37  57  85 121 159 198 240 293 357
#     4  11  24  43  64  92 122 155 202 251 311 368
#     4  10  21  36  58  88 123 156 196 246 295 356
#     4   9  18  33  52  81 116 150 191 240 292 351
#     4  10  19  34  55  82 117 155 195 246 305 366
#     4  11  23  40  61  85 116 156 204 253 307 373
#
# _framework density 19.280456999999998
#
# number of rings (size 3 to 8) (size 9 to 14) (size 15 to 20)
#    0.000    1.920    2.400    1.680    2.240    3.520 
#    0.000    1.600    0.000    1.440    0.000    0.000 
#    0.000    0.000    0.000    0.000    0.000    0.000 
#
# Total GULP energy -278424.713236 kJ/mol
# GULP energy per Si atom -5568.494265 kJ/mol
# Density = 1.923657 g / cm^3
# Si number density = 19.280457 Si / 1000 Ang^3
#
#
#
# Elastic Constant Matrix: (Units=GPa)
#
#
# Indices 1 2 3 4 5 6 
#
# 1 126.8274 38.7073 48.6205 0.0000 0.0000 0.0000
# 2 38.7073 74.3632 12.2796 0.0000 0.0000 0.0000
# 3 48.6205 12.2796 66.2091 0.0000 0.0000 0.0000
# 4 0.0000 0.0000 0.0000 19.7611 0.0000 0.0000
# 5 0.0000 0.0000 0.0000 0.0000 33.0070 0.0000
# 6 0.0000 0.0000 0.0000 0.0000 0.0000 29.5145
#
#
#
# Elastic Compliance Matrix: (Units=1/GPa)
#
#
# Indices 1 2 3 4 5 6 
#
# 1 0.012675 -0.005220 -0.008340 0.000000 0.000000 0.000000
# 2 -0.005220 0.016023 0.000862 0.000000 0.000000 0.000000
# 3 -0.008340 0.000862 0.021068 0.000000 0.000000 0.000000
# 4 0.000000 0.000000 0.000000 0.050604 0.000000 0.000000
# 5 0.000000 0.000000 0.000000 0.000000 0.030297 0.000000
# 6 0.000000 0.000000 0.000000 0.000000 0.000000 0.033882
#
#
# Mechanical properties :
#
#
# Convention : Reuss Voigt Hill
#
# Bulk Modulus (GPa) = 41.03524 51.84606 46.44065
# Shear Modulus (GPa) = 25.24387 27.64267 26.44327
#
# Velocity S-wave (km/s) = 3.62235 3.79055 3.70740
# Velocity P-wave (km/s) = 6.23095 6.79018 6.51657
#
# Compressibility (1/GPa) = 0.02436930
#
# Stress axis : x y z
#
# Youngs Moduli (GPa) = 78.89472 62.41211 47.46524
#
# Poissons Ratio (x) = 0.32582 0.39585
# Poissons Ratio (y) = 0.41187 -0.04092
# Poissons Ratio (z) = 0.65796 -0.05380
#
# Static dielectric constant tensor:
#      x y z
#    x 1.722840 0.000000 0.000000 
#    y 0.000000 1.695500 0.000000 
#    z 0.000000 0.000000 1.664420 
# 
# From -- ./inp_files/66325.got.cif
#   From: 2010.05.17/outbox.cif.g08.bks.cpg/sg65_34_cif.got.tgz:66325.got - 2010.06.03 17:01:31.
