data_PCOD9487463
_publ_section_title
;
Structure prediction by ZEFSAII (Michael W. Deem and Ramdas Pophale) SiO2 
 PCOD9487463
Probable space group: C M M M
;
_chemical_formula_sum "Si O2"
_cell_formula_units_Z 92
_cell_length_a 28.269582
_cell_length_b 8.105045
_cell_length_c 19.662452
_cell_angle_alpha 90.000000
_cell_angle_beta 90.000000
_cell_angle_gamma 90.000000
_cell_volume 4505.183583
_symmetry_space_group_name_H-M "C M M M"
_symmetry_group_IT_number 65
_symmetry_cell_setting 'orthorhombic'
loop_
_space_group_symop_operation_xyz
x,y,z
-x,-y,z
x,-y,-z
-x,y,-z
-x,-y,-z
x,y,-z
-x,y,z
x,-y,z
1/2+x,1/2+y,z
1/2-x,1/2-y,z
1/2+x,1/2-y,-z
1/2-x,1/2+y,-z
1/2-x,1/2-y,-z
1/2+x,1/2+y,-z
1/2-x,1/2+y,z
1/2+x,1/2-y,z
loop_
_atom_site_type_symbol
_atom_site_label
_atom_site_fract_x
_atom_site_fract_y
_atom_site_fract_z
Si Si1 0.304787 0.194600 0.500000
Si Si2 0.802752 0.691418 0.243998
Si Si3 0.638997 0.687526 0.632518
Si Si4 0.553501 0.191143 0.716087
Si Si5 0.946007 0.192418 0.132965
Si Si6 0.847977 0.689241 0.096742
Si Si7 0.174928 0.000000 0.000000
O O1 0.250000 0.250000 0.500000
O O2 0.333381 0.251825 0.566433
O O3 0.303947 0.000000 0.500000
O O4 0.803109 0.500000 0.265863
O O5 0.750000 0.750000 0.230066
O O6 0.825463 0.795759 0.304064
O O7 0.832224 0.703915 0.174959
O O8 0.625045 0.500000 0.621397
O O9 0.592155 0.780419 0.658281
O O10 0.500000 0.226512 0.692673
O O11 0.561777 0.292232 0.785499
O O12 0.556027 0.000000 0.737391
O O13 0.904803 0.290267 0.095157
O O14 0.000000 0.247462 0.119937
O O15 0.942004 0.000000 0.113545
O O16 0.834822 0.500000 0.075695
O O17 0.827075 0.848517 0.057855
#
# Coordination Sequence:
#
# PCOD9487463 Si02
#       7
#     8  16  16  16  16  16   4
#     4  12  26  46  67  92 135 176 218 263 331 393
#     4  11  24  41  67  96 125 161 217 273 323 380
#     4  12  24  40  65  97 134 172 216 267 322 382
#     4  10  20  35  59  94 132 171 218 270 322 378
#     4  10  19  34  60  94 128 167 214 265 321 383
#     4  11  24  43  66  94 127 168 217 269 325 396
#     4  12  26  44  71  88 134 172 210 260 345 396
#
# _framework density 20.420922000000001
#
# number of rings (size 3 to 8) (size 9 to 14) (size 15 to 20)
#    0.000    1.043    2.609    4.696    2.435    2.087 
#    0.000    1.739    0.000    3.652    0.000    0.000 
#    0.000    0.000    0.000    0.000    0.000    0.000 
#
# Total GULP energy -256462.123584 kJ/mol
# GULP energy per Si atom -5575.263556 kJ/mol
# Density = 2.037444 g / cm^3
# Si number density = 20.420922 Si / 1000 Ang^3
#
#
#
# Elastic Constant Matrix: (Units=GPa)
#
#
# Indices 1 2 3 4 5 6 
#
# 1 44.4924 -10.2214 -24.7589 0.0000 0.0000 0.0000
# 2 -10.2214 111.3114 10.0296 0.0000 0.0000 0.0000
# 3 -24.7589 10.0296 48.5219 0.0000 0.0000 0.0000
# 4 0.0000 0.0000 0.0000 38.2214 0.0000 0.0000
# 5 0.0000 0.0000 0.0000 0.0000 -14.0686 0.0000
# 6 0.0000 0.0000 0.0000 0.0000 0.0000 21.7579
#
#
#
# Elastic Compliance Matrix: (Units=1/GPa)
#
#
# Indices 1 2 3 4 5 6 
#
# 1 0.031625 0.001478 0.015832 0.000000 0.000000 0.000000
# 2 0.001478 0.009223 -0.001153 0.000000 0.000000 0.000000
# 3 0.015832 -0.001153 0.028926 0.000000 0.000000 0.000000
# 4 0.000000 0.000000 0.000000 0.026163 0.000000 0.000000
# 5 0.000000 0.000000 0.000000 0.000000 -0.071080 0.000000
# 6 0.000000 0.000000 0.000000 0.000000 0.000000 0.045960
#
#
# Mechanical properties :
#
#
# Convention : Reuss Voigt Hill
#
# Bulk Modulus (GPa) = 9.79551 17.15827 13.47689
# Shear Modulus (GPa) = 68.93384 24.46724 46.70054
#
# Velocity S-wave (km/s) = 5.81634 3.46518 4.78734
# Velocity P-wave (km/s) = 7.06495 4.94272 6.09689
#
# Compressibility (1/GPa) = 0.10208762
#
# Stress axis : x y z
#
# Youngs Moduli (GPa) = 31.62042 108.42072 34.57122
#
# Poissons Ratio (x) = -0.16020 -0.54732
# Poissons Ratio (y) = -0.04672 0.03985
# Poissons Ratio (z) = -0.50060 0.12496
#
# Static dielectric constant tensor:
#      x y z
#    x 1.726690 0.000000 0.000000 
#    y 0.000000 1.716260 0.000000 
#    z 0.000000 0.000000 1.674310 
# 
# From -- ./inp_files/65786.got.cif
#   From: 2010.05.17/outbox.cif.g08.bks.cpg/sg65_33_cif.got.tgz:65786.got - 2010.06.03 17:01:31.
