data_PCOD9487009
_publ_section_title
;
Structure prediction by ZEFSAII (Michael W. Deem and Ramdas Pophale) SiO2 
 PCOD9487009
Probable space group: C M M M
;
_chemical_formula_sum "Si O2"
_cell_formula_units_Z 72
_cell_length_a 8.745476
_cell_length_b 16.233915
_cell_length_c 26.040084
_cell_angle_alpha 90.000000
_cell_angle_beta 90.000000
_cell_angle_gamma 90.000000
_cell_volume 3696.997023
_symmetry_space_group_name_H-M "C M M M"
_symmetry_group_IT_number 65
_symmetry_cell_setting 'orthorhombic'
loop_
_space_group_symop_operation_xyz
x,y,z
-x,-y,z
x,-y,-z
-x,y,-z
-x,-y,-z
x,y,-z
-x,y,z
x,-y,z
1/2+x,1/2+y,z
1/2-x,1/2-y,z
1/2+x,1/2-y,-z
1/2-x,1/2+y,-z
1/2-x,1/2-y,-z
1/2+x,1/2+y,-z
1/2-x,1/2+y,z
1/2+x,1/2-y,z
loop_
_atom_site_type_symbol
_atom_site_label
_atom_site_fract_x
_atom_site_fract_y
_atom_site_fract_z
Si Si1 0.182226 0.341612 0.555595
Si Si2 0.813604 0.000000 0.059132
Si Si3 0.184870 0.837050 0.121383
Si Si4 0.827213 0.901639 0.658975
Si Si5 0.813460 0.096022 0.230319
O O1 0.229125 0.379038 0.500000
O O2 0.250000 0.250000 0.556767
O O3 0.237849 0.384458 0.607157
O O4 0.000000 0.337905 0.556287
O O5 0.766271 0.916609 0.088343
O O6 0.000000 0.000000 0.060082
O O7 0.764517 0.000000 0.000000
O O8 0.250000 0.750000 0.103193
O O9 0.234010 0.853646 0.180376
O O10 0.000000 0.834109 0.120260
O O11 0.761014 0.872155 0.713766
O O12 0.000000 0.868702 0.652722
O O13 0.836851 0.000000 0.665337
O O14 0.000000 0.096669 0.232311
O O15 0.768714 0.000000 0.223247
#
# Coordination Sequence:
#
# PCOD9487009 Si02
#       5
#    16   8  16  16  16
#     4  10  21  36  52  69  94 130 170 212 260 313
#     4   9  18  34  57  81 107 147 192 225 260 318
#     4  10  19  33  55  81 109 143 184 227 270 320
#     4   9  18  32  52  77 102 130 167 209 254 310
#     4   8  14  29  52  74  99 136 176 211 255 314
#
# _framework density 19.475266000000001
#
# number of rings (size 3 to 8) (size 9 to 14) (size 15 to 20)
#    0.000    2.778    1.111    2.000    0.000    3.556 
#    0.000    6.111    0.000    2.000    0.000    0.000 
#    0.000    0.000    0.000    0.000    0.000    0.000 
#
# Total GULP energy -200604.584659 kJ/mol
# GULP energy per Si atom -5572.349574 kJ/mol
# Density = 1.943094 g / cm^3
# Si number density = 19.475266 Si / 1000 Ang^3
#
#
#
# Elastic Constant Matrix: (Units=GPa)
#
#
# Indices 1 2 3 4 5 6 
#
# 1 17.6762 12.8555 30.5417 0.0000 0.0000 0.0000
# 2 12.8555 92.6071 66.6363 0.0000 0.0000 0.0000
# 3 30.5417 66.6363 175.9451 0.0000 0.0000 0.0000
# 4 0.0000 0.0000 0.0000 1.5956 0.0000 0.0000
# 5 0.0000 0.0000 0.0000 0.0000 3.3073 0.0000
# 6 0.0000 0.0000 0.0000 0.0000 0.0000 23.0843
#
#
#
# Elastic Compliance Matrix: (Units=1/GPa)
#
#
# Indices 1 2 3 4 5 6 
#
# 1 0.080972 -0.001548 -0.013469 0.000000 0.000000 0.000000
# 2 -0.001548 0.014873 -0.005364 0.000000 0.000000 0.000000
# 3 -0.013469 -0.005364 0.010053 0.000000 0.000000 0.000000
# 4 0.000000 0.000000 0.000000 0.626737 0.000000 0.000000
# 5 0.000000 0.000000 0.000000 0.000000 0.302359 0.000000
# 6 0.000000 0.000000 0.000000 0.000000 0.000000 0.043319
#
#
# Mechanical properties :
#
#
# Convention : Reuss Voigt Hill
#
# Bulk Modulus (GPa) = 15.35279 56.25503 35.80391
# Shear Modulus (GPa) = 4.38293 17.34377 10.86335
#
# Velocity S-wave (km/s) = 1.50180 2.98745 2.36435
# Velocity P-wave (km/s) = 3.30266 6.39124 5.08702
#
# Compressibility (1/GPa) = 0.06513476
#
# Stress axis : x y z
#
# Youngs Moduli (GPa) = 12.34995 67.23558 99.47045
#
# Poissons Ratio (x) = 0.10411 1.33979
# Poissons Ratio (y) = 0.01912 0.53357
# Poissons Ratio (z) = 0.16634 0.36066
#
# Static dielectric constant tensor:
#      x y z
#    x 1.665860 0.000000 0.000000 
#    y 0.000000 1.720250 0.000000 
#    z 0.000000 0.000000 1.730070 
# 
# From -- ./inp_files/72468.got.cif
#   From: 2010.05.17/outbox.cif.g08.bks.cpg/sg65_37_cif.got.tgz:72468.got - 2010.06.03 17:01:31.
