data_PCOD9487711
_publ_section_title
;
Structure prediction by ZEFSAII (Michael W. Deem and Ramdas Pophale) SiO2 
 PCOD9487711
Probable space group: C M M M
;
_chemical_formula_sum "Si O2"
_cell_formula_units_Z 88
_cell_length_a 10.986624
_cell_length_b 14.688188
_cell_length_c 29.251074
_cell_angle_alpha 90.000000
_cell_angle_beta 90.000000
_cell_angle_gamma 90.000000
_cell_volume 4720.351080
_symmetry_space_group_name_H-M "C M M M"
_symmetry_group_IT_number 65
_symmetry_cell_setting 'orthorhombic'
loop_
_space_group_symop_operation_xyz
x,y,z
-x,-y,z
x,-y,-z
-x,y,-z
-x,-y,-z
x,y,-z
-x,y,z
x,-y,z
1/2+x,1/2+y,z
1/2-x,1/2-y,z
1/2+x,1/2-y,-z
1/2-x,1/2+y,-z
1/2-x,1/2-y,-z
1/2+x,1/2+y,-z
1/2-x,1/2+y,z
1/2+x,1/2-y,z
loop_
_atom_site_type_symbol
_atom_site_label
_atom_site_fract_x
_atom_site_fract_y
_atom_site_fract_z
Si Si1 0.750000 0.250000 0.334190
Si Si2 0.865830 0.108336 0.899301
Si Si3 0.143737 0.901703 0.399843
Si Si4 0.364157 0.683557 0.000000
Si Si5 0.360318 0.110709 0.839354
Si Si6 0.354769 0.326389 0.500000
Si Si7 0.645372 0.103260 0.735244
O O1 0.818893 0.181907 0.368292
O O2 0.681155 0.179743 0.300909
O O3 0.745623 0.143158 0.873356
O O4 0.000000 0.143470 0.884183
O O5 0.867519 0.000000 0.891794
O O6 0.856488 0.126748 0.953310
O O7 0.165347 0.881752 0.453318
O O8 0.000000 0.908733 0.394572
O O9 0.199905 0.000000 0.387348
O O10 0.250000 0.750000 0.000000
O O11 0.500000 0.727557 0.000000
O O12 0.500000 0.141940 0.848080
O O13 0.322072 0.130948 0.787149
O O14 0.365277 0.000000 0.842126
O O15 0.500000 0.297304 0.500000
O O16 0.250000 0.250000 0.500000
O O17 0.500000 0.096445 0.735201
O O18 0.693569 0.000000 0.726232
#
# Coordination Sequence:
#
# PCOD9487711 Si02
#       7
#     8  16  16   8  16   8  16
#     4  12  20  33  56  82 112 141 188 240 282 324
#     4   9  17  32  55  79 101 130 171 217 265 314
#     4  10  21  36  56  82 114 153 192 230 278 337
#     4  10  21  35  49  71 107 140 166 204 260 320
#     4   8  15  31  54  76 100 134 176 217 261 321
#     4  10  19  37  61  86 116 152 191 233 281 336
#     4   9  19  36  55  76 106 145 184 227 285 340
#
# _framework density 18.642681
#
# number of rings (size 3 to 8) (size 9 to 14) (size 15 to 20)
#    0.000    2.545    0.909    2.727    0.000    2.909 
#    1.636    1.818    0.000    9.273    0.000    0.000 
#    0.000    0.000    0.000    0.000    0.000    0.000 
#
# Total GULP energy -244963.008453 kJ/mol
# GULP energy per Si atom -5567.341101 kJ/mol
# Density = 1.860025 g / cm^3
# Si number density = 18.642681 Si / 1000 Ang^3
#
#
#
# Elastic Constant Matrix: (Units=GPa)
#
#
# Indices 1 2 3 4 5 6 
#
# 1 86.9758 38.0019 65.5166 0.0000 0.0000 0.0000
# 2 38.0019 97.3982 47.6153 0.0000 0.0000 0.0000
# 3 65.5166 47.6153 132.3564 0.0000 0.0000 0.0000
# 4 0.0000 0.0000 0.0000 -5.5954 0.0000 0.0000
# 5 0.0000 0.0000 0.0000 0.0000 31.9434 0.0000
# 6 0.0000 0.0000 0.0000 0.0000 0.0000 17.8247
#
#
#
# Elastic Compliance Matrix: (Units=1/GPa)
#
#
# Indices 1 2 3 4 5 6 
#
# 1 0.019249 -0.003461 -0.008283 0.000000 0.000000 0.000000
# 2 -0.003461 0.013080 -0.002993 0.000000 0.000000 0.000000
# 3 -0.008283 -0.002993 0.012732 0.000000 0.000000 0.000000
# 4 0.000000 0.000000 0.000000 -0.178719 0.000000 0.000000
# 5 0.000000 0.000000 0.000000 0.000000 0.031305 0.000000
# 6 0.000000 0.000000 0.000000 0.000000 0.000000 0.056102
#
#
# Mechanical properties :
#
#
# Convention : Reuss Voigt Hill
#
# Bulk Modulus (GPa) = 64.15089 68.77754 66.46421
# Shear Modulus (GPa) = -431.78578 19.87432 -205.95573
#
# Velocity S-wave (km/s) = -15.23530 3.26861 -10.52213
# Velocity P-wave (km/s) = 16.58313 7.15665 10.57787
#
# Compressibility (1/GPa) = 0.01558825
#
# Stress axis : x y z
#
# Youngs Moduli (GPa) = 51.95010 76.44988 78.54135
#
# Poissons Ratio (x) = 0.26459 0.65058
# Poissons Ratio (y) = 0.17980 0.23504
# Poissons Ratio (z) = 0.43032 0.22878
#
# Static dielectric constant tensor:
#      x y z
#    x 1.649980 0.000000 0.000000 
#    y 0.000000 0.766770 0.000000 
#    z 0.000000 0.000000 1.651540 
# 
# From -- ./inp_files/74318.got.cif
#   From: 2010.05.17/outbox.cif.g08.bks.cpg/sg65_38_cif.got.tgz:74318.got - 2010.06.03 17:01:31.
