data_PCOD9487056
_publ_section_title
;
Structure prediction by ZEFSAII (Michael W. Deem and Ramdas Pophale) SiO2 
 PCOD9487056
Probable space group: C M M M
;
_chemical_formula_sum "Si O2"
_cell_formula_units_Z 72
_cell_length_a 19.550059
_cell_length_b 23.542390
_cell_length_c 7.547963
_cell_angle_alpha 90.000000
_cell_angle_beta 90.000000
_cell_angle_gamma 90.000000
_cell_volume 3473.988567
_symmetry_space_group_name_H-M "C M M M"
_symmetry_group_IT_number 65
_symmetry_cell_setting 'orthorhombic'
loop_
_space_group_symop_operation_xyz
x,y,z
-x,-y,z
x,-y,-z
-x,y,-z
-x,-y,-z
x,y,-z
-x,y,z
x,-y,z
1/2+x,1/2+y,z
1/2-x,1/2-y,z
1/2+x,1/2-y,-z
1/2-x,1/2+y,-z
1/2-x,1/2-y,-z
1/2+x,1/2+y,-z
1/2-x,1/2+y,z
1/2+x,1/2-y,z
loop_
_atom_site_type_symbol
_atom_site_label
_atom_site_fract_x
_atom_site_fract_y
_atom_site_fract_z
Si Si1 0.421171 0.500000 0.782585
Si Si2 0.325524 0.267755 0.213304
Si Si3 0.922508 0.662060 0.712161
Si Si4 0.820673 0.564768 0.714123
Si Si5 0.667208 0.605825 0.210438
O O1 0.500000 0.500000 0.730481
O O2 0.381348 0.556087 0.719812
O O3 0.418838 0.500000 0.000000
O O4 0.250000 0.250000 0.278576
O O5 0.380639 0.219631 0.254218
O O6 0.343421 0.330626 0.281156
O O7 0.320848 0.271311 0.000000
O O8 0.926458 0.655588 0.500000
O O9 0.877819 0.608877 0.779476
O O10 0.000000 0.663892 0.781096
O O11 0.823838 0.563803 0.500000
O O12 0.829309 0.500000 0.776827
O O13 0.745791 0.587692 0.763090
O O14 0.654626 0.608336 0.000000
#
# Coordination Sequence:
#
# PCOD9487056 Si02
#       5
#     8  16  16  16  16
#     4   9  18  32  51  77 106 135 170 214 263 313
#     4  10  20  34  55  83 109 138 180 225 270 319
#     4  10  22  38  55  79 111 146 182 222 272 325
#     4  10  20  34  55  81 107 139 180 226 271 318
#     4  10  19  33  56  81 105 138 179 222 264 319
#
# _framework density 20.725456000000001
#
# number of rings (size 3 to 8) (size 9 to 14) (size 15 to 20)
#    0.000    2.111    3.333    0.000    0.000    3.111 
#    0.000    4.444    0.000    1.333    0.000    3.111 
#    0.000    0.000    0.000    0.000    0.000    0.000 
#
# Total GULP energy -201087.660839 kJ/mol
# GULP energy per Si atom -5585.768357 kJ/mol
# Density = 2.067828 g / cm^3
# Si number density = 20.725456 Si / 1000 Ang^3
#
#
#
# Elastic Constant Matrix: (Units=GPa)
#
#
# Indices 1 2 3 4 5 6 
#
# 1 154.2793 92.1603 -19.3089 0.0000 0.0000 0.0000
# 2 92.1603 216.6103 -7.2190 0.0000 0.0000 0.0000
# 3 -19.3089 -7.2190 44.8899 0.0000 0.0000 0.0000
# 4 0.0000 0.0000 0.0000 272.7481 0.0000 0.0000
# 5 0.0000 0.0000 0.0000 0.0000 21.7326 0.0000
# 6 0.0000 0.0000 0.0000 0.0000 0.0000 34.7680
#
#
#
# Elastic Compliance Matrix: (Units=1/GPa)
#
#
# Indices 1 2 3 4 5 6 
#
# 1 0.009161 -0.003786 0.003331 0.000000 0.000000 0.000000
# 2 -0.003786 0.006207 -0.000631 0.000000 0.000000 0.000000
# 3 0.003331 -0.000631 0.023608 0.000000 0.000000 0.000000
# 4 0.000000 0.000000 0.000000 0.003666 0.000000 0.000000
# 5 0.000000 0.000000 0.000000 0.000000 0.046014 0.000000
# 6 0.000000 0.000000 0.000000 0.000000 0.000000 0.028762
#
#
# Mechanical properties :
#
#
# Convention : Reuss Voigt Hill
#
# Bulk Modulus (GPa) = 27.17088 60.78271 43.97679
# Shear Modulus (GPa) = 37.91980 89.19287 63.55634
#
# Velocity S-wave (km/s) = 4.28205 6.56726 5.54368
# Velocity P-wave (km/s) = 6.13077 9.32182 7.88932
#
# Compressibility (1/GPa) = 0.03680411
#
# Stress axis : x y z
#
# Youngs Moduli (GPa) = 109.16320 161.11901 42.35797
#
# Poissons Ratio (x) = 0.61008 -0.14111
# Poissons Ratio (y) = 0.41335 0.02671
# Poissons Ratio (z) = -0.36367 0.10160
#
# Static dielectric constant tensor:
#      x y z
#    x 1.689440 0.000000 0.000000 
#    y 0.000000 1.739100 0.000000 
#    z 0.000000 0.000000 2.178240 
# 
# From -- ./inp_files/9210.got.cif
#   From: 2010.05.17/outbox.cif.g08.bks.cpg/sg65_5_cif.got.tgz:9210.got - 2010.06.03 17:01:31.
