data_PCOD9487506
_publ_section_title
;
Structure prediction by ZEFSAII (Michael W. Deem and Ramdas Pophale) SiO2 
 PCOD9487506
Probable space group: C M M M
;
_chemical_formula_sum "Si O2"
_cell_formula_units_Z 116
_cell_length_a 29.539912
_cell_length_b 25.720958
_cell_length_c 7.731330
_cell_angle_alpha 90.000000
_cell_angle_beta 90.000000
_cell_angle_gamma 90.000000
_cell_volume 5874.224608
_symmetry_space_group_name_H-M "C M M M"
_symmetry_group_IT_number 65
_symmetry_cell_setting 'orthorhombic'
loop_
_space_group_symop_operation_xyz
x,y,z
-x,-y,z
x,-y,-z
-x,y,-z
-x,-y,-z
x,y,-z
-x,y,z
x,-y,z
1/2+x,1/2+y,z
1/2-x,1/2-y,z
1/2+x,1/2-y,-z
1/2-x,1/2+y,-z
1/2-x,1/2-y,-z
1/2+x,1/2+y,-z
1/2-x,1/2+y,z
1/2+x,1/2-y,z
loop_
_atom_site_type_symbol
_atom_site_label
_atom_site_fract_x
_atom_site_fract_y
_atom_site_fract_z
Si Si1 0.779707 0.902403 0.196215
Si Si2 0.855920 0.696441 0.298595
Si Si3 0.205376 0.214273 0.702160
Si Si4 0.551512 0.644069 0.709260
Si Si5 0.661454 0.000000 0.000000
Si Si6 0.320034 0.084373 0.299215
Si Si7 0.550820 0.763984 0.795337
Si Si8 0.878164 0.942205 0.292509
O O1 0.787060 0.840388 0.207107
O O2 0.734691 0.916713 0.299650
O O3 0.826174 0.928528 0.255528
O O4 0.770678 0.918682 0.000000
O O5 0.842731 0.698713 0.500000
O O6 0.833650 0.748653 0.222254
O O7 0.835512 0.642110 0.239156
O O8 0.909553 0.701232 0.281895
O O9 0.195724 0.200937 0.500000
O O10 0.250000 0.250000 0.707464
O O11 0.552270 0.643457 0.500000
O O12 0.500000 0.631551 0.764714
O O13 0.561220 0.703194 0.762887
O O14 0.588264 0.602715 0.773546
O O15 0.663048 0.044704 0.155058
O O16 0.335308 0.075952 0.500000
O O17 0.500000 0.773521 0.727133
O O18 0.550454 0.772715 0.000000
O O19 0.883567 0.943107 0.500000
O O20 0.888856 0.000000 0.226254
#
# Coordination Sequence:
#
# PCOD9487506 Si02
#       8
#    16  16  16  16   4  16  16  16
#     4  12  24  37  53  82 117 155 206 251 303 365
#     4  10  21  37  61  89 119 158 199 242 296 361
#     4  10  19  35  56  80 115 155 193 237 298 363
#     4   9  18  35  57  80 109 147 195 247 305 374
#     4  12  26  44  64  92 117 162 207 244 298 358
#     4  11  24  43  64  89 121 159 204 253 300 354
#     4  10  21  35  56  87 123 157 187 232 297 361
#     4  10  22  37  54  76 104 148 201 258 316 357
#
# _framework density 19.747287
#
# number of rings (size 3 to 8) (size 9 to 14) (size 15 to 20)
#    0.000    1.655    2.069    2.690    1.931    6.069 
#    0.000    1.379    0.000    0.000    0.000    3.862 
#    0.000    2.207    0.000    0.000    0.000    0.000 
#
# Total GULP energy -323389.300154 kJ/mol
# GULP energy per Si atom -5575.677589 kJ/mol
# Density = 1.970234 g / cm^3
# Si number density = 19.747287 Si / 1000 Ang^3
#
#
#
# Elastic Constant Matrix: (Units=GPa)
#
#
# Indices 1 2 3 4 5 6 
#
# 1 73.5008 5.0849 -7.5593 0.0000 0.0000 0.0000
# 2 5.0849 21.6180 6.6780 0.0000 0.0000 0.0000
# 3 -7.5593 6.6780 59.0964 0.0000 0.0000 0.0000
# 4 0.0000 0.0000 0.0000 40.9353 0.0000 0.0000
# 5 0.0000 0.0000 0.0000 0.0000 3.1946 0.0000
# 6 0.0000 0.0000 0.0000 0.0000 0.0000 -11.1462
#
#
#
# Elastic Compliance Matrix: (Units=1/GPa)
#
#
# Indices 1 2 3 4 5 6 
#
# 1 0.014116 -0.004018 0.002260 0.000000 0.000000 0.000000
# 2 -0.004018 0.049075 -0.006060 0.000000 0.000000 0.000000
# 3 0.002260 -0.006060 0.017895 0.000000 0.000000 0.000000
# 4 0.000000 0.000000 0.000000 0.024429 0.000000 0.000000
# 5 0.000000 0.000000 0.000000 0.000000 0.313025 0.000000
# 6 0.000000 0.000000 0.000000 0.000000 0.000000 -0.089716
#
#
# Mechanical properties :
#
#
# Convention : Reuss Voigt Hill
#
# Bulk Modulus (GPa) = 15.27894 18.06914 16.67404
# Shear Modulus (GPa) = 13.65093 16.59753 15.12423
#
# Velocity S-wave (km/s) = 2.63208 2.90228 2.77047
# Velocity P-wave (km/s) = 4.12203 4.51675 4.32389
#
# Compressibility (1/GPa) = 0.06544955
#
# Stress axis : x y z
#
# Youngs Moduli (GPa) = 70.84317 20.37706 55.88069
#
# Poissons Ratio (x) = 0.08188 -0.12627
# Poissons Ratio (y) = 0.28467 0.33861
# Poissons Ratio (z) = -0.16008 0.12347
#
# Static dielectric constant tensor:
#      x y z
#    x 1.700960 0.000000 0.000000 
#    y 0.000000 1.685890 0.000000 
#    z 0.000000 0.000000 1.734700 
# 
# From -- ./inp_files/18979.got.cif
#   From: 2010.05.17/outbox.cif.g08.bks.cpg/sg65_10_cif.got.tgz:18979.got - 2010.06.03 17:01:31.
