data_PCOD9487229
_publ_section_title
;
Structure prediction by ZEFSAII (Michael W. Deem and Ramdas Pophale) SiO2 
 PCOD9487229
Probable space group: C M M M
;
_chemical_formula_sum "Si O2"
_cell_formula_units_Z 120
_cell_length_a 9.543619
_cell_length_b 28.608431
_cell_length_c 25.923321
_cell_angle_alpha 90.000000
_cell_angle_beta 90.000000
_cell_angle_gamma 90.000000
_cell_volume 7077.791596
_symmetry_space_group_name_H-M "C M M M"
_symmetry_group_IT_number 65
_symmetry_cell_setting 'orthorhombic'
loop_
_space_group_symop_operation_xyz
x,y,z
-x,-y,z
x,-y,-z
-x,y,-z
-x,-y,-z
x,y,-z
-x,y,z
x,-y,z
1/2+x,1/2+y,z
1/2-x,1/2-y,z
1/2+x,1/2-y,-z
1/2-x,1/2+y,-z
1/2-x,1/2-y,-z
1/2+x,1/2+y,-z
1/2-x,1/2+y,z
1/2+x,1/2-y,z
loop_
_atom_site_type_symbol
_atom_site_label
_atom_site_fract_x
_atom_site_fract_y
_atom_site_fract_z
Si Si1 0.831300 0.050987 0.500000
Si Si2 0.837192 0.122963 0.706248
Si Si3 0.834745 0.555543 0.227625
Si Si4 0.164325 0.553919 0.062000
Si Si5 0.661657 0.374490 0.416848
Si Si6 0.666966 0.700962 0.209335
Si Si7 0.831544 0.888891 0.859262
Si Si8 0.652595 0.211726 0.439612
O O1 0.799130 0.078827 0.447672
O O2 0.000000 0.047254 0.500000
O O3 0.767375 0.000000 0.500000
O O4 0.730444 0.083123 0.724229
O O5 0.830421 0.125850 0.644765
O O6 0.804351 0.170402 0.738456
O O7 0.000000 0.111390 0.720280
O O8 0.819186 0.500000 0.231901
O O9 0.742170 0.576075 0.181190
O O10 0.000000 0.565903 0.220663
O O11 0.202469 0.500000 0.077080
O O12 0.260349 0.593422 0.087988
O O13 0.000000 0.560325 0.076431
O O14 0.173230 0.556184 0.000000
O O15 0.500000 0.363030 0.430853
O O16 0.766653 0.336116 0.437125
O O17 0.500000 0.710450 0.208112
O O18 0.750000 0.750000 0.206930
O O19 0.698027 0.663523 0.162955
O O20 0.000000 0.894072 0.860459
O O21 0.636656 0.224018 0.500000
O O22 0.500000 0.209575 0.415746
O O23 0.750000 0.250000 0.413543
#
# Coordination Sequence:
#
# PCOD9487229 Si02
#       8
#     8  16  16  16  16  16  16  16
#     4   9  18  32  52  77 100 129 172 211 244 295
#     4   9  20  35  51  75 103 131 165 209 259 309
#     4  10  20  33  50  73 101 134 172 212 255 308
#     4   9  18  32  50  76 112 150 185 220 259 308
#     4  10  19  34  55  76 102 133 166 208 254 304
#     4   9  19  35  52  73 100 129 168 213 261 314
#     4  10  20  33  51  77 106 136 175 222 265 312
#     4  10  20  33  51  74  99 126 158 194 240 296
#
# _framework density 16.954440999999999
#
# number of rings (size 3 to 8) (size 9 to 14) (size 15 to 20)
#    0.000    2.467    0.667    2.800    0.000    8.000 
#    0.000    3.333    0.000    1.200    0.000    0.000 
#    0.000    0.000    0.000    0.000    0.000    0.000 
#
# Total GULP energy -334061.166560 kJ/mol
# GULP energy per Si atom -5567.686109 kJ/mol
# Density = 1.691585 g / cm^3
# Si number density = 16.954441 Si / 1000 Ang^3
#
#
#
# Elastic Constant Matrix: (Units=GPa)
#
#
# Indices 1 2 3 4 5 6 
#
# 1 101.4365 75.5401 34.9585 0.0000 0.0000 0.0000
# 2 75.5401 135.0003 39.1164 0.0000 0.0000 0.0000
# 3 34.9585 39.1164 64.0218 0.0000 0.0000 0.0000
# 4 0.0000 0.0000 0.0000 31.7861 0.0000 0.0000
# 5 0.0000 0.0000 0.0000 0.0000 20.9463 0.0000
# 6 0.0000 0.0000 0.0000 0.0000 0.0000 28.4204
#
#
#
# Elastic Compliance Matrix: (Units=1/GPa)
#
#
# Indices 1 2 3 4 5 6 
#
# 1 0.017881 -0.008720 -0.004436 0.000000 0.000000 0.000000
# 2 -0.008720 0.013253 -0.003336 0.000000 0.000000 0.000000
# 3 -0.004436 -0.003336 0.020080 0.000000 0.000000 0.000000
# 4 0.000000 0.000000 0.000000 0.031460 0.000000 0.000000
# 5 0.000000 0.000000 0.000000 0.000000 0.047741 0.000000
# 6 0.000000 0.000000 0.000000 0.000000 0.000000 0.035186
#
#
# Mechanical properties :
#
#
# Convention : Reuss Voigt Hill
#
# Bulk Modulus (GPa) = 54.85351 66.63206 60.74278
# Shear Modulus (GPa) = 24.43039 26.28680 25.35859
#
# Velocity S-wave (km/s) = 3.80009 3.94183 3.87161
# Velocity P-wave (km/s) = 7.18874 7.75263 7.47601
#
# Compressibility (1/GPa) = 0.01823038
#
# Stress axis : x y z
#
# Youngs Moduli (GPa) = 55.92510 75.45227 49.80031
#
# Poissons Ratio (x) = 0.65795 0.22091
# Poissons Ratio (y) = 0.48767 0.16614
# Poissons Ratio (z) = 0.24808 0.25172
#
# Static dielectric constant tensor:
#      x y z
#    x 1.605940 0.000000 0.000000 
#    y 0.000000 1.583160 0.000000 
#    z 0.000000 0.000000 1.628640 
# 
# From -- ./inp_files/74009.got.cif
#   From: 2010.05.17/outbox.cif.g08.bks.cpg/sg65_38_cif.got.tgz:74009.got - 2010.06.03 17:01:31.
