data_PCOD9487420
_publ_section_title
;
Structure prediction by ZEFSAII (Michael W. Deem and Ramdas Pophale) SiO2 
 PCOD9487420
Probable space group: C M M M
;
_chemical_formula_sum "Si O2"
_cell_formula_units_Z 72
_cell_length_a 24.524512
_cell_length_b 18.148650
_cell_length_c 7.680568
_cell_angle_alpha 90.000000
_cell_angle_beta 90.000000
_cell_angle_gamma 90.000000
_cell_volume 3418.519316
_symmetry_space_group_name_H-M "C M M M"
_symmetry_group_IT_number 65
_symmetry_cell_setting 'orthorhombic'
loop_
_space_group_symop_operation_xyz
x,y,z
-x,-y,z
x,-y,-z
-x,y,-z
-x,-y,-z
x,y,-z
-x,y,z
x,-y,z
1/2+x,1/2+y,z
1/2-x,1/2-y,z
1/2+x,1/2-y,-z
1/2-x,1/2+y,-z
1/2-x,1/2-y,-z
1/2+x,1/2+y,-z
1/2-x,1/2+y,z
1/2+x,1/2-y,z
loop_
_atom_site_type_symbol
_atom_site_label
_atom_site_fract_x
_atom_site_fract_y
_atom_site_fract_z
Si Si1 0.561975 0.283560 0.706784
Si Si2 0.062027 0.500000 0.214027
Si Si3 0.249896 0.664269 0.212961
Si Si4 0.129938 0.361314 0.792952
Si Si5 0.139946 0.083802 0.209789
O O1 0.558847 0.276630 0.500000
O O2 0.500000 0.278018 0.777205
O O3 0.601158 0.217479 0.768168
O O4 0.590677 0.361159 0.747474
O O5 0.092522 0.573201 0.274930
O O6 0.000000 0.500000 0.270936
O O7 0.061856 0.500000 0.000000
O O8 0.250000 0.750000 0.262835
O O9 0.191604 0.634458 0.274506
O O10 0.303329 0.620559 0.272759
O O11 0.250878 0.662243 0.000000
O O12 0.134327 0.371929 0.000000
O O13 0.133274 0.000000 0.273279
O O14 0.143340 0.080907 0.000000
#
# Coordination Sequence:
#
# PCOD9487420 Si02
#       5
#    16   8  16  16  16
#     4  11  24  40  57  78 108 149 194 237 284 335
#     4   9  18  30  49  83 117 143 178 225 270 316
#     4   9  16  30  54  85 113 138 173 221 276 325
#     4  10  19  34  58  85 114 147 184 228 277 334
#     4  10  21  37  59  87 116 146 184 230 280 337
#
# _framework density 21.061751000000001
#
# number of rings (size 3 to 8) (size 9 to 14) (size 15 to 20)
#    0.000    2.111    2.222    1.333    1.556    3.556 
#    0.000    5.000    0.000    2.000    0.000    0.000 
#    0.000    0.000    0.000    0.000    0.000    0.000 
#
# Total GULP energy -201060.938769 kJ/mol
# GULP energy per Si atom -5585.026077 kJ/mol
# Density = 2.101381 g / cm^3
# Si number density = 21.061751 Si / 1000 Ang^3
#
#
#
# Elastic Constant Matrix: (Units=GPa)
#
#
# Indices 1 2 3 4 5 6 
#
# 1 111.6746 6.3287 -6.4405 0.0000 0.0000 0.0000
# 2 6.3287 79.0926 -16.0230 0.0000 0.0000 0.0000
# 3 -6.4405 -16.0230 32.5912 0.0000 0.0000 0.0000
# 4 0.0000 0.0000 0.0000 -228.8461 0.0000 0.0000
# 5 0.0000 0.0000 0.0000 0.0000 29.4123 0.0000
# 6 0.0000 0.0000 0.0000 0.0000 0.0000 -7.6848
#
#
#
# Elastic Compliance Matrix: (Units=1/GPa)
#
#
# Indices 1 2 3 4 5 6 
#
# 1 0.009069 -0.000403 0.001594 0.000000 0.000000 0.000000
# 2 -0.000403 0.014060 0.006833 0.000000 0.000000 0.000000
# 3 0.001594 0.006833 0.034357 0.000000 0.000000 0.000000
# 4 0.000000 0.000000 0.000000 -0.004370 0.000000 0.000000
# 5 0.000000 0.000000 0.000000 0.000000 0.033999 0.000000
# 6 0.000000 0.000000 0.000000 0.000000 0.000000 -0.130126
#
#
# Mechanical properties :
#
#
# Convention : Reuss Voigt Hill
#
# Bulk Modulus (GPa) = 13.59894 21.23208 17.41551
# Shear Modulus (GPa) = -144.73010 -25.45751 -85.09381
#
# Velocity S-wave (km/s) = -8.29857 -3.48042 -6.36316
# Velocity P-wave (km/s) = 9.23855 2.45934 6.76015
#
# Compressibility (1/GPa) = 0.07353512
#
# Stress axis : x y z
#
# Youngs Moduli (GPa) = 110.26139 71.12461 29.10580
#
# Poissons Ratio (x) = 0.02864 -0.04640
# Poissons Ratio (y) = 0.04440 -0.19887
# Poissons Ratio (z) = -0.17579 -0.48597
#
# Static dielectric constant tensor:
#      x y z
#    x 1.761700 0.000000 0.000000 
#    y 0.000000 1.732100 0.000000 
#    z 0.000000 0.000000 1.785710 
# 
# From -- ./inp_files/9251.got.cif
#   From: 2010.05.17/outbox.cif.g08.bks.cpg/sg65_5_cif.got.tgz:9251.got - 2010.06.03 17:01:31.
