data_PCOD9487575
_publ_section_title
;
Structure prediction by ZEFSAII (Michael W. Deem and Ramdas Pophale) SiO2 
 PCOD9487575
Probable space group: C M M M
;
_chemical_formula_sum "Si O2"
_cell_formula_units_Z 64
_cell_length_a 11.443748
_cell_length_b 16.083898
_cell_length_c 19.650419
_cell_angle_alpha 90.000000
_cell_angle_beta 90.000000
_cell_angle_gamma 90.000000
_cell_volume 3616.857606
_symmetry_space_group_name_H-M "C M M M"
_symmetry_group_IT_number 65
_symmetry_cell_setting 'orthorhombic'
loop_
_space_group_symop_operation_xyz
x,y,z
-x,-y,z
x,-y,-z
-x,y,-z
-x,-y,-z
x,y,-z
-x,y,z
x,-y,z
1/2+x,1/2+y,z
1/2-x,1/2-y,z
1/2+x,1/2-y,-z
1/2-x,1/2+y,-z
1/2-x,1/2-y,-z
1/2+x,1/2+y,-z
1/2-x,1/2+y,z
1/2+x,1/2-y,z
loop_
_atom_site_type_symbol
_atom_site_label
_atom_site_fract_x
_atom_site_fract_y
_atom_site_fract_z
Si Si1 0.365427 0.598583 0.716495
Si Si2 0.000000 0.900697 0.923146
Si Si3 0.864359 0.190421 0.422927
Si Si4 0.138865 0.500000 0.078321
Si Si5 0.234859 0.846972 0.149215
O O1 0.500000 0.620144 0.734706
O O2 0.352534 0.500000 0.723762
O O3 0.350206 0.626222 0.638724
O O4 0.278134 0.641229 0.769575
O O5 0.887248 0.872243 0.883579
O O6 0.000000 0.000000 0.925091
O O7 0.000000 0.868327 0.000000
O O8 0.860492 0.155717 0.500000
O O9 0.750000 0.250000 0.417718
O O10 0.000000 0.225195 0.415761
O O11 0.178858 0.584002 0.117188
O O12 0.000000 0.500000 0.074814
O O13 0.186373 0.500000 0.000000
O O14 0.250000 0.750000 0.133387
#
# Coordination Sequence:
#
# PCOD9487575 Si02
#       5
#    16   8  16   8  16
#     4  10  19  35  59  85 116 151 194 249 298 346
#     4  11  22  40  64  87 112 150 200 250 296 355
#     4   9  18  33  55  85 118 154 196 243 296 356
#     4  11  26  45  61  85 124 160 194 248 311 367
#     4  12  24  40  63  89 118 155 200 249 299 360
#
# _framework density 17.694918000000001
#
# number of rings (size 3 to 8) (size 9 to 14) (size 15 to 20)
#    0.000    1.500    3.750    1.500    1.750    2.500 
#    0.000    3.750    0.000    0.000    0.000    3.500 
#    0.000    0.000    0.000    0.000    0.000    0.000 
#
# Total GULP energy -178252.263681 kJ/mol
# GULP energy per Si atom -5570.383240 kJ/mol
# Density = 1.765464 g / cm^3
# Si number density = 17.694918 Si / 1000 Ang^3
#
#
#
# Elastic Constant Matrix: (Units=GPa)
#
#
# Indices 1 2 3 4 5 6 
#
# 1 78.2566 27.3691 24.7055 0.0000 0.0000 0.0000
# 2 27.3691 92.5697 36.6913 0.0000 0.0000 0.0000
# 3 24.7055 36.6913 109.7146 0.0000 0.0000 0.0000
# 4 0.0000 0.0000 0.0000 28.8250 0.0000 0.0000
# 5 0.0000 0.0000 0.0000 0.0000 31.6720 0.0000
# 6 0.0000 0.0000 0.0000 0.0000 0.0000 -24.2841
#
#
#
# Elastic Compliance Matrix: (Units=1/GPa)
#
#
# Indices 1 2 3 4 5 6 
#
# 1 0.014674 -0.003492 -0.002137 0.000000 0.000000 0.000000
# 2 -0.003492 0.013284 -0.003656 0.000000 0.000000 0.000000
# 3 -0.002137 -0.003656 0.010818 0.000000 0.000000 0.000000
# 4 0.000000 0.000000 0.000000 0.034692 0.000000 0.000000
# 5 0.000000 0.000000 0.000000 0.000000 0.031574 0.000000
# 6 0.000000 0.000000 0.000000 0.000000 0.000000 -0.041179
#
#
# Mechanical properties :
#
#
# Convention : Reuss Voigt Hill
#
# Bulk Modulus (GPa) = 49.48627 50.89694 50.19161
# Shear Modulus (GPa) = 56.07364 20.02759 38.05062
#
# Velocity S-wave (km/s) = 5.63542 3.36791 4.64224
# Velocity P-wave (km/s) = 8.38874 6.62947 7.56045
#
# Compressibility (1/GPa) = 0.02020763
#
# Stress axis : x y z
#
# Youngs Moduli (GPa) = 68.14698 75.27712 92.43474
#
# Poissons Ratio (x) = 0.26284 0.19750
# Poissons Ratio (y) = 0.23795 0.33797
# Poissons Ratio (z) = 0.14560 0.27524
#
# Static dielectric constant tensor:
#      x y z
#    x 1.614900 0.000000 0.000000 
#    y 0.000000 1.538020 0.000000 
#    z 0.000000 0.000000 1.639710 
# 
# From -- ./inp_files/50894.got.cif
#   From: 2010.05.17/outbox.cif.g08.bks.cpg/sg65_26_cif.got.tgz:50894.got - 2010.06.03 17:01:31.
