data_PCOD9487303
_publ_section_title
;
Structure prediction by ZEFSAII (Michael W. Deem and Ramdas Pophale) SiO2 
 PCOD9487303
Probable space group: C M M M
;
_chemical_formula_sum "Si O2"
_cell_formula_units_Z 96
_cell_length_a 24.350086
_cell_length_b 25.862353
_cell_length_c 8.549119
_cell_angle_alpha 90.000000
_cell_angle_beta 90.000000
_cell_angle_gamma 90.000000
_cell_volume 5383.812133
_symmetry_space_group_name_H-M "C M M M"
_symmetry_group_IT_number 65
_symmetry_cell_setting 'orthorhombic'
loop_
_space_group_symop_operation_xyz
x,y,z
-x,-y,z
x,-y,-z
-x,y,-z
-x,-y,-z
x,y,-z
-x,y,z
x,-y,z
1/2+x,1/2+y,z
1/2-x,1/2-y,z
1/2+x,1/2-y,-z
1/2-x,1/2+y,-z
1/2-x,1/2-y,-z
1/2+x,1/2+y,-z
1/2-x,1/2+y,z
1/2+x,1/2-y,z
loop_
_atom_site_type_symbol
_atom_site_label
_atom_site_fract_x
_atom_site_fract_y
_atom_site_fract_z
Si Si1 0.000000 0.692109 0.812501
Si Si2 0.884249 0.151666 0.689228
Si Si3 0.000000 0.187570 0.187103
Si Si4 0.812830 0.749088 0.690589
Si Si5 0.885458 0.348761 0.312429
Si Si6 0.693605 0.440587 0.689012
Si Si7 0.186085 0.559816 0.187227
O O1 0.054505 0.664114 0.751769
O O2 0.000000 0.752262 0.758353
O O3 0.000000 0.692025 0.000000
O O4 0.886762 0.151885 0.500000
O O5 0.846802 0.200392 0.738956
O O6 0.853379 0.099317 0.738927
O O7 0.945072 0.160023 0.752991
O O8 0.000000 0.187871 0.000000
O O9 0.811740 0.749223 0.500000
O O10 0.750000 0.750000 0.744953
O O11 0.844992 0.697707 0.739693
O O12 0.887214 0.348690 0.500000
O O13 0.859577 0.402081 0.253981
O O14 0.696138 0.439356 0.500000
O O15 0.683395 0.500000 0.737831
O O16 0.753438 0.424707 0.751712
O O17 0.177452 0.500000 0.235461
O O18 0.185810 0.562108 0.000000
#
# Coordination Sequence:
#
# PCOD9487303 Si02
#       7
#     8  16   8  16  16  16  16
#     4  11  23  39  56  77 112 149 182 226 281 334
#     4  10  19  34  56  79 109 145 185 230 276 326
#     4  11  23  37  54  77 110 148 188 229 273 330
#     4   9  17  29  49  79 109 136 170 217 274 327
#     4  11  21  35  58  83 109 142 187 232 270 323
#     4   9  18  34  58  86 112 143 186 233 277 322
#     4  10  21  37  57  82 115 152 183 218 273 333
#
# _framework density 17.831232
#
# number of rings (size 3 to 8) (size 9 to 14) (size 15 to 20)
#    0.000    2.000    1.667    2.500    0.000    5.000 
#    0.000    0.833    0.000    7.500    0.000    0.000 
#    0.000    0.000    0.000    0.000    0.000    0.000 
#
# Total GULP energy -268024.355298 kJ/mol
# GULP energy per Si atom -5583.840735 kJ/mol
# Density = 1.779065 g / cm^3
# Si number density = 17.831232 Si / 1000 Ang^3
#
#
#
# Elastic Constant Matrix: (Units=GPa)
#
#
# Indices 1 2 3 4 5 6 
#
# 1 191.5126 94.4030 33.0810 0.0000 0.0000 0.0000
# 2 94.4030 110.2928 28.5016 0.0000 0.0000 0.0000
# 3 33.0810 28.5016 23.1848 0.0000 0.0000 0.0000
# 4 0.0000 0.0000 0.0000 19.4806 0.0000 0.0000
# 5 0.0000 0.0000 0.0000 0.0000 187.1645 0.0000
# 6 0.0000 0.0000 0.0000 0.0000 0.0000 25.7689
#
#
#
# Elastic Compliance Matrix: (Units=1/GPa)
#
#
# Indices 1 2 3 4 5 6 
#
# 1 0.009439 -0.006740 -0.005183 0.000000 0.000000 0.000000
# 2 -0.006740 0.018101 -0.012635 0.000000 0.000000 0.000000
# 3 -0.005183 -0.012635 0.066059 0.000000 0.000000 0.000000
# 4 0.000000 0.000000 0.000000 0.051333 0.000000 0.000000
# 5 0.000000 0.000000 0.000000 0.000000 0.005343 0.000000
# 6 0.000000 0.000000 0.000000 0.000000 0.000000 0.038806
#
#
# Mechanical properties :
#
#
# Convention : Reuss Voigt Hill
#
# Bulk Modulus (GPa) = 22.48001 70.77349 46.62675
# Shear Modulus (GPa) = 19.76096 57.74978 38.75537
#
# Velocity S-wave (km/s) = 3.33261 5.69712 4.66709
# Velocity P-wave (km/s) = 5.23859 9.11335 7.43290
#
# Compressibility (1/GPa) = 0.04448396
#
# Stress axis : x y z
#
# Youngs Moduli (GPa) = 105.94135 55.24598 15.13803
#
# Poissons Ratio (x) = 0.37236 0.07845
# Poissons Ratio (y) = 0.71405 0.19127
# Poissons Ratio (z) = 0.54904 0.69803
#
# Static dielectric constant tensor:
#      x y z
#    x 1.570630 0.000000 0.000000 
#    y 0.000000 1.609940 0.000000 
#    z 0.000000 0.000000 1.605170 
# 
# From -- ./inp_files/14367.got.cif
#   From: 2010.05.17/outbox.cif.g08.bks.cpg/sg65_8_cif.got.tgz:14367.got - 2010.06.03 17:01:31.
