data_PCOD9487555
_publ_section_title
;
Structure prediction by ZEFSAII (Michael W. Deem and Ramdas Pophale) SiO2 
 PCOD9487555
Probable space group: C M M M
;
_chemical_formula_sum "Si O2"
_cell_formula_units_Z 60
_cell_length_a 14.418213
_cell_length_b 20.681930
_cell_length_c 11.151535
_cell_angle_alpha 90.000000
_cell_angle_beta 90.000000
_cell_angle_gamma 90.000000
_cell_volume 3325.348394
_symmetry_space_group_name_H-M "C M M M"
_symmetry_group_IT_number 65
_symmetry_cell_setting 'orthorhombic'
loop_
_space_group_symop_operation_xyz
x,y,z
-x,-y,z
x,-y,-z
-x,y,-z
-x,-y,-z
x,y,-z
-x,y,z
x,-y,z
1/2+x,1/2+y,z
1/2-x,1/2-y,z
1/2+x,1/2-y,-z
1/2-x,1/2+y,-z
1/2-x,1/2-y,-z
1/2+x,1/2+y,-z
1/2-x,1/2+y,z
1/2+x,1/2-y,z
loop_
_atom_site_type_symbol
_atom_site_label
_atom_site_fract_x
_atom_site_fract_y
_atom_site_fract_z
Si Si1 0.500000 0.819542 0.000000
Si Si2 0.340831 0.926624 0.000000
Si Si3 0.000000 0.616108 0.641338
Si Si4 0.321274 0.309409 0.638481
Si Si5 0.500000 0.744283 0.249161
Si Si6 0.201452 0.573380 0.731237
O O1 0.413602 0.868465 0.000000
O O2 0.500000 0.775380 0.117631
O O3 0.286637 0.921417 0.125056
O O4 0.382228 0.000000 0.000000
O O5 0.906500 0.588512 0.701094
O O6 0.000000 0.601620 0.500000
O O7 0.000000 0.693196 0.662786
O O8 0.352006 0.309480 0.500000
O O9 0.250000 0.250000 0.654297
O O10 0.408627 0.296682 0.723001
O O11 0.265416 0.374320 0.667436
O O12 0.221241 0.500000 0.693858
#
# Coordination Sequence:
#
# PCOD9487555 Si02
#       6
#     4   8   8  16   8  16
#     4  12  19  36  60  88 121 152 198 250 292 356
#     4  10  19  35  58  86 125 158 187 238 305 365
#     4  12  21  35  58  86 121 150 191 248 303 357
#     4  11  22  39  60  84 121 160 198 247 300 357
#     4  12  24  38  59  90 116 156 203 245 292 354
#     4  11  23  38  60  90 121 157 199 245 301 358
#
# _framework density 18.043222
#
# number of rings (size 3 to 8) (size 9 to 14) (size 15 to 20)
#    0.000    0.800    5.333    2.600    0.000    5.867 
#    0.000    3.333    0.000    1.600    0.000    3.733 
#    0.000    0.000    0.000    0.000    0.000    0.000 
#
# Total GULP energy -167639.514303 kJ/mol
# GULP energy per Si atom -5587.983810 kJ/mol
# Density = 1.800215 g / cm^3
# Si number density = 18.043222 Si / 1000 Ang^3
#
#
#
# Elastic Constant Matrix: (Units=GPa)
#
#
# Indices 1 2 3 4 5 6 
#
# 1 70.9900 52.4368 30.0524 0.0000 0.0000 0.0000
# 2 52.4368 130.3078 23.1926 0.0000 0.0000 0.0000
# 3 30.0524 23.1926 95.2468 0.0000 0.0000 0.0000
# 4 0.0000 0.0000 0.0000 20.8156 0.0000 0.0000
# 5 0.0000 0.0000 0.0000 0.0000 18.5978 0.0000
# 6 0.0000 0.0000 0.0000 0.0000 0.0000 25.0464
#
#
#
# Elastic Compliance Matrix: (Units=1/GPa)
#
#
# Indices 1 2 3 4 5 6 
#
# 1 0.022135 -0.008011 -0.005033 0.000000 0.000000 0.000000
# 2 -0.008011 0.010921 -0.000132 0.000000 0.000000 0.000000
# 3 -0.005033 -0.000132 0.012119 0.000000 0.000000 0.000000
# 4 0.000000 0.000000 0.000000 0.048041 0.000000 0.000000
# 5 0.000000 0.000000 0.000000 0.000000 0.053770 0.000000
# 6 0.000000 0.000000 0.000000 0.000000 0.000000 0.039926
#
#
# Mechanical properties :
#
#
# Convention : Reuss Voigt Hill
#
# Bulk Modulus (GPa) = 53.12659 56.43425 54.78042
# Shear Modulus (GPa) = 22.77500 25.61613 24.19556
#
# Velocity S-wave (km/s) = 3.55667 3.77199 3.66591
# Velocity P-wave (km/s) = 6.80988 7.09336 6.95306
#
# Compressibility (1/GPa) = 0.01882297
#
# Stress axis : x y z
#
# Youngs Moduli (GPa) = 45.17759 91.56326 82.51382
#
# Poissons Ratio (x) = 0.73355 0.41531
# Poissons Ratio (y) = 0.36194 0.01086
# Poissons Ratio (z) = 0.22739 0.01205
#
# Static dielectric constant tensor:
#      x y z
#    x 1.596300 0.000000 0.000000 
#    y 0.000000 1.601710 0.000000 
#    z 0.000000 0.000000 1.621820 
# 
# From -- ./inp_files/21982.got.cif
#   From: 2010.05.17/outbox.cif.g08.bks.cpg/sg65_11_cif.got.tgz:21982.got - 2010.06.03 17:01:31.
