data_PCOD9487616
_publ_section_title
;
Structure prediction by ZEFSAII (Michael W. Deem and Ramdas Pophale) SiO2 
 PCOD9487616
Probable space group: C M M M
;
_chemical_formula_sum "Si O2"
_cell_formula_units_Z 64
_cell_length_a 24.235980
_cell_length_b 17.007757
_cell_length_c 7.778022
_cell_angle_alpha 90.000000
_cell_angle_beta 90.000000
_cell_angle_gamma 90.000000
_cell_volume 3206.098012
_symmetry_space_group_name_H-M "C M M M"
_symmetry_group_IT_number 65
_symmetry_cell_setting 'orthorhombic'
loop_
_space_group_symop_operation_xyz
x,y,z
-x,-y,z
x,-y,-z
-x,y,-z
-x,-y,-z
x,y,-z
-x,y,z
x,-y,z
1/2+x,1/2+y,z
1/2-x,1/2-y,z
1/2+x,1/2-y,-z
1/2-x,1/2+y,-z
1/2-x,1/2-y,-z
1/2+x,1/2+y,-z
1/2-x,1/2+y,z
1/2+x,1/2-y,z
loop_
_atom_site_type_symbol
_atom_site_label
_atom_site_fract_x
_atom_site_fract_y
_atom_site_fract_z
Si Si1 0.236782 0.591257 0.708271
Si Si2 0.936664 0.000000 0.289957
Si Si3 0.640092 0.644631 0.291234
Si Si4 0.565919 0.091095 0.500000
Si Si5 0.873287 0.323358 0.808942
O O1 0.233025 0.596279 0.500000
O O2 0.228891 0.500000 0.756251
O O3 0.297988 0.618910 0.757652
O O4 0.189061 0.645207 0.784371
O O5 0.902923 0.077439 0.237079
O O6 0.936736 0.000000 0.500000
O O7 0.000000 0.000000 0.232687
O O8 0.638855 0.649167 0.500000
O O9 0.626357 0.730032 0.219877
O O10 0.500000 0.094478 0.500000
O O11 0.590415 0.134093 0.665742
O O12 0.583826 0.000000 0.500000
O O13 0.892517 0.342683 0.000000
#
# Coordination Sequence:
#
# PCOD9487616 Si02
#       5
#    16   8  16   8  16
#     4  10  19  35  62  93 132 173 219 272 331 393
#     4   9  18  34  61  95 129 174 227 270 316 378
#     4  10  19  37  61  95 134 176 222 270 325 385
#     4  11  26  50  73  93 125 169 212 267 336 395
#     4  12  25  41  66 101 132 167 218 272 329 394
#
# _framework density 19.961959
#
# number of rings (size 3 to 8) (size 9 to 14) (size 15 to 20)
#    0.000    1.500    3.750    1.500    0.000    7.500 
#    0.000    1.875    0.000    0.750    0.000    0.000 
#    0.000    0.000    0.000    0.000    0.000    0.000 
#
# Total GULP energy -179006.896258 kJ/mol
# GULP energy per Si atom -5593.965508 kJ/mol
# Density = 1.991652 g / cm^3
# Si number density = 19.961959 Si / 1000 Ang^3
#
#
#
# Elastic Constant Matrix: (Units=GPa)
#
#
# Indices 1 2 3 4 5 6 
#
# 1 114.3418 76.1713 46.9058 0.0000 0.0000 0.0000
# 2 76.1713 185.6096 58.1127 0.0000 0.0000 0.0000
# 3 46.9058 58.1127 97.7364 0.0000 0.0000 0.0000
# 4 0.0000 0.0000 0.0000 -25.1161 0.0000 0.0000
# 5 0.0000 0.0000 0.0000 0.0000 -15.0468 0.0000
# 6 0.0000 0.0000 0.0000 0.0000 0.0000 25.3137
#
#
#
# Elastic Compliance Matrix: (Units=1/GPa)
#
#
# Indices 1 2 3 4 5 6 
#
# 1 0.013089 -0.004184 -0.003794 0.000000 0.000000 0.000000
# 2 -0.004184 0.007957 -0.002723 0.000000 0.000000 0.000000
# 3 -0.003794 -0.002723 0.013672 0.000000 0.000000 0.000000
# 4 0.000000 0.000000 0.000000 -0.039815 0.000000 0.000000
# 5 0.000000 0.000000 0.000000 0.000000 -0.066459 0.000000
# 6 0.000000 0.000000 0.000000 0.000000 0.000000 0.039504
#
#
# Mechanical properties :
#
#
# Convention : Reuss Voigt Hill
#
# Bulk Modulus (GPa) = 75.09971 84.45192 79.77581
# Shear Modulus (GPa) = -805.09828 11.46336 -396.81746
#
# Velocity S-wave (km/s) = -20.10452 2.39897 -14.11447
# Velocity P-wave (km/s) = 22.38793 7.07614 15.01912
#
# Compressibility (1/GPa) = 0.01331563
#
# Stress axis : x y z
#
# Youngs Moduli (GPa) = 76.39851 125.67153 73.14294
#
# Poissons Ratio (x) = 0.52577 0.27752
# Poissons Ratio (y) = 0.31963 0.19920
# Poissons Ratio (z) = 0.28988 0.34226
#
# Static dielectric constant tensor:
#      x y z
#    x 1.666610 0.000000 0.000000 
#    y 0.000000 1.662800 0.000000 
#    z 0.000000 0.000000 1.732440 
# 
# From -- ./inp_files/13534.got.cif
#   From: 2010.05.17/outbox.cif.g08.bks.cpg/sg65_7_cif.got.tgz:13534.got - 2010.06.03 17:01:31.
