data_PCOD9487525
_publ_section_title
;
Structure prediction by ZEFSAII (Michael W. Deem and Ramdas Pophale) SiO2 
 PCOD9487525
Probable space group: C M M M
;
_chemical_formula_sum "Si O2"
_cell_formula_units_Z 112
_cell_length_a 13.968104
_cell_length_b 28.899634
_cell_length_c 13.869970
_cell_angle_alpha 90.000000
_cell_angle_beta 90.000000
_cell_angle_gamma 90.000000
_cell_volume 5598.933694
_symmetry_space_group_name_H-M "C M M M"
_symmetry_group_IT_number 65
_symmetry_cell_setting 'orthorhombic'
loop_
_space_group_symop_operation_xyz
x,y,z
-x,-y,z
x,-y,-z
-x,y,-z
-x,-y,-z
x,y,-z
-x,y,z
x,-y,z
1/2+x,1/2+y,z
1/2-x,1/2-y,z
1/2+x,1/2-y,-z
1/2-x,1/2+y,-z
1/2-x,1/2-y,-z
1/2+x,1/2+y,-z
1/2-x,1/2+y,z
1/2+x,1/2-y,z
loop_
_atom_site_type_symbol
_atom_site_label
_atom_site_fract_x
_atom_site_fract_y
_atom_site_fract_z
Si Si1 0.696488 0.054807 0.889968
Si Si2 0.887649 0.638240 0.209253
Si Si3 0.885500 0.794221 0.299148
Si Si4 0.727217 0.304357 0.106664
Si Si5 0.609528 0.444611 0.793723
Si Si6 0.383855 0.803903 0.390283
Si Si7 0.883739 0.112237 0.604910
O O1 0.636630 0.085656 0.816307
O O2 0.808981 0.065501 0.872008
O O3 0.683318 0.000000 0.875433
O O4 0.670112 0.065952 0.000000
O O5 0.822484 0.668264 0.137110
O O6 0.860558 0.654510 0.317193
O O7 0.000000 0.647743 0.195834
O O8 0.845711 0.808720 0.195157
O O9 0.854967 0.743846 0.337195
O O10 0.857735 0.834724 0.372910
O O11 0.000000 0.793154 0.293431
O O12 0.750000 0.250000 0.102774
O O13 0.694300 0.319013 0.000000
O O14 0.500000 0.430295 0.817335
O O15 0.608086 0.500000 0.779573
O O16 0.641676 0.419636 0.695330
O O17 0.348271 0.806999 0.500000
O O18 0.500000 0.802496 0.396040
O O19 0.847639 0.097517 0.500000
O O20 0.000000 0.110552 0.601971
#
# Coordination Sequence:
#
# PCOD9487525 Si02
#       7
#    16  16  16  16  16  16  16
#     4  10  22  40  62  89 119 149 189 244 295 341
#     4  11  23  41  62  84 114 154 198 244 292 344
#     4  10  19  35  57  82 114 150 189 235 288 347
#     4  11  23  37  54  80 115 151 190 236 285 341
#     4   9  18  34  57  85 118 154 189 229 286 356
#     4   9  18  35  60  86 112 147 190 236 289 347
#     4   9  17  29  49  78 112 152 192 230 276 332
#
# _framework density 20.003810000000001
#
# number of rings (size 3 to 8) (size 9 to 14) (size 15 to 20)
#    0.000    2.143    1.429    1.714    0.000    4.000 
#    0.000    9.286    0.000    5.571    0.000    2.000 
#    0.000    0.000    0.000    0.000    0.000    0.000 
#
# Total GULP energy -312648.425346 kJ/mol
# GULP energy per Si atom -5583.007595 kJ/mol
# Density = 1.995828 g / cm^3
# Si number density = 20.003810 Si / 1000 Ang^3
#
#
#
# Elastic Constant Matrix: (Units=GPa)
#
#
# Indices 1 2 3 4 5 6 
#
# 1 60.6533 26.4156 34.4365 0.0000 0.0000 0.0000
# 2 26.4156 49.5662 29.0993 0.0000 0.0000 0.0000
# 3 34.4365 29.0993 119.2386 0.0000 0.0000 0.0000
# 4 0.0000 0.0000 0.0000 27.3504 0.0000 0.0000
# 5 0.0000 0.0000 0.0000 0.0000 26.7700 0.0000
# 6 0.0000 0.0000 0.0000 0.0000 0.0000 24.1063
#
#
#
# Elastic Compliance Matrix: (Units=1/GPa)
#
#
# Indices 1 2 3 4 5 6 
#
# 1 0.023219 -0.009848 -0.004302 0.000000 0.000000 0.000000
# 2 -0.009848 0.027726 -0.003922 0.000000 0.000000 0.000000
# 3 -0.004302 -0.003922 0.010586 0.000000 0.000000 0.000000
# 4 0.000000 0.000000 0.000000 0.036563 0.000000 0.000000
# 5 0.000000 0.000000 0.000000 0.000000 0.037355 0.000000
# 6 0.000000 0.000000 0.000000 0.000000 0.000000 0.041483
#
#
# Mechanical properties :
#
#
# Convention : Reuss Voigt Hill
#
# Bulk Modulus (GPa) = 39.39220 45.48454 42.43837
# Shear Modulus (GPa) = 22.56932 24.94580 23.75756
#
# Velocity S-wave (km/s) = 3.36259 3.53519 3.44997
# Velocity P-wave (km/s) = 5.90009 6.28098 6.09352
#
# Compressibility (1/GPa) = 0.02538573
#
# Stress axis : x y z
#
# Youngs Moduli (GPa) = 43.06821 36.06697 94.46249
#
# Poissons Ratio (x) = 0.35520 0.40640
# Poissons Ratio (y) = 0.42416 0.37049
# Poissons Ratio (z) = 0.18529 0.14146
#
# Static dielectric constant tensor:
#      x y z
#    x 1.735810 0.000000 0.000000 
#    y 0.000000 1.705370 0.000000 
#    z 0.000000 0.000000 1.699510 
# 
# From -- ./inp_files/25554.got.cif
#   From: 2010.05.17/outbox.cif.g08.bks.cpg/sg65_13_cif.got.tgz:25554.got - 2010.06.03 17:01:31.
