data_PCOD9487051
_publ_section_title
;
Structure prediction by ZEFSAII (Michael W. Deem and Ramdas Pophale) SiO2 
 PCOD9487051
Probable space group: C M M M
;
_chemical_formula_sum "Si O2"
_cell_formula_units_Z 50
_cell_length_a 7.931727
_cell_length_b 30.057365
_cell_length_c 12.059524
_cell_angle_alpha 90.000000
_cell_angle_beta 90.000000
_cell_angle_gamma 90.000000
_cell_volume 2875.072689
_symmetry_space_group_name_H-M "C M M M"
_symmetry_group_IT_number 65
_symmetry_cell_setting 'orthorhombic'
loop_
_space_group_symop_operation_xyz
x,y,z
-x,-y,z
x,-y,-z
-x,y,-z
-x,-y,-z
x,y,-z
-x,y,z
x,-y,z
1/2+x,1/2+y,z
1/2-x,1/2-y,z
1/2+x,1/2-y,-z
1/2-x,1/2+y,-z
1/2-x,1/2-y,-z
1/2+x,1/2+y,-z
1/2-x,1/2+y,z
1/2+x,1/2-y,z
loop_
_atom_site_type_symbol
_atom_site_label
_atom_site_fract_x
_atom_site_fract_y
_atom_site_fract_z
Si Si1 0.801460 0.299083 0.367477
Si Si2 0.000000 0.408826 0.878005
Si Si3 0.500000 0.000000 0.000000
Si Si4 0.811208 0.891833 0.717188
Si Si5 0.796460 0.552596 0.500000
O O1 0.774616 0.299852 0.500000
O O2 0.750000 0.250000 0.327651
O O3 0.701153 0.340214 0.317785
O O4 0.000000 0.306285 0.347105
O O5 0.166579 0.398729 0.807917
O O6 0.000000 0.460887 0.905672
O O7 0.000000 0.386147 0.000000
O O8 0.770589 0.922014 0.609105
O O9 0.000000 0.902349 0.756443
O O10 0.752461 0.500000 0.500000
O O11 0.000000 0.556257 0.500000
#
# Coordination Sequence:
#
# PCOD9487051 Si02
#       5
#    16   8   2  16   8
#     4  10  19  33  55  89 130 165 201 242 295 366
#     4  10  24  45  64  86 117 156 215 262 312 358
#     4   8  24  48  70  86 112 162 216 276 316 352
#     4  12  23  38  62  92 125 162 203 251 312 374
#     4  11  23  37  58  86 128 165 196 243 311 379
#
# _framework density 17.390865999999999
#
# number of rings (size 3 to 8) (size 9 to 14) (size 15 to 20)
#    0.480    0.800    4.800    1.440    2.240    3.200 
#    0.000    0.800    0.000    0.960    0.000    0.000 
#    0.000    0.000    0.000    0.000    0.000    0.000 
#
# Total GULP energy -139224.009489 kJ/mol
# GULP energy per Si atom -5568.960380 kJ/mol
# Density = 1.735128 g / cm^3
# Si number density = 17.390866 Si / 1000 Ang^3
#
#
#
# Elastic Constant Matrix: (Units=GPa)
#
#
# Indices 1 2 3 4 5 6 
#
# 1 132.0910 44.0306 73.1109 0.0000 0.0000 0.0000
# 2 44.0306 119.3147 28.0995 0.0000 0.0000 0.0000
# 3 73.1109 28.0995 91.6549 0.0000 0.0000 0.0000
# 4 0.0000 0.0000 0.0000 24.2313 0.0000 0.0000
# 5 0.0000 0.0000 0.0000 0.0000 -5.8152 0.0000
# 6 0.0000 0.0000 0.0000 0.0000 0.0000 15.7933
#
#
#
# Elastic Compliance Matrix: (Units=1/GPa)
#
#
# Indices 1 2 3 4 5 6 
#
# 1 0.014378 -0.002808 -0.010608 0.000000 0.000000 0.000000
# 2 -0.002808 0.009582 -0.000698 0.000000 0.000000 0.000000
# 3 -0.010608 -0.000698 0.019586 0.000000 0.000000 0.000000
# 4 0.000000 0.000000 0.000000 0.041269 0.000000 0.000000
# 5 0.000000 0.000000 0.000000 0.000000 -0.171963 0.000000
# 6 0.000000 0.000000 0.000000 0.000000 0.000000 0.063318
#
#
# Mechanical properties :
#
#
# Convention : Reuss Voigt Hill
#
# Bulk Modulus (GPa) = 65.28080 70.39362 67.83721
# Shear Modulus (GPa) = 526.10365 20.02985 273.06675
#
# Velocity S-wave (km/s) = 17.41189 3.39742 12.54425
# Velocity P-wave (km/s) = 21.02025 7.48032 15.77666
#
# Compressibility (1/GPa) = 0.01531844
#
# Stress axis : x y z
#
# Youngs Moduli (GPa) = 69.55123 104.36603 51.05597
#
# Poissons Ratio (x) = 0.29301 0.54161
# Poissons Ratio (y) = 0.19527 0.03564
# Poissons Ratio (z) = 0.73781 0.07285
#
# Static dielectric constant tensor:
#      x y z
#    x 1.620100 0.000000 0.000000 
#    y 0.000000 1.588880 0.000000 
#    z 0.000000 0.000000 1.589890 
# 
# From -- ./inp_files/20701.got.cif
#   From: 2010.05.17/outbox.cif.g08.bks.cpg/sg65_11_cif.got.tgz:20701.got - 2010.06.03 17:01:31.
