data_PCOD9487092
_publ_section_title
;
Structure prediction by ZEFSAII (Michael W. Deem and Ramdas Pophale) SiO2 
 PCOD9487092
Probable space group: C M M M
;
_chemical_formula_sum "Si O2"
_cell_formula_units_Z 104
_cell_length_a 7.912395
_cell_length_b 28.959451
_cell_length_c 25.317617
_cell_angle_alpha 90.000000
_cell_angle_beta 90.000000
_cell_angle_gamma 90.000000
_cell_volume 5801.243702
_symmetry_space_group_name_H-M "C M M M"
_symmetry_group_IT_number 65
_symmetry_cell_setting 'orthorhombic'
loop_
_space_group_symop_operation_xyz
x,y,z
-x,-y,z
x,-y,-z
-x,y,-z
-x,-y,-z
x,y,-z
-x,y,z
x,-y,z
1/2+x,1/2+y,z
1/2-x,1/2-y,z
1/2+x,1/2-y,-z
1/2-x,1/2+y,-z
1/2-x,1/2-y,-z
1/2+x,1/2+y,-z
1/2-x,1/2+y,z
1/2+x,1/2-y,z
loop_
_atom_site_type_symbol
_atom_site_label
_atom_site_fract_x
_atom_site_fract_y
_atom_site_fract_z
Si Si1 0.202932 0.197765 0.665179
Si Si2 0.500000 0.554283 0.436777
Si Si3 0.799023 0.801500 0.786581
Si Si4 0.294359 0.052715 0.735644
Si Si5 0.301064 0.894127 0.838357
Si Si6 0.202479 0.052090 0.940890
Si Si7 0.802047 0.398269 0.625562
O O1 0.250000 0.250000 0.649484
O O2 0.264650 0.191691 0.726157
O O3 0.279899 0.156905 0.630350
O O4 0.000000 0.193223 0.664391
O O5 0.500000 0.500000 0.421324
O O6 0.500000 0.556900 0.500000
O O7 0.667724 0.579127 0.414054
O O8 0.750000 0.750000 0.803039
O O9 0.734352 0.841095 0.824960
O O10 0.000000 0.804705 0.784445
O O11 0.500000 0.052089 0.738015
O O12 0.228493 0.076560 0.788972
O O13 0.253414 0.081496 0.683360
O O14 0.236187 0.000000 0.731362
O O15 0.500000 0.901360 0.837483
O O16 0.242098 0.912616 0.894546
O O17 0.000000 0.049590 0.943792
O O18 0.264678 0.000000 0.927986
O O19 0.264532 0.064169 0.000000
O O20 0.000000 0.409464 0.615038
#
# Coordination Sequence:
#
# PCOD9487092 Si02
#       7
#    16   8  16  16  16  16  16
#     4  10  19  33  56  89 123 157 197 240 293 358
#     4  11  26  46  66  90 122 162 211 257 294 346
#     4  10  20  33  51  76 113 151 186 227 278 339
#     4   9  18  31  49  77 114 150 182 224 283 346
#     4  11  20  31  51  78 110 142 181 228 282 340
#     4   9  19  36  54  72 100 141 188 234 278 330
#     4  11  21  38  63  90 122 160 199 246 302 356
#
# _framework density 17.927188999999998
#
# number of rings (size 3 to 8) (size 9 to 14) (size 15 to 20)
#    0.000    1.923    2.308    2.769    0.000    3.692 
#    1.385    1.538    0.000    0.923    0.000    0.000 
#    0.000    0.000    0.000    0.000    0.000    0.000 
#
# Total GULP energy -290208.486260 kJ/mol
# GULP energy per Si atom -5580.932428 kJ/mol
# Density = 1.788639 g / cm^3
# Si number density = 17.927189 Si / 1000 Ang^3
#
#
#
# Elastic Constant Matrix: (Units=GPa)
#
#
# Indices 1 2 3 4 5 6 
#
# 1 61.9753 20.2009 32.6041 0.0000 0.0000 0.0000
# 2 20.2009 125.7579 61.8375 0.0000 0.0000 0.0000
# 3 32.6041 61.8375 86.1744 0.0000 0.0000 0.0000
# 4 0.0000 0.0000 0.0000 19.5852 0.0000 0.0000
# 5 0.0000 0.0000 0.0000 0.0000 20.1128 0.0000
# 6 0.0000 0.0000 0.0000 0.0000 0.0000 18.0542
#
#
#
# Elastic Compliance Matrix: (Units=1/GPa)
#
#
# Indices 1 2 3 4 5 6 
#
# 1 0.020196 0.000793 -0.008210 0.000000 0.000000 0.000000
# 2 0.000793 0.012319 -0.009140 0.000000 0.000000 0.000000
# 3 -0.008210 -0.009140 0.021269 0.000000 0.000000 0.000000
# 4 0.000000 0.000000 0.000000 0.051059 0.000000 0.000000
# 5 0.000000 0.000000 0.000000 0.000000 0.049720 0.000000
# 6 0.000000 0.000000 0.000000 0.000000 0.000000 0.055389
#
#
# Mechanical properties :
#
#
# Convention : Reuss Voigt Hill
#
# Bulk Modulus (GPa) = 48.37902 55.91029 52.14465
# Shear Modulus (GPa) = 20.00358 22.16810 21.08584
#
# Velocity S-wave (km/s) = 3.34402 3.52030 3.43329
# Velocity P-wave (km/s) = 6.47726 6.91219 6.69826
#
# Compressibility (1/GPa) = 0.02067012
#
# Stress axis : x y z
#
# Youngs Moduli (GPa) = 49.51412 81.17852 47.01641
#
# Poissons Ratio (x) = -0.06437 0.38602
# Poissons Ratio (y) = -0.03926 0.42971
# Poissons Ratio (z) = 0.40652 0.74194
#
# Static dielectric constant tensor:
#      x y z
#    x 1.633350 0.000000 0.000000 
#    y 0.000000 1.607490 0.000000 
#    z 0.000000 0.000000 1.611850 
# 
# From -- ./inp_files/68243.got.cif
#   From: 2010.05.17/outbox.cif.g08.bks.cpg/sg65_35_cif.got.tgz:68243.got - 2010.06.03 17:01:31.
