data_PCOD9487526
_publ_section_title
;
Structure prediction by ZEFSAII (Michael W. Deem and Ramdas Pophale) SiO2 
 PCOD9487526
Probable space group: C M M M
;
_chemical_formula_sum "Si O2"
_cell_formula_units_Z 80
_cell_length_a 21.881447
_cell_length_b 23.500123
_cell_length_c 7.586398
_cell_angle_alpha 90.000000
_cell_angle_beta 90.000000
_cell_angle_gamma 90.000000
_cell_volume 3901.052513
_symmetry_space_group_name_H-M "C M M M"
_symmetry_group_IT_number 65
_symmetry_cell_setting 'orthorhombic'
loop_
_space_group_symop_operation_xyz
x,y,z
-x,-y,z
x,-y,-z
-x,y,-z
-x,-y,-z
x,y,-z
-x,y,z
x,-y,z
1/2+x,1/2+y,z
1/2-x,1/2-y,z
1/2+x,1/2-y,-z
1/2-x,1/2+y,-z
1/2-x,1/2-y,-z
1/2+x,1/2+y,-z
1/2-x,1/2+y,z
1/2+x,1/2-y,z
loop_
_atom_site_type_symbol
_atom_site_label
_atom_site_fract_x
_atom_site_fract_y
_atom_site_fract_z
Si Si1 0.873152 0.878498 0.287588
Si Si2 0.751714 0.436095 0.208734
Si Si3 0.320181 0.257822 0.284928
Si Si4 0.863455 0.363400 0.699898
Si Si5 0.500000 0.566252 0.715828
Si Si6 0.427159 0.934660 0.000000
O O1 0.876225 0.875543 0.500000
O O2 0.818721 0.921373 0.239993
O O3 0.851431 0.816205 0.224431
O O4 0.938528 0.901472 0.225692
O O5 0.765436 0.500000 0.270722
O O6 0.795116 0.389823 0.298051
O O7 0.763851 0.433182 0.000000
O O8 0.318504 0.258911 0.500000
O O9 0.250000 0.250000 0.225288
O O10 0.357519 0.201419 0.236350
O O11 0.886699 0.364369 0.500000
O O12 0.902211 0.402100 0.829647
O O13 0.500000 0.500000 0.769687
O O14 0.500000 0.566416 0.500000
O O15 0.500000 0.934444 0.000000
O O16 0.405422 0.000000 0.000000
#
# Coordination Sequence:
#
# PCOD9487526 Si02
#       6
#    16  16  16  16   8   8
#     4  10  19  35  57  82 117 160 208 259 310 366
#     4  11  22  35  54  86 124 156 200 261 316 370
#     4   9  17  33  57  88 122 153 196 253 308 367
#     4  11  22  40  66  94 125 161 204 253 312 379
#     4   9  18  32  53  83 117 159 211 256 302 366
#     4  11  26  48  67  90 128 163 202 259 315 379
#
# _framework density 20.507285
#
# number of rings (size 3 to 8) (size 9 to 14) (size 15 to 20)
#    0.000    1.800    3.000    1.800    0.000    4.000 
#    3.600    3.000    0.000    1.800    0.000    0.000 
#    0.000    0.000    0.000    0.000    0.000    0.000 
#
# Total GULP energy -223595.110415 kJ/mol
# GULP energy per Si atom -5589.877760 kJ/mol
# Density = 2.046061 g / cm^3
# Si number density = 20.507285 Si / 1000 Ang^3
#
#
#
# Elastic Constant Matrix: (Units=GPa)
#
#
# Indices 1 2 3 4 5 6 
#
# 1 104.9646 43.0201 13.6513 0.0000 0.0000 0.0000
# 2 43.0201 149.5270 23.4233 0.0000 0.0000 0.0000
# 3 13.6513 23.4233 71.4508 0.0000 0.0000 0.0000
# 4 0.0000 0.0000 0.0000 15.5212 0.0000 0.0000
# 5 0.0000 0.0000 0.0000 0.0000 13.6822 0.0000
# 6 0.0000 0.0000 0.0000 0.0000 0.0000 30.2024
#
#
#
# Elastic Compliance Matrix: (Units=1/GPa)
#
#
# Indices 1 2 3 4 5 6 
#
# 1 0.010883 -0.002957 -0.001110 0.000000 0.000000 0.000000
# 2 -0.002957 0.007853 -0.002009 0.000000 0.000000 0.000000
# 3 -0.001110 -0.002009 0.014866 0.000000 0.000000 0.000000
# 4 0.000000 0.000000 0.000000 0.064428 0.000000 0.000000
# 5 0.000000 0.000000 0.000000 0.000000 0.073088 0.000000
# 6 0.000000 0.000000 0.000000 0.000000 0.000000 0.033110
#
#
# Mechanical properties :
#
#
# Convention : Reuss Voigt Hill
#
# Bulk Modulus (GPa) = 46.62050 54.01464 50.31757
# Shear Modulus (GPa) = 22.36812 28.27100 25.31956
#
# Velocity S-wave (km/s) = 3.30622 3.71696 3.51759
# Velocity P-wave (km/s) = 6.11210 6.69458 6.40996
#
# Compressibility (1/GPa) = 0.02144979
#
# Stress axis : x y z
#
# Youngs Moduli (GPa) = 91.88243 127.33325 67.26549
#
# Poissons Ratio (x) = 0.37658 0.07466
# Poissons Ratio (y) = 0.27173 0.13517
# Poissons Ratio (z) = 0.10198 0.25588
#
# Static dielectric constant tensor:
#      x y z
#    x 1.710090 0.000000 0.000000 
#    y 0.000000 1.718560 0.000000 
#    z 0.000000 0.000000 1.742630 
# 
# From -- ./inp_files/11549.got.cif
#   From: 2010.05.17/outbox.cif.g08.bks.cpg/sg65_6_cif.got.tgz:11549.got - 2010.06.03 17:01:31.
