data_PCOD9487601
_publ_section_title
;
Structure prediction by ZEFSAII (Michael W. Deem and Ramdas Pophale) SiO2 
 PCOD9487601
Probable space group: C M M M
;
_chemical_formula_sum "Si O2"
_cell_formula_units_Z 64
_cell_length_a 17.125062
_cell_length_b 12.188781
_cell_length_c 15.880310
_cell_angle_alpha 90.000000
_cell_angle_beta 90.000000
_cell_angle_gamma 90.000000
_cell_volume 3314.754757
_symmetry_space_group_name_H-M "C M M M"
_symmetry_group_IT_number 65
_symmetry_cell_setting 'orthorhombic'
loop_
_space_group_symop_operation_xyz
x,y,z
-x,-y,z
x,-y,-z
-x,y,-z
-x,-y,-z
x,y,-z
-x,y,z
x,-y,z
1/2+x,1/2+y,z
1/2-x,1/2-y,z
1/2+x,1/2-y,-z
1/2-x,1/2+y,-z
1/2-x,1/2-y,-z
1/2+x,1/2+y,-z
1/2-x,1/2+y,z
1/2+x,1/2-y,z
loop_
_atom_site_type_symbol
_atom_site_label
_atom_site_fract_x
_atom_site_fract_y
_atom_site_fract_z
Si Si1 0.904959 0.500000 0.902550
Si Si2 0.595267 0.625630 0.000000
Si Si3 0.842324 0.735736 0.345055
Si Si4 0.093316 0.875026 0.500000
Si Si5 0.905468 0.736212 0.163368
Si Si6 0.092577 0.500000 0.601692
O O1 0.880799 0.388593 0.857066
O O2 0.000000 0.500000 0.903619
O O3 0.879824 0.500000 0.000000
O O4 0.619323 0.688984 0.084572
O O5 0.621275 0.500000 0.000000
O O6 0.500000 0.626712 0.000000
O O7 0.750000 0.750000 0.349510
O O8 0.879056 0.810206 0.417870
O O9 0.872053 0.770112 0.252999
O O10 0.868989 0.610475 0.362435
O O11 0.000000 0.877024 0.500000
O O12 0.123100 0.000000 0.500000
O O13 0.000000 0.738818 0.167481
O O14 0.100001 0.500000 0.500000
O O15 0.000000 0.500000 0.622452
#
# Coordination Sequence:
#
# PCOD9487601 Si02
#       6
#     8   8  16   8  16   8
#     4   9  15  29  59  92 117 149 202 270 320 352
#     4   9  18  33  56  85 115 160 213 258 299 361
#     4  12  26  41  65  95 135 168 208 262 328 386
#     4  11  25  45  69  93 123 165 215 261 313 383
#     4  10  19  35  60  88 120 158 210 262 312 372
#     4  11  23  43  73  98 123 167 223 269 315 379
#
# _framework density 19.307611999999999
#
# number of rings (size 3 to 8) (size 9 to 14) (size 15 to 20)
#    0.000    1.500    2.500    3.375    1.750    2.000 
#    0.000    3.125    0.000    0.000    0.000    0.000 
#    0.000    0.000    0.000    0.000    0.000    0.000 
#
# Total GULP energy -178876.017638 kJ/mol
# GULP energy per Si atom -5589.875551 kJ/mol
# Density = 1.926367 g / cm^3
# Si number density = 19.307612 Si / 1000 Ang^3
#
#
#
# Elastic Constant Matrix: (Units=GPa)
#
#
# Indices 1 2 3 4 5 6 
#
# 1 69.0290 43.9888 44.8809 0.0000 0.0000 0.0000
# 2 43.9888 169.0779 92.7338 0.0000 0.0000 0.0000
# 3 44.8809 92.7338 193.7895 0.0000 0.0000 0.0000
# 4 0.0000 0.0000 0.0000 16.6161 0.0000 0.0000
# 5 0.0000 0.0000 0.0000 0.0000 -92.7153 0.0000
# 6 0.0000 0.0000 0.0000 0.0000 0.0000 19.1666
#
#
#
# Elastic Compliance Matrix: (Units=1/GPa)
#
#
# Indices 1 2 3 4 5 6 
#
# 1 0.018325 -0.003308 -0.002661 0.000000 0.000000 0.000000
# 2 -0.003308 0.008616 -0.003357 0.000000 0.000000 0.000000
# 3 -0.002661 -0.003357 0.007383 0.000000 0.000000 0.000000
# 4 0.000000 0.000000 0.000000 0.060183 0.000000 0.000000
# 5 0.000000 0.000000 0.000000 0.000000 -0.010786 0.000000
# 6 0.000000 0.000000 0.000000 0.000000 0.000000 0.052174
#
#
# Mechanical properties :
#
#
# Convention : Reuss Voigt Hill
#
# Bulk Modulus (GPa) = 63.80820 88.34481 76.07650
# Shear Modulus (GPa) = 31.29477 5.29969 18.29723
#
# Velocity S-wave (km/s) = 4.03035 1.65856 3.08176
# Velocity P-wave (km/s) = 7.40123 7.03730 7.22156
#
# Compressibility (1/GPa) = 0.01567197
#
# Stress axis : x y z
#
# Youngs Moduli (GPa) = 54.57076 116.05904 135.44775
#
# Poissons Ratio (x) = 0.38394 0.36042
# Poissons Ratio (y) = 0.18053 0.45470
# Poissons Ratio (z) = 0.14521 0.38961
#
# Static dielectric constant tensor:
#      x y z
#    x 1.632810 0.000000 0.000000 
#    y 0.000000 1.662650 0.000000 
#    z 0.000000 0.000000 1.655010 
# 
# From -- ./inp_files/37839.got.cif
#   From: 2010.05.17/outbox.cif.g08.bks.cpg/sg65_19_cif.got.tgz:37839.got - 2010.06.03 17:01:31.
