data_PCOD9487733
_publ_section_title
;
Structure prediction by ZEFSAII (Michael W. Deem and Ramdas Pophale) SiO2 
 PCOD9487733
Probable space group: C M M M
;
_chemical_formula_sum "Si O2"
_cell_formula_units_Z 104
_cell_length_a 22.076852
_cell_length_b 30.231869
_cell_length_c 7.842411
_cell_angle_alpha 90.000000
_cell_angle_beta 90.000000
_cell_angle_gamma 90.000000
_cell_volume 5234.217222
_symmetry_space_group_name_H-M "C M M M"
_symmetry_group_IT_number 65
_symmetry_cell_setting 'orthorhombic'
loop_
_space_group_symop_operation_xyz
x,y,z
-x,-y,z
x,-y,-z
-x,y,-z
-x,-y,-z
x,y,-z
-x,y,z
x,-y,z
1/2+x,1/2+y,z
1/2-x,1/2-y,z
1/2+x,1/2-y,-z
1/2-x,1/2+y,-z
1/2-x,1/2-y,-z
1/2+x,1/2+y,-z
1/2-x,1/2+y,z
1/2+x,1/2-y,z
loop_
_atom_site_type_symbol
_atom_site_label
_atom_site_fract_x
_atom_site_fract_y
_atom_site_fract_z
Si Si1 0.760325 0.367039 0.707386
Si Si2 0.428388 0.548654 0.205267
Si Si3 0.932049 0.446546 0.000000
Si Si4 0.159844 0.552040 0.297425
Si Si5 0.566539 0.271530 0.197818
Si Si6 0.809483 0.723676 0.703809
Si Si7 0.124618 0.141108 0.698431
O O1 0.757194 0.366815 0.500000
O O2 0.785769 0.415109 0.751699
O O3 0.803802 0.327071 0.763382
O O4 0.692751 0.356800 0.769125
O O5 0.500000 0.550743 0.242976
O O6 0.406079 0.500000 0.260458
O O7 0.396776 0.590846 0.284909
O O8 0.421902 0.551192 0.000000
O O9 0.895049 0.435595 0.828535
O O10 0.935862 0.500000 0.000000
O O11 0.000000 0.428439 0.000000
O O12 0.146144 0.558042 0.500000
O O13 0.173951 0.500000 0.272548
O O14 0.500000 0.261912 0.275543
O O15 0.626398 0.246665 0.263210
O O16 0.580513 0.323795 0.214999
O O17 0.563236 0.260265 0.000000
O O18 0.802940 0.722703 0.500000
O O19 0.750000 0.750000 0.770013
O O20 0.126138 0.154091 0.500000
#
# Coordination Sequence:
#
# PCOD9487733 Si02
#       7
#    16  16   8  16  16  16  16
#     4   9  19  36  57  82 111 144 184 230 285 345
#     4   9  19  36  53  72 108 153 191 233 286 339
#     4   9  18  34  56  84 113 144 193 243 280 341
#     4   9  18  35  57  82 118 157 188 232 294 350
#     4  11  24  40  57  83 119 152 188 237 291 348
#     4  10  19  38  63  84 110 146 191 241 289 343
#     4  11  21  35  57  84 111 144 192 242 286 337
#
# _framework density 19.869254999999999
#
# number of rings (size 3 to 8) (size 9 to 14) (size 15 to 20)
#    0.000    2.231    1.538    1.846    0.000    4.923 
#    4.154    4.615    0.000    2.769    0.000    0.000 
#    0.000    0.000    0.000    0.000    0.000    0.000 
#
# Total GULP energy -289978.393345 kJ/mol
# GULP energy per Si atom -5576.507564 kJ/mol
# Density = 1.982403 g / cm^3
# Si number density = 19.869255 Si / 1000 Ang^3
#
#
#
# Elastic Constant Matrix: (Units=GPa)
#
#
# Indices 1 2 3 4 5 6 
#
# 1 120.2691 47.1449 13.4756 0.0000 0.0000 0.0000
# 2 47.1449 91.8976 7.3043 0.0000 0.0000 0.0000
# 3 13.4756 7.3043 34.1828 0.0000 0.0000 0.0000
# 4 0.0000 0.0000 0.0000 17.0079 0.0000 0.0000
# 5 0.0000 0.0000 0.0000 0.0000 20.7537 0.0000
# 6 0.0000 0.0000 0.0000 0.0000 0.0000 31.9337
#
#
#
# Elastic Compliance Matrix: (Units=1/GPa)
#
#
# Indices 1 2 3 4 5 6 
#
# 1 0.010722 -0.005254 -0.003104 0.000000 0.000000 0.000000
# 2 -0.005254 0.013644 -0.000844 0.000000 0.000000 0.000000
# 3 -0.003104 -0.000844 0.030659 0.000000 0.000000 0.000000
# 4 0.000000 0.000000 0.000000 0.058796 0.000000 0.000000
# 5 0.000000 0.000000 0.000000 0.000000 0.048184 0.000000
# 6 0.000000 0.000000 0.000000 0.000000 0.000000 0.031315
#
#
# Mechanical properties :
#
#
# Convention : Reuss Voigt Hill
#
# Bulk Modulus (GPa) = 27.30748 42.46657 34.88703
# Shear Modulus (GPa) = 22.32826 25.83403 24.08115
#
# Velocity S-wave (km/s) = 3.35589 3.60974 3.48513
# Velocity P-wave (km/s) = 5.36558 6.22841 5.81302
#
# Compressibility (1/GPa) = 0.03662000
#
# Stress axis : x y z
#
# Youngs Moduli (GPa) = 93.26649 73.29190 32.61722
#
# Poissons Ratio (x) = 0.38506 0.10125
# Poissons Ratio (y) = 0.49000 0.02754
# Poissons Ratio (z) = 0.28952 0.06188
#
# Static dielectric constant tensor:
#      x y z
#    x 1.709170 0.000000 0.000000 
#    y 0.000000 1.700020 0.000000 
#    z 0.000000 0.000000 1.725970 
# 
# From -- ./inp_files/12851.got.cif
#   From: 2010.05.17/outbox.cif.g08.bks.cpg/sg65_7_cif.got.tgz:12851.got - 2010.06.03 17:01:31.
