data_PCOD9487987
_publ_section_title
;
Structure prediction by ZEFSAII (Michael W. Deem and Ramdas Pophale) SiO2 
 PCOD9487987
Probable space group: C M M M
;
_chemical_formula_sum "Si O2"
_cell_formula_units_Z 88
_cell_length_a 9.124624
_cell_length_b 31.728949
_cell_length_c 17.616812
_cell_angle_alpha 90.000000
_cell_angle_beta 90.000000
_cell_angle_gamma 90.000000
_cell_volume 5100.326562
_symmetry_space_group_name_H-M "C M M M"
_symmetry_group_IT_number 65
_symmetry_cell_setting 'orthorhombic'
loop_
_space_group_symop_operation_xyz
x,y,z
-x,-y,z
x,-y,-z
-x,y,-z
-x,-y,-z
x,y,-z
-x,y,z
x,-y,z
1/2+x,1/2+y,z
1/2-x,1/2-y,z
1/2+x,1/2-y,-z
1/2-x,1/2+y,-z
1/2-x,1/2-y,-z
1/2+x,1/2+y,-z
1/2-x,1/2+y,z
1/2+x,1/2-y,z
loop_
_atom_site_type_symbol
_atom_site_label
_atom_site_fract_x
_atom_site_fract_y
_atom_site_fract_z
Si Si1 0.830305 0.294819 0.591055
Si Si2 0.177494 0.500000 0.091946
Si Si3 0.665345 0.154081 0.910604
Si Si4 0.836251 0.787555 0.814877
Si Si5 0.176669 0.080000 0.825173
Si Si6 0.165992 0.138326 0.691743
O O1 0.823567 0.300171 0.500000
O O2 0.750000 0.250000 0.606907
O O3 0.761618 0.336616 0.629981
O O4 0.000000 0.290825 0.614686
O O5 0.244061 0.539685 0.138079
O O6 0.000000 0.500000 0.095806
O O7 0.214371 0.500000 0.000000
O O8 0.500000 0.149968 0.878921
O O9 0.738023 0.197474 0.884747
O O10 0.769028 0.117567 0.879263
O O11 0.657781 0.150979 0.000000
O O12 0.750000 0.750000 0.776177
O O13 0.843047 0.826533 0.757861
O O14 0.000000 0.775694 0.836575
O O15 0.215251 0.096517 0.739149
O O16 0.000000 0.075319 0.827172
O O17 0.000000 0.130965 0.663112
#
# Coordination Sequence:
#
# PCOD9487987 Si02
#       6
#    16   8  16  16  16  16
#     4  10  20  32  49  76 108 142 178 214 254 300
#     4  11  23  37  55  81 110 137 168 209 259 314
#     4  10  20  33  48  66  90 121 158 201 248 297
#     4  10  20  32  46  65  89 121 163 205 246 293
#     4  10  21  36  54  76 100 129 166 205 251 307
#     4   9  19  34  51  72  98 130 167 206 249 299
#
# _framework density 17.253798
#
# number of rings (size 3 to 8) (size 9 to 14) (size 15 to 20)
#    0.000    2.091    0.000    4.636    0.000   11.636 
#    0.000    0.000    0.000    0.000    0.000    0.636 
#    0.000    5.091    0.000    0.000    0.000    0.000 
#
# Total GULP energy -244939.524050 kJ/mol
# GULP energy per Si atom -5566.807365 kJ/mol
# Density = 1.721453 g / cm^3
# Si number density = 17.253798 Si / 1000 Ang^3
#
#
#
# Elastic Constant Matrix: (Units=GPa)
#
#
# Indices 1 2 3 4 5 6 
#
# 1 99.7017 44.9601 43.9716 0.0000 0.0000 0.0000
# 2 44.9601 84.3844 37.8084 0.0000 0.0000 0.0000
# 3 43.9716 37.8084 68.1218 0.0000 0.0000 0.0000
# 4 0.0000 0.0000 0.0000 29.1251 0.0000 0.0000
# 5 0.0000 0.0000 0.0000 0.0000 17.9167 0.0000
# 6 0.0000 0.0000 0.0000 0.0000 0.0000 26.9608
#
#
#
# Elastic Compliance Matrix: (Units=1/GPa)
#
#
# Indices 1 2 3 4 5 6 
#
# 1 0.015467 -0.005015 -0.007200 0.000000 0.000000 0.000000
# 2 -0.005015 0.017399 -0.006420 0.000000 0.000000 0.000000
# 3 -0.007200 -0.006420 0.022890 0.000000 0.000000 0.000000
# 4 0.000000 0.000000 0.000000 0.034335 0.000000 0.000000
# 5 0.000000 0.000000 0.000000 0.000000 0.055814 0.000000
# 6 0.000000 0.000000 0.000000 0.000000 0.000000 0.037091
#
#
# Mechanical properties :
#
#
# Convention : Reuss Voigt Hill
#
# Bulk Modulus (GPa) = 54.09355 56.18759 55.14057
# Shear Modulus (GPa) = 22.08219 23.16503 22.62361
#
# Velocity S-wave (km/s) = 3.58137 3.66813 3.62501
# Velocity P-wave (km/s) = 6.96573 7.11170 7.03909
#
# Compressibility (1/GPa) = 0.01848649
#
# Stress axis : x y z
#
# Youngs Moduli (GPa) = 64.65432 57.47591 43.68655
#
# Poissons Ratio (x) = 0.28822 0.31456
# Poissons Ratio (y) = 0.32421 0.28045
# Poissons Ratio (z) = 0.46554 0.36897
#
# Static dielectric constant tensor:
#      x y z
#    x 1.614190 0.000000 0.000000 
#    y 0.000000 1.903730 0.000000 
#    z 0.000000 0.000000 1.603850 
# 
# From -- ./inp_files/50321.got.cif
#   From: 2010.05.17/outbox.cif.g08.bks.cpg/sg65_26_cif.got.tgz:50321.got - 2010.06.03 17:01:31.
