data_PCOD9487366
_publ_section_title
;
Structure prediction by ZEFSAII (Michael W. Deem and Ramdas Pophale) SiO2 
 PCOD9487366
Probable space group: C M M M
;
_chemical_formula_sum "Si O2"
_cell_formula_units_Z 96
_cell_length_a 19.526210
_cell_length_b 20.439691
_cell_length_c 14.147677
_cell_angle_alpha 90.000000
_cell_angle_beta 90.000000
_cell_angle_gamma 90.000000
_cell_volume 5646.475106
_symmetry_space_group_name_H-M "C M M M"
_symmetry_group_IT_number 65
_symmetry_cell_setting 'orthorhombic'
loop_
_space_group_symop_operation_xyz
x,y,z
-x,-y,z
x,-y,-z
-x,y,-z
-x,-y,-z
x,y,-z
-x,y,z
x,-y,z
1/2+x,1/2+y,z
1/2-x,1/2-y,z
1/2+x,1/2-y,-z
1/2-x,1/2+y,-z
1/2-x,1/2-y,-z
1/2+x,1/2+y,-z
1/2-x,1/2+y,z
1/2+x,1/2-y,z
loop_
_atom_site_type_symbol
_atom_site_label
_atom_site_fract_x
_atom_site_fract_y
_atom_site_fract_z
Si Si1 0.681972 0.075371 0.689856
Si Si2 0.080733 0.813640 0.274138
Si Si3 0.922637 0.680241 0.388151
Si Si4 0.272766 0.925727 0.895927
Si Si5 0.313851 0.296819 0.891538
Si Si6 0.836511 0.077088 0.387096
O O1 0.631323 0.126880 0.644894
O O2 0.681335 0.083160 0.803513
O O3 0.759310 0.086690 0.652389
O O4 0.664596 0.000000 0.666687
O O5 0.088885 0.750147 0.340201
O O6 0.123188 0.796645 0.179724
O O7 0.114088 0.875381 0.328274
O O8 0.000000 0.824250 0.256653
O O9 0.918085 0.688194 0.500000
O O10 0.000000 0.658867 0.363753
O O11 0.215287 0.870546 0.891512
O O12 0.245123 0.000000 0.889198
O O13 0.306176 0.919388 0.000000
O O14 0.250000 0.250000 0.862268
O O15 0.331325 0.278672 0.000000
O O16 0.838674 0.090684 0.500000
O O17 0.853174 0.000000 0.373966
#
# Coordination Sequence:
#
# PCOD9487366 Si02
#       6
#    16  16  16  16  16  16
#     4  10  19  34  57  83 110 138 177 229 277 322
#     4  11  23  37  55  80 111 147 182 221 273 324
#     4  10  22  38  54  76 108 145 184 225 272 328
#     4   9  17  31  54  81 107 136 173 217 263 315
#     4  10  20  35  57  82 107 140 182 223 268 323
#     4  10  21  36  55  81 110 143 186 230 269 316
#
# _framework density 17.001757999999999
#
# number of rings (size 3 to 8) (size 9 to 14) (size 15 to 20)
#    0.000    2.000    1.667    2.000    0.000    3.000 
#    0.000    3.333    0.000    1.500    0.000    5.833 
#    0.000    0.000    0.000    0.000    0.000    0.000 
#
# Total GULP energy -267660.876282 kJ/mol
# GULP energy per Si atom -5576.268256 kJ/mol
# Density = 1.696306 g / cm^3
# Si number density = 17.001758 Si / 1000 Ang^3
#
#
#
# Elastic Constant Matrix: (Units=GPa)
#
#
# Indices 1 2 3 4 5 6 
#
# 1 106.8888 79.7529 67.3439 0.0000 0.0000 0.0000
# 2 79.7529 88.2344 52.0831 0.0000 0.0000 0.0000
# 3 67.3439 52.0831 105.4617 0.0000 0.0000 0.0000
# 4 0.0000 0.0000 0.0000 27.6427 0.0000 0.0000
# 5 0.0000 0.0000 0.0000 0.0000 19.5913 0.0000
# 6 0.0000 0.0000 0.0000 0.0000 0.0000 27.1081
#
#
#
# Elastic Compliance Matrix: (Units=1/GPa)
#
#
# Indices 1 2 3 4 5 6 
#
# 1 0.034124 -0.025380 -0.009256 0.000000 0.000000 0.000000
# 2 -0.025380 0.034874 -0.001016 0.000000 0.000000 0.000000
# 3 -0.009256 -0.001016 0.015894 0.000000 0.000000 0.000000
# 4 0.000000 0.000000 0.000000 0.036176 0.000000 0.000000
# 5 0.000000 0.000000 0.000000 0.000000 0.051043 0.000000
# 6 0.000000 0.000000 0.000000 0.000000 0.000000 0.036889
#
#
# Mechanical properties :
#
#
# Convention : Reuss Voigt Hill
#
# Bulk Modulus (GPa) = 73.59517 77.66053 75.62785
# Shear Modulus (GPa) = 17.55404 21.62875 19.59139
#
# Velocity S-wave (km/s) = 3.21671 3.57059 3.39826
# Velocity P-wave (km/s) = 7.56155 7.92312 7.74445
#
# Compressibility (1/GPa) = 0.01358785
#
# Stress axis : x y z
#
# Youngs Moduli (GPa) = 29.30458 28.67489 62.91524
#
# Poissons Ratio (x) = 0.72778 0.58236
# Poissons Ratio (y) = 0.74376 0.06390
# Poissons Ratio (z) = 0.27125 0.02912
#
# Static dielectric constant tensor:
#      x y z
#    x 1.540670 0.000000 0.000000 
#    y 0.000000 1.570210 0.000000 
#    z 0.000000 0.000000 1.600760 
# 
# From -- ./inp_files/40336.got.cif
#   From: 2010.05.17/outbox.cif.g08.bks.cpg/sg65_21_cif.got.tgz:40336.got - 2010.06.03 17:01:31.
