data_PCOD9487812
_publ_section_title
;
Structure prediction by ZEFSAII (Michael W. Deem and Ramdas Pophale) SiO2 
 PCOD9487812
Probable space group: C M M M
;
_chemical_formula_sum "Si O2"
_cell_formula_units_Z 88
_cell_length_a 32.055787
_cell_length_b 9.843618
_cell_length_c 19.703340
_cell_angle_alpha 90.000000
_cell_angle_beta 90.000000
_cell_angle_gamma 90.000000
_cell_volume 6217.288882
_symmetry_space_group_name_H-M "C M M M"
_symmetry_group_IT_number 65
_symmetry_cell_setting 'orthorhombic'
loop_
_space_group_symop_operation_xyz
x,y,z
-x,-y,z
x,-y,-z
-x,y,-z
-x,-y,-z
x,y,-z
-x,y,z
x,-y,z
1/2+x,1/2+y,z
1/2-x,1/2-y,z
1/2+x,1/2-y,-z
1/2-x,1/2+y,-z
1/2-x,1/2-y,-z
1/2+x,1/2+y,-z
1/2-x,1/2+y,z
1/2+x,1/2-y,z
loop_
_atom_site_type_symbol
_atom_site_label
_atom_site_fract_x
_atom_site_fract_y
_atom_site_fract_z
Si Si1 0.000000 0.845386 0.417872
Si Si2 0.338976 0.227773 0.645856
Si Si3 0.708526 0.659568 0.072959
Si Si4 0.781232 0.500000 0.582078
Si Si5 0.684689 0.500000 0.420128
Si Si6 0.423418 0.153973 0.579931
Si Si7 0.293827 0.665338 0.775995
O O1 0.958651 0.761372 0.399797
O O2 0.000000 0.849721 0.500000
O O3 0.000000 0.000000 0.392614
O O4 0.337964 0.368050 0.605760
O O5 0.383670 0.164316 0.629099
O O6 0.324914 0.268299 0.721415
O O7 0.304219 0.129947 0.613085
O O8 0.719935 0.500000 0.073507
O O9 0.750000 0.750000 0.072171
O O10 0.689159 0.684312 0.146994
O O11 0.686471 0.684885 0.000000
O O12 0.784590 0.500000 0.500000
O O13 0.732945 0.500000 0.602761
O O14 0.685906 0.500000 0.500000
O O15 0.411161 0.177393 0.500000
O O16 0.440101 0.000000 0.582446
O O17 0.288514 0.500000 0.765061
O O18 0.250000 0.750000 0.770671
#
# Coordination Sequence:
#
# PCOD9487812 Si02
#       7
#     8  16  16   8   8  16  16
#     4   9  19  33  53  75  89 103 130 177 234 283
#     4  12  22  32  46  64  86 116 152 193 231 269
#     4   8  14  26  43  61  81 107 142 182 223 267
#     4  11  22  36  46  57  80 116 162 197 227 262
#     4  11  22  32  44  59  82 116 154 197 233 256
#     4  10  20  35  51  66  86 112 145 183 226 277
#     4  10  20  31  44  63  87 117 151 189 230 270
#
# _framework density 14.154078999999999
#
# number of rings (size 3 to 8) (size 9 to 14) (size 15 to 20)
#    0.000    1.909    1.818    3.545    2.545    2.545 
#    0.000    0.000    0.000    0.000    0.000    0.000 
#    0.000    0.000    0.000    0.818    0.000   12.091 
#
# Total GULP energy -244986.142169 kJ/mol
# GULP energy per Si atom -5567.866867 kJ/mol
# Density = 1.412186 g / cm^3
# Si number density = 14.154079 Si / 1000 Ang^3
#
#
#
# Elastic Constant Matrix: (Units=GPa)
#
#
# Indices 1 2 3 4 5 6 
#
# 1 41.7996 15.5730 22.0927 0.0000 0.0000 0.0000
# 2 15.5730 79.2516 21.2982 0.0000 0.0000 0.0000
# 3 22.0927 21.2982 98.9863 0.0000 0.0000 0.0000
# 4 0.0000 0.0000 0.0000 19.3916 0.0000 0.0000
# 5 0.0000 0.0000 0.0000 0.0000 6.4321 0.0000
# 6 0.0000 0.0000 0.0000 0.0000 0.0000 34.7861
#
#
#
# Elastic Compliance Matrix: (Units=1/GPa)
#
#
# Indices 1 2 3 4 5 6 
#
# 1 0.028328 -0.004105 -0.005439 0.000000 0.000000 0.000000
# 2 -0.004105 0.013987 -0.002093 0.000000 0.000000 0.000000
# 3 -0.005439 -0.002093 0.011767 0.000000 0.000000 0.000000
# 4 0.000000 0.000000 0.000000 0.051569 0.000000 0.000000
# 5 0.000000 0.000000 0.000000 0.000000 0.155471 0.000000
# 6 0.000000 0.000000 0.000000 0.000000 0.000000 0.028747
#
#
# Mechanical properties :
#
#
# Convention : Reuss Voigt Hill
#
# Bulk Modulus (GPa) = 32.46007 37.55169 35.00588
# Shear Modulus (GPa) = 15.46015 22.86019 19.16017
#
# Velocity S-wave (km/s) = 3.30854 4.02318 3.68324
# Velocity P-wave (km/s) = 6.13013 6.94043 6.54783
#
# Compressibility (1/GPa) = 0.03080708
#
# Stress axis : x y z
#
# Youngs Moduli (GPa) = 35.30104 71.49391 84.98467
#
# Poissons Ratio (x) = 0.29346 0.46226
# Poissons Ratio (y) = 0.14490 0.17791
# Poissons Ratio (z) = 0.19201 0.14967
#
# Static dielectric constant tensor:
#      x y z
#    x 1.443260 0.000000 0.000000 
#    y 0.000000 1.535400 0.000000 
#    z 0.000000 0.000000 1.500780 
# 
# From -- ./inp_files/66269.got.cif
#   From: 2010.05.17/outbox.cif.g08.bks.cpg/sg65_34_cif.got.tgz:66269.got - 2010.06.03 17:01:31.
