data_PCOD9487185
_publ_section_title
;
Structure prediction by ZEFSAII (Michael W. Deem and Ramdas Pophale) SiO2 
 PCOD9487185
Probable space group: C M M M
;
_chemical_formula_sum "Si O2"
_cell_formula_units_Z 88
_cell_length_a 19.512131
_cell_length_b 28.733377
_cell_length_c 9.006429
_cell_angle_alpha 90.000000
_cell_angle_beta 90.000000
_cell_angle_gamma 90.000000
_cell_volume 5049.449160
_symmetry_space_group_name_H-M "C M M M"
_symmetry_group_IT_number 65
_symmetry_cell_setting 'orthorhombic'
loop_
_space_group_symop_operation_xyz
x,y,z
-x,-y,z
x,-y,-z
-x,y,-z
-x,-y,-z
x,y,-z
-x,y,z
x,-y,z
1/2+x,1/2+y,z
1/2-x,1/2-y,z
1/2+x,1/2-y,-z
1/2-x,1/2+y,-z
1/2-x,1/2-y,-z
1/2+x,1/2+y,-z
1/2-x,1/2+y,z
1/2+x,1/2-y,z
loop_
_atom_site_type_symbol
_atom_site_label
_atom_site_fract_x
_atom_site_fract_y
_atom_site_fract_z
Si Si1 0.419572 0.319259 0.321566
Si Si2 0.418587 0.500000 0.175273
Si Si3 0.083302 0.723066 0.170806
Si Si4 0.192461 0.553553 0.319331
Si Si5 0.920370 0.373137 0.320916
Si Si6 0.157283 0.086850 0.320523
O O1 0.416467 0.314654 0.500000
O O2 0.500000 0.327281 0.282557
O O3 0.395781 0.271004 0.249021
O O4 0.374070 0.363421 0.276649
O O5 0.500000 0.500000 0.195900
O O6 0.386495 0.454568 0.250479
O O7 0.403598 0.500000 0.000000
O O8 0.104058 0.676001 0.254446
O O9 0.000000 0.723228 0.175068
O O10 0.105015 0.722088 0.000000
O O11 0.191068 0.552158 0.500000
O O12 0.190743 0.500000 0.267738
O O13 0.128216 0.584740 0.271851
O O14 0.263850 0.578056 0.277553
O O15 0.917819 0.370065 0.500000
O O16 0.000000 0.380580 0.278800
O O17 0.152913 0.083686 0.500000
#
# Coordination Sequence:
#
# PCOD9487185 Si02
#       6
#    16   8  16  16  16  16
#     4   9  17  29  48  74  99 125 163 207 248 293
#     4  11  23  35  49  73 104 135 170 212 251 291
#     4   9  17  30  49  72  99 131 164 202 250 299
#     4   9  17  31  52  76 101 130 166 210 256 300
#     4   9  17  30  51  77 102 129 164 207 253 303
#     4  10  19  34  54  74  99 134 172 210 251 297
#
# _framework density 17.427644000000001
#
# number of rings (size 3 to 8) (size 9 to 14) (size 15 to 20)
#    0.000    2.636    0.909    1.364    0.000    4.727 
#    0.000    5.455    0.000    5.455    0.000    2.545 
#    0.000    0.000    0.000    0.000    0.000    0.000 
#
# Total GULP energy -245297.718502 kJ/mol
# GULP energy per Si atom -5574.948148 kJ/mol
# Density = 1.738798 g / cm^3
# Si number density = 17.427644 Si / 1000 Ang^3
#
#
#
# Elastic Constant Matrix: (Units=GPa)
#
#
# Indices 1 2 3 4 5 6 
#
# 1 86.0457 88.2477 30.1262 0.0000 0.0000 0.0000
# 2 88.2477 173.6987 34.0962 0.0000 0.0000 0.0000
# 3 30.1262 34.0962 15.2112 0.0000 0.0000 0.0000
# 4 0.0000 0.0000 0.0000 -2.7151 0.0000 0.0000
# 5 0.0000 0.0000 0.0000 0.0000 9.4460 0.0000
# 6 0.0000 0.0000 0.0000 0.0000 0.0000 -46.4050
#
#
#
# Elastic Compliance Matrix: (Units=1/GPa)
#
#
# Indices 1 2 3 4 5 6 
#
# 1 0.045524 -0.009697 -0.068425 0.000000 0.000000 0.000000
# 2 -0.009697 0.012346 -0.008469 0.000000 0.000000 0.000000
# 3 -0.068425 -0.008469 0.220242 0.000000 0.000000 0.000000
# 4 0.000000 0.000000 0.000000 -0.368307 0.000000 0.000000
# 5 0.000000 0.000000 0.000000 0.000000 0.105865 0.000000
# 6 0.000000 0.000000 0.000000 0.000000 0.000000 -0.021549
#
#
# Mechanical properties :
#
#
# Convention : Reuss Voigt Hill
#
# Bulk Modulus (GPa) = 9.53018 64.43288 36.98153
# Shear Modulus (GPa) = 24.71839 0.23087 12.47463
#
# Velocity S-wave (km/s) = 3.77018 0.36437 2.67834
# Velocity P-wave (km/s) = 4.94294 6.10155 5.55255
#
# Compressibility (1/GPa) = 0.10492977
#
# Stress axis : x y z
#
# Youngs Moduli (GPa) = 21.96665 80.99829 4.54046
#
# Poissons Ratio (x) = 0.78542 0.31068
# Poissons Ratio (y) = 0.21300 0.03845
# Poissons Ratio (z) = 1.50307 0.68597
#
# Static dielectric constant tensor:
#      x y z
#    x 1.589210 0.000000 0.000000 
#    y 0.000000 1.572760 0.000000 
#    z 0.000000 0.000000 1.576530 
# 
# From -- ./inp_files/10043.got.cif
#   From: 2010.05.17/outbox.cif.g08.bks.cpg/sg65_6_cif.got.tgz:10043.got - 2010.06.03 17:01:31.
