data_PCOD9487345
_publ_section_title
;
Structure prediction by ZEFSAII (Michael W. Deem and Ramdas Pophale) SiO2 
 PCOD9487345
Probable space group: C M M M
;
_chemical_formula_sum "Si O2"
_cell_formula_units_Z 72
_cell_length_a 17.731653
_cell_length_b 14.554787
_cell_length_c 16.315536
_cell_angle_alpha 90.000000
_cell_angle_beta 90.000000
_cell_angle_gamma 90.000000
_cell_volume 4210.720589
_symmetry_space_group_name_H-M "C M M M"
_symmetry_group_IT_number 65
_symmetry_cell_setting 'orthorhombic'
loop_
_space_group_symop_operation_xyz
x,y,z
-x,-y,z
x,-y,-z
-x,y,-z
-x,-y,-z
x,y,-z
-x,y,z
x,-y,z
1/2+x,1/2+y,z
1/2-x,1/2-y,z
1/2+x,1/2-y,-z
1/2-x,1/2+y,-z
1/2-x,1/2-y,-z
1/2+x,1/2+y,-z
1/2-x,1/2+y,z
1/2+x,1/2-y,z
loop_
_atom_site_type_symbol
_atom_site_label
_atom_site_fract_x
_atom_site_fract_y
_atom_site_fract_z
Si Si1 0.166913 0.293330 0.755206
Si Si2 0.838639 0.000000 0.092090
Si Si3 0.806038 0.500000 0.587545
Si Si4 0.910547 0.198273 0.908455
Si Si5 0.089384 0.680813 0.409072
Si Si6 0.217285 0.500000 0.236646
O O1 0.250000 0.250000 0.745677
O O2 0.129922 0.251219 0.835789
O O3 0.119890 0.270492 0.672736
O O4 0.172476 0.403705 0.768092
O O5 0.888401 0.908615 0.098140
O O6 0.778649 0.000000 0.165285
O O7 0.803728 0.000000 0.000000
O O8 0.765354 0.500000 0.500000
O O9 0.861396 0.587616 0.589786
O O10 0.754830 0.500000 0.668398
O O11 0.000000 0.209026 0.902040
O O12 0.886771 0.229325 0.000000
O O13 0.100887 0.724264 0.500000
O O14 0.000000 0.662543 0.401091
#
# Coordination Sequence:
#
# PCOD9487345 Si02
#       6
#    16   8   8  16  16   8
#     4  11  21  34  54  77 110 140 174 219 266 319
#     4  10  19  34  57  79 103 136 179 224 258 300
#     4   8  15  28  49  73 103 138 173 212 254 302
#     4  10  21  37  57  80 105 138 180 221 262 309
#     4   9  17  30  49  74 103 137 177 216 256 305
#     4  10  20  34  50  81 110 135 176 214 264 320
#
# _framework density 17.099211
#
# number of rings (size 3 to 8) (size 9 to 14) (size 15 to 20)
#    0.000    2.222    2.222    1.333    0.000    4.444 
#    0.000    1.667    0.000    1.333    0.000    0.000 
#    0.000    6.222    0.000    0.000    0.000    0.000 
#
# Total GULP energy -200421.116852 kJ/mol
# GULP energy per Si atom -5567.253246 kJ/mol
# Density = 1.706029 g / cm^3
# Si number density = 17.099211 Si / 1000 Ang^3
#
#
#
# Elastic Constant Matrix: (Units=GPa)
#
#
# Indices 1 2 3 4 5 6 
#
# 1 36.8524 -0.1068 43.2871 0.0000 0.0000 0.0000
# 2 -0.1068 63.9644 36.2480 0.0000 0.0000 0.0000
# 3 43.2871 36.2480 162.2035 0.0000 0.0000 0.0000
# 4 0.0000 0.0000 0.0000 13.6988 0.0000 0.0000
# 5 0.0000 0.0000 0.0000 0.0000 34.9098 0.0000
# 6 0.0000 0.0000 0.0000 0.0000 0.0000 -2.3647
#
#
#
# Elastic Compliance Matrix: (Units=1/GPa)
#
#
# Indices 1 2 3 4 5 6 
#
# 1 0.042394 0.007422 -0.012972 0.000000 0.000000 0.000000
# 2 0.007422 0.019200 -0.006271 0.000000 0.000000 0.000000
# 3 -0.012972 -0.006271 0.011028 0.000000 0.000000 0.000000
# 4 0.000000 0.000000 0.000000 0.072999 0.000000 0.000000
# 5 0.000000 0.000000 0.000000 0.000000 0.028645 0.000000
# 6 0.000000 0.000000 0.000000 0.000000 0.000000 -0.422878
#
#
# Mechanical properties :
#
#
# Convention : Reuss Voigt Hill
#
# Bulk Modulus (GPa) = 20.41680 46.87521 33.64600
# Shear Modulus (GPa) = -23.96459 21.48824 -1.23818
#
# Velocity S-wave (km/s) = -3.74773 3.54881 -0.85187
# Velocity P-wave (km/s) = 2.60022 6.65322 4.33037
#
# Compressibility (1/GPa) = 0.04897926
#
# Stress axis : x y z
#
# Youngs Moduli (GPa) = 23.58823 52.08332 90.67443
#
# Poissons Ratio (x) = -0.38656 1.17625
# Poissons Ratio (y) = -0.17507 0.56865
# Poissons Ratio (z) = 0.30599 0.32663
#
# Static dielectric constant tensor:
#      x y z
#    x 1.542460 0.000000 0.000000 
#    y 0.000000 1.576600 0.000000 
#    z 0.000000 0.000000 1.630480 
# 
# From -- ./inp_files/39862.got.cif
#   From: 2010.05.17/outbox.cif.g08.bks.cpg/sg65_20_cif.got.tgz:39862.got - 2010.06.03 17:01:31.
