data_PCOD9487324
_publ_section_title
;
Structure prediction by ZEFSAII (Michael W. Deem and Ramdas Pophale) SiO2 
 PCOD9487324
Probable space group: C M M M
;
_chemical_formula_sum "Si O2"
_cell_formula_units_Z 96
_cell_length_a 24.266461
_cell_length_b 26.014686
_cell_length_c 8.579708
_cell_angle_alpha 90.000000
_cell_angle_beta 90.000000
_cell_angle_gamma 90.000000
_cell_volume 5416.235502
_symmetry_space_group_name_H-M "C M M M"
_symmetry_group_IT_number 65
_symmetry_cell_setting 'orthorhombic'
loop_
_space_group_symop_operation_xyz
x,y,z
-x,-y,z
x,-y,-z
-x,y,-z
-x,-y,-z
x,y,-z
-x,y,z
x,-y,z
1/2+x,1/2+y,z
1/2-x,1/2-y,z
1/2+x,1/2-y,-z
1/2-x,1/2+y,-z
1/2-x,1/2-y,-z
1/2+x,1/2+y,-z
1/2-x,1/2+y,z
1/2+x,1/2-y,z
loop_
_atom_site_type_symbol
_atom_site_label
_atom_site_fract_x
_atom_site_fract_y
_atom_site_fract_z
Si Si1 0.936945 0.000000 0.310087
Si Si2 0.633141 0.599132 0.686880
Si Si3 0.563176 0.193421 0.313409
Si Si4 0.632504 0.099527 0.188531
Si Si5 0.747990 0.439890 0.188406
Si Si6 0.936792 0.192638 0.186692
Si Si7 0.562964 0.000000 0.190029
O O1 0.904398 0.050846 0.260181
O O2 0.937511 0.000000 0.500000
O O3 0.000000 0.000000 0.256385
O O4 0.633493 0.599831 0.500000
O O5 0.694458 0.588532 0.747199
O O6 0.605358 0.650980 0.747937
O O7 0.564770 0.195285 0.500000
O O8 0.500000 0.179939 0.265363
O O9 0.605657 0.151214 0.252687
O O10 0.574989 0.250059 0.247362
O O11 0.695141 0.087421 0.236597
O O12 0.595252 0.051037 0.238718
O O13 0.631461 0.101532 0.000000
O O14 0.748035 0.500000 0.237624
O O15 0.746175 0.439590 0.000000
O O16 0.000000 0.179839 0.235354
O O17 0.934774 0.192502 0.000000
O O18 0.500000 0.000000 0.243438
O O19 0.562829 0.000000 0.000000
#
# Coordination Sequence:
#
# PCOD9487324 Si02
#       7
#     8  16  16  16  16  16   8
#     4   9  18  31  49  77 111 143 176 217 268 327
#     4  11  21  35  56  82 113 149 188 227 275 334
#     4  10  21  37  57  83 115 149 183 226 282 337
#     4  10  19  34  56  82 110 147 191 232 276 327
#     4  10  20  36  56  79 112 151 191 234 277 324
#     4  10  21  38  60  85 112 145 185 229 279 333
#     4   9  16  27  49  81 111 139 178 227 276 327
#
# _framework density 17.724487
#
# number of rings (size 3 to 8) (size 9 to 14) (size 15 to 20)
#    0.000    2.000    1.667    2.500    0.000    4.000 
#    0.000    1.250    0.000    8.500    0.000    0.000 
#    0.000    0.000    0.000    0.000    0.000    0.000 
#
# Total GULP energy -268028.963596 kJ/mol
# GULP energy per Si atom -5583.936742 kJ/mol
# Density = 1.768415 g / cm^3
# Si number density = 17.724487 Si / 1000 Ang^3
#
#
#
# Elastic Constant Matrix: (Units=GPa)
#
#
# Indices 1 2 3 4 5 6 
#
# 1 195.8282 120.4142 42.2001 0.0000 0.0000 0.0000
# 2 120.4142 151.5229 37.1923 0.0000 0.0000 0.0000
# 3 42.2001 37.1923 29.6266 0.0000 0.0000 0.0000
# 4 0.0000 0.0000 0.0000 13.7183 0.0000 0.0000
# 5 0.0000 0.0000 0.0000 0.0000 23.9554 0.0000
# 6 0.0000 0.0000 0.0000 0.0000 0.0000 20.4541
#
#
#
# Elastic Compliance Matrix: (Units=1/GPa)
#
#
# Indices 1 2 3 4 5 6 
#
# 1 0.010830 -0.006967 -0.006680 0.000000 0.000000 0.000000
# 2 -0.006967 0.014021 -0.007678 0.000000 0.000000 0.000000
# 3 -0.006680 -0.007678 0.052907 0.000000 0.000000 0.000000
# 4 0.000000 0.000000 0.000000 0.072895 0.000000 0.000000
# 5 0.000000 0.000000 0.000000 0.000000 0.041744 0.000000
# 6 0.000000 0.000000 0.000000 0.000000 0.000000 0.048890
#
#
# Mechanical properties :
#
#
# Convention : Reuss Voigt Hill
#
# Bulk Modulus (GPa) = 28.48327 86.28788 57.38557
# Shear Modulus (GPa) = 16.91250 23.43696 20.17473
#
# Velocity S-wave (km/s) = 3.09235 3.64028 3.37744
# Velocity P-wave (km/s) = 5.37169 8.15214 6.90335
#
# Compressibility (1/GPa) = 0.03510833
#
# Stress axis : x y z
#
# Youngs Moduli (GPa) = 92.33675 71.32358 18.90105
#
# Poissons Ratio (x) = 0.49689 0.12626
# Poissons Ratio (y) = 0.64329 0.14511
# Poissons Ratio (z) = 0.61684 0.54759
#
# Static dielectric constant tensor:
#      x y z
#    x 1.590560 0.000000 0.000000 
#    y 0.000000 1.571220 0.000000 
#    z 0.000000 0.000000 1.603660 
# 
# From -- ./inp_files/14341.got.cif
#   From: 2010.05.17/outbox.cif.g08.bks.cpg/sg65_8_cif.got.tgz:14341.got - 2010.06.03 17:01:31.
