data_PCOD9487031
_publ_section_title
;
Structure prediction by ZEFSAII (Michael W. Deem and Ramdas Pophale) SiO2 
 PCOD9487031
Probable space group: C M M M
;
_chemical_formula_sum "Si O2"
_cell_formula_units_Z 64
_cell_length_a 16.255079
_cell_length_b 15.504411
_cell_length_c 12.022442
_cell_angle_alpha 90.000000
_cell_angle_beta 90.000000
_cell_angle_gamma 90.000000
_cell_volume 3029.961062
_symmetry_space_group_name_H-M "C M M M"
_symmetry_group_IT_number 65
_symmetry_cell_setting 'orthorhombic'
loop_
_space_group_symop_operation_xyz
x,y,z
-x,-y,z
x,-y,-z
-x,y,-z
-x,-y,-z
x,y,-z
-x,y,z
x,-y,z
1/2+x,1/2+y,z
1/2-x,1/2-y,z
1/2+x,1/2-y,-z
1/2-x,1/2+y,-z
1/2-x,1/2-y,-z
1/2+x,1/2+y,-z
1/2-x,1/2+y,z
1/2+x,1/2-y,z
loop_
_atom_site_type_symbol
_atom_site_label
_atom_site_fract_x
_atom_site_fract_y
_atom_site_fract_z
Si Si1 0.500000 0.394196 0.629554
Si Si2 0.663075 0.803251 0.000000
Si Si3 0.659585 0.599805 0.754391
Si Si4 0.340029 0.895418 0.233578
Si Si5 0.906137 0.873516 0.000000
Si Si6 0.000000 0.394568 0.372366
O O1 0.500000 0.500000 0.639316
O O2 0.500000 0.373294 0.500000
O O3 0.418497 0.361254 0.691634
O O4 0.750000 0.750000 0.000000
O O5 0.653580 0.859940 0.890755
O O6 0.595153 0.729339 0.000000
O O7 0.663175 0.500000 0.719682
O O8 0.749521 0.636082 0.728299
O O9 0.640281 0.600829 0.886593
O O10 0.417175 0.867995 0.307996
O O11 0.339049 0.000000 0.231281
O O12 0.000000 0.905212 0.000000
O O13 0.000000 0.500000 0.372996
O O14 0.000000 0.365528 0.500000
#
# Coordination Sequence:
#
# PCOD9487031 Si02
#       6
#     8   8  16  16   8   8
#     4   9  18  31  49  78 112 143 182 227 268 321
#     4  12  23  37  56  87 119 151 183 231 285 354
#     4  10  19  33  55  82 112 147 184 225 279 337
#     4  10  21  38  60  85 116 149 188 238 289 341
#     4  12  23  34  53  82 114 151 186 226 278 344
#     4   9  20  39  63  88 110 145 202 255 292 331
#
# _framework density 21.122385000000001
#
# number of rings (size 3 to 8) (size 9 to 14) (size 15 to 20)
#    0.000    1.750    3.750    0.750    1.750    3.500 
#    0.000    6.875    0.000    3.750    0.000    0.000 
#    0.000    0.000    0.000    0.000    0.000    0.000 
#
# Total GULP energy -178670.613684 kJ/mol
# GULP energy per Si atom -5583.456678 kJ/mol
# Density = 2.107431 g / cm^3
# Si number density = 21.122385 Si / 1000 Ang^3
#
#
#
# Elastic Constant Matrix: (Units=GPa)
#
#
# Indices 1 2 3 4 5 6 
#
# 1 238.5065 21.8943 112.4673 0.0000 0.0000 0.0000
# 2 21.8943 41.7150 6.9321 0.0000 0.0000 0.0000
# 3 112.4673 6.9321 153.9335 0.0000 0.0000 0.0000
# 4 0.0000 0.0000 0.0000 -60.6874 0.0000 0.0000
# 5 0.0000 0.0000 0.0000 0.0000 7.2686 0.0000
# 6 0.0000 0.0000 0.0000 0.0000 0.0000 12.6326
#
#
#
# Elastic Compliance Matrix: (Units=1/GPa)
#
#
# Indices 1 2 3 4 5 6 
#
# 1 0.006689 -0.002719 -0.004765 0.000000 0.000000 0.000000
# 2 -0.002719 0.025258 0.000849 0.000000 0.000000 0.000000
# 3 -0.004765 0.000849 0.009939 0.000000 0.000000 0.000000
# 4 0.000000 0.000000 0.000000 -0.016478 0.000000 0.000000
# 5 0.000000 0.000000 0.000000 0.000000 0.137579 0.000000
# 6 0.000000 0.000000 0.000000 0.000000 0.000000 0.079161
#
#
# Mechanical properties :
#
#
# Convention : Reuss Voigt Hill
#
# Bulk Modulus (GPa) = 34.94395 79.63805 57.29100
# Shear Modulus (GPa) = 18.87100 11.36684 15.11892
#
# Velocity S-wave (km/s) = 2.99224 2.32230 2.67830
# Velocity P-wave (km/s) = 5.34018 6.70640 6.06190
#
# Compressibility (1/GPa) = 0.02861726
#
# Stress axis : x y z
#
# Youngs Moduli (GPa) = 149.49442 39.59116 100.60994
#
# Poissons Ratio (x) = 0.10765 0.47939
# Poissons Ratio (y) = 0.40648 -0.08543
# Poissons Ratio (z) = 0.71232 -0.03362
#
# Static dielectric constant tensor:
#      x y z
#    x 1.809250 0.000000 0.000000 
#    y 0.000000 1.767650 0.000000 
#    z 0.000000 0.000000 1.760290 
# 
# From -- ./inp_files/24001.got.cif
#   From: 2010.05.17/outbox.cif.g08.bks.cpg/sg65_13_cif.got.tgz:24001.got - 2010.06.03 17:01:31.
