data_PCOD9487618
_publ_section_title
;
Structure prediction by ZEFSAII (Michael W. Deem and Ramdas Pophale) SiO2 
 PCOD9487618
Probable space group: C M M M
;
_chemical_formula_sum "Si O2"
_cell_formula_units_Z 104
_cell_length_a 18.011808
_cell_length_b 18.227827
_cell_length_c 17.539972
_cell_angle_alpha 90.000000
_cell_angle_beta 90.000000
_cell_angle_gamma 90.000000
_cell_volume 5758.655555
_symmetry_space_group_name_H-M "C M M M"
_symmetry_group_IT_number 65
_symmetry_cell_setting 'orthorhombic'
loop_
_space_group_symop_operation_xyz
x,y,z
-x,-y,z
x,-y,-z
-x,y,-z
-x,-y,-z
x,y,-z
-x,y,z
x,-y,z
1/2+x,1/2+y,z
1/2-x,1/2-y,z
1/2+x,1/2-y,-z
1/2-x,1/2+y,-z
1/2-x,1/2-y,-z
1/2+x,1/2+y,-z
1/2-x,1/2+y,z
1/2+x,1/2-y,z
loop_
_atom_site_type_symbol
_atom_site_label
_atom_site_fract_x
_atom_site_fract_y
_atom_site_fract_z
Si Si1 0.082358 0.416839 0.210434
Si Si2 0.082821 0.913139 0.000000
Si Si3 0.683316 0.086072 0.358271
Si Si4 0.659289 0.172371 0.089056
Si Si5 0.087694 0.718382 0.412947
Si Si6 0.824036 0.842423 0.867802
Si Si7 0.189705 0.814443 0.696041
O O1 0.086350 0.500000 0.181159
O O2 0.144075 0.409201 0.275301
O O3 0.097176 0.361768 0.142400
O O4 0.000000 0.405955 0.243770
O O5 0.125076 0.888864 0.076306
O O6 0.000000 0.880928 0.000000
O O7 0.078712 0.000000 0.000000
O O8 0.631550 0.140876 0.406881
O O9 0.764124 0.123407 0.349343
O O10 0.684844 0.000000 0.380729
O O11 0.738156 0.138747 0.115354
O O12 0.664872 0.258605 0.105330
O O13 0.648029 0.159584 0.000000
O O14 0.095670 0.745085 0.500000
O O15 0.127186 0.774496 0.354456
O O16 0.000000 0.709749 0.396869
O O17 0.837751 0.844957 0.777279
O O18 0.250000 0.750000 0.714270
#
# Coordination Sequence:
#
# PCOD9487618 Si02
#       7
#    16   8  16  16  16  16  16
#     4  10  21  35  51  78 117 152 185 229 278 335
#     4  11  26  41  52  76 112 147 188 241 294 340
#     4  10  20  35  57  87 119 152 193 236 287 347
#     4  11  19  33  55  79 105 139 189 232 278 338
#     4  10  22  39  59  87 121 155 191 233 287 347
#     4  11  19  37  58  78 104 141 186 239 285 331
#     4  10  19  35  63  88 113 149 193 244 285 338
#
# _framework density 18.059771000000001
#
# number of rings (size 3 to 8) (size 9 to 14) (size 15 to 20)
#    0.000    1.615    4.615    1.846    0.000    7.077 
#    0.000    1.538    0.000    0.462    0.000    1.077 
#    0.000    0.000    0.000    0.000    0.000    0.000 
#
# Total GULP energy -290109.505511 kJ/mol
# GULP energy per Si atom -5579.028952 kJ/mol
# Density = 1.801867 g / cm^3
# Si number density = 18.059771 Si / 1000 Ang^3
#
#
#
# Elastic Constant Matrix: (Units=GPa)
#
#
# Indices 1 2 3 4 5 6 
#
# 1 81.2267 41.2759 34.2178 0.0000 0.0000 0.0000
# 2 41.2759 58.4814 23.0799 0.0000 0.0000 0.0000
# 3 34.2178 23.0799 87.1066 0.0000 0.0000 0.0000
# 4 0.0000 0.0000 0.0000 18.6042 0.0000 0.0000
# 5 0.0000 0.0000 0.0000 0.0000 24.5573 0.0000
# 6 0.0000 0.0000 0.0000 0.0000 0.0000 24.5460
#
#
#
# Elastic Compliance Matrix: (Units=1/GPa)
#
#
# Indices 1 2 3 4 5 6 
#
# 1 0.020845 -0.012821 -0.004791 0.000000 0.000000 0.000000
# 2 -0.012821 0.026983 -0.002113 0.000000 0.000000 0.000000
# 3 -0.004791 -0.002113 0.013922 0.000000 0.000000 0.000000
# 4 0.000000 0.000000 0.000000 0.053751 0.000000 0.000000
# 5 0.000000 0.000000 0.000000 0.000000 0.040721 0.000000
# 6 0.000000 0.000000 0.000000 0.000000 0.000000 0.040740
#
#
# Mechanical properties :
#
#
# Convention : Reuss Voigt Hill
#
# Bulk Modulus (GPa) = 44.84550 47.10689 45.97620
# Shear Modulus (GPa) = 20.50481 22.09092 21.29787
#
# Velocity S-wave (km/s) = 3.37320 3.50124 3.43782
# Velocity P-wave (km/s) = 6.32906 6.51808 6.42427
#
# Compressibility (1/GPa) = 0.02229878
#
# Stress axis : x y z
#
# Youngs Moduli (GPa) = 47.97346 37.06104 71.82814
#
# Poissons Ratio (x) = 0.47517 0.34415
# Poissons Ratio (y) = 0.61508 0.15176
# Poissons Ratio (z) = 0.22985 0.07830
#
# Static dielectric constant tensor:
#      x y z
#    x 1.626340 0.000000 0.000000 
#    y 0.000000 1.627280 0.000000 
#    z 0.000000 0.000000 1.613910 
# 
# From -- ./inp_files/54572.got.cif
#   From: 2010.05.17/outbox.cif.g08.bks.cpg/sg65_28_cif.got.tgz:54572.got - 2010.06.03 17:01:31.
