data_PCOD9487513
_publ_section_title
;
Structure prediction by ZEFSAII (Michael W. Deem and Ramdas Pophale) SiO2 
 PCOD9487513
Probable space group: C M M M
;
_chemical_formula_sum "Si O2"
_cell_formula_units_Z 68
_cell_length_a 15.254285
_cell_length_b 7.383560
_cell_length_c 27.467583
_cell_angle_alpha 90.000000
_cell_angle_beta 90.000000
_cell_angle_gamma 90.000000
_cell_volume 3093.699378
_symmetry_space_group_name_H-M "C M M M"
_symmetry_group_IT_number 65
_symmetry_cell_setting 'orthorhombic'
loop_
_space_group_symop_operation_xyz
x,y,z
-x,-y,z
x,-y,-z
-x,y,-z
-x,-y,-z
x,y,-z
-x,y,z
x,-y,z
1/2+x,1/2+y,z
1/2-x,1/2-y,z
1/2+x,1/2-y,-z
1/2-x,1/2+y,-z
1/2-x,1/2-y,-z
1/2+x,1/2+y,-z
1/2-x,1/2+y,z
1/2+x,1/2-y,z
loop_
_atom_site_type_symbol
_atom_site_label
_atom_site_fract_x
_atom_site_fract_y
_atom_site_fract_z
Si Si1 0.000000 0.278299 0.260722
Si Si2 0.352074 0.783897 0.554494
Si Si3 0.900475 0.721049 0.078498
Si Si4 0.851946 0.715596 0.187088
Si Si5 0.000000 0.721793 0.372154
Si Si6 0.250000 0.750000 0.000000
O O1 0.915286 0.218789 0.229847
O O2 0.000000 0.217693 0.316437
O O3 0.000000 0.500000 0.261838
O O4 0.372263 0.713439 0.500000
O O5 0.250000 0.750000 0.564357
O O6 0.415724 0.718191 0.596765
O O7 0.364384 0.000000 0.552322
O O8 0.897004 0.500000 0.076310
O O9 0.879751 0.781758 0.133538
O O10 0.825168 0.781982 0.042133
O O11 0.000000 0.772817 0.065557
O O12 0.864877 0.500000 0.184843
O O13 0.750000 0.750000 0.195900
O O14 0.000000 0.500000 0.370926
#
# Coordination Sequence:
#
# PCOD9487513 Si02
#       6
#     8  16  16  16   8   4
#     4   9  18  33  55  77 100 132 175 214 248 303
#     4   9  17  30  49  73 103 137 173 212 256 304
#     4  10  20  35  54  75  99 130 167 203 241 298
#     4  10  19  35  57  78 100 131 169 208 252 300
#     4   9  17  30  50  76 101 132 174 216 254 297
#     4  12  20  30  52  78 100 122 160 206 248 284
#
# _framework density 21.980156999999998
#
# number of rings (size 3 to 8) (size 9 to 14) (size 15 to 20)
#    0.000    2.353    2.353    1.059    0.000    3.294 
#    0.000    1.176    0.000   12.706    0.000    0.000 
#    0.000    0.000    0.000    0.000    0.000    0.000 
#
# Total GULP energy -189481.863515 kJ/mol
# GULP energy per Si atom -5572.995986 kJ/mol
# Density = 2.193013 g / cm^3
# Si number density = 21.980157 Si / 1000 Ang^3
#
#
#
# Elastic Constant Matrix: (Units=GPa)
#
#
# Indices 1 2 3 4 5 6 
#
# 1 221.7282 -2.8556 155.0102 0.0000 0.0000 0.0000
# 2 -2.8556 74.1891 10.0574 0.0000 0.0000 0.0000
# 3 155.0102 10.0574 258.0703 0.0000 0.0000 0.0000
# 4 0.0000 0.0000 0.0000 1.4111 0.0000 0.0000
# 5 0.0000 0.0000 0.0000 0.0000 29.5081 0.0000
# 6 0.0000 0.0000 0.0000 0.0000 0.0000 12.9858
#
#
#
# Elastic Compliance Matrix: (Units=1/GPa)
#
#
# Indices 1 2 3 4 5 6 
#
# 1 0.007840 0.000945 -0.004746 0.000000 0.000000 0.000000
# 2 0.000945 0.013665 -0.001100 0.000000 0.000000 0.000000
# 3 -0.004746 -0.001100 0.006768 0.000000 0.000000 0.000000
# 4 0.000000 0.000000 0.000000 0.708655 0.000000 0.000000
# 5 0.000000 0.000000 0.000000 0.000000 0.033889 0.000000
# 6 0.000000 0.000000 0.000000 0.000000 0.000000 0.077007
#
#
# Mechanical properties :
#
#
# Convention : Reuss Voigt Hill
#
# Bulk Modulus (GPa) = 54.13884 97.60128 75.87006
# Shear Modulus (GPa) = 5.78849 34.89939 20.34394
#
# Velocity S-wave (km/s) = 1.62457 3.98900 3.04560
# Velocity P-wave (km/s) = 5.31067 8.10659 6.85274
#
# Compressibility (1/GPa) = 0.01847103
#
# Stress axis : x y z
#
# Youngs Moduli (GPa) = 127.54862 73.18181 147.74326
#
# Poissons Ratio (x) = -0.06917 0.70119
# Poissons Ratio (y) = -0.12055 0.16255
# Poissons Ratio (z) = 0.60535 0.08052
#
# Static dielectric constant tensor:
#      x y z
#    x 1.768950 0.000000 0.000000 
#    y 0.000000 1.886440 0.000000 
#    z 0.000000 0.000000 1.761410 
# 
# From -- ./inp_files/69684.got.cif
#   From: 2010.05.17/outbox.cif.g08.bks.cpg/sg65_35_cif.got.tgz:69684.got - 2010.06.03 17:01:31.
