data_PCOD9487773
_publ_section_title
;
Structure prediction by ZEFSAII (Michael W. Deem and Ramdas Pophale) SiO2 
 PCOD9487773
Probable space group: C M M M
;
_chemical_formula_sum "Si O2"
_cell_formula_units_Z 112
_cell_length_a 23.427808
_cell_length_b 13.958167
_cell_length_c 15.568781
_cell_angle_alpha 90.000000
_cell_angle_beta 90.000000
_cell_angle_gamma 90.000000
_cell_volume 5091.135500
_symmetry_space_group_name_H-M "C M M M"
_symmetry_group_IT_number 65
_symmetry_cell_setting 'orthorhombic'
loop_
_space_group_symop_operation_xyz
x,y,z
-x,-y,z
x,-y,-z
-x,y,-z
-x,-y,-z
x,y,-z
-x,y,z
x,-y,z
1/2+x,1/2+y,z
1/2-x,1/2-y,z
1/2+x,1/2-y,-z
1/2-x,1/2+y,-z
1/2-x,1/2-y,-z
1/2+x,1/2+y,-z
1/2-x,1/2+y,z
1/2+x,1/2-y,z
loop_
_atom_site_type_symbol
_atom_site_label
_atom_site_fract_x
_atom_site_fract_y
_atom_site_fract_z
Si Si1 0.259132 0.609057 0.356387
Si Si2 0.771902 0.388447 0.157912
Si Si3 0.140959 0.353022 0.408575
Si Si4 0.390619 0.360052 0.404444
Si Si5 0.338530 0.294051 0.097622
Si Si6 0.563518 0.102600 0.259236
Si Si7 0.063802 0.171488 0.779265
O O1 0.241081 0.500000 0.375202
O O2 0.252692 0.624795 0.254560
O O3 0.207987 0.668943 0.397686
O O4 0.323751 0.617154 0.388121
O O5 0.788116 0.500000 0.147269
O O6 0.718932 0.357252 0.099162
O O7 0.820276 0.309184 0.138734
O O8 0.132287 0.400210 0.500000
O O9 0.107270 0.253970 0.410503
O O10 0.115391 0.402012 0.325670
O O11 0.407778 0.396284 0.500000
O O12 0.423178 0.376198 0.314315
O O13 0.385418 0.348199 0.154798
O O14 0.357641 0.278877 0.000000
O O15 0.500000 0.100734 0.300995
O O16 0.565340 0.210639 0.222571
O O17 0.566482 0.000000 0.208764
O O18 0.000000 0.143762 0.805521
#
# Coordination Sequence:
#
# PCOD9487773 Si02
#       7
#    16  16  16  16  16  16  16
#     4  11  21  32  52  79 110 149 186 234 295 347
#     4  10  21  38  61  90 125 158 192 241 297 354
#     4  10  20  30  44  71 106 146 188 231 282 340
#     4  10  20  35  55  78 109 148 191 239 288 346
#     4  11  23  38  62  92 120 156 201 244 295 359
#     4   9  18  32  50  72 101 145 195 239 288 342
#     4  10  21  39  60  81 115 154 193 246 296 352
#
# _framework density 21.999022
#
# number of rings (size 3 to 8) (size 9 to 14) (size 15 to 20)
#    0.000    1.857    1.429    3.857    2.000    6.857 
#    0.000    3.571    0.000    1.714    0.000    5.000 
#    0.000    0.000    0.000    0.000    0.000    0.000 
#
# Total GULP energy -311953.747754 kJ/mol
# GULP energy per Si atom -5570.602638 kJ/mol
# Density = 2.194895 g / cm^3
# Si number density = 21.999022 Si / 1000 Ang^3
#
#
#
# Elastic Constant Matrix: (Units=GPa)
#
#
# Indices 1 2 3 4 5 6 
#
# 1 114.2873 -13.7602 21.2841 0.0000 0.0000 0.0000
# 2 -13.7602 59.1862 -1.2648 0.0000 0.0000 0.0000
# 3 21.2841 -1.2648 93.8629 0.0000 0.0000 0.0000
# 4 0.0000 0.0000 0.0000 84.8201 0.0000 0.0000
# 5 0.0000 0.0000 0.0000 0.0000 -1.3041 0.0000
# 6 0.0000 0.0000 0.0000 0.0000 0.0000 11.2922
#
#
#
# Elastic Compliance Matrix: (Units=1/GPa)
#
#
# Indices 1 2 3 4 5 6 
#
# 1 0.009399 0.002140 -0.002102 0.000000 0.000000 0.000000
# 2 0.002140 0.017388 -0.000251 0.000000 0.000000 0.000000
# 3 -0.002102 -0.000251 0.011127 0.000000 0.000000 0.000000
# 4 0.000000 0.000000 0.000000 0.011790 0.000000 0.000000
# 5 0.000000 0.000000 0.000000 0.000000 -0.766798 0.000000
# 6 0.000000 0.000000 0.000000 0.000000 0.000000 0.088557
#
#
# Mechanical properties :
#
#
# Convention : Reuss Voigt Hill
#
# Bulk Modulus (GPa) = 26.67527 31.09497 28.88512
# Shear Modulus (GPa) = -8.12197 36.36677 14.12240
#
# Velocity S-wave (km/s) = -1.92353 4.07025 2.53643
# Velocity P-wave (km/s) = 2.68676 6.02119 4.66226
#
# Compressibility (1/GPa) = 0.03748791
#
# Stress axis : x y z
#
# Youngs Moduli (GPa) = 106.39293 57.51075 89.86981
#
# Poissons Ratio (x) = -0.12309 0.18895
# Poissons Ratio (y) = -0.22771 0.02256
# Poissons Ratio (z) = 0.22369 0.01444
#
# Static dielectric constant tensor:
#      x y z
#    x 1.791380 0.000000 0.000000 
#    y 0.000000 1.925590 0.000000 
#    z 0.000000 0.000000 1.835470 
# 
# From -- ./inp_files/40793.got.cif
#   From: 2010.05.17/outbox.cif.g08.bks.cpg/sg65_21_cif.got.tgz:40793.got - 2010.06.03 17:01:31.
