data_PCOD9487496
_publ_section_title
;
Structure prediction by ZEFSAII (Michael W. Deem and Ramdas Pophale) SiO2 
 PCOD9487496
Probable space group: C M M M
;
_chemical_formula_sum "Si O2"
_cell_formula_units_Z 88
_cell_length_a 15.114931
_cell_length_b 18.869134
_cell_length_c 17.472812
_cell_angle_alpha 90.000000
_cell_angle_beta 90.000000
_cell_angle_gamma 90.000000
_cell_volume 4983.344851
_symmetry_space_group_name_H-M "C M M M"
_symmetry_group_IT_number 65
_symmetry_cell_setting 'orthorhombic'
loop_
_space_group_symop_operation_xyz
x,y,z
-x,-y,z
x,-y,-z
-x,y,-z
-x,-y,-z
x,y,-z
-x,y,z
x,-y,z
1/2+x,1/2+y,z
1/2-x,1/2-y,z
1/2+x,1/2-y,-z
1/2-x,1/2+y,-z
1/2-x,1/2-y,-z
1/2+x,1/2+y,-z
1/2-x,1/2+y,z
1/2+x,1/2-y,z
loop_
_atom_site_type_symbol
_atom_site_label
_atom_site_fract_x
_atom_site_fract_y
_atom_site_fract_z
Si Si1 0.100997 0.584354 0.409123
Si Si2 0.354979 0.662304 0.913761
Si Si3 0.500000 0.081362 0.908026
Si Si4 0.898246 0.084109 0.239910
Si Si5 0.735287 0.171344 0.306177
Si Si6 0.657688 0.180415 0.863660
O O1 0.111593 0.596734 0.500000
O O2 0.109638 0.500000 0.396443
O O3 0.172804 0.625798 0.360475
O O4 0.000000 0.604543 0.388143
O O5 0.389269 0.610127 0.848153
O O6 0.378081 0.743307 0.890940
O O7 0.247877 0.662688 0.908731
O O8 0.383559 0.646391 0.000000
O O9 0.585702 0.121170 0.877414
O O10 0.500000 0.000000 0.884367
O O11 0.500000 0.085338 0.000000
O O12 0.826250 0.129820 0.286778
O O13 0.000000 0.096280 0.264314
O O14 0.879461 0.000000 0.245346
O O15 0.750000 0.250000 0.338519
O O16 0.686347 0.183312 0.224697
#
# Coordination Sequence:
#
# PCOD9487496 Si02
#       6
#    16  16   8  16  16  16
#     4   9  20  39  63  92 123 151 179 218 274 339
#     4  10  19  35  56  74 100 145 193 240 290 336
#     4  11  24  36  50  78 114 150 190 241 298 352
#     4  10  22  38  54  77 111 148 190 241 287 331
#     4  11  21  37  60  87 113 148 189 234 278 337
#     4  10  20  36  51  77 109 143 185 231 282 341
#
# _framework density 17.658823000000002
#
# number of rings (size 3 to 8) (size 9 to 14) (size 15 to 20)
#    0.000    1.909    3.636    3.273    2.545    5.455 
#    0.000    0.909    0.000    0.545    0.000    2.545 
#    0.000    0.000    0.000    0.000    0.000    0.000 
#
# Total GULP energy -245645.615458 kJ/mol
# GULP energy per Si atom -5582.854897 kJ/mol
# Density = 1.761863 g / cm^3
# Si number density = 17.658823 Si / 1000 Ang^3
#
#
#
# Elastic Constant Matrix: (Units=GPa)
#
#
# Indices 1 2 3 4 5 6 
#
# 1 110.1795 78.9238 48.3922 0.0000 0.0000 0.0000
# 2 78.9238 114.9240 35.4435 0.0000 0.0000 0.0000
# 3 48.3922 35.4435 60.3489 0.0000 0.0000 0.0000
# 4 0.0000 0.0000 0.0000 31.6957 0.0000 0.0000
# 5 0.0000 0.0000 0.0000 0.0000 24.4821 0.0000
# 6 0.0000 0.0000 0.0000 0.0000 0.0000 22.3480
#
#
#
# Elastic Compliance Matrix: (Units=1/GPa)
#
#
# Indices 1 2 3 4 5 6 
#
# 1 0.022587 -0.012121 -0.010993 0.000000 0.000000 0.000000
# 2 -0.012121 0.017131 -0.000341 0.000000 0.000000 0.000000
# 3 -0.010993 -0.000341 0.025586 0.000000 0.000000 0.000000
# 4 0.000000 0.000000 0.000000 0.031550 0.000000 0.000000
# 5 0.000000 0.000000 0.000000 0.000000 0.040846 0.000000
# 6 0.000000 0.000000 0.000000 0.000000 0.000000 0.044747
#
#
# Mechanical properties :
#
#
# Convention : Reuss Voigt Hill
#
# Bulk Modulus (GPa) = 54.37032 67.88572 61.12802
# Shear Modulus (GPa) = 21.23240 23.88471 22.55855
#
# Velocity S-wave (km/s) = 3.47128 3.68171 3.57804
# Velocity P-wave (km/s) = 6.85000 7.52328 7.19452
#
# Compressibility (1/GPa) = 0.01839239
#
# Stress axis : x y z
#
# Youngs Moduli (GPa) = 44.27300 58.37379 39.08404
#
# Poissons Ratio (x) = 0.70757 0.42965
# Poissons Ratio (y) = 0.53665 0.01334
# Poissons Ratio (z) = 0.48670 0.01993
#
# Static dielectric constant tensor:
#      x y z
#    x 1.604360 0.000000 0.000000 
#    y 0.000000 1.592640 0.000000 
#    z 0.000000 0.000000 1.584620 
# 
# From -- ./inp_files/53058.got.cif
#   From: 2010.05.17/outbox.cif.g08.bks.cpg/sg65_27_cif.got.tgz:53058.got - 2010.06.03 17:01:31.
