data_PCOD9487237
_publ_section_title
;
Structure prediction by ZEFSAII (Michael W. Deem and Ramdas Pophale) SiO2 
 PCOD9487237
Probable space group: C M M M
;
_chemical_formula_sum "Si O2"
_cell_formula_units_Z 72
_cell_length_a 23.622937
_cell_length_b 19.217908
_cell_length_c 9.800785
_cell_angle_alpha 90.000000
_cell_angle_beta 90.000000
_cell_angle_gamma 90.000000
_cell_volume 4449.393991
_symmetry_space_group_name_H-M "C M M M"
_symmetry_group_IT_number 65
_symmetry_cell_setting 'orthorhombic'
loop_
_space_group_symop_operation_xyz
x,y,z
-x,-y,z
x,-y,-z
-x,y,-z
-x,-y,-z
x,y,-z
-x,y,z
x,-y,z
1/2+x,1/2+y,z
1/2-x,1/2-y,z
1/2+x,1/2-y,-z
1/2-x,1/2+y,-z
1/2-x,1/2-y,-z
1/2+x,1/2+y,-z
1/2-x,1/2+y,z
1/2+x,1/2-y,z
loop_
_atom_site_type_symbol
_atom_site_label
_atom_site_fract_x
_atom_site_fract_y
_atom_site_fract_z
Si Si1 0.262242 0.167462 0.156789
Si Si2 0.133362 0.684367 0.653827
Si Si3 0.149211 0.917372 0.837317
Si Si4 0.933070 0.578010 0.500000
Si Si5 0.432920 0.674747 0.335923
O O1 0.250000 0.250000 0.160982
O O2 0.316705 0.159324 0.250541
O O3 0.207006 0.123776 0.199835
O O4 0.274356 0.148163 0.000000
O O5 0.156349 0.699486 0.500000
O O6 0.089338 0.622248 0.627735
O O7 0.099806 0.753265 0.698967
O O8 0.098425 0.885202 0.748860
O O9 0.155138 0.000000 0.815570
O O10 0.139728 0.905704 0.000000
O O11 0.910561 0.500000 0.500000
O O12 0.000000 0.576887 0.500000
O O13 0.427376 0.664574 0.500000
O O14 0.500000 0.679317 0.306270
#
# Coordination Sequence:
#
# PCOD9487237 Si02
#       5
#    16  16  16   8  16
#     4  10  19  34  55  77 105 139 173 216 268 317
#     4   9  19  32  54  82 106 133 179 215 260 314
#     4  10  22  38  54  76 108 145 180 217 266 320
#     4   9  18  34  55  80 111 141 171 214 266 318
#     4  10  20  35  55  78 106 140 179 224 267 311
#
# _framework density 16.181978999999998
#
# number of rings (size 3 to 8) (size 9 to 14) (size 15 to 20)
#    0.667    1.667    2.222    0.667    0.000    3.556 
#    0.000    2.222    0.000    2.000    0.000    1.556 
#    0.000    0.000    0.000    0.000    0.000    0.000 
#
# Total GULP energy -200422.268362 kJ/mol
# GULP energy per Si atom -5567.285232 kJ/mol
# Density = 1.614515 g / cm^3
# Si number density = 16.181979 Si / 1000 Ang^3
#
#
#
# Elastic Constant Matrix: (Units=GPa)
#
#
# Indices 1 2 3 4 5 6 
#
# 1 118.0669 43.5622 53.2424 0.0000 0.0000 0.0000
# 2 43.5622 98.9228 25.0213 0.0000 0.0000 0.0000
# 3 53.2424 25.0213 35.8258 0.0000 0.0000 0.0000
# 4 0.0000 0.0000 0.0000 21.8541 0.0000 0.0000
# 5 0.0000 0.0000 0.0000 0.0000 -151.3677 0.0000
# 6 0.0000 0.0000 0.0000 0.0000 0.0000 26.9639
#
#
#
# Elastic Compliance Matrix: (Units=1/GPa)
#
#
# Indices 1 2 3 4 5 6 
#
# 1 0.026013 -0.002037 -0.037237 0.000000 0.000000 0.000000
# 2 -0.002037 0.012437 -0.005660 0.000000 0.000000 0.000000
# 3 -0.037237 -0.005660 0.087206 0.000000 0.000000 0.000000
# 4 0.000000 0.000000 0.000000 0.045758 0.000000 0.000000
# 5 0.000000 0.000000 0.000000 0.000000 -0.006606 0.000000
# 6 0.000000 0.000000 0.000000 0.000000 0.000000 0.037087
#
#
# Mechanical properties :
#
#
# Convention : Reuss Voigt Hill
#
# Bulk Modulus (GPa) = 27.94136 55.16304 41.55220
# Shear Modulus (GPa) = 16.46409 -11.77730 2.34339
#
# Velocity S-wave (km/s) = 3.19318 -2.70071 1.20470
# Velocity P-wave (km/s) = 5.55875 4.94349 5.26012
#
# Compressibility (1/GPa) = 0.03578924
#
# Stress axis : x y z
#
# Youngs Moduli (GPa) = 38.44167 80.40331 11.46716
#
# Poissons Ratio (x) = 0.16376 0.42701
# Poissons Ratio (y) = 0.07830 0.06490
# Poissons Ratio (z) = 1.43146 0.45504
#
# Static dielectric constant tensor:
#      x y z
#    x 1.528910 0.000000 0.000000 
#    y 0.000000 1.544440 0.000000 
#    z 0.000000 0.000000 1.546180 
# 
# From -- ./inp_files/9256.got.cif
#   From: 2010.05.17/outbox.cif.g08.bks.cpg/sg65_5_cif.got.tgz:9256.got - 2010.06.03 17:01:31.
