data_PCOD9487128
_publ_section_title
;
Structure prediction by ZEFSAII (Michael W. Deem and Ramdas Pophale) SiO2 
 PCOD9487128
Probable space group: C M M M
;
_chemical_formula_sum "Si O2"
_cell_formula_units_Z 72
_cell_length_a 10.600558
_cell_length_b 23.272829
_cell_length_c 15.839372
_cell_angle_alpha 90.000000
_cell_angle_beta 90.000000
_cell_angle_gamma 90.000000
_cell_volume 3907.651852
_symmetry_space_group_name_H-M "C M M M"
_symmetry_group_IT_number 65
_symmetry_cell_setting 'orthorhombic'
loop_
_space_group_symop_operation_xyz
x,y,z
-x,-y,z
x,-y,-z
-x,y,-z
-x,-y,-z
x,y,-z
-x,y,z
x,-y,z
1/2+x,1/2+y,z
1/2-x,1/2-y,z
1/2+x,1/2-y,-z
1/2-x,1/2+y,-z
1/2-x,1/2-y,-z
1/2+x,1/2+y,-z
1/2-x,1/2+y,z
1/2+x,1/2-y,z
loop_
_atom_site_type_symbol
_atom_site_label
_atom_site_fract_x
_atom_site_fract_y
_atom_site_fract_z
Si Si1 0.233517 0.000000 0.096354
Si Si2 0.864940 0.708003 0.000000
Si Si3 0.142551 0.382486 0.850714
Si Si4 0.500000 0.308521 0.602176
Si Si5 0.646497 0.500000 0.288469
Si Si6 0.000000 0.326458 0.399255
Si Si7 0.741679 0.625033 0.323586
O O1 0.315195 0.942184 0.107025
O O2 0.154530 0.000000 0.184922
O O3 0.178369 0.000000 0.000000
O O4 0.750000 0.750000 0.000000
O O5 0.859124 0.666691 0.080200
O O6 0.000000 0.738985 0.000000
O O7 0.235557 0.364649 0.775853
O O8 0.000000 0.389869 0.816718
O O9 0.500000 0.312449 0.500000
O O10 0.500000 0.241034 0.626444
O O11 0.624512 0.339730 0.638556
O O12 0.500000 0.500000 0.311649
O O13 0.711766 0.557034 0.325152
O O14 0.128055 0.356552 0.367596
O O15 0.000000 0.327718 0.500000
#
# Coordination Sequence:
#
# PCOD9487128 Si02
#       7
#     8   8  16   8   8   8  16
#     4  10  19  33  64  93 118 157 210 263 312 357
#     4  10  22  39  55  81 123 164 209 252 294 365
#     4  10  20  37  60  90 123 160 206 254 310 365
#     4  11  24  43  69  96 125 167 212 263 319 379
#     4  10  22  41  63  91 130 167 206 257 318 390
#     4  11  24  43  67  96 125 159 214 271 313 371
#     4  11  22  42  66  93 130 165 207 260 319 382
#
# _framework density 18.425387000000001
#
# number of rings (size 3 to 8) (size 9 to 14) (size 15 to 20)
#    0.000    1.556    3.333    1.667    0.000    4.667 
#    2.000    3.333    0.000    0.000    0.000    0.000 
#    0.000    0.000    0.000    0.000    0.000    0.000 
#
# Total GULP energy -200801.212898 kJ/mol
# GULP energy per Si atom -5577.811469 kJ/mol
# Density = 1.838345 g / cm^3
# Si number density = 18.425387 Si / 1000 Ang^3
#
#
#
# Elastic Constant Matrix: (Units=GPa)
#
#
# Indices 1 2 3 4 5 6 
#
# 1 162.2486 92.8872 52.4270 0.0000 0.0000 0.0000
# 2 92.8872 131.4865 55.2443 0.0000 0.0000 0.0000
# 3 52.4270 55.2443 84.2361 0.0000 0.0000 0.0000
# 4 0.0000 0.0000 0.0000 28.1378 0.0000 0.0000
# 5 0.0000 0.0000 0.0000 0.0000 25.9917 0.0000
# 6 0.0000 0.0000 0.0000 0.0000 0.0000 30.6336
#
#
#
# Elastic Compliance Matrix: (Units=1/GPa)
#
#
# Indices 1 2 3 4 5 6 
#
# 1 0.010674 -0.006556 -0.002344 0.000000 0.000000 0.000000
# 2 -0.006556 0.014524 -0.005445 0.000000 0.000000 0.000000
# 3 -0.002344 -0.005445 0.016901 0.000000 0.000000 0.000000
# 4 0.000000 0.000000 0.000000 0.035539 0.000000 0.000000
# 5 0.000000 0.000000 0.000000 0.000000 0.038474 0.000000
# 6 0.000000 0.000000 0.000000 0.000000 0.000000 0.032644
#
#
# Mechanical properties :
#
#
# Convention : Reuss Voigt Hill
#
# Bulk Modulus (GPa) = 74.57174 86.56536 80.56855
# Shear Modulus (GPa) = 27.48515 28.78013 28.13264
#
# Velocity S-wave (km/s) = 3.86644 3.95648 3.91172
# Velocity P-wave (km/s) = 7.77770 8.24349 8.01398
#
# Compressibility (1/GPa) = 0.01340991
#
# Stress axis : x y z
#
# Youngs Moduli (GPa) = 93.68696 68.84972 59.16677
#
# Poissons Ratio (x) = 0.45135 0.13868
# Poissons Ratio (y) = 0.61418 0.32218
# Poissons Ratio (z) = 0.21959 0.37491
#
# Static dielectric constant tensor:
#      x y z
#    x 1.636120 0.000000 0.000000 
#    y 0.000000 1.609030 0.000000 
#    z 0.000000 0.000000 1.642130 
# 
# From -- ./inp_files/36752.got.cif
#   From: 2010.05.17/outbox.cif.g08.bks.cpg/sg65_19_cif.got.tgz:36752.got - 2010.06.03 17:01:31.
