data_PCOD9487415
_publ_section_title
;
Structure prediction by ZEFSAII (Michael W. Deem and Ramdas Pophale) SiO2 
 PCOD9487415
Probable space group: C M M M
;
_chemical_formula_sum "Si O2"
_cell_formula_units_Z 88
_cell_length_a 14.042920
_cell_length_b 24.318917
_cell_length_c 13.233239
_cell_angle_alpha 90.000000
_cell_angle_beta 90.000000
_cell_angle_gamma 90.000000
_cell_volume 4519.265003
_symmetry_space_group_name_H-M "C M M M"
_symmetry_group_IT_number 65
_symmetry_cell_setting 'orthorhombic'
loop_
_space_group_symop_operation_xyz
x,y,z
-x,-y,z
x,-y,-z
-x,y,-z
-x,-y,-z
x,y,-z
-x,y,z
x,-y,z
1/2+x,1/2+y,z
1/2-x,1/2-y,z
1/2+x,1/2-y,-z
1/2-x,1/2+y,-z
1/2-x,1/2-y,-z
1/2+x,1/2+y,-z
1/2-x,1/2+y,z
1/2+x,1/2-y,z
loop_
_atom_site_type_symbol
_atom_site_label
_atom_site_fract_x
_atom_site_fract_y
_atom_site_fract_z
Si Si1 0.637561 0.745524 0.000000
Si Si2 0.254199 0.381813 0.670450
Si Si3 0.389233 0.214313 0.612745
Si Si4 0.389168 0.063305 0.193670
Si Si5 0.107581 0.373742 0.000000
Si Si6 0.887120 0.066452 0.500000
Si Si7 0.107017 0.192784 0.217388
O O1 0.750000 0.750000 0.000000
O O2 0.609646 0.715408 0.103431
O O3 0.603747 0.808414 0.000000
O O4 0.186186 0.334608 0.623475
O O5 0.180618 0.426280 0.713514
O O6 0.330497 0.407776 0.594631
O O7 0.314698 0.352621 0.758868
O O8 0.378842 0.239373 0.500000
O O9 0.500000 0.195378 0.621191
O O10 0.374571 0.257770 0.702696
O O11 0.500000 0.077146 0.217776
O O12 0.386606 0.000000 0.161323
O O13 0.352499 0.102198 0.103301
O O14 0.000000 0.396288 0.000000
O O15 0.000000 0.080545 0.500000
O O16 0.879699 0.000000 0.500000
O O17 0.000000 0.172381 0.238152
#
# Coordination Sequence:
#
# PCOD9487415 Si02
#       7
#     8  16  16  16   8   8  16
#     4  12  22  37  57  89 124 159 202 243 297 358
#     4  12  22  39  62  87 115 156 204 244 307 362
#     4  10  21  37  58  89 124 156 195 240 296 359
#     4  10  21  37  59  89 122 156 200 253 305 358
#     4  10  19  34  58  84 121 165 195 229 285 353
#     4  11  26  46  64  83 111 151 206 266 314 361
#     4  11  24  38  58  88 127 168 201 244 293 356
#
# _framework density 19.472193999999998
#
# number of rings (size 3 to 8) (size 9 to 14) (size 15 to 20)
#    0.000    1.182    0.909    6.545    1.273    4.727 
#    0.000    0.000    0.000    2.182    0.000    0.000 
#    0.000   10.182    0.000    0.000    0.000    0.000 
#
# Total GULP energy -245727.561417 kJ/mol
# GULP energy per Si atom -5584.717305 kJ/mol
# Density = 1.942787 g / cm^3
# Si number density = 19.472194 Si / 1000 Ang^3
#
#
#
# Elastic Constant Matrix: (Units=GPa)
#
#
# Indices 1 2 3 4 5 6 
#
# 1 143.6118 44.9390 45.9081 0.0000 0.0000 0.0000
# 2 44.9390 72.6954 44.9220 0.0000 0.0000 0.0000
# 3 45.9081 44.9220 125.2067 0.0000 0.0000 0.0000
# 4 0.0000 0.0000 0.0000 30.0074 0.0000 0.0000
# 5 0.0000 0.0000 0.0000 0.0000 34.1313 0.0000
# 6 0.0000 0.0000 0.0000 0.0000 0.0000 34.3430
#
#
#
# Elastic Compliance Matrix: (Units=1/GPa)
#
#
# Indices 1 2 3 4 5 6 
#
# 1 0.008892 -0.004474 -0.001655 0.000000 0.000000 0.000000
# 2 -0.004474 0.019926 -0.005509 0.000000 0.000000 0.000000
# 3 -0.001655 -0.005509 0.010570 0.000000 0.000000 0.000000
# 4 0.000000 0.000000 0.000000 0.033325 0.000000 0.000000
# 5 0.000000 0.000000 0.000000 0.000000 0.029299 0.000000
# 6 0.000000 0.000000 0.000000 0.000000 0.000000 0.029118
#
#
# Mechanical properties :
#
#
# Convention : Reuss Voigt Hill
#
# Bulk Modulus (GPa) = 62.06415 68.11689 65.09052
# Shear Modulus (GPa) = 31.29360 33.41266 32.35313
#
# Velocity S-wave (km/s) = 4.01320 4.14686 4.08058
# Velocity P-wave (km/s) = 7.30868 7.61486 7.46334
#
# Compressibility (1/GPa) = 0.01611236
#
# Stress axis : x y z
#
# Youngs Moduli (GPa) = 112.45530 50.18576 94.60692
#
# Poissons Ratio (x) = 0.22455 0.15659
# Poissons Ratio (y) = 0.50316 0.52115
# Poissons Ratio (z) = 0.18613 0.27645
#
# Static dielectric constant tensor:
#      x y z
#    x 1.692610 0.000000 0.000000 
#    y 0.000000 1.660190 0.000000 
#    z 0.000000 0.000000 1.722830 
# 
# From -- ./inp_files/24871.got.cif
#   From: 2010.05.17/outbox.cif.g08.bks.cpg/sg65_13_cif.got.tgz:24871.got - 2010.06.03 17:01:31.
