data_PCOD9487489
_publ_section_title
;
Structure prediction by ZEFSAII (Michael W. Deem and Ramdas Pophale) SiO2 
 PCOD9487489
Probable space group: C M M M
;
_chemical_formula_sum "Si O2"
_cell_formula_units_Z 100
_cell_length_a 30.959160
_cell_length_b 20.215755
_cell_length_c 7.470231
_cell_angle_alpha 90.000000
_cell_angle_beta 90.000000
_cell_angle_gamma 90.000000
_cell_volume 4675.339642
_symmetry_space_group_name_H-M "C M M M"
_symmetry_group_IT_number 65
_symmetry_cell_setting 'orthorhombic'
loop_
_space_group_symop_operation_xyz
x,y,z
-x,-y,z
x,-y,-z
-x,y,-z
-x,-y,-z
x,y,-z
-x,y,z
x,-y,z
1/2+x,1/2+y,z
1/2-x,1/2-y,z
1/2+x,1/2-y,-z
1/2-x,1/2+y,-z
1/2-x,1/2-y,-z
1/2+x,1/2+y,-z
1/2-x,1/2+y,z
1/2+x,1/2-y,z
loop_
_atom_site_type_symbol
_atom_site_label
_atom_site_fract_x
_atom_site_fract_y
_atom_site_fract_z
Si Si1 0.048395 0.693773 0.288843
Si Si2 0.655263 0.000000 0.000000
Si Si3 0.105663 0.571752 0.291465
Si Si4 0.264133 0.927740 0.290828
Si Si5 0.292679 0.216345 0.207966
Si Si6 0.122755 0.209908 0.784121
Si Si7 0.837713 0.926842 0.216622
O O1 0.044581 0.681236 0.500000
O O2 0.076457 0.631486 0.222689
O O3 0.077170 0.759124 0.267747
O O4 0.000000 0.698402 0.214624
O O5 0.644779 0.943137 0.842015
O O6 0.118461 0.582768 0.500000
O O7 0.081626 0.500000 0.287311
O O8 0.274992 0.931703 0.500000
O O9 0.284238 0.861139 0.217409
O O10 0.212209 0.919912 0.274005
O O11 0.274026 0.000000 0.202011
O O12 0.250000 0.250000 0.290283
O O13 0.338199 0.242278 0.281134
O O14 0.293592 0.237157 0.000000
O O15 0.134540 0.135893 0.722785
O O16 0.122807 0.209410 0.000000
O O17 0.852575 0.000000 0.274183
O O18 0.837327 0.925879 0.000000
#
# Coordination Sequence:
#
# PCOD9487489 Si02
#       7
#    16   4  16  16  16  16  16
#     4  10  22  39  56  76 108 147 183 228 285 336
#     4   8  14  28  53  80 104 136 176 234 290 324
#     4   8  16  31  51  77 105 137 184 232 277 335
#     4  10  20  32  50  79 111 146 189 227 263 317
#     4  10  19  35  55  78 111 144 176 219 271 327
#     4  10  21  35  55  85 110 137 184 230 271 330
#     4   9  17  33  56  80 109 144 179 222 275 327
#
# _framework density 21.388819999999999
#
# number of rings (size 3 to 8) (size 9 to 14) (size 15 to 20)
#    0.480    2.080    1.600    0.480    1.120    3.200 
#    0.000    2.800    0.000    3.360    0.000    3.360 
#    0.000    0.000    0.000    0.000    0.000    0.000 
#
# Total GULP energy -278524.925210 kJ/mol
# GULP energy per Si atom -5570.498504 kJ/mol
# Density = 2.134014 g / cm^3
# Si number density = 21.388820 Si / 1000 Ang^3
#
#
#
# Elastic Constant Matrix: (Units=GPa)
#
#
# Indices 1 2 3 4 5 6 
#
# 1 113.9343 77.2649 -11.9737 0.0000 0.0000 0.0000
# 2 77.2649 145.5969 -12.9031 0.0000 0.0000 0.0000
# 3 -11.9737 -12.9031 62.3336 0.0000 0.0000 0.0000
# 4 0.0000 0.0000 0.0000 -24.3523 0.0000 0.0000
# 5 0.0000 0.0000 0.0000 0.0000 38.0315 0.0000
# 6 0.0000 0.0000 0.0000 0.0000 0.0000 12.4154
#
#
#
# Elastic Compliance Matrix: (Units=1/GPa)
#
#
# Indices 1 2 3 4 5 6 
#
# 1 0.013793 -0.007217 0.001156 0.000000 0.000000 0.000000
# 2 -0.007217 0.010773 0.000844 0.000000 0.000000 0.000000
# 3 0.001156 0.000844 0.016439 0.000000 0.000000 0.000000
# 4 0.000000 0.000000 0.000000 -0.041064 0.000000 0.000000
# 5 0.000000 0.000000 0.000000 0.000000 0.026294 0.000000
# 6 0.000000 0.000000 0.000000 0.000000 0.000000 0.080545
#
#
# Mechanical properties :
#
#
# Convention : Reuss Voigt Hill
#
# Bulk Modulus (GPa) = 32.71261 47.40456 40.05859
# Shear Modulus (GPa) = 39.24479 23.18404 31.21442
#
# Velocity S-wave (km/s) = 4.28814 3.29588 3.82433
# Velocity P-wave (km/s) = 6.31228 6.05765 6.18628
#
# Compressibility (1/GPa) = 0.03056925
#
# Stress axis : x y z
#
# Youngs Moduli (GPa) = 72.50214 92.82487 60.82978
#
# Poissons Ratio (x) = 0.66992 -0.07029
# Poissons Ratio (y) = 0.52325 -0.05132
# Poissons Ratio (z) = -0.08378 -0.07831
#
# Static dielectric constant tensor:
#      x y z
#    x 1.797730 0.000000 0.000000 
#    y 0.000000 1.811870 0.000000 
#    z 0.000000 0.000000 1.818840 
# 
# From -- ./inp_files/18682.got.cif
#   From: 2010.05.17/outbox.cif.g08.bks.cpg/sg65_10_cif.got.tgz:18682.got - 2010.06.03 17:01:31.
