data_PCOD9487375
_publ_section_title
;
Structure prediction by ZEFSAII (Michael W. Deem and Ramdas Pophale) SiO2 
 PCOD9487375
Probable space group: C M M M
;
_chemical_formula_sum "Si O2"
_cell_formula_units_Z 64
_cell_length_a 15.098021
_cell_length_b 8.852136
_cell_length_c 24.852443
_cell_angle_alpha 90.000000
_cell_angle_beta 90.000000
_cell_angle_gamma 90.000000
_cell_volume 3321.522427
_symmetry_space_group_name_H-M "C M M M"
_symmetry_group_IT_number 65
_symmetry_cell_setting 'orthorhombic'
loop_
_space_group_symop_operation_xyz
x,y,z
-x,-y,z
x,-y,-z
-x,y,-z
-x,-y,-z
x,y,-z
-x,y,z
x,-y,z
1/2+x,1/2+y,z
1/2-x,1/2-y,z
1/2+x,1/2-y,-z
1/2-x,1/2+y,-z
1/2-x,1/2-y,-z
1/2+x,1/2+y,-z
1/2-x,1/2+y,z
1/2+x,1/2-y,z
loop_
_atom_site_type_symbol
_atom_site_label
_atom_site_fract_x
_atom_site_fract_y
_atom_site_fract_z
Si Si1 0.500000 0.818039 0.792622
Si Si2 0.108327 0.826050 0.500000
Si Si3 0.843109 0.820408 0.723142
Si Si4 0.651115 0.182980 0.000000
Si Si5 0.607451 0.173376 0.388620
Si Si6 0.000000 0.683196 0.083142
O O1 0.583420 0.753081 0.760910
O O2 0.500000 0.769979 0.854958
O O3 0.500000 0.000000 0.789921
O O4 0.136150 0.741257 0.445747
O O5 0.000000 0.825730 0.500000
O O6 0.137145 0.000000 0.500000
O O7 0.750000 0.750000 0.739118
O O8 0.861327 0.771639 0.661559
O O9 0.844064 0.000000 0.727470
O O10 0.750000 0.250000 0.000000
O O11 0.588918 0.228712 0.949190
O O12 0.658202 0.000000 0.000000
O O13 0.500000 0.173529 0.387986
O O14 0.637229 0.000000 0.382374
O O15 0.000000 0.500000 0.081846
#
# Coordination Sequence:
#
# PCOD9487375 Si02
#       6
#     8   8  16   8  16   8
#     4  11  22  41  64  89 121 160 203 252 301 352
#     4   9  17  29  50  81 114 148 191 238 292 360
#     4  12  25  41  61  86 117 156 201 250 304 363
#     4   9  17  35  60  90 124 163 201 241 290 342
#     4  10  19  34  57  83 114 150 192 242 300 363
#     4   8  18  36  60  86 121 163 201 238 291 353
#
# _framework density 19.268273000000001
#
# number of rings (size 3 to 8) (size 9 to 14) (size 15 to 20)
#    0.000    1.875    1.250    4.500    0.000    3.500 
#    0.000    6.875    0.000    0.000    0.000    0.000 
#    0.000    0.000    0.000    0.000    0.000    0.000 
#
# Total GULP energy -178827.240585 kJ/mol
# GULP energy per Si atom -5588.351268 kJ/mol
# Density = 1.922442 g / cm^3
# Si number density = 19.268273 Si / 1000 Ang^3
#
#
#
# Elastic Constant Matrix: (Units=GPa)
#
#
# Indices 1 2 3 4 5 6 
#
# 1 144.0623 53.1396 84.2762 0.0000 0.0000 0.0000
# 2 53.1396 131.8807 61.6329 0.0000 0.0000 0.0000
# 3 84.2762 61.6329 172.6738 0.0000 0.0000 0.0000
# 4 0.0000 0.0000 0.0000 12.3423 0.0000 0.0000
# 5 0.0000 0.0000 0.0000 0.0000 -318.4390 0.0000
# 6 0.0000 0.0000 0.0000 0.0000 0.0000 30.1666
#
#
#
# Elastic Compliance Matrix: (Units=1/GPa)
#
#
# Indices 1 2 3 4 5 6 
#
# 1 0.010195 -0.002139 -0.004212 0.000000 0.000000 0.000000
# 2 -0.002139 0.009550 -0.002364 0.000000 0.000000 0.000000
# 3 -0.004212 -0.002364 0.008691 0.000000 0.000000 0.000000
# 4 0.000000 0.000000 0.000000 0.081022 0.000000 0.000000
# 5 0.000000 0.000000 0.000000 0.000000 -0.003140 0.000000
# 6 0.000000 0.000000 0.000000 0.000000 0.000000 0.033149
#
#
# Mechanical properties :
#
#
# Convention : Reuss Voigt Hill
#
# Bulk Modulus (GPa) = 90.87962 94.07936 92.47949
# Shear Modulus (GPa) = 31.13984 -38.54815 -3.70415
#
# Velocity S-wave (km/s) = 4.02446 -4.47766 -1.38801
# Velocity P-wave (km/s) = 8.29836 4.71163 6.74768
#
# Compressibility (1/GPa) = 0.01100357
#
# Stress axis : x y z
#
# Youngs Moduli (GPa) = 98.09114 104.71624 115.06210
#
# Poissons Ratio (x) = 0.22402 0.48465
# Poissons Ratio (y) = 0.20985 0.27206
# Poissons Ratio (z) = 0.41316 0.24759
#
# Static dielectric constant tensor:
#      x y z
#    x 1.670870 0.000000 0.000000 
#    y 0.000000 1.644030 0.000000 
#    z 0.000000 0.000000 1.649800 
# 
# From -- ./inp_files/69583.got.cif
#   From: 2010.05.17/outbox.cif.g08.bks.cpg/sg65_35_cif.got.tgz:69583.got - 2010.06.03 17:01:31.
