data_PCOD9487293
_publ_section_title
;
Structure prediction by ZEFSAII (Michael W. Deem and Ramdas Pophale) SiO2 
 PCOD9487293
Probable space group: C M M M
;
_chemical_formula_sum "Si O2"
_cell_formula_units_Z 104
_cell_length_a 7.654211
_cell_length_b 26.869210
_cell_length_c 21.851899
_cell_angle_alpha 90.000000
_cell_angle_beta 90.000000
_cell_angle_gamma 90.000000
_cell_volume 4494.118423
_symmetry_space_group_name_H-M "C M M M"
_symmetry_group_IT_number 65
_symmetry_cell_setting 'orthorhombic'
loop_
_space_group_symop_operation_xyz
x,y,z
-x,-y,z
x,-y,-z
-x,y,-z
-x,-y,-z
x,y,-z
-x,y,z
x,-y,z
1/2+x,1/2+y,z
1/2-x,1/2-y,z
1/2+x,1/2-y,-z
1/2-x,1/2+y,-z
1/2-x,1/2-y,-z
1/2+x,1/2+y,-z
1/2-x,1/2+y,z
1/2+x,1/2-y,z
loop_
_atom_site_type_symbol
_atom_site_label
_atom_site_fract_x
_atom_site_fract_y
_atom_site_fract_z
Si Si1 0.702725 0.593977 0.873548
Si Si2 0.297784 0.558747 0.000000
Si Si3 0.290983 0.303960 0.304454
Si Si4 0.791964 0.692790 0.929133
Si Si5 0.212812 0.910209 0.258830
Si Si6 0.295185 0.054433 0.391739
Si Si7 0.295509 0.336551 0.433706
O O1 0.500000 0.577612 0.873857
O O2 0.786190 0.575465 0.936530
O O3 0.709928 0.653610 0.882234
O O4 0.774839 0.575732 0.808866
O O5 0.305171 0.500000 0.000000
O O6 0.500000 0.578012 0.000000
O O7 0.500000 0.308195 0.307580
O O8 0.250000 0.250000 0.278648
O O9 0.230979 0.352833 0.268956
O O10 0.219408 0.309786 0.373895
O O11 0.750000 0.750000 0.915123
O O12 0.000000 0.686442 0.927676
O O13 0.732671 0.683484 0.000000
O O14 0.274672 0.939764 0.318269
O O15 0.000000 0.912424 0.259421
O O16 0.500000 0.055861 0.406852
O O17 0.214225 0.104026 0.420764
O O18 0.225527 0.000000 0.410114
O O19 0.216799 0.325278 0.500000
O O20 0.500000 0.323430 0.436115
#
# Coordination Sequence:
#
# PCOD9487293 Si02
#       7
#    16   8  16  16  16  16  16
#     4  10  19  34  56  79 105 137 175 222 273 322
#     4   9  18  32  52  79 106 131 166 217 272 325
#     4   9  18  33  51  74 105 138 176 216 256 302
#     4  10  20  33  51  75 104 137 173 210 257 316
#     4   9  20  36  54  77 104 139 181 222 263 316
#     4  10  21  36  54  78 108 140 176 222 271 315
#     4   9  19  36  56  79 108 141 178 219 261 313
#
# _framework density 23.141356999999999
#
# number of rings (size 3 to 8) (size 9 to 14) (size 15 to 20)
#    0.000    2.538    0.769    1.846    0.000    7.077 
#    0.000    4.615    0.000    0.923    0.000    0.000 
#    0.000    0.000    0.000    0.000    0.000    0.000 
#
# Total GULP energy -290267.329683 kJ/mol
# GULP energy per Si atom -5582.064032 kJ/mol
# Density = 2.308869 g / cm^3
# Si number density = 23.141357 Si / 1000 Ang^3
#
#
#
# Elastic Constant Matrix: (Units=GPa)
#
#
# Indices 1 2 3 4 5 6 
#
# 1 51.4183 -9.0029 3.0732 0.0000 0.0000 0.0000
# 2 -9.0029 49.4203 -27.6339 0.0000 0.0000 0.0000
# 3 3.0732 -27.6339 79.5503 0.0000 0.0000 0.0000
# 4 0.0000 0.0000 0.0000 -3.2581 0.0000 0.0000
# 5 0.0000 0.0000 0.0000 0.0000 -0.0398 0.0000
# 6 0.0000 0.0000 0.0000 0.0000 0.0000 15.3442
#
#
#
# Elastic Compliance Matrix: (Units=1/GPa)
#
#
# Indices 1 2 3 4 5 6 
#
# 1 0.020113 0.004008 0.000615 0.000000 0.000000 0.000000
# 2 0.004008 0.025911 0.008846 0.000000 0.000000 0.000000
# 3 0.000615 0.008846 0.015620 0.000000 0.000000 0.000000
# 4 0.000000 0.000000 0.000000 -0.306927 0.000000 0.000000
# 5 0.000000 0.000000 0.000000 0.000000-25.107986 0.000000
# 6 0.000000 0.000000 0.000000 0.000000 0.000000 0.065171
#
#
# Mechanical properties :
#
#
# Convention : Reuss Voigt Hill
#
# Bulk Modulus (GPa) = 11.28883 12.58465 11.93674
# Shear Modulus (GPa) = -0.19774 16.67275 8.23751
#
# Velocity S-wave (km/s) = -0.29263 2.68708 1.88875
# Velocity P-wave (km/s) = 2.18509 3.88293 3.15054
#
# Compressibility (1/GPa) = 0.08858311
#
# Stress axis : x y z
#
# Youngs Moduli (GPa) = 49.71831 38.59346 64.02130
#
# Poissons Ratio (x) = -0.15469 -0.03939
# Poissons Ratio (y) = -0.19928 -0.56634
# Poissons Ratio (z) = -0.03059 -0.34140
#
# Static dielectric constant tensor:
#      x y z
#    x 1.859490 0.000000 0.000000 
#    y 0.000000 1.861350 0.000000 
#    z 0.000000 0.000000 1.910050 
# 
# From -- ./inp_files/68159.got.cif
#   From: 2010.05.17/outbox.cif.g08.bks.cpg/sg65_35_cif.got.tgz:68159.got - 2010.06.03 17:01:31.
