data_PCOD9487787
_publ_section_title
;
Structure prediction by ZEFSAII (Michael W. Deem and Ramdas Pophale) SiO2 
 PCOD9487787
Probable space group: C M M M
;
_chemical_formula_sum "Si O2"
_cell_formula_units_Z 88
_cell_length_a 8.742608
_cell_length_b 29.293903
_cell_length_c 24.453814
_cell_angle_alpha 90.000000
_cell_angle_beta 90.000000
_cell_angle_gamma 90.000000
_cell_volume 6262.746742
_symmetry_space_group_name_H-M "C M M M"
_symmetry_group_IT_number 65
_symmetry_cell_setting 'orthorhombic'
loop_
_space_group_symop_operation_xyz
x,y,z
-x,-y,z
x,-y,-z
-x,y,-z
-x,-y,-z
x,y,-z
-x,y,z
x,-y,z
1/2+x,1/2+y,z
1/2-x,1/2-y,z
1/2+x,1/2-y,-z
1/2-x,1/2+y,-z
1/2-x,1/2-y,-z
1/2+x,1/2+y,-z
1/2-x,1/2+y,z
1/2+x,1/2-y,z
loop_
_atom_site_type_symbol
_atom_site_label
_atom_site_fract_x
_atom_site_fract_y
_atom_site_fract_z
Si Si1 0.821839 0.444519 0.822486
Si Si2 0.186050 0.553835 0.058969
Si Si3 0.686171 0.947651 0.500000
Si Si4 0.316957 0.700805 0.564018
Si Si5 0.182144 0.053392 0.707371
Si Si6 0.683420 0.891013 0.607054
O O1 0.818011 0.500000 0.825327
O O2 0.763217 0.427725 0.881890
O O3 0.729988 0.431717 0.768447
O O4 0.000000 0.431536 0.815974
O O5 0.225932 0.500000 0.057926
O O6 0.000000 0.555849 0.060179
O O7 0.236121 0.573424 0.000000
O O8 0.500000 0.948281 0.500000
O O9 0.734332 0.920986 0.554470
O O10 0.738993 0.000000 0.500000
O O11 0.273773 0.693089 0.500000
O O12 0.500000 0.701731 0.567397
O O13 0.250000 0.750000 0.579830
O O14 0.250757 0.659329 0.598930
O O15 0.260424 0.084033 0.661491
O O16 0.000000 0.055659 0.701631
O O17 0.229170 0.000000 0.700720
O O18 0.500000 0.888791 0.606602
#
# Coordination Sequence:
#
# PCOD9487787 Si02
#       6
#    16  16   8  16  16  16
#     4   8  13  22  36  52  70  97 134 171 206 244
#     4   7   9  14  27  48  70  90 119 164 210 244
#     4   9  18  30  44  63  84 105 132 169 208 245
#     4  10  20  34  52  71  91 109 130 160 201 249
#     4  10  20  31  41  56  81 112 144 177 212 249
#     4  11  20  32  49  66  85 107 137 172 211 253
#
# _framework density 14.051342999999999
#
# number of rings (size 3 to 8) (size 9 to 14) (size 15 to 20)
#    0.000    2.818    0.909    3.818    0.000    2.545 
#    0.000    0.000    0.000    2.727    0.000    3.818 
#    0.000    0.000    0.000    0.000    0.000    0.909 
#
# Total GULP energy -244949.035283 kJ/mol
# GULP energy per Si atom -5567.023529 kJ/mol
# Density = 1.401936 g / cm^3
# Si number density = 14.051343 Si / 1000 Ang^3
#
#
#
# Elastic Constant Matrix: (Units=GPa)
#
#
# Indices 1 2 3 4 5 6 
#
# 1 30.2517 24.1852 30.0082 0.0000 0.0000 0.0000
# 2 24.1852 70.7985 49.7008 0.0000 0.0000 0.0000
# 3 30.0082 49.7008 127.7661 0.0000 0.0000 0.0000
# 4 0.0000 0.0000 0.0000 1.4700 0.0000 0.0000
# 5 0.0000 0.0000 0.0000 0.0000 7.7106 0.0000
# 6 0.0000 0.0000 0.0000 0.0000 0.0000 15.3740
#
#
#
# Elastic Compliance Matrix: (Units=1/GPa)
#
#
# Indices 1 2 3 4 5 6 
#
# 1 0.049599 -0.012058 -0.006958 0.000000 0.000000 0.000000
# 2 -0.012058 0.022362 -0.005867 0.000000 0.000000 0.000000
# 3 -0.006958 -0.005867 0.011743 0.000000 0.000000 0.000000
# 4 0.000000 0.000000 0.000000 0.680264 0.000000 0.000000
# 5 0.000000 0.000000 0.000000 0.000000 0.129691 0.000000
# 6 0.000000 0.000000 0.000000 0.000000 0.000000 0.065045
#
#
# Mechanical properties :
#
#
# Convention : Reuss Voigt Hill
#
# Bulk Modulus (GPa) = 29.46632 48.51164 38.98898
# Shear Modulus (GPa) = 4.90300 13.23907 9.07103
#
# Velocity S-wave (km/s) = 1.87001 3.07285 2.54355
# Velocity P-wave (km/s) = 5.06740 6.86945 6.03605
#
# Compressibility (1/GPa) = 0.03393705
#
# Stress axis : x y z
#
# Youngs Moduli (GPa) = 20.16183 44.71810 85.15497
#
# Poissons Ratio (x) = 0.53923 0.59255
# Poissons Ratio (y) = 0.24312 0.49958
# Poissons Ratio (z) = 0.14030 0.26235
#
# Static dielectric constant tensor:
#      x y z
#    x 1.466860 0.000000 0.000000 
#    y 0.000000 1.429280 0.000000 
#    z 0.000000 0.000000 1.496760 
# 
# From -- ./inp_files/60667.got.cif
#   From: 2010.05.17/outbox.cif.g08.bks.cpg/sg65_31_cif.got.tgz:60667.got - 2010.06.03 17:01:31.
