data_PCOD9487933
_publ_section_title
;
Structure prediction by ZEFSAII (Michael W. Deem and Ramdas Pophale) SiO2 
 PCOD9487933
Probable space group: C M M M
;
_chemical_formula_sum "Si O2"
_cell_formula_units_Z 88
_cell_length_a 11.494208
_cell_length_b 28.055107
_cell_length_c 18.319416
_cell_angle_alpha 90.000000
_cell_angle_beta 90.000000
_cell_angle_gamma 90.000000
_cell_volume 5907.484708
_symmetry_space_group_name_H-M "C M M M"
_symmetry_group_IT_number 65
_symmetry_cell_setting 'orthorhombic'
loop_
_space_group_symop_operation_xyz
x,y,z
-x,-y,z
x,-y,-z
-x,y,-z
-x,-y,-z
x,y,-z
-x,y,z
x,-y,z
1/2+x,1/2+y,z
1/2-x,1/2-y,z
1/2+x,1/2-y,-z
1/2-x,1/2+y,-z
1/2-x,1/2-y,-z
1/2+x,1/2+y,-z
1/2-x,1/2+y,z
1/2+x,1/2-y,z
loop_
_atom_site_type_symbol
_atom_site_label
_atom_site_fract_x
_atom_site_fract_y
_atom_site_fract_z
Si Si1 0.779731 0.114180 0.582449
Si Si2 0.247127 0.942317 0.850335
Si Si3 0.638180 0.054821 0.303421
Si Si4 0.000000 0.056493 0.378009
Si Si5 0.134718 0.779491 0.411782
Si Si6 0.365082 0.941757 0.000000
Si Si7 0.000000 0.942029 0.793388
O O1 0.732259 0.117843 0.500000
O O2 0.689389 0.092079 0.639242
O O3 0.832768 0.165476 0.603183
O O4 0.887016 0.077942 0.584907
O O5 0.322544 0.932027 0.778387
O O6 0.301807 0.925361 0.926080
O O7 0.116731 0.925572 0.833288
O O8 0.243327 0.000000 0.855460
O O9 0.500000 0.053899 0.307673
O O10 0.681493 0.000000 0.317273
O O11 0.000000 0.070924 0.292083
O O12 0.000000 0.000000 0.381447
O O13 0.130714 0.773749 0.500000
O O14 0.250000 0.750000 0.386391
O O15 0.000000 0.768928 0.386620
O O16 0.500000 0.927778 0.000000
O O17 0.362842 0.000000 0.000000
O O18 0.000000 0.000000 0.794752
#
# Coordination Sequence:
#
# PCOD9487933 Si02
#       7
#    16  16  16   8  16   8   8
#     4  11  21  32  47  67  88 116 158 197 234 279
#     4   9  16  27  41  58  80 109 148 188 227 269
#     4  10  20  32  44  60  89 126 158 191 232 278
#     4  11  19  30  46  66  92 121 157 196 233 272
#     4   9  18  33  51  69  89 113 146 193 245 293
#     4   9  16  25  39  57  77 106 146 187 222 263
#     4   9  16  26  42  60  81 113 149 185 228 269
#
# _framework density 14.896357
#
# number of rings (size 3 to 8) (size 9 to 14) (size 15 to 20)
#    0.000    2.273    2.727    1.364    0.000    5.455 
#    0.000    4.545    0.000    0.000    0.000    0.000 
#    0.000    0.000    0.000    0.818    0.000    6.636 
#
# Total GULP energy -244984.073995 kJ/mol
# GULP energy per Si atom -5567.819864 kJ/mol
# Density = 1.486245 g / cm^3
# Si number density = 14.896357 Si / 1000 Ang^3
#
#
#
# Elastic Constant Matrix: (Units=GPa)
#
#
# Indices 1 2 3 4 5 6 
#
# 1 100.3547 31.9352 43.8472 0.0000 0.0000 0.0000
# 2 31.9352 45.9329 19.9099 0.0000 0.0000 0.0000
# 3 43.8472 19.9099 84.3361 0.0000 0.0000 0.0000
# 4 0.0000 0.0000 0.0000 -0.9768 0.0000 0.0000
# 5 0.0000 0.0000 0.0000 0.0000 4.5046 0.0000
# 6 0.0000 0.0000 0.0000 0.0000 0.0000 13.1094
#
#
#
# Elastic Compliance Matrix: (Units=1/GPa)
#
#
# Indices 1 2 3 4 5 6 
#
# 1 0.015092 -0.007900 -0.005981 0.000000 0.000000 0.000000
# 2 -0.007900 0.028388 -0.002594 0.000000 0.000000 0.000000
# 3 -0.005981 -0.002594 0.015580 0.000000 0.000000 0.000000
# 4 0.000000 0.000000 0.000000 -1.023766 0.000000 0.000000
# 5 0.000000 0.000000 0.000000 0.000000 0.221994 0.000000
# 6 0.000000 0.000000 0.000000 0.000000 0.000000 0.076281
#
#
# Mechanical properties :
#
#
# Convention : Reuss Voigt Hill
#
# Bulk Modulus (GPa) = 38.30292 46.88983 42.59637
# Shear Modulus (GPa) = -8.00287 12.32288 2.16000
#
# Velocity S-wave (km/s) = -2.32035 2.87930 1.20547
# Velocity P-wave (km/s) = 4.31162 6.52683 5.53126
#
# Compressibility (1/GPa) = 0.02610767
#
# Stress axis : x y z
#
# Youngs Moduli (GPa) = 66.25974 35.22598 64.18633
#
# Poissons Ratio (x) = 0.27829 0.38393
# Poissons Ratio (y) = 0.52347 0.16653
# Poissons Ratio (z) = 0.39633 0.09139
#
# Static dielectric constant tensor:
#      x y z
#    x 1.516620 0.000000 0.000000 
#    y 0.000000 1.474890 0.000000 
#    z 0.000000 0.000000 1.498610 
# 
# From -- ./inp_files/52101.got.cif
#   From: 2010.05.17/outbox.cif.g08.bks.cpg/sg65_27_cif.got.tgz:52101.got - 2010.06.03 17:01:31.
