data_PCOD9487940
_publ_section_title
;
Structure prediction by ZEFSAII (Michael W. Deem and Ramdas Pophale) SiO2 
 PCOD9487940
Probable space group: C M M M
;
_chemical_formula_sum "Si O2"
_cell_formula_units_Z 80
_cell_length_a 8.687038
_cell_length_b 26.672276
_cell_length_c 20.265235
_cell_angle_alpha 90.000000
_cell_angle_beta 90.000000
_cell_angle_gamma 90.000000
_cell_volume 4695.517268
_symmetry_space_group_name_H-M "C M M M"
_symmetry_group_IT_number 65
_symmetry_cell_setting 'orthorhombic'
loop_
_space_group_symop_operation_xyz
x,y,z
-x,-y,z
x,-y,-z
-x,y,-z
-x,-y,-z
x,y,-z
-x,y,z
x,-y,z
1/2+x,1/2+y,z
1/2-x,1/2-y,z
1/2+x,1/2-y,-z
1/2-x,1/2+y,-z
1/2-x,1/2-y,-z
1/2+x,1/2+y,-z
1/2-x,1/2+y,z
1/2+x,1/2-y,z
loop_
_atom_site_type_symbol
_atom_site_label
_atom_site_fract_x
_atom_site_fract_y
_atom_site_fract_z
Si Si1 0.313508 0.194606 0.500000
Si Si2 0.315394 0.304191 0.781406
Si Si3 0.682319 0.159233 0.642911
Si Si4 0.321376 0.055070 0.703535
Si Si5 0.684081 0.000000 0.076380
Si Si6 0.818995 0.910682 0.836887
O O1 0.500000 0.192544 0.500000
O O2 0.250000 0.250000 0.500000
O O3 0.261349 0.172174 0.430010
O O4 0.500000 0.302835 0.783265
O O5 0.250000 0.250000 0.801866
O O6 0.262850 0.314873 0.705745
O O7 0.264319 0.352720 0.825421
O O8 0.500000 0.171660 0.647554
O O9 0.700479 0.099989 0.653402
O O10 0.500000 0.058149 0.727224
O O11 0.213286 0.064380 0.765807
O O12 0.297451 0.000000 0.675513
O O13 0.742175 0.050965 0.111810
O O14 0.500000 0.000000 0.080200
O O15 0.732462 0.000000 0.000000
O O16 0.000000 0.908875 0.850969
#
# Coordination Sequence:
#
# PCOD9487940 Si02
#       6
#     8  16  16  16   8  16
#     4  10  20  32  45  61  87 123 164 210 258 307
#     4  10  20  33  51  77 104 132 169 213 258 303
#     4   9  18  31  46  67  95 128 166 210 257 305
#     4   9  16  28  48  71  96 127 163 202 249 302
#     4  11  23  37  55  81 111 140 169 200 239 291
#     4  10  20  33  52  78 106 135 169 208 250 293
#
# _framework density 17.037526
#
# number of rings (size 3 to 8) (size 9 to 14) (size 15 to 20)
#    0.000    2.300    1.000    2.100    0.000    5.600 
#    0.000    0.500    0.000    3.600    0.000    0.000 
#    0.000    7.200    0.000    0.000    0.000    0.000 
#
# Total GULP energy -222801.566125 kJ/mol
# GULP energy per Si atom -5570.039153 kJ/mol
# Density = 1.699875 g / cm^3
# Si number density = 17.037526 Si / 1000 Ang^3
#
#
#
# Elastic Constant Matrix: (Units=GPa)
#
#
# Indices 1 2 3 4 5 6 
#
# 1 27.5455 34.4002 25.7452 0.0000 0.0000 0.0000
# 2 34.4002 149.2289 59.0215 0.0000 0.0000 0.0000
# 3 25.7452 59.0215 99.9414 0.0000 0.0000 0.0000
# 4 0.0000 0.0000 0.0000 20.2176 0.0000 0.0000
# 5 0.0000 0.0000 0.0000 0.0000 8.1312 0.0000
# 6 0.0000 0.0000 0.0000 0.0000 0.0000 25.8275
#
#
#
# Elastic Compliance Matrix: (Units=1/GPa)
#
#
# Indices 1 2 3 4 5 6 
#
# 1 0.056524 -0.009487 -0.008958 0.000000 0.000000 0.000000
# 2 -0.009487 0.010336 -0.003660 0.000000 0.000000 0.000000
# 3 -0.008958 -0.003660 0.014475 0.000000 0.000000 0.000000
# 4 0.000000 0.000000 0.000000 0.049462 0.000000 0.000000
# 5 0.000000 0.000000 0.000000 0.000000 0.122983 0.000000
# 6 0.000000 0.000000 0.000000 0.000000 0.000000 0.038718
#
#
# Mechanical properties :
#
#
# Convention : Reuss Voigt Hill
#
# Bulk Modulus (GPa) = 26.93639 57.22773 42.08206
# Shear Modulus (GPa) = 14.32326 21.33852 17.83089
#
# Velocity S-wave (km/s) = 2.90261 3.54283 3.23858
# Velocity P-wave (km/s) = 5.20364 7.09913 6.22397
#
# Compressibility (1/GPa) = 0.03712450
#
# Stress axis : x y z
#
# Youngs Moduli (GPa) = 17.69165 96.75333 69.08501
#
# Poissons Ratio (x) = 0.91788 0.61887
# Poissons Ratio (y) = 0.16784 0.25285
# Poissons Ratio (z) = 0.15848 0.35411
#
# Static dielectric constant tensor:
#      x y z
#    x 1.595450 0.000000 0.000000 
#    y 0.000000 1.602020 0.000000 
#    z 0.000000 0.000000 1.553130 
# 
# From -- ./inp_files/49910.got.cif
#   From: 2010.05.17/outbox.cif.g08.bks.cpg/sg65_25_cif.got.tgz:49910.got - 2010.06.03 17:01:31.
