data_PCOD9487364
_publ_section_title
;
Structure prediction by ZEFSAII (Michael W. Deem and Ramdas Pophale) SiO2 
 PCOD9487364
Probable space group: C M M M
;
_chemical_formula_sum "Si O2"
_cell_formula_units_Z 72
_cell_length_a 7.970452
_cell_length_b 16.815718
_cell_length_c 25.533613
_cell_angle_alpha 90.000000
_cell_angle_beta 90.000000
_cell_angle_gamma 90.000000
_cell_volume 3422.241378
_symmetry_space_group_name_H-M "C M M M"
_symmetry_group_IT_number 65
_symmetry_cell_setting 'orthorhombic'
loop_
_space_group_symop_operation_xyz
x,y,z
-x,-y,z
x,-y,-z
-x,y,-z
-x,-y,-z
x,y,-z
-x,y,z
x,-y,z
1/2+x,1/2+y,z
1/2-x,1/2-y,z
1/2+x,1/2-y,-z
1/2-x,1/2+y,-z
1/2-x,1/2-y,-z
1/2+x,1/2+y,-z
1/2-x,1/2+y,z
1/2+x,1/2-y,z
loop_
_atom_site_type_symbol
_atom_site_label
_atom_site_fract_x
_atom_site_fract_y
_atom_site_fract_z
Si Si1 0.204909 0.500000 0.060806
Si Si2 0.204825 0.589671 0.774919
Si Si3 0.298462 0.408486 0.556749
Si Si4 0.698999 0.160102 0.332384
Si Si5 0.297971 0.161907 0.880862
O O1 0.260198 0.583107 0.087665
O O2 0.000000 0.500000 0.064043
O O3 0.252239 0.500000 0.000000
O O4 0.251677 0.500000 0.789561
O O5 0.266363 0.609383 0.716573
O O6 0.260498 0.648886 0.820700
O O7 0.000000 0.592395 0.773857
O O8 0.238850 0.376414 0.500000
O O9 0.500000 0.409761 0.554810
O O10 0.239799 0.500000 0.560777
O O11 0.252523 0.364174 0.609538
O O12 0.500000 0.152453 0.331488
O O13 0.750000 0.250000 0.322395
O O14 0.500000 0.159016 0.881330
O O15 0.250000 0.250000 0.899966
#
# Coordination Sequence:
#
# PCOD9487364 Si02
#       5
#     8  16  16  16  16
#     4   9  18  34  57  83 111 151 198 231 266 330
#     4   9  17  32  54  78 104 139 181 223 271 327
#     4   9  19  37  58  77 100 132 170 214 267 325
#     4  11  22  34  51  76 106 137 175 220 267 322
#     4  10  19  34  57  82 112 148 188 233 280 330
#
# _framework density 21.038844000000001
#
# number of rings (size 3 to 8) (size 9 to 14) (size 15 to 20)
#    0.000    2.333    1.111    2.667    0.000    2.667 
#    0.000    2.778    0.000    3.333    0.000    0.000 
#    0.000    0.000    0.000    0.000    0.000    0.000 
#
# Total GULP energy -200803.008739 kJ/mol
# GULP energy per Si atom -5577.861354 kJ/mol
# Density = 2.099096 g / cm^3
# Si number density = 21.038844 Si / 1000 Ang^3
#
#
#
# Elastic Constant Matrix: (Units=GPa)
#
#
# Indices 1 2 3 4 5 6 
#
# 1 14.9962 1.7495 11.1153 0.0000 0.0000 0.0000
# 2 1.7495 129.6636 63.0471 0.0000 0.0000 0.0000
# 3 11.1153 63.0471 131.7953 0.0000 0.0000 0.0000
# 4 0.0000 0.0000 0.0000 20.2529 0.0000 0.0000
# 5 0.0000 0.0000 0.0000 0.0000 0.4164 0.0000
# 6 0.0000 0.0000 0.0000 0.0000 0.0000 -974.7519
#
#
#
# Elastic Compliance Matrix: (Units=1/GPa)
#
#
# Indices 1 2 3 4 5 6 
#
# 1 0.071783 0.002574 -0.007285 0.000000 0.000000 0.000000
# 2 0.002574 0.010142 -0.005069 0.000000 0.000000 0.000000
# 3 -0.007285 -0.005069 0.010627 0.000000 0.000000 0.000000
# 4 0.000000 0.000000 0.000000 0.049376 0.000000 0.000000
# 5 0.000000 0.000000 0.000000 0.000000 2.401375 0.000000
# 6 0.000000 0.000000 0.000000 0.000000 0.000000 -0.001026
#
#
# Mechanical properties :
#
#
# Convention : Reuss Voigt Hill
#
# Bulk Modulus (GPa) = 13.70021 47.58654 30.64337
# Shear Modulus (GPa) = 1.93336 -177.44698 -87.75681
#
# Velocity S-wave (km/s) = 0.95966 -9.19378 -6.46547
# Velocity P-wave (km/s) = 2.78459 9.48859 6.41402
#
# Compressibility (1/GPa) = 0.07299160
#
# Stress axis : x y z
#
# Youngs Moduli (GPa) = 13.93084 98.59821 94.10246
#
# Poissons Ratio (x) = -0.25377 0.68556
# Poissons Ratio (y) = -0.03586 0.47699
# Poissons Ratio (z) = 0.10149 0.49977
#
# Static dielectric constant tensor:
#      x y z
#    x 1.768900 0.000000 0.000000 
#    y 0.000000 1.742690 0.000000 
#    z 0.000000 0.000000 1.778690 
# 
# From -- ./inp_files/72494.got.cif
#   From: 2010.05.17/outbox.cif.g08.bks.cpg/sg65_37_cif.got.tgz:72494.got - 2010.06.03 17:01:31.
