data_PCOD9487097
_publ_section_title
;
Structure prediction by ZEFSAII (Michael W. Deem and Ramdas Pophale) SiO2 
 PCOD9487097
Probable space group: C M M M
;
_chemical_formula_sum "Si O2"
_cell_formula_units_Z 88
_cell_length_a 25.005747
_cell_length_b 8.432583
_cell_length_c 22.590518
_cell_angle_alpha 90.000000
_cell_angle_beta 90.000000
_cell_angle_gamma 90.000000
_cell_volume 4763.505234
_symmetry_space_group_name_H-M "C M M M"
_symmetry_group_IT_number 65
_symmetry_cell_setting 'orthorhombic'
loop_
_space_group_symop_operation_xyz
x,y,z
-x,-y,z
x,-y,-z
-x,y,-z
-x,-y,-z
x,y,-z
-x,y,z
x,-y,z
1/2+x,1/2+y,z
1/2-x,1/2-y,z
1/2+x,1/2-y,-z
1/2-x,1/2+y,-z
1/2-x,1/2-y,-z
1/2+x,1/2+y,-z
1/2-x,1/2+y,z
1/2+x,1/2-y,z
loop_
_atom_site_type_symbol
_atom_site_label
_atom_site_fract_x
_atom_site_fract_y
_atom_site_fract_z
Si Si1 0.810798 0.192101 0.000000
Si Si2 0.113289 0.192441 0.108131
Si Si3 0.310452 0.310081 0.433427
Si Si4 0.403425 0.810550 0.645999
Si Si5 0.000000 0.810093 0.432842
Si Si6 0.437232 0.808282 0.222190
Si Si7 0.500000 0.679282 0.069623
O O1 0.750000 0.250000 0.000000
O O2 0.842190 0.243896 0.939806
O O3 0.811341 0.000000 0.000000
O O4 0.107424 0.245250 0.176074
O O5 0.055774 0.255917 0.085822
O O6 0.114075 0.000000 0.105905
O O7 0.329145 0.260225 0.500000
O O8 0.311244 0.500000 0.432096
O O9 0.250000 0.250000 0.427000
O O10 0.347708 0.246567 0.381323
O O11 0.448437 0.749298 0.601641
O O12 0.419557 0.757215 0.712052
O O13 0.403969 0.000000 0.647024
O O14 0.000000 0.751877 0.500000
O O15 0.000000 0.000000 0.433387
O O16 0.500000 0.757790 0.210909
O O17 0.437478 0.000000 0.219409
O O18 0.500000 0.500000 0.095647
O O19 0.500000 0.662516 0.000000
#
# Coordination Sequence:
#
# PCOD9487097 Si02
#       7
#     8  16  16  16   8  16   8
#     4  10  22  39  59  84 116 149 188 232 278 335
#     4  10  19  33  57  85 109 143 187 229 275 331
#     4  10  21  38  60  86 113 143 186 240 292 342
#     4  11  22  38  57  80 115 157 195 236 289 345
#     4  11  23  36  53  82 118 154 195 244 295 351
#     4  10  21  37  54  80 118 153 185 227 281 341
#     4   9  14  25  49  80 108 129 162 217 272 313
#
# _framework density 18.473790000000001
#
# number of rings (size 3 to 8) (size 9 to 14) (size 15 to 20)
#    0.000    1.818    2.727    1.909    0.000    6.182 
#    0.000    0.909    0.000    3.818    0.000    0.000 
#    0.000    0.000    0.000    0.000    0.000    0.000 
#
# Total GULP energy -245229.576362 kJ/mol
# GULP energy per Si atom -5573.399463 kJ/mol
# Density = 1.843174 g / cm^3
# Si number density = 18.473790 Si / 1000 Ang^3
#
#
#
# Elastic Constant Matrix: (Units=GPa)
#
#
# Indices 1 2 3 4 5 6 
#
# 1 114.4435 17.8398 77.6476 0.0000 0.0000 0.0000
# 2 17.8398 22.7387 26.7528 0.0000 0.0000 0.0000
# 3 77.6476 26.7528 164.3223 0.0000 0.0000 0.0000
# 4 0.0000 0.0000 0.0000 -1.8662 0.0000 0.0000
# 5 0.0000 0.0000 0.0000 0.0000 30.3838 0.0000
# 6 0.0000 0.0000 0.0000 0.0000 0.0000 31.1346
#
#
#
# Elastic Compliance Matrix: (Units=1/GPa)
#
#
# Indices 1 2 3 4 5 6 
#
# 1 0.013109 -0.003707 -0.005591 0.000000 0.000000 0.000000
# 2 -0.003707 0.055446 -0.007275 0.000000 0.000000 0.000000
# 3 -0.005591 -0.007275 0.009912 0.000000 0.000000 0.000000
# 4 0.000000 0.000000 0.000000 -0.535843 0.000000 0.000000
# 5 0.000000 0.000000 0.000000 0.000000 0.032912 0.000000
# 6 0.000000 0.000000 0.000000 0.000000 0.000000 0.032119
#
#
# Mechanical properties :
#
#
# Convention : Reuss Voigt Hill
#
# Bulk Modulus (GPa) = 22.06505 60.66499 41.36502
# Shear Modulus (GPa) = -14.53101 23.88141 4.67520
#
# Velocity S-wave (km/s) = -2.80764 3.59934 1.59255
# Velocity P-wave (km/s) = 1.20809 7.08402 5.08148
#
# Compressibility (1/GPa) = 0.04532054
#
# Stress axis : x y z
#
# Youngs Moduli (GPa) = 76.28260 18.03562 100.88785
#
# Poissons Ratio (x) = 0.06686 0.56406
# Poissons Ratio (y) = 0.28277 0.73399
# Poissons Ratio (z) = 0.42650 0.13121
#
# Static dielectric constant tensor:
#      x y z
#    x 1.388370 0.000000 0.000000 
#    y 0.000000 1.652860 0.000000 
#    z 0.000000 0.000000 1.685880 
# 
# From -- ./inp_files/65252.got.cif
#   From: 2010.05.17/outbox.cif.g08.bks.cpg/sg65_33_cif.got.tgz:65252.got - 2010.06.03 17:01:31.
