data_PCOD9487975
_publ_section_title
;
Structure prediction by ZEFSAII (Michael W. Deem and Ramdas Pophale) SiO2 
 PCOD9487975
Probable space group: C M M M
;
_chemical_formula_sum "Si O2"
_cell_formula_units_Z 112
_cell_length_a 14.037739
_cell_length_b 28.686720
_cell_length_c 15.275845
_cell_angle_alpha 90.000000
_cell_angle_beta 90.000000
_cell_angle_gamma 90.000000
_cell_volume 6151.532190
_symmetry_space_group_name_H-M "C M M M"
_symmetry_group_IT_number 65
_symmetry_cell_setting 'orthorhombic'
loop_
_space_group_symop_operation_xyz
x,y,z
-x,-y,z
x,-y,-z
-x,y,-z
-x,-y,-z
x,y,-z
-x,y,z
x,-y,z
1/2+x,1/2+y,z
1/2-x,1/2-y,z
1/2+x,1/2-y,-z
1/2-x,1/2+y,-z
1/2-x,1/2-y,-z
1/2+x,1/2+y,-z
1/2-x,1/2+y,z
1/2+x,1/2-y,z
loop_
_atom_site_type_symbol
_atom_site_label
_atom_site_fract_x
_atom_site_fract_y
_atom_site_fract_z
Si Si1 0.888697 0.861778 0.898584
Si Si2 0.116107 0.774444 0.780243
Si Si3 0.614344 0.948539 0.729811
Si Si4 0.614144 0.189040 0.099568
Si Si5 0.794446 0.586535 0.900443
Si Si6 0.884325 0.739670 0.598447
Si Si7 0.884192 0.632207 0.400591
O O1 0.858331 0.820426 0.833849
O O2 0.818148 0.905098 0.888240
O O3 0.000000 0.872405 0.884566
O O4 0.878372 0.845706 0.000000
O O5 0.146407 0.727776 0.831544
O O6 0.146786 0.771359 0.679424
O O7 0.000000 0.773543 0.781571
O O8 0.500000 0.944212 0.738573
O O9 0.660438 0.943929 0.824933
O O10 0.648709 0.906052 0.668850
O O11 0.634137 0.000000 0.692374
O O12 0.500000 0.183329 0.109588
O O13 0.660438 0.138448 0.108889
O O14 0.632131 0.205613 0.000000
O O15 0.813114 0.570792 0.000000
O O16 0.854982 0.753136 0.500000
O O17 0.856675 0.685828 0.616190
O O18 0.000000 0.740085 0.598120
O O19 0.855594 0.620417 0.500000
O O20 0.000000 0.631543 0.398374
#
# Coordination Sequence:
#
# PCOD9487975 Si02
#       7
#    16  16  16  16  16  16  16
#     4   9  18  32  48  65  85 113 154 201 242 273
#     4   9  15  24  40  61  87 117 149 190 231 259
#     4  10  20  32  48  72  98 121 147 180 221 275
#     4   9  16  25  39  61  88 116 146 178 213 260
#     4  10  20  32  46  64  89 122 154 185 226 277
#     4   8  13  21  36  60  88 119 154 186 217 258
#     4   8  14  26  44  66  94 127 159 188 218 255
#
# _framework density 18.206845999999999
#
# number of rings (size 3 to 8) (size 9 to 14) (size 15 to 20)
#    0.000    3.000    0.000    2.571    0.000    6.000 
#    0.000    4.286    0.000    1.286    0.000    5.000 
#    0.000    0.000    0.000    1.286    0.000    0.143 
#
# Total GULP energy -312351.093110 kJ/mol
# GULP energy per Si atom -5577.698091 kJ/mol
# Density = 1.816541 g / cm^3
# Si number density = 18.206846 Si / 1000 Ang^3
#
#
#
# Elastic Constant Matrix: (Units=GPa)
#
#
# Indices 1 2 3 4 5 6 
#
# 1 41.1507 3.8067 12.5079 0.0000 0.0000 0.0000
# 2 3.8067 17.0126 28.7370 0.0000 0.0000 0.0000
# 3 12.5079 28.7370 91.4258 0.0000 0.0000 0.0000
# 4 0.0000 0.0000 0.0000 8.7295 0.0000 0.0000
# 5 0.0000 0.0000 0.0000 0.0000 3.9279 0.0000
# 6 0.0000 0.0000 0.0000 0.0000 0.0000 13.5977
#
#
#
# Elastic Compliance Matrix: (Units=1/GPa)
#
#
# Indices 1 2 3 4 5 6 
#
# 1 0.025357 0.000397 -0.003594 0.000000 0.000000 0.000000
# 2 0.000397 0.125320 -0.039445 0.000000 0.000000 0.000000
# 3 -0.003594 -0.039445 0.023828 0.000000 0.000000 0.000000
# 4 0.000000 0.000000 0.000000 0.114554 0.000000 0.000000
# 5 0.000000 0.000000 0.000000 0.000000 0.254590 0.000000
# 6 0.000000 0.000000 0.000000 0.000000 0.000000 0.073542
#
#
# Mechanical properties :
#
#
# Convention : Reuss Voigt Hill
#
# Bulk Modulus (GPa) = 11.20819 26.63248 18.92034
# Shear Modulus (GPa) = 6.82860 12.22019 9.52440
#
# Velocity S-wave (km/s) = 1.93874 2.59354 2.28967
# Velocity P-wave (km/s) = 3.34380 4.86087 4.17187
#
# Compressibility (1/GPa) = 0.08922049
#
# Stress axis : x y z
#
# Youngs Moduli (GPa) = 39.43751 7.97957 41.96767
#
# Poissons Ratio (x) = -0.00317 0.15082
# Poissons Ratio (y) = -0.01564 1.65541
# Poissons Ratio (z) = 0.14173 0.31475
#
# Static dielectric constant tensor:
#      x y z
#    x 1.661540 0.000000 0.000000 
#    y 0.000000 1.600640 0.000000 
#    z 0.000000 0.000000 1.646610 
# 
# From -- ./inp_files/41048.got.cif
#   From: 2010.05.17/outbox.cif.g08.bks.cpg/sg65_21_cif.got.tgz:41048.got - 2010.06.03 17:01:31.
