data_PCOD9487636
_publ_section_title
;
Structure prediction by ZEFSAII (Michael W. Deem and Ramdas Pophale) SiO2 
 PCOD9487636
Probable space group: C M M M
;
_chemical_formula_sum "Si O2"
_cell_formula_units_Z 88
_cell_length_a 27.837261
_cell_length_b 19.874194
_cell_length_c 8.290393
_cell_angle_alpha 90.000000
_cell_angle_beta 90.000000
_cell_angle_gamma 90.000000
_cell_volume 4586.602935
_symmetry_space_group_name_H-M "C M M M"
_symmetry_group_IT_number 65
_symmetry_cell_setting 'orthorhombic'
loop_
_space_group_symop_operation_xyz
x,y,z
-x,-y,z
x,-y,-z
-x,y,-z
-x,-y,-z
x,y,-z
-x,y,z
x,-y,z
1/2+x,1/2+y,z
1/2-x,1/2-y,z
1/2+x,1/2-y,-z
1/2-x,1/2+y,-z
1/2-x,1/2-y,-z
1/2+x,1/2+y,-z
1/2-x,1/2+y,z
1/2+x,1/2-y,z
loop_
_atom_site_type_symbol
_atom_site_label
_atom_site_fract_x
_atom_site_fract_y
_atom_site_fract_z
Si Si1 0.596608 0.350056 0.308073
Si Si2 0.116666 0.299580 0.190842
Si Si3 0.444108 0.074094 0.803409
Si Si4 0.694398 0.422476 0.697195
Si Si5 0.000000 0.922905 0.807691
Si Si6 0.723225 0.179115 0.692291
O O1 0.595893 0.357284 0.500000
O O2 0.602034 0.271535 0.266755
O O3 0.644742 0.388023 0.247653
O O4 0.547998 0.383561 0.243888
O O5 0.085807 0.362379 0.254961
O O6 0.172154 0.316338 0.223034
O O7 0.108344 0.293527 0.000000
O O8 0.500000 0.080527 0.759368
O O9 0.426832 0.000000 0.750437
O O10 0.441959 0.074330 0.000000
O O11 0.694154 0.420454 0.500000
O O12 0.696786 0.500000 0.746973
O O13 0.740583 0.379218 0.748588
O O14 0.000000 0.000000 0.743775
O O15 0.000000 0.926255 0.000000
O O16 0.714997 0.170863 0.500000
O O17 0.750000 0.250000 0.714862
#
# Coordination Sequence:
#
# PCOD9487636 Si02
#       6
#    16  16  16  16   8  16
#     4  11  22  39  61  86 116 155 200 240 284 344
#     4  11  22  34  56  88 118 148 189 240 294 347
#     4   8  16  33  55  78 108 148 189 227 275 340
#     4   9  18  34  58  83 107 144 195 241 281 336
#     4  11  25  43  61  87 124 157 190 241 297 344
#     4  10  19  36  56  77 109 147 187 232 286 342
#
# _framework density 19.186313999999999
#
# number of rings (size 3 to 8) (size 9 to 14) (size 15 to 20)
#    0.000    2.091    1.818    2.455    1.273    2.545 
#    0.000    0.000    0.000    3.818    0.000    5.091 
#    0.000    0.000    0.000    0.000    0.000    0.000 
#
# Total GULP energy -245640.264378 kJ/mol
# GULP energy per Si atom -5582.733281 kJ/mol
# Density = 1.914264 g / cm^3
# Si number density = 19.186314 Si / 1000 Ang^3
#
#
#
# Elastic Constant Matrix: (Units=GPa)
#
#
# Indices 1 2 3 4 5 6 
#
# 1 109.2555 76.9319 15.0848 0.0000 0.0000 0.0000
# 2 76.9319 163.6717 19.3345 0.0000 0.0000 0.0000
# 3 15.0848 19.3345 16.5058 0.0000 0.0000 0.0000
# 4 0.0000 0.0000 0.0000 17.4796 0.0000 0.0000
# 5 0.0000 0.0000 0.0000 0.0000 18.1069 0.0000
# 6 0.0000 0.0000 0.0000 0.0000 0.0000 34.7500
#
#
#
# Elastic Compliance Matrix: (Units=1/GPa)
#
#
# Indices 1 2 3 4 5 6 
#
# 1 0.014171 -0.005955 -0.005975 0.000000 0.000000 0.000000
# 2 -0.005955 0.009593 -0.005795 0.000000 0.000000 0.000000
# 3 -0.005975 -0.005795 0.072834 0.000000 0.000000 0.000000
# 4 0.000000 0.000000 0.000000 0.057209 0.000000 0.000000
# 5 0.000000 0.000000 0.000000 0.000000 0.055228 0.000000
# 6 0.000000 0.000000 0.000000 0.000000 0.000000 0.028777
#
#
# Mechanical properties :
#
#
# Convention : Reuss Voigt Hill
#
# Bulk Modulus (GPa) = 16.35394 56.90393 36.62893
# Shear Modulus (GPa) = 17.02726 25.93942 21.48334
#
# Velocity S-wave (km/s) = 2.98227 3.68091 3.34986
# Velocity P-wave (km/s) = 4.51673 6.91292 5.83906
#
# Compressibility (1/GPa) = 0.06114736
#
# Stress axis : x y z
#
# Youngs Moduli (GPa) = 70.56594 104.23727 13.72981
#
# Poissons Ratio (x) = 0.62074 0.08204
# Poissons Ratio (y) = 0.42023 0.07957
# Poissons Ratio (z) = 0.42166 0.60407
#
# Static dielectric constant tensor:
#      x y z
#    x 1.698670 0.000000 0.000000 
#    y 0.000000 1.659990 0.000000 
#    z 0.000000 0.000000 1.682380 
# 
# From -- ./inp_files/13957.got.cif
#   From: 2010.05.17/outbox.cif.g08.bks.cpg/sg65_7_cif.got.tgz:13957.got - 2010.06.03 17:01:31.
