data_PCOD9487134
_publ_section_title
;
Structure prediction by ZEFSAII (Michael W. Deem and Ramdas Pophale) SiO2 
 PCOD9487134
Probable space group: C M M M
;
_chemical_formula_sum "Si O2"
_cell_formula_units_Z 88
_cell_length_a 8.999184
_cell_length_b 32.667167
_cell_length_c 17.225169
_cell_angle_alpha 90.000000
_cell_angle_beta 90.000000
_cell_angle_gamma 90.000000
_cell_volume 5063.818090
_symmetry_space_group_name_H-M "C M M M"
_symmetry_group_IT_number 65
_symmetry_cell_setting 'orthorhombic'
loop_
_space_group_symop_operation_xyz
x,y,z
-x,-y,z
x,-y,-z
-x,y,-z
-x,-y,-z
x,y,-z
-x,y,z
x,-y,z
1/2+x,1/2+y,z
1/2-x,1/2-y,z
1/2+x,1/2-y,-z
1/2-x,1/2+y,-z
1/2-x,1/2-y,-z
1/2+x,1/2+y,-z
1/2-x,1/2+y,z
1/2+x,1/2-y,z
loop_
_atom_site_type_symbol
_atom_site_label
_atom_site_fract_x
_atom_site_fract_y
_atom_site_fract_z
Si Si1 0.175369 0.206405 0.500000
Si Si2 0.820123 0.865265 0.792685
Si Si3 0.321229 0.706979 0.090717
Si Si4 0.178718 0.044464 0.750878
Si Si5 0.172628 0.439832 0.413491
Si Si6 0.328377 0.845457 0.630400
O O1 0.250000 0.250000 0.500000
O O2 0.233152 0.182987 0.424524
O O3 0.000000 0.209064 0.500000
O O4 0.778846 0.833703 0.861101
O O5 0.775653 0.913656 0.795322
O O6 0.744162 0.848855 0.714683
O O7 0.000000 0.864300 0.785839
O O8 0.500000 0.710916 0.095602
O O9 0.250000 0.750000 0.118384
O O10 0.280545 0.702015 0.000000
O O11 0.237976 0.046295 0.662264
O O12 0.000000 0.045096 0.748565
O O13 0.225643 0.000000 0.783731
O O14 0.226404 0.451534 0.500000
O O15 0.174049 0.390683 0.406855
O O16 0.000000 0.452594 0.406724
O O17 0.500000 0.832104 0.634482
#
# Coordination Sequence:
#
# PCOD9487134 Si02
#       6
#     8  16  16  16  16  16
#     4  12  24  36  50  68  93 128 169 212 258 301
#     4   9  18  33  52  74 100 134 171 203 250 307
#     4   9  18  33  54  79 106 132 160 200 249 304
#     4   9  18  31  46  67  95 128 168 211 250 293
#     4   9  17  30  47  65  89 122 160 204 254 301
#     4  10  19  34  51  69  95 127 167 210 252 297
#
# _framework density 17.378191999999999
#
# number of rings (size 3 to 8) (size 9 to 14) (size 15 to 20)
#    0.000    2.545    0.909    1.364    0.000    3.273 
#    0.000    3.636    0.000    0.545    0.000    3.818 
#    0.000    0.000    0.000   13.636    0.000   14.182 
#
# Total GULP energy -245137.724852 kJ/mol
# GULP energy per Si atom -5571.311928 kJ/mol
# Density = 1.733864 g / cm^3
# Si number density = 17.378192 Si / 1000 Ang^3
#
#
#
# Elastic Constant Matrix: (Units=GPa)
#
#
# Indices 1 2 3 4 5 6 
#
# 1 41.6038 46.3189 20.6834 0.0000 0.0000 0.0000
# 2 46.3189 163.7130 66.5789 0.0000 0.0000 0.0000
# 3 20.6834 66.5789 74.0016 0.0000 0.0000 0.0000
# 4 0.0000 0.0000 0.0000 19.0420 0.0000 0.0000
# 5 0.0000 0.0000 0.0000 0.0000 18.2317 0.0000
# 6 0.0000 0.0000 0.0000 0.0000 0.0000 15.4156
#
#
#
# Elastic Compliance Matrix: (Units=1/GPa)
#
#
# Indices 1 2 3 4 5 6 
#
# 1 0.035179 -0.009390 -0.001384 0.000000 0.000000 0.000000
# 2 -0.009390 0.012139 -0.008297 0.000000 0.000000 0.000000
# 3 -0.001384 -0.008297 0.021365 0.000000 0.000000 0.000000
# 4 0.000000 0.000000 0.000000 0.052515 0.000000 0.000000
# 5 0.000000 0.000000 0.000000 0.000000 0.054849 0.000000
# 6 0.000000 0.000000 0.000000 0.000000 0.000000 0.064870
#
#
# Mechanical properties :
#
#
# Convention : Reuss Voigt Hill
#
# Bulk Modulus (GPa) = 32.74374 60.72009 46.73191
# Shear Modulus (GPa) = 17.28667 20.25367 18.77017
#
# Velocity S-wave (km/s) = 3.15736 3.41759 3.29005
# Velocity P-wave (km/s) = 5.67227 7.11263 6.43289
#
# Compressibility (1/GPa) = 0.03054019
#
# Stress axis : x y z
#
# Youngs Moduli (GPa) = 28.42620 82.37746 46.80559
#
# Poissons Ratio (x) = 0.77354 0.06479
# Poissons Ratio (y) = 0.26693 0.38835
# Poissons Ratio (z) = 0.03935 0.68349
#
# Static dielectric constant tensor:
#      x y z
#    x 1.580860 0.000000 0.000000 
#    y 0.000000 1.619680 0.000000 
#    z 0.000000 0.000000 1.609880 
# 
# From -- ./inp_files/50319.got.cif
#   From: 2010.05.17/outbox.cif.g08.bks.cpg/sg65_26_cif.got.tgz:50319.got - 2010.06.03 17:01:31.
