data_PCOD9487786
_publ_section_title
;
Structure prediction by ZEFSAII (Michael W. Deem and Ramdas Pophale) SiO2 
 PCOD9487786
Probable space group: C M M M
;
_chemical_formula_sum "Si O2"
_cell_formula_units_Z 80
_cell_length_a 25.747376
_cell_length_b 23.999348
_cell_length_c 7.513078
_cell_angle_alpha 90.000000
_cell_angle_beta 90.000000
_cell_angle_gamma 90.000000
_cell_volume 4642.482936
_symmetry_space_group_name_H-M "C M M M"
_symmetry_group_IT_number 65
_symmetry_cell_setting 'orthorhombic'
loop_
_space_group_symop_operation_xyz
x,y,z
-x,-y,z
x,-y,-z
-x,y,-z
-x,-y,-z
x,y,-z
-x,y,z
x,-y,z
1/2+x,1/2+y,z
1/2-x,1/2-y,z
1/2+x,1/2-y,-z
1/2-x,1/2+y,-z
1/2-x,1/2-y,-z
1/2+x,1/2+y,-z
1/2-x,1/2+y,z
1/2+x,1/2-y,z
loop_
_atom_site_type_symbol
_atom_site_label
_atom_site_fract_x
_atom_site_fract_y
_atom_site_fract_z
Si Si1 0.056837 0.241100 0.790618
Si Si2 0.942409 0.627938 0.284427
Si Si3 0.658384 0.937547 0.712243
Si Si4 0.771092 0.335239 0.213240
Si Si5 0.169145 0.775649 0.781949
O O1 0.062743 0.308037 0.774969
O O2 0.110408 0.216022 0.717938
O O3 0.000000 0.226763 0.713825
O O4 0.055024 0.227482 0.000000
O O5 0.941109 0.628353 0.500000
O O6 0.894496 0.591156 0.218424
O O7 0.000000 0.608111 0.230335
O O8 0.651885 0.941659 0.500000
O O9 0.705328 0.894722 0.741410
O O10 0.666355 0.000000 0.781805
O O11 0.809112 0.285138 0.274350
O O12 0.713014 0.319780 0.274231
O O13 0.770256 0.331341 0.000000
O O14 0.167749 0.775361 0.000000
#
# Coordination Sequence:
#
# PCOD9487786 Si02
#       5
#    16  16  16  16  16
#     4   9  15  24  41  62  82 104 130 161 197 234
#     4   9  17  28  40  54  75 105 139 170 199 231
#     4  10  20  31  41  56  80 106 136 175 208 232
#     4   9  16  28  44  59  78 105 135 163 197 241
#     4   8  14  25  42  62  82 103 128 162 200 239
#
# _framework density 17.232157999999998
#
# number of rings (size 3 to 8) (size 9 to 14) (size 15 to 20)
#    0.000    3.000    2.000    1.200    0.000    0.800 
#    0.000    5.000    0.000    0.000    0.000    4.200 
#    0.000    0.800    0.000   10.000    0.000    1.600 
#
# Total GULP energy -222857.298276 kJ/mol
# GULP energy per Si atom -5571.432457 kJ/mol
# Density = 1.719294 g / cm^3
# Si number density = 17.232158 Si / 1000 Ang^3
#
#
#
# Elastic Constant Matrix: (Units=GPa)
#
#
# Indices 1 2 3 4 5 6 
#
# 1 182.1270 51.5722 4.3705 0.0000 0.0000 0.0000
# 2 51.5722 48.6481 -5.0417 0.0000 0.0000 0.0000
# 3 4.3705 -5.0417 44.3868 0.0000 0.0000 0.0000
# 4 0.0000 0.0000 0.0000 13.9358 0.0000 0.0000
# 5 0.0000 0.0000 0.0000 0.0000 -0.5870 0.0000
# 6 0.0000 0.0000 0.0000 0.0000 0.0000 14.7090
#
#
#
# Elastic Compliance Matrix: (Units=1/GPa)
#
#
# Indices 1 2 3 4 5 6 
#
# 1 0.007981 -0.008644 -0.001768 0.000000 0.000000 0.000000
# 2 -0.008644 0.030162 0.004277 0.000000 0.000000 0.000000
# 3 -0.001768 0.004277 0.023189 0.000000 0.000000 0.000000
# 4 0.000000 0.000000 0.000000 0.071758 0.000000 0.000000
# 5 0.000000 0.000000 0.000000 0.000000 -1.703707 0.000000
# 6 0.000000 0.000000 0.000000 0.000000 0.000000 0.067986
#
#
# Mechanical properties :
#
#
# Convention : Reuss Voigt Hill
#
# Bulk Modulus (GPa) = 20.38168 41.88490 31.13329
# Shear Modulus (GPa) = -3.39211 20.56229 8.58509
#
# Velocity S-wave (km/s) = -1.40455 3.45809 2.23447
# Velocity P-wave (km/s) = 3.03695 6.34851 4.97627
#
# Compressibility (1/GPa) = 0.04906366
#
# Stress axis : x y z
#
# Youngs Moduli (GPa) = 125.30315 33.15421 43.12380
#
# Poissons Ratio (x) = 0.28657 0.07623
# Poissons Ratio (y) = 1.08306 -0.18444
# Poissons Ratio (z) = 0.22148 -0.14180
#
# Static dielectric constant tensor:
#      x y z
#    x 1.640370 0.000000 0.000000 
#    y 0.000000 1.553190 0.000000 
#    z 0.000000 0.000000 1.659650 
# 
# From -- ./inp_files/9654.got.cif
#   From: 2010.05.17/outbox.cif.g08.bks.cpg/sg65_5_cif.got.tgz:9654.got - 2010.06.03 17:01:31.
