data_PCOD9487203
_publ_section_title
;
Structure prediction by ZEFSAII (Michael W. Deem and Ramdas Pophale) SiO2 
 PCOD9487203
Probable space group: C M M M
;
_chemical_formula_sum "Si O2"
_cell_formula_units_Z 104
_cell_length_a 8.814110
_cell_length_b 29.358330
_cell_length_c 23.855880
_cell_angle_alpha 90.000000
_cell_angle_beta 90.000000
_cell_angle_gamma 90.000000
_cell_volume 6173.127622
_symmetry_space_group_name_H-M "C M M M"
_symmetry_group_IT_number 65
_symmetry_cell_setting 'orthorhombic'
loop_
_space_group_symop_operation_xyz
x,y,z
-x,-y,z
x,-y,-z
-x,y,-z
-x,-y,-z
x,y,-z
-x,y,z
x,-y,z
1/2+x,1/2+y,z
1/2-x,1/2-y,z
1/2+x,1/2-y,-z
1/2-x,1/2+y,-z
1/2-x,1/2-y,-z
1/2+x,1/2+y,-z
1/2-x,1/2+y,z
1/2+x,1/2-y,z
loop_
_atom_site_type_symbol
_atom_site_label
_atom_site_fract_x
_atom_site_fract_y
_atom_site_fract_z
Si Si1 0.819222 0.608603 0.778235
Si Si2 0.318331 0.297958 0.393560
Si Si3 0.681443 0.553832 0.118249
Si Si4 0.184940 0.895080 0.438212
Si Si5 0.318345 0.298579 0.738902
Si Si6 0.174554 0.555232 0.000000
Si Si7 0.817610 0.946253 0.674227
O O1 0.756389 0.583074 0.832866
O O2 0.751603 0.659154 0.771813
O O3 0.762975 0.580451 0.724072
O O4 0.000000 0.610303 0.779548
O O5 0.500000 0.295138 0.398069
O O6 0.250000 0.250000 0.412551
O O7 0.267454 0.343020 0.426116
O O8 0.281352 0.304393 0.327531
O O9 0.500000 0.557976 0.120546
O O10 0.718880 0.500000 0.125898
O O11 0.741696 0.568556 0.057201
O O12 0.235390 0.909863 0.500000
O O13 0.230697 0.926285 0.386010
O O14 0.000000 0.895379 0.438244
O O15 0.500000 0.298414 0.744055
O O16 0.250000 0.250000 0.756200
O O17 0.174852 0.500000 0.000000
O O18 0.000000 0.570493 0.000000
O O19 0.000000 0.938995 0.679743
O O20 0.789004 0.000000 0.677648
#
# Coordination Sequence:
#
# PCOD9487203 Si02
#       7
#    16  16  16  16  16   8  16
#     4  12  23  34  52  78 107 139 176 218 266 314
#     4   9  17  30  49  71  97 125 156 199 253 312
#     4  10  20  34  53  78 110 149 188 224 264 310
#     4   9  17  31  50  72  97 126 164 211 262 317
#     4  10  19  34  54  77 105 134 168 210 261 317
#     4   9  17  31  51  77 112 149 184 223 263 307
#     4  10  20  35  53  72  97 131 171 218 270 319
#
# _framework density 16.847214999999998
#
# number of rings (size 3 to 8) (size 9 to 14) (size 15 to 20)
#    0.000    2.077    1.538    3.000    0.000    5.231 
#    0.000    1.538    0.000    1.385    0.000    1.615 
#    0.000    0.000    0.000    0.000    0.000    0.000 
#
# Total GULP energy -290244.759182 kJ/mol
# GULP energy per Si atom -5581.629984 kJ/mol
# Density = 1.680887 g / cm^3
# Si number density = 16.847215 Si / 1000 Ang^3
#
#
#
# Elastic Constant Matrix: (Units=GPa)
#
#
# Indices 1 2 3 4 5 6 
#
# 1 56.9571 52.5041 50.1440 0.0000 0.0000 0.0000
# 2 52.5041 97.5668 72.0781 0.0000 0.0000 0.0000
# 3 50.1440 72.0781 136.9301 0.0000 0.0000 0.0000
# 4 0.0000 0.0000 0.0000 18.7290 0.0000 0.0000
# 5 0.0000 0.0000 0.0000 0.0000 7.6624 0.0000
# 6 0.0000 0.0000 0.0000 0.0000 0.0000 25.7590
#
#
#
# Elastic Compliance Matrix: (Units=1/GPa)
#
#
# Indices 1 2 3 4 5 6 
#
# 1 0.036817 -0.016121 -0.004996 0.000000 0.000000 0.000000
# 2 -0.016121 0.023830 -0.006640 0.000000 0.000000 0.000000
# 3 -0.004996 -0.006640 0.012628 0.000000 0.000000 0.000000
# 4 0.000000 0.000000 0.000000 0.053393 0.000000 0.000000
# 5 0.000000 0.000000 0.000000 0.000000 0.130508 0.000000
# 6 0.000000 0.000000 0.000000 0.000000 0.000000 0.038821
#
#
# Mechanical properties :
#
#
# Convention : Reuss Voigt Hill
#
# Bulk Modulus (GPa) = 56.30880 71.21182 63.76031
# Shear Modulus (GPa) = 13.98864 18.21192 16.10028
#
# Velocity S-wave (km/s) = 2.88466 3.29143 3.09474
# Velocity P-wave (km/s) = 6.67763 7.53695 7.12027
#
# Compressibility (1/GPa) = 0.01775921
#
# Stress axis : x y z
#
# Youngs Moduli (GPa) = 27.16173 41.96325 79.18881
#
# Poissons Ratio (x) = 0.67650 0.39565
# Poissons Ratio (y) = 0.43788 0.52584
# Poissons Ratio (z) = 0.13571 0.27865
#
# Static dielectric constant tensor:
#      x y z
#    x 1.567510 0.000000 0.000000 
#    y 0.000000 1.554870 0.000000 
#    z 0.000000 0.000000 1.560540 
# 
# From -- ./inp_files/60901.got.cif
#   From: 2010.05.17/outbox.cif.g08.bks.cpg/sg65_31_cif.got.tgz:60901.got - 2010.06.03 17:01:31.
