data_PCOD9487522
_publ_section_title
;
Structure prediction by ZEFSAII (Michael W. Deem and Ramdas Pophale) SiO2 
 PCOD9487522
Probable space group: C M M M
;
_chemical_formula_sum "Si O2"
_cell_formula_units_Z 90
_cell_length_a 24.874977
_cell_length_b 20.320651
_cell_length_c 9.351744
_cell_angle_alpha 90.000000
_cell_angle_beta 90.000000
_cell_angle_gamma 90.000000
_cell_volume 4727.079590
_symmetry_space_group_name_H-M "C M M M"
_symmetry_group_IT_number 65
_symmetry_cell_setting 'orthorhombic'
loop_
_space_group_symop_operation_xyz
x,y,z
-x,-y,z
x,-y,-z
-x,y,-z
-x,-y,-z
x,y,-z
-x,y,z
x,-y,z
1/2+x,1/2+y,z
1/2-x,1/2-y,z
1/2+x,1/2-y,-z
1/2-x,1/2+y,-z
1/2-x,1/2-y,-z
1/2+x,1/2+y,-z
1/2-x,1/2+y,z
1/2+x,1/2-y,z
loop_
_atom_site_type_symbol
_atom_site_label
_atom_site_fract_x
_atom_site_fract_y
_atom_site_fract_z
Si Si1 0.500000 0.500000 0.500000
Si Si2 0.607838 0.104953 0.332258
Si Si3 0.386549 0.500000 0.659428
Si Si4 0.500000 0.897535 0.165670
Si Si5 0.784146 0.576241 0.835477
Si Si6 0.396061 0.736907 0.665276
Si Si7 0.818087 0.875082 0.672611
Si Si8 0.000000 0.237204 0.838294
O O1 0.450606 0.500000 0.624501
O O2 0.607006 0.086721 0.500000
O O3 0.553604 0.083080 0.251301
O O4 0.660075 0.080411 0.249727
O O5 0.610314 0.184762 0.324463
O O6 0.362114 0.500000 0.500000
O O7 0.360740 0.432515 0.719115
O O8 0.500000 0.817327 0.163916
O O9 0.500000 0.919083 0.000000
O O10 0.767211 0.500000 0.837161
O O11 0.737715 0.614569 0.752544
O O12 0.791187 0.598110 0.000000
O O13 0.408068 0.720906 0.500000
O O14 0.344341 0.695219 0.707167
O O15 0.446789 0.715644 0.757563
O O16 0.809982 0.876819 0.500000
O O17 0.000000 0.214830 0.000000
#
# Coordination Sequence:
#
# PCOD9487522 Si02
#       8
#     2  16   8   8  16  16  16   8
#     4   8  16  28  48  88 118 132 188 246 276 304
#     4  10  20  36  58  85 115 148 183 230 279 336
#     4   8  16  30  51  79 111 140 182 232 275 318
#     4   9  17  33  57  83 116 149 181 224 277 332
#     4  11  24  40  58  79 107 146 190 234 284 339
#     4   9  19  33  53  83 114 143 183 231 283 329
#     4  10  19  35  57  81 108 146 188 231 278 328
#     4   9  17  30  50  77 111 152 188 221 268 336
#
# _framework density 19.039238999999998
#
# number of rings (size 3 to 8) (size 9 to 14) (size 15 to 20)
#    0.267    2.133    0.889    1.600    0.000    6.044 
#    0.000    4.000    0.000    2.667    0.000    1.244 
#    0.000    0.000    0.000    0.000    0.000    0.000 
#
# Total GULP energy -250580.549580 kJ/mol
# GULP energy per Si atom -5568.456657 kJ/mol
# Density = 1.899590 g / cm^3
# Si number density = 19.039239 Si / 1000 Ang^3
#
#
#
# Elastic Constant Matrix: (Units=GPa)
#
#
# Indices 1 2 3 4 5 6 
#
# 1 147.9888 29.4205 74.5382 0.0000 0.0000 0.0000
# 2 29.4205 38.4157 33.7001 0.0000 0.0000 0.0000
# 3 74.5382 33.7001 107.5745 0.0000 0.0000 0.0000
# 4 0.0000 0.0000 0.0000 14.8142 0.0000 0.0000
# 5 0.0000 0.0000 0.0000 0.0000 211.8806 0.0000
# 6 0.0000 0.0000 0.0000 0.0000 0.0000 -22.3223
#
#
#
# Elastic Compliance Matrix: (Units=1/GPa)
#
#
# Indices 1 2 3 4 5 6 
#
# 1 0.010524 -0.002293 -0.006574 0.000000 0.000000 0.000000
# 2 -0.002293 0.036395 -0.009813 0.000000 0.000000 0.000000
# 3 -0.006574 -0.009813 0.016925 0.000000 0.000000 0.000000
# 4 0.000000 0.000000 0.000000 0.067503 0.000000 0.000000
# 5 0.000000 0.000000 0.000000 0.000000 0.004720 0.000000
# 6 0.000000 0.000000 0.000000 0.000000 0.000000 -0.044798
#
#
# Mechanical properties :
#
#
# Convention : Reuss Voigt Hill
#
# Bulk Modulus (GPa) = 37.75695 63.25517 50.50606
# Shear Modulus (GPa) = 36.37503 51.29583 43.83543
#
# Velocity S-wave (km/s) = 4.37570 5.19622 4.80351
# Velocity P-wave (km/s) = 6.73819 8.32446 7.57297
#
# Compressibility (1/GPa) = 0.02648519
#
# Stress axis : x y z
#
# Youngs Moduli (GPa) = 95.01893 27.47593 59.08408
#
# Poissons Ratio (x) = 0.06300 0.38841
# Poissons Ratio (y) = 0.21788 0.57979
# Poissons Ratio (z) = 0.62464 0.26962
#
# Static dielectric constant tensor:
#      x y z
#    x 1.627880 0.000000 0.000000 
#    y 0.000000 1.706050 0.000000 
#    z 0.000000 0.000000 1.646690 
# 
# From -- ./inp_files/14133.got.cif
#   From: 2010.05.17/outbox.cif.g08.bks.cpg/sg65_8_cif.got.tgz:14133.got - 2010.06.03 17:01:31.
