data_PCOD9487453
_publ_section_title
;
Structure prediction by ZEFSAII (Michael W. Deem and Ramdas Pophale) SiO2 
 PCOD9487453
Probable space group: C M M M
;
_chemical_formula_sum "Si O2"
_cell_formula_units_Z 88
_cell_length_a 13.760346
_cell_length_b 18.029937
_cell_length_c 20.020841
_cell_angle_alpha 90.000000
_cell_angle_beta 90.000000
_cell_angle_gamma 90.000000
_cell_volume 4967.134044
_symmetry_space_group_name_H-M "C M M M"
_symmetry_group_IT_number 65
_symmetry_cell_setting 'orthorhombic'
loop_
_space_group_symop_operation_xyz
x,y,z
-x,-y,z
x,-y,-z
-x,y,-z
-x,-y,-z
x,y,-z
-x,y,z
x,-y,z
1/2+x,1/2+y,z
1/2-x,1/2-y,z
1/2+x,1/2-y,-z
1/2-x,1/2+y,-z
1/2-x,1/2-y,-z
1/2+x,1/2+y,-z
1/2-x,1/2+y,z
1/2+x,1/2-y,z
loop_
_atom_site_type_symbol
_atom_site_label
_atom_site_fract_x
_atom_site_fract_y
_atom_site_fract_z
Si Si1 0.634886 0.914482 0.320008
Si Si2 0.500000 0.157332 0.576818
Si Si3 0.161200 0.153146 0.173189
Si Si4 0.000000 0.911206 0.077656
Si Si5 0.500000 0.665213 0.579363
Si Si6 0.112417 0.672429 0.183683
Si Si7 0.863040 0.085064 0.681608
O O1 0.589225 0.879469 0.385273
O O2 0.608095 0.862762 0.257445
O O3 0.748909 0.913886 0.328748
O O4 0.605595 0.000000 0.308307
O O5 0.500000 0.138351 0.500000
O O6 0.500000 0.245942 0.583863
O O7 0.095510 0.119541 0.114769
O O8 0.132828 0.239734 0.180959
O O9 0.278525 0.142665 0.160359
O O10 0.127084 0.116415 0.243195
O O11 0.000000 0.000000 0.082308
O O12 0.000000 0.889464 0.000000
O O13 0.500000 0.645361 0.500000
O O14 0.411672 0.632243 0.622930
O O15 0.000000 0.659593 0.155715
O O16 0.896097 0.000000 0.679203
#
# Coordination Sequence:
#
# PCOD9487453 Si02
#       7
#    16   8  16   8   8  16  16
#     4  10  21  36  54  80 110 140 181 233 290 341
#     4  11  23  36  51  71 101 145 190 230 279 344
#     4  10  20  36  60  90 121 152 197 238 284 349
#     4  11  23  40  63  90 125 162 196 239 285 338
#     4  11  24  38  52  73 105 144 186 236 293 348
#     4  10  19  34  60  88 120 151 188 239 292 338
#     4  10  21  36  57  82 107 140 182 235 287 338
#
# _framework density 17.716453999999999
#
# number of rings (size 3 to 8) (size 9 to 14) (size 15 to 20)
#    0.000    1.727    1.818    2.727    0.000    5.091 
#    0.000    5.455    0.000    0.000    0.000    1.273 
#    0.000    0.000    0.000    0.000    0.000    0.000 
#
# Total GULP energy -244945.189001 kJ/mol
# GULP energy per Si atom -5566.936114 kJ/mol
# Density = 1.767613 g / cm^3
# Si number density = 17.716454 Si / 1000 Ang^3
#
#
#
# Elastic Constant Matrix: (Units=GPa)
#
#
# Indices 1 2 3 4 5 6 
#
# 1 167.0164 30.8281 64.3062 0.0000 0.0000 0.0000
# 2 30.8281 71.5215 60.4086 0.0000 0.0000 0.0000
# 3 64.3062 60.4086 131.3266 0.0000 0.0000 0.0000
# 4 0.0000 0.0000 0.0000 25.0702 0.0000 0.0000
# 5 0.0000 0.0000 0.0000 0.0000 2.2543 0.0000
# 6 0.0000 0.0000 0.0000 0.0000 0.0000 32.4932
#
#
#
# Elastic Compliance Matrix: (Units=1/GPa)
#
#
# Indices 1 2 3 4 5 6 
#
# 1 0.007380 -0.000211 -0.003517 0.000000 0.000000 0.000000
# 2 -0.000211 0.022871 -0.010417 0.000000 0.000000 0.000000
# 3 -0.003517 -0.010417 0.014129 0.000000 0.000000 0.000000
# 4 0.000000 0.000000 0.000000 0.039888 0.000000 0.000000
# 5 0.000000 0.000000 0.000000 0.000000 0.443605 0.000000
# 6 0.000000 0.000000 0.000000 0.000000 0.000000 0.030776
#
#
# Mechanical properties :
#
#
# Convention : Reuss Voigt Hill
#
# Bulk Modulus (GPa) = 62.14927 75.66114 68.90520
# Shear Modulus (GPa) = 8.44163 26.25163 17.34663
#
# Velocity S-wave (km/s) = 2.18522 3.85355 3.13249
# Velocity P-wave (km/s) = 6.44384 7.91196 7.21534
#
# Compressibility (1/GPa) = 0.01609029
#
# Stress axis : x y z
#
# Youngs Moduli (GPa) = 135.49225 43.72284 70.77803
#
# Poissons Ratio (x) = 0.00921 0.24893
# Poissons Ratio (y) = 0.02854 0.73732
# Poissons Ratio (z) = 0.47654 0.45548
#
# Static dielectric constant tensor:
#      x y z
#    x 1.490610 0.000000 0.000000 
#    y 0.000000 1.602130 0.000000 
#    z 0.000000 0.000000 1.554860 
# 
# From -- ./inp_files/53104.got.cif
#   From: 2010.05.17/outbox.cif.g08.bks.cpg/sg65_27_cif.got.tgz:53104.got - 2010.06.03 17:01:31.
