data_PCOD9487868
_publ_section_title
;
Structure prediction by ZEFSAII (Michael W. Deem and Ramdas Pophale) SiO2 
 PCOD9487868
Probable space group: C M M M
;
_chemical_formula_sum "Si O2"
_cell_formula_units_Z 116
_cell_length_a 25.236955
_cell_length_b 10.496682
_cell_length_c 25.265823
_cell_angle_alpha 90.000000
_cell_angle_beta 90.000000
_cell_angle_gamma 90.000000
_cell_volume 6693.024936
_symmetry_space_group_name_H-M "C M M M"
_symmetry_group_IT_number 65
_symmetry_cell_setting 'orthorhombic'
loop_
_space_group_symop_operation_xyz
x,y,z
-x,-y,z
x,-y,-z
-x,y,-z
-x,-y,-z
x,y,-z
-x,y,z
x,-y,z
1/2+x,1/2+y,z
1/2-x,1/2-y,z
1/2+x,1/2-y,-z
1/2-x,1/2+y,-z
1/2-x,1/2-y,-z
1/2+x,1/2+y,-z
1/2-x,1/2+y,z
1/2+x,1/2-y,z
loop_
_atom_site_type_symbol
_atom_site_label
_atom_site_fract_x
_atom_site_fract_y
_atom_site_fract_z
Si Si1 0.000000 0.000000 0.738506
Si Si2 0.790549 0.141846 0.589661
Si Si3 0.435690 0.146992 0.853714
Si Si4 0.935588 0.856335 0.061165
Si Si5 0.088034 0.856560 0.560716
Si Si6 0.438458 0.142217 0.643779
Si Si7 0.906178 0.784471 0.254399
Si Si8 0.709094 0.358731 0.717093
O O1 0.952961 0.888413 0.739633
O O2 0.750000 0.250000 0.572544
O O3 0.848232 0.151998 0.563870
O O4 0.798613 0.152889 0.653253
O O5 0.769495 0.000000 0.578748
O O6 0.500000 0.149110 0.852661
O O7 0.418213 0.243839 0.900102
O O8 0.416060 0.204013 0.798428
O O9 0.419531 0.000000 0.861568
O O10 0.000000 0.855799 0.061857
O O11 0.919645 0.000000 0.078184
O O12 0.919609 0.837763 0.000000
O O13 0.070844 0.844326 0.500000
O O14 0.066757 0.745814 0.597673
O O15 0.073412 0.000000 0.579778
O O16 0.500000 0.136563 0.658993
O O17 0.407869 0.192054 0.694773
O O18 0.421340 0.000000 0.627611
O O19 0.847942 0.845219 0.255838
O O20 0.730888 0.500000 0.726922
O O21 0.750000 0.250000 0.733558
#
# Coordination Sequence:
#
# PCOD9487868 Si02
#       8
#     4  16  16  16  16  16  16  16
#     4  12  24  32  62  92 110 152 186 242 276 330
#     4   9  18  34  54  77 103 128 163 209 261 317
#     4  10  20  31  46  72 110 147 184 231 283 336
#     4   8  15  27  44  66  97 141 191 236 276 327
#     4  10  22  39  58  78 101 131 170 216 261 319
#     4  11  24  39  56  77 106 138 170 216 274 332
#     4  12  22  36  57  85 113 144 188 230 281 330
#     4  10  21  36  56  80 109 143 182 223 273 335
#
# _framework density 17.331475000000001
#
# number of rings (size 3 to 8) (size 9 to 14) (size 15 to 20)
#    0.000    1.931    3.448    0.828    1.931    4.138 
#    0.000    2.759    0.000    0.000    0.000    0.000 
#    0.000    0.552    0.000    1.103    0.000    0.828 
#
# Total GULP energy -323023.692567 kJ/mol
# GULP energy per Si atom -5569.374010 kJ/mol
# Density = 1.729203 g / cm^3
# Si number density = 17.331475 Si / 1000 Ang^3
#
#
#
# Elastic Constant Matrix: (Units=GPa)
#
#
# Indices 1 2 3 4 5 6 
#
# 1 55.5466 31.0897 -1.5731 0.0000 0.0000 0.0000
# 2 31.0897 159.1074 60.1828 0.0000 0.0000 0.0000
# 3 -1.5731 60.1828 62.1132 0.0000 0.0000 0.0000
# 4 0.0000 0.0000 0.0000 7.6650 0.0000 0.0000
# 5 0.0000 0.0000 0.0000 0.0000 13.2674 0.0000
# 6 0.0000 0.0000 0.0000 0.0000 0.0000 23.8526
#
#
#
# Elastic Compliance Matrix: (Units=1/GPa)
#
#
# Indices 1 2 3 4 5 6 
#
# 1 0.022245 -0.007198 0.007537 0.000000 0.000000 0.000000
# 2 -0.007198 0.012250 -0.012052 0.000000 0.000000 0.000000
# 3 0.007537 -0.012052 0.027968 0.000000 0.000000 0.000000
# 4 0.000000 0.000000 0.000000 0.130463 0.000000 0.000000
# 5 0.000000 0.000000 0.000000 0.000000 0.075373 0.000000
# 6 0.000000 0.000000 0.000000 0.000000 0.000000 0.041924
#
#
# Mechanical properties :
#
#
# Convention : Reuss Voigt Hill
#
# Bulk Modulus (GPa) = 25.61558 50.68512 38.15035
# Shear Modulus (GPa) = 14.42338 21.42817 17.92578
#
# Velocity S-wave (km/s) = 2.88793 3.52002 3.21953
# Velocity P-wave (km/s) = 5.09235 6.76970 5.99003
#
# Compressibility (1/GPa) = 0.03903874
#
# Stress axis : x y z
#
# Youngs Moduli (GPa) = 44.95397 81.63208 35.75559
#
# Poissons Ratio (x) = 0.58757 -0.26950
# Poissons Ratio (y) = 0.32357 0.43091
# Poissons Ratio (z) = -0.33884 0.98380
#
# Static dielectric constant tensor:
#      x y z
#    x 1.570190 0.000000 0.000000 
#    y 0.000000 1.616360 0.000000 
#    z 0.000000 0.000000 1.589710 
# 
# From -- ./inp_files/75894.got.cif
#   From: 2010.05.17/outbox.cif.g08.bks.cpg/sg65_38_cif.got.tgz:75894.got - 2010.06.03 17:01:31.
