data_PCOD9487034
_publ_section_title
;
Structure prediction by ZEFSAII (Michael W. Deem and Ramdas Pophale) SiO2 
 PCOD9487034
Probable space group: C M M M
;
_chemical_formula_sum "Si O2"
_cell_formula_units_Z 88
_cell_length_a 29.819669
_cell_length_b 18.347823
_cell_length_c 8.715645
_cell_angle_alpha 90.000000
_cell_angle_beta 90.000000
_cell_angle_gamma 90.000000
_cell_volume 4768.556062
_symmetry_space_group_name_H-M "C M M M"
_symmetry_group_IT_number 65
_symmetry_cell_setting 'orthorhombic'
loop_
_space_group_symop_operation_xyz
x,y,z
-x,-y,z
x,-y,-z
-x,y,-z
-x,-y,-z
x,y,-z
-x,y,z
x,-y,z
1/2+x,1/2+y,z
1/2-x,1/2-y,z
1/2+x,1/2-y,-z
1/2-x,1/2+y,-z
1/2-x,1/2-y,-z
1/2+x,1/2+y,-z
1/2-x,1/2+y,z
1/2+x,1/2-y,z
loop_
_atom_site_type_symbol
_atom_site_label
_atom_site_fract_x
_atom_site_fract_y
_atom_site_fract_z
Si Si1 0.292657 0.160786 0.815958
Si Si2 0.700049 0.676057 0.683958
Si Si3 0.400042 0.359158 0.315044
Si Si4 0.948501 0.000000 0.183446
Si Si5 0.947852 0.291658 0.314635
Si Si6 0.884579 0.583183 0.814743
O O1 0.300774 0.241288 0.747310
O O2 0.244037 0.137987 0.752902
O O3 0.334510 0.110194 0.772133
O O4 0.290723 0.165634 0.000000
O O5 0.703879 0.678674 0.500000
O O6 0.652484 0.641348 0.725911
O O7 0.403171 0.362495 0.500000
O O8 0.424607 0.427960 0.244842
O O9 0.423301 0.283237 0.266102
O O10 0.000000 0.000000 0.235769
O O11 0.947464 0.000000 0.000000
O O12 0.946501 0.294003 0.500000
O O13 0.920452 0.360240 0.251237
O O14 0.000000 0.291887 0.267132
O O15 0.892147 0.500000 0.764611
O O16 0.887102 0.585302 0.000000
#
# Coordination Sequence:
#
# PCOD9487034 Si02
#       6
#    16  16  16   8  16  16
#     4  10  19  33  55  82 114 150 189 230 281 336
#     4  10  19  33  58  86 113 144 186 233 280 336
#     4  10  21  39  62  85 115 152 190 234 287 346
#     4  11  25  41  59  87 119 151 191 239 290 345
#     4  10  21  38  61  87 112 144 190 239 287 339
#     4  10  22  39  57  80 115 156 195 235 283 341
#
# _framework density 18.454222999999999
#
# number of rings (size 3 to 8) (size 9 to 14) (size 15 to 20)
#    0.000    1.909    1.818    3.000    0.000    5.455 
#    1.636    1.818    0.000    0.000    0.000    0.000 
#    0.000    0.000    0.000    0.000    0.000    0.000 
#
# Total GULP energy -245699.215097 kJ/mol
# GULP energy per Si atom -5584.073070 kJ/mol
# Density = 1.841222 g / cm^3
# Si number density = 18.454223 Si / 1000 Ang^3
#
#
#
# Elastic Constant Matrix: (Units=GPa)
#
#
# Indices 1 2 3 4 5 6 
#
# 1 180.9113 74.9534 36.2182 0.0000 0.0000 0.0000
# 2 74.9534 115.2757 16.8325 0.0000 0.0000 0.0000
# 3 36.2182 16.8325 19.3091 0.0000 0.0000 0.0000
# 4 0.0000 0.0000 0.0000 29.9627 0.0000 0.0000
# 5 0.0000 0.0000 0.0000 0.0000 32.8953 0.0000
# 6 0.0000 0.0000 0.0000 0.0000 0.0000 15.3597
#
#
#
# Elastic Compliance Matrix: (Units=1/GPa)
#
#
# Indices 1 2 3 4 5 6 
#
# 1 0.010608 -0.004574 -0.015910 0.000000 0.000000 0.000000
# 2 -0.004574 0.011913 -0.001805 0.000000 0.000000 0.000000
# 3 -0.015910 -0.001805 0.083204 0.000000 0.000000 0.000000
# 4 0.000000 0.000000 0.000000 0.033375 0.000000 0.000000
# 5 0.000000 0.000000 0.000000 0.000000 0.030399 0.000000
# 6 0.000000 0.000000 0.000000 0.000000 0.000000 0.065105
#
#
# Mechanical properties :
#
#
# Convention : Reuss Voigt Hill
#
# Bulk Modulus (GPa) = 16.35397 63.50051 39.92724
# Shear Modulus (GPa) = 16.69093 28.14301 22.41697
#
# Velocity S-wave (km/s) = 3.01067 3.90938 3.48908
# Velocity P-wave (km/s) = 4.57894 7.40690 6.15747
#
# Compressibility (1/GPa) = 0.06114722
#
# Stress axis : x y z
#
# Youngs Moduli (GPa) = 94.27042 83.94493 12.01863
#
# Poissons Ratio (x) = 0.38398 0.19121
# Poissons Ratio (y) = 0.43121 0.02169
# Poissons Ratio (z) = 1.49981 0.15151
#
# Static dielectric constant tensor:
#      x y z
#    x 1.645650 0.000000 0.000000 
#    y 0.000000 1.599430 0.000000 
#    z 0.000000 0.000000 1.625280 
# 
# From -- ./inp_files/18267.got.cif
#   From: 2010.05.17/outbox.cif.g08.bks.cpg/sg65_10_cif.got.tgz:18267.got - 2010.06.03 17:01:31.
