data_PCOD9487931
_publ_section_title
;
Structure prediction by ZEFSAII (Michael W. Deem and Ramdas Pophale) SiO2 
 PCOD9487931
Probable space group: C M M M
;
_chemical_formula_sum "Si O2"
_cell_formula_units_Z 88
_cell_length_a 9.043886
_cell_length_b 28.638093
_cell_length_c 22.373841
_cell_angle_alpha 90.000000
_cell_angle_beta 90.000000
_cell_angle_gamma 90.000000
_cell_volume 5794.816951
_symmetry_space_group_name_H-M "C M M M"
_symmetry_group_IT_number 65
_symmetry_cell_setting 'orthorhombic'
loop_
_space_group_symop_operation_xyz
x,y,z
-x,-y,z
x,-y,-z
-x,y,-z
-x,-y,-z
x,y,-z
-x,y,z
x,-y,z
1/2+x,1/2+y,z
1/2-x,1/2-y,z
1/2+x,1/2-y,-z
1/2-x,1/2+y,-z
1/2-x,1/2-y,-z
1/2+x,1/2+y,-z
1/2-x,1/2+y,z
1/2+x,1/2-y,z
loop_
_atom_site_type_symbol
_atom_site_label
_atom_site_fract_x
_atom_site_fract_y
_atom_site_fract_z
Si Si1 0.827728 0.616719 0.347200
Si Si2 0.671049 0.556991 0.000000
Si Si3 0.831079 0.556501 0.878832
Si Si4 0.822923 0.054636 0.246541
Si Si5 0.178660 0.300868 0.432264
Si Si6 0.162536 0.053951 0.571201
O O1 0.741116 0.592117 0.293161
O O2 0.776018 0.665120 0.377932
O O3 0.798068 0.580844 0.401077
O O4 0.000000 0.620607 0.331877
O O5 0.753058 0.572677 0.060279
O O6 0.673422 0.500000 0.000000
O O7 0.500000 0.571098 0.000000
O O8 0.835932 0.500000 0.882561
O O9 0.739651 0.566608 0.819045
O O10 0.000000 0.573177 0.874426
O O11 0.000000 0.055916 0.246796
O O12 0.779177 0.000000 0.259821
O O13 0.218566 0.318136 0.500000
O O14 0.250000 0.250000 0.425835
O O15 0.000000 0.297749 0.430735
O O16 0.165960 0.055867 0.500000
O O17 0.000000 0.072622 0.590819
O O18 0.167137 0.000000 0.589471
#
# Coordination Sequence:
#
# PCOD9487931 Si02
#       6
#    16   8  16  16  16  16
#     4  11  21  31  45  65  87 110 138 174 216 261
#     4   9  15  23  37  57  81 111 148 187 224 259
#     4   9  16  26  40  58  81 111 149 190 226 256
#     4  10  20  32  44  60  86 120 155 186 216 256
#     4   9  19  35  52  69  87 106 133 173 220 269
#     4   9  18  31  44  59  81 109 141 174 206 245
#
# _framework density 15.185985000000001
#
# number of rings (size 3 to 8) (size 9 to 14) (size 15 to 20)
#    0.000    2.455    0.000    3.545    0.000    9.455 
#    0.000    2.727    0.000    0.000    0.000    0.000 
#    0.000    0.000    0.000    0.818    0.000   11.182 
#
# Total GULP energy -245039.672148 kJ/mol
# GULP energy per Si atom -5569.083458 kJ/mol
# Density = 1.515142 g / cm^3
# Si number density = 15.185985 Si / 1000 Ang^3
#
#
#
# Elastic Constant Matrix: (Units=GPa)
#
#
# Indices 1 2 3 4 5 6 
#
# 1 56.5918 24.8119 45.1956 0.0000 0.0000 0.0000
# 2 24.8119 49.8034 45.9350 0.0000 0.0000 0.0000
# 3 45.1956 45.9350 115.9322 0.0000 0.0000 0.0000
# 4 0.0000 0.0000 0.0000 30.8499 0.0000 0.0000
# 5 0.0000 0.0000 0.0000 0.0000 29.8668 0.0000
# 6 0.0000 0.0000 0.0000 0.0000 0.0000 17.2170
#
#
#
# Elastic Compliance Matrix: (Units=1/GPa)
#
#
# Indices 1 2 3 4 5 6 
#
# 1 0.026692 -0.005832 -0.008095 0.000000 0.000000 0.000000
# 2 -0.005832 0.032917 -0.010769 0.000000 0.000000 0.000000
# 3 -0.008095 -0.010769 0.016049 0.000000 0.000000 0.000000
# 4 0.000000 0.000000 0.000000 0.032415 0.000000 0.000000
# 5 0.000000 0.000000 0.000000 0.000000 0.033482 0.000000
# 6 0.000000 0.000000 0.000000 0.000000 0.000000 0.058082
#
#
# Mechanical properties :
#
#
# Convention : Reuss Voigt Hill
#
# Bulk Modulus (GPa) = 38.07205 50.46803 44.27004
# Shear Modulus (GPa) = 19.39615 22.67908 21.03762
#
# Velocity S-wave (km/s) = 3.57773 3.86867 3.72604
# Velocity P-wave (km/s) = 6.49552 7.29801 6.90843
#
# Compressibility (1/GPa) = 0.02626599
#
# Stress axis : x y z
#
# Youngs Moduli (GPa) = 37.46416 30.37970 62.31106
#
# Poissons Ratio (x) = 0.17716 0.50442
# Poissons Ratio (y) = 0.21847 0.67103
# Poissons Ratio (z) = 0.30328 0.32716
#
# Static dielectric constant tensor:
#      x y z
#    x 1.530430 0.000000 0.000000 
#    y 0.000000 1.489190 0.000000 
#    z 0.000000 0.000000 1.519690 
# 
# From -- ./inp_files/68406.got.cif
#   From: 2010.05.17/outbox.cif.g08.bks.cpg/sg65_35_cif.got.tgz:68406.got - 2010.06.03 17:01:31.
