data_PCOD9487363
_publ_section_title
;
Structure prediction by ZEFSAII (Michael W. Deem and Ramdas Pophale) SiO2 
 PCOD9487363
Probable space group: C M M M
;
_chemical_formula_sum "Si O2"
_cell_formula_units_Z 72
_cell_length_a 12.382785
_cell_length_b 24.889314
_cell_length_c 13.016451
_cell_angle_alpha 90.000000
_cell_angle_beta 90.000000
_cell_angle_gamma 90.000000
_cell_volume 4011.657495
_symmetry_space_group_name_H-M "C M M M"
_symmetry_group_IT_number 65
_symmetry_cell_setting 'orthorhombic'
loop_
_space_group_symop_operation_xyz
x,y,z
-x,-y,z
x,-y,-z
-x,y,-z
-x,-y,-z
x,y,-z
-x,y,z
x,-y,z
1/2+x,1/2+y,z
1/2-x,1/2-y,z
1/2+x,1/2-y,-z
1/2-x,1/2+y,-z
1/2-x,1/2-y,-z
1/2+x,1/2+y,-z
1/2-x,1/2+y,z
1/2+x,1/2-y,z
loop_
_atom_site_type_symbol
_atom_site_label
_atom_site_fract_x
_atom_site_fract_y
_atom_site_fract_z
Si Si1 0.766003 0.000000 0.119616
Si Si2 0.625577 0.384425 0.381426
Si Si3 0.874628 0.392473 0.118786
Si Si4 0.294833 0.191217 0.716009
Si Si5 0.125025 0.275531 0.500000
Si Si6 0.625120 0.500000 0.674368
O O1 0.696423 0.054122 0.138480
O O2 0.860476 0.000000 0.203307
O O3 0.799080 0.000000 0.000000
O O4 0.633582 0.368653 0.500000
O O5 0.500000 0.385253 0.352047
O O6 0.690123 0.342901 0.314805
O O7 0.671402 0.444526 0.368156
O O8 0.850310 0.343103 0.194528
O O9 0.000000 0.407654 0.128669
O O10 0.854783 0.376710 0.000000
O O11 0.250000 0.250000 0.745323
O O12 0.366501 0.195570 0.611404
O O13 0.250000 0.250000 0.500000
O O14 0.000000 0.250838 0.500000
O O15 0.500000 0.500000 0.642404
#
# Coordination Sequence:
#
# PCOD9487363 Si02
#       6
#     8  16  16  16   8   8
#     4  10  19  34  59  82 104 134 181 234 288 346
#     4  10  20  35  56  82 113 151 191 232 280 341
#     4  10  21  38  59  81 107 143 187 237 288 340
#     4  11  22  36  57  84 115 152 191 233 280 342
#     4  10  22  38  58  85 116 155 199 242 290 342
#     4  10  19  34  57  82 110 144 185 230 285 343
#
# _framework density 17.947693999999998
#
# number of rings (size 3 to 8) (size 9 to 14) (size 15 to 20)
#    0.000    1.778    3.333    1.333    0.000    7.778 
#    0.000    0.000    0.000    0.667    0.000    4.667 
#    0.000    0.000    0.000    0.000    0.000    0.000 
#
# Total GULP energy -200443.520889 kJ/mol
# GULP energy per Si atom -5567.875580 kJ/mol
# Density = 1.790684 g / cm^3
# Si number density = 17.947694 Si / 1000 Ang^3
#
#
#
# Elastic Constant Matrix: (Units=GPa)
#
#
# Indices 1 2 3 4 5 6 
#
# 1 49.4954 15.1200 10.0733 0.0000 0.0000 0.0000
# 2 15.1200 101.0950 18.1357 0.0000 0.0000 0.0000
# 3 10.0733 18.1357 66.3073 0.0000 0.0000 0.0000
# 4 0.0000 0.0000 0.0000 33.1145 0.0000 0.0000
# 5 0.0000 0.0000 0.0000 0.0000 23.0368 0.0000
# 6 0.0000 0.0000 0.0000 0.0000 0.0000 22.7139
#
#
#
# Elastic Compliance Matrix: (Units=1/GPa)
#
#
# Indices 1 2 3 4 5 6 
#
# 1 0.021563 -0.002773 -0.002517 0.000000 0.000000 0.000000
# 2 -0.002773 0.010759 -0.002521 0.000000 0.000000 0.000000
# 3 -0.002517 -0.002521 0.016153 0.000000 0.000000 0.000000
# 4 0.000000 0.000000 0.000000 0.030198 0.000000 0.000000
# 5 0.000000 0.000000 0.000000 0.000000 0.043409 0.000000
# 6 0.000000 0.000000 0.000000 0.000000 0.000000 0.044026
#
#
# Mechanical properties :
#
#
# Convention : Reuss Voigt Hill
#
# Bulk Modulus (GPa) = 30.44010 33.72840 32.08425
# Shear Modulus (GPa) = 25.94934 27.34430 26.64682
#
# Velocity S-wave (km/s) = 3.80653 3.90751 3.85735
# Velocity P-wave (km/s) = 6.02635 6.26032 6.14445
#
# Compressibility (1/GPa) = 0.03285141
#
# Stress axis : x y z
#
# Youngs Moduli (GPa) = 46.37473 92.94722 61.90679
#
# Poissons Ratio (x) = 0.25779 0.15584
# Poissons Ratio (y) = 0.12862 0.15608
# Poissons Ratio (z) = 0.11674 0.23435
#
# Static dielectric constant tensor:
#      x y z
#    x 1.627630 0.000000 0.000000 
#    y 0.000000 1.671340 0.000000 
#    z 0.000000 0.000000 1.620130 
# 
# From -- ./inp_files/22557.got.cif
#   From: 2010.05.17/outbox.cif.g08.bks.cpg/sg65_12_cif.got.tgz:22557.got - 2010.06.03 17:01:31.
