data_PCOD9487427
_publ_section_title
;
Structure prediction by ZEFSAII (Michael W. Deem and Ramdas Pophale) SiO2 
 PCOD9487427
Probable space group: C M M M
;
_chemical_formula_sum "Si O2"
_cell_formula_units_Z 88
_cell_length_a 8.488294
_cell_length_b 29.561554
_cell_length_c 18.565229
_cell_angle_alpha 90.000000
_cell_angle_beta 90.000000
_cell_angle_gamma 90.000000
_cell_volume 4658.520215
_symmetry_space_group_name_H-M "C M M M"
_symmetry_group_IT_number 65
_symmetry_cell_setting 'orthorhombic'
loop_
_space_group_symop_operation_xyz
x,y,z
-x,-y,z
x,-y,-z
-x,y,-z
-x,-y,-z
x,y,-z
-x,y,z
x,-y,z
1/2+x,1/2+y,z
1/2-x,1/2-y,z
1/2+x,1/2-y,-z
1/2-x,1/2+y,-z
1/2-x,1/2-y,-z
1/2+x,1/2+y,-z
1/2-x,1/2+y,z
1/2+x,1/2-y,z
loop_
_atom_site_type_symbol
_atom_site_label
_atom_site_fract_x
_atom_site_fract_y
_atom_site_fract_z
Si Si1 0.812337 0.298644 0.854758
Si Si2 0.688410 0.947883 0.500000
Si Si3 0.307726 0.448087 0.217024
Si Si4 0.189082 0.798529 0.691036
Si Si5 0.190456 0.105003 0.639066
Si Si6 0.809515 0.109764 0.919689
O O1 0.750000 0.250000 0.880343
O O2 0.750755 0.304547 0.772738
O O3 0.749527 0.340132 0.901329
O O4 0.000000 0.298220 0.853999
O O5 0.500000 0.948895 0.500000
O O6 0.745899 0.921361 0.570447
O O7 0.746434 0.000000 0.500000
O O8 0.500000 0.447988 0.216628
O O9 0.255979 0.500000 0.220804
O O10 0.258891 0.420132 0.287463
O O11 0.255304 0.423404 0.144034
O O12 0.250000 0.750000 0.664494
O O13 0.238077 0.842378 0.645346
O O14 0.000000 0.797366 0.694225
O O15 0.000000 0.103784 0.636546
O O16 0.000000 0.110191 0.917949
O O17 0.759738 0.096101 0.000000
#
# Coordination Sequence:
#
# PCOD9487427 Si02
#       6
#    16   8  16  16  16  16
#     4  11  21  34  55  80 111 148 188 233 283 340
#     4  11  25  41  58  87 124 153 186 237 290 337
#     4   9  17  32  56  84 111 143 187 235 281 332
#     4  10  19  34  58  88 118 148 188 231 277 334
#     4  10  20  37  62  86 115 152 192 233 275 336
#     4  10  20  35  54  79 114 149 187 238 287 334
#
# _framework density 18.890118999999999
#
# number of rings (size 3 to 8) (size 9 to 14) (size 15 to 20)
#    0.000    1.909    1.818    4.091    0.000    4.000 
#    0.000    2.273    0.000    0.545    0.000    1.273 
#    0.000    0.000    0.000    0.000    0.000    0.000 
#
# Total GULP energy -245715.725705 kJ/mol
# GULP energy per Si atom -5584.448311 kJ/mol
# Density = 1.884712 g / cm^3
# Si number density = 18.890119 Si / 1000 Ang^3
#
#
#
# Elastic Constant Matrix: (Units=GPa)
#
#
# Indices 1 2 3 4 5 6 
#
# 1 26.0332 25.3948 26.9474 0.0000 0.0000 0.0000
# 2 25.3948 171.4547 100.5718 0.0000 0.0000 0.0000
# 3 26.9474 100.5718 144.1441 0.0000 0.0000 0.0000
# 4 0.0000 0.0000 0.0000 16.2991 0.0000 0.0000
# 5 0.0000 0.0000 0.0000 0.0000 15.1682 0.0000
# 6 0.0000 0.0000 0.0000 0.0000 0.0000-2002.9834
#
#
#
# Elastic Compliance Matrix: (Units=1/GPa)
#
#
# Indices 1 2 3 4 5 6 
#
# 1 0.048623 -0.003165 -0.006882 0.000000 0.000000 0.000000
# 2 -0.003165 0.010079 -0.006441 0.000000 0.000000 0.000000
# 3 -0.006882 -0.006441 0.012718 0.000000 0.000000 0.000000
# 4 0.000000 0.000000 0.000000 0.061353 0.000000 0.000000
# 5 0.000000 0.000000 0.000000 0.000000 0.065927 0.000000
# 6 0.000000 0.000000 0.000000 0.000000 0.000000 -0.000499
#
#
# Mechanical properties :
#
#
# Convention : Reuss Voigt Hill
#
# Bulk Modulus (GPa) = 26.01098 71.94001 48.97549
# Shear Modulus (GPa) = 20.49251 -381.72202 -180.61476
#
# Velocity S-wave (km/s) = 3.29724 -14.23073 -9.78882
# Velocity P-wave (km/s) = 5.31933 15.22669 10.08853
#
# Compressibility (1/GPa) = 0.03844530
#
# Stress axis : x y z
#
# Youngs Moduli (GPa) = 20.56627 99.21359 78.62978
#
# Poissons Ratio (x) = 0.31403 0.54110
# Poissons Ratio (y) = 0.06510 0.50644
# Poissons Ratio (z) = 0.14153 0.63901
#
# Static dielectric constant tensor:
#      x y z
#    x 1.643240 0.000000 0.000000 
#    y 0.000000 1.653270 0.000000 
#    z 0.000000 0.000000 1.634400 
# 
# From -- ./inp_files/50337.got.cif
#   From: 2010.05.17/outbox.cif.g08.bks.cpg/sg65_26_cif.got.tgz:50337.got - 2010.06.03 17:01:31.
