data_PCOD9487440
_publ_section_title
;
Structure prediction by ZEFSAII (Michael W. Deem and Ramdas Pophale) SiO2 
 PCOD9487440
Probable space group: C M M M
;
_chemical_formula_sum "Si O2"
_cell_formula_units_Z 72
_cell_length_a 19.630364
_cell_length_b 23.506667
_cell_length_c 7.828737
_cell_angle_alpha 90.000000
_cell_angle_beta 90.000000
_cell_angle_gamma 90.000000
_cell_volume 3612.527080
_symmetry_space_group_name_H-M "C M M M"
_symmetry_group_IT_number 65
_symmetry_cell_setting 'orthorhombic'
loop_
_space_group_symop_operation_xyz
x,y,z
-x,-y,z
x,-y,-z
-x,y,-z
-x,-y,-z
x,y,-z
-x,y,z
x,-y,z
1/2+x,1/2+y,z
1/2-x,1/2-y,z
1/2+x,1/2-y,-z
1/2-x,1/2+y,-z
1/2-x,1/2-y,-z
1/2+x,1/2+y,-z
1/2-x,1/2+y,z
1/2+x,1/2-y,z
loop_
_atom_site_type_symbol
_atom_site_label
_atom_site_fract_x
_atom_site_fract_y
_atom_site_fract_z
Si Si1 0.923148 0.333463 0.796749
Si Si2 0.078081 0.000000 0.290902
Si Si3 0.324364 0.730824 0.704969
Si Si4 0.175573 0.435885 0.705636
Si Si5 0.673789 0.603074 0.709072
O O1 0.880041 0.278506 0.741916
O O2 0.881426 0.390018 0.750071
O O3 0.000000 0.333597 0.725898
O O4 0.927363 0.331641 0.000000
O O5 0.119534 0.944078 0.236001
O O6 0.078033 0.000000 0.500000
O O7 0.000000 0.000000 0.234641
O O8 0.318445 0.727006 0.500000
O O9 0.250000 0.750000 0.770830
O O10 0.341199 0.667292 0.766496
O O11 0.179003 0.438109 0.500000
O O12 0.162173 0.500000 0.768176
O O13 0.250100 0.414751 0.763954
O O14 0.673611 0.602511 0.500000
#
# Coordination Sequence:
#
# PCOD9487440 Si02
#       5
#    16   8  16  16  16
#     4  11  25  41  55  78 116 154 187 232 286 338
#     4   9  16  26  44  76 116 147 170 208 271 335
#     4  10  19  34  59  86 110 141 185 235 281 329
#     4  10  19  35  61  86 110 144 187 236 284 333
#     4   9  16  29  51  81 113 142 176 223 274 325
#
# _framework density 19.930647
#
# number of rings (size 3 to 8) (size 9 to 14) (size 15 to 20)
#    0.000    2.111    3.333    0.667    0.000    4.000 
#    0.000    4.444    0.000    0.000    0.000    0.000 
#    0.000    3.556    0.000    0.000    0.000    0.000 
#
# Total GULP energy -201010.628600 kJ/mol
# GULP energy per Si atom -5583.628572 kJ/mol
# Density = 1.988528 g / cm^3
# Si number density = 19.930647 Si / 1000 Ang^3
#
#
#
# Elastic Constant Matrix: (Units=GPa)
#
#
# Indices 1 2 3 4 5 6 
#
# 1 201.3285 129.9587 0.8193 0.0000 0.0000 0.0000
# 2 129.9587 246.2195 6.5525 0.0000 0.0000 0.0000
# 3 0.8193 6.5525 18.9880 0.0000 0.0000 0.0000
# 4 0.0000 0.0000 0.0000 -43.0560 0.0000 0.0000
# 5 0.0000 0.0000 0.0000 0.0000 29.3788 0.0000
# 6 0.0000 0.0000 0.0000 0.0000 0.0000 35.0206
#
#
#
# Elastic Compliance Matrix: (Units=1/GPa)
#
#
# Indices 1 2 3 4 5 6 
#
# 1 0.007555 -0.004016 0.001060 0.000000 0.000000 0.000000
# 2 -0.004016 0.006234 -0.001978 0.000000 0.000000 0.000000
# 3 0.001060 -0.001978 0.053302 0.000000 0.000000 0.000000
# 4 0.000000 0.000000 0.000000 -0.023226 0.000000 0.000000
# 5 0.000000 0.000000 0.000000 0.000000 0.034038 0.000000
# 6 0.000000 0.000000 0.000000 0.000000 0.000000 0.028555
#
#
# Mechanical properties :
#
#
# Convention : Reuss Voigt Hill
#
# Bulk Modulus (GPa) = 17.47561 82.35520 49.91541
# Shear Modulus (GPa) = 36.92778 26.21573 31.57176
#
# Velocity S-wave (km/s) = 4.30910 3.63071 3.98437
# Velocity P-wave (km/s) = 5.79181 7.68028 6.80190
#
# Compressibility (1/GPa) = 0.05722260
#
# Stress axis : x y z
#
# Youngs Moduli (GPa) = 132.36389 160.41912 18.76111
#
# Poissons Ratio (x) = 0.64421 -0.01988
# Poissons Ratio (y) = 0.53155 0.03711
# Poissons Ratio (z) = -0.14028 0.31729
#
# Static dielectric constant tensor:
#      x y z
#    x 1.680440 0.000000 0.000000 
#    y 0.000000 1.728760 0.000000 
#    z 0.000000 0.000000 1.725110 
# 
# From -- ./inp_files/9200.got.cif
#   From: 2010.05.17/outbox.cif.g08.bks.cpg/sg65_5_cif.got.tgz:9200.got - 2010.06.03 17:01:31.
