data_PCOD9487395
_publ_section_title
;
Structure prediction by ZEFSAII (Michael W. Deem and Ramdas Pophale) SiO2 
 PCOD9487395
Probable space group: C M M M
;
_chemical_formula_sum "Si O2"
_cell_formula_units_Z 88
_cell_length_a 14.575437
_cell_length_b 12.927772
_cell_length_c 20.610063
_cell_angle_alpha 90.000000
_cell_angle_beta 90.000000
_cell_angle_gamma 90.000000
_cell_volume 3883.511433
_symmetry_space_group_name_H-M "C M M M"
_symmetry_group_IT_number 65
_symmetry_cell_setting 'orthorhombic'
loop_
_space_group_symop_operation_xyz
x,y,z
-x,-y,z
x,-y,-z
-x,y,-z
-x,-y,-z
x,y,-z
-x,y,z
x,-y,z
1/2+x,1/2+y,z
1/2-x,1/2-y,z
1/2+x,1/2-y,-z
1/2-x,1/2+y,-z
1/2-x,1/2-y,-z
1/2+x,1/2+y,-z
1/2-x,1/2+y,z
1/2+x,1/2-y,z
loop_
_atom_site_type_symbol
_atom_site_label
_atom_site_fract_x
_atom_site_fract_y
_atom_site_fract_z
Si Si1 0.111928 0.500000 0.644190
Si Si2 0.393121 0.382031 0.675740
Si Si3 0.143328 0.500000 0.214351
Si Si4 0.755041 0.500000 0.072999
Si Si5 0.111875 0.715835 0.425827
Si Si6 0.898852 0.174433 0.069486
Si Si7 0.359866 0.234314 0.204025
O O1 0.171765 0.500000 0.709596
O O2 0.132170 0.396300 0.604282
O O3 0.000000 0.500000 0.659048
O O4 0.500000 0.390662 0.659041
O O5 0.359780 0.500000 0.680548
O O6 0.351752 0.307406 0.620582
O O7 0.390099 0.318776 0.743246
O O8 0.193124 0.500000 0.142814
O O9 0.106588 0.382090 0.216724
O O10 0.685611 0.403375 0.073630
O O11 0.800688 0.500000 0.000000
O O12 0.142158 0.725387 0.500000
O O13 0.000000 0.721089 0.426073
O O14 0.892944 0.243470 0.132003
O O15 0.000000 0.123277 0.070536
O O16 0.891704 0.230127 0.000000
O O17 0.250000 0.250000 0.204620
#
# Coordination Sequence:
#
# PCOD9487395 Si02
#       7
#     8  16   8   8  16  16  16
#     4  10  19  34  57  90 132 172 214 258 301 370
#     4  10  22  39  61  91 125 163 208 265 323 375
#     4  12  24  40  62  93 126 174 208 255 320 374
#     4  10  21  40  65  96 126 158 208 264 317 376
#     4   9  17  32  57  90 125 163 208 261 318 371
#     4  10  22  41  65  92 123 162 209 263 318 371
#     4  12  25  40  61  89 127 166 211 256 311 375
#
# _framework density 22.659904999999998
#
# number of rings (size 3 to 8) (size 9 to 14) (size 15 to 20)
#    0.000    1.636    3.636    1.091    2.545    4.364 
#    0.000    1.818    0.000    1.909    0.000    0.000 
#    0.000    0.000    0.000    0.000    0.000    3.818 
#
# Total GULP energy -245215.321016 kJ/mol
# GULP energy per Si atom -5573.075478 kJ/mol
# Density = 2.260833 g / cm^3
# Si number density = 22.659905 Si / 1000 Ang^3
#
#
#
# Elastic Constant Matrix: (Units=GPa)
#
#
# Indices 1 2 3 4 5 6 
#
# 1 74.1460 15.4415 14.8707 0.0000 0.0000 0.0000
# 2 15.4415 214.8528 111.6336 0.0000 0.0000 0.0000
# 3 14.8707 111.6336 202.8153 0.0000 0.0000 0.0000
# 4 0.0000 0.0000 0.0000 37.0201 0.0000 0.0000
# 5 0.0000 0.0000 0.0000 0.0000 73.8969 0.0000
# 6 0.0000 0.0000 0.0000 0.0000 0.0000 6.1972
#
#
#
# Elastic Compliance Matrix: (Units=1/GPa)
#
#
# Indices 1 2 3 4 5 6 
#
# 1 0.013753 -0.000651 -0.000650 0.000000 0.000000 0.000000
# 2 -0.000651 0.006549 -0.003557 0.000000 0.000000 0.000000
# 3 -0.000650 -0.003557 0.006936 0.000000 0.000000 0.000000
# 4 0.000000 0.000000 0.000000 0.027012 0.000000 0.000000
# 5 0.000000 0.000000 0.000000 0.000000 0.013532 0.000000
# 6 0.000000 0.000000 0.000000 0.000000 0.000000 0.161362
#
#
# Mechanical properties :
#
#
# Convention : Reuss Voigt Hill
#
# Bulk Modulus (GPa) = 57.07010 86.18954 71.62982
# Shear Modulus (GPa) = 20.43300 46.74741 33.59020
#
# Velocity S-wave (km/s) = 3.00613 4.54695 3.85432
# Velocity P-wave (km/s) = 6.10649 8.10464 7.17546
#
# Compressibility (1/GPa) = 0.01752231
#
# Stress axis : x y z
#
# Youngs Moduli (GPa) = 72.71246 152.68670 144.17052
#
# Poissons Ratio (x) = 0.09933 0.09376
# Poissons Ratio (y) = 0.04730 0.51284
# Poissons Ratio (z) = 0.04729 0.54314
#
# Static dielectric constant tensor:
#      x y z
#    x 1.947880 0.000000 0.000000 
#    y 0.000000 1.840590 0.000000 
#    z 0.000000 0.000000 1.835630 
# 
# From -- ./inp_files/63688.got.cif
#   From: 2010.05.17/outbox.cif.g08.bks.cpg/sg65_32_cif.got.tgz:63688.got - 2010.06.03 17:01:31.
