data_PCOD9487166
_publ_section_title
;
Structure prediction by ZEFSAII (Michael W. Deem and Ramdas Pophale) SiO2 
 PCOD9487166
Probable space group: C M M M
;
_chemical_formula_sum "Si O2"
_cell_formula_units_Z 104
_cell_length_a 26.392522
_cell_length_b 8.488889
_cell_length_c 26.870652
_cell_angle_alpha 90.000000
_cell_angle_beta 90.000000
_cell_angle_gamma 90.000000
_cell_volume 6020.186583
_symmetry_space_group_name_H-M "C M M M"
_symmetry_group_IT_number 65
_symmetry_cell_setting 'orthorhombic'
loop_
_space_group_symop_operation_xyz
x,y,z
-x,-y,z
x,-y,-z
-x,y,-z
-x,-y,-z
x,y,-z
-x,y,z
x,-y,z
1/2+x,1/2+y,z
1/2-x,1/2-y,z
1/2+x,1/2-y,-z
1/2-x,1/2+y,-z
1/2-x,1/2-y,-z
1/2+x,1/2+y,-z
1/2-x,1/2+y,z
1/2+x,1/2-y,z
loop_
_atom_site_type_symbol
_atom_site_label
_atom_site_fract_x
_atom_site_fract_y
_atom_site_fract_z
Si Si1 0.194467 0.190065 0.666646
Si Si2 0.441059 0.307972 0.500000
Si Si3 0.600317 0.188271 0.843344
Si Si4 0.805610 0.811556 0.218765
Si Si5 0.000000 0.310801 0.669511
Si Si6 0.595861 0.309112 0.392477
Si Si7 0.941199 0.190026 0.056352
Si Si8 0.000000 0.307995 0.215519
O O1 0.250000 0.250000 0.652056
O O2 0.184798 0.240994 0.723916
O O3 0.149009 0.243788 0.631131
O O4 0.195268 0.000000 0.666155
O O5 0.441175 0.500000 0.500000
O O6 0.500000 0.258360 0.500000
O O7 0.414166 0.256829 0.550872
O O8 0.650482 0.251487 0.817065
O O9 0.592957 0.242050 0.900032
O O10 0.550598 0.245087 0.812915
O O11 0.600951 0.000000 0.841378
O O12 0.750000 0.750000 0.204632
O O13 0.805116 0.000000 0.218288
O O14 0.950448 0.248833 0.641317
O O15 0.000000 0.258271 0.727038
O O16 0.000000 0.500000 0.668510
O O17 0.595283 0.500000 0.392073
O O18 0.000000 0.238322 0.064723
O O19 0.939807 0.000000 0.058363
O O20 0.927316 0.237592 0.000000
O O21 0.000000 0.500000 0.214755
#
# Coordination Sequence:
#
# PCOD9487166 Si02
#       8
#    16   8  16  16   8  16  16   8
#     4   9  19  34  54  76 101 132 170 213 256 307
#     4   9  16  30  53  74  96 132 172 210 251 302
#     4  11  20  33  52  76 107 140 173 214 257 307
#     4  10  20  35  53  76 102 135 175 214 259 309
#     4  11  21  32  48  72 103 136 167 206 257 306
#     4  10  19  34  53  74  98 131 173 211 251 306
#     4   9  18  33  52  75 105 141 179 218 259 302
#     4   9  20  33  45  71 109 141 165 198 257 316
#
# _framework density 17.275210999999999
#
# number of rings (size 3 to 8) (size 9 to 14) (size 15 to 20)
#    0.000    2.231    1.538    2.538    0.000    1.538 
#    0.000    4.231    0.000    0.462    0.000    0.000 
#    0.000    0.000    0.000    0.000    0.000    0.000 
#
# Total GULP energy -290200.236965 kJ/mol
# GULP energy per Si atom -5580.773788 kJ/mol
# Density = 1.723589 g / cm^3
# Si number density = 17.275211 Si / 1000 Ang^3
#
#
#
# Elastic Constant Matrix: (Units=GPa)
#
#
# Indices 1 2 3 4 5 6 
#
# 1 165.7294 28.5048 111.3181 0.0000 0.0000 0.0000
# 2 28.5048 20.0769 27.5766 0.0000 0.0000 0.0000
# 3 111.3181 27.5766 157.1209 0.0000 0.0000 0.0000
# 4 0.0000 0.0000 0.0000 18.5317 0.0000 0.0000
# 5 0.0000 0.0000 0.0000 0.0000 17.3176 0.0000
# 6 0.0000 0.0000 0.0000 0.0000 0.0000 24.6743
#
#
#
# Elastic Compliance Matrix: (Units=1/GPa)
#
#
# Indices 1 2 3 4 5 6 
#
# 1 0.012257 -0.007214 -0.007418 0.000000 0.000000 0.000000
# 2 -0.007214 0.069875 -0.007153 0.000000 0.000000 0.000000
# 3 -0.007418 -0.007153 0.012876 0.000000 0.000000 0.000000
# 4 0.000000 0.000000 0.000000 0.053962 0.000000 0.000000
# 5 0.000000 0.000000 0.000000 0.000000 0.057745 0.000000
# 6 0.000000 0.000000 0.000000 0.000000 0.000000 0.040528
#
#
# Mechanical properties :
#
#
# Convention : Reuss Voigt Hill
#
# Bulk Modulus (GPa) = 19.44067 75.30292 47.37180
# Shear Modulus (GPa) = 16.23597 23.80658 20.02127
#
# Velocity S-wave (km/s) = 3.06901 3.71627 3.40804
# Velocity P-wave (km/s) = 4.88225 7.88029 6.55498
#
# Compressibility (1/GPa) = 0.05143856
#
# Stress axis : x y z
#
# Youngs Moduli (GPa) = 81.58469 14.31118 77.66648
#
# Poissons Ratio (x) = 0.10323 0.57613
# Poissons Ratio (y) = 0.58852 0.55557
# Poissons Ratio (z) = 0.60520 0.10237
#
# Static dielectric constant tensor:
#      x y z
#    x 1.556220 0.000000 0.000000 
#    y 0.000000 1.587230 0.000000 
#    z 0.000000 0.000000 1.583250 
# 
# From -- ./inp_files/68313.got.cif
#   From: 2010.05.17/outbox.cif.g08.bks.cpg/sg65_35_cif.got.tgz:68313.got - 2010.06.03 17:01:31.
