data_PCOD9487778
_publ_section_title
;
Structure prediction by ZEFSAII (Michael W. Deem and Ramdas Pophale) SiO2 
 PCOD9487778
Probable space group: C M M M
;
_chemical_formula_sum "Si O2"
_cell_formula_units_Z 64
_cell_length_a 27.679685
_cell_length_b 7.401356
_cell_length_c 19.014763
_cell_angle_alpha 90.000000
_cell_angle_beta 90.000000
_cell_angle_gamma 90.000000
_cell_volume 3895.501305
_symmetry_space_group_name_H-M "C M M M"
_symmetry_group_IT_number 65
_symmetry_cell_setting 'orthorhombic'
loop_
_space_group_symop_operation_xyz
x,y,z
-x,-y,z
x,-y,-z
-x,y,-z
-x,-y,-z
x,y,-z
-x,y,z
x,-y,z
1/2+x,1/2+y,z
1/2-x,1/2-y,z
1/2+x,1/2-y,-z
1/2-x,1/2+y,-z
1/2-x,1/2-y,-z
1/2+x,1/2+y,-z
1/2-x,1/2+y,z
1/2+x,1/2-y,z
loop_
_atom_site_type_symbol
_atom_site_label
_atom_site_fract_x
_atom_site_fract_y
_atom_site_fract_z
Si Si1 0.442799 0.000000 0.415270
Si Si2 0.807327 0.216051 0.229575
Si Si3 0.867678 0.219559 0.634569
Si Si4 0.307602 0.715975 0.924419
Si Si5 0.306442 0.286006 0.500000
O O1 0.416886 0.174413 0.381057
O O2 0.500000 0.000000 0.403571
O O3 0.434612 0.000000 0.500000
O O4 0.750000 0.250000 0.241206
O O5 0.840998 0.275833 0.293502
O O6 0.822778 0.286170 0.152278
O O7 0.811790 0.000000 0.227342
O O8 0.832472 0.276865 0.570608
O O9 0.873518 0.000000 0.634219
O O10 0.315280 0.500000 0.924467
O O11 0.250000 0.750000 0.925131
O O12 0.326494 0.785347 0.000000
O O13 0.312776 0.500000 0.500000
O O14 0.250000 0.250000 0.500000
#
# Coordination Sequence:
#
# PCOD9487778 Si02
#       5
#     8  16  16  16   8
#     4  11  24  40  60  76  89 123 167 209 262 300
#     4   9  17  27  42  67  98 135 166 194 239 284
#     4  10  21  36  50  73 102 125 161 204 244 292
#     4   8  13  22  36  56  87 127 168 200 225 266
#     4  10  20  30  46  69  97 134 160 186 231 278
#
# _framework density 16.429207000000002
#
# number of rings (size 3 to 8) (size 9 to 14) (size 15 to 20)
#    0.000    2.625    1.250    0.750    3.500    0.500 
#    0.000    1.250    0.000    0.000    0.000    0.000 
#    0.000    2.000    0.000    9.750    0.000    0.000 
#
# Total GULP energy -178178.102007 kJ/mol
# GULP energy per Si atom -5568.065688 kJ/mol
# Density = 1.639181 g / cm^3
# Si number density = 16.429207 Si / 1000 Ang^3
#
#
#
# Elastic Constant Matrix: (Units=GPa)
#
#
# Indices 1 2 3 4 5 6 
#
# 1 90.7687 23.5553 68.7632 0.0000 0.0000 0.0000
# 2 23.5553 70.6196 32.6057 0.0000 0.0000 0.0000
# 3 68.7632 32.6057 191.8125 0.0000 0.0000 0.0000
# 4 0.0000 0.0000 0.0000 194.9062 0.0000 0.0000
# 5 0.0000 0.0000 0.0000 0.0000 5.7408 0.0000
# 6 0.0000 0.0000 0.0000 0.0000 0.0000 21.7465
#
#
#
# Elastic Compliance Matrix: (Units=1/GPa)
#
#
# Indices 1 2 3 4 5 6 
#
# 1 0.015636 -0.002851 -0.005121 0.000000 0.000000 0.000000
# 2 -0.002851 0.015886 -0.001678 0.000000 0.000000 0.000000
# 3 -0.005121 -0.001678 0.007334 0.000000 0.000000 0.000000
# 4 0.000000 0.000000 0.000000 0.005131 0.000000 0.000000
# 5 0.000000 0.000000 0.000000 0.000000 0.174191 0.000000
# 6 0.000000 0.000000 0.000000 0.000000 0.000000 0.045984
#
#
# Mechanical properties :
#
#
# Convention : Reuss Voigt Hill
#
# Bulk Modulus (GPa) = 51.13421 67.00547 59.06984
# Shear Modulus (GPa) = 17.24243 59.69715 38.46979
#
# Velocity S-wave (km/s) = 3.24311 6.03447 4.84421
# Velocity P-wave (km/s) = 6.72423 9.45654 8.20492
#
# Compressibility (1/GPa) = 0.01955638
#
# Stress axis : x y z
#
# Youngs Moduli (GPa) = 63.95387 62.94730 136.34222
#
# Poissons Ratio (x) = 0.17948 0.69818
# Poissons Ratio (y) = 0.18235 0.22883
# Poissons Ratio (z) = 0.32750 0.10565
#
# Static dielectric constant tensor:
#      x y z
#    x 1.445480 0.000000 0.000000 
#    y 0.000000 1.535460 0.000000 
#    z 0.000000 0.000000 1.626170 
# 
# From -- ./inp_files/57088.got.cif
#   From: 2010.05.17/outbox.cif.g08.bks.cpg/sg65_29_cif.got.tgz:57088.got - 2010.06.03 17:01:31.
