data_PCOD9487885
_publ_section_title
;
Structure prediction by ZEFSAII (Michael W. Deem and Ramdas Pophale) SiO2 
 PCOD9487885
Probable space group: C M M M
;
_chemical_formula_sum "Si O2"
_cell_formula_units_Z 112
_cell_length_a 17.117603
_cell_length_b 22.913884
_cell_length_c 14.877261
_cell_angle_alpha 90.000000
_cell_angle_beta 90.000000
_cell_angle_gamma 90.000000
_cell_volume 5835.319530
_symmetry_space_group_name_H-M "C M M M"
_symmetry_group_IT_number 65
_symmetry_cell_setting 'orthorhombic'
loop_
_space_group_symop_operation_xyz
x,y,z
-x,-y,z
x,-y,-z
-x,y,-z
-x,-y,-z
x,y,-z
-x,y,z
x,-y,z
1/2+x,1/2+y,z
1/2-x,1/2-y,z
1/2+x,1/2-y,-z
1/2-x,1/2+y,-z
1/2-x,1/2-y,-z
1/2+x,1/2+y,-z
1/2-x,1/2+y,z
1/2+x,1/2-y,z
loop_
_atom_site_type_symbol
_atom_site_label
_atom_site_fract_x
_atom_site_fract_y
_atom_site_fract_z
Si Si1 0.409758 0.342426 0.739490
Si Si2 0.091315 0.734746 0.605185
Si Si3 0.171563 0.386361 0.397548
Si Si4 0.592545 0.164355 0.899884
Si Si5 0.332074 0.283231 0.894467
Si Si6 0.593878 0.936080 0.770366
Si Si7 0.348401 0.569770 0.398213
O O1 0.500000 0.339110 0.769152
O O2 0.394489 0.288956 0.670217
O O3 0.352208 0.333611 0.823985
O O4 0.397104 0.400284 0.680557
O O5 0.101451 0.751116 0.500000
O O6 0.147474 0.680202 0.624761
O O7 0.000000 0.716386 0.616769
O O8 0.145546 0.396264 0.500000
O O9 0.127850 0.427390 0.328015
O O10 0.263011 0.400388 0.393123
O O11 0.500000 0.154834 0.904476
O O12 0.606753 0.231098 0.874463
O O13 0.624504 0.116695 0.831629
O O14 0.626327 0.156647 0.000000
O O15 0.250000 0.250000 0.880799
O O16 0.337587 0.299842 0.000000
O O17 0.500000 0.932331 0.765961
O O18 0.614262 0.000000 0.806852
O O19 0.379283 0.580697 0.500000
O O20 0.341200 0.500000 0.387781
#
# Coordination Sequence:
#
# PCOD9487885 Si02
#       7
#    16  16  16  16  16  16  16
#     4  11  23  37  60  90 116 149 192 237 288 345
#     4   9  18  32  52  83 120 152 185 230 286 349
#     4  10  20  34  52  75 109 151 191 231 282 341
#     4   9  18  34  55  77 107 146 181 219 273 331
#     4  10  22  38  58  87 119 147 180 226 283 349
#     4  10  20  31  47  75 108 146 192 233 269 321
#     4  10  23  41  59  82 114 155 201 247 294 343
#
# _framework density 19.193463999999999
#
# number of rings (size 3 to 8) (size 9 to 14) (size 15 to 20)
#    0.000    2.143    0.000    2.571    4.000    6.286 
#    0.000    5.000    0.000    0.429    0.000    1.000 
#    0.000    0.000    0.000    0.000    0.000    0.000 
#
# Total GULP energy -312538.832408 kJ/mol
# GULP energy per Si atom -5581.050579 kJ/mol
# Density = 1.914978 g / cm^3
# Si number density = 19.193464 Si / 1000 Ang^3
#
#
#
# Elastic Constant Matrix: (Units=GPa)
#
#
# Indices 1 2 3 4 5 6 
#
# 1 32.4398 16.7352 23.7823 0.0000 0.0000 0.0000
# 2 16.7352 46.1414 32.9271 0.0000 0.0000 0.0000
# 3 23.7823 32.9271 63.7068 0.0000 0.0000 0.0000
# 4 0.0000 0.0000 0.0000 22.9822 0.0000 0.0000
# 5 0.0000 0.0000 0.0000 0.0000 23.6324 0.0000
# 6 0.0000 0.0000 0.0000 0.0000 0.0000 1.4751
#
#
#
# Elastic Compliance Matrix: (Units=1/GPa)
#
#
# Indices 1 2 3 4 5 6 
#
# 1 0.043699 -0.006667 -0.012867 0.000000 0.000000 0.000000
# 2 -0.006667 0.035355 -0.015784 0.000000 0.000000 0.000000
# 3 -0.012867 -0.015784 0.028659 0.000000 0.000000 0.000000
# 4 0.000000 0.000000 0.000000 0.043512 0.000000 0.000000
# 5 0.000000 0.000000 0.000000 0.000000 0.042315 0.000000
# 6 0.000000 0.000000 0.000000 0.000000 0.000000 0.677911
#
#
# Mechanical properties :
#
#
# Convention : Reuss Voigt Hill
#
# Bulk Modulus (GPa) = 26.97251 32.13080 29.55166
# Shear Modulus (GPa) = 5.23865 14.20750 9.72307
#
# Velocity S-wave (km/s) = 1.65388 2.72366 2.25318
# Velocity P-wave (km/s) = 4.21077 5.16410 4.71161
#
# Compressibility (1/GPa) = 0.03707479
#
# Stress axis : x y z
#
# Youngs Moduli (GPa) = 22.88379 28.28493 34.89356
#
# Poissons Ratio (x) = 0.18858 0.44899
# Poissons Ratio (y) = 0.15257 0.55077
# Poissons Ratio (z) = 0.29445 0.44646
#
# Static dielectric constant tensor:
#      x y z
#    x 1.687590 0.000000 0.000000 
#    y 0.000000 1.678750 0.000000 
#    z 0.000000 0.000000 1.692160 
# 
# From -- ./inp_files/40820.got.cif
#   From: 2010.05.17/outbox.cif.g08.bks.cpg/sg65_21_cif.got.tgz:40820.got - 2010.06.03 17:01:31.
