data_PCOD9487371
_publ_section_title
;
Structure prediction by ZEFSAII (Michael W. Deem and Ramdas Pophale) SiO2 
 PCOD9487371
Probable space group: C M M M
;
_chemical_formula_sum "Si O2"
_cell_formula_units_Z 72
_cell_length_a 18.802616
_cell_length_b 8.447798
_cell_length_c 24.132128
_cell_angle_alpha 90.000000
_cell_angle_beta 90.000000
_cell_angle_gamma 90.000000
_cell_volume 3833.164148
_symmetry_space_group_name_H-M "C M M M"
_symmetry_group_IT_number 65
_symmetry_cell_setting 'orthorhombic'
loop_
_space_group_symop_operation_xyz
x,y,z
-x,-y,z
x,-y,-z
-x,y,-z
-x,-y,-z
x,y,-z
-x,y,z
x,-y,z
1/2+x,1/2+y,z
1/2-x,1/2-y,z
1/2+x,1/2-y,-z
1/2-x,1/2+y,-z
1/2-x,1/2-y,-z
1/2+x,1/2+y,-z
1/2-x,1/2+y,z
1/2+x,1/2-y,z
loop_
_atom_site_type_symbol
_atom_site_label
_atom_site_fract_x
_atom_site_fract_y
_atom_site_fract_z
Si Si1 0.168870 0.309356 0.000000
Si Si2 0.581912 0.689679 0.773511
Si Si3 0.668554 0.809529 0.121295
Si Si4 0.082148 0.307167 0.562277
Si Si5 0.330134 0.810205 0.668373
O O1 0.250000 0.250000 0.000000
O O2 0.140021 0.259138 0.060131
O O3 0.168350 0.500000 0.000000
O O4 0.500000 0.743971 0.772855
O O5 0.583010 0.500000 0.771340
O O6 0.621311 0.744560 0.829130
O O7 0.623808 0.754725 0.720538
O O8 0.750000 0.750000 0.126742
O O9 0.669391 0.000000 0.123723
O O10 0.102449 0.256176 0.500000
O O11 0.083152 0.500000 0.562408
O O12 0.132970 0.252489 0.611442
O O13 0.000000 0.260292 0.572265
O O14 0.250000 0.750000 0.673033
O O15 0.329488 0.000000 0.667650
#
# Coordination Sequence:
#
# PCOD9487371 Si02
#       5
#     8  16  16  16  16
#     4   8  16  30  51  80 109 139 173 213 259 308
#     4  11  24  40  56  76 105 140 179 224 272 320
#     4  10  19  34  57  83 111 141 177 218 262 314
#     4   8  15  30  53  80 108 139 177 219 262 311
#     4  11  22  36  56  81 109 142 180 221 267 317
#
# _framework density 18.783438
#
# number of rings (size 3 to 8) (size 9 to 14) (size 15 to 20)
#    0.000    2.222    0.000    4.000    0.000    4.000 
#    0.000    0.556    0.000    5.333    0.000    7.778 
#    0.000    0.000    0.000    0.000    0.000    0.000 
#
# Total GULP energy -200887.390108 kJ/mol
# GULP energy per Si atom -5580.205281 kJ/mol
# Density = 1.874069 g / cm^3
# Si number density = 18.783438 Si / 1000 Ang^3
#
#
#
# Elastic Constant Matrix: (Units=GPa)
#
#
# Indices 1 2 3 4 5 6 
#
# 1 138.8128 29.3673 118.8586 0.0000 0.0000 0.0000
# 2 29.3673 36.0834 34.8928 0.0000 0.0000 0.0000
# 3 118.8586 34.8928 212.8220 0.0000 0.0000 0.0000
# 4 0.0000 0.0000 0.0000 -12.8894 0.0000 0.0000
# 5 0.0000 0.0000 0.0000 0.0000 444.8018 0.0000
# 6 0.0000 0.0000 0.0000 0.0000 0.0000 12.9517
#
#
#
# Elastic Compliance Matrix: (Units=1/GPa)
#
#
# Indices 1 2 3 4 5 6 
#
# 1 0.014447 -0.004701 -0.007298 0.000000 0.000000 0.000000
# 2 -0.004701 0.034465 -0.003025 0.000000 0.000000 0.000000
# 3 -0.007298 -0.003025 0.009271 0.000000 0.000000 0.000000
# 4 0.000000 0.000000 0.000000 -0.077583 0.000000 0.000000
# 5 0.000000 0.000000 0.000000 0.000000 0.002248 0.000000
# 6 0.000000 0.000000 0.000000 0.000000 0.000000 0.077210
#
#
# Mechanical properties :
#
#
# Convention : Reuss Voigt Hill
#
# Bulk Modulus (GPa) = 35.54353 83.77284 59.65819
# Shear Modulus (GPa) = 50.25911 102.61278 76.43595
#
# Velocity S-wave (km/s) = 5.17834 7.39919 6.38605
# Velocity P-wave (km/s) = 7.39713 10.84866 9.28469
#
# Compressibility (1/GPa) = 0.02813452
#
# Stress axis : x y z
#
# Youngs Moduli (GPa) = 69.21665 29.01495 107.86863
#
# Poissons Ratio (x) = 0.13641 0.78722
# Poissons Ratio (y) = 0.32540 0.32631
# Poissons Ratio (z) = 0.50514 0.08777
#
# Static dielectric constant tensor:
#      x y z
#    x 1.640750 0.000000 0.000000 
#    y 0.000000 1.656010 0.000000 
#    z 0.000000 0.000000 1.668330 
# 
# From -- ./inp_files/74602.got.cif
#   From: 2010.05.17/outbox.cif.g08.bks.cpg/sg65_38_cif.got.tgz:74602.got - 2010.06.03 17:01:31.
