data_PCOD9487660
_publ_section_title
;
Structure prediction by ZEFSAII (Michael W. Deem and Ramdas Pophale) SiO2 
 PCOD9487660
Probable space group: C M M M
;
_chemical_formula_sum "Si O2"
_cell_formula_units_Z 64
_cell_length_a 18.635339
_cell_length_b 13.570582
_cell_length_c 14.046910
_cell_angle_alpha 90.000000
_cell_angle_beta 90.000000
_cell_angle_gamma 90.000000
_cell_volume 3552.356726
_symmetry_space_group_name_H-M "C M M M"
_symmetry_group_IT_number 65
_symmetry_cell_setting 'orthorhombic'
loop_
_space_group_symop_operation_xyz
x,y,z
-x,-y,z
x,-y,-z
-x,y,-z
-x,-y,-z
x,y,-z
-x,y,z
x,-y,z
1/2+x,1/2+y,z
1/2-x,1/2-y,z
1/2+x,1/2-y,-z
1/2-x,1/2+y,-z
1/2-x,1/2-y,-z
1/2+x,1/2+y,-z
1/2-x,1/2+y,z
1/2+x,1/2-y,z
loop_
_atom_site_type_symbol
_atom_site_label
_atom_site_fract_x
_atom_site_fract_y
_atom_site_fract_z
Si Si1 0.500000 0.250871 0.390632
Si Si2 0.855646 0.304600 0.887072
Si Si3 0.500000 0.117522 0.208803
Si Si4 0.291468 0.385749 0.805645
Si Si5 0.141311 0.883943 0.392945
O O1 0.500000 0.215590 0.500000
O O2 0.500000 0.165080 0.313569
O O3 0.570596 0.318434 0.377706
O O4 0.788975 0.360606 0.837883
O O5 0.842741 0.190016 0.861111
O O6 0.929707 0.344027 0.845761
O O7 0.851731 0.318386 0.000000
O O8 0.500000 0.000000 0.212246
O O9 0.307418 0.500000 0.824776
O O10 0.303859 0.366892 0.693220
O O11 0.169085 0.863997 0.500000
O O12 0.121559 0.000000 0.389578
#
# Coordination Sequence:
#
# PCOD9487660 Si02
#       5
#     8  16   8  16  16
#     4  10  19  36  59  86 122 157 190 233 287 349
#     4  11  24  41  60  85 116 156 204 243 289 347
#     4  12  25  42  61  83 115 156 205 245 287 347
#     4  10  20  37  62  90 120 150 189 242 297 347
#     4   9  17  32  59  92 122 153 188 229 288 358
#
# _framework density 18.016207999999999
#
# number of rings (size 3 to 8) (size 9 to 14) (size 15 to 20)
#    0.000    1.750    2.500    3.000    0.000    5.750 
#    0.000    4.375    0.000    4.500    0.000    0.000 
#    0.000    0.000    0.000    0.000    0.000    0.000 
#
# Total GULP energy -178643.405574 kJ/mol
# GULP energy per Si atom -5582.606424 kJ/mol
# Density = 1.797520 g / cm^3
# Si number density = 18.016208 Si / 1000 Ang^3
#
#
#
# Elastic Constant Matrix: (Units=GPa)
#
#
# Indices 1 2 3 4 5 6 
#
# 1 121.5626 70.6800 103.3883 0.0000 0.0000 0.0000
# 2 70.6800 114.3776 75.3498 0.0000 0.0000 0.0000
# 3 103.3883 75.3498 174.6932 0.0000 0.0000 0.0000
# 4 0.0000 0.0000 0.0000 20.5691 0.0000 0.0000
# 5 0.0000 0.0000 0.0000 0.0000 36.5115 0.0000
# 6 0.0000 0.0000 0.0000 0.0000 0.0000 13.7676
#
#
#
# Elastic Compliance Matrix: (Units=1/GPa)
#
#
# Indices 1 2 3 4 5 6 
#
# 1 0.019207 -0.006119 -0.008728 0.000000 0.000000 0.000000
# 2 -0.006119 0.014163 -0.002487 0.000000 0.000000 0.000000
# 3 -0.008728 -0.002487 0.011963 0.000000 0.000000 0.000000
# 4 0.000000 0.000000 0.000000 0.048617 0.000000 0.000000
# 5 0.000000 0.000000 0.000000 0.000000 0.027389 0.000000
# 6 0.000000 0.000000 0.000000 0.000000 0.000000 0.072634
#
#
# Mechanical properties :
#
#
# Convention : Reuss Voigt Hill
#
# Bulk Modulus (GPa) = 93.77617 101.05217 97.41417
# Shear Modulus (GPa) = 21.53352 24.91733 23.22542
#
# Velocity S-wave (km/s) = 3.46096 3.72297 3.59436
# Velocity P-wave (km/s) = 8.25439 8.64246 8.45065
#
# Compressibility (1/GPa) = 0.01066369
#
# Stress axis : x y z
#
# Youngs Moduli (GPa) = 52.06359 70.60634 83.59408
#
# Poissons Ratio (x) = 0.43207 0.72960
# Poissons Ratio (y) = 0.31860 0.20792
# Poissons Ratio (z) = 0.45441 0.17562
#
# Static dielectric constant tensor:
#      x y z
#    x 1.582590 0.000000 0.000000 
#    y 0.000000 1.613940 0.000000 
#    z 0.000000 0.000000 1.620570 
# 
# From -- ./inp_files/23981.got.cif
#   From: 2010.05.17/outbox.cif.g08.bks.cpg/sg65_12_cif.got.tgz:23981.got - 2010.06.03 17:01:31.
