data_PCOD9487045
_publ_section_title
;
Structure prediction by ZEFSAII (Michael W. Deem and Ramdas Pophale) SiO2 
 PCOD9487045
Probable space group: C M M M
;
_chemical_formula_sum "Si O2"
_cell_formula_units_Z 112
_cell_length_a 15.728443
_cell_length_b 15.342044
_cell_length_c 23.223134
_cell_angle_alpha 90.000000
_cell_angle_beta 90.000000
_cell_angle_gamma 90.000000
_cell_volume 5603.892361
_symmetry_space_group_name_H-M "C M M M"
_symmetry_group_IT_number 65
_symmetry_cell_setting 'orthorhombic'
loop_
_space_group_symop_operation_xyz
x,y,z
-x,-y,z
x,-y,-z
-x,y,-z
-x,-y,-z
x,y,-z
-x,y,z
x,-y,z
1/2+x,1/2+y,z
1/2-x,1/2-y,z
1/2+x,1/2-y,-z
1/2-x,1/2+y,-z
1/2-x,1/2-y,-z
1/2+x,1/2+y,-z
1/2-x,1/2+y,z
1/2+x,1/2-y,z
loop_
_atom_site_type_symbol
_atom_site_label
_atom_site_fract_x
_atom_site_fract_y
_atom_site_fract_z
Si Si1 0.092347 0.153168 0.243693
Si Si2 0.641098 0.095477 0.346304
Si Si3 0.400563 0.246835 0.435702
Si Si4 0.659142 0.599912 0.635623
Si Si5 0.406007 0.860638 0.216741
Si Si6 0.764867 0.853543 0.840038
Si Si7 0.404922 0.604820 0.066778
O O1 0.105138 0.137535 0.311119
O O2 0.094522 0.255539 0.227306
O O3 0.172128 0.113714 0.210291
O O4 0.000000 0.117913 0.226426
O O5 0.611699 0.171849 0.388354
O O6 0.743092 0.100922 0.344833
O O7 0.608605 0.104335 0.281195
O O8 0.616273 0.000000 0.368774
O O9 0.375611 0.218128 0.500000
O O10 0.500000 0.269394 0.436206
O O11 0.351182 0.333269 0.416487
O O12 0.634885 0.500000 0.623096
O O13 0.500000 0.884853 0.195912
O O14 0.329555 0.888171 0.174227
O O15 0.750000 0.750000 0.836521
O O16 0.822557 0.868853 0.896376
O O17 0.500000 0.635831 0.086708
O O18 0.407641 0.500000 0.068325
O O19 0.396069 0.631650 0.000000
#
# Coordination Sequence:
#
# PCOD9487045 Si02
#       7
#    16  16  16  16  16  16  16
#     4  10  19  33  55  84 119 155 189 237 300 360
#     4  11  23  39  61  86 114 151 200 250 300 360
#     4  11  25  43  62  84 114 153 195 246 306 364
#     4  11  23  38  60  88 117 150 193 242 300 371
#     4  10  20  35  56  83 119 159 196 243 305 361
#     4  10  20  33  56  88 122 157 198 244 296 353
#     4   9  19  37  60  86 121 164 205 250 303 353
#
# _framework density 19.986108000000002
#
# number of rings (size 3 to 8) (size 9 to 14) (size 15 to 20)
#    0.000    1.714    2.857    2.143    0.000    6.000 
#    0.000    2.857    0.000    0.429    0.000    1.000 
#    0.000    0.000    0.000    0.000    0.000    0.000 
#
# Total GULP energy -312437.013860 kJ/mol
# GULP energy per Si atom -5579.232390 kJ/mol
# Density = 1.994062 g / cm^3
# Si number density = 19.986108 Si / 1000 Ang^3
#
#
#
# Elastic Constant Matrix: (Units=GPa)
#
#
# Indices 1 2 3 4 5 6 
#
# 1 155.1742 32.1860 50.6585 0.0000 0.0000 0.0000
# 2 32.1860 53.0636 8.1449 0.0000 0.0000 0.0000
# 3 50.6585 8.1449 87.2539 0.0000 0.0000 0.0000
# 4 0.0000 0.0000 0.0000 -16.3440 0.0000 0.0000
# 5 0.0000 0.0000 0.0000 0.0000 38.7115 0.0000
# 6 0.0000 0.0000 0.0000 0.0000 0.0000 -6.4181
#
#
#
# Elastic Compliance Matrix: (Units=1/GPa)
#
#
# Indices 1 2 3 4 5 6 
#
# 1 0.008981 -0.004715 -0.004774 0.000000 0.000000 0.000000
# 2 -0.004715 0.021594 0.000721 0.000000 0.000000 0.000000
# 3 -0.004774 0.000721 0.014165 0.000000 0.000000 0.000000
# 4 0.000000 0.000000 0.000000 -0.061185 0.000000 0.000000
# 5 0.000000 0.000000 0.000000 0.000000 0.025832 0.000000
# 6 0.000000 0.000000 0.000000 0.000000 0.000000 -0.155808
#
#
# Mechanical properties :
#
#
# Convention : Reuss Voigt Hill
#
# Bulk Modulus (GPa) = 36.75669 53.05227 44.90448
# Shear Modulus (GPa) = -41.73014 16.82336 -12.45339
#
# Velocity S-wave (km/s) = -4.57437 2.90445 -2.49891
# Velocity P-wave (km/s) = 3.07715 6.15223 3.76703
#
# Compressibility (1/GPa) = 0.02720594
#
# Stress axis : x y z
#
# Youngs Moduli (GPa) = 111.34863 46.30868 70.59550
#
# Poissons Ratio (x) = 0.21833 0.33703
# Poissons Ratio (y) = 0.52496 -0.05093
# Poissons Ratio (z) = 0.53158 -0.03341
#
# Static dielectric constant tensor:
#      x y z
#    x 1.758490 0.000000 0.000000 
#    y 0.000000 1.718560 0.000000 
#    z 0.000000 0.000000 1.701510 
# 
# From -- ./inp_files/70027.got.cif
#   From: 2010.05.17/outbox.cif.g08.bks.cpg/sg65_36_cif.got.tgz:70027.got - 2010.06.03 17:01:31.
