data_PCOD9487862
_publ_section_title
;
Structure prediction by ZEFSAII (Michael W. Deem and Ramdas Pophale) SiO2 
 PCOD9487862
Probable space group: C M M M
;
_chemical_formula_sum "Si O2"
_cell_formula_units_Z 96
_cell_length_a 26.415209
_cell_length_b 24.034587
_cell_length_c 7.221247
_cell_angle_alpha 90.000000
_cell_angle_beta 90.000000
_cell_angle_gamma 90.000000
_cell_volume 4584.615466
_symmetry_space_group_name_H-M "C M M M"
_symmetry_group_IT_number 65
_symmetry_cell_setting 'orthorhombic'
loop_
_space_group_symop_operation_xyz
x,y,z
-x,-y,z
x,-y,-z
-x,y,-z
-x,-y,-z
x,y,-z
-x,y,z
x,-y,z
1/2+x,1/2+y,z
1/2-x,1/2-y,z
1/2+x,1/2-y,-z
1/2-x,1/2+y,-z
1/2-x,1/2-y,-z
1/2+x,1/2+y,-z
1/2-x,1/2+y,z
1/2+x,1/2-y,z
loop_
_atom_site_type_symbol
_atom_site_label
_atom_site_fract_x
_atom_site_fract_y
_atom_site_fract_z
Si Si1 0.088866 0.561005 0.774681
Si Si2 0.940720 0.849801 0.500000
Si Si3 0.793748 0.562097 0.775885
Si Si4 0.362119 0.434961 0.500000
Si Si5 0.123508 0.221322 0.221996
Si Si6 0.555370 0.180044 0.224671
Si Si7 0.297287 0.635400 0.777846
O O1 0.070417 0.500000 0.715522
O O2 0.147854 0.566603 0.720461
O O3 0.060867 0.616457 0.714025
O O4 0.087115 0.560786 0.000000
O O5 0.918944 0.911942 0.500000
O O6 0.916066 0.818995 0.323528
O O7 0.000000 0.846353 0.500000
O O8 0.775167 0.500000 0.718622
O O9 0.758164 0.613506 0.720246
O O10 0.793809 0.561893 0.000000
O O11 0.358315 0.500000 0.500000
O O12 0.334129 0.408021 0.323261
O O13 0.103459 0.282244 0.278357
O O14 0.179033 0.196118 0.270137
O O15 0.119403 0.218113 0.000000
O O16 0.500000 0.202385 0.282080
O O17 0.555478 0.179722 0.000000
O O18 0.299799 0.630854 0.000000
#
# Coordination Sequence:
#
# PCOD9487862 Si02
#       7
#    16   8  16   8  16  16  16
#     4   8  14  24  39  64  96 125 157 197 238 284
#     4  10  20  33  50  69  92 127 161 193 243 291
#     4   8  13  23  41  63  88 121 158 193 232 281
#     4  10  20  31  46  71  97 122 159 201 235 281
#     4   9  18  32  49  71  96 120 156 202 238 278
#     4   9  16  26  42  64  92 126 161 199 241 283
#     4   9  17  30  48  69  95 126 157 193 239 283
#
# _framework density 20.939598
#
# number of rings (size 3 to 8) (size 9 to 14) (size 15 to 20)
#    0.000    3.167    0.000    2.000    0.000    2.500 
#    0.000    2.500    0.000    6.000    0.000    9.917 
#    0.000    2.000    0.000    0.167    0.000    0.000 
#
# Total GULP energy -267374.433894 kJ/mol
# GULP energy per Si atom -5570.300706 kJ/mol
# Density = 2.089194 g / cm^3
# Si number density = 20.939598 Si / 1000 Ang^3
#
#
#
# Elastic Constant Matrix: (Units=GPa)
#
#
# Indices 1 2 3 4 5 6 
#
# 1 51.5569 24.5523 -6.3120 0.0000 0.0000 0.0000
# 2 24.5523 120.8564 -0.4515 0.0000 0.0000 0.0000
# 3 -6.3120 -0.4515 85.8706 0.0000 0.0000 0.0000
# 4 0.0000 0.0000 0.0000 -17.5009 0.0000 0.0000
# 5 0.0000 0.0000 0.0000 0.0000 10.6382 0.0000
# 6 0.0000 0.0000 0.0000 0.0000 0.0000 29.8104
#
#
#
# Elastic Compliance Matrix: (Units=1/GPa)
#
#
# Indices 1 2 3 4 5 6 
#
# 1 0.021683 -0.004399 0.001571 0.000000 0.000000 0.000000
# 2 -0.004399 0.009167 -0.000275 0.000000 0.000000 0.000000
# 3 0.001571 -0.000275 0.011759 0.000000 0.000000 0.000000
# 4 0.000000 0.000000 0.000000 -0.057140 0.000000 0.000000
# 5 0.000000 0.000000 0.000000 0.000000 0.094001 0.000000
# 6 0.000000 0.000000 0.000000 0.000000 0.000000 0.033545
#
#
# Mechanical properties :
#
#
# Convention : Reuss Voigt Hill
#
# Bulk Modulus (GPa) = 27.47065 32.65129 30.06097
# Shear Modulus (GPa) = 38.06412 20.62253 29.34332
#
# Velocity S-wave (km/s) = 4.26820 3.14165 3.74750
# Velocity P-wave (km/s) = 6.11862 5.36534 5.75432
#
# Compressibility (1/GPa) = 0.03640249
#
# Stress axis : x y z
#
# Youngs Moduli (GPa) = 46.11843 109.08747 85.03807
#
# Poissons Ratio (x) = 0.47989 -0.13357
# Poissons Ratio (y) = 0.20288 0.02340
# Poissons Ratio (z) = -0.07244 0.03002
#
# Static dielectric constant tensor:
#      x y z
#    x 1.754020 0.000000 0.000000 
#    y 0.000000 1.766520 0.000000 
#    z 0.000000 0.000000 1.557590 
# 
# From -- ./inp_files/16711.got.cif
#   From: 2010.05.17/outbox.cif.g08.bks.cpg/sg65_9_cif.got.tgz:16711.got - 2010.06.03 17:01:31.
