data_PCOD9487519
_publ_section_title
;
Structure prediction by ZEFSAII (Michael W. Deem and Ramdas Pophale) SiO2 
 PCOD9487519
Probable space group: C M M M
;
_chemical_formula_sum "Si O2"
_cell_formula_units_Z 100
_cell_length_a 7.678507
_cell_length_b 25.742181
_cell_length_c 20.762937
_cell_angle_alpha 90.000000
_cell_angle_beta 90.000000
_cell_angle_gamma 90.000000
_cell_volume 4104.033625
_symmetry_space_group_name_H-M "C M M M"
_symmetry_group_IT_number 65
_symmetry_cell_setting 'orthorhombic'
loop_
_space_group_symop_operation_xyz
x,y,z
-x,-y,z
x,-y,-z
-x,y,-z
-x,-y,-z
x,y,-z
-x,y,z
x,-y,z
1/2+x,1/2+y,z
1/2-x,1/2-y,z
1/2+x,1/2-y,-z
1/2-x,1/2+y,-z
1/2-x,1/2-y,-z
1/2+x,1/2+y,-z
1/2-x,1/2+y,z
1/2+x,1/2-y,z
loop_
_atom_site_type_symbol
_atom_site_label
_atom_site_fract_x
_atom_site_fract_y
_atom_site_fract_z
Si Si1 0.692262 0.806598 0.423121
Si Si2 0.292348 0.944215 0.145710
Si Si3 0.293010 0.306152 0.240017
Si Si4 0.789821 0.915401 0.708487
Si Si5 0.801320 0.078996 0.571782
Si Si6 0.797976 0.332378 0.901780
Si Si7 0.500000 0.699923 0.000000
O O1 0.679133 0.800401 0.500000
O O2 0.500000 0.818477 0.398254
O O3 0.750000 0.750000 0.399913
O O4 0.805956 0.858410 0.417955
O O5 0.500000 0.944378 0.137733
O O6 0.258461 0.939309 0.222365
O O7 0.236006 0.892658 0.107694
O O8 0.221885 0.000000 0.123506
O O9 0.500000 0.311089 0.231140
O O10 0.250000 0.250000 0.266328
O O11 0.236886 0.355059 0.282518
O O12 0.204681 0.310942 0.170576
O O13 0.722642 0.938258 0.640594
O O14 0.000000 0.918313 0.704614
O O15 0.723130 0.069208 0.500000
O O16 0.000000 0.060203 0.568626
O O17 0.655215 0.304175 0.944633
O O18 0.000000 0.329870 0.925119
#
# Coordination Sequence:
#
# PCOD9487519 Si02
#       7
#    16  16  16  16  16  16   4
#     4   9  16  25  37  54  79 117 162 206 256 314
#     4   9  19  37  61  87 113 145 187 235 285 339
#     4  10  19  35  57  80 111 150 200 253 294 340
#     4   9  19  33  52  81 108 141 189 239 293 347
#     4   9  17  30  46  66  99 138 176 224 284 349
#     4  10  21  39  62  88 124 163 196 240 290 335
#     4  12  22  40  63  92 130 164 196 234 279 352
#
# _framework density 24.366271999999999
#
# number of rings (size 3 to 8) (size 9 to 14) (size 15 to 20)
#    0.000    2.560    0.800    1.200    1.120    4.160 
#    0.000    2.800    0.000    2.400    0.000    3.360 
#    0.000    0.000    0.000    0.000    0.000    0.000 
#
# Total GULP energy -278557.692245 kJ/mol
# GULP energy per Si atom -5571.153845 kJ/mol
# Density = 2.431081 g / cm^3
# Si number density = 24.366272 Si / 1000 Ang^3
#
#
#
# Elastic Constant Matrix: (Units=GPa)
#
#
# Indices 1 2 3 4 5 6 
#
# 1 105.9773 15.0618 31.1521 0.0000 0.0000 0.0000
# 2 15.0618 115.0727 -9.6766 0.0000 0.0000 0.0000
# 3 31.1521 -9.6766 125.3371 0.0000 0.0000 0.0000
# 4 0.0000 0.0000 0.0000 -18.8812 0.0000 0.0000
# 5 0.0000 0.0000 0.0000 0.0000 497.7595 0.0000
# 6 0.0000 0.0000 0.0000 0.0000 0.0000 -7.2859
#
#
#
# Elastic Compliance Matrix: (Units=1/GPa)
#
#
# Indices 1 2 3 4 5 6 
#
# 1 0.010464 -0.001599 -0.002724 0.000000 0.000000 0.000000
# 2 -0.001599 0.008991 0.001092 0.000000 0.000000 0.000000
# 3 -0.002724 0.001092 0.008740 0.000000 0.000000 0.000000
# 4 0.000000 0.000000 0.000000 -0.052963 0.000000 0.000000
# 5 0.000000 0.000000 0.000000 0.000000 0.002009 0.000000
# 6 0.000000 0.000000 0.000000 0.000000 0.000000 -0.137252
#
#
# Mechanical properties :
#
#
# Convention : Reuss Voigt Hill
#
# Bulk Modulus (GPa) = 46.01464 46.60687 46.31076
# Shear Modulus (GPa) = -34.17542 114.97514 40.39986
#
# Velocity S-wave (km/s) = -3.74915 6.87667 4.07630
# Velocity P-wave (km/s) = 0.42898 9.06756 6.41890
#
# Compressibility (1/GPa) = 0.02173221
#
# Stress axis : x y z
#
# Youngs Moduli (GPa) = 95.56591 111.21986 114.41844
#
# Poissons Ratio (x) = 0.17781 0.31170
# Poissons Ratio (y) = 0.15278 -0.12489
# Poissons Ratio (z) = 0.26034 -0.12140
#
# Static dielectric constant tensor:
#      x y z
#    x 1.909620 0.000000 0.000000 
#    y 0.000000 1.996040 0.000000 
#    z 0.000000 0.000000 1.950750 
# 
# From -- ./inp_files/60399.got.cif
#   From: 2010.05.17/outbox.cif.g08.bks.cpg/sg65_31_cif.got.tgz:60399.got - 2010.06.03 17:01:31.
