data_PCOD9487794
_publ_section_title
;
Structure prediction by ZEFSAII (Michael W. Deem and Ramdas Pophale) SiO2 
 PCOD9487794
Probable space group: C M M M
;
_chemical_formula_sum "Si O2"
_cell_formula_units_Z 88
_cell_length_a 31.437456
_cell_length_b 20.478885
_cell_length_c 8.521089
_cell_angle_alpha 90.000000
_cell_angle_beta 90.000000
_cell_angle_gamma 90.000000
_cell_volume 5485.911576
_symmetry_space_group_name_H-M "C M M M"
_symmetry_group_IT_number 65
_symmetry_cell_setting 'orthorhombic'
loop_
_space_group_symop_operation_xyz
x,y,z
-x,-y,z
x,-y,-z
-x,y,-z
-x,-y,-z
x,y,-z
-x,y,z
x,-y,z
1/2+x,1/2+y,z
1/2-x,1/2-y,z
1/2+x,1/2-y,-z
1/2-x,1/2+y,-z
1/2-x,1/2-y,-z
1/2+x,1/2+y,-z
1/2-x,1/2+y,z
1/2+x,1/2-y,z
loop_
_atom_site_type_symbol
_atom_site_label
_atom_site_fract_x
_atom_site_fract_y
_atom_site_fract_z
Si Si1 0.235350 0.572119 0.311857
Si Si2 0.830186 0.073307 0.185166
Si Si3 0.051743 0.000000 0.678836
Si Si4 0.206519 0.713169 0.309088
Si Si5 0.371455 0.299220 0.316082
Si Si6 0.451749 0.640927 0.813397
O O1 0.244219 0.576252 0.500000
O O2 0.216284 0.500000 0.282954
O O3 0.279912 0.575102 0.220895
O O4 0.209223 0.636705 0.269252
O O5 0.850625 0.130083 0.286186
O O6 0.844940 0.000000 0.225342
O O7 0.838112 0.084428 0.000000
O O8 0.062838 0.068399 0.760127
O O9 0.066963 0.000000 0.500000
O O10 0.000000 0.000000 0.678164
O O11 0.206216 0.718482 0.500000
O O12 0.250000 0.750000 0.257145
O O13 0.163641 0.748415 0.252038
O O14 0.376639 0.287400 0.500000
O O15 0.417880 0.305562 0.241214
O O16 0.500000 0.651459 0.753299
O O17 0.452993 0.640406 0.000000
#
# Coordination Sequence:
#
# PCOD9487794 Si02
#       6
#    16  16   8  16  16  16
#     4   9  16  29  49  67  87 121 160 191 225 273
#     4  10  20  31  42  61  91 122 155 195 234 270
#     4   9  17  31  51  71  89 115 155 195 231 275
#     4   9  16  29  46  68  96 120 149 192 232 266
#     4  11  21  32  49  67  88 121 157 194 231 275
#     4  10  21  36  50  65  90 119 149 192 240 277
#
# _framework density 16.041090000000001
#
# number of rings (size 3 to 8) (size 9 to 14) (size 15 to 20)
#    0.000    2.273    1.818    1.909    1.273    3.273 
#    0.000    2.727    0.000    0.000    0.000    0.000 
#    0.000    0.727    0.000    9.091    0.000    1.455 
#
# Total GULP energy -245329.102999 kJ/mol
# GULP energy per Si atom -5575.661432 kJ/mol
# Density = 1.600458 g / cm^3
# Si number density = 16.041090 Si / 1000 Ang^3
#
#
#
# Elastic Constant Matrix: (Units=GPa)
#
#
# Indices 1 2 3 4 5 6 
#
# 1 97.3883 54.6204 11.1951 0.0000 0.0000 0.0000
# 2 54.6204 88.6156 7.3327 0.0000 0.0000 0.0000
# 3 11.1951 7.3327 20.4689 0.0000 0.0000 0.0000
# 4 0.0000 0.0000 0.0000 2.7664 0.0000 0.0000
# 5 0.0000 0.0000 0.0000 0.0000 14.2823 0.0000
# 6 0.0000 0.0000 0.0000 0.0000 0.0000 31.0170
#
#
#
# Elastic Compliance Matrix: (Units=1/GPa)
#
#
# Indices 1 2 3 4 5 6 
#
# 1 0.016266 -0.009574 -0.005467 0.000000 0.000000 0.000000
# 2 -0.009574 0.017264 -0.000949 0.000000 0.000000 0.000000
# 3 -0.005467 -0.000949 0.052184 0.000000 0.000000 0.000000
# 4 0.000000 0.000000 0.000000 0.361480 0.000000 0.000000
# 5 0.000000 0.000000 0.000000 0.000000 0.070017 0.000000
# 6 0.000000 0.000000 0.000000 0.000000 0.000000 0.032240
#
#
# Mechanical properties :
#
#
# Convention : Reuss Voigt Hill
#
# Bulk Modulus (GPa) = 18.60923 39.19655 28.90289
# Shear Modulus (GPa) = 8.34248 18.50145 13.42196
#
# Velocity S-wave (km/s) = 2.28298 3.39983 2.89576
# Velocity P-wave (km/s) = 4.30993 6.31664 5.40719
#
# Compressibility (1/GPa) = 0.05373677
#
# Stress axis : x y z
#
# Youngs Moduli (GPa) = 61.47816 57.92373 19.16280
#
# Poissons Ratio (x) = 0.55454 0.10476
# Poissons Ratio (y) = 0.58856 0.01818
# Poissons Ratio (z) = 0.33609 0.05494
#
# Static dielectric constant tensor:
#      x y z
#    x 1.574420 0.000000 0.000000 
#    y 0.000000 1.541580 0.000000 
#    z 0.000000 0.000000 1.547400 
# 
# From -- ./inp_files/12650.got.cif
#   From: 2010.05.17/outbox.cif.g08.bks.cpg/sg65_7_cif.got.tgz:12650.got - 2010.06.03 17:01:31.
