data_PCOD9487332
_publ_section_title
;
Structure prediction by ZEFSAII (Michael W. Deem and Ramdas Pophale) SiO2 
 PCOD9487332
Probable space group: C M M M
;
_chemical_formula_sum "Si O2"
_cell_formula_units_Z 96
_cell_length_a 27.148099
_cell_length_b 14.674043
_cell_length_c 12.803795
_cell_angle_alpha 90.000000
_cell_angle_beta 90.000000
_cell_angle_gamma 90.000000
_cell_volume 5100.678186
_symmetry_space_group_name_H-M "C M M M"
_symmetry_group_IT_number 65
_symmetry_cell_setting 'orthorhombic'
loop_
_space_group_symop_operation_xyz
x,y,z
-x,-y,z
x,-y,-z
-x,y,-z
-x,-y,-z
x,y,-z
-x,y,z
x,-y,z
1/2+x,1/2+y,z
1/2-x,1/2-y,z
1/2+x,1/2-y,-z
1/2-x,1/2+y,-z
1/2-x,1/2-y,-z
1/2+x,1/2+y,-z
1/2-x,1/2+y,z
1/2+x,1/2-y,z
loop_
_atom_site_type_symbol
_atom_site_label
_atom_site_fract_x
_atom_site_fract_y
_atom_site_fract_z
Si Si1 0.393705 0.389739 0.685337
Si Si2 0.180543 0.890713 0.500000
Si Si3 0.291004 0.110966 0.500000
Si Si4 0.148428 0.609608 0.294119
Si Si5 0.664080 0.396132 0.883819
Si Si6 0.556081 0.216203 0.624433
Si Si7 0.271133 0.147979 0.120175
O O1 0.402877 0.500000 0.683339
O O2 0.350844 0.368487 0.601866
O O3 0.371936 0.358122 0.796699
O O4 0.437450 0.323317 0.652016
O O5 0.235379 0.853764 0.500000
O O6 0.184747 0.000000 0.500000
O O7 0.319658 0.137284 0.604259
O O8 0.289692 0.000000 0.500000
O O9 0.141573 0.500000 0.294970
O O10 0.096475 0.660170 0.309732
O O11 0.182353 0.634059 0.194368
O O12 0.647598 0.500000 0.894875
O O13 0.720667 0.401526 0.845817
O O14 0.663527 0.353165 0.000000
O O15 0.565515 0.203911 0.500000
O O16 0.500000 0.187558 0.645298
O O17 0.250000 0.250000 0.121693
O O18 0.282228 0.122027 0.000000
#
# Coordination Sequence:
#
# PCOD9487332 Si02
#       7
#    16   8   8  16  16  16  16
#     4  10  19  34  56  83 116 149 182 227 285 354
#     4   9  16  27  47  78 113 145 172 208 268 338
#     4   9  18  31  49  78 113 147 182 224 272 330
#     4  11  22  38  58  83 115 151 196 242 286 337
#     4   9  17  30  51  80 114 151 184 211 251 321
#     4  11  24  41  59  80 106 140 192 252 307 356
#     4  10  20  34  55  86 122 156 190 226 268 329
#
# _framework density 18.821027999999998
#
# number of rings (size 3 to 8) (size 9 to 14) (size 15 to 20)
#    0.000    2.000    1.667    2.500    0.000    4.333 
#    0.000    2.917    0.000    2.000    0.000    3.500 
#    0.000    0.000    0.000    0.000    0.000    0.000 
#
# Total GULP energy -267616.352701 kJ/mol
# GULP energy per Si atom -5575.340681 kJ/mol
# Density = 1.877819 g / cm^3
# Si number density = 18.821028 Si / 1000 Ang^3
#
#
#
# Elastic Constant Matrix: (Units=GPa)
#
#
# Indices 1 2 3 4 5 6 
#
# 1 95.6619 17.7067 38.8044 0.0000 0.0000 0.0000
# 2 17.7067 62.9011 7.1952 0.0000 0.0000 0.0000
# 3 38.8044 7.1952 81.5306 0.0000 0.0000 0.0000
# 4 0.0000 0.0000 0.0000 10.4066 0.0000 0.0000
# 5 0.0000 0.0000 0.0000 0.0000 22.2920 0.0000
# 6 0.0000 0.0000 0.0000 0.0000 0.0000 23.6386
#
#
#
# Elastic Compliance Matrix: (Units=1/GPa)
#
#
# Indices 1 2 3 4 5 6 
#
# 1 0.013529 -0.003103 -0.006165 0.000000 0.000000 0.000000
# 2 -0.003103 0.016772 -0.000003 0.000000 0.000000 0.000000
# 3 -0.006165 -0.000003 0.015200 0.000000 0.000000 0.000000
# 4 0.000000 0.000000 0.000000 0.096092 0.000000 0.000000
# 5 0.000000 0.000000 0.000000 0.000000 0.044859 0.000000
# 6 0.000000 0.000000 0.000000 0.000000 0.000000 0.042304
#
#
# Mechanical properties :
#
#
# Convention : Reuss Voigt Hill
#
# Bulk Modulus (GPa) = 37.09531 40.83400 38.96465
# Shear Modulus (GPa) = 19.50956 23.02659 21.26807
#
# Velocity S-wave (km/s) = 3.22309 3.50158 3.36522
# Velocity P-wave (km/s) = 5.79684 6.17180 5.98726
#
# Compressibility (1/GPa) = 0.02695759
#
# Stress axis : x y z
#
# Youngs Moduli (GPa) = 73.91705 59.62361 65.78990
#
# Poissons Ratio (x) = 0.18502 0.40560
# Poissons Ratio (y) = 0.22937 0.00021
# Poissons Ratio (z) = 0.45571 0.00019
#
# Static dielectric constant tensor:
#      x y z
#    x 1.629790 0.000000 0.000000 
#    y 0.000000 1.938200 0.000000 
#    z 0.000000 0.000000 1.723140 
# 
# From -- ./inp_files/45700.got.cif
#   From: 2010.05.17/outbox.cif.g08.bks.cpg/sg65_23_cif.got.tgz:45700.got - 2010.06.03 17:01:31.
