data_PCOD9487958
_publ_section_title
;
Structure prediction by ZEFSAII (Michael W. Deem and Ramdas Pophale) SiO2 
 PCOD9487958
Probable space group: C M M M
;
_chemical_formula_sum "Si O2"
_cell_formula_units_Z 104
_cell_length_a 9.331968
_cell_length_b 28.468259
_cell_length_c 23.531844
_cell_angle_alpha 90.000000
_cell_angle_beta 90.000000
_cell_angle_gamma 90.000000
_cell_volume 6251.584560
_symmetry_space_group_name_H-M "C M M M"
_symmetry_group_IT_number 65
_symmetry_cell_setting 'orthorhombic'
loop_
_space_group_symop_operation_xyz
x,y,z
-x,-y,z
x,-y,-z
-x,y,-z
-x,-y,-z
x,y,-z
-x,y,z
x,-y,z
1/2+x,1/2+y,z
1/2-x,1/2-y,z
1/2+x,1/2-y,-z
1/2-x,1/2+y,-z
1/2-x,1/2-y,-z
1/2+x,1/2+y,-z
1/2-x,1/2+y,z
1/2+x,1/2-y,z
loop_
_atom_site_type_symbol
_atom_site_label
_atom_site_fract_x
_atom_site_fract_y
_atom_site_fract_z
Si Si1 0.160810 0.794766 0.259308
Si Si2 0.335774 0.371180 0.359438
Si Si3 0.674259 0.554362 0.731919
Si Si4 0.329160 0.094973 0.066756
Si Si5 0.666260 0.201846 0.431544
Si Si6 0.338399 0.500000 0.931713
Si Si7 0.326460 0.629468 0.828983
O O1 0.250000 0.750000 0.274974
O O2 0.157822 0.832763 0.309198
O O3 0.212952 0.823476 0.204821
O O4 0.000000 0.779099 0.247791
O O5 0.500000 0.378671 0.379891
O O6 0.283146 0.417973 0.326125
O O7 0.238894 0.344922 0.405768
O O8 0.500000 0.554784 0.731168
O O9 0.721109 0.500000 0.734789
O O10 0.714541 0.585796 0.787048
O O11 0.500000 0.092288 0.074099
O O12 0.254071 0.128885 0.111431
O O13 0.252647 0.045746 0.081819
O O14 0.301242 0.104911 0.000000
O O15 0.670849 0.199234 0.500000
O O16 0.500000 0.205487 0.413508
O O17 0.750000 0.250000 0.415372
O O18 0.500000 0.500000 0.907019
O O19 0.352729 0.500000 0.000000
O O20 0.500000 0.627504 0.835720
#
# Coordination Sequence:
#
# PCOD9487958 Si02
#       7
#    16  16  16  16  16   8  16
#     4   9  18  31  47  70  97 122 153 195 238 283
#     4   9  17  30  49  73  99 127 160 195 235 282
#     4   8  15  29  49  72  97 125 159 199 237 273
#     4  10  20  32  45  65  95 124 151 190 237 282
#     4  10  20  32  47  70 100 131 162 197 238 283
#     4   9  17  29  45  63  83 115 155 185 216 265
#     4   9  18  31  48  71  94 120 158 195 231 283
#
# _framework density 16.635781999999999
#
# number of rings (size 3 to 8) (size 9 to 14) (size 15 to 20)
#    0.000    2.846    0.000    3.462    1.077    5.231 
#    0.000    2.308    0.000    2.308    0.000    3.231 
#    0.000    0.000    0.000    0.000    0.000    0.000 
#
# Total GULP energy -289515.164582 kJ/mol
# GULP energy per Si atom -5567.599319 kJ/mol
# Density = 1.659792 g / cm^3
# Si number density = 16.635782 Si / 1000 Ang^3
#
#
#
# Elastic Constant Matrix: (Units=GPa)
#
#
# Indices 1 2 3 4 5 6 
#
# 1 47.1360 15.5712 27.3076 0.0000 0.0000 0.0000
# 2 15.5712 52.9546 11.1884 0.0000 0.0000 0.0000
# 3 27.3076 11.1884 53.6047 0.0000 0.0000 0.0000
# 4 0.0000 0.0000 0.0000 17.2476 0.0000 0.0000
# 5 0.0000 0.0000 0.0000 0.0000 23.3164 0.0000
# 6 0.0000 0.0000 0.0000 0.0000 0.0000 11.4518
#
#
#
# Elastic Compliance Matrix: (Units=1/GPa)
#
#
# Indices 1 2 3 4 5 6 
#
# 1 0.031949 -0.006231 -0.014975 0.000000 0.000000 0.000000
# 2 -0.006231 0.020970 -0.001203 0.000000 0.000000 0.000000
# 3 -0.014975 -0.001203 0.026535 0.000000 0.000000 0.000000
# 4 0.000000 0.000000 0.000000 0.057979 0.000000 0.000000
# 5 0.000000 0.000000 0.000000 0.000000 0.042888 0.000000
# 6 0.000000 0.000000 0.000000 0.000000 0.000000 0.087323
#
#
# Mechanical properties :
#
#
# Convention : Reuss Voigt Hill
#
# Bulk Modulus (GPa) = 28.87093 29.09219 28.98156
# Shear Modulus (GPa) = 15.43173 17.04503 16.23838
#
# Velocity S-wave (km/s) = 3.04899 3.20441 3.12767
# Velocity P-wave (km/s) = 5.45780 5.58719 5.52287
#
# Compressibility (1/GPa) = 0.03463692
#
# Stress axis : x y z
#
# Youngs Moduli (GPa) = 31.29971 47.68635 37.68620
#
# Poissons Ratio (x) = 0.29711 0.56436
# Poissons Ratio (y) = 0.19501 0.04533
# Poissons Ratio (z) = 0.46872 0.05736
#
# Static dielectric constant tensor:
#      x y z
#    x 1.568560 0.000000 0.000000 
#    y 0.000000 1.594340 0.000000 
#    z 0.000000 0.000000 1.581860 
# 
# From -- ./inp_files/68227.got.cif
#   From: 2010.05.17/outbox.cif.g08.bks.cpg/sg65_35_cif.got.tgz:68227.got - 2010.06.03 17:01:31.
