data_PCOD9487462
_publ_section_title
;
Structure prediction by ZEFSAII (Michael W. Deem and Ramdas Pophale) SiO2 
 PCOD9487462
Probable space group: C M M M
;
_chemical_formula_sum "Si O2"
_cell_formula_units_Z 112
_cell_length_a 15.778303
_cell_length_b 24.044152
_cell_length_c 14.173732
_cell_angle_alpha 90.000000
_cell_angle_beta 90.000000
_cell_angle_gamma 90.000000
_cell_volume 5377.172555
_symmetry_space_group_name_H-M "C M M M"
_symmetry_group_IT_number 65
_symmetry_cell_setting 'orthorhombic'
loop_
_space_group_symop_operation_xyz
x,y,z
-x,-y,z
x,-y,-z
-x,y,-z
-x,-y,-z
x,y,-z
-x,y,z
x,-y,z
1/2+x,1/2+y,z
1/2-x,1/2-y,z
1/2+x,1/2-y,-z
1/2-x,1/2+y,-z
1/2-x,1/2-y,-z
1/2+x,1/2+y,-z
1/2-x,1/2+y,z
1/2+x,1/2-y,z
loop_
_atom_site_type_symbol
_atom_site_label
_atom_site_fract_x
_atom_site_fract_y
_atom_site_fract_z
Si Si1 0.092169 0.852995 0.858531
Si Si2 0.734629 0.563522 0.187444
Si Si3 0.339342 0.234243 0.107621
Si Si4 0.905120 0.615859 0.114590
Si Si5 0.405079 0.687077 0.354035
Si Si6 0.404219 0.812699 0.613215
Si Si7 0.746546 0.608828 0.605990
O O1 0.170439 0.894992 0.867604
O O2 0.108958 0.791199 0.897093
O O3 0.088720 0.840910 0.747504
O O4 0.000000 0.873979 0.889638
O O5 0.715409 0.500000 0.164440
O O6 0.829426 0.579623 0.156287
O O7 0.727590 0.572025 0.301381
O O8 0.250000 0.250000 0.155851
O O9 0.387022 0.180122 0.145325
O O10 0.318333 0.217192 0.000000
O O11 0.000000 0.599855 0.144140
O O12 0.903167 0.612690 0.000000
O O13 0.500000 0.683725 0.396418
O O14 0.384989 0.752294 0.343813
O O15 0.328721 0.654192 0.400935
O O16 0.403445 0.803369 0.500000
O O17 0.500000 0.829333 0.639840
O O18 0.332885 0.858229 0.630619
O O19 0.754709 0.583428 0.500000
#
# Coordination Sequence:
#
# PCOD9487462 Si02
#       7
#    16  16  16  16  16  16  16
#     4  10  21  36  57  85 118 157 195 238 294 354
#     4  11  25  42  60  83 115 157 207 259 300 343
#     4  10  19  34  60  94 128 157 184 227 292 362
#     4  10  22  41  66  95 124 154 191 239 295 355
#     4   9  18  30  49  80 114 147 184 230 287 353
#     4   9  17  29  47  74 107 140 174 220 283 352
#     4  10  21  36  55  78 108 150 198 245 295 346
#
# _framework density 20.828790000000001
#
# number of rings (size 3 to 8) (size 9 to 14) (size 15 to 20)
#    0.000    2.143    1.429    1.286    2.000    4.571 
#    0.000    0.714    0.000    0.000    0.000    9.000 
#    0.000    0.000    0.000    0.000    0.000    0.000 
#
# Total GULP energy -312410.741578 kJ/mol
# GULP energy per Si atom -5578.763242 kJ/mol
# Density = 2.078138 g / cm^3
# Si number density = 20.828790 Si / 1000 Ang^3
#
#
#
# Elastic Constant Matrix: (Units=GPa)
#
#
# Indices 1 2 3 4 5 6 
#
# 1 86.4191 -1.1984 6.4610 0.0000 0.0000 0.0000
# 2 -1.1984 52.8260 -4.9385 0.0000 0.0000 0.0000
# 3 6.4610 -4.9385 56.1316 0.0000 0.0000 0.0000
# 4 0.0000 0.0000 0.0000 11.7543 0.0000 0.0000
# 5 0.0000 0.0000 0.0000 0.0000 -54.0139 0.0000
# 6 0.0000 0.0000 0.0000 0.0000 0.0000 1.5699
#
#
#
# Elastic Compliance Matrix: (Units=1/GPa)
#
#
# Indices 1 2 3 4 5 6 
#
# 1 0.011673 0.000140 -0.001331 0.000000 0.000000 0.000000
# 2 0.000140 0.019089 0.001663 0.000000 0.000000 0.000000
# 3 -0.001331 0.001663 0.018115 0.000000 0.000000 0.000000
# 4 0.000000 0.000000 0.000000 0.085075 0.000000 0.000000
# 5 0.000000 0.000000 0.000000 0.000000 -0.018514 0.000000
# 6 0.000000 0.000000 0.000000 0.000000 0.000000 0.636987
#
#
# Mechanical properties :
#
#
# Convention : Reuss Voigt Hill
#
# Bulk Modulus (GPa) = 20.07172 21.78055 20.92614
# Shear Modulus (GPa) = 6.50967 4.86556 5.68762
#
# Velocity S-wave (km/s) = 1.76978 1.53005 1.65426
# Velocity P-wave (km/s) = 3.71935 3.68796 3.70369
#
# Compressibility (1/GPa) = 0.04982134
#
# Stress axis : x y z
#
# Youngs Moduli (GPa) = 85.66784 52.38688 55.20332
#
# Poissons Ratio (x) = -0.00735 0.07349
# Poissons Ratio (y) = -0.01202 -0.09182
# Poissons Ratio (z) = 0.11405 -0.08713
#
# Static dielectric constant tensor:
#      x y z
#    x 1.770680 0.000000 0.000000 
#    y 0.000000 1.703260 0.000000 
#    z 0.000000 0.000000 1.846920 
# 
# From -- ./inp_files/40797.got.cif
#   From: 2010.05.17/outbox.cif.g08.bks.cpg/sg65_21_cif.got.tgz:40797.got - 2010.06.03 17:01:31.
