data_PCOD9487389
_publ_section_title
;
Structure prediction by ZEFSAII (Michael W. Deem and Ramdas Pophale) SiO2 
 PCOD9487389
Probable space group: C M M M
;
_chemical_formula_sum "Si O2"
_cell_formula_units_Z 88
_cell_length_a 18.943398
_cell_length_b 10.971302
_cell_length_c 22.288071
_cell_angle_alpha 90.000000
_cell_angle_beta 90.000000
_cell_angle_gamma 90.000000
_cell_volume 4632.213161
_symmetry_space_group_name_H-M "C M M M"
_symmetry_group_IT_number 65
_symmetry_cell_setting 'orthorhombic'
loop_
_space_group_symop_operation_xyz
x,y,z
-x,-y,z
x,-y,-z
-x,y,-z
-x,-y,-z
x,y,-z
-x,y,z
x,-y,z
1/2+x,1/2+y,z
1/2-x,1/2-y,z
1/2+x,1/2-y,-z
1/2-x,1/2+y,-z
1/2-x,1/2-y,-z
1/2+x,1/2+y,-z
1/2-x,1/2+y,z
1/2+x,1/2-y,z
loop_
_atom_site_type_symbol
_atom_site_label
_atom_site_fract_x
_atom_site_fract_y
_atom_site_fract_z
Si Si1 0.664539 0.248739 0.637418
Si Si2 0.578608 0.143074 0.000000
Si Si3 0.205740 0.130389 0.928223
Si Si4 0.584332 0.857671 0.253533
Si Si5 0.666011 0.000000 0.431705
Si Si6 0.162665 0.000000 0.430336
Si Si7 0.583620 0.742518 0.875555
O O1 0.750000 0.250000 0.643603
O O2 0.627114 0.227612 0.701021
O O3 0.643129 0.374599 0.604169
O O4 0.645043 0.126352 0.600095
O O5 0.604940 0.180802 0.065048
O O6 0.500000 0.196979 0.000000
O O7 0.576326 0.000000 0.000000
O O8 0.250000 0.250000 0.912795
O O9 0.136492 0.132019 0.886660
O O10 0.243161 0.000000 0.920353
O O11 0.188501 0.137407 0.000000
O O12 0.500000 0.848367 0.264731
O O13 0.596830 0.815445 0.185310
O O14 0.604456 0.000000 0.261157
O O15 0.640985 0.000000 0.500000
O O16 0.751645 0.000000 0.432065
O O17 0.138600 0.000000 0.500000
O O18 0.500000 0.713662 0.876408
#
# Coordination Sequence:
#
# PCOD9487389 Si02
#       7
#    16   8  16  16   8   8  16
#     4  10  19  34  57  86 118 154 194 236 287 345
#     4   9  16  28  50  81 110 135 179 241 298 351
#     4  10  22  40  59  85 119 153 187 233 299 364
#     4  10  21  38  58  82 117 158 199 243 293 347
#     4   9  16  30  57  89 117 146 189 240 284 334
#     4   9  18  32  55  89 121 148 187 244 296 334
#     4  10  20  36  58  85 111 147 196 251 303 349
#
# _framework density 18.997398
#
# number of rings (size 3 to 8) (size 9 to 14) (size 15 to 20)
#    0.000    2.273    1.818    1.091    0.000    6.909 
#    1.636    1.364    0.000    3.273    0.000    0.000 
#    0.000    0.000    0.000    0.000    0.000    0.000 
#
# Total GULP energy -244972.625225 kJ/mol
# GULP energy per Si atom -5567.559664 kJ/mol
# Density = 1.895416 g / cm^3
# Si number density = 18.997398 Si / 1000 Ang^3
#
#
#
# Elastic Constant Matrix: (Units=GPa)
#
#
# Indices 1 2 3 4 5 6 
#
# 1 45.7667 40.9302 37.9674 0.0000 0.0000 0.0000
# 2 40.9302 158.3823 77.3424 0.0000 0.0000 0.0000
# 3 37.9674 77.3424 131.0726 0.0000 0.0000 0.0000
# 4 0.0000 0.0000 0.0000 23.0700 0.0000 0.0000
# 5 0.0000 0.0000 0.0000 0.0000 23.5426 0.0000
# 6 0.0000 0.0000 0.0000 0.0000 0.0000 18.9880
#
#
#
# Elastic Compliance Matrix: (Units=1/GPa)
#
#
# Indices 1 2 3 4 5 6 
#
# 1 0.031521 -0.005180 -0.006074 0.000000 0.000000 0.000000
# 2 -0.005180 0.009721 -0.004236 0.000000 0.000000 0.000000
# 3 -0.006074 -0.004236 0.011888 0.000000 0.000000 0.000000
# 4 0.000000 0.000000 0.000000 0.043346 0.000000 0.000000
# 5 0.000000 0.000000 0.000000 0.000000 0.042476 0.000000
# 6 0.000000 0.000000 0.000000 0.000000 0.000000 0.052665
#
#
# Mechanical properties :
#
#
# Convention : Reuss Voigt Hill
#
# Bulk Modulus (GPa) = 45.14433 71.96685 58.55559
# Shear Modulus (GPa) = 21.74095 25.05221 23.39658
#
# Velocity S-wave (km/s) = 3.38659 3.63536 3.51318
# Velocity P-wave (km/s) = 6.25356 7.45559 6.88087
#
# Compressibility (1/GPa) = 0.02215118
#
# Stress axis : x y z
#
# Youngs Moduli (GPa) = 31.72445 102.87265 84.11715
#
# Poissons Ratio (x) = 0.53285 0.51095
# Poissons Ratio (y) = 0.16432 0.35628
# Poissons Ratio (z) = 0.19270 0.43572
#
# Static dielectric constant tensor:
#      x y z
#    x 1.738160 0.000000 0.000000 
#    y 0.000000 1.694140 0.000000 
#    z 0.000000 0.000000 1.659440 
# 
# From -- ./inp_files/63643.got.cif
#   From: 2010.05.17/outbox.cif.g08.bks.cpg/sg65_32_cif.got.tgz:63643.got - 2010.06.03 17:01:31.
