data_PCOD9487251
_publ_section_title
;
Structure prediction by ZEFSAII (Michael W. Deem and Ramdas Pophale) SiO2 
 PCOD9487251
Probable space group: C M M M
;
_chemical_formula_sum "Si O2"
_cell_formula_units_Z 104
_cell_length_a 24.315804
_cell_length_b 8.437160
_cell_length_c 26.697991
_cell_angle_alpha 90.000000
_cell_angle_beta 90.000000
_cell_angle_gamma 90.000000
_cell_volume 5477.261822
_symmetry_space_group_name_H-M "C M M M"
_symmetry_group_IT_number 65
_symmetry_cell_setting 'orthorhombic'
loop_
_space_group_symop_operation_xyz
x,y,z
-x,-y,z
x,-y,-z
-x,y,-z
-x,-y,-z
x,y,-z
-x,y,z
x,-y,z
1/2+x,1/2+y,z
1/2-x,1/2-y,z
1/2+x,1/2-y,-z
1/2-x,1/2+y,-z
1/2-x,1/2-y,-z
1/2+x,1/2+y,-z
1/2-x,1/2+y,z
1/2+x,1/2-y,z
loop_
_atom_site_type_symbol
_atom_site_label
_atom_site_fract_x
_atom_site_fract_y
_atom_site_fract_z
Si Si1 0.380780 0.688048 0.443959
Si Si2 0.116041 0.310372 0.853689
Si Si3 0.000000 0.189593 0.182334
Si Si4 0.187920 0.690075 0.758328
Si Si5 0.000000 0.677997 0.559219
Si Si6 0.000000 0.807079 0.701219
Si Si7 0.310444 0.310292 0.057584
Si Si8 0.379838 0.692251 0.336625
O O1 0.367359 0.753473 0.500000
O O2 0.371231 0.500000 0.446700
O O3 0.445140 0.721328 0.433296
O O4 0.356901 0.748014 0.391018
O O5 0.115552 0.500000 0.853557
O O6 0.153336 0.255111 0.806752
O O7 0.143935 0.251691 0.904535
O O8 0.054792 0.249041 0.844548
O O9 0.000000 0.243508 0.240620
O O10 0.000000 0.000000 0.183006
O O11 0.187761 0.500000 0.757727
O O12 0.250000 0.750000 0.761204
O O13 0.158041 0.751753 0.708579
O O14 0.000000 0.500000 0.582163
O O15 0.000000 0.653293 0.500000
O O16 0.057167 0.754718 0.675546
O O17 0.000000 0.000000 0.699869
O O18 0.310054 0.500000 0.058503
O O19 0.250000 0.250000 0.073184
O O20 0.319436 0.257553 0.000000
O O21 0.380683 0.500000 0.337533
#
# Coordination Sequence:
#
# PCOD9487251 Si02
#       8
#    16  16   8  16   8   8  16  16
#     4   9  17  29  47  71 100 136 176 219 269 329
#     4  11  23  39  60  88 120 154 193 237 285 339
#     4  11  21  36  59  84 117 157 194 235 282 340
#     4  11  24  39  57  82 111 143 183 231 283 334
#     4   9  16  25  39  63  96 132 169 210 256 307
#     4   9  17  30  51  79 108 146 185 220 269 330
#     4  10  21  38  62  92 124 159 200 244 288 334
#     4  10  19  34  55  79 109 143 183 226 274 335
#
# _framework density 18.987590000000001
#
# number of rings (size 3 to 8) (size 9 to 14) (size 15 to 20)
#    0.000    1.923    1.538    2.769    0.000    6.769 
#    0.000    0.769    0.000    2.769    0.000    0.000 
#    0.000    0.000    0.000    0.000    0.000    0.000 
#
# Total GULP energy -290046.743684 kJ/mol
# GULP energy per Si atom -5577.821994 kJ/mol
# Density = 1.894437 g / cm^3
# Si number density = 18.987590 Si / 1000 Ang^3
#
#
#
# Elastic Constant Matrix: (Units=GPa)
#
#
# Indices 1 2 3 4 5 6 
#
# 1 124.4879 19.8248 78.9821 0.0000 0.0000 0.0000
# 2 19.8248 22.4132 25.9521 0.0000 0.0000 0.0000
# 3 78.9821 25.9521 147.9980 0.0000 0.0000 0.0000
# 4 0.0000 0.0000 0.0000 19.6177 0.0000 0.0000
# 5 0.0000 0.0000 0.0000 0.0000 5.1201 0.0000
# 6 0.0000 0.0000 0.0000 0.0000 0.0000 -9.3475
#
#
#
# Elastic Compliance Matrix: (Units=1/GPa)
#
#
# Indices 1 2 3 4 5 6 
#
# 1 0.012447 -0.004164 -0.005913 0.000000 0.000000 0.000000
# 2 -0.004164 0.057376 -0.007839 0.000000 0.000000 0.000000
# 3 -0.005913 -0.007839 0.011287 0.000000 0.000000 0.000000
# 4 0.000000 0.000000 0.000000 0.050974 0.000000 0.000000
# 5 0.000000 0.000000 0.000000 0.000000 0.195310 0.000000
# 6 0.000000 0.000000 0.000000 0.000000 0.000000 -0.106980
#
#
# Mechanical properties :
#
#
# Convention : Reuss Voigt Hill
#
# Bulk Modulus (GPa) = 22.08503 60.49077 41.28790
# Shear Modulus (GPa) = 18.42719 14.42073 16.42396
#
# Velocity S-wave (km/s) = 3.11864 2.75886 2.94425
# Velocity P-wave (km/s) = 4.96230 6.48657 5.77495
#
# Compressibility (1/GPa) = 0.04527954
#
# Stress axis : x y z
#
# Youngs Moduli (GPa) = 80.33895 17.42884 88.59844
#
# Poissons Ratio (x) = 0.07257 0.52385
# Poissons Ratio (y) = 0.33450 0.69454
# Poissons Ratio (z) = 0.47501 0.13663
#
# Static dielectric constant tensor:
#      x y z
#    x 1.681290 0.000000 0.000000 
#    y 0.000000 1.662410 0.000000 
#    z 0.000000 0.000000 1.701630 
# 
# From -- ./inp_files/71908.got.cif
#   From: 2010.05.17/outbox.cif.g08.bks.cpg/sg65_36_cif.got.tgz:71908.got - 2010.06.03 17:01:31.
