data_PCOD9487516
_publ_section_title
;
Structure prediction by ZEFSAII (Michael W. Deem and Ramdas Pophale) SiO2 
 PCOD9487516
Probable space group: C M M M
;
_chemical_formula_sum "Si O2"
_cell_formula_units_Z 80
_cell_length_a 24.352151
_cell_length_b 14.482320
_cell_length_c 13.943548
_cell_angle_alpha 90.000000
_cell_angle_beta 90.000000
_cell_angle_gamma 90.000000
_cell_volume 4917.549763
_symmetry_space_group_name_H-M "C M M M"
_symmetry_group_IT_number 65
_symmetry_cell_setting 'orthorhombic'
loop_
_space_group_symop_operation_xyz
x,y,z
-x,-y,z
x,-y,-z
-x,y,-z
-x,-y,-z
x,y,-z
-x,y,z
x,-y,z
1/2+x,1/2+y,z
1/2-x,1/2-y,z
1/2+x,1/2-y,-z
1/2-x,1/2+y,-z
1/2-x,1/2-y,-z
1/2+x,1/2+y,-z
1/2-x,1/2+y,z
1/2+x,1/2-y,z
loop_
_atom_site_type_symbol
_atom_site_label
_atom_site_fract_x
_atom_site_fract_y
_atom_site_fract_z
Si Si1 0.500000 0.393136 0.312741
Si Si2 0.239528 0.000000 0.113193
Si Si3 0.110952 0.299034 0.111893
Si Si4 0.500000 0.682230 0.892819
Si Si5 0.800694 0.181801 0.227965
Si Si6 0.871945 0.500000 0.111776
Si Si7 0.117832 0.111538 0.388123
O O1 0.500000 0.500000 0.342606
O O2 0.500000 0.385113 0.197702
O O3 0.442383 0.354485 0.352406
O O4 0.218193 0.091347 0.168052
O O5 0.305812 0.000000 0.116207
O O6 0.223370 0.000000 0.000000
O O7 0.053473 0.246302 0.115615
O O8 0.156548 0.239594 0.164479
O O9 0.107631 0.402810 0.152886
O O10 0.127337 0.306959 0.000000
O O11 0.500000 0.639748 0.000000
O O12 0.750000 0.250000 0.248480
O O13 0.833906 0.151076 0.322250
O O14 0.889547 0.500000 0.000000
O O15 0.124554 0.133409 0.500000
O O16 0.118696 0.000000 0.377443
#
# Coordination Sequence:
#
# PCOD9487516 Si02
#       7
#     8   8  16   8  16   8  16
#     4  10  19  35  57  80 106 139 176 213 265 325
#     4  11  22  34  50  78 113 150 184 211 253 315
#     4  10  20  34  52  77 109 143 178 218 260 314
#     4  10  20  33  51  78 112 143 174 214 264 317
#     4  12  22  34  55  80 108 144 181 218 266 320
#     4   9  18  33  52  74 104 142 185 220 249 297
#     4  10  21  38  58  79 104 135 177 229 274 317
#
# _framework density 16.268266000000001
#
# number of rings (size 3 to 8) (size 9 to 14) (size 15 to 20)
#    0.000    1.600    5.000    0.900    0.000    3.000 
#    0.000    2.000    0.000    0.000    0.000    0.000 
#    0.000    1.600    0.000    0.000    0.000    0.000 
#
# Total GULP energy -223008.045277 kJ/mol
# GULP energy per Si atom -5575.201132 kJ/mol
# Density = 1.623124 g / cm^3
# Si number density = 16.268266 Si / 1000 Ang^3
#
#
#
# Elastic Constant Matrix: (Units=GPa)
#
#
# Indices 1 2 3 4 5 6 
#
# 1 98.3496 23.7055 53.1402 0.0000 0.0000 0.0000
# 2 23.7055 62.9121 26.8833 0.0000 0.0000 0.0000
# 3 53.1402 26.8833 101.5414 0.0000 0.0000 0.0000
# 4 0.0000 0.0000 0.0000 13.4950 0.0000 0.0000
# 5 0.0000 0.0000 0.0000 0.0000 -42.3583 0.0000
# 6 0.0000 0.0000 0.0000 0.0000 0.0000 9.5689
#
#
#
# Elastic Compliance Matrix: (Units=1/GPa)
#
#
# Indices 1 2 3 4 5 6 
#
# 1 0.014519 -0.002508 -0.006934 0.000000 0.000000 0.000000
# 2 -0.002508 0.018356 -0.003547 0.000000 0.000000 0.000000
# 3 -0.006934 -0.003547 0.014416 0.000000 0.000000 0.000000
# 4 0.000000 0.000000 0.000000 0.074102 0.000000 0.000000
# 5 0.000000 0.000000 0.000000 0.000000 -0.023608 0.000000
# 6 0.000000 0.000000 0.000000 0.000000 0.000000 0.104505
#
#
# Mechanical properties :
#
#
# Convention : Reuss Voigt Hill
#
# Bulk Modulus (GPa) = 46.92103 52.25125 49.58614
# Shear Modulus (GPa) = 21.24287 6.74604 13.99445
#
# Velocity S-wave (km/s) = 3.61749 2.03857 2.93615
# Velocity P-wave (km/s) = 6.80830 6.14241 6.48391
#
# Compressibility (1/GPa) = 0.02131240
#
# Stress axis : x y z
#
# Youngs Moduli (GPa) = 68.87507 54.47816 69.36529
#
# Poissons Ratio (x) = 0.13661 0.48101
# Poissons Ratio (y) = 0.17271 0.24607
# Poissons Ratio (z) = 0.47761 0.19326
#
# Static dielectric constant tensor:
#      x y z
#    x 1.542030 0.000000 0.000000 
#    y 0.000000 1.558230 0.000000 
#    z 0.000000 0.000000 1.533500 
# 
# From -- ./inp_files/30487.got.cif
#   From: 2010.05.17/outbox.cif.g08.bks.cpg/sg65_16_cif.got.tgz:30487.got - 2010.06.03 17:01:31.
