data_PCOD9487990
_publ_section_title
;
Structure prediction by ZEFSAII (Michael W. Deem and Ramdas Pophale) SiO2 
 PCOD9487990
Probable space group: C M M M
;
_chemical_formula_sum "Si O2"
_cell_formula_units_Z 80
_cell_length_a 25.883951
_cell_length_b 10.185002
_cell_length_c 20.896968
_cell_angle_alpha 90.000000
_cell_angle_beta 90.000000
_cell_angle_gamma 90.000000
_cell_volume 5509.027817
_symmetry_space_group_name_H-M "C M M M"
_symmetry_group_IT_number 65
_symmetry_cell_setting 'orthorhombic'
loop_
_space_group_symop_operation_xyz
x,y,z
-x,-y,z
x,-y,-z
-x,y,-z
-x,-y,-z
x,y,-z
-x,y,z
x,-y,z
1/2+x,1/2+y,z
1/2-x,1/2-y,z
1/2+x,1/2-y,-z
1/2-x,1/2+y,-z
1/2-x,1/2-y,-z
1/2+x,1/2+y,-z
1/2-x,1/2+y,z
1/2+x,1/2-y,z
loop_
_atom_site_type_symbol
_atom_site_label
_atom_site_fract_x
_atom_site_fract_y
_atom_site_fract_z
Si Si1 0.440964 0.340667 0.000000
Si Si2 0.937196 0.151333 0.860053
Si Si3 0.175098 0.000000 0.423031
Si Si4 0.798516 0.500000 0.423521
Si Si5 0.438490 0.843915 0.256528
Si Si6 0.441311 0.157968 0.500000
Si Si7 0.128289 0.728870 0.619857
O O1 0.417744 0.306743 0.069182
O O2 0.443446 0.500000 0.000000
O O3 0.500000 0.290136 0.000000
O O4 0.924864 0.254510 0.804738
O O5 0.000000 0.147948 0.864383
O O6 0.921082 0.000000 0.846595
O O7 0.237075 0.000000 0.416525
O O8 0.151187 0.872761 0.389673
O O9 0.163987 0.000000 0.500000
O O10 0.809994 0.500000 0.500000
O O11 0.825531 0.625816 0.392114
O O12 0.500000 0.823618 0.270833
O O13 0.402460 0.800002 0.315168
O O14 0.431833 0.000000 0.245046
O O15 0.500000 0.204336 0.500000
O O16 0.411878 0.204992 0.437468
O O17 0.441087 0.000000 0.500000
#
# Coordination Sequence:
#
# PCOD9487990 Si02
#       7
#     8  16   8   8  16   8  16
#     4   7  10  20  39  61  87 119 158 195 224 260
#     4   8  14  25  42  64  89 123 162 195 226 262
#     4  11  24  36  54  74  94 107 148 207 255 292
#     4  11  20  38  58  72  86 117 154 195 243 296
#     4  10  20  32  46  65  94 131 165 191 223 276
#     4  11  20  33  52  70  89 124 165 189 218 274
#     4  12  20  36  50  72  93 122 152 193 238 281
#
# _framework density 14.521618
#
# number of rings (size 3 to 8) (size 9 to 14) (size 15 to 20)
#    0.000    2.000    4.000    2.400    1.400    3.200 
#    0.000    2.500    0.000    3.000    0.000    0.000 
#    0.000    0.000    0.000    5.400    0.000    0.700 
#
# Total GULP energy -222844.247184 kJ/mol
# GULP energy per Si atom -5571.106180 kJ/mol
# Density = 1.448857 g / cm^3
# Si number density = 14.521618 Si / 1000 Ang^3
#
#
#
# Elastic Constant Matrix: (Units=GPa)
#
#
# Indices 1 2 3 4 5 6 
#
# 1 56.9845 42.9262 42.7982 0.0000 0.0000 0.0000
# 2 42.9262 123.7916 70.0245 0.0000 0.0000 0.0000
# 3 42.7982 70.0245 146.2223 0.0000 0.0000 0.0000
# 4 0.0000 0.0000 0.0000 5.4611 0.0000 0.0000
# 5 0.0000 0.0000 0.0000 0.0000 -2.9433 0.0000
# 6 0.0000 0.0000 0.0000 0.0000 0.0000 -19.7691
#
#
#
# Elastic Compliance Matrix: (Units=1/GPa)
#
#
# Indices 1 2 3 4 5 6 
#
# 1 0.025718 -0.006391 -0.004467 0.000000 0.000000 0.000000
# 2 -0.006391 0.012668 -0.004196 0.000000 0.000000 0.000000
# 3 -0.004467 -0.004196 0.010156 0.000000 0.000000 0.000000
# 4 0.000000 0.000000 0.000000 0.183112 0.000000 0.000000
# 5 0.000000 0.000000 0.000000 0.000000 -0.339754 0.000000
# 6 0.000000 0.000000 0.000000 0.000000 0.000000 -0.050584
#
#
# Mechanical properties :
#
#
# Convention : Reuss Voigt Hill
#
# Bulk Modulus (GPa) = 54.24859 70.94403 62.59631
# Shear Modulus (GPa) = -40.83884 7.96637 -16.43623
#
# Velocity S-wave (km/s) = -5.30885 2.34473 -3.36794
# Velocity P-wave (km/s) = 0.37447 7.50270 5.29860
#
# Compressibility (1/GPa) = 0.01843366
#
# Stress axis : x y z
#
# Youngs Moduli (GPa) = 38.88335 78.94052 98.46799
#
# Poissons Ratio (x) = 0.50454 0.43983
# Poissons Ratio (y) = 0.24852 0.41315
# Poissons Ratio (z) = 0.17368 0.33122
#
# Static dielectric constant tensor:
#      x y z
#    x 1.456830 0.000000 0.000000 
#    y 0.000000 1.457390 0.000000 
#    z 0.000000 0.000000 1.490630 
# 
# From -- ./inp_files/65714.got.cif
#   From: 2010.05.17/outbox.cif.g08.bks.cpg/sg65_33_cif.got.tgz:65714.got - 2010.06.03 17:01:31.
