data_PCOD9487122
_publ_section_title
;
Structure prediction by ZEFSAII (Michael W. Deem and Ramdas Pophale) SiO2 
 PCOD9487122
Probable space group: C M M M
;
_chemical_formula_sum "Si O2"
_cell_formula_units_Z 64
_cell_length_a 22.899932
_cell_length_b 16.867493
_cell_length_c 8.893085
_cell_angle_alpha 90.000000
_cell_angle_beta 90.000000
_cell_angle_gamma 90.000000
_cell_volume 3435.082522
_symmetry_space_group_name_H-M "C M M M"
_symmetry_group_IT_number 65
_symmetry_cell_setting 'orthorhombic'
loop_
_space_group_symop_operation_xyz
x,y,z
-x,-y,z
x,-y,-z
-x,y,-z
-x,-y,-z
x,y,-z
-x,y,z
x,-y,z
1/2+x,1/2+y,z
1/2-x,1/2-y,z
1/2+x,1/2-y,-z
1/2-x,1/2+y,-z
1/2-x,1/2-y,-z
1/2+x,1/2+y,-z
1/2-x,1/2+y,z
1/2+x,1/2-y,z
loop_
_atom_site_type_symbol
_atom_site_label
_atom_site_fract_x
_atom_site_fract_y
_atom_site_fract_z
Si Si1 0.000000 0.908707 0.816829
Si Si2 0.930478 0.500000 0.174017
Si Si3 0.863659 0.356882 0.680957
Si Si4 0.235463 0.155428 0.326543
Si Si5 0.617175 0.316089 0.819951
O O1 0.059042 0.862943 0.771266
O O2 0.000000 0.000000 0.766145
O O3 0.000000 0.909457 0.000000
O O4 0.906423 0.577068 0.257338
O O5 0.000000 0.500000 0.177270
O O6 0.911363 0.500000 0.000000
O O7 0.864374 0.351899 0.500000
O O8 0.797043 0.380205 0.725448
O O9 0.880267 0.271373 0.747859
O O10 0.224391 0.133420 0.500000
O O11 0.250000 0.250000 0.324089
O O12 0.177335 0.141971 0.231587
O O13 0.616576 0.308932 0.000000
#
# Coordination Sequence:
#
# PCOD9487122 Si02
#       5
#     8   8  16  16  16
#     4   9  20  38  55  78 115 150 183 231 288 337
#     4  11  25  41  57  83 119 150 189 240 279 325
#     4  10  21  38  59  83 115 153 188 227 284 344
#     4   8  16  33  55  80 111 144 182 229 278 333
#     4  10  19  33  59  86 111 148 193 238 284 334
#
# _framework density 18.631285999999999
#
# number of rings (size 3 to 8) (size 9 to 14) (size 15 to 20)
#    0.000    2.500    0.000    3.375    1.750    6.500 
#    2.250    1.875    0.000    5.250    0.000    0.000 
#    0.000    0.000    0.000    0.000    0.000    0.000 
#
# Total GULP energy -178490.605535 kJ/mol
# GULP energy per Si atom -5577.831423 kJ/mol
# Density = 1.858888 g / cm^3
# Si number density = 18.631286 Si / 1000 Ang^3
#
#
#
# Elastic Constant Matrix: (Units=GPa)
#
#
# Indices 1 2 3 4 5 6 
#
# 1 161.2020 69.6975 61.0787 0.0000 0.0000 0.0000
# 2 69.6975 78.9769 37.6413 0.0000 0.0000 0.0000
# 3 61.0787 37.6413 66.9670 0.0000 0.0000 0.0000
# 4 0.0000 0.0000 0.0000 -0.1590 0.0000 0.0000
# 5 0.0000 0.0000 0.0000 0.0000 -23.6890 0.0000
# 6 0.0000 0.0000 0.0000 0.0000 0.0000 23.8629
#
#
#
# Elastic Compliance Matrix: (Units=1/GPa)
#
#
# Indices 1 2 3 4 5 6 
#
# 1 0.011924 -0.007294 -0.006776 0.000000 0.000000 0.000000
# 2 -0.007294 0.021757 -0.005577 0.000000 0.000000 0.000000
# 3 -0.006776 -0.005577 0.024248 0.000000 0.000000 0.000000
# 4 0.000000 0.000000 0.000000 -6.289225 0.000000 0.000000
# 5 0.000000 0.000000 0.000000 0.000000 -0.042214 0.000000
# 6 0.000000 0.000000 0.000000 0.000000 0.000000 0.041906
#
#
# Mechanical properties :
#
#
# Convention : Reuss Voigt Hill
#
# Bulk Modulus (GPa) = 53.66118 71.55341 62.60730
# Shear Modulus (GPa) = -0.80826 9.25154 4.22164
#
# Velocity S-wave (km/s) = -0.65937 2.23078 1.50692
# Velocity P-wave (km/s) = 5.31832 6.71740 6.05838
#
# Compressibility (1/GPa) = 0.01863545
#
# Stress axis : x y z
#
# Youngs Moduli (GPa) = 83.86180 45.96306 41.24106
#
# Poissons Ratio (x) = 0.33524 0.27946
# Poissons Ratio (y) = 0.61166 0.22999
# Poissons Ratio (z) = 0.56826 0.25632
#
# Static dielectric constant tensor:
#      x y z
#    x 1.661680 0.000000 0.000000 
#    y 0.000000 1.641820 0.000000 
#    z 0.000000 0.000000 1.624600 
# 
# From -- ./inp_files/10839.got.cif
#   From: 2010.05.17/outbox.cif.g08.bks.cpg/sg65_6_cif.got.tgz:10839.got - 2010.06.03 17:01:31.
