data_PCOD9487658
_publ_section_title
;
Structure prediction by ZEFSAII (Michael W. Deem and Ramdas Pophale) SiO2 
 PCOD9487658
Probable space group: C M M M
;
_chemical_formula_sum "Si O2"
_cell_formula_units_Z 100
_cell_length_a 14.766092
_cell_length_b 18.825544
_cell_length_c 19.554160
_cell_angle_alpha 90.000000
_cell_angle_beta 90.000000
_cell_angle_gamma 90.000000
_cell_volume 5435.659817
_symmetry_space_group_name_H-M "C M M M"
_symmetry_group_IT_number 65
_symmetry_cell_setting 'orthorhombic'
loop_
_space_group_symop_operation_xyz
x,y,z
-x,-y,z
x,-y,-z
-x,y,-z
-x,-y,-z
x,y,-z
-x,y,z
x,-y,z
1/2+x,1/2+y,z
1/2-x,1/2-y,z
1/2+x,1/2-y,-z
1/2-x,1/2+y,-z
1/2-x,1/2-y,-z
1/2+x,1/2+y,-z
1/2-x,1/2+y,z
1/2+x,1/2-y,z
loop_
_atom_site_type_symbol
_atom_site_label
_atom_site_fract_x
_atom_site_fract_y
_atom_site_fract_z
Si Si1 0.106338 0.921081 0.376479
Si Si2 0.756236 0.000000 0.000000
Si Si3 0.398917 0.200607 0.714348
Si Si4 0.755863 0.580538 0.735623
Si Si5 0.854489 0.227771 0.573567
Si Si6 0.391844 0.752975 0.867525
Si Si7 0.244682 0.129561 0.109397
O O1 0.164017 0.914257 0.307385
O O2 0.135667 0.856783 0.423846
O O3 0.000000 0.914843 0.362561
O O4 0.123455 0.000000 0.404924
O O5 0.756073 0.936355 0.058681
O O6 0.500000 0.171477 0.724455
O O7 0.326508 0.138190 0.708335
O O8 0.396520 0.244494 0.644259
O O9 0.378741 0.244413 0.784261
O O10 0.790215 0.500000 0.728513
O O11 0.740697 0.598811 0.814228
O O12 0.891164 0.253649 0.500000
O O13 0.750000 0.250000 0.576353
O O14 0.500000 0.754369 0.881173
O O15 0.336003 0.821680 0.894716
O O16 0.339877 0.684290 0.897115
#
# Coordination Sequence:
#
# PCOD9487658 Si02
#       7
#    16   4  16  16  16  16  16
#     4  10  21  36  58  86 112 148 197 243 290 346
#     4  12  24  42  58  92 124 160 198 228 282 358
#     4  10  20  35  60  88 111 145 199 249 287 339
#     4  10  19  36  59  85 116 151 186 240 297 337
#     4  11  22  36  55  82 118 157 191 235 296 353
#     4   9  20  39  64  90 113 150 200 246 290 335
#     4  10  21  38  62  85 120 155 190 238 287 342
#
# _framework density 18.397030999999998
#
# number of rings (size 3 to 8) (size 9 to 14) (size 15 to 20)
#    0.000    1.920    2.400    1.440    2.240    5.120 
#    0.000    4.000    0.000    0.480    0.000    1.120 
#    0.000    0.000    0.000    0.000    0.000    0.000 
#
# Total GULP energy -278335.832647 kJ/mol
# GULP energy per Si atom -5566.716653 kJ/mol
# Density = 1.835516 g / cm^3
# Si number density = 18.397031 Si / 1000 Ang^3
#
#
#
# Elastic Constant Matrix: (Units=GPa)
#
#
# Indices 1 2 3 4 5 6 
#
# 1 115.9398 64.3926 34.8045 0.0000 0.0000 0.0000
# 2 64.3926 149.9443 69.2069 0.0000 0.0000 0.0000
# 3 34.8045 69.2069 91.3339 0.0000 0.0000 0.0000
# 4 0.0000 0.0000 0.0000 31.9840 0.0000 0.0000
# 5 0.0000 0.0000 0.0000 0.0000 -10.1033 0.0000
# 6 0.0000 0.0000 0.0000 0.0000 0.0000 19.2835
#
#
#
# Elastic Compliance Matrix: (Units=1/GPa)
#
#
# Indices 1 2 3 4 5 6 
#
# 1 0.011383 -0.004439 -0.000974 0.000000 0.000000 0.000000
# 2 -0.004439 0.011987 -0.007391 0.000000 0.000000 0.000000
# 3 -0.000974 -0.007391 0.016921 0.000000 0.000000 0.000000
# 4 0.000000 0.000000 0.000000 0.031266 0.000000 0.000000
# 5 0.000000 0.000000 0.000000 0.000000 -0.098977 0.000000
# 6 0.000000 0.000000 0.000000 0.000000 0.000000 0.051858
#
#
# Mechanical properties :
#
#
# Convention : Reuss Voigt Hill
#
# Bulk Modulus (GPa) = 68.11165 77.11401 72.61283
# Shear Modulus (GPa) = 91.00968 20.82044 55.91506
#
# Velocity S-wave (km/s) = 7.04111 3.36777 5.51901
# Velocity P-wave (km/s) = 10.15906 7.55844 8.95367
#
# Compressibility (1/GPa) = 0.01468178
#
# Stress axis : x y z
#
# Youngs Moduli (GPa) = 87.85156 83.42535 59.09861
#
# Poissons Ratio (x) = 0.37029 0.05759
# Poissons Ratio (y) = 0.38993 0.43682
# Poissons Ratio (z) = 0.08560 0.61663
#
# Static dielectric constant tensor:
#      x y z
#    x 1.626040 0.000000 0.000000 
#    y 0.000000 1.637140 0.000000 
#    z 0.000000 0.000000 1.637980 
# 
# From -- ./inp_files/53340.got.cif
#   From: 2010.05.17/outbox.cif.g08.bks.cpg/sg65_27_cif.got.tgz:53340.got - 2010.06.03 17:01:31.
