data_PCOD9487760
_publ_section_title
;
Structure prediction by ZEFSAII (Michael W. Deem and Ramdas Pophale) SiO2 
 PCOD9487760
Probable space group: C M M M
;
_chemical_formula_sum "Si O2"
_cell_formula_units_Z 104
_cell_length_a 28.234591
_cell_length_b 8.101697
_cell_length_c 29.036000
_cell_angle_alpha 90.000000
_cell_angle_beta 90.000000
_cell_angle_gamma 90.000000
_cell_volume 6641.929866
_symmetry_space_group_name_H-M "C M M M"
_symmetry_group_IT_number 65
_symmetry_cell_setting 'orthorhombic'
loop_
_space_group_symop_operation_xyz
x,y,z
-x,-y,z
x,-y,-z
-x,y,-z
-x,-y,-z
x,y,-z
-x,y,z
x,-y,z
1/2+x,1/2+y,z
1/2-x,1/2-y,z
1/2+x,1/2-y,-z
1/2-x,1/2+y,-z
1/2-x,1/2-y,-z
1/2+x,1/2+y,-z
1/2-x,1/2+y,z
1/2+x,1/2-y,z
loop_
_atom_site_type_symbol
_atom_site_label
_atom_site_fract_x
_atom_site_fract_y
_atom_site_fract_z
Si Si1 0.442373 0.190077 0.385226
Si Si2 0.942263 0.000000 0.446792
Si Si3 0.101625 0.803203 0.811732
Si Si4 0.802191 0.804043 0.143015
Si Si5 0.350955 0.800470 0.051552
Si Si6 0.445850 0.801320 0.281018
Si Si7 0.447720 0.197119 0.097438
O O1 0.500000 0.186094 0.385776
O O2 0.427149 0.332802 0.420389
O O3 0.429417 0.238851 0.332825
O O4 0.427053 0.000000 0.394751
O O5 0.927475 0.000000 0.500000
O O6 0.000000 0.000000 0.445993
O O7 0.154041 0.741091 0.825861
O O8 0.086243 0.760800 0.760356
O O9 0.065599 0.729383 0.849382
O O10 0.100487 0.000000 0.817501
O O11 0.750000 0.750000 0.156929
O O12 0.814353 0.751003 0.090877
O O13 0.803460 0.000000 0.144795
O O14 0.403121 0.740016 0.067801
O O15 0.352221 0.000000 0.051186
O O16 0.339976 0.743055 0.000000
O O17 0.500000 0.740112 0.275010
O O18 0.447369 0.000000 0.278949
O O19 0.500000 0.264029 0.086619
O O20 0.449253 0.000000 0.090403
#
# Coordination Sequence:
#
# PCOD9487760 Si02
#       7
#    16   8  16  16  16  16  16
#     4   8  15  26  37  53  79 110 148 193 231 264
#     4   9  16  24  36  54  76 110 156 198 235 269
#     4  10  20  30  43  65  86 106 137 174 209 255
#     4  10  21  36  51  66  84 106 134 170 210 255
#     4   9  18  32  49  68  87 108 136 168 205 247
#     4   9  17  28  42  61  86 116 147 179 215 255
#     4   9  17  29  44  62  87 115 139 166 200 242
#
# _framework density 15.658099999999999
#
# number of rings (size 3 to 8) (size 9 to 14) (size 15 to 20)
#    0.000    2.846    0.000    2.308    1.077    5.538 
#    0.000    3.077    0.000    0.000    0.000    4.308 
#    0.000    0.000    0.000    0.000    0.000    0.769 
#
# Total GULP energy -289693.436954 kJ/mol
# GULP energy per Si atom -5571.027634 kJ/mol
# Density = 1.562246 g / cm^3
# Si number density = 15.658100 Si / 1000 Ang^3
#
#
#
# Elastic Constant Matrix: (Units=GPa)
#
#
# Indices 1 2 3 4 5 6 
#
# 1 53.5340 7.1997 17.4372 0.0000 0.0000 0.0000
# 2 7.1997 31.0674 26.9529 0.0000 0.0000 0.0000
# 3 17.4372 26.9529 92.3423 0.0000 0.0000 0.0000
# 4 0.0000 0.0000 0.0000 -1.4551 0.0000 0.0000
# 5 0.0000 0.0000 0.0000 0.0000 6.2037 0.0000
# 6 0.0000 0.0000 0.0000 0.0000 0.0000 13.4690
#
#
#
# Elastic Compliance Matrix: (Units=1/GPa)
#
#
# Indices 1 2 3 4 5 6 
#
# 1 0.019980 -0.001817 -0.003243 0.000000 0.000000 0.000000
# 2 -0.001817 0.043268 -0.012286 0.000000 0.000000 0.000000
# 3 -0.003243 -0.012286 0.015028 0.000000 0.000000 0.000000
# 4 0.000000 0.000000 0.000000 -0.687232 0.000000 0.000000
# 5 0.000000 0.000000 0.000000 0.000000 0.161194 0.000000
# 6 0.000000 0.000000 0.000000 0.000000 0.000000 0.074245
#
#
# Mechanical properties :
#
#
# Convention : Reuss Voigt Hill
#
# Bulk Modulus (GPa) = 22.94392 31.12481 27.03437
# Shear Modulus (GPa) = -15.41794 12.00044 -1.70875
#
# Velocity S-wave (km/s) = -3.14134 2.77140 -1.04578
# Velocity P-wave (km/s) = 1.23594 5.49198 3.98054
#
# Compressibility (1/GPa) = 0.04358453
#
# Stress axis : x y z
#
# Youngs Moduli (GPa) = 50.04932 23.11176 66.54437
#
# Poissons Ratio (x) = 0.04200 0.21577
# Poissons Ratio (y) = 0.09095 0.81756
# Poissons Ratio (z) = 0.16229 0.28395
#
# Static dielectric constant tensor:
#      x y z
#    x 1.523780 0.000000 0.000000 
#    y 0.000000 1.549850 0.000000 
#    z 0.000000 0.000000 1.519600 
# 
# From -- ./inp_files/76026.got.cif
#   From: 2010.05.17/outbox.cif.g08.bks.cpg/sg65_39_cif.got.tgz:76026.got - 2010.06.03 17:01:31.
