data_PCOD9487620
_publ_section_title
;
Structure prediction by ZEFSAII (Michael W. Deem and Ramdas Pophale) SiO2 
 PCOD9487620
Probable space group: C M M M
;
_chemical_formula_sum "Si O2"
_cell_formula_units_Z 44
_cell_length_a 7.276531
_cell_length_b 16.951421
_cell_length_c 15.554059
_cell_angle_alpha 90.000000
_cell_angle_beta 90.000000
_cell_angle_gamma 90.000000
_cell_volume 1918.554921
_symmetry_space_group_name_H-M "C M M M"
_symmetry_group_IT_number 65
_symmetry_cell_setting 'orthorhombic'
loop_
_space_group_symop_operation_xyz
x,y,z
-x,-y,z
x,-y,-z
-x,y,-z
-x,-y,-z
x,y,-z
-x,y,z
x,-y,z
1/2+x,1/2+y,z
1/2-x,1/2-y,z
1/2+x,1/2-y,-z
1/2-x,1/2+y,-z
1/2-x,1/2-y,-z
1/2+x,1/2+y,-z
1/2-x,1/2+y,z
1/2+x,1/2-y,z
loop_
_atom_site_type_symbol
_atom_site_label
_atom_site_fract_x
_atom_site_fract_y
_atom_site_fract_z
Si Si1 0.281452 0.657006 0.000000
Si Si2 0.283121 0.658070 0.362023
Si Si3 0.500000 0.897921 0.500000
Si Si4 0.723073 0.590226 0.181273
O O1 0.250000 0.750000 0.000000
O O2 0.210538 0.620840 0.089065
O O3 0.500000 0.642161 0.000000
O O4 0.500000 0.641331 0.371122
O O5 0.250000 0.750000 0.384268
O O6 0.226447 0.642603 0.263325
O O7 0.159786 0.607203 0.425253
O O8 0.500000 0.591581 0.178533
O O9 0.779172 0.500000 0.195180
#
# Coordination Sequence:
#
# PCOD9487620 Si02
#       4
#     8  16   4  16
#     4  10  19  35  63  91 123 156 198 243 293 355
#     4  11  22  37  62  90 121 156 204 256 307 357
#     4  12  24  40  63  90 119 156 208 260 310 362
#     4   9  19  37  60  88 121 162 201 240 296 363
#
# _framework density 22.933927000000001
#
# number of rings (size 3 to 8) (size 9 to 14) (size 15 to 20)
#    0.000    1.818    1.818    2.727    0.000    2.182 
#    3.273    2.727    0.000    5.455    0.000    0.000 
#    0.000    0.000    0.000    0.000    0.000    0.727 
#
# Total GULP energy -122540.480134 kJ/mol
# GULP energy per Si atom -5570.021824 kJ/mol
# Density = 2.288173 g / cm^3
# Si number density = 22.933927 Si / 1000 Ang^3
#
#
#
# Elastic Constant Matrix: (Units=GPa)
#
#
# Indices 1 2 3 4 5 6 
#
# 1 156.1078 -4.5714 50.5924 0.0000 0.0000 0.0000
# 2 -4.5714 46.6238 4.0043 0.0000 0.0000 0.0000
# 3 50.5924 4.0043 172.7688 0.0000 0.0000 0.0000
# 4 0.0000 0.0000 0.0000 -280.2597 0.0000 0.0000
# 5 0.0000 0.0000 0.0000 0.0000 -53.9247 0.0000
# 6 0.0000 0.0000 0.0000 0.0000 0.0000 3.0320
#
#
#
# Elastic Compliance Matrix: (Units=1/GPa)
#
#
# Indices 1 2 3 4 5 6 
#
# 1 0.007113 0.000878 -0.002103 0.000000 0.000000 0.000000
# 2 0.000878 0.021599 -0.000758 0.000000 0.000000 0.000000
# 3 -0.002103 -0.000758 0.006422 0.000000 0.000000 0.000000
# 4 0.000000 0.000000 0.000000 -0.003568 0.000000 0.000000
# 5 0.000000 0.000000 0.000000 0.000000 -0.018544 0.000000
# 6 0.000000 0.000000 0.000000 0.000000 0.000000 0.329816
#
#
# Mechanical properties :
#
#
# Convention : Reuss Voigt Hill
#
# Bulk Modulus (GPa) = 32.08397 52.83902 42.46150
# Shear Modulus (GPa) = 13.99803 -44.53213 -15.26705
#
# Velocity S-wave (km/s) = 2.47323 -4.41132 -2.58291
# Velocity P-wave (km/s) = 4.70914 1.69015 3.10800
#
# Compressibility (1/GPa) = 0.03116821
#
# Stress axis : x y z
#
# Youngs Moduli (GPa) = 140.58362 46.29751 155.72519
#
# Poissons Ratio (x) = -0.04065 0.32754
# Poissons Ratio (y) = -0.12344 0.11800
# Poissons Ratio (z) = 0.29569 0.03508
#
# Static dielectric constant tensor:
#      x y z
#    x 1.858760 0.000000 0.000000 
#    y 0.000000 1.841390 0.000000 
#    z 0.000000 0.000000 1.818350 
# 
# From -- ./inp_files/34924.got.cif
#   From: 2010.05.17/outbox.cif.g08.bks.cpg/sg65_18_cif.got.tgz:34924.got - 2010.06.03 17:01:31.
