data_PCOD9487004
_publ_section_title
;
Structure prediction by ZEFSAII (Michael W. Deem and Ramdas Pophale) SiO2 
 PCOD9487004
Probable space group: C M M M
;
_chemical_formula_sum "Si O2"
_cell_formula_units_Z 72
_cell_length_a 8.681548
_cell_length_b 18.800771
_cell_length_c 24.000621
_cell_angle_alpha 90.000000
_cell_angle_beta 90.000000
_cell_angle_gamma 90.000000
_cell_volume 3917.376460
_symmetry_space_group_name_H-M "C M M M"
_symmetry_group_IT_number 65
_symmetry_cell_setting 'orthorhombic'
loop_
_space_group_symop_operation_xyz
x,y,z
-x,-y,z
x,-y,-z
-x,y,-z
-x,-y,-z
x,y,-z
-x,y,z
x,-y,z
1/2+x,1/2+y,z
1/2-x,1/2-y,z
1/2+x,1/2-y,-z
1/2-x,1/2+y,-z
1/2-x,1/2-y,-z
1/2+x,1/2+y,-z
1/2-x,1/2+y,z
1/2+x,1/2-y,z
loop_
_atom_site_type_symbol
_atom_site_label
_atom_site_fract_x
_atom_site_fract_y
_atom_site_fract_z
Si Si1 0.185656 0.417326 0.563737
Si Si2 0.686176 0.582239 0.774472
Si Si3 0.685273 0.170102 0.000000
Si Si4 0.685253 0.830385 0.122102
Si Si5 0.815576 0.170931 0.334358
O O1 0.230017 0.399695 0.500000
O O2 0.227932 0.500000 0.573952
O O3 0.259256 0.366923 0.609453
O O4 0.000000 0.412602 0.567080
O O5 0.500000 0.584173 0.776746
O O6 0.734705 0.500000 0.772120
O O7 0.751252 0.621505 0.828544
O O8 0.734852 0.624216 0.718880
O O9 0.750000 0.250000 0.000000
O O10 0.731091 0.140203 0.939529
O O11 0.500000 0.172637 0.000000
O O12 0.500000 0.827245 0.125025
O O13 0.750000 0.750000 0.127319
O O14 0.750000 0.250000 0.330019
O O15 0.000000 0.173961 0.334304
#
# Coordination Sequence:
#
# PCOD9487004 Si02
#       5
#    16  16   8  16  16
#     4   9  19  37  60  85 113 144 178 218 264 314
#     4  10  22  39  56  77 107 140 177 223 271 319
#     4   8  16  30  49  76 107 137 173 217 261 310
#     4  10  19  33  55  81 108 140 178 219 265 316
#     4  11  23  38  57  81 109 142 180 223 269 316
#
# _framework density 18.379648
#
# number of rings (size 3 to 8) (size 9 to 14) (size 15 to 20)
#    0.000    2.222    0.000    3.333    0.000    7.111 
#    0.000    1.667    0.000    3.333    0.000    0.000 
#    0.000    0.000    0.000    0.000    0.000    0.000 
#
# Total GULP energy -200904.141868 kJ/mol
# GULP energy per Si atom -5580.670607 kJ/mol
# Density = 1.833781 g / cm^3
# Si number density = 18.379648 Si / 1000 Ang^3
#
#
#
# Elastic Constant Matrix: (Units=GPa)
#
#
# Indices 1 2 3 4 5 6 
#
# 1 23.3310 38.6997 43.3722 0.0000 0.0000 0.0000
# 2 38.6997 142.2105 121.1425 0.0000 0.0000 0.0000
# 3 43.3722 121.1425 195.2526 0.0000 0.0000 0.0000
# 4 0.0000 0.0000 0.0000 101.5546 0.0000 0.0000
# 5 0.0000 0.0000 0.0000 0.0000 2.5571 0.0000
# 6 0.0000 0.0000 0.0000 0.0000 0.0000 13.7764
#
#
#
# Elastic Compliance Matrix: (Units=1/GPa)
#
#
# Indices 1 2 3 4 5 6 
#
# 1 0.086033 -0.015128 -0.009725 0.000000 0.000000 0.000000
# 2 -0.015128 0.017575 -0.007544 0.000000 0.000000 0.000000
# 3 -0.009725 -0.007544 0.011962 0.000000 0.000000 0.000000
# 4 0.000000 0.000000 0.000000 0.009847 0.000000 0.000000
# 5 0.000000 0.000000 0.000000 0.000000 0.391072 0.000000
# 6 0.000000 0.000000 0.000000 0.000000 0.000000 0.072588
#
#
# Mechanical properties :
#
#
# Convention : Reuss Voigt Hill
#
# Bulk Modulus (GPa) = 19.69397 85.24699 52.47048
# Shear Modulus (GPa) = 7.45384 34.08293 20.76838
#
# Velocity S-wave (km/s) = 2.01601 4.31093 3.36514
# Velocity P-wave (km/s) = 4.01963 8.44160 6.61128
#
# Compressibility (1/GPa) = 0.05077696
#
# Stress axis : x y z
#
# Youngs Moduli (GPa) = 11.62344 56.90025 83.59739
#
# Poissons Ratio (x) = 0.86079 0.81297
# Poissons Ratio (y) = 0.17584 0.63062
# Poissons Ratio (z) = 0.11304 0.42923
#
# Static dielectric constant tensor:
#      x y z
#    x 1.632740 0.000000 0.000000 
#    y 0.000000 1.595390 0.000000 
#    z 0.000000 0.000000 1.642540 
# 
# From -- ./inp_files/66987.got.cif
#   From: 2010.05.17/outbox.cif.g08.bks.cpg/sg65_34_cif.got.tgz:66987.got - 2010.06.03 17:01:31.
