data_PCOD9487258
_publ_section_title
;
Structure prediction by ZEFSAII (Michael W. Deem and Ramdas Pophale) SiO2 
 PCOD9487258
Probable space group: C M M M
;
_chemical_formula_sum "Si O2"
_cell_formula_units_Z 104
_cell_length_a 29.192555
_cell_length_b 21.904313
_cell_length_c 8.973514
_cell_angle_alpha 90.000000
_cell_angle_beta 90.000000
_cell_angle_gamma 90.000000
_cell_volume 5738.049474
_symmetry_space_group_name_H-M "C M M M"
_symmetry_group_IT_number 65
_symmetry_cell_setting 'orthorhombic'
loop_
_space_group_symop_operation_xyz
x,y,z
-x,-y,z
x,-y,-z
-x,y,-z
-x,-y,-z
x,y,-z
-x,y,z
x,-y,z
1/2+x,1/2+y,z
1/2-x,1/2-y,z
1/2+x,1/2-y,-z
1/2-x,1/2+y,-z
1/2-x,1/2-y,-z
1/2+x,1/2+y,-z
1/2-x,1/2+y,z
1/2+x,1/2-y,z
loop_
_atom_site_type_symbol
_atom_site_label
_atom_site_fract_x
_atom_site_fract_y
_atom_site_fract_z
Si Si1 0.271219 0.072381 0.333256
Si Si2 0.599220 0.641039 0.679260
Si Si3 0.125404 0.606184 0.320539
Si Si4 0.094600 0.273657 0.822591
Si Si5 0.053850 0.500000 0.681195
Si Si6 0.818763 0.926311 0.169649
Si Si7 0.500000 0.626226 0.667970
Si Si8 0.500000 0.774167 0.330413
O O1 0.265307 0.098621 0.500000
O O2 0.324038 0.080073 0.289588
O O3 0.231253 0.095128 0.225327
O O4 0.263802 0.000000 0.343183
O O5 0.595868 0.647108 0.500000
O O6 0.605422 0.708052 0.750181
O O7 0.641578 0.599838 0.726183
O O8 0.550126 0.613345 0.734562
O O9 0.121137 0.614173 0.500000
O O10 0.124313 0.670897 0.238909
O O11 0.084564 0.559382 0.275102
O O12 0.044548 0.291360 0.760381
O O13 0.095354 0.269112 0.000000
O O14 0.053012 0.500000 0.500000
O O15 0.000000 0.500000 0.729715
O O16 0.820091 0.000000 0.172749
O O17 0.826836 0.906380 0.000000
O O18 0.500000 0.600622 0.500000
O O19 0.500000 0.700330 0.659639
O O20 0.500000 0.798217 0.500000
#
# Coordination Sequence:
#
# PCOD9487258 Si02
#       8
#    16  16  16  16   8  16   8   8
#     4   9  17  33  56  79 103 137 187 236 273 320
#     4  10  19  36  59  82 109 144 185 226 267 318
#     4  10  19  34  55  80 109 145 190 233 274 329
#     4  11  22  34  51  79 114 147 181 225 279 333
#     4   9  18  32  53  83 113 147 190 235 280 321
#     4  10  21  36  56  83 113 142 176 221 280 337
#     4   7  14  29  52  78 102 131 171 213 254 300
#     4   9  17  33  53  73  99 141 191 228 259 311
#
# _framework density 18.124625999999999
#
# number of rings (size 3 to 8) (size 9 to 14) (size 15 to 20)
#    0.000    2.385    0.769    3.462    1.077    1.538 
#    0.000    2.692    0.000    7.385    0.000    0.000 
#    0.000    0.000    0.000    0.000    0.000    0.000 
#
# Total GULP energy -289617.155925 kJ/mol
# GULP energy per Si atom -5569.560691 kJ/mol
# Density = 1.808337 g / cm^3
# Si number density = 18.124626 Si / 1000 Ang^3
#
#
#
# Elastic Constant Matrix: (Units=GPa)
#
#
# Indices 1 2 3 4 5 6 
#
# 1 107.9948 20.8330 43.9581 0.0000 0.0000 0.0000
# 2 20.8330 24.9489 22.5637 0.0000 0.0000 0.0000
# 3 43.9581 22.5637 70.9887 0.0000 0.0000 0.0000
# 4 0.0000 0.0000 0.0000 19.0548 0.0000 0.0000
# 5 0.0000 0.0000 0.0000 0.0000 14.7015 0.0000
# 6 0.0000 0.0000 0.0000 0.0000 0.0000 -5.5617
#
#
#
# Elastic Compliance Matrix: (Units=1/GPa)
#
#
# Indices 1 2 3 4 5 6 
#
# 1 0.012800 -0.004940 -0.006356 0.000000 0.000000 0.000000
# 2 -0.004940 0.058159 -0.015427 0.000000 0.000000 0.000000
# 3 -0.006356 -0.015427 0.022926 0.000000 0.000000 0.000000
# 4 0.000000 0.000000 0.000000 0.052480 0.000000 0.000000
# 5 0.000000 0.000000 0.000000 0.000000 0.068020 0.000000
# 6 0.000000 0.000000 0.000000 0.000000 0.000000 -0.179800
#
#
# Mechanical properties :
#
#
# Convention : Reuss Voigt Hill
#
# Bulk Modulus (GPa) = 24.72836 42.07131 33.39983
# Shear Modulus (GPa) = 49.25640 13.41076 31.33358
#
# Velocity S-wave (km/s) = 5.21876 2.72310 4.16238
# Velocity P-wave (km/s) = 7.07016 5.75757 6.44735
#
# Compressibility (1/GPa) = 0.04043940
#
# Stress axis : x y z
#
# Youngs Moduli (GPa) = 78.12688 17.19425 43.61901
#
# Poissons Ratio (x) = 0.08494 0.27723
# Poissons Ratio (y) = 0.38595 0.67290
# Poissons Ratio (z) = 0.49655 0.26525
#
# Static dielectric constant tensor:
#      x y z
#    x 1.771310 0.000000 0.000000 
#    y 0.000000 1.614340 0.000000 
#    z 0.000000 0.000000 1.616990 
# 
# From -- ./inp_files/16817.got.cif
#   From: 2010.05.17/outbox.cif.g08.bks.cpg/sg65_9_cif.got.tgz:16817.got - 2010.06.03 17:01:31.
