data_PCOD9487377
_publ_section_title
;
Structure prediction by ZEFSAII (Michael W. Deem and Ramdas Pophale) SiO2 
 PCOD9487377
Probable space group: C M M M
;
_chemical_formula_sum "Si O2"
_cell_formula_units_Z 72
_cell_length_a 8.761832
_cell_length_b 18.631402
_cell_length_c 23.826625
_cell_angle_alpha 90.000000
_cell_angle_beta 90.000000
_cell_angle_gamma 90.000000
_cell_volume 3889.582503
_symmetry_space_group_name_H-M "C M M M"
_symmetry_group_IT_number 65
_symmetry_cell_setting 'orthorhombic'
loop_
_space_group_symop_operation_xyz
x,y,z
-x,-y,z
x,-y,-z
-x,y,-z
-x,-y,-z
x,y,-z
-x,y,z
x,-y,z
1/2+x,1/2+y,z
1/2-x,1/2-y,z
1/2+x,1/2-y,-z
1/2-x,1/2+y,-z
1/2-x,1/2-y,-z
1/2+x,1/2+y,-z
1/2-x,1/2+y,z
1/2+x,1/2-y,z
loop_
_atom_site_type_symbol
_atom_site_label
_atom_site_fract_x
_atom_site_fract_y
_atom_site_fract_z
Si Si1 0.316777 0.669919 0.500000
Si Si2 0.683934 0.669103 0.376859
Si Si3 0.181410 0.829472 0.167096
Si Si4 0.817169 0.584269 0.728119
Si Si5 0.682738 0.084375 0.065024
O O1 0.500000 0.674169 0.500000
O O2 0.250000 0.750000 0.500000
O O3 0.273388 0.639141 0.560902
O O4 0.500000 0.672229 0.372640
O O5 0.750000 0.750000 0.372278
O O6 0.750948 0.621286 0.327445
O O7 0.250000 0.750000 0.170119
O O8 0.248606 0.876405 0.217817
O O9 0.230276 0.866699 0.108982
O O10 0.000000 0.826046 0.171775
O O11 0.779477 0.500000 0.729367
O O12 0.000000 0.591906 0.728858
O O13 0.500000 0.093663 0.072186
O O14 0.715897 0.000000 0.074880
O O15 0.719364 0.100401 0.000000
#
# Coordination Sequence:
#
# PCOD9487377 Si02
#       5
#     8  16  16  16  16
#     4   8  16  30  51  80 111 145 181 223 273 324
#     4  10  19  34  57  84 114 146 185 229 275 329
#     4  12  25  40  60  85 114 148 188 234 281 330
#     4  11  24  41  59  80 110 147 186 230 282 337
#     4   9  19  38  63  89 119 154 188 225 274 330
#
# _framework density 18.510985000000002
#
# number of rings (size 3 to 8) (size 9 to 14) (size 15 to 20)
#    0.000    1.778    0.000    5.333    0.000    6.667 
#    0.000    1.667    0.000    3.333    0.000    0.000 
#    0.000    0.000    0.000    0.000    0.000    0.000 
#
# Total GULP energy -201078.185432 kJ/mol
# GULP energy per Si atom -5585.505151 kJ/mol
# Density = 1.846885 g / cm^3
# Si number density = 18.510985 Si / 1000 Ang^3
#
#
#
# Elastic Constant Matrix: (Units=GPa)
#
#
# Indices 1 2 3 4 5 6 
#
# 1 85.9475 76.6170 76.7149 0.0000 0.0000 0.0000
# 2 76.6170 128.4849 106.5461 0.0000 0.0000 0.0000
# 3 76.7149 106.5461 162.0949 0.0000 0.0000 0.0000
# 4 0.0000 0.0000 0.0000 58.1292 0.0000 0.0000
# 5 0.0000 0.0000 0.0000 0.0000 35.4136 0.0000
# 6 0.0000 0.0000 0.0000 0.0000 0.0000 29.1320
#
#
#
# Elastic Compliance Matrix: (Units=1/GPa)
#
#
# Indices 1 2 3 4 5 6 
#
# 1 0.026382 -0.011822 -0.004715 0.000000 0.000000 0.000000
# 2 -0.011822 0.022406 -0.009132 0.000000 0.000000 0.000000
# 3 -0.004715 -0.009132 0.014404 0.000000 0.000000 0.000000
# 4 0.000000 0.000000 0.000000 0.017203 0.000000 0.000000
# 5 0.000000 0.000000 0.000000 0.000000 0.028238 0.000000
# 6 0.000000 0.000000 0.000000 0.000000 0.000000 0.034327
#
#
# Mechanical properties :
#
#
# Convention : Reuss Voigt Hill
#
# Bulk Modulus (GPa) = 84.37201 99.58706 91.97953
# Shear Modulus (GPa) = 25.22082 32.31158 28.76620
#
# Velocity S-wave (km/s) = 3.69518 4.18249 3.94637
# Velocity P-wave (km/s) = 7.99276 8.78863 8.40013
#
# Compressibility (1/GPa) = 0.01185227
#
# Stress axis : x y z
#
# Youngs Moduli (GPa) = 37.90416 44.63190 69.42653
#
# Poissons Ratio (x) = 0.52763 0.32738
# Poissons Ratio (y) = 0.44809 0.63403
# Poissons Ratio (z) = 0.17874 0.40760
#
# Static dielectric constant tensor:
#      x y z
#    x 1.620410 0.000000 0.000000 
#    y 0.000000 1.600250 0.000000 
#    z 0.000000 0.000000 1.647230 
# 
# From -- ./inp_files/72554.got.cif
#   From: 2010.05.17/outbox.cif.g08.bks.cpg/sg65_37_cif.got.tgz:72554.got - 2010.06.03 17:01:31.
