data_PCOD9487529
_publ_section_title
;
Structure prediction by ZEFSAII (Michael W. Deem and Ramdas Pophale) SiO2 
 PCOD9487529
Probable space group: C M M M
;
_chemical_formula_sum "Si O2"
_cell_formula_units_Z 104
_cell_length_a 8.816692
_cell_length_b 29.204142
_cell_length_c 23.429083
_cell_angle_alpha 90.000000
_cell_angle_beta 90.000000
_cell_angle_gamma 90.000000
_cell_volume 6032.612253
_symmetry_space_group_name_H-M "C M M M"
_symmetry_group_IT_number 65
_symmetry_cell_setting 'orthorhombic'
loop_
_space_group_symop_operation_xyz
x,y,z
-x,-y,z
x,-y,-z
-x,y,-z
-x,-y,-z
x,y,-z
-x,y,z
x,-y,z
1/2+x,1/2+y,z
1/2-x,1/2-y,z
1/2+x,1/2-y,-z
1/2-x,1/2+y,-z
1/2-x,1/2-y,-z
1/2+x,1/2+y,-z
1/2-x,1/2+y,z
1/2+x,1/2-y,z
loop_
_atom_site_type_symbol
_atom_site_label
_atom_site_fract_x
_atom_site_fract_y
_atom_site_fract_z
Si Si1 0.682071 0.553820 0.000000
Si Si2 0.181683 0.893768 0.670128
Si Si3 0.182043 0.200983 0.856103
Si Si4 0.817954 0.798398 0.278001
Si Si5 0.682726 0.052861 0.565796
Si Si6 0.182137 0.607272 0.107344
Si Si7 0.817864 0.446699 0.776914
O O1 0.749462 0.578642 0.944590
O O2 0.722273 0.500000 0.000000
O O3 0.500000 0.557646 0.000000
O O4 0.232410 0.842142 0.685600
O O5 0.245469 0.913202 0.611216
O O6 0.239169 0.925660 0.721612
O O7 0.000000 0.894327 0.668945
O O8 0.250000 0.250000 0.873658
O O9 0.223078 0.194554 0.788827
O O10 0.251312 0.158365 0.889822
O O11 0.000000 0.201446 0.860738
O O12 0.750000 0.750000 0.296622
O O13 0.000000 0.795685 0.280423
O O14 0.725050 0.062367 0.500000
O O15 0.500000 0.055222 0.569604
O O16 0.726018 0.000000 0.578652
O O17 0.222761 0.581874 0.166670
O O18 0.000000 0.608714 0.102918
O O19 0.778430 0.500000 0.784266
O O20 0.000000 0.443666 0.769441
#
# Coordination Sequence:
#
# PCOD9487529 Si02
#       7
#     8  16  16  16  16  16  16
#     4  11  25  43  62  83 110 149 191 231 279 333
#     4  11  21  33  51  81 113 140 175 224 277 324
#     4  10  19  35  57  83 115 147 183 225 275 333
#     4   9  19  33  51  77 110 143 178 219 268 323
#     4   9  19  36  55  75 104 145 189 227 265 318
#     4  11  22  38  60  84 111 146 187 231 277 327
#     4  10  21  35  52  77 109 144 181 221 267 321
#
# _framework density 17.239628
#
# number of rings (size 3 to 8) (size 9 to 14) (size 15 to 20)
#    0.000    1.923    1.538    3.000    0.000    6.462 
#    0.000    1.154    0.000    0.462    0.000    0.000 
#    0.000    0.000    0.000    0.000    0.000    0.000 
#
# Total GULP energy -290390.745572 kJ/mol
# GULP energy per Si atom -5584.437415 kJ/mol
# Density = 1.720039 g / cm^3
# Si number density = 17.239628 Si / 1000 Ang^3
#
#
#
# Elastic Constant Matrix: (Units=GPa)
#
#
# Indices 1 2 3 4 5 6 
#
# 1 37.9407 51.8854 39.2147 0.0000 0.0000 0.0000
# 2 51.8854 173.2934 77.9747 0.0000 0.0000 0.0000
# 3 39.2147 77.9747 96.1984 0.0000 0.0000 0.0000
# 4 0.0000 0.0000 0.0000 32.1402 0.0000 0.0000
# 5 0.0000 0.0000 0.0000 0.0000 23.7964 0.0000
# 6 0.0000 0.0000 0.0000 0.0000 0.0000 30.6156
#
#
#
# Elastic Compliance Matrix: (Units=1/GPa)
#
#
# Indices 1 2 3 4 5 6 
#
# 1 0.054688 -0.009985 -0.014200 0.000000 0.000000 0.000000
# 2 -0.009985 0.010906 -0.004770 0.000000 0.000000 0.000000
# 3 -0.014200 -0.004770 0.020050 0.000000 0.000000 0.000000
# 4 0.000000 0.000000 0.000000 0.031114 0.000000 0.000000
# 5 0.000000 0.000000 0.000000 0.000000 0.042023 0.000000
# 6 0.000000 0.000000 0.000000 0.000000 0.000000 0.032663
#
#
# Mechanical properties :
#
#
# Convention : Reuss Voigt Hill
#
# Bulk Modulus (GPa) = 36.05540 71.73134 53.89337
# Shear Modulus (GPa) = 19.33487 26.53429 22.93458
#
# Velocity S-wave (km/s) = 3.35257 3.92745 3.65134
# Velocity P-wave (km/s) = 5.99549 7.89083 7.00754
#
# Compressibility (1/GPa) = 0.02773510
#
# Stress axis : x y z
#
# Youngs Moduli (GPa) = 18.28541 91.68932 49.87457
#
# Poissons Ratio (x) = 0.91549 0.70823
# Poissons Ratio (y) = 0.18257 0.23791
# Poissons Ratio (z) = 0.25966 0.43737
#
# Static dielectric constant tensor:
#      x y z
#    x 1.574560 0.000000 0.000000 
#    y 0.000000 1.576180 0.000000 
#    z 0.000000 0.000000 1.561050 
# 
# From -- ./inp_files/68242.got.cif
#   From: 2010.05.17/outbox.cif.g08.bks.cpg/sg65_35_cif.got.tgz:68242.got - 2010.06.03 17:01:31.
