data_PCOD9487073
_publ_section_title
;
Structure prediction by ZEFSAII (Michael W. Deem and Ramdas Pophale) SiO2 
 PCOD9487073
Probable space group: C M M M
;
_chemical_formula_sum "Si O2"
_cell_formula_units_Z 66
_cell_length_a 15.751157
_cell_length_b 23.961162
_cell_length_c 9.679429
_cell_angle_alpha 90.000000
_cell_angle_beta 90.000000
_cell_angle_gamma 90.000000
_cell_volume 3653.171613
_symmetry_space_group_name_H-M "C M M M"
_symmetry_group_IT_number 65
_symmetry_cell_setting 'orthorhombic'
loop_
_space_group_symop_operation_xyz
x,y,z
-x,-y,z
x,-y,-z
-x,y,-z
-x,-y,-z
x,y,-z
-x,y,z
x,-y,z
1/2+x,1/2+y,z
1/2-x,1/2-y,z
1/2+x,1/2-y,-z
1/2-x,1/2+y,-z
1/2-x,1/2-y,-z
1/2+x,1/2+y,-z
1/2-x,1/2+y,z
1/2+x,1/2-y,z
loop_
_atom_site_type_symbol
_atom_site_label
_atom_site_fract_x
_atom_site_fract_y
_atom_site_fract_z
Si Si1 0.900672 0.880290 0.165341
Si Si2 0.128832 0.500000 0.740349
Si Si3 0.322202 0.500000 0.834406
Si Si4 0.000000 0.500000 0.000000
Si Si5 0.238690 0.816166 0.335857
Si Si6 0.592356 0.876151 0.340150
O O1 0.840770 0.839194 0.251025
O O2 0.000000 0.872258 0.195017
O O3 0.872645 0.943636 0.200765
O O4 0.888150 0.873047 0.000000
O O5 0.229447 0.500000 0.767352
O O6 0.105326 0.557466 0.665518
O O7 0.074228 0.500000 0.879945
O O8 0.310832 0.500000 0.000000
O O9 0.228480 0.829065 0.500000
O O10 0.250000 0.750000 0.322420
O O11 0.324393 0.846424 0.281330
O O12 0.588934 0.858431 0.500000
O O13 0.500000 0.863146 0.275645
#
# Coordination Sequence:
#
# PCOD9487073 Si02
#       6
#    16   8   8   2  16  16
#     4  10  21  38  61  85 115 150 192 234 283 341
#     4  12  19  32  52  81 115 143 178 228 278 342
#     4  10  19  33  56  83 112 150 182 224 285 341
#     4  12  24  28  50  92 122 140 188 222 292 350
#     4  10  22  39  59  84 113 150 195 239 284 334
#     4  10  20  35  55  78 107 146 185 226 278 339
#
# _framework density 18.066493999999999
#
# number of rings (size 3 to 8) (size 9 to 14) (size 15 to 20)
#    0.000    1.697    4.242    0.727    0.000    4.364 
#    0.000    3.030    0.000    1.455    0.000    0.000 
#    0.000    0.000    0.000    0.000    0.000    0.000 
#
# Total GULP energy -183794.288431 kJ/mol
# GULP energy per Si atom -5569.523892 kJ/mol
# Density = 1.802537 g / cm^3
# Si number density = 18.066494 Si / 1000 Ang^3
#
#
#
# Elastic Constant Matrix: (Units=GPa)
#
#
# Indices 1 2 3 4 5 6 
#
# 1 200.0748 62.8431 54.9709 0.0000 0.0000 0.0000
# 2 62.8431 76.7197 27.3528 0.0000 0.0000 0.0000
# 3 54.9709 27.3528 43.2483 0.0000 0.0000 0.0000
# 4 0.0000 0.0000 0.0000 5.8962 0.0000 0.0000
# 5 0.0000 0.0000 0.0000 0.0000 29.2761 0.0000
# 6 0.0000 0.0000 0.0000 0.0000 0.0000 1.5417
#
#
#
# Elastic Compliance Matrix: (Units=1/GPa)
#
#
# Indices 1 2 3 4 5 6 
#
# 1 0.008552 -0.004041 -0.008314 0.000000 0.000000 0.000000
# 2 -0.004041 0.018739 -0.006716 0.000000 0.000000 0.000000
# 3 -0.008314 -0.006716 0.037937 0.000000 0.000000 0.000000
# 4 0.000000 0.000000 0.000000 0.169600 0.000000 0.000000
# 5 0.000000 0.000000 0.000000 0.000000 0.034158 0.000000
# 6 0.000000 0.000000 0.000000 0.000000 0.000000 0.648636
#
#
# Mechanical properties :
#
#
# Convention : Reuss Voigt Hill
#
# Bulk Modulus (GPa) = 36.91811 67.81962 52.36887
# Shear Modulus (GPa) = 5.18247 19.00121 12.09184
#
# Velocity S-wave (km/s) = 1.69552 3.24657 2.58988
# Velocity P-wave (km/s) = 4.93072 7.18846 6.16385
#
# Compressibility (1/GPa) = 0.02708698
#
# Stress axis : x y z
#
# Youngs Moduli (GPa) = 116.93772 53.36599 26.35943
#
# Poissons Ratio (x) = 0.21563 0.21915
# Poissons Ratio (y) = 0.47250 0.17702
# Poissons Ratio (z) = 0.97221 0.35838
#
# Static dielectric constant tensor:
#      x y z
#    x 1.639140 0.000000 0.000000 
#    y 0.000000 1.602930 0.000000 
#    z 0.000000 0.000000 1.608600 
# 
# From -- ./inp_files/6810.got.cif
#   From: 2010.05.17/outbox.cif.g08.bks.cpg/sg65_4_cif.got.tgz:6810.got - 2010.06.03 17:01:31.
