data_PCOD9487721
_publ_section_title
;
Structure prediction by ZEFSAII (Michael W. Deem and Ramdas Pophale) SiO2 
 PCOD9487721
Probable space group: C M M M
;
_chemical_formula_sum "Si O2"
_cell_formula_units_Z 88
_cell_length_a 7.607237
_cell_length_b 18.833567
_cell_length_c 31.533735
_cell_angle_alpha 90.000000
_cell_angle_beta 90.000000
_cell_angle_gamma 90.000000
_cell_volume 4517.882604
_symmetry_space_group_name_H-M "C M M M"
_symmetry_group_IT_number 65
_symmetry_cell_setting 'orthorhombic'
loop_
_space_group_symop_operation_xyz
x,y,z
-x,-y,z
x,-y,-z
-x,y,-z
-x,-y,-z
x,y,-z
-x,y,z
x,-y,z
1/2+x,1/2+y,z
1/2-x,1/2-y,z
1/2+x,1/2-y,-z
1/2-x,1/2+y,-z
1/2-x,1/2-y,-z
1/2+x,1/2+y,-z
1/2-x,1/2+y,z
1/2+x,1/2-y,z
loop_
_atom_site_type_symbol
_atom_site_label
_atom_site_fract_x
_atom_site_fract_y
_atom_site_fract_z
Si Si1 0.208682 0.579467 0.130069
Si Si2 0.000000 0.915909 0.550637
Si Si3 0.211799 0.666337 0.789601
Si Si4 0.290103 0.833949 0.302348
Si Si5 0.789014 0.334709 0.396486
Si Si6 0.291181 0.332668 0.952964
O O1 0.281649 0.500000 0.127994
O O2 0.280888 0.623973 0.169847
O O3 0.229521 0.619946 0.085808
O O4 0.000000 0.574155 0.137224
O O5 0.170943 0.877706 0.570590
O O6 0.000000 0.907370 0.500000
O O7 0.000000 0.000000 0.560313
O O8 0.250000 0.750000 0.793984
O O9 0.277342 0.639820 0.743354
O O10 0.000000 0.659961 0.788799
O O11 0.500000 0.843412 0.302385
O O12 0.250000 0.750000 0.301763
O O13 0.231510 0.858738 0.348756
O O14 0.750000 0.250000 0.399893
O O15 0.000000 0.344642 0.401209
O O16 0.500000 0.339968 0.954598
O O17 0.250000 0.250000 0.945082
O O18 0.220015 0.350916 0.000000
#
# Coordination Sequence:
#
# PCOD9487721 Si02
#       6
#    16   8  16  16  16  16
#     4  10  21  35  51  73 106 144 177 214 262 316
#     4  11  26  44  60  86 127 167 203 253 313 369
#     4   9  17  31  50  77 106 139 178 219 266 322
#     4   8  15  27  50  82 111 139 180 229 280 327
#     4  10  19  37  64  94 121 157 204 257 306 360
#     4  10  21  37  57  78  99 127 166 216 269 322
#
# _framework density 19.478152000000001
#
# number of rings (size 3 to 8) (size 9 to 14) (size 15 to 20)
#    0.000    2.455    0.909    1.091    1.273    5.091 
#    0.000    3.636    0.000    3.273    0.000    0.000 
#    0.000    0.000    0.000    0.000    0.000    0.000 
#
# Total GULP energy -245259.990603 kJ/mol
# GULP energy per Si atom -5574.090696 kJ/mol
# Density = 1.943382 g / cm^3
# Si number density = 19.478152 Si / 1000 Ang^3
#
#
#
# Elastic Constant Matrix: (Units=GPa)
#
#
# Indices 1 2 3 4 5 6 
#
# 1 75.9907 23.9013 37.2729 0.0000 0.0000 0.0000
# 2 23.9013 91.0944 98.8046 0.0000 0.0000 0.0000
# 3 37.2729 98.8046 188.8663 0.0000 0.0000 0.0000
# 4 0.0000 0.0000 0.0000 -19.2228 0.0000 0.0000
# 5 0.0000 0.0000 0.0000 0.0000 4.6446 0.0000
# 6 0.0000 0.0000 0.0000 0.0000 0.0000 14.6926
#
#
#
# Elastic Compliance Matrix: (Units=1/GPa)
#
#
# Indices 1 2 3 4 5 6 
#
# 1 0.014675 -0.001639 -0.002038 0.000000 0.000000 0.000000
# 2 -0.001639 0.025561 -0.013048 0.000000 0.000000 0.000000
# 3 -0.002038 -0.013048 0.012523 0.000000 0.000000 0.000000
# 4 0.000000 0.000000 0.000000 -0.052022 0.000000 0.000000
# 5 0.000000 0.000000 0.000000 0.000000 0.215302 0.000000
# 6 0.000000 0.000000 0.000000 0.000000 0.000000 0.068061
#
#
# Mechanical properties :
#
#
# Convention : Reuss Voigt Hill
#
# Bulk Modulus (GPa) = 51.79657 75.10101 63.44879
# Shear Modulus (GPa) = 15.43264 13.08772 14.26018
#
# Velocity S-wave (km/s) = 2.81785 2.59495 2.70869
# Velocity P-wave (km/s) = 6.10220 6.90062 6.51366
#
# Compressibility (1/GPa) = 0.01930630
#
# Stress axis : x y z
#
# Youngs Moduli (GPa) = 68.14306 39.12282 79.85156
#
# Poissons Ratio (x) = 0.06414 0.16277
# Poissons Ratio (y) = 0.11172 1.04193
# Poissons Ratio (z) = 0.13891 0.51049
#
# Static dielectric constant tensor:
#      x y z
#    x 1.709180 0.000000 0.000000 
#    y 0.000000 1.637710 0.000000 
#    z 0.000000 0.000000 1.727130 
# 
# From -- ./inp_files/76478.got.cif
#   From: 2010.05.17/outbox.cif.g08.bks.cpg/sg65_39_cif.got.tgz:76478.got - 2010.06.03 17:01:31.
