data_PCOD9487969
_publ_section_title
;
Structure prediction by ZEFSAII (Michael W. Deem and Ramdas Pophale) SiO2 
 PCOD9487969
Probable space group: C M M M
;
_chemical_formula_sum "Si O2"
_cell_formula_units_Z 120
_cell_length_a 24.285310
_cell_length_b 21.514147
_cell_length_c 13.377001
_cell_angle_alpha 90.000000
_cell_angle_beta 90.000000
_cell_angle_gamma 90.000000
_cell_volume 6989.185107
_symmetry_space_group_name_H-M "C M M M"
_symmetry_group_IT_number 65
_symmetry_cell_setting 'orthorhombic'
loop_
_space_group_symop_operation_xyz
x,y,z
-x,-y,z
x,-y,-z
-x,y,-z
-x,-y,-z
x,y,-z
-x,y,z
x,-y,z
1/2+x,1/2+y,z
1/2-x,1/2-y,z
1/2+x,1/2-y,-z
1/2-x,1/2+y,-z
1/2-x,1/2-y,-z
1/2+x,1/2+y,-z
1/2-x,1/2+y,z
1/2+x,1/2-y,z
loop_
_atom_site_type_symbol
_atom_site_label
_atom_site_fract_x
_atom_site_fract_y
_atom_site_fract_z
Si Si1 0.563923 0.899958 0.114843
Si Si2 0.157168 0.567039 0.259264
Si Si3 0.261669 0.570453 0.884946
Si Si4 0.821754 0.176460 0.380298
Si Si5 0.561554 0.751997 0.118805
Si Si6 0.867409 0.859221 0.179150
Si Si7 0.808730 0.679048 0.382236
Si Si8 0.565345 0.425552 0.000000
O O1 0.500000 0.916027 0.127463
O O2 0.603564 0.932568 0.191213
O O3 0.569303 0.825540 0.130866
O O4 0.579191 0.913331 0.000000
O O5 0.163105 0.500000 0.310912
O O6 0.209372 0.575085 0.186048
O O7 0.156593 0.626282 0.329491
O O8 0.285301 0.500000 0.871838
O O9 0.307417 0.621703 0.861238
O O10 0.244554 0.576130 0.000000
O O11 0.832725 0.166430 0.500000
O O12 0.858336 0.137520 0.300496
O O13 0.825915 0.250420 0.357404
O O14 0.756266 0.165855 0.362563
O O15 0.500000 0.735534 0.157262
O O16 0.609393 0.709919 0.162961
O O17 0.561261 0.740261 0.000000
O O18 0.907121 0.898614 0.102795
O O19 0.815085 0.674294 0.500000
O O20 0.572600 0.500000 0.000000
O O21 0.500000 0.411188 0.000000
#
# Coordination Sequence:
#
# PCOD9487969 Si02
#       8
#    16  16  16  16  16  16  16   8
#     4   9  19  35  52  72 103 141 180 222 267 319
#     4  11  21  33  51  76 106 141 184 226 267 324
#     4  10  20  32  45  70 110 148 177 215 270 324
#     4   9  19  34  56  81 108 143 184 226 278 331
#     4   9  17  30  49  75 103 134 177 226 272 314
#     4  12  18  31  56  79 109 145 180 224 270 334
#     4   9  18  36  55  76 108 142 177 224 275 331
#     4  11  24  38  56  83 114 154 196 227 266 328
#
# _framework density 17.169383
#
# number of rings (size 3 to 8) (size 9 to 14) (size 15 to 20)
#    0.000    2.067    2.667    3.600    0.000    1.333 
#    0.000    0.667    0.000    7.600    0.000    7.467 
#    0.000    0.000    0.000    0.000    0.000    0.000 
#
# Total GULP energy -334042.536444 kJ/mol
# GULP energy per Si atom -5567.375607 kJ/mol
# Density = 1.713030 g / cm^3
# Si number density = 17.169383 Si / 1000 Ang^3
#
#
#
# Elastic Constant Matrix: (Units=GPa)
#
#
# Indices 1 2 3 4 5 6 
#
# 1 39.5271 22.2103 28.7668 0.0000 0.0000 0.0000
# 2 22.2103 50.7331 37.5303 0.0000 0.0000 0.0000
# 3 28.7668 37.5303 79.1195 0.0000 0.0000 0.0000
# 4 0.0000 0.0000 0.0000 18.4907 0.0000 0.0000
# 5 0.0000 0.0000 0.0000 0.0000 -7.4513 0.0000
# 6 0.0000 0.0000 0.0000 0.0000 0.0000 24.3034
#
#
#
# Elastic Compliance Matrix: (Units=1/GPa)
#
#
# Indices 1 2 3 4 5 6 
#
# 1 0.037257 -0.009690 -0.008950 0.000000 0.000000 0.000000
# 2 -0.009690 0.032887 -0.012077 0.000000 0.000000 0.000000
# 3 -0.008950 -0.012077 0.021622 0.000000 0.000000 0.000000
# 4 0.000000 0.000000 0.000000 0.054081 0.000000 0.000000
# 5 0.000000 0.000000 0.000000 0.000000 -0.134204 0.000000
# 6 0.000000 0.000000 0.000000 0.000000 0.000000 0.041146
#
#
# Mechanical properties :
#
#
# Convention : Reuss Voigt Hill
#
# Bulk Modulus (GPa) = 32.96752 38.48827 35.72790
# Shear Modulus (GPa) = 40.21434 12.46006 26.33720
#
# Velocity S-wave (km/s) = 4.84489 2.69683 3.92083
# Velocity P-wave (km/s) = 7.10917 5.67121 6.43051
#
# Compressibility (1/GPa) = 0.03033288
#
# Stress axis : x y z
#
# Youngs Moduli (GPa) = 26.84035 30.40701 46.24967
#
# Poissons Ratio (x) = 0.29465 0.41393
# Poissons Ratio (y) = 0.26008 0.55855
# Poissons Ratio (z) = 0.24022 0.36722
#
# Static dielectric constant tensor:
#      x y z
#    x 1.580560 0.000000 0.000000 
#    y 0.000000 1.634220 0.000000 
#    z 0.000000 0.000000 1.578480 
# 
# From -- ./inp_files/31130.got.cif
#   From: 2010.05.17/outbox.cif.g08.bks.cpg/sg65_16_cif.got.tgz:31130.got - 2010.06.03 17:01:31.
