data_PCOD9487318
_publ_section_title
;
Structure prediction by ZEFSAII (Michael W. Deem and Ramdas Pophale) SiO2 
 PCOD9487318
Probable space group: C M M M
;
_chemical_formula_sum "Si O2"
_cell_formula_units_Z 96
_cell_length_a 17.997170
_cell_length_b 22.352724
_cell_length_c 13.388141
_cell_angle_alpha 90.000000
_cell_angle_beta 90.000000
_cell_angle_gamma 90.000000
_cell_volume 5385.858662
_symmetry_space_group_name_H-M "C M M M"
_symmetry_group_IT_number 65
_symmetry_cell_setting 'orthorhombic'
loop_
_space_group_symop_operation_xyz
x,y,z
-x,-y,z
x,-y,-z
-x,y,-z
-x,-y,-z
x,y,-z
-x,y,z
x,-y,z
1/2+x,1/2+y,z
1/2-x,1/2-y,z
1/2+x,1/2-y,-z
1/2-x,1/2+y,-z
1/2-x,1/2-y,-z
1/2+x,1/2+y,-z
1/2-x,1/2+y,z
1/2+x,1/2-y,z
loop_
_atom_site_type_symbol
_atom_site_label
_atom_site_fract_x
_atom_site_fract_y
_atom_site_fract_z
Si Si1 0.409944 0.000000 0.386844
Si Si2 0.166137 0.732248 0.382801
Si Si3 0.911411 0.859509 0.384566
Si Si4 0.587830 0.877312 0.276196
Si Si5 0.085967 0.927367 0.000000
Si Si6 0.334320 0.571629 0.204554
Si Si7 0.325212 0.928987 0.115625
O O1 0.388716 0.938825 0.332126
O O2 0.500000 0.000000 0.388394
O O3 0.382384 0.000000 0.500000
O O4 0.168310 0.714656 0.500000
O O5 0.250000 0.750000 0.353178
O O6 0.114725 0.790856 0.374310
O O7 0.132428 0.678288 0.319991
O O8 0.895245 0.877414 0.500000
O O9 0.867011 0.897195 0.302276
O O10 0.000000 0.864984 0.368989
O O11 0.500000 0.868568 0.290732
O O12 0.608693 0.890559 0.161827
O O13 0.123857 0.907806 0.103214
O O14 0.000000 0.910765 0.000000
O O15 0.091740 0.000000 0.000000
O O16 0.344350 0.500000 0.213646
O O17 0.247777 0.582832 0.182173
O O18 0.341930 0.000000 0.121305
O O19 0.309258 0.915768 0.000000
#
# Coordination Sequence:
#
# PCOD9487318 Si02
#       7
#     8  16  16  16   8  16  16
#     4   9  18  32  51  83 121 147 178 231 292 345
#     4  10  21  38  60  83 112 154 199 236 280 344
#     4  10  21  36  55  82 116 152 190 235 290 352
#     4  11  21  35  58  87 116 152 193 239 291 345
#     4   9  16  28  50  80 104 135 191 248 293 341
#     4  10  19  34  56  81 112 152 194 241 293 343
#     4  10  20  36  57  81 114 153 190 236 293 351
#
# _framework density 17.824456000000001
#
# number of rings (size 3 to 8) (size 9 to 14) (size 15 to 20)
#    0.000    2.000    1.667    2.500    0.000    3.333 
#    0.000    2.500    1.833    1.500    0.000    0.000 
#    0.000    0.000    0.000    0.000    0.000    0.000 
#
# Total GULP energy -267818.733534 kJ/mol
# GULP energy per Si atom -5579.556949 kJ/mol
# Density = 1.778389 g / cm^3
# Si number density = 17.824456 Si / 1000 Ang^3
#
#
#
# Elastic Constant Matrix: (Units=GPa)
#
#
# Indices 1 2 3 4 5 6 
#
# 1 75.3607 44.5420 49.9320 0.0000 0.0000 0.0000
# 2 44.5420 69.3761 55.9561 0.0000 0.0000 0.0000
# 3 49.9320 55.9561 115.9521 0.0000 0.0000 0.0000
# 4 0.0000 0.0000 0.0000 21.5344 0.0000 0.0000
# 5 0.0000 0.0000 0.0000 0.0000 32.2557 0.0000
# 6 0.0000 0.0000 0.0000 0.0000 0.0000 25.0924
#
#
#
# Elastic Compliance Matrix: (Units=1/GPa)
#
#
# Indices 1 2 3 4 5 6 
#
# 1 0.022731 -0.010968 -0.004495 0.000000 0.000000 0.000000
# 2 -0.010968 0.028892 -0.009220 0.000000 0.000000 0.000000
# 3 -0.004495 -0.009220 0.015009 0.000000 0.000000 0.000000
# 4 0.000000 0.000000 0.000000 0.046437 0.000000 0.000000
# 5 0.000000 0.000000 0.000000 0.000000 0.031002 0.000000
# 6 0.000000 0.000000 0.000000 0.000000 0.000000 0.039853
#
#
# Mechanical properties :
#
#
# Convention : Reuss Voigt Hill
#
# Bulk Modulus (GPa) = 57.91756 62.39435 60.15595
# Shear Modulus (GPa) = 20.91641 23.12710 22.02176
#
# Velocity S-wave (km/s) = 3.42931 3.60598 3.51875
# Velocity P-wave (km/s) = 6.94579 7.24005 7.09445
#
# Compressibility (1/GPa) = 0.01726592
#
# Stress axis : x y z
#
# Youngs Moduli (GPa) = 43.99312 34.61114 66.62497
#
# Poissons Ratio (x) = 0.37962 0.29951
# Poissons Ratio (y) = 0.48252 0.61426
# Poissons Ratio (z) = 0.19777 0.31911
#
# Static dielectric constant tensor:
#      x y z
#    x 1.623590 0.000000 0.000000 
#    y 0.000000 1.576080 0.000000 
#    z 0.000000 0.000000 1.620570 
# 
# From -- ./inp_files/29063.got.cif
#   From: 2010.05.17/outbox.cif.g08.bks.cpg/sg65_15_cif.got.tgz:29063.got - 2010.06.03 17:01:31.
