data_PCOD9487877
_publ_section_title
;
Structure prediction by ZEFSAII (Michael W. Deem and Ramdas Pophale) SiO2 
 PCOD9487877
Probable space group: C M M M
;
_chemical_formula_sum "Si O2"
_cell_formula_units_Z 80
_cell_length_a 16.578135
_cell_length_b 18.980303
_cell_length_c 13.442323
_cell_angle_alpha 90.000000
_cell_angle_beta 90.000000
_cell_angle_gamma 90.000000
_cell_volume 4229.734813
_symmetry_space_group_name_H-M "C M M M"
_symmetry_group_IT_number 65
_symmetry_cell_setting 'orthorhombic'
loop_
_space_group_symop_operation_xyz
x,y,z
-x,-y,z
x,-y,-z
-x,y,-z
-x,-y,-z
x,y,-z
-x,y,z
x,-y,z
1/2+x,1/2+y,z
1/2-x,1/2-y,z
1/2+x,1/2-y,-z
1/2-x,1/2+y,-z
1/2-x,1/2-y,-z
1/2+x,1/2+y,-z
1/2-x,1/2+y,z
1/2+x,1/2-y,z
loop_
_atom_site_type_symbol
_atom_site_label
_atom_site_fract_x
_atom_site_fract_y
_atom_site_fract_z
Si Si1 0.662358 0.421753 0.882157
Si Si2 0.591477 0.275306 0.120223
Si Si3 0.676858 0.803356 0.614848
Si Si4 0.500000 0.196293 0.614598
Si Si5 0.167783 0.366557 0.182625
Si Si6 0.000000 0.419861 0.785005
O O1 0.644499 0.500000 0.841274
O O2 0.614636 0.353350 0.843050
O O3 0.756244 0.402779 0.867208
O O4 0.645483 0.424499 0.000000
O O5 0.500000 0.256830 0.151851
O O6 0.653643 0.215074 0.153016
O O7 0.592726 0.276293 0.000000
O O8 0.681969 0.827406 0.500000
O O9 0.750000 0.750000 0.631613
O O10 0.587624 0.768076 0.628320
O O11 0.681117 0.863725 0.698158
O O12 0.500000 0.172260 0.500000
O O13 0.500000 0.131530 0.690243
O O14 0.082937 0.403404 0.158018
O O15 0.000000 0.500000 0.753123
#
# Coordination Sequence:
#
# PCOD9487877 Si02
#       6
#    16  16  16   8  16   8
#     4  10  21  35  52  75 102 134 171 211 256 305
#     4  10  20  34  53  76 101 132 171 212 255 304
#     4   9  17  29  47  72 101 132 167 209 255 301
#     4   8  16  29  44  65  95 129 165 203 244 296
#     4  11  19  34  52  74 103 134 170 209 253 303
#     4  10  20  31  47  70  99 133 164 198 247 302
#
# _framework density 18.913713999999999
#
# number of rings (size 3 to 8) (size 9 to 14) (size 15 to 20)
#    0.000    2.200    1.000    3.000    0.000    2.200 
#    0.000    2.000    0.000    4.200    0.000    0.000 
#    0.000    0.000    0.000    8.400    0.000    0.800 
#
# Total GULP energy -222875.145344 kJ/mol
# GULP energy per Si atom -5571.878634 kJ/mol
# Density = 1.887067 g / cm^3
# Si number density = 18.913714 Si / 1000 Ang^3
#
#
#
# Elastic Constant Matrix: (Units=GPa)
#
#
# Indices 1 2 3 4 5 6 
#
# 1 62.5965 23.1216 -4.4594 0.0000 0.0000 0.0000
# 2 23.1216 93.6608 10.7515 0.0000 0.0000 0.0000
# 3 -4.4594 10.7515 24.9323 0.0000 0.0000 0.0000
# 4 0.0000 0.0000 0.0000 7.0465 0.0000 0.0000
# 5 0.0000 0.0000 0.0000 0.0000 25.3189 0.0000
# 6 0.0000 0.0000 0.0000 0.0000 0.0000 12.5624
#
#
#
# Elastic Compliance Matrix: (Units=1/GPa)
#
#
# Indices 1 2 3 4 5 6 
#
# 1 0.018264 -0.005138 0.005482 0.000000 0.000000 0.000000
# 2 -0.005138 0.012678 -0.006386 0.000000 0.000000 0.000000
# 3 0.005482 -0.006386 0.043843 0.000000 0.000000 0.000000
# 4 0.000000 0.000000 0.000000 0.141914 0.000000 0.000000
# 5 0.000000 0.000000 0.000000 0.000000 0.039496 0.000000
# 6 0.000000 0.000000 0.000000 0.000000 0.000000 0.079603
#
#
# Mechanical properties :
#
#
# Convention : Reuss Voigt Hill
#
# Bulk Modulus (GPa) = 15.94863 26.66854 21.30859
# Shear Modulus (GPa) = 13.55812 19.10397 16.33104
#
# Velocity S-wave (km/s) = 2.68029 3.18159 2.94164
# Velocity P-wave (km/s) = 4.24609 5.25618 4.77790
#
# Compressibility (1/GPa) = 0.06270131
#
# Stress axis : x y z
#
# Youngs Moduli (GPa) = 54.75331 78.87488 22.80863
#
# Poissons Ratio (x) = 0.40526 -0.12504
# Poissons Ratio (y) = 0.28132 0.14566
# Poissons Ratio (z) = -0.30018 0.50371
#
# Static dielectric constant tensor:
#      x y z
#    x 1.706550 0.000000 0.000000 
#    y 0.000000 1.660830 0.000000 
#    z 0.000000 0.000000 1.686760 
# 
# From -- ./inp_files/42411.got.cif
#   From: 2010.05.17/outbox.cif.g08.bks.cpg/sg65_22_cif.got.tgz:42411.got - 2010.06.03 17:01:31.
