data_PCOD9487664
_publ_section_title
;
Structure prediction by ZEFSAII (Michael W. Deem and Ramdas Pophale) SiO2 
 PCOD9487664
Probable space group: C M M M
;
_chemical_formula_sum "Si O2"
_cell_formula_units_Z 88
_cell_length_a 20.819386
_cell_length_b 25.523676
_cell_length_c 9.243044
_cell_angle_alpha 90.000000
_cell_angle_beta 90.000000
_cell_angle_gamma 90.000000
_cell_volume 4911.635851
_symmetry_space_group_name_H-M "C M M M"
_symmetry_group_IT_number 65
_symmetry_cell_setting 'orthorhombic'
loop_
_space_group_symop_operation_xyz
x,y,z
-x,-y,z
x,-y,-z
-x,y,-z
-x,-y,-z
x,y,-z
-x,y,z
x,-y,z
1/2+x,1/2+y,z
1/2-x,1/2-y,z
1/2+x,1/2-y,-z
1/2-x,1/2+y,-z
1/2-x,1/2-y,-z
1/2+x,1/2+y,-z
1/2-x,1/2+y,z
1/2+x,1/2-y,z
loop_
_atom_site_type_symbol
_atom_site_label
_atom_site_fract_x
_atom_site_fract_y
_atom_site_fract_z
Si Si1 0.614844 0.154577 0.330654
Si Si2 0.743145 0.689565 0.675032
Si Si3 0.000000 0.710720 0.166444
Si Si4 0.576178 0.500000 0.675122
Si Si5 0.877031 0.884411 0.675718
Si Si6 0.500000 0.335870 0.831423
Si Si7 0.422658 0.940131 0.159428
O O1 0.606571 0.164933 0.500000
O O2 0.687836 0.165715 0.289938
O O3 0.563084 0.188528 0.244054
O O4 0.601112 0.095108 0.288523
O O5 0.736610 0.692621 0.500000
O O6 0.750000 0.750000 0.727352
O O7 0.685591 0.650196 0.721016
O O8 0.000000 0.773114 0.172215
O O9 0.000000 0.693247 0.000000
O O10 0.500000 0.500000 0.723352
O O11 0.573253 0.500000 0.500000
O O12 0.613910 0.553723 0.715902
O O13 0.880516 0.882075 0.500000
O O14 0.937919 0.856768 0.748102
O O15 0.500000 0.352454 0.000000
O O16 0.500000 0.939148 0.160933
O O17 0.401988 0.000000 0.172118
O O18 0.402323 0.920193 0.000000
#
# Coordination Sequence:
#
# PCOD9487664 Si02
#       7
#    16  16   8   8  16   8  16
#     4  11  21  34  55  85 112 137 182 239 284 322
#     4   9  19  35  54  80 113 146 183 229 283 338
#     4  11  23  37  53  77 111 150 186 222 275 344
#     4   9  16  30  56  90 112 135 186 229 265 342
#     4  10  19  36  60  81 109 150 187 225 279 346
#     4  11  23  36  54  84 113 138 182 235 277 328
#     4   9  18  34  55  76 104 146 184 214 263 332
#
# _framework density 17.916637000000001
#
# number of rings (size 3 to 8) (size 9 to 14) (size 15 to 20)
#    0.000    2.091    1.818    2.727    0.000    3.273 
#    1.636    3.636    0.000    4.909    0.000    0.000 
#    0.000    0.000    0.000    0.000    0.000    0.000 
#
# Total GULP energy -245127.615474 kJ/mol
# GULP energy per Si atom -5571.082170 kJ/mol
# Density = 1.787586 g / cm^3
# Si number density = 17.916637 Si / 1000 Ang^3
#
#
#
# Elastic Constant Matrix: (Units=GPa)
#
#
# Indices 1 2 3 4 5 6 
#
# 1 144.9417 76.4544 51.8658 0.0000 0.0000 0.0000
# 2 76.4544 124.0473 28.1509 0.0000 0.0000 0.0000
# 3 51.8658 28.1509 40.1849 0.0000 0.0000 0.0000
# 4 0.0000 0.0000 0.0000 20.4918 0.0000 0.0000
# 5 0.0000 0.0000 0.0000 0.0000 -16.0497 0.0000
# 6 0.0000 0.0000 0.0000 0.0000 0.0000 66.0098
#
#
#
# Elastic Compliance Matrix: (Units=1/GPa)
#
#
# Indices 1 2 3 4 5 6 
#
# 1 0.015982 -0.006146 -0.016322 0.000000 0.000000 0.000000
# 2 -0.006146 0.011949 -0.000438 0.000000 0.000000 0.000000
# 3 -0.016322 -0.000438 0.046258 0.000000 0.000000 0.000000
# 4 0.000000 0.000000 0.000000 0.048800 0.000000 0.000000
# 5 0.000000 0.000000 0.000000 0.000000 -0.062306 0.000000
# 6 0.000000 0.000000 0.000000 0.000000 0.000000 0.015149
#
#
# Mechanical properties :
#
#
# Convention : Reuss Voigt Hill
#
# Bulk Modulus (GPa) = 35.23982 69.12401 52.18192
# Shear Modulus (GPa) = 38.13789 24.27056 31.20422
#
# Velocity S-wave (km/s) = 4.61871 3.68453 4.17782
# Velocity P-wave (km/s) = 6.93937 7.53430 7.24295
#
# Compressibility (1/GPa) = 0.02837699
#
# Stress axis : x y z
#
# Youngs Moduli (GPa) = 62.57038 83.68973 21.61775
#
# Poissons Ratio (x) = 0.51437 0.35285
# Poissons Ratio (y) = 0.38457 0.00947
# Poissons Ratio (z) = 1.02128 0.03665
#
# Static dielectric constant tensor:
#      x y z
#    x 1.571150 0.000000 0.000000 
#    y 0.000000 1.653110 0.000000 
#    z 0.000000 0.000000 1.598430 
# 
# From -- ./inp_files/11884.got.cif
#   From: 2010.05.17/outbox.cif.g08.bks.cpg/sg65_6_cif.got.tgz:11884.got - 2010.06.03 17:01:31.
