data_PCOD9487536
_publ_section_title
;
Structure prediction by ZEFSAII (Michael W. Deem and Ramdas Pophale) SiO2 
 PCOD9487536
Probable space group: C M M M
;
_chemical_formula_sum "Si O2"
_cell_formula_units_Z 88
_cell_length_a 29.948277
_cell_length_b 7.632532
_cell_length_c 18.565806
_cell_angle_alpha 90.000000
_cell_angle_beta 90.000000
_cell_angle_gamma 90.000000
_cell_volume 4243.793890
_symmetry_space_group_name_H-M "C M M M"
_symmetry_group_IT_number 65
_symmetry_cell_setting 'orthorhombic'
loop_
_space_group_symop_operation_xyz
x,y,z
-x,-y,z
x,-y,-z
-x,y,-z
-x,-y,-z
x,y,-z
-x,y,z
x,-y,z
1/2+x,1/2+y,z
1/2-x,1/2-y,z
1/2+x,1/2-y,-z
1/2-x,1/2+y,-z
1/2-x,1/2-y,-z
1/2+x,1/2+y,-z
1/2-x,1/2+y,z
1/2+x,1/2-y,z
loop_
_atom_site_type_symbol
_atom_site_label
_atom_site_fract_x
_atom_site_fract_y
_atom_site_fract_z
Si Si1 0.799224 0.710178 0.186300
Si Si2 0.894326 0.709834 0.142827
Si Si3 0.949556 0.207568 0.000000
Si Si4 0.391333 0.785606 0.580487
Si Si5 0.799219 0.709831 0.351890
Si Si6 0.551278 0.214440 0.282740
O O1 0.801777 0.500000 0.189662
O O2 0.750000 0.750000 0.156870
O O3 0.843089 0.774418 0.144533
O O4 0.801508 0.776414 0.269217
O O5 0.892227 0.500000 0.149871
O O6 0.921900 0.745112 0.071056
O O7 0.920578 0.774442 0.213513
O O8 0.000000 0.283006 0.000000
O O9 0.953720 0.000000 0.000000
O O10 0.402942 0.728127 0.500000
O O11 0.341386 0.728075 0.602489
O O12 0.424867 0.730494 0.643490
O O13 0.391578 0.000000 0.580263
O O14 0.803141 0.500000 0.348133
O O15 0.750000 0.750000 0.380997
O O16 0.500000 0.270315 0.278384
O O17 0.551629 0.000000 0.282017
#
# Coordination Sequence:
#
# PCOD9487536 Si02
#       6
#    16  16   8  16  16  16
#     4   9  17  30  51  77 105 135 172 214 254 302
#     4  10  19  35  58  81 104 136 177 216 254 305
#     4  11  25  41  56  81 114 139 164 209 264 311
#     4   9  16  26  41  65 100 136 168 209 259 303
#     4   9  16  28  45  68  99 133 169 209 252 298
#     4   9  16  27  46  71  97 129 172 216 255 301
#
# _framework density 20.736163999999999
#
# number of rings (size 3 to 8) (size 9 to 14) (size 15 to 20)
#    0.000    2.636    1.818    0.818    0.000    2.909 
#    0.000    2.273    0.000    0.000    0.000    0.000 
#    0.000    0.000    0.000    5.455    0.000    5.455 
#
# Total GULP energy -245534.700743 kJ/mol
# GULP energy per Si atom -5580.334108 kJ/mol
# Density = 2.068897 g / cm^3
# Si number density = 20.736164 Si / 1000 Ang^3
#
#
#
# Elastic Constant Matrix: (Units=GPa)
#
#
# Indices 1 2 3 4 5 6 
#
# 1 216.6176 10.5895 115.0377 0.0000 0.0000 0.0000
# 2 10.5895 38.6331 3.3403 0.0000 0.0000 0.0000
# 3 115.0377 3.3403 147.1472 0.0000 0.0000 0.0000
# 4 0.0000 0.0000 0.0000 -10.7040 0.0000 0.0000
# 5 0.0000 0.0000 0.0000 0.0000 13.7443 0.0000
# 6 0.0000 0.0000 0.0000 0.0000 0.0000 17.8904
#
#
#
# Elastic Compliance Matrix: (Units=1/GPa)
#
#
# Indices 1 2 3 4 5 6 
#
# 1 0.007998 -0.001655 -0.006215 0.000000 0.000000 0.000000
# 2 -0.001655 0.026278 0.000697 0.000000 0.000000 0.000000
# 3 -0.006215 0.000697 0.011639 0.000000 0.000000 0.000000
# 4 0.000000 0.000000 0.000000 -0.093423 0.000000 0.000000
# 5 0.000000 0.000000 0.000000 0.000000 0.072757 0.000000
# 6 0.000000 0.000000 0.000000 0.000000 0.000000 0.055896
#
#
# Mechanical properties :
#
#
# Convention : Reuss Voigt Hill
#
# Bulk Modulus (GPa) = 31.67640 73.37033 52.52337
# Shear Modulus (GPa) = 47.16389 22.41485 34.78937
#
# Velocity S-wave (km/s) = 4.77432 3.29135 4.10044
# Velocity P-wave (km/s) = 6.76027 7.06425 6.91393
#
# Compressibility (1/GPa) = 0.03156924
#
# Stress axis : x y z
#
# Youngs Moduli (GPa) = 125.03191 38.05488 85.91808
#
# Poissons Ratio (x) = 0.06298 0.53399
# Poissons Ratio (y) = 0.20692 -0.05991
# Poissons Ratio (z) = 0.77709 -0.02653
#
# Static dielectric constant tensor:
#      x y z
#    x 1.753940 0.000000 0.000000 
#    y 0.000000 1.793520 0.000000 
#    z 0.000000 0.000000 1.729290 
# 
# From -- ./inp_files/50338.got.cif
#   From: 2010.05.17/outbox.cif.g08.bks.cpg/sg65_26_cif.got.tgz:50338.got - 2010.06.03 17:01:31.
