data_PCOD9487569
_publ_section_title
;
Structure prediction by ZEFSAII (Michael W. Deem and Ramdas Pophale) SiO2 
 PCOD9487569
Probable space group: C M M M
;
_chemical_formula_sum "Si O2"
_cell_formula_units_Z 88
_cell_length_a 21.063625
_cell_length_b 22.522947
_cell_length_c 8.630800
_cell_angle_alpha 90.000000
_cell_angle_beta 90.000000
_cell_angle_gamma 90.000000
_cell_volume 4094.580201
_symmetry_space_group_name_H-M "C M M M"
_symmetry_group_IT_number 65
_symmetry_cell_setting 'orthorhombic'
loop_
_space_group_symop_operation_xyz
x,y,z
-x,-y,z
x,-y,-z
-x,y,-z
-x,-y,-z
x,y,-z
-x,y,z
x,-y,z
1/2+x,1/2+y,z
1/2-x,1/2-y,z
1/2+x,1/2-y,-z
1/2-x,1/2+y,-z
1/2-x,1/2-y,-z
1/2+x,1/2+y,-z
1/2-x,1/2+y,z
1/2+x,1/2-y,z
loop_
_atom_site_type_symbol
_atom_site_label
_atom_site_fract_x
_atom_site_fract_y
_atom_site_fract_z
Si Si1 0.238477 0.895605 0.329065
Si Si2 0.603519 0.433493 0.668340
Si Si3 0.425504 0.567137 0.000000
Si Si4 0.317935 0.717980 0.176370
Si Si5 0.072227 0.310060 0.189063
Si Si6 0.867220 0.567077 0.815651
O O1 0.267363 0.891039 0.500000
O O2 0.179348 0.939341 0.332139
O O3 0.200814 0.835959 0.285901
O O4 0.294170 0.914477 0.215133
O O5 0.585281 0.406968 0.500000
O O6 0.575342 0.500000 0.674087
O O7 0.588597 0.403760 0.833395
O O8 0.395361 0.500000 0.000000
O O9 0.500000 0.560387 0.000000
O O10 0.250000 0.750000 0.164888
O O11 0.373329 0.762380 0.233109
O O12 0.333983 0.698579 0.000000
O O13 0.091554 0.376727 0.241890
O O14 0.000000 0.295489 0.236126
O O15 0.073810 0.310779 0.000000
O O16 0.878707 0.500000 0.753490
O O17 0.877568 0.564208 0.000000
#
# Coordination Sequence:
#
# PCOD9487569 Si02
#       6
#    16  16   8  16  16  16
#     4  11  22  35  55  83 116 151 193 244 298 354
#     4   9  19  34  51  77 112 147 185 238 301 358
#     4   9  18  32  52  76 101 142 193 233 283 356
#     4  10  19  35  59  84 113 151 195 244 296 349
#     4   9  18  35  58  86 121 158 196 243 300 358
#     4  10  20  34  57  89 120 154 196 242 294 356
#
# _framework density 21.491824000000001
#
# number of rings (size 3 to 8) (size 9 to 14) (size 15 to 20)
#    0.000    2.273    1.818    1.091    2.545    2.182 
#    0.000    4.545    0.000    3.273    0.000    1.273 
#    0.000    0.000    0.000    0.000    0.000    0.000 
#
# Total GULP energy -244938.457084 kJ/mol
# GULP energy per Si atom -5566.783116 kJ/mol
# Density = 2.144291 g / cm^3
# Si number density = 21.491824 Si / 1000 Ang^3
#
#
#
# Elastic Constant Matrix: (Units=GPa)
#
#
# Indices 1 2 3 4 5 6 
#
# 1 95.5063 22.5057 0.8206 0.0000 0.0000 0.0000
# 2 22.5057 95.6920 8.4520 0.0000 0.0000 0.0000
# 3 0.8206 8.4520 87.2908 0.0000 0.0000 0.0000
# 4 0.0000 0.0000 0.0000 -18.3463 0.0000 0.0000
# 5 0.0000 0.0000 0.0000 0.0000 -21.2277 0.0000
# 6 0.0000 0.0000 0.0000 0.0000 0.0000 17.6210
#
#
#
# Elastic Compliance Matrix: (Units=1/GPa)
#
#
# Indices 1 2 3 4 5 6 
#
# 1 0.011087 -0.002621 0.000150 0.000000 0.000000 0.000000
# 2 -0.002621 0.011160 -0.001056 0.000000 0.000000 0.000000
# 3 0.000150 -0.001056 0.011557 0.000000 0.000000 0.000000
# 4 0.000000 0.000000 0.000000 -0.054507 0.000000 0.000000
# 5 0.000000 0.000000 0.000000 0.000000 -0.047108 0.000000
# 6 0.000000 0.000000 0.000000 0.000000 0.000000 0.056751
#
#
# Mechanical properties :
#
#
# Convention : Reuss Voigt Hill
#
# Bulk Modulus (GPa) = 37.38427 38.00508 37.69467
# Shear Modulus (GPa) = 1018.45408 12.05678 515.25543
#
# Velocity S-wave (km/s) = 21.79240 2.37110 15.50049
# Velocity P-wave (km/s) = 25.50772 5.02176 18.38290
#
# Compressibility (1/GPa) = 0.02674922
#
# Stress axis : x y z
#
# Youngs Moduli (GPa) = 90.19750 89.60719 86.52915
#
# Poissons Ratio (x) = 0.23483 -0.01294
# Poissons Ratio (y) = 0.23638 0.09137
# Poissons Ratio (z) = -0.01349 0.09462
#
# Static dielectric constant tensor:
#      x y z
#    x 1.760470 0.000000 0.000000 
#    y 0.000000 1.755070 0.000000 
#    z 0.000000 0.000000 1.835260 
# 
# From -- ./inp_files/11821.got.cif
#   From: 2010.05.17/outbox.cif.g08.bks.cpg/sg65_6_cif.got.tgz:11821.got - 2010.06.03 17:01:31.
