data_PCOD9487112
_publ_section_title
;
Structure prediction by ZEFSAII (Michael W. Deem and Ramdas Pophale) SiO2 
 PCOD9487112
Probable space group: C M M M
;
_chemical_formula_sum "Si O2"
_cell_formula_units_Z 56
_cell_length_a 21.715030
_cell_length_b 14.648021
_cell_length_c 9.971258
_cell_angle_alpha 90.000000
_cell_angle_beta 90.000000
_cell_angle_gamma 90.000000
_cell_volume 3171.679836
_symmetry_space_group_name_H-M "C M M M"
_symmetry_group_IT_number 65
_symmetry_cell_setting 'orthorhombic'
loop_
_space_group_symop_operation_xyz
x,y,z
-x,-y,z
x,-y,-z
-x,y,-z
-x,-y,-z
x,y,-z
-x,y,z
x,-y,z
1/2+x,1/2+y,z
1/2-x,1/2-y,z
1/2+x,1/2-y,-z
1/2-x,1/2+y,-z
1/2-x,1/2-y,-z
1/2+x,1/2+y,-z
1/2-x,1/2+y,z
1/2+x,1/2-y,z
loop_
_atom_site_type_symbol
_atom_site_label
_atom_site_fract_x
_atom_site_fract_y
_atom_site_fract_z
Si Si1 0.927220 0.306232 0.000000
Si Si2 0.250000 0.250000 0.214474
Si Si3 0.072508 0.899748 0.500000
Si Si4 0.925874 0.605948 0.500000
Si Si5 0.385979 0.745077 0.710807
Si Si6 0.703194 0.106230 0.000000
O O1 0.912051 0.252130 0.137911
O O2 0.871459 0.380818 0.000000
O O3 0.000000 0.333231 0.000000
O O4 0.312593 0.266894 0.292262
O O5 0.267882 0.162331 0.123809
O O6 0.088000 0.839707 0.629375
O O7 0.000000 0.909555 0.500000
O O8 0.101821 0.000000 0.500000
O O9 0.906064 0.500000 0.500000
O O10 0.903554 0.662803 0.370299
O O11 0.000000 0.607987 0.500000
O O12 0.718198 0.000000 0.000000
#
# Coordination Sequence:
#
# PCOD9487112 Si02
#       6
#     8   8   8   8  16   8
#     4  10  19  33  58  86 108 136 176 223 277 329
#     4   9  20  35  52  78 108 142 184 220 262 320
#     4  10  21  37  55  76 105 143 183 222 268 316
#     4  10  21  37  57  82 113 147 177 214 276 338
#     4  10  20  37  56  78 110 144 178 223 269 316
#     4   9  19  35  52  75 114 150 172 213 274 326
#
# _framework density 17.656257
#
# number of rings (size 3 to 8) (size 9 to 14) (size 15 to 20)
#    0.000    2.286    0.000    4.286    0.000    8.286 
#    0.000    2.143    0.000    2.571    0.000    0.000 
#    0.000    0.000    0.000    0.000    0.000    0.000 
#
# Total GULP energy -155963.793250 kJ/mol
# GULP energy per Si atom -5570.135473 kJ/mol
# Density = 1.761607 g / cm^3
# Si number density = 17.656257 Si / 1000 Ang^3
#
#
#
# Elastic Constant Matrix: (Units=GPa)
#
#
# Indices 1 2 3 4 5 6 
#
# 1 138.3426 45.6176 30.6442 0.0000 0.0000 0.0000
# 2 45.6176 159.5776 56.3247 0.0000 0.0000 0.0000
# 3 30.6442 56.3247 118.9353 0.0000 0.0000 0.0000
# 4 0.0000 0.0000 0.0000 3.7998 0.0000 0.0000
# 5 0.0000 0.0000 0.0000 0.0000 27.6898 0.0000
# 6 0.0000 0.0000 0.0000 0.0000 0.0000 16.5770
#
#
#
# Elastic Compliance Matrix: (Units=1/GPa)
#
#
# Indices 1 2 3 4 5 6 
#
# 1 0.008119 -0.001900 -0.001192 0.000000 0.000000 0.000000
# 2 -0.001900 0.007969 -0.003284 0.000000 0.000000 0.000000
# 3 -0.001192 -0.003284 0.010270 0.000000 0.000000 0.000000
# 4 0.000000 0.000000 0.000000 0.263174 0.000000 0.000000
# 5 0.000000 0.000000 0.000000 0.000000 0.036114 0.000000
# 6 0.000000 0.000000 0.000000 0.000000 0.000000 0.060324
#
#
# Mechanical properties :
#
#
# Convention : Reuss Voigt Hill
#
# Bulk Modulus (GPa) = 73.50030 75.78094 74.64062
# Shear Modulus (GPa) = 12.39898 28.56460 20.48179
#
# Velocity S-wave (km/s) = 2.65286 4.02657 3.40962
# Velocity P-wave (km/s) = 7.14859 8.03934 7.60702
#
# Compressibility (1/GPa) = 0.01360539
#
# Stress axis : x y z
#
# Youngs Moduli (GPa) = 123.16698 125.48660 97.36694
#
# Poissons Ratio (x) = 0.23845 0.11606
# Poissons Ratio (y) = 0.23404 0.31978
# Poissons Ratio (z) = 0.14682 0.41214
#
# Static dielectric constant tensor:
#      x y z
#    x 1.606480 0.000000 0.000000 
#    y 0.000000 1.588760 0.000000 
#    z 0.000000 0.000000 1.621040 
# 
# From -- ./inp_files/10716.got.cif
#   From: 2010.05.17/outbox.cif.g08.bks.cpg/sg65_6_cif.got.tgz:10716.got - 2010.06.03 17:01:31.
