data_PCOD9488878
_publ_section_title
;
Structure prediction by ZEFSAII (Michael W. Deem and Ramdas Pophale) SiO2 
 PCOD9488878
Probable space group: C M M M
;
_chemical_formula_sum "Si O2"
_cell_formula_units_Z 88
_cell_length_a 8.887534
_cell_length_b 18.858177
_cell_length_c 28.759965
_cell_angle_alpha 90.000000
_cell_angle_beta 90.000000
_cell_angle_gamma 90.000000
_cell_volume 4820.247477
_symmetry_space_group_name_H-M "C M M M"
_symmetry_group_IT_number 65
_symmetry_cell_setting 'orthorhombic'
loop_
_space_group_symop_operation_xyz
x,y,z
-x,-y,z
x,-y,-z
-x,y,-z
-x,-y,-z
x,y,-z
-x,y,z
x,-y,z
1/2+x,1/2+y,z
1/2-x,1/2-y,z
1/2+x,1/2-y,-z
1/2-x,1/2+y,-z
1/2-x,1/2-y,-z
1/2+x,1/2+y,-z
1/2-x,1/2+y,z
1/2+x,1/2-y,z
loop_
_atom_site_type_symbol
_atom_site_label
_atom_site_fract_x
_atom_site_fract_y
_atom_site_fract_z
Si Si1 0.680404 0.082957 0.319091
Si Si2 0.179588 0.083543 0.053940
Si Si3 0.683359 0.081596 0.500000
Si Si4 0.678803 0.583912 0.219712
Si Si5 0.818065 0.328140 0.409898
Si Si6 0.321219 0.827729 0.863814
O O1 0.500000 0.088886 0.312581
O O2 0.762094 0.102057 0.271163
O O3 0.724753 0.131993 0.362259
O O4 0.712597 0.000000 0.329519
O O5 0.268457 0.130875 0.090131
O O6 0.000000 0.093680 0.060585
O O7 0.210401 0.000000 0.061626
O O8 0.214171 0.099679 0.000000
O O9 0.500000 0.079818 0.500000
O O10 0.729424 0.124302 0.453976
O O11 0.734709 0.000000 0.500000
O O12 0.500000 0.594930 0.216739
O O13 0.708864 0.500000 0.212511
O O14 0.760756 0.628908 0.180471
O O15 0.750000 0.250000 0.412467
O O16 0.000000 0.323459 0.410828
O O17 0.500000 0.822910 0.862204
O O18 0.250000 0.750000 0.863694
#
# Coordination Sequence:
#
# PCOD9488878 Si02
#       6
#    16  16   8  16  16  16
#     4   9  18  34  55  78 104 138 183 227 265 312
#     4   9  19  38  63  88 115 148 185 226 273 326
#     4   9  17  32  55  79 102 135 182 226 262 309
#     4  10  21  38  60  84 111 144 182 226 276 330
#     4  10  20  33  52  78 108 141 175 218 270 322
#     4  12  25  39  57  82 114 150 187 230 278 328
#
# _framework density 18.256323999999999
#
# number of rings (size 3 to 8) (size 9 to 14) (size 15 to 20)
#    0.000    2.091    0.000    4.091    0.000    8.000 
#    0.000    2.727    0.000    2.182    0.000    0.000 
#    0.000    0.000    0.000    0.000    0.000    0.000 
#
# Total GULP energy -245795.454447 kJ/mol
# GULP energy per Si atom -5586.260328 kJ/mol
# Density = 1.821477 g / cm^3
# Si number density = 18.256324 Si / 1000 Ang^3
#
#
#
# Elastic Constant Matrix: (Units=GPa)
#
#
# Indices 1 2 3 4 5 6 
#
# 1 71.1864 76.6274 89.2344 0.0000 0.0000 0.0000
# 2 76.6274 142.4783 127.3522 0.0000 0.0000 0.0000
# 3 89.2344 127.3522 176.3561 0.0000 0.0000 0.0000
# 4 0.0000 0.0000 0.0000 -24.7234 0.0000 0.0000
# 5 0.0000 0.0000 0.0000 0.0000 21.7610 0.0000
# 6 0.0000 0.0000 0.0000 0.0000 0.0000 31.4795
#
#
#
# Elastic Compliance Matrix: (Units=1/GPa)
#
#
# Indices 1 2 3 4 5 6 
#
# 1 0.043302 -0.010448 -0.014365 0.000000 0.000000 0.000000
# 2 -0.010448 0.022318 -0.010830 0.000000 0.000000 0.000000
# 3 -0.014365 -0.010830 0.020759 0.000000 0.000000 0.000000
# 4 0.000000 0.000000 0.000000 -0.040447 0.000000 0.000000
# 5 0.000000 0.000000 0.000000 0.000000 0.045954 0.000000
# 6 0.000000 0.000000 0.000000 0.000000 0.000000 0.031767
#
#
# Mechanical properties :
#
#
# Convention : Reuss Voigt Hill
#
# Bulk Modulus (GPa) = 66.25739 108.49430 87.37585
# Shear Modulus (GPa) = 25.00383 12.15720 18.58051
#
# Velocity S-wave (km/s) = 3.70482 2.58334 3.19369
# Velocity P-wave (km/s) = 7.39409 8.27379 7.84628
#
# Compressibility (1/GPa) = 0.01509266
#
# Stress axis : x y z
#
# Youngs Moduli (GPa) = 23.09375 44.80713 48.17092
#
# Poissons Ratio (x) = 0.46816 0.69198
# Poissons Ratio (y) = 0.24129 0.52167
# Poissons Ratio (z) = 0.33175 0.48525
#
# Static dielectric constant tensor:
#      x y z
#    x 1.611470 0.000000 0.000000 
#    y 0.000000 1.599270 0.000000 
#    z 0.000000 0.000000 1.606410 
# 
# From -- ./inp_files/76492.got.cif
#   From: 2010.05.17/outbox.cif.g08.bks.cpg/sg65_39_cif.got.tgz:76492.got - 2010.06.03 17:01:31.
