data_PCOD9488940
_publ_section_title
;
Structure prediction by ZEFSAII (Michael W. Deem and Ramdas Pophale) SiO2 
 PCOD9488940
Probable space group: C M M M
;
_chemical_formula_sum "Si O2"
_cell_formula_units_Z 116
_cell_length_a 30.367421
_cell_length_b 7.723162
_cell_length_c 25.766847
_cell_angle_alpha 90.000000
_cell_angle_beta 90.000000
_cell_angle_gamma 90.000000
_cell_volume 6043.163351
_symmetry_space_group_name_H-M "C M M M"
_symmetry_group_IT_number 65
_symmetry_cell_setting 'orthorhombic'
loop_
_space_group_symop_operation_xyz
x,y,z
-x,-y,z
x,-y,-z
-x,y,-z
-x,-y,-z
x,y,-z
-x,y,z
x,-y,z
1/2+x,1/2+y,z
1/2-x,1/2-y,z
1/2+x,1/2-y,-z
1/2-x,1/2+y,-z
1/2-x,1/2-y,-z
1/2+x,1/2+y,-z
1/2-x,1/2+y,z
1/2+x,1/2-y,z
loop_
_atom_site_type_symbol
_atom_site_label
_atom_site_fract_x
_atom_site_fract_y
_atom_site_fract_z
Si Si1 0.797547 0.788535 0.593163
Si Si2 0.949692 0.790943 0.143891
Si Si3 0.121656 0.296130 0.941808
Si Si4 0.449325 0.287787 0.261479
Si Si5 0.701707 0.695808 0.125202
Si Si6 0.133060 0.803268 0.321206
Si Si7 0.300735 0.805830 0.761835
Si Si8 0.201219 0.500000 0.500000
O O1 0.750000 0.750000 0.619161
O O2 0.837546 0.738355 0.631218
O O3 0.798408 0.656260 0.544894
O O4 0.799515 0.000000 0.581640
O O5 0.917277 0.732348 0.099058
O O6 0.937685 0.734264 0.202420
O O7 0.000000 0.735747 0.134199
O O8 0.948836 0.000000 0.144297
O O9 0.130543 0.500000 0.944068
O O10 0.165257 0.210690 0.918525
O O11 0.111085 0.234611 0.000000
O O12 0.500000 0.237616 0.271899
O O13 0.448292 0.500000 0.261721
O O14 0.412763 0.222456 0.301763
O O15 0.705092 0.500000 0.144253
O O16 0.750000 0.750000 0.106646
O O17 0.689080 0.799953 0.176837
O O18 0.165339 0.803824 0.271530
O O19 0.122239 0.000000 0.335924
O O20 0.250000 0.750000 0.756731
O O21 0.305491 0.000000 0.742160
#
# Coordination Sequence:
#
# PCOD9488940 Si02
#       8
#    16  16  16  16  16  16  16   4
#     4  11  23  36  57  86 116 158 205 243 288 335
#     4   9  18  34  58  85 110 141 182 222 271 338
#     4  11  24  39  54  75 104 138 180 230 281 331
#     4   8  15  31  56  83 111 143 177 221 277 333
#     4  11  22  38  58  78 102 137 180 223 274 335
#     4  10  20  33  52  84 118 146 187 237 280 333
#     4  11  21  33  53  77 111 148 180 218 272 337
#     4  12  24  40  62  78 121 164 199 250 282 334
#
# _framework density 19.195245
#
# number of rings (size 3 to 8) (size 9 to 14) (size 15 to 20)
#    0.000    1.793    0.690    6.207    0.966    4.138 
#    0.000    1.379    0.000    1.241    0.000    0.966 
#    0.000    3.310    0.000    0.000    0.000    0.000 
#
# Total GULP energy -323081.678477 kJ/mol
# GULP energy per Si atom -5570.373767 kJ/mol
# Density = 1.915156 g / cm^3
# Si number density = 19.195245 Si / 1000 Ang^3
#
#
#
# Elastic Constant Matrix: (Units=GPa)
#
#
# Indices 1 2 3 4 5 6 
#
# 1 101.5533 9.0686 72.7668 0.0000 0.0000 0.0000
# 2 9.0686 78.3383 15.6083 0.0000 0.0000 0.0000
# 3 72.7668 15.6083 100.2718 0.0000 0.0000 0.0000
# 4 0.0000 0.0000 0.0000 30.3970 0.0000 0.0000
# 5 0.0000 0.0000 0.0000 0.0000 -9.0797 0.0000
# 6 0.0000 0.0000 0.0000 0.0000 0.0000 17.7034
#
#
#
# Elastic Compliance Matrix: (Units=1/GPa)
#
#
# Indices 1 2 3 4 5 6 
#
# 1 0.020542 0.000611 -0.015003 0.000000 0.000000 0.000000
# 2 0.000611 0.013192 -0.002497 0.000000 0.000000 0.000000
# 3 -0.015003 -0.002497 0.021249 0.000000 0.000000 0.000000
# 4 0.000000 0.000000 0.000000 0.032898 0.000000 0.000000
# 5 0.000000 0.000000 0.000000 0.000000 -0.110136 0.000000
# 6 0.000000 0.000000 0.000000 0.000000 0.000000 0.056486
#
#
# Mechanical properties :
#
#
# Convention : Reuss Voigt Hill
#
# Bulk Modulus (GPa) = 47.15581 52.78343 49.96962
# Shear Modulus (GPa) = 66.59819 19.98546 43.29182
#
# Velocity S-wave (km/s) = 5.89665 3.23021 4.75420
# Velocity P-wave (km/s) = 8.42498 6.43974 7.49835
#
# Compressibility (1/GPa) = 0.02120629
#
# Stress axis : x y z
#
# Youngs Moduli (GPa) = 48.67963 75.80407 47.06112
#
# Poissons Ratio (x) = -0.04633 0.70604
# Poissons Ratio (y) = -0.02975 0.11751
# Poissons Ratio (z) = 0.73033 0.18928
#
# Static dielectric constant tensor:
#      x y z
#    x 1.680850 0.000000 0.000000 
#    y 0.000000 1.840410 0.000000 
#    z 0.000000 0.000000 1.658060 
# 
# From -- ./inp_files/72259.got.cif
#   From: 2010.05.17/outbox.cif.g08.bks.cpg/sg65_37_cif.got.tgz:72259.got - 2010.06.03 17:01:31.
