data_PCOD9488978
_publ_section_title
;
Structure prediction by ZEFSAII (Michael W. Deem and Ramdas Pophale) SiO2 
 PCOD9488978
Probable space group: C M M M
;
_chemical_formula_sum "Si O2"
_cell_formula_units_Z 56
_cell_length_a 11.743087
_cell_length_b 18.769097
_cell_length_c 12.181154
_cell_angle_alpha 90.000000
_cell_angle_beta 90.000000
_cell_angle_gamma 90.000000
_cell_volume 2684.813303
_symmetry_space_group_name_H-M "C M M M"
_symmetry_group_IT_number 65
_symmetry_cell_setting 'orthorhombic'
loop_
_space_group_symop_operation_xyz
x,y,z
-x,-y,z
x,-y,-z
-x,y,-z
-x,-y,-z
x,y,-z
-x,y,z
x,-y,z
1/2+x,1/2+y,z
1/2-x,1/2-y,z
1/2+x,1/2-y,-z
1/2-x,1/2+y,-z
1/2-x,1/2-y,-z
1/2+x,1/2+y,-z
1/2-x,1/2+y,z
1/2+x,1/2-y,z
loop_
_atom_site_type_symbol
_atom_site_label
_atom_site_fract_x
_atom_site_fract_y
_atom_site_fract_z
Si Si1 0.782980 0.082073 0.210511
Si Si2 0.870425 0.654026 0.625630
Si Si3 0.126236 0.584601 0.000000
Si Si4 0.125867 0.231501 0.818625
O O1 0.713817 0.096502 0.321981
O O2 0.695573 0.098421 0.110589
O O3 0.871147 0.146715 0.201910
O O4 0.821613 0.000000 0.201230
O O5 0.842906 0.671663 0.500000
O O6 0.867913 0.722697 0.705777
O O7 0.000000 0.626690 0.629840
O O8 0.114377 0.500000 0.000000
O O9 0.000000 0.615514 0.000000
O O10 0.250000 0.250000 0.872636
O O11 0.000000 0.247757 0.866951
#
# Coordination Sequence:
#
# PCOD9488978 Si02
#       4
#    16  16   8  16
#     4  10  20  33  53  82 112 144 184 230 280 332
#     4   9  18  34  56  80 109 148 190 230 274 327
#     4   9  18  34  54  77 112 155 191 225 272 331
#     4   9  19  36  57  81 110 146 186 226 272 329
#
# _framework density 20.858060999999999
#
# number of rings (size 3 to 8) (size 9 to 14) (size 15 to 20)
#    0.000    2.714    0.000    0.857    0.000    9.143 
#    0.000    8.571    0.000    9.429    0.000   12.000 
#    0.000    0.000    0.000    0.000    0.000    0.000 
#
# Total GULP energy -155869.342691 kJ/mol
# GULP energy per Si atom -5566.762239 kJ/mol
# Density = 2.081059 g / cm^3
# Si number density = 20.858061 Si / 1000 Ang^3
#
#
#
# Elastic Constant Matrix: (Units=GPa)
#
#
# Indices 1 2 3 4 5 6 
#
# 1 129.8719 20.2933 16.7025 0.0000 0.0000 0.0000
# 2 20.2933 144.6788 13.8916 0.0000 0.0000 0.0000
# 3 16.7025 13.8916 94.3231 0.0000 0.0000 0.0000
# 4 0.0000 0.0000 0.0000 19.3146 0.0000 0.0000
# 5 0.0000 0.0000 0.0000 0.0000 24.6805 0.0000
# 6 0.0000 0.0000 0.0000 0.0000 0.0000 -8.8425
#
#
#
# Elastic Compliance Matrix: (Units=1/GPa)
#
#
# Indices 1 2 3 4 5 6 
#
# 1 0.008020 -0.001003 -0.001273 0.000000 0.000000 0.000000
# 2 -0.001003 0.007136 -0.000873 0.000000 0.000000 0.000000
# 3 -0.001273 -0.000873 0.010956 0.000000 0.000000 0.000000
# 4 0.000000 0.000000 0.000000 0.051774 0.000000 0.000000
# 5 0.000000 0.000000 0.000000 0.000000 0.040518 0.000000
# 6 0.000000 0.000000 0.000000 0.000000 0.000000 -0.113091
#
#
# Mechanical properties :
#
#
# Convention : Reuss Voigt Hill
#
# Bulk Modulus (GPa) = 50.46691 52.29428 51.38060
# Shear Modulus (GPa) = 274.47830 28.22963 151.35396
#
# Velocity S-wave (km/s) = 11.48386 3.68287 8.52768
# Velocity P-wave (km/s) = 14.14520 6.57348 11.02945
#
# Compressibility (1/GPa) = 0.01981496
#
# Stress axis : x y z
#
# Youngs Moduli (GPa) = 124.68454 140.12699 91.27559
#
# Poissons Ratio (x) = 0.14052 0.11615
# Poissons Ratio (y) = 0.12503 0.07973
# Poissons Ratio (z) = 0.15866 0.12239
#
# Static dielectric constant tensor:
#      x y z
#    x 1.804120 0.000000 0.000000 
#    y 0.000000 1.750850 0.000000 
#    z 0.000000 0.000000 1.733140 
# 
# From -- ./inp_files/21933.got.cif
#   From: 2010.05.17/outbox.cif.g08.bks.cpg/sg65_11_cif.got.tgz:21933.got - 2010.06.03 17:01:31.
