data_PCOD9488656
_publ_section_title
;
Structure prediction by ZEFSAII (Michael W. Deem and Ramdas Pophale) SiO2 
 PCOD9488656
Probable space group: C M M M
;
_chemical_formula_sum "Si O2"
_cell_formula_units_Z 82
_cell_length_a 26.920159
_cell_length_b 19.390670
_cell_length_c 7.540372
_cell_angle_alpha 90.000000
_cell_angle_beta 90.000000
_cell_angle_gamma 90.000000
_cell_volume 3936.073577
_symmetry_space_group_name_H-M "C M M M"
_symmetry_group_IT_number 65
_symmetry_cell_setting 'orthorhombic'
loop_
_space_group_symop_operation_xyz
x,y,z
-x,-y,z
x,-y,-z
-x,y,-z
-x,-y,-z
x,y,-z
-x,y,z
x,-y,z
1/2+x,1/2+y,z
1/2-x,1/2-y,z
1/2+x,1/2-y,-z
1/2-x,1/2+y,-z
1/2-x,1/2-y,-z
1/2+x,1/2+y,-z
1/2-x,1/2+y,z
1/2+x,1/2-y,z
loop_
_atom_site_type_symbol
_atom_site_label
_atom_site_fract_x
_atom_site_fract_y
_atom_site_fract_z
Si Si1 0.500000 0.359049 0.802479
Si Si2 0.190190 0.920715 0.211891
Si Si3 0.104898 0.818234 0.212071
Si Si4 0.000000 0.000000 0.000000
Si Si5 0.398403 0.157168 0.713920
Si Si6 0.500000 0.918902 0.283169
Si Si7 0.800992 0.578330 0.713270
O O1 0.448713 0.339314 0.713451
O O2 0.500000 0.323000 0.000000
O O3 0.500000 0.439214 0.849419
O O4 0.149178 0.866987 0.280549
O O5 0.246110 0.894383 0.244400
O O6 0.185582 0.000000 0.280895
O O7 0.184099 0.925464 0.000000
O O8 0.108885 0.736996 0.240123
O O9 0.103506 0.831381 0.000000
O O10 0.399521 0.152162 0.500000
O O11 0.449972 0.121575 0.774697
O O12 0.349194 0.118061 0.779376
O O13 0.500000 0.918773 0.500000
O O14 0.500000 0.000000 0.230219
O O15 0.804428 0.576654 0.500000
O O16 0.802173 0.500000 0.780098
#
# Coordination Sequence:
#
# PCOD9488656 Si02
#       7
#     8  16  16   2  16   8  16
#     4   8  17  29  50  76  99 123 161 205 247 284
#     4   9  19  33  52  74  98 128 170 212 250 289
#     4  10  20  33  50  75 105 133 163 204 250 296
#     4   8  16  28  56  80  94 124 174 212 246 282
#     4  10  20  33  52  76 103 133 164 201 248 301
#     4   9  17  32  56  81  99 125 167 210 245 287
#     4   9  18  34  53  73  97 129 169 211 248 290
#
# _framework density 20.832943
#
# number of rings (size 3 to 8) (size 9 to 14) (size 15 to 20)
#    0.293    2.439    0.000    1.171    1.366    4.683 
#    0.000    3.902    0.000    2.341    0.000    0.683 
#    0.000    0.000    0.000    0.000    0.000    0.000 
#
# Total GULP energy -228296.404448 kJ/mol
# GULP energy per Si atom -5568.204987 kJ/mol
# Density = 2.078553 g / cm^3
# Si number density = 20.832943 Si / 1000 Ang^3
#
#
#
# Elastic Constant Matrix: (Units=GPa)
#
#
# Indices 1 2 3 4 5 6 
#
# 1 251.8300 121.6536 7.6066 0.0000 0.0000 0.0000
# 2 121.6536 122.3848 -2.2317 0.0000 0.0000 0.0000
# 3 7.6066 -2.2317 52.5163 0.0000 0.0000 0.0000
# 4 0.0000 0.0000 0.0000 25.2056 0.0000 0.0000
# 5 0.0000 0.0000 0.0000 0.0000 13.4900 0.0000
# 6 0.0000 0.0000 0.0000 0.0000 0.0000 -0.5606
#
#
#
# Elastic Compliance Matrix: (Units=1/GPa)
#
#
# Indices 1 2 3 4 5 6 
#
# 1 0.007748 -0.007728 -0.001451 0.000000 0.000000 0.000000
# 2 -0.007728 0.015886 0.001794 0.000000 0.000000 0.000000
# 3 -0.001451 0.001794 0.019328 0.000000 0.000000 0.000000
# 4 0.000000 0.000000 0.000000 0.039674 0.000000 0.000000
# 5 0.000000 0.000000 0.000000 0.000000 0.074129 0.000000
# 6 0.000000 0.000000 0.000000 0.000000 0.000000 -1.783657
#
#
# Mechanical properties :
#
#
# Convention : Reuss Voigt Hill
#
# Bulk Modulus (GPa) = 35.46981 75.64311 55.55646
# Shear Modulus (GPa) = -3.11969 27.60717 12.24374
#
# Velocity S-wave (km/s) = -1.22504 3.64424 2.42690
# Velocity P-wave (km/s) = 3.88096 7.35496 5.88036
#
# Compressibility (1/GPa) = 0.02819299
#
# Stress axis : x y z
#
# Youngs Moduli (GPa) = 129.06380 62.94947 51.73818
#
# Poissons Ratio (x) = 0.48649 0.07505
# Poissons Ratio (y) = 0.99744 -0.09284
# Poissons Ratio (z) = 0.18723 -0.11296
#
# Static dielectric constant tensor:
#      x y z
#    x 1.773210 0.000000 0.000000 
#    y 0.000000 1.735600 0.000000 
#    z 0.000000 0.000000 1.822230 
# 
# From -- ./inp_files/28607.got.cif
#   From: 2010.05.17/outbox.cif.g08.bks.cpg/sg65_15_cif.got.tgz:28607.got - 2010.06.03 17:01:31.
