data_PCOD9488974
_publ_section_title
;
Structure prediction by ZEFSAII (Michael W. Deem and Ramdas Pophale) SiO2 
 PCOD9488974
Probable space group: C M M M
;
_chemical_formula_sum "Si O2"
_cell_formula_units_Z 96
_cell_length_a 8.761381
_cell_length_b 29.366317
_cell_length_c 21.104262
_cell_angle_alpha 90.000000
_cell_angle_beta 90.000000
_cell_angle_gamma 90.000000
_cell_volume 5429.904845
_symmetry_space_group_name_H-M "C M M M"
_symmetry_group_IT_number 65
_symmetry_cell_setting 'orthorhombic'
loop_
_space_group_symop_operation_xyz
x,y,z
-x,-y,z
x,-y,-z
-x,y,-z
-x,-y,-z
x,y,-z
-x,y,z
x,-y,z
1/2+x,1/2+y,z
1/2-x,1/2-y,z
1/2+x,1/2-y,-z
1/2-x,1/2+y,-z
1/2-x,1/2-y,-z
1/2+x,1/2+y,-z
1/2-x,1/2+y,z
1/2+x,1/2-y,z
loop_
_atom_site_type_symbol
_atom_site_label
_atom_site_fract_x
_atom_site_fract_y
_atom_site_fract_z
Si Si1 0.182658 0.199511 0.811507
Si Si2 0.680017 0.051782 0.252556
Si Si3 0.682131 0.144715 0.929523
Si Si4 0.684116 0.638626 0.310806
Si Si5 0.317806 0.448406 0.887301
Si Si6 0.815964 0.799720 0.427716
O O1 0.250000 0.250000 0.808018
O O2 0.241679 0.173554 0.873742
O O3 0.225658 0.170325 0.749316
O O4 0.000000 0.202030 0.813579
O O5 0.500000 0.058114 0.239592
O O6 0.739573 0.089978 0.299851
O O7 0.770677 0.056421 0.186419
O O8 0.702579 0.000000 0.275379
O O9 0.500000 0.146893 0.922450
O O10 0.735717 0.092453 0.923031
O O11 0.723302 0.161421 0.000000
O O12 0.500000 0.633654 0.310815
O O13 0.731438 0.663810 0.375214
O O14 0.500000 0.443640 0.893581
O O15 0.275512 0.500000 0.907090
O O16 0.770372 0.811091 0.500000
O O17 0.750000 0.750000 0.412409
O O18 0.000000 0.796891 0.425849
#
# Coordination Sequence:
#
# PCOD9488974 Si02
#       6
#    16  16  16  16  16  16
#     4  11  23  38  57  80 106 138 179 226 272 322
#     4  10  20  33  53  81 110 141 178 221 269 320
#     4  11  24  40  57  78 106 141 181 225 273 324
#     4  10  20  34  55  83 111 143 181 221 268 317
#     4  10  20  35  56  81 109 140 175 218 270 327
#     4   9  18  33  53  80 115 150 184 221 263 315
#
# _framework density 17.679869
#
# number of rings (size 3 to 8) (size 9 to 14) (size 15 to 20)
#    0.000    1.833    1.667    2.500    0.000    5.333 
#    0.000    1.667    0.000    0.500    0.000    3.500 
#    0.000    0.000    0.000    0.000    0.000    0.000 
#
# Total GULP energy -268077.731538 kJ/mol
# GULP energy per Si atom -5584.952740 kJ/mol
# Density = 1.763963 g / cm^3
# Si number density = 17.679869 Si / 1000 Ang^3
#
#
#
# Elastic Constant Matrix: (Units=GPa)
#
#
# Indices 1 2 3 4 5 6 
#
# 1 28.7308 28.2084 26.4308 0.0000 0.0000 0.0000
# 2 28.2084 100.6755 53.3999 0.0000 0.0000 0.0000
# 3 26.4308 53.3999 91.9403 0.0000 0.0000 0.0000
# 4 0.0000 0.0000 0.0000 18.7293 0.0000 0.0000
# 5 0.0000 0.0000 0.0000 0.0000 16.0589 0.0000
# 6 0.0000 0.0000 0.0000 0.0000 0.0000 36.0693
#
#
#
# Elastic Compliance Matrix: (Units=1/GPa)
#
#
# Indices 1 2 3 4 5 6 
#
# 1 0.053306 -0.009839 -0.009610 0.000000 0.000000 0.000000
# 2 -0.009839 0.016171 -0.006564 0.000000 0.000000 0.000000
# 3 -0.009610 -0.006564 0.017452 0.000000 0.000000 0.000000
# 4 0.000000 0.000000 0.000000 0.053392 0.000000 0.000000
# 5 0.000000 0.000000 0.000000 0.000000 0.062271 0.000000
# 6 0.000000 0.000000 0.000000 0.000000 0.000000 0.027724
#
#
# Mechanical properties :
#
#
# Convention : Reuss Voigt Hill
#
# Bulk Modulus (GPa) = 28.65010 48.60275 38.62643
# Shear Modulus (GPa) = 17.00815 21.72534 19.36675
#
# Velocity S-wave (km/s) = 3.10499 3.50925 3.31329
# Velocity P-wave (km/s) = 5.39395 6.63098 6.04420
#
# Compressibility (1/GPa) = 0.03490389
#
# Stress axis : x y z
#
# Youngs Moduli (GPa) = 18.75954 61.83796 57.30092
#
# Poissons Ratio (x) = 0.60841 0.55066
# Poissons Ratio (y) = 0.18457 0.37613
# Poissons Ratio (z) = 0.18028 0.40591
#
# Static dielectric constant tensor:
#      x y z
#    x 1.592170 0.000000 0.000000 
#    y 0.000000 1.589390 0.000000 
#    z 0.000000 0.000000 1.599870 
# 
# From -- ./inp_files/60152.got.cif
#   From: 2010.05.17/outbox.cif.g08.bks.cpg/sg65_31_cif.got.tgz:60152.got - 2010.06.03 17:01:31.
