data_PCOD9488225
_publ_section_title
;
Structure prediction by ZEFSAII (Michael W. Deem and Ramdas Pophale) SiO2 
 PCOD9488225
Probable space group: C M M M
;
_chemical_formula_sum "Si O2"
_cell_formula_units_Z 88
_cell_length_a 27.064325
_cell_length_b 10.314037
_cell_length_c 18.731752
_cell_angle_alpha 90.000000
_cell_angle_beta 90.000000
_cell_angle_gamma 90.000000
_cell_volume 5228.827135
_symmetry_space_group_name_H-M "C M M M"
_symmetry_group_IT_number 65
_symmetry_cell_setting 'orthorhombic'
loop_
_space_group_symop_operation_xyz
x,y,z
-x,-y,z
x,-y,-z
-x,y,-z
-x,-y,-z
x,y,-z
-x,y,z
x,-y,z
1/2+x,1/2+y,z
1/2-x,1/2-y,z
1/2+x,1/2-y,-z
1/2-x,1/2+y,-z
1/2-x,1/2-y,-z
1/2+x,1/2+y,-z
1/2-x,1/2+y,z
1/2+x,1/2-y,z
loop_
_atom_site_type_symbol
_atom_site_label
_atom_site_fract_x
_atom_site_fract_y
_atom_site_fract_z
Si Si1 0.388966 0.848188 0.321294
Si Si2 0.206814 0.348838 0.086078
Si Si3 0.897025 0.343344 0.154898
Si Si4 0.793540 0.648270 0.418087
Si Si5 0.559168 0.644684 0.418769
Si Si6 0.500000 0.841847 0.916453
O O1 0.390811 0.811751 0.238219
O O2 0.335806 0.834650 0.359228
O O3 0.423854 0.754701 0.365738
O O4 0.403124 0.000000 0.327175
O O5 0.215158 0.500000 0.108612
O O6 0.250000 0.250000 0.109439
O O7 0.152984 0.304918 0.113834
O O8 0.205865 0.348483 0.000000
O O9 0.898503 0.500000 0.149491
O O10 0.949166 0.297370 0.121699
O O11 0.812707 0.663924 0.500000
O O12 0.775237 0.500000 0.412753
O O13 0.750000 0.750000 0.408002
O O14 0.575976 0.670343 0.500000
O O15 0.500000 0.641216 0.419900
O O16 0.576883 0.500000 0.398524
O O17 0.500000 0.000000 0.913576
O O18 0.500000 0.805886 0.000000
#
# Coordination Sequence:
#
# PCOD9488225 Si02
#       6
#    16  16  16  16  16   8
#     4  10  20  32  49  74 103 129 159 207 259 301
#     4   9  17  31  51  74 101 133 169 210 254 303
#     4   9  18  30  46  73 105 134 166 208 258 306
#     4   9  18  32  48  67  93 127 166 204 243 292
#     4   9  19  35  52  70  95 129 167 203 240 291
#     4   9  16  28  48  72 100 135 172 208 247 299
#
# _framework density 16.829778999999998
#
# number of rings (size 3 to 8) (size 9 to 14) (size 15 to 20)
#    0.000    2.818    0.000    1.636    1.273    5.091 
#    0.000    3.636    0.000    0.000    0.000    0.000 
#    0.000    4.364    0.000    0.000    0.000    0.000 
#
# Total GULP energy -245031.817366 kJ/mol
# GULP energy per Si atom -5568.904940 kJ/mol
# Density = 1.679147 g / cm^3
# Si number density = 16.829779 Si / 1000 Ang^3
#
#
#
# Elastic Constant Matrix: (Units=GPa)
#
#
# Indices 1 2 3 4 5 6 
#
# 1 117.9927 55.9825 62.5879 0.0000 0.0000 0.0000
# 2 55.9825 54.9369 44.8168 0.0000 0.0000 0.0000
# 3 62.5879 44.8168 92.0228 0.0000 0.0000 0.0000
# 4 0.0000 0.0000 0.0000 11.4464 0.0000 0.0000
# 5 0.0000 0.0000 0.0000 0.0000 31.3501 0.0000
# 6 0.0000 0.0000 0.0000 0.0000 0.0000 26.9889
#
#
#
# Elastic Compliance Matrix: (Units=1/GPa)
#
#
# Indices 1 2 3 4 5 6 
#
# 1 0.017926 -0.013807 -0.005468 0.000000 0.000000 0.000000
# 2 -0.013807 0.040836 -0.010497 0.000000 0.000000 0.000000
# 3 -0.005468 -0.010497 0.019698 0.000000 0.000000 0.000000
# 4 0.000000 0.000000 0.000000 0.087364 0.000000 0.000000
# 5 0.000000 0.000000 0.000000 0.000000 0.031898 0.000000
# 6 0.000000 0.000000 0.000000 0.000000 0.000000 0.037052
#
#
# Mechanical properties :
#
#
# Convention : Reuss Voigt Hill
#
# Bulk Modulus (GPa) = 52.86530 65.74742 59.30636
# Shear Modulus (GPa) = 16.63207 20.72810 18.68009
#
# Velocity S-wave (km/s) = 3.14706 3.51327 3.33519
# Velocity P-wave (km/s) = 6.68470 7.45710 7.08144
#
# Compressibility (1/GPa) = 0.01891600
#
# Stress axis : x y z
#
# Youngs Moduli (GPa) = 55.78398 24.48838 50.76546
#
# Poissons Ratio (x) = 0.33810 0.27760
# Poissons Ratio (y) = 0.77019 0.53291
# Poissons Ratio (z) = 0.30504 0.25706
#
# Static dielectric constant tensor:
#      x y z
#    x 1.566830 0.000000 0.000000 
#    y 0.000000 1.568330 0.000000 
#    z 0.000000 0.000000 1.600800 
# 
# From -- ./inp_files/51440.got.cif
#   From: 2010.05.17/outbox.cif.g08.bks.cpg/sg65_26_cif.got.tgz:51440.got - 2010.06.03 17:01:31.
