data_PCOD9488498
_publ_section_title
;
Structure prediction by ZEFSAII (Michael W. Deem and Ramdas Pophale) SiO2 
 PCOD9488498
Probable space group: C M M M
;
_chemical_formula_sum "Si O2"
_cell_formula_units_Z 88
_cell_length_a 18.139143
_cell_length_b 16.832536
_cell_length_c 16.030997
_cell_angle_alpha 90.000000
_cell_angle_beta 90.000000
_cell_angle_gamma 90.000000
_cell_volume 4894.708686
_symmetry_space_group_name_H-M "C M M M"
_symmetry_group_IT_number 65
_symmetry_cell_setting 'orthorhombic'
loop_
_space_group_symop_operation_xyz
x,y,z
-x,-y,z
x,-y,-z
-x,y,-z
-x,-y,-z
x,y,-z
-x,y,z
x,-y,z
1/2+x,1/2+y,z
1/2-x,1/2-y,z
1/2+x,1/2-y,-z
1/2-x,1/2+y,-z
1/2-x,1/2-y,-z
1/2+x,1/2+y,-z
1/2-x,1/2+y,z
1/2+x,1/2-y,z
loop_
_atom_site_type_symbol
_atom_site_label
_atom_site_fract_x
_atom_site_fract_y
_atom_site_fract_z
Si Si1 0.687548 0.686286 0.364563
Si Si2 0.500000 0.403172 0.904777
Si Si3 0.090262 0.276933 0.500000
Si Si4 0.231521 0.341876 0.900969
Si Si5 0.216420 0.594369 0.500000
Si Si6 0.579547 0.093028 0.101132
Si Si7 0.860504 0.907452 0.796036
O O1 0.750000 0.750000 0.337790
O O2 0.624983 0.729043 0.420938
O O3 0.734623 0.625225 0.421835
O O4 0.651029 0.643008 0.286846
O O5 0.500000 0.500000 0.908781
O O6 0.428058 0.379028 0.853500
O O7 0.500000 0.373519 0.000000
O O8 0.137466 0.359607 0.500000
O O9 0.000000 0.282300 0.500000
O O10 0.250000 0.250000 0.889317
O O11 0.149228 0.358309 0.869984
O O12 0.287907 0.396434 0.851747
O O13 0.236036 0.359591 0.000000
O O14 0.207860 0.500000 0.500000
O O15 0.500000 0.120923 0.131883
O O16 0.588170 0.000000 0.121986
O O17 0.578340 0.097257 0.000000
O O18 0.872318 0.000000 0.775715
#
# Coordination Sequence:
#
# PCOD9488498 Si02
#       7
#    16   8   8  16   8  16  16
#     4   9  19  35  56  82 114 147 181 222 272 330
#     4   9  20  36  50  71 103 139 185 237 287 333
#     4   9  19  34  58  88 117 149 178 218 272 329
#     4  10  20  33  49  73 102 135 179 227 278 337
#     4   9  17  34  58  86 119 151 184 216 260 331
#     4   8  14  27  48  71  93 119 157 208 264 319
#     4  11  21  34  55  76 102 142 189 234 279 328
#
# _framework density 17.978598000000002
#
# number of rings (size 3 to 8) (size 9 to 14) (size 15 to 20)
#    0.000    2.636    0.000    3.818    1.273    2.000 
#    1.636    0.000    0.000    2.727    0.000    0.000 
#    0.000    0.000    0.000    0.000    0.000    1.455 
#
# Total GULP energy -245313.034264 kJ/mol
# GULP energy per Si atom -5575.296233 kJ/mol
# Density = 1.793768 g / cm^3
# Si number density = 17.978598 Si / 1000 Ang^3
#
#
#
# Elastic Constant Matrix: (Units=GPa)
#
#
# Indices 1 2 3 4 5 6 
#
# 1 183.2097 58.3062 57.6534 0.0000 0.0000 0.0000
# 2 58.3062 79.1618 48.6974 0.0000 0.0000 0.0000
# 3 57.6534 48.6974 101.8189 0.0000 0.0000 0.0000
# 4 0.0000 0.0000 0.0000 37.9186 0.0000 0.0000
# 5 0.0000 0.0000 0.0000 0.0000 14.6044 0.0000
# 6 0.0000 0.0000 0.0000 0.0000 0.0000 -9.2204
#
#
#
# Elastic Compliance Matrix: (Units=1/GPa)
#
#
# Indices 1 2 3 4 5 6 
#
# 1 0.007482 -0.004115 -0.002268 0.000000 0.000000 0.000000
# 2 -0.004115 0.020162 -0.007313 0.000000 0.000000 0.000000
# 3 -0.002268 -0.007313 0.014603 0.000000 0.000000 0.000000
# 4 0.000000 0.000000 0.000000 0.026372 0.000000 0.000000
# 5 0.000000 0.000000 0.000000 0.000000 0.068473 0.000000
# 6 0.000000 0.000000 0.000000 0.000000 0.000000 -0.108455
#
#
# Mechanical properties :
#
#
# Convention : Reuss Voigt Hill
#
# Bulk Modulus (GPa) = 67.31990 77.05603 72.18797
# Shear Modulus (GPa) = 81.99334 21.96274 51.97804
#
# Velocity S-wave (km/s) = 6.76055 3.49894 5.38273
# Velocity P-wave (km/s) = 9.92300 7.69911 8.88094
#
# Compressibility (1/GPa) = 0.01485445
#
# Stress axis : x y z
#
# Youngs Moduli (GPa) = 133.66011 49.59831 68.47839
#
# Poissons Ratio (x) = 0.20411 0.15532
# Poissons Ratio (y) = 0.55005 0.50076
# Poissons Ratio (z) = 0.30316 0.36270
#
# Static dielectric constant tensor:
#      x y z
#    x 1.625100 0.000000 0.000000 
#    y 0.000000 1.614720 0.000000 
#    z 0.000000 0.000000 1.606370 
# 
# From -- ./inp_files/42595.got.cif
#   From: 2010.05.17/outbox.cif.g08.bks.cpg/sg65_22_cif.got.tgz:42595.got - 2010.06.03 17:01:31.
