data_PCOD9488021
_publ_section_title
;
Structure prediction by ZEFSAII (Michael W. Deem and Ramdas Pophale) SiO2 
 PCOD9488021
Probable space group: C M M M
;
_chemical_formula_sum "Si O2"
_cell_formula_units_Z 120
_cell_length_a 29.268336
_cell_length_b 8.804254
_cell_length_c 29.115573
_cell_angle_alpha 90.000000
_cell_angle_beta 90.000000
_cell_angle_gamma 90.000000
_cell_volume 7502.671593
_symmetry_space_group_name_H-M "C M M M"
_symmetry_group_IT_number 65
_symmetry_cell_setting 'orthorhombic'
loop_
_space_group_symop_operation_xyz
x,y,z
-x,-y,z
x,-y,-z
-x,y,-z
-x,-y,-z
x,y,-z
-x,y,z
x,-y,z
1/2+x,1/2+y,z
1/2-x,1/2-y,z
1/2+x,1/2-y,-z
1/2-x,1/2+y,-z
1/2-x,1/2-y,-z
1/2+x,1/2+y,-z
1/2-x,1/2+y,z
1/2+x,1/2-y,z
loop_
_atom_site_type_symbol
_atom_site_label
_atom_site_fract_x
_atom_site_fract_y
_atom_site_fract_z
Si Si1 0.446856 0.682524 0.134237
Si Si2 0.055692 0.675856 0.500000
Si Si3 0.201954 0.681842 0.190227
Si Si4 0.946046 0.319250 0.308331
Si Si5 0.889624 0.319672 0.948307
Si Si6 0.055495 0.174256 0.404787
Si Si7 0.889232 0.181706 0.774560
Si Si8 0.297991 0.318233 0.912331
O O1 0.500000 0.723764 0.138826
O O2 0.443791 0.500000 0.128648
O O3 0.423770 0.760303 0.090519
O O4 0.419131 0.721946 0.180317
O O5 0.068804 0.500000 0.500000
O O6 0.071154 0.755954 0.546892
O O7 0.000000 0.681598 0.500000
O O8 0.204344 0.500000 0.186975
O O9 0.250000 0.750000 0.207213
O O10 0.159231 0.735704 0.220181
O O11 0.195354 0.752180 0.139181
O O12 0.941290 0.500000 0.303448
O O13 0.931983 0.268447 0.359558
O O14 0.916632 0.234577 0.270098
O O15 0.000000 0.281092 0.302659
O O16 0.882726 0.500000 0.942771
O O17 0.841267 0.236676 0.941077
O O18 0.906599 0.290870 0.000000
O O19 0.000000 0.175674 0.406338
O O20 0.070144 0.000000 0.400194
O O21 0.882850 0.000000 0.774338
O O22 0.295614 0.500000 0.910379
O O23 0.250000 0.250000 0.929473
#
# Coordination Sequence:
#
# PCOD9488021 Si02
#       8
#    16   8  16  16  16  16  16  16
#     4  10  22  39  58  78 100 129 166 205 244 290
#     4   9  15  23  37  57  83 119 164 213 260 305
#     4  11  21  35  56  81 106 131 160 195 237 288
#     4  10  20  32  46  68  99 135 174 215 257 299
#     4  11  24  40  57  78 103 131 163 200 243 291
#     4   9  16  26  40  59  86 123 168 215 259 302
#     4  11  21  35  55  78 102 132 166 203 246 294
#     4  11  21  36  58  82 106 132 158 191 236 288
#
# _framework density 15.994303
#
# number of rings (size 3 to 8) (size 9 to 14) (size 15 to 20)
#    0.000    1.667    1.333    5.400    0.000    6.133 
#    0.000    1.333    0.000    0.000    0.000    0.000 
#    0.000    0.000    0.000    0.600    0.000    8.467 
#
# Total GULP energy -335055.852354 kJ/mol
# GULP energy per Si atom -5584.264206 kJ/mol
# Density = 1.595790 g / cm^3
# Si number density = 15.994303 Si / 1000 Ang^3
#
#
#
# Elastic Constant Matrix: (Units=GPa)
#
#
# Indices 1 2 3 4 5 6 
#
# 1 80.7793 41.8384 44.9834 0.0000 0.0000 0.0000
# 2 41.8384 89.9064 44.2148 0.0000 0.0000 0.0000
# 3 44.9834 44.2148 103.1396 0.0000 0.0000 0.0000
# 4 0.0000 0.0000 0.0000 28.1381 0.0000 0.0000
# 5 0.0000 0.0000 0.0000 0.0000 1.2803 0.0000
# 6 0.0000 0.0000 0.0000 0.0000 0.0000 23.9776
#
#
#
# Elastic Compliance Matrix: (Units=1/GPa)
#
#
# Indices 1 2 3 4 5 6 
#
# 1 0.018522 -0.005888 -0.005554 0.000000 0.000000 0.000000
# 2 -0.005888 0.015966 -0.004276 0.000000 0.000000 0.000000
# 3 -0.005554 -0.004276 0.013951 0.000000 0.000000 0.000000
# 4 0.000000 0.000000 0.000000 0.035539 0.000000 0.000000
# 5 0.000000 0.000000 0.000000 0.000000 0.781039 0.000000
# 6 0.000000 0.000000 0.000000 0.000000 0.000000 0.041706
#
#
# Mechanical properties :
#
#
# Convention : Reuss Voigt Hill
#
# Bulk Modulus (GPa) = 58.81616 59.54427 59.18021
# Shear Modulus (GPa) = 5.29759 20.19847 12.74803
#
# Velocity S-wave (km/s) = 1.82191 3.55752 2.82624
# Velocity P-wave (km/s) = 6.42486 7.36097 6.90879
#
# Compressibility (1/GPa) = 0.01700213
#
# Stress axis : x y z
#
# Youngs Moduli (GPa) = 53.99050 62.63445 71.67849
#
# Poissons Ratio (x) = 0.36878 0.39811
# Poissons Ratio (y) = 0.31788 0.30653
# Poissons Ratio (z) = 0.29987 0.26785
#
# Static dielectric constant tensor:
#      x y z
#    x 1.523670 0.000000 0.000000 
#    y 0.000000 1.536000 0.000000 
#    z 0.000000 0.000000 1.525840 
# 
# From -- ./inp_files/76153.got.cif
#   From: 2010.05.17/outbox.cif.g08.bks.cpg/sg65_39_cif.got.tgz:76153.got - 2010.06.03 17:01:31.
