data_PCOD9488805
_publ_section_title
;
Structure prediction by ZEFSAII (Michael W. Deem and Ramdas Pophale) SiO2 
 PCOD9488805
Probable space group: C M M M
;
_chemical_formula_sum "Si O2"
_cell_formula_units_Z 112
_cell_length_a 13.711222
_cell_length_b 23.745565
_cell_length_c 17.468557
_cell_angle_alpha 90.000000
_cell_angle_beta 90.000000
_cell_angle_gamma 90.000000
_cell_volume 5687.425247
_symmetry_space_group_name_H-M "C M M M"
_symmetry_group_IT_number 65
_symmetry_cell_setting 'orthorhombic'
loop_
_space_group_symop_operation_xyz
x,y,z
-x,-y,z
x,-y,-z
-x,y,-z
-x,-y,-z
x,y,-z
-x,y,z
x,-y,z
1/2+x,1/2+y,z
1/2-x,1/2-y,z
1/2+x,1/2-y,-z
1/2-x,1/2+y,-z
1/2-x,1/2-y,-z
1/2+x,1/2+y,-z
1/2-x,1/2+y,z
1/2+x,1/2-y,z
loop_
_atom_site_type_symbol
_atom_site_label
_atom_site_fract_x
_atom_site_fract_y
_atom_site_fract_z
Si Si1 0.244111 0.936917 0.828599
Si Si2 0.888263 0.624376 0.912565
Si Si3 0.385113 0.725348 0.338695
Si Si4 0.116892 0.737153 0.165285
Si Si5 0.707194 0.165388 0.409693
Si Si6 0.114356 0.566023 0.682960
Si Si7 0.382777 0.649654 0.087228
O O1 0.320828 0.928654 0.897590
O O2 0.312166 0.926648 0.754545
O O3 0.161022 0.892404 0.849807
O O4 0.205145 0.000000 0.824187
O O5 0.850513 0.675277 0.859311
O O6 0.000000 0.611292 0.893734
O O7 0.885006 0.643755 0.000000
O O8 0.500000 0.711193 0.343687
O O9 0.361827 0.743688 0.251453
O O10 0.359499 0.780459 0.388947
O O11 0.310044 0.677557 0.366704
O O12 0.146823 0.786662 0.108184
O O13 0.000000 0.733462 0.159821
O O14 0.723883 0.163167 0.500000
O O15 0.652969 0.109870 0.379584
O O16 0.119398 0.500000 0.660256
O O17 0.000000 0.578007 0.701724
O O18 0.500000 0.647069 0.090264
O O19 0.352655 0.635833 0.000000
#
# Coordination Sequence:
#
# PCOD9488805 Si02
#       7
#    16  16  16  16  16  16  16
#     4  11  23  38  55  77 107 143 187 231 272 331
#     4  10  20  33  51  77 109 143 180 229 287 335
#     4  10  20  35  57  85 120 160 195 229 278 341
#     4   9  18  34  56  80 107 142 186 232 275 323
#     4  11  23  37  57  88 121 150 186 233 284 343
#     4  10  22  41  64  86 109 143 186 233 287 343
#     4  10  21  37  57  81 111 148 191 240 287 325
#
# _framework density 19.692565999999999
#
# number of rings (size 3 to 8) (size 9 to 14) (size 15 to 20)
#    0.000    1.857    0.000    4.286    0.000    9.143 
#    0.000    3.571    0.000    1.286    0.000    1.000 
#    0.000    0.000    0.000    0.000    0.000    0.000 
#
# Total GULP energy -312643.345036 kJ/mol
# GULP energy per Si atom -5582.916876 kJ/mol
# Density = 1.964774 g / cm^3
# Si number density = 19.692566 Si / 1000 Ang^3
#
#
#
# Elastic Constant Matrix: (Units=GPa)
#
#
# Indices 1 2 3 4 5 6 
#
# 1 80.4195 5.9075 -1.9251 0.0000 0.0000 0.0000
# 2 5.9075 63.4155 15.6589 0.0000 0.0000 0.0000
# 3 -1.9251 15.6589 72.5898 0.0000 0.0000 0.0000
# 4 0.0000 0.0000 0.0000 3.9303 0.0000 0.0000
# 5 0.0000 0.0000 0.0000 0.0000 22.0032 0.0000
# 6 0.0000 0.0000 0.0000 0.0000 0.0000 25.6887
#
#
#
# Elastic Compliance Matrix: (Units=1/GPa)
#
#
# Indices 1 2 3 4 5 6 
#
# 1 0.012547 -0.001321 0.000618 0.000000 0.000000 0.000000
# 2 -0.001321 0.016795 -0.003658 0.000000 0.000000 0.000000
# 3 0.000618 -0.003658 0.014582 0.000000 0.000000 0.000000
# 4 0.000000 0.000000 0.000000 0.254435 0.000000 0.000000
# 5 0.000000 0.000000 0.000000 0.000000 0.045448 0.000000
# 6 0.000000 0.000000 0.000000 0.000000 0.000000 0.038928
#
#
# Mechanical properties :
#
#
# Convention : Reuss Voigt Hill
#
# Bulk Modulus (GPa) = 28.40889 28.41194 28.41042
# Shear Modulus (GPa) = 12.40108 23.44334 17.92221
#
# Velocity S-wave (km/s) = 2.51217 3.45406 3.02006
# Velocity P-wave (km/s) = 4.78249 5.51057 5.15939
#
# Compressibility (1/GPa) = 0.03520024
#
# Stress axis : x y z
#
# Youngs Moduli (GPa) = 79.70263 59.54011 68.57981
#
# Poissons Ratio (x) = 0.07867 -0.04237
# Poissons Ratio (y) = 0.10531 0.25087
# Poissons Ratio (z) = -0.04924 0.21780
#
# Static dielectric constant tensor:
#      x y z
#    x 1.723710 0.000000 0.000000 
#    y 0.000000 1.680240 0.000000 
#    z 0.000000 0.000000 1.703700 
# 
# From -- ./inp_files/40860.got.cif
#   From: 2010.05.17/outbox.cif.g08.bks.cpg/sg65_21_cif.got.tgz:40860.got - 2010.06.03 17:01:31.
