data_PCOD9488865
_publ_section_title
;
Structure prediction by ZEFSAII (Michael W. Deem and Ramdas Pophale) SiO2 
 PCOD9488865
Probable space group: C M M M
;
_chemical_formula_sum "Si O2"
_cell_formula_units_Z 80
_cell_length_a 20.522145
_cell_length_b 10.022729
_cell_length_c 23.136117
_cell_angle_alpha 90.000000
_cell_angle_beta 90.000000
_cell_angle_gamma 90.000000
_cell_volume 4758.819270
_symmetry_space_group_name_H-M "C M M M"
_symmetry_group_IT_number 65
_symmetry_cell_setting 'orthorhombic'
loop_
_space_group_symop_operation_xyz
x,y,z
-x,-y,z
x,-y,-z
-x,y,-z
-x,-y,-z
x,y,-z
-x,y,z
x,-y,z
1/2+x,1/2+y,z
1/2-x,1/2-y,z
1/2+x,1/2-y,-z
1/2-x,1/2+y,-z
1/2-x,1/2-y,-z
1/2+x,1/2+y,-z
1/2-x,1/2+y,z
1/2+x,1/2-y,z
loop_
_atom_site_type_symbol
_atom_site_label
_atom_site_fract_x
_atom_site_fract_y
_atom_site_fract_z
Si Si1 0.186751 0.342067 0.733091
Si Si2 0.076475 0.658377 0.828884
Si Si3 0.078987 0.847261 0.065093
Si Si4 0.388312 0.151219 0.614133
Si Si5 0.500000 0.659904 0.569932
Si Si6 0.301992 0.861176 0.500000
O O1 0.203540 0.500000 0.738247
O O2 0.250000 0.250000 0.742378
O O3 0.127702 0.314323 0.777822
O O4 0.156655 0.320736 0.669353
O O5 0.078973 0.500000 0.841417
O O6 0.096402 0.744497 0.884759
O O7 0.000000 0.688897 0.814283
O O8 0.000000 0.848003 0.063659
O O9 0.099630 0.000000 0.077368
O O10 0.100994 0.811608 0.000000
O O11 0.439722 0.266471 0.600698
O O12 0.345620 0.145254 0.556529
O O13 0.416589 0.000000 0.622480
O O14 0.500000 0.500000 0.577140
O O15 0.500000 0.686906 0.500000
O O16 0.250000 0.750000 0.500000
O O17 0.264723 0.000000 0.500000
#
# Coordination Sequence:
#
# PCOD9488865 Si02
#       6
#    16  16  16  16   8   8
#     4  10  22  38  57  79 107 144 182 224 269 317
#     4   9  18  32  51  78 108 140 178 218 264 315
#     4   8  14  26  46  74 107 140 173 213 263 314
#     4  10  21  37  57  78 103 140 179 213 262 325
#     4  11  23  37  55  83 111 135 166 217 274 317
#     4  10  20  33  52  77  99 130 174 216 263 316
#
# _framework density 16.810893
#
# number of rings (size 3 to 8) (size 9 to 14) (size 15 to 20)
#    0.000    2.500    1.000    1.500    1.400    3.200 
#    0.000    2.000    0.000    0.600    0.000    0.000 
#    0.000    0.000    0.000    0.000    0.000    0.000 
#
# Total GULP energy -222750.196838 kJ/mol
# GULP energy per Si atom -5568.754921 kJ/mol
# Density = 1.677263 g / cm^3
# Si number density = 16.810893 Si / 1000 Ang^3
#
#
#
# Elastic Constant Matrix: (Units=GPa)
#
#
# Indices 1 2 3 4 5 6 
#
# 1 84.2426 70.4056 55.5395 0.0000 0.0000 0.0000
# 2 70.4056 104.5144 62.5328 0.0000 0.0000 0.0000
# 3 55.5395 62.5328 140.2484 0.0000 0.0000 0.0000
# 4 0.0000 0.0000 0.0000 30.4140 0.0000 0.0000
# 5 0.0000 0.0000 0.0000 0.0000 -5.5827 0.0000
# 6 0.0000 0.0000 0.0000 0.0000 0.0000 32.5595
#
#
#
# Elastic Compliance Matrix: (Units=1/GPa)
#
#
# Indices 1 2 3 4 5 6 
#
# 1 0.028519 -0.016986 -0.003720 0.000000 0.000000 0.000000
# 2 -0.016986 0.023166 -0.003603 0.000000 0.000000 0.000000
# 3 -0.003720 -0.003603 0.010210 0.000000 0.000000 0.000000
# 4 0.000000 0.000000 0.000000 0.032880 0.000000 0.000000
# 5 0.000000 0.000000 0.000000 0.000000 -0.179124 0.000000
# 6 0.000000 0.000000 0.000000 0.000000 0.000000 0.030713
#
#
# Mechanical properties :
#
#
# Convention : Reuss Voigt Hill
#
# Bulk Modulus (GPa) = 75.31544 78.44012 76.87778
# Shear Modulus (GPa) = -8420.93113 20.84666 -4200.04223
#
# Velocity S-wave (km/s) = -70.85256 3.52528 -50.03828
# Velocity P-wave (km/s) = 81.53863 7.95812 57.38126
#
# Compressibility (1/GPa) = 0.01327749
#
# Stress axis : x y z
#
# Youngs Moduli (GPa) = 35.06441 43.16698 97.94585
#
# Poissons Ratio (x) = 0.73322 0.36439
# Poissons Ratio (y) = 0.59559 0.35285
# Poissons Ratio (z) = 0.13045 0.15551
#
# Static dielectric constant tensor:
#      x y z
#    x 1.532730 0.000000 0.000000 
#    y 0.000000 1.579700 0.000000 
#    z 0.000000 0.000000 1.554560 
# 
# From -- ./inp_files/70794.got.cif
#   From: 2010.05.17/outbox.cif.g08.bks.cpg/sg65_36_cif.got.tgz:70794.got - 2010.06.03 17:01:31.
