data_PCOD9488943
_publ_section_title
;
Structure prediction by ZEFSAII (Michael W. Deem and Ramdas Pophale) SiO2 
 PCOD9488943
Probable space group: C M M M
;
_chemical_formula_sum "Si O2"
_cell_formula_units_Z 64
_cell_length_a 22.100391
_cell_length_b 8.666605
_cell_length_c 17.268528
_cell_angle_alpha 90.000000
_cell_angle_beta 90.000000
_cell_angle_gamma 90.000000
_cell_volume 3307.533712
_symmetry_space_group_name_H-M "C M M M"
_symmetry_group_IT_number 65
_symmetry_cell_setting 'orthorhombic'
loop_
_space_group_symop_operation_xyz
x,y,z
-x,-y,z
x,-y,-z
-x,y,-z
-x,-y,-z
x,y,-z
-x,y,z
x,-y,z
1/2+x,1/2+y,z
1/2-x,1/2-y,z
1/2+x,1/2-y,-z
1/2-x,1/2+y,-z
1/2-x,1/2-y,-z
1/2+x,1/2+y,-z
1/2-x,1/2+y,z
1/2+x,1/2-y,z
loop_
_atom_site_type_symbol
_atom_site_label
_atom_site_fract_x
_atom_site_fract_y
_atom_site_fract_z
Si Si1 0.067958 0.182975 0.407045
Si Si2 0.626471 0.313436 0.160780
Si Si3 0.684491 0.684790 0.000000
Si Si4 0.682858 0.183347 0.316619
Si Si5 0.000000 0.812479 0.907858
O O1 0.069992 0.199649 0.500000
O O2 0.126997 0.261331 0.370581
O O3 0.000000 0.236507 0.381759
O O4 0.071110 0.000000 0.388909
O O5 0.629870 0.500000 0.169995
O O6 0.661528 0.238174 0.231567
O O7 0.557275 0.269337 0.144527
O O8 0.654850 0.265256 0.079384
O O9 0.750000 0.750000 0.000000
O O10 0.682143 0.500000 0.000000
O O11 0.750000 0.250000 0.334665
O O12 0.687297 0.000000 0.319785
O O13 0.000000 0.000000 0.913977
O O14 0.000000 0.761320 0.000000
#
# Coordination Sequence:
#
# PCOD9488943 Si02
#       5
#    16  16   8  16   8
#     4   9  20  42  71  99 126 159 199 242 295 362
#     4  10  20  36  58  85 116 154 200 250 302 359
#     4  10  20  33  53  77 107 148 199 249 300 357
#     4  12  26  42  61  89 126 165 207 253 303 360
#     4   9  16  32  59  87 112 147 198 249 301 366
#
# _framework density 19.349764
#
# number of rings (size 3 to 8) (size 9 to 14) (size 15 to 20)
#    0.000    1.875    1.250    3.750    1.750    4.500 
#    0.000    1.250    0.000    0.750    0.000    0.000 
#    0.000    0.000    0.000    0.000    0.000    0.000 
#
# Total GULP energy -178420.710957 kJ/mol
# GULP energy per Si atom -5575.647217 kJ/mol
# Density = 1.930572 g / cm^3
# Si number density = 19.349764 Si / 1000 Ang^3
#
#
#
# Elastic Constant Matrix: (Units=GPa)
#
#
# Indices 1 2 3 4 5 6 
#
# 1 213.8021 67.0832 63.1005 0.0000 0.0000 0.0000
# 2 67.0832 67.9425 40.5585 0.0000 0.0000 0.0000
# 3 63.1005 40.5585 64.2188 0.0000 0.0000 0.0000
# 4 0.0000 0.0000 0.0000 275.7941 0.0000 0.0000
# 5 0.0000 0.0000 0.0000 0.0000 50.8469 0.0000
# 6 0.0000 0.0000 0.0000 0.0000 0.0000 27.1822
#
#
#
# Elastic Compliance Matrix: (Units=1/GPa)
#
#
# Indices 1 2 3 4 5 6 
#
# 1 0.007447 -0.004791 -0.004292 0.000000 0.000000 0.000000
# 2 -0.004791 0.026708 -0.012160 0.000000 0.000000 0.000000
# 3 -0.004292 -0.012160 0.027468 0.000000 0.000000 0.000000
# 4 0.000000 0.000000 0.000000 0.003626 0.000000 0.000000
# 5 0.000000 0.000000 0.000000 0.000000 0.019667 0.000000
# 6 0.000000 0.000000 0.000000 0.000000 0.000000 0.036789
#
#
# Mechanical properties :
#
#
# Convention : Reuss Voigt Hill
#
# Bulk Modulus (GPa) = 52.25223 76.38308 64.31765
# Shear Modulus (GPa) = 29.31355 82.44606 55.87981
#
# Velocity S-wave (km/s) = 3.89643 6.53459 5.37973
# Velocity P-wave (km/s) = 6.87791 9.82319 8.47941
#
# Compressibility (1/GPa) = 0.01913794
#
# Stress axis : x y z
#
# Youngs Moduli (GPa) = 134.28149 37.44225 36.40537
#
# Poissons Ratio (x) = 0.17939 0.15623
# Poissons Ratio (y) = 0.64335 0.44269
# Poissons Ratio (z) = 0.57627 0.45530
#
# Static dielectric constant tensor:
#      x y z
#    x 2.138380 0.000000 0.000000 
#    y 0.000000 1.664120 0.000000 
#    z 0.000000 0.000000 1.659150 
# 
# From -- ./inp_files/55295.got.cif
#   From: 2010.05.17/outbox.cif.g08.bks.cpg/sg65_28_cif.got.tgz:55295.got - 2010.06.03 17:01:31.
