data_PCOD9488986
_publ_section_title
;
Structure prediction by ZEFSAII (Michael W. Deem and Ramdas Pophale) SiO2 
 PCOD9488986
Probable space group: C M M M
;
_chemical_formula_sum "Si O2"
_cell_formula_units_Z 104
_cell_length_a 9.263005
_cell_length_b 20.677867
_cell_length_c 30.017657
_cell_angle_alpha 90.000000
_cell_angle_beta 90.000000
_cell_angle_gamma 90.000000
_cell_volume 5749.557570
_symmetry_space_group_name_H-M "C M M M"
_symmetry_group_IT_number 65
_symmetry_cell_setting 'orthorhombic'
loop_
_space_group_symop_operation_xyz
x,y,z
-x,-y,z
x,-y,-z
-x,y,-z
-x,-y,-z
x,y,-z
-x,y,z
x,-y,z
1/2+x,1/2+y,z
1/2-x,1/2-y,z
1/2+x,1/2-y,-z
1/2-x,1/2+y,-z
1/2-x,1/2-y,-z
1/2+x,1/2+y,-z
1/2-x,1/2+y,z
1/2+x,1/2-y,z
loop_
_atom_site_type_symbol
_atom_site_label
_atom_site_fract_x
_atom_site_fract_y
_atom_site_fract_z
Si Si1 0.160759 0.500000 0.946207
Si Si2 0.171828 0.076859 0.611959
Si Si3 0.329884 0.183004 0.446539
Si Si4 0.829111 0.870355 0.949417
Si Si5 0.663551 0.921805 0.700641
Si Si6 0.827038 0.576088 0.802565
Si Si7 0.670896 0.686058 0.143054
O O1 0.245944 0.435230 0.935596
O O2 0.000000 0.500000 0.926888
O O3 0.150450 0.500000 0.000000
O O4 0.254842 0.122561 0.577504
O O5 0.228222 0.095751 0.661269
O O6 0.000000 0.085346 0.608379
O O7 0.203312 0.000000 0.605325
O O8 0.316778 0.175973 0.500000
O O9 0.500000 0.186285 0.435554
O O10 0.250000 0.250000 0.434057
O O11 0.804729 0.819949 0.910185
O O12 0.000000 0.884452 0.950482
O O13 0.785662 0.851721 0.000000
O O14 0.500000 0.898781 0.691073
O O15 0.703507 0.904284 0.751139
O O16 0.657898 0.000000 0.701207
O O17 0.791518 0.500000 0.808628
O O18 0.739199 0.622985 0.834384
O O19 0.000000 0.582581 0.809255
O O20 0.500000 0.688952 0.150999
O O21 0.750000 0.750000 0.159969
#
# Coordination Sequence:
#
# PCOD9488986 Si02
#       7
#     8  16  16  16  16  16  16
#     4   9  17  29  49  79 107 131 165 211 257 299
#     4  10  20  33  53  83 116 147 181 226 277 325
#     4  10  21  37  56  77 106 147 192 236 281 330
#     4   9  19  36  55  75 104 141 177 215 263 318
#     4   8  15  31  55  81 109 141 178 220 270 325
#     4   9  19  37  61  86 111 142 178 220 270 323
#     4  11  24  39  56  79 109 144 181 222 270 321
#
# _framework density 18.088349000000001
#
# number of rings (size 3 to 8) (size 9 to 14) (size 15 to 20)
#    0.000    2.538    0.000    2.538    1.077    5.538 
#    0.000    3.846    0.000    3.692    0.000    0.000 
#    0.000    0.000    0.000    0.000    0.000    0.000 
#
# Total GULP energy -289956.576219 kJ/mol
# GULP energy per Si atom -5576.088004 kJ/mol
# Density = 1.804718 g / cm^3
# Si number density = 18.088349 Si / 1000 Ang^3
#
#
#
# Elastic Constant Matrix: (Units=GPa)
#
#
# Indices 1 2 3 4 5 6 
#
# 1 90.9420 75.9405 66.7282 0.0000 0.0000 0.0000
# 2 75.9405 98.5148 52.6215 0.0000 0.0000 0.0000
# 3 66.7282 52.6215 78.3840 0.0000 0.0000 0.0000
# 4 0.0000 0.0000 0.0000 -1.0191 0.0000 0.0000
# 5 0.0000 0.0000 0.0000 0.0000 27.5903 0.0000
# 6 0.0000 0.0000 0.0000 0.0000 0.0000 26.2842
#
#
#
# Elastic Compliance Matrix: (Units=1/GPa)
#
#
# Indices 1 2 3 4 5 6 
#
# 1 0.053230 -0.026236 -0.027702 0.000000 0.000000 0.000000
# 2 -0.026236 0.028757 0.003029 0.000000 0.000000 0.000000
# 3 -0.027702 0.003029 0.034307 0.000000 0.000000 0.000000
# 4 0.000000 0.000000 0.000000 -0.981241 0.000000 0.000000
# 5 0.000000 0.000000 0.000000 0.000000 0.036245 0.000000
# 6 0.000000 0.000000 0.000000 0.000000 0.000000 0.038046
#
#
# Mechanical properties :
#
#
# Convention : Reuss Voigt Hill
#
# Bulk Modulus (GPa) = 69.07669 73.15793 71.11731
# Shear Modulus (GPa) = -7.30978 15.40777 4.04900
#
# Velocity S-wave (km/s) = -2.01244 2.92174 1.49777
# Velocity P-wave (km/s) = 5.73337 7.20518 6.51100
#
# Compressibility (1/GPa) = 0.01447666
#
# Stress axis : x y z
#
# Youngs Moduli (GPa) = 18.78636 34.77469 29.14880
#
# Poissons Ratio (x) = 0.91234 0.80748
# Poissons Ratio (y) = 0.49287 -0.08830
# Poissons Ratio (z) = 0.52042 -0.10534
#
# Static dielectric constant tensor:
#      x y z
#    x 1.606940 0.000000 0.000000 
#    y 0.000000 1.594010 0.000000 
#    z 0.000000 0.000000 1.640470 
# 
# From -- ./inp_files/76865.got.cif
#   From: 2010.05.17/outbox.cif.g08.bks.cpg/sg65_39_cif.got.tgz:76865.got - 2010.06.03 17:01:31.
