data_PCOD9488298
_publ_section_title
;
Structure prediction by ZEFSAII (Michael W. Deem and Ramdas Pophale) SiO2 
 PCOD9488298
Probable space group: C M M M
;
_chemical_formula_sum "Si O2"
_cell_formula_units_Z 96
_cell_length_a 18.641721
_cell_length_b 17.032094
_cell_length_c 14.054923
_cell_angle_alpha 90.000000
_cell_angle_beta 90.000000
_cell_angle_gamma 90.000000
_cell_volume 4462.544088
_symmetry_space_group_name_H-M "C M M M"
_symmetry_group_IT_number 65
_symmetry_cell_setting 'orthorhombic'
loop_
_space_group_symop_operation_xyz
x,y,z
-x,-y,z
x,-y,-z
-x,y,-z
-x,-y,-z
x,y,-z
-x,y,z
x,-y,z
1/2+x,1/2+y,z
1/2-x,1/2-y,z
1/2+x,1/2-y,-z
1/2-x,1/2+y,-z
1/2-x,1/2-y,-z
1/2+x,1/2+y,-z
1/2-x,1/2+y,z
1/2+x,1/2-y,z
loop_
_atom_site_type_symbol
_atom_site_label
_atom_site_fract_x
_atom_site_fract_y
_atom_site_fract_z
Si Si1 0.080722 0.756421 0.887566
Si Si2 0.862730 0.155675 0.610465
Si Si3 0.776933 0.590832 0.691901
Si Si4 0.083224 0.667493 0.614132
Si Si5 0.215878 0.662592 0.891193
Si Si6 0.585056 0.584372 0.205904
O O1 0.131804 0.682524 0.874852
O O2 0.111830 0.836184 0.842975
O O3 0.000000 0.743373 0.851717
O O4 0.077751 0.770880 0.000000
O O5 0.876262 0.140021 0.500000
O O6 0.778461 0.145472 0.633569
O O7 0.892508 0.242523 0.633127
O O8 0.900761 0.096208 0.682617
O O9 0.762792 0.500000 0.670080
O O10 0.857855 0.613116 0.663741
O O11 0.763065 0.608406 0.803267
O O12 0.087896 0.656042 0.500000
O O13 0.000000 0.655913 0.641468
O O14 0.250000 0.750000 0.884847
O O15 0.227693 0.634650 0.000000
O O16 0.500000 0.583908 0.187376
O O17 0.613850 0.500000 0.173626
#
# Coordination Sequence:
#
# PCOD9488298 Si02
#       6
#    16  16  16  16  16  16
#     4   9  18  34  57  82 108 144 191 240 287 337
#     4  11  23  40  61  84 113 152 199 246 291 343
#     4  12  25  39  60  90 124 159 191 235 299 360
#     4  10  22  41  65  90 116 153 203 252 292 337
#     4  10  21  38  60  84 111 148 195 242 286 340
#     4  10  20  32  50  81 119 156 193 237 292 350
#
# _framework density 21.512394
#
# number of rings (size 3 to 8) (size 9 to 14) (size 15 to 20)
#    0.000    1.667    0.000    5.000    0.000    7.667 
#    0.000    3.333    0.000    5.000    0.000    3.500 
#    0.000    0.000    0.000    0.000    0.000    0.000 
#
# Total GULP energy -268210.167504 kJ/mol
# GULP energy per Si atom -5587.711823 kJ/mol
# Density = 2.146343 g / cm^3
# Si number density = 21.512394 Si / 1000 Ang^3
#
#
#
# Elastic Constant Matrix: (Units=GPa)
#
#
# Indices 1 2 3 4 5 6 
#
# 1 91.2888 1.6524 -13.5631 0.0000 0.0000 0.0000
# 2 1.6524 23.4050 6.8391 0.0000 0.0000 0.0000
# 3 -13.5631 6.8391 38.1247 0.0000 0.0000 0.0000
# 4 0.0000 0.0000 0.0000 5.1068 0.0000 0.0000
# 5 0.0000 0.0000 0.0000 0.0000 28.9529 0.0000
# 6 0.0000 0.0000 0.0000 0.0000 0.0000 20.2158
#
#
#
# Elastic Compliance Matrix: (Units=1/GPa)
#
#
# Indices 1 2 3 4 5 6 
#
# 1 0.011667 -0.002149 0.004536 0.000000 0.000000 0.000000
# 2 -0.002149 0.045485 -0.008924 0.000000 0.000000 0.000000
# 3 0.004536 -0.008924 0.029444 0.000000 0.000000 0.000000
# 4 0.000000 0.000000 0.000000 0.195817 0.000000 0.000000
# 5 0.000000 0.000000 0.000000 0.000000 0.034539 0.000000
# 6 0.000000 0.000000 0.000000 0.000000 0.000000 0.049466
#
#
# Mechanical properties :
#
#
# Convention : Reuss Voigt Hill
#
# Bulk Modulus (GPa) = 13.60129 15.85284 14.72707
# Shear Modulus (GPa) = 12.37622 21.38111 16.87866
#
# Velocity S-wave (km/s) = 2.40116 3.15603 2.80411
# Velocity P-wave (km/s) = 3.74482 4.54598 4.16471
#
# Compressibility (1/GPa) = 0.07352243
#
# Stress axis : x y z
#
# Youngs Moduli (GPa) = 85.71109 21.98514 33.96241
#
# Poissons Ratio (x) = 0.04725 -0.15406
# Poissons Ratio (y) = 0.18421 0.30308
# Poissons Ratio (z) = -0.38880 0.19620
#
# Static dielectric constant tensor:
#      x y z
#    x 1.850780 0.000000 0.000000 
#    y 0.000000 1.770310 0.000000 
#    z 0.000000 0.000000 1.784040 
# 
# From -- ./inp_files/44092.got.cif
#   From: 2010.05.17/outbox.cif.g08.bks.cpg/sg65_23_cif.got.tgz:44092.got - 2010.06.03 17:01:31.
