data_PCOD9488271
_publ_section_title
;
Structure prediction by ZEFSAII (Michael W. Deem and Ramdas Pophale) SiO2 
 PCOD9488271
Probable space group: C M M M
;
_chemical_formula_sum "Si O2"
_cell_formula_units_Z 88
_cell_length_a 28.098418
_cell_length_b 19.876998
_cell_length_c 8.764641
_cell_angle_alpha 90.000000
_cell_angle_beta 90.000000
_cell_angle_gamma 90.000000
_cell_volume 4895.158913
_symmetry_space_group_name_H-M "C M M M"
_symmetry_group_IT_number 65
_symmetry_cell_setting 'orthorhombic'
loop_
_space_group_symop_operation_xyz
x,y,z
-x,-y,z
x,-y,-z
-x,y,-z
-x,-y,-z
x,y,-z
-x,y,z
x,-y,z
1/2+x,1/2+y,z
1/2-x,1/2-y,z
1/2+x,1/2-y,-z
1/2-x,1/2+y,-z
1/2-x,1/2-y,-z
1/2+x,1/2+y,-z
1/2-x,1/2+y,z
1/2+x,1/2-y,z
loop_
_atom_site_type_symbol
_atom_site_label
_atom_site_fract_x
_atom_site_fract_y
_atom_site_fract_z
Si Si1 0.916689 0.139726 0.324066
Si Si2 0.192366 0.183751 0.677613
Si Si3 0.947119 0.722180 0.817949
Si Si4 0.848425 0.323041 0.315684
Si Si5 0.556861 0.500000 0.172949
Si Si6 0.230887 0.576610 0.686170
O O1 0.931916 0.144891 0.500000
O O2 0.860081 0.151790 0.318402
O O3 0.940743 0.199900 0.230505
O O4 0.927641 0.067115 0.258384
O O5 0.206514 0.193021 0.500000
O O6 0.183602 0.259062 0.739787
O O7 0.229631 0.130142 0.742621
O O8 0.901624 0.684433 0.747228
O O9 0.000000 0.699531 0.768001
O O10 0.944628 0.717103 0.000000
O O11 0.851186 0.317117 0.500000
O O12 0.820221 0.390735 0.277143
O O13 0.500000 0.500000 0.167534
O O14 0.575503 0.500000 0.000000
O O15 0.234487 0.574737 0.500000
O O16 0.237041 0.500000 0.739898
#
# Coordination Sequence:
#
# PCOD9488271 Si02
#       6
#    16  16  16  16   8  16
#     4  10  20  32  50  74  98 127 168 214 252 290
#     4   8  15  27  45  71 101 129 159 201 246 290
#     4  10  20  34  52  72  95 126 163 203 253 308
#     4   9  17  30  49  75 101 128 165 206 246 290
#     4  11  23  35  45  61  95 141 177 209 254 301
#     4   9  16  26  46  75 104 131 161 202 249 296
#
# _framework density 17.976945000000001
#
# number of rings (size 3 to 8) (size 9 to 14) (size 15 to 20)
#    0.000    2.636    0.000    3.545    1.273    6.545 
#    0.000    0.000    0.000   10.909    0.000    3.818 
#    0.000    0.000    0.000    0.000    0.000    0.000 
#
# Total GULP energy -245228.161821 kJ/mol
# GULP energy per Si atom -5573.367314 kJ/mol
# Density = 1.793603 g / cm^3
# Si number density = 17.976945 Si / 1000 Ang^3
#
#
#
# Elastic Constant Matrix: (Units=GPa)
#
#
# Indices 1 2 3 4 5 6 
#
# 1 102.6845 49.0714 18.9572 0.0000 0.0000 0.0000
# 2 49.0714 67.3113 12.8365 0.0000 0.0000 0.0000
# 3 18.9572 12.8365 20.7740 0.0000 0.0000 0.0000
# 4 0.0000 0.0000 0.0000 9.6873 0.0000 0.0000
# 5 0.0000 0.0000 0.0000 0.0000 52.8056 0.0000
# 6 0.0000 0.0000 0.0000 0.0000 0.0000 13.6302
#
#
#
# Elastic Compliance Matrix: (Units=1/GPa)
#
#
# Indices 1 2 3 4 5 6 
#
# 1 0.016160 -0.010167 -0.008464 0.000000 0.000000 0.000000
# 2 -0.010167 0.023237 -0.005081 0.000000 0.000000 0.000000
# 3 -0.008464 -0.005081 0.059001 0.000000 0.000000 0.000000
# 4 0.000000 0.000000 0.000000 0.103228 0.000000 0.000000
# 5 0.000000 0.000000 0.000000 0.000000 0.018937 0.000000
# 6 0.000000 0.000000 0.000000 0.000000 0.000000 0.073366
#
#
# Mechanical properties :
#
#
# Convention : Reuss Voigt Hill
#
# Bulk Modulus (GPa) = 19.61800 39.16667 29.39233
# Shear Modulus (GPa) = 13.95307 22.55161 18.25234
#
# Velocity S-wave (km/s) = 2.78900 3.54570 3.18986
# Velocity P-wave (km/s) = 4.61605 6.21266 5.47289
#
# Compressibility (1/GPa) = 0.05097360
#
# Stress axis : x y z
#
# Youngs Moduli (GPa) = 61.88233 43.03493 16.94894
#
# Poissons Ratio (x) = 0.43752 0.14346
# Poissons Ratio (y) = 0.62913 0.08612
# Poissons Ratio (z) = 0.52380 0.21866
#
# Static dielectric constant tensor:
#      x y z
#    x 1.633520 0.000000 0.000000 
#    y 0.000000 1.537910 0.000000 
#    z 0.000000 0.000000 1.614480 
# 
# From -- ./inp_files/18266.got.cif
#   From: 2010.05.17/outbox.cif.g08.bks.cpg/sg65_10_cif.got.tgz:18266.got - 2010.06.03 17:01:31.
