data_PCOD9488474
_publ_section_title
;
Structure prediction by ZEFSAII (Michael W. Deem and Ramdas Pophale) SiO2 
 PCOD9488474
Probable space group: C M M M
;
_chemical_formula_sum "Si O2"
_cell_formula_units_Z 104
_cell_length_a 8.652340
_cell_length_b 27.509847
_cell_length_c 24.969875
_cell_angle_alpha 90.000000
_cell_angle_beta 90.000000
_cell_angle_gamma 90.000000
_cell_volume 5943.443250
_symmetry_space_group_name_H-M "C M M M"
_symmetry_group_IT_number 65
_symmetry_cell_setting 'orthorhombic'
loop_
_space_group_symop_operation_xyz
x,y,z
-x,-y,z
x,-y,-z
-x,y,-z
-x,-y,-z
x,y,-z
-x,y,z
x,-y,z
1/2+x,1/2+y,z
1/2-x,1/2-y,z
1/2+x,1/2-y,-z
1/2-x,1/2+y,-z
1/2-x,1/2-y,-z
1/2+x,1/2+y,-z
1/2-x,1/2+y,z
1/2+x,1/2-y,z
loop_
_atom_site_type_symbol
_atom_site_label
_atom_site_fract_x
_atom_site_fract_y
_atom_site_fract_z
Si Si1 0.314350 0.104813 0.668485
Si Si2 0.688118 0.056285 0.440016
Si Si3 0.188381 0.500000 0.062174
Si Si4 0.685059 0.697852 0.272368
Si Si5 0.816838 0.403096 0.875404
Si Si6 0.676979 0.442970 0.769090
Si Si7 0.815580 0.802469 0.146534
O O1 0.500000 0.103830 0.670150
O O2 0.262048 0.090174 0.608882
O O3 0.254283 0.155955 0.690715
O O4 0.246919 0.066583 0.711021
O O5 0.739142 0.070311 0.500000
O O6 0.500000 0.056858 0.440297
O O7 0.733561 0.000000 0.430569
O O8 0.240524 0.449727 0.090305
O O9 0.000000 0.500000 0.065980
O O10 0.231130 0.500000 0.000000
O O11 0.500000 0.697137 0.275183
O O12 0.750000 0.750000 0.288919
O O13 0.729560 0.691258 0.209563
O O14 0.776635 0.417025 0.814369
O O15 0.743904 0.350039 0.884665
O O16 0.000000 0.399287 0.882810
O O17 0.500000 0.424465 0.771306
O O18 0.676219 0.500000 0.780500
O O19 0.750000 0.750000 0.129132
O O20 0.000000 0.800872 0.144026
#
# Coordination Sequence:
#
# PCOD9488474 Si02
#       7
#    16  16   8  16  16  16  16
#     4  11  20  30  50  76 102 133 172 214 260 320
#     4   8  15  29  48  71  99 131 169 213 257 302
#     4   9  20  38  59  85 115 149 188 227 268 313
#     4  10  20  33  49  71 103 139 170 210 260 313
#     4  11  20  33  56  82 109 144 182 223 266 318
#     4  11  22  33  46  70 108 145 173 212 264 314
#     4  10  20  34  53  78 111 147 181 222 271 324
#
# _framework density 17.498273999999999
#
# number of rings (size 3 to 8) (size 9 to 14) (size 15 to 20)
#    0.000    1.923    2.308    3.231    0.000    2.769 
#    0.000    0.000    0.000    6.462    0.000    5.385 
#    0.000    0.000    0.000    0.000    0.000    0.000 
#
# Total GULP energy -290079.301157 kJ/mol
# GULP energy per Si atom -5578.448099 kJ/mol
# Density = 1.745845 g / cm^3
# Si number density = 17.498274 Si / 1000 Ang^3
#
#
#
# Elastic Constant Matrix: (Units=GPa)
#
#
# Indices 1 2 3 4 5 6 
#
# 1 31.8467 30.9340 9.8477 0.0000 0.0000 0.0000
# 2 30.9340 141.4982 43.8998 0.0000 0.0000 0.0000
# 3 9.8477 43.8998 65.3107 0.0000 0.0000 0.0000
# 4 0.0000 0.0000 0.0000 24.8042 0.0000 0.0000
# 5 0.0000 0.0000 0.0000 0.0000 5.0483 0.0000
# 6 0.0000 0.0000 0.0000 0.0000 0.0000 30.0459
#
#
#
# Elastic Compliance Matrix: (Units=1/GPa)
#
#
# Indices 1 2 3 4 5 6 
#
# 1 0.039868 -0.008656 -0.000193 0.000000 0.000000 0.000000
# 2 -0.008656 0.010809 -0.005960 0.000000 0.000000 0.000000
# 3 -0.000193 -0.005960 0.019347 0.000000 0.000000 0.000000
# 4 0.000000 0.000000 0.000000 0.040316 0.000000 0.000000
# 5 0.000000 0.000000 0.000000 0.000000 0.198085 0.000000
# 6 0.000000 0.000000 0.000000 0.000000 0.000000 0.033282
#
#
# Mechanical properties :
#
#
# Convention : Reuss Voigt Hill
#
# Bulk Modulus (GPa) = 24.74940 45.33539 35.04240
# Shear Modulus (GPa) = 12.99399 22.24463 17.61931
#
# Velocity S-wave (km/s) = 2.72800 3.56932 3.17664
# Velocity P-wave (km/s) = 4.90890 6.55374 5.79002
#
# Compressibility (1/GPa) = 0.04040502
#
# Stress axis : x y z
#
# Youngs Moduli (GPa) = 25.08283 92.51833 51.68829
#
# Poissons Ratio (x) = 0.80083 0.00999
# Poissons Ratio (y) = 0.21711 0.30807
# Poissons Ratio (z) = 0.00485 0.55142
#
# Static dielectric constant tensor:
#      x y z
#    x 1.601760 0.000000 0.000000 
#    y 0.000000 1.535580 0.000000 
#    z 0.000000 0.000000 1.581070 
# 
# From -- ./inp_files/60417.got.cif
#   From: 2010.05.17/outbox.cif.g08.bks.cpg/sg65_31_cif.got.tgz:60417.got - 2010.06.03 17:01:31.
