data_PCOD9488309
_publ_section_title
;
Structure prediction by ZEFSAII (Michael W. Deem and Ramdas Pophale) SiO2 
 PCOD9488309
Probable space group: C M M M
;
_chemical_formula_sum "Si O2"
_cell_formula_units_Z 90
_cell_length_a 8.455600
_cell_length_b 25.483922
_cell_length_c 23.800897
_cell_angle_alpha 90.000000
_cell_angle_beta 90.000000
_cell_angle_gamma 90.000000
_cell_volume 5128.661338
_symmetry_space_group_name_H-M "C M M M"
_symmetry_group_IT_number 65
_symmetry_cell_setting 'orthorhombic'
loop_
_space_group_symop_operation_xyz
x,y,z
-x,-y,z
x,-y,-z
-x,y,-z
-x,-y,-z
x,y,-z
-x,y,z
x,-y,z
1/2+x,1/2+y,z
1/2-x,1/2-y,z
1/2+x,1/2-y,-z
1/2-x,1/2+y,-z
1/2-x,1/2-y,-z
1/2+x,1/2+y,-z
1/2-x,1/2+y,z
1/2+x,1/2-y,z
loop_
_atom_site_type_symbol
_atom_site_label
_atom_site_fract_x
_atom_site_fract_y
_atom_site_fract_z
Si Si1 0.808275 0.000000 0.413300
Si Si2 0.311535 0.193101 0.717343
Si Si3 0.309807 0.000000 0.102383
Si Si4 0.189209 0.692767 0.846493
Si Si5 0.500000 0.000000 0.500000
Si Si6 0.811599 0.500000 0.231539
Si Si7 0.185439 0.914710 0.316823
Si Si8 0.810808 0.888836 0.062495
O O1 0.649356 0.000000 0.452161
O O2 0.793850 0.050996 0.373091
O O3 0.000000 0.000000 0.432956
O O4 0.500000 0.194878 0.717953
O O5 0.250000 0.250000 0.698624
O O6 0.255181 0.184548 0.782000
O O7 0.257284 0.143164 0.681837
O O8 0.254343 0.000000 0.167488
O O9 0.248503 0.947620 0.073170
O O10 0.500000 0.000000 0.101689
O O11 0.250000 0.750000 0.864241
O O12 0.247381 0.648576 0.888726
O O13 0.000000 0.692691 0.845961
O O14 0.757205 0.449074 0.266158
O O15 0.000000 0.500000 0.230106
O O16 0.000000 0.909982 0.306346
O O17 0.000000 0.888297 0.064336
O O18 0.759526 0.871493 0.000000
#
# Coordination Sequence:
#
# PCOD9488309 Si02
#       8
#     8  16   8  16   2   8  16  16
#     4   9  22  38  56  91 126 155 204 248 278 335
#     4  10  20  33  53  80 113 145 182 220 269 336
#     4  11  23  37  53  76 101 131 172 216 271 331
#     4  10  21  37  56  79 104 136 173 220 272 330
#     4  12  22  36  68  86 120 172 202 236 302 312
#     4  10  20  32  51  77 107 141 173 214 270 341
#     4  10  20  34  53  81 119 150 183 230 276 320
#     4  11  24  39  54  72  95 128 172 223 274 330
#
# _framework density 17.548438999999998
#
# number of rings (size 3 to 8) (size 9 to 14) (size 15 to 20)
#    0.000    1.778    0.000    4.667    3.733   10.667 
#    0.000    0.000    0.000    0.000    0.000    0.622 
#    0.000    0.000    0.000    0.000    0.000    0.000 
#
# Total GULP energy -250858.379334 kJ/mol
# GULP energy per Si atom -5574.630652 kJ/mol
# Density = 1.750850 g / cm^3
# Si number density = 17.548439 Si / 1000 Ang^3
#
#
#
# Elastic Constant Matrix: (Units=GPa)
#
#
# Indices 1 2 3 4 5 6 
#
# 1 80.4093 35.9696 33.0064 0.0000 0.0000 0.0000
# 2 35.9696 138.0101 35.2193 0.0000 0.0000 0.0000
# 3 33.0064 35.2193 57.6991 0.0000 0.0000 0.0000
# 4 0.0000 0.0000 0.0000 -4.8598 0.0000 0.0000
# 5 0.0000 0.0000 0.0000 0.0000 21.1464 0.0000
# 6 0.0000 0.0000 0.0000 0.0000 0.0000 35.8938
#
#
#
# Elastic Compliance Matrix: (Units=1/GPa)
#
#
# Indices 1 2 3 4 5 6 
#
# 1 0.016841 -0.002287 -0.008238 0.000000 0.000000 0.000000
# 2 -0.002287 0.008893 -0.004120 0.000000 0.000000 0.000000
# 3 -0.008238 -0.004120 0.024559 0.000000 0.000000 0.000000
# 4 0.000000 0.000000 0.000000 -0.205769 0.000000 0.000000
# 5 0.000000 0.000000 0.000000 0.000000 0.047289 0.000000
# 6 0.000000 0.000000 0.000000 0.000000 0.000000 0.027860
#
#
# Mechanical properties :
#
#
# Convention : Reuss Voigt Hill
#
# Bulk Modulus (GPa) = 47.61243 53.83436 50.72339
# Shear Modulus (GPa) = -113.54194 21.89764 -45.82215
#
# Velocity S-wave (km/s) = -8.05248 3.53631 -5.11552
# Velocity P-wave (km/s) = 7.69842 6.88608 2.43388
#
# Compressibility (1/GPa) = 0.02100292
#
# Stress axis : x y z
#
# Youngs Moduli (GPa) = 59.37948 112.44345 40.71902
#
# Poissons Ratio (x) = 0.25716 0.33543
# Poissons Ratio (y) = 0.13580 0.16777
# Poissons Ratio (z) = 0.48915 0.46329
#
# Static dielectric constant tensor:
#      x y z
#    x 1.602550 0.000000 0.000000 
#    y 0.000000 1.570520 0.000000 
#    z 0.000000 0.000000 1.600760 
# 
# From -- ./inp_files/67714.got.cif
#   From: 2010.05.17/outbox.cif.g08.bks.cpg/sg65_34_cif.got.tgz:67714.got - 2010.06.03 17:01:31.
