data_PCOD9488988
_publ_section_title
;
Structure prediction by ZEFSAII (Michael W. Deem and Ramdas Pophale) SiO2 
 PCOD9488988
Probable space group: C M M M
;
_chemical_formula_sum "Si O2"
_cell_formula_units_Z 88
_cell_length_a 19.361565
_cell_length_b 18.775152
_cell_length_c 11.542806
_cell_angle_alpha 90.000000
_cell_angle_beta 90.000000
_cell_angle_gamma 90.000000
_cell_volume 4195.998427
_symmetry_space_group_name_H-M "C M M M"
_symmetry_group_IT_number 65
_symmetry_cell_setting 'orthorhombic'
loop_
_space_group_symop_operation_xyz
x,y,z
-x,-y,z
x,-y,-z
-x,y,-z
-x,-y,-z
x,y,-z
-x,y,z
x,-y,z
1/2+x,1/2+y,z
1/2-x,1/2-y,z
1/2+x,1/2-y,-z
1/2-x,1/2+y,-z
1/2-x,1/2-y,-z
1/2+x,1/2+y,-z
1/2-x,1/2+y,z
1/2+x,1/2-y,z
loop_
_atom_site_type_symbol
_atom_site_label
_atom_site_fract_x
_atom_site_fract_y
_atom_site_fract_z
Si Si1 0.401345 0.199344 0.750080
Si Si2 0.756571 0.358897 0.251510
Si Si3 0.000000 0.415951 0.860923
Si Si4 0.575829 0.857291 0.500000
Si Si5 0.770792 0.584228 0.500000
Si Si6 0.731969 0.000000 0.131762
Si Si7 0.108098 0.844941 0.139532
Si Si8 0.100038 0.000000 0.133742
O O1 0.318185 0.196701 0.756950
O O2 0.436198 0.131804 0.813916
O O3 0.419759 0.189775 0.615690
O O4 0.423137 0.274095 0.805360
O O5 0.741816 0.377325 0.385343
O O6 0.789738 0.430714 0.199563
O O7 0.688657 0.345171 0.177042
O O8 0.000000 0.500000 0.824081
O O9 0.000000 0.415481 0.000000
O O10 0.500000 0.893748 0.500000
O O11 0.645464 0.904984 0.500000
O O12 0.755172 0.500000 0.500000
O O13 0.815962 0.000000 0.132797
O O14 0.707921 0.000000 0.000000
O O15 0.080421 0.922373 0.181400
O O16 0.102454 0.842494 0.000000
O O17 0.078029 0.000000 0.000000
#
# Coordination Sequence:
#
# PCOD9488988 Si02
#       8
#    16  16   8   8   8   8  16   8
#     4  11  23  39  61  84 114 162 209 253 311 362
#     4  10  20  33  53  84 118 157 202 248 299 363
#     4  11  26  43  59  88 126 160 206 263 312 360
#     4  10  22  42  59  80 110 161 220 272 301 345
#     4  10  20  34  55  85 121 163 211 259 303 353
#     4   9  16  27  47  74 113 155 188 231 287 349
#     4  10  20  36  60  90 125 159 195 242 308 384
#     4   7  14  30  51  80 113 148 185 225 277 354
#
# _framework density 20.972362
#
# number of rings (size 3 to 8) (size 9 to 14) (size 15 to 20)
#    0.000    2.091    1.818    2.727    1.273    5.273 
#    0.000    2.727    0.000    0.545    0.000    3.182 
#    0.000    0.000    0.000    0.000    0.000    0.000 
#
# Total GULP energy -245403.023369 kJ/mol
# GULP energy per Si atom -5577.341440 kJ/mol
# Density = 2.092463 g / cm^3
# Si number density = 20.972362 Si / 1000 Ang^3
#
#
#
# Elastic Constant Matrix: (Units=GPa)
#
#
# Indices 1 2 3 4 5 6 
#
# 1 80.4827 5.2538 -6.8468 0.0000 0.0000 0.0000
# 2 5.2538 176.7916 48.9865 0.0000 0.0000 0.0000
# 3 -6.8468 48.9865 115.8479 0.0000 0.0000 0.0000
# 4 0.0000 0.0000 0.0000 19.1853 0.0000 0.0000
# 5 0.0000 0.0000 0.0000 0.0000 5.9528 0.0000
# 6 0.0000 0.0000 0.0000 0.0000 0.0000 8.5461
#
#
#
# Elastic Compliance Matrix: (Units=1/GPa)
#
#
# Indices 1 2 3 4 5 6 
#
# 1 0.012555 -0.000655 0.001019 0.000000 0.000000 0.000000
# 2 -0.000655 0.006441 -0.002762 0.000000 0.000000 0.000000
# 3 0.001019 -0.002762 0.009860 0.000000 0.000000 0.000000
# 4 0.000000 0.000000 0.000000 0.052123 0.000000 0.000000
# 5 0.000000 0.000000 0.000000 0.000000 0.167989 0.000000
# 6 0.000000 0.000000 0.000000 0.000000 0.000000 0.117013
#
#
# Mechanical properties :
#
#
# Convention : Reuss Voigt Hill
#
# Bulk Modulus (GPa) = 41.56516 51.98991 46.77754
# Shear Modulus (GPa) = 13.19963 28.45206 20.82584
#
# Velocity S-wave (km/s) = 2.51147 3.68726 3.15463
# Velocity P-wave (km/s) = 5.31714 6.55526 5.96839
#
# Compressibility (1/GPa) = 0.02405861
#
# Stress axis : x y z
#
# Youngs Moduli (GPa) = 79.65261 155.24830 101.41625
#
# Poissons Ratio (x) = 0.10176 -0.10336
# Poissons Ratio (y) = 0.05221 0.28016
# Poissons Ratio (z) = -0.08118 0.42887
#
# Static dielectric constant tensor:
#      x y z
#    x 1.786810 0.000000 0.000000 
#    y 0.000000 1.829800 0.000000 
#    z 0.000000 0.000000 1.756630 
# 
# From -- ./inp_files/28817.got.cif
#   From: 2010.05.17/outbox.cif.g08.bks.cpg/sg65_15_cif.got.tgz:28817.got - 2010.06.03 17:01:31.
