data_PCOD9488270
_publ_section_title
;
Structure prediction by ZEFSAII (Michael W. Deem and Ramdas Pophale) SiO2 
 PCOD9488270
Probable space group: C M M M
;
_chemical_formula_sum "Si O2"
_cell_formula_units_Z 72
_cell_length_a 18.586812
_cell_length_b 7.460059
_cell_length_c 26.228707
_cell_angle_alpha 90.000000
_cell_angle_beta 90.000000
_cell_angle_gamma 90.000000
_cell_volume 3636.838786
_symmetry_space_group_name_H-M "C M M M"
_symmetry_group_IT_number 65
_symmetry_cell_setting 'orthorhombic'
loop_
_space_group_symop_operation_xyz
x,y,z
-x,-y,z
x,-y,-z
-x,y,-z
-x,-y,-z
x,y,-z
-x,y,z
x,-y,z
1/2+x,1/2+y,z
1/2-x,1/2-y,z
1/2+x,1/2-y,-z
1/2-x,1/2+y,-z
1/2-x,1/2-y,-z
1/2+x,1/2+y,-z
1/2-x,1/2+y,z
1/2+x,1/2-y,z
loop_
_atom_site_type_symbol
_atom_site_label
_atom_site_fract_x
_atom_site_fract_y
_atom_site_fract_z
Si Si1 0.665412 0.714025 0.742663
Si Si2 0.583012 0.719509 0.843346
Si Si3 0.334431 0.285406 0.056680
Si Si4 0.087310 0.500000 0.442151
Si Si5 0.914099 0.211965 0.640561
O O1 0.654886 0.500000 0.742630
O O2 0.750000 0.750000 0.743051
O O3 0.627456 0.781379 0.794047
O O4 0.627692 0.777298 0.690774
O O5 0.500000 0.772152 0.839809
O O6 0.585069 0.500000 0.843670
O O7 0.619199 0.781633 0.895963
O O8 0.343824 0.500000 0.055185
O O9 0.250000 0.250000 0.065476
O O10 0.352893 0.216133 0.000000
O O11 0.114537 0.500000 0.500000
O O12 0.107432 0.326945 0.408644
O O13 0.000000 0.500000 0.444785
O O14 0.000000 0.234703 0.648831
O O15 0.900877 0.000000 0.633039
#
# Coordination Sequence:
#
# PCOD9488270 Si02
#       5
#    16  16  16   8  16
#     4  10  20  32  50  74  97 132 168 208 259 312
#     4   9  17  30  48  70  98 128 164 212 259 307
#     4   9  17  29  47  70  95 128 167 208 254 305
#     4   9  18  32  54  84 112 140 174 216 264 307
#     4   9  18  33  53  78 107 140 177 217 261 312
#
# _framework density 19.797414
#
# number of rings (size 3 to 8) (size 9 to 14) (size 15 to 20)
#    0.000    2.778    0.000    1.333    1.556    3.556 
#    0.000    4.444    0.000    2.667    0.000    3.111 
#    0.000    0.000    0.000    0.000    0.000    0.000 
#
# Total GULP energy -200922.398530 kJ/mol
# GULP energy per Si atom -5581.177737 kJ/mol
# Density = 1.975235 g / cm^3
# Si number density = 19.797414 Si / 1000 Ang^3
#
#
#
# Elastic Constant Matrix: (Units=GPa)
#
#
# Indices 1 2 3 4 5 6 
#
# 1 98.7606 22.0116 110.1804 0.0000 0.0000 0.0000
# 2 22.0116 69.9988 47.6457 0.0000 0.0000 0.0000
# 3 110.1804 47.6457 237.7239 0.0000 0.0000 0.0000
# 4 0.0000 0.0000 0.0000 73.6493 0.0000 0.0000
# 5 0.0000 0.0000 0.0000 0.0000 8.6662 0.0000
# 6 0.0000 0.0000 0.0000 0.0000 0.0000 19.1927
#
#
#
# Elastic Compliance Matrix: (Units=1/GPa)
#
#
# Indices 1 2 3 4 5 6 
#
# 1 0.020967 0.000025 -0.009723 0.000000 0.000000 0.000000
# 2 0.000025 0.016543 -0.003327 0.000000 0.000000 0.000000
# 3 -0.009723 -0.003327 0.009380 0.000000 0.000000 0.000000
# 4 0.000000 0.000000 0.000000 0.013578 0.000000 0.000000
# 5 0.000000 0.000000 0.000000 0.000000 0.115391 0.000000
# 6 0.000000 0.000000 0.000000 0.000000 0.000000 0.052103
#
#
# Mechanical properties :
#
#
# Convention : Reuss Voigt Hill
#
# Bulk Modulus (GPa) = 47.98619 85.12875 66.55747
# Shear Modulus (GPa) = 19.16018 35.41134 27.28576
#
# Velocity S-wave (km/s) = 3.11434 4.23387 3.71650
# Velocity P-wave (km/s) = 6.10110 8.18500 7.21864
#
# Compressibility (1/GPa) = 0.02083933
#
# Stress axis : x y z
#
# Youngs Moduli (GPa) = 47.69401 60.44933 106.61337
#
# Poissons Ratio (x) = -0.00149 1.03657
# Poissons Ratio (y) = -0.00118 0.35471
# Poissons Ratio (z) = 0.46372 0.20112
#
# Static dielectric constant tensor:
#      x y z
#    x 1.654960 0.000000 0.000000 
#    y 0.000000 1.752450 0.000000 
#    z 0.000000 0.000000 1.687710 
# 
# From -- ./inp_files/66989.got.cif
#   From: 2010.05.17/outbox.cif.g08.bks.cpg/sg65_34_cif.got.tgz:66989.got - 2010.06.03 17:01:31.
