data_PCOD9488186
_publ_section_title
;
Structure prediction by ZEFSAII (Michael W. Deem and Ramdas Pophale) SiO2 
 PCOD9488186
Probable space group: C M M M
;
_chemical_formula_sum "Si O2"
_cell_formula_units_Z 96
_cell_length_a 9.543709
_cell_length_b 32.319203
_cell_length_c 15.301595
_cell_angle_alpha 90.000000
_cell_angle_beta 90.000000
_cell_angle_gamma 90.000000
_cell_volume 4719.701519
_symmetry_space_group_name_H-M "C M M M"
_symmetry_group_IT_number 65
_symmetry_cell_setting 'orthorhombic'
loop_
_space_group_symop_operation_xyz
x,y,z
-x,-y,z
x,-y,-z
-x,y,-z
-x,-y,-z
x,y,-z
-x,y,z
x,-y,z
1/2+x,1/2+y,z
1/2-x,1/2-y,z
1/2+x,1/2-y,-z
1/2-x,1/2+y,-z
1/2-x,1/2-y,-z
1/2+x,1/2+y,-z
1/2-x,1/2+y,z
1/2+x,1/2-y,z
loop_
_atom_site_type_symbol
_atom_site_label
_atom_site_fract_x
_atom_site_fract_y
_atom_site_fract_z
Si Si1 0.162798 0.788331 0.393305
Si Si2 0.159544 0.544834 0.654733
Si Si3 0.340216 0.371164 0.896205
Si Si4 0.836685 0.291261 0.893082
Si Si5 0.158456 0.122135 0.604706
Si Si6 0.160680 0.453320 0.864755
O O1 0.168945 0.787202 0.500000
O O2 0.250000 0.750000 0.359231
O O3 0.215253 0.833430 0.364792
O O4 0.000000 0.784940 0.369885
O O5 0.214480 0.500000 0.625030
O O6 0.249980 0.583317 0.627655
O O7 0.156230 0.544557 0.759708
O O8 0.000000 0.548949 0.623254
O O9 0.500000 0.371359 0.860707
O O10 0.244977 0.332878 0.863177
O O11 0.262893 0.415388 0.886026
O O12 0.351623 0.364318 0.000000
O O13 0.750000 0.250000 0.868054
O O14 0.000000 0.290328 0.864875
O O15 0.839105 0.291872 0.000000
O O16 0.151105 0.124567 0.500000
O O17 0.000000 0.117225 0.637753
O O18 0.201167 0.500000 0.894831
O O19 0.000000 0.445292 0.894544
#
# Coordination Sequence:
#
# PCOD9488186 Si02
#       6
#    16  16  16  16  16  16
#     4   8  14  25  41  63  92 123 154 188 226 271
#     4   9  19  35  52  70  93 123 161 202 241 284
#     4  10  20  32  48  74 104 129 158 199 243 286
#     4   9  16  27  45  69  98 131 164 197 236 283
#     4   9  18  31  47  71 101 128 156 194 239 285
#     4   9  19  36  54  70  92 125 163 201 244 294
#
# _framework density 20.340268999999999
#
# number of rings (size 3 to 8) (size 9 to 14) (size 15 to 20)
#    0.000    3.000    0.000    3.000    0.000    6.000 
#    0.000    6.667    0.000    1.000    0.000    2.333 
#    0.000    0.000    0.000    0.000    0.000    0.000 
#
# Total GULP energy -267627.409495 kJ/mol
# GULP energy per Si atom -5575.571031 kJ/mol
# Density = 2.029397 g / cm^3
# Si number density = 20.340269 Si / 1000 Ang^3
#
#
#
# Elastic Constant Matrix: (Units=GPa)
#
#
# Indices 1 2 3 4 5 6 
#
# 1 138.1001 132.8516 7.8177 0.0000 0.0000 0.0000
# 2 132.8516 242.2012 11.9860 0.0000 0.0000 0.0000
# 3 7.8177 11.9860 23.1214 0.0000 0.0000 0.0000
# 4 0.0000 0.0000 0.0000 45.5270 0.0000 0.0000
# 5 0.0000 0.0000 0.0000 0.0000 26.0645 0.0000
# 6 0.0000 0.0000 0.0000 0.0000 0.0000 41.7186
#
#
#
# Elastic Compliance Matrix: (Units=1/GPa)
#
#
# Indices 1 2 3 4 5 6 
#
# 1 0.015347 -0.008376 -0.000847 0.000000 0.000000 0.000000
# 2 -0.008376 0.008809 -0.001734 0.000000 0.000000 0.000000
# 3 -0.000847 -0.001734 0.044435 0.000000 0.000000 0.000000
# 4 0.000000 0.000000 0.000000 0.021965 0.000000 0.000000
# 5 0.000000 0.000000 0.000000 0.000000 0.038366 0.000000
# 6 0.000000 0.000000 0.000000 0.000000 0.000000 0.023970
#
#
# Mechanical properties :
#
#
# Convention : Reuss Voigt Hill
#
# Bulk Modulus (GPa) = 21.42407 78.74813 50.08610
# Shear Modulus (GPa) = 26.26513 39.37985 32.82249
#
# Velocity S-wave (km/s) = 3.59735 4.40483 4.02141
# Velocity P-wave (km/s) = 5.27354 8.04174 6.79999
#
# Compressibility (1/GPa) = 0.04667646
#
# Stress axis : x y z
#
# Youngs Moduli (GPa) = 65.16010 113.51940 22.50455
#
# Poissons Ratio (x) = 0.95085 0.01906
# Poissons Ratio (y) = 0.54579 0.03903
# Poissons Ratio (z) = 0.05518 0.19690
#
# Static dielectric constant tensor:
#      x y z
#    x 1.699250 0.000000 0.000000 
#    y 0.000000 1.731900 0.000000 
#    z 0.000000 0.000000 1.764690 
# 
# From -- ./inp_files/60157.got.cif
#   From: 2010.05.17/outbox.cif.g08.bks.cpg/sg65_31_cif.got.tgz:60157.got - 2010.06.03 17:01:31.
