data_PCOD9488578
_publ_section_title
;
Structure prediction by ZEFSAII (Michael W. Deem and Ramdas Pophale) SiO2 
 PCOD9488578
Probable space group: C M M M
;
_chemical_formula_sum "Si O2"
_cell_formula_units_Z 72
_cell_length_a 29.033572
_cell_length_b 16.289651
_cell_length_c 8.851015
_cell_angle_alpha 90.000000
_cell_angle_beta 90.000000
_cell_angle_gamma 90.000000
_cell_volume 4186.058824
_symmetry_space_group_name_H-M "C M M M"
_symmetry_group_IT_number 65
_symmetry_cell_setting 'orthorhombic'
loop_
_space_group_symop_operation_xyz
x,y,z
-x,-y,z
x,-y,-z
-x,y,-z
-x,-y,-z
x,y,-z
-x,y,z
x,-y,z
1/2+x,1/2+y,z
1/2-x,1/2-y,z
1/2+x,1/2-y,-z
1/2-x,1/2+y,-z
1/2-x,1/2-y,-z
1/2+x,1/2+y,-z
1/2-x,1/2+y,z
1/2+x,1/2-y,z
loop_
_atom_site_type_symbol
_atom_site_label
_atom_site_fract_x
_atom_site_fract_y
_atom_site_fract_z
Si Si1 0.444046 0.000000 0.674646
Si Si2 0.610231 0.500000 0.174245
Si Si3 0.218213 0.172122 0.680996
Si Si4 0.946619 0.670333 0.818203
Si Si5 0.722457 0.500000 0.825359
Si Si6 0.116513 0.177292 0.184210
O O1 0.428984 0.084094 0.753121
O O2 0.500000 0.000000 0.684955
O O3 0.430974 0.000000 0.500000
O O4 0.666252 0.500000 0.176575
O O5 0.597128 0.588699 0.238372
O O6 0.594698 0.500000 0.000000
O O7 0.214909 0.165852 0.500000
O O8 0.250000 0.250000 0.719361
O O9 0.167660 0.186252 0.750713
O O10 0.236303 0.084992 0.745531
O O11 0.915672 0.747211 0.771898
O O12 0.000000 0.681655 0.771405
O O13 0.945975 0.665491 0.000000
O O14 0.736852 0.500000 0.000000
O O15 0.119403 0.174362 0.000000
#
# Coordination Sequence:
#
# PCOD9488578 Si02
#       6
#     8   8  16  16   8  16
#     4   9  17  29  46  67  90 121 161 199 238 287
#     4   7  12  25  44  66  90 116 149 185 218 261
#     4  10  20  33  50  73 100 128 159 198 243 287
#     4   9  17  30  48  70  96 125 158 197 238 280
#     4   9  17  31  52  73  94 125 164 200 234 283
#     4   9  17  30  49  71  95 126 162 195 231 280
#
# _framework density 17.199949
#
# number of rings (size 3 to 8) (size 9 to 14) (size 15 to 20)
#    0.000    3.000    0.000    2.667    0.000    4.000 
#    0.000    1.667    0.000    3.333    0.000    0.000 
#    0.000    8.889    0.000    0.000    0.000    0.000 
#
# Total GULP energy -200453.400087 kJ/mol
# GULP energy per Si atom -5568.150002 kJ/mol
# Density = 1.716080 g / cm^3
# Si number density = 17.199949 Si / 1000 Ang^3
#
#
#
# Elastic Constant Matrix: (Units=GPa)
#
#
# Indices 1 2 3 4 5 6 
#
# 1 42.4956 71.3679 20.7757 0.0000 0.0000 0.0000
# 2 71.3679 227.8750 53.6241 0.0000 0.0000 0.0000
# 3 20.7757 53.6241 32.8015 0.0000 0.0000 0.0000
# 4 0.0000 0.0000 0.0000 21.4669 0.0000 0.0000
# 5 0.0000 0.0000 0.0000 0.0000 14.6156 0.0000
# 6 0.0000 0.0000 0.0000 0.0000 0.0000 32.6256
#
#
#
# Elastic Compliance Matrix: (Units=1/GPa)
#
#
# Indices 1 2 3 4 5 6 
#
# 1 0.051657 -0.013780 -0.010190 0.000000 0.000000 0.000000
# 2 -0.013780 0.010808 -0.008941 0.000000 0.000000 0.000000
# 3 -0.010190 -0.008941 0.051558 0.000000 0.000000 0.000000
# 4 0.000000 0.000000 0.000000 0.046583 0.000000 0.000000
# 5 0.000000 0.000000 0.000000 0.000000 0.068420 0.000000
# 6 0.000000 0.000000 0.000000 0.000000 0.000000 0.030651
#
#
# Mechanical properties :
#
#
# Convention : Reuss Voigt Hill
#
# Bulk Modulus (GPa) = 20.74711 66.07861 43.41286
# Shear Modulus (GPa) = 14.63843 24.23524 19.43684
#
# Velocity S-wave (km/s) = 2.92048 3.75778 3.36527
# Velocity P-wave (km/s) = 4.84363 7.57160 6.35570
#
# Compressibility (1/GPa) = 0.04819947
#
# Stress axis : x y z
#
# Youngs Moduli (GPa) = 19.35858 92.52132 19.39572
#
# Poissons Ratio (x) = 1.27498 0.19764
# Poissons Ratio (y) = 0.26677 0.17342
# Poissons Ratio (z) = 0.19726 0.82726
#
# Static dielectric constant tensor:
#      x y z
#    x 1.560250 0.000000 0.000000 
#    y 0.000000 1.611430 0.000000 
#    z 0.000000 0.000000 1.578480 
# 
# From -- ./inp_files/18067.got.cif
#   From: 2010.05.17/outbox.cif.g08.bks.cpg/sg65_10_cif.got.tgz:18067.got - 2010.06.03 17:01:31.
