data_PCOD9488786
_publ_section_title
;
Structure prediction by ZEFSAII (Michael W. Deem and Ramdas Pophale) SiO2 
 PCOD9488786
Probable space group: C M M M
;
_chemical_formula_sum "Si O2"
_cell_formula_units_Z 88
_cell_length_a 15.684474
_cell_length_b 29.551470
_cell_length_c 8.944139
_cell_angle_alpha 90.000000
_cell_angle_beta 90.000000
_cell_angle_gamma 90.000000
_cell_volume 4145.601834
_symmetry_space_group_name_H-M "C M M M"
_symmetry_group_IT_number 65
_symmetry_cell_setting 'orthorhombic'
loop_
_space_group_symop_operation_xyz
x,y,z
-x,-y,z
x,-y,-z
-x,y,-z
-x,-y,-z
x,y,-z
-x,y,z
x,-y,z
1/2+x,1/2+y,z
1/2-x,1/2-y,z
1/2+x,1/2-y,-z
1/2-x,1/2+y,-z
1/2-x,1/2-y,-z
1/2+x,1/2+y,-z
1/2-x,1/2+y,z
1/2+x,1/2-y,z
loop_
_atom_site_type_symbol
_atom_site_label
_atom_site_fract_x
_atom_site_fract_y
_atom_site_fract_z
Si Si1 0.104435 0.950229 0.172527
Si Si2 0.399605 0.000000 0.818472
Si Si3 0.850603 0.780091 0.176495
Si Si4 0.396432 0.099989 0.823746
Si Si5 0.330900 0.808116 0.321380
Si Si6 0.401941 0.635519 0.336371
O O1 0.140200 0.909091 0.268525
O O2 0.000000 0.949608 0.171452
O O3 0.130082 0.000000 0.226292
O O4 0.130644 0.945092 0.000000
O O5 0.365931 0.049695 0.772655
O O6 0.500000 0.000000 0.777656
O O7 0.395754 0.000000 0.000000
O O8 0.759968 0.796131 0.246270
O O9 0.883766 0.734736 0.257074
O O10 0.903365 0.823922 0.219937
O O11 0.844655 0.772816 0.000000
O O12 0.500000 0.100209 0.813680
O O13 0.361430 0.143008 0.734079
O O14 0.374745 0.105411 0.000000
O O15 0.327852 0.805929 0.500000
O O16 0.367059 0.648665 0.500000
O O17 0.500000 0.622946 0.356914
#
# Coordination Sequence:
#
# PCOD9488786 Si02
#       6
#    16   8  16  16  16  16
#     4   8  14  26  45  69  97 130 168 206 245 296
#     4   7  12  26  51  81 111 143 178 217 258 303
#     4  11  22  38  58  76  99 136 182 224 264 318
#     4   9  17  32  56  85 114 145 183 222 261 311
#     4  11  22  37  56  78 107 140 174 216 268 324
#     4  10  20  33  51  77 107 136 168 213 269 318
#
# _framework density 21.227315999999998
#
# number of rings (size 3 to 8) (size 9 to 14) (size 15 to 20)
#    0.000    2.455    0.000    6.545    0.000    2.545 
#    0.000    2.273    2.000    1.636    0.000    0.000 
#    0.000    0.000    0.000    0.000    0.000    0.000 
#
# Total GULP energy -245191.749227 kJ/mol
# GULP energy per Si atom -5572.539755 kJ/mol
# Density = 2.117900 g / cm^3
# Si number density = 21.227316 Si / 1000 Ang^3
#
#
#
# Elastic Constant Matrix: (Units=GPa)
#
#
# Indices 1 2 3 4 5 6 
#
# 1 13.9913 21.2078 15.0786 0.0000 0.0000 0.0000
# 2 21.2078 209.5630 91.1921 0.0000 0.0000 0.0000
# 3 15.0786 91.1921 143.4382 0.0000 0.0000 0.0000
# 4 0.0000 0.0000 0.0000 1.8705 0.0000 0.0000
# 5 0.0000 0.0000 0.0000 0.0000 11.3723 0.0000
# 6 0.0000 0.0000 0.0000 0.0000 0.0000 31.3546
#
#
#
# Elastic Compliance Matrix: (Units=1/GPa)
#
#
# Indices 1 2 3 4 5 6 
#
# 1 0.086841 -0.006658 -0.004896 0.000000 0.000000 0.000000
# 2 -0.006658 0.007107 -0.003819 0.000000 0.000000 0.000000
# 3 -0.004896 -0.003819 0.009914 0.000000 0.000000 0.000000
# 4 0.000000 0.000000 0.000000 0.534615 0.000000 0.000000
# 5 0.000000 0.000000 0.000000 0.000000 0.087933 0.000000
# 6 0.000000 0.000000 0.000000 0.000000 0.000000 0.031893
#
#
# Mechanical properties :
#
#
# Convention : Reuss Voigt Hill
#
# Bulk Modulus (GPa) = 13.67665 69.10554 41.39109
# Shear Modulus (GPa) = 6.14687 24.88708 15.51698
#
# Velocity S-wave (km/s) = 1.70353 3.42776 2.70662
# Velocity P-wave (km/s) = 3.21346 6.94922 5.41378
#
# Compressibility (1/GPa) = 0.07311734
#
# Stress axis : x y z
#
# Youngs Moduli (GPa) = 11.51526 140.70047 100.86648
#
# Poissons Ratio (x) = 0.93674 0.49387
# Poissons Ratio (y) = 0.07667 0.38517
# Poissons Ratio (z) = 0.05638 0.53729
#
# Static dielectric constant tensor:
#      x y z
#    x 1.917560 0.000000 0.000000 
#    y 0.000000 1.849190 0.000000 
#    z 0.000000 0.000000 1.768710 
# 
# From -- ./inp_files/10109.got.cif
#   From: 2010.05.17/outbox.cif.g08.bks.cpg/sg65_6_cif.got.tgz:10109.got - 2010.06.03 17:01:31.
