data_PCOD9488684
_publ_section_title
;
Structure prediction by ZEFSAII (Michael W. Deem and Ramdas Pophale) SiO2 
 PCOD9488684
Probable space group: C M M M
;
_chemical_formula_sum "Si O2"
_cell_formula_units_Z 128
_cell_length_a 20.240687
_cell_length_b 16.070253
_cell_length_c 22.009872
_cell_angle_alpha 90.000000
_cell_angle_beta 90.000000
_cell_angle_gamma 90.000000
_cell_volume 7159.216236
_symmetry_space_group_name_H-M "C M M M"
_symmetry_group_IT_number 65
_symmetry_cell_setting 'orthorhombic'
loop_
_space_group_symop_operation_xyz
x,y,z
-x,-y,z
x,-y,-z
-x,y,-z
-x,-y,-z
x,y,-z
-x,y,z
x,-y,z
1/2+x,1/2+y,z
1/2-x,1/2-y,z
1/2+x,1/2-y,-z
1/2-x,1/2+y,-z
1/2-x,1/2-y,-z
1/2+x,1/2+y,-z
1/2-x,1/2+y,z
1/2+x,1/2-y,z
loop_
_atom_site_type_symbol
_atom_site_label
_atom_site_fract_x
_atom_site_fract_y
_atom_site_fract_z
Si Si1 0.107253 0.407203 0.698181
Si Si2 0.079662 0.147218 0.567721
Si Si3 0.576000 0.903465 0.073183
Si Si4 0.579276 0.843445 0.433787
Si Si5 0.813798 0.291286 0.862088
Si Si6 0.254873 0.092282 0.759347
Si Si7 0.572078 0.255522 0.775939
Si Si8 0.385125 0.406184 0.697432
O O1 0.081745 0.500000 0.713955
O O2 0.098950 0.390316 0.627025
O O3 0.184478 0.406334 0.713113
O O4 0.078455 0.331650 0.738702
O O5 0.098506 0.118196 0.500000
O O6 0.096017 0.245546 0.571982
O O7 0.110966 0.102295 0.625030
O O8 0.000000 0.139355 0.572512
O O9 0.500000 0.880183 0.090921
O O10 0.635558 0.848496 0.099709
O O11 0.585182 0.000000 0.091896
O O12 0.578186 0.899886 0.000000
O O13 0.603982 0.873345 0.500000
O O14 0.500000 0.847684 0.435670
O O15 0.750000 0.250000 0.895503
O O16 0.774692 0.344569 0.811585
O O17 0.866996 0.237063 0.823062
O O18 0.188427 0.107401 0.722697
O O19 0.250336 0.000000 0.786780
O O20 0.500000 0.257402 0.805869
O O21 0.575221 0.331147 0.728201
O O22 0.406574 0.500000 0.714397
#
# Coordination Sequence:
#
# PCOD9488684 Si02
#       8
#    16  16  16  16  16  16  16  16
#     4  10  20  33  51  72  99 132 168 213 271 333
#     4   9  18  33  51  71  95 125 167 227 290 342
#     4   9  19  37  61  89 122 159 198 240 282 326
#     4   9  17  30  47  66  92 123 157 204 263 328
#     4  11  20  34  56  84 115 156 186 226 277 329
#     4   9  20  36  51  73 103 140 181 219 262 324
#     4  11  22  35  52  79 110 140 182 231 275 328
#     4  11  21  35  54  73  99 138 179 225 282 338
#
# _framework density 17.879052000000001
#
# number of rings (size 3 to 8) (size 9 to 14) (size 15 to 20)
#    0.000    2.125    2.500    2.625    0.000    3.250 
#    0.000    1.875    0.000    3.750    0.000    0.000 
#    0.000    0.000    0.000    8.250    0.000    0.000 
#
# Total GULP energy -356504.154733 kJ/mol
# GULP energy per Si atom -5570.377418 kJ/mol
# Density = 1.783836 g / cm^3
# Si number density = 17.879052 Si / 1000 Ang^3
#
#
#
# Elastic Constant Matrix: (Units=GPa)
#
#
# Indices 1 2 3 4 5 6 
#
# 1 104.6128 45.2825 23.0036 0.0000 0.0000 0.0000
# 2 45.2825 76.5469 24.7711 0.0000 0.0000 0.0000
# 3 23.0036 24.7711 41.2450 0.0000 0.0000 0.0000
# 4 0.0000 0.0000 0.0000 23.4095 0.0000 0.0000
# 5 0.0000 0.0000 0.0000 0.0000 19.0670 0.0000
# 6 0.0000 0.0000 0.0000 0.0000 0.0000 -9.0813
#
#
#
# Elastic Compliance Matrix: (Units=1/GPa)
#
#
# Indices 1 2 3 4 5 6 
#
# 1 0.013205 -0.006738 -0.003318 0.000000 0.000000 0.000000
# 2 -0.006738 0.019653 -0.008046 0.000000 0.000000 0.000000
# 3 -0.003318 -0.008046 0.030928 0.000000 0.000000 0.000000
# 4 0.000000 0.000000 0.000000 0.042718 0.000000 0.000000
# 5 0.000000 0.000000 0.000000 0.000000 0.052447 0.000000
# 6 0.000000 0.000000 0.000000 0.000000 0.000000 -0.110116
#
#
# Mechanical properties :
#
#
# Convention : Reuss Voigt Hill
#
# Bulk Modulus (GPa) = 36.25397 45.39101 40.82249
# Shear Modulus (GPa) = 53.05996 15.30221 34.18109
#
# Velocity S-wave (km/s) = 5.45359 2.92871 4.37715
# Velocity P-wave (km/s) = 7.74447 6.07284 6.95903
#
# Compressibility (1/GPa) = 0.02758319
#
# Stress axis : x y z
#
# Youngs Moduli (GPa) = 75.72709 50.88171 32.33306
#
# Poissons Ratio (x) = 0.34284 0.10729
# Poissons Ratio (y) = 0.51025 0.26014
# Poissons Ratio (z) = 0.25128 0.40937
#
# Static dielectric constant tensor:
#      x y z
#    x 1.620700 0.000000 0.000000 
#    y 0.000000 1.667710 0.000000 
#    z 0.000000 0.000000 1.574850 
# 
# From -- ./inp_files/64859.got.cif
#   From: 2010.05.17/outbox.cif.g08.bks.cpg/sg65_33_cif.got.tgz:64859.got - 2010.06.03 17:01:31.
