data_PCOD9488257
_publ_section_title
;
Structure prediction by ZEFSAII (Michael W. Deem and Ramdas Pophale) SiO2 
 PCOD9488257
Probable space group: C M M M
;
_chemical_formula_sum "Si O2"
_cell_formula_units_Z 80
_cell_length_a 14.555585
_cell_length_b 18.658498
_cell_length_c 15.350860
_cell_angle_alpha 90.000000
_cell_angle_beta 90.000000
_cell_angle_gamma 90.000000
_cell_volume 4169.068741
_symmetry_space_group_name_H-M "C M M M"
_symmetry_group_IT_number 65
_symmetry_cell_setting 'orthorhombic'
loop_
_space_group_symop_operation_xyz
x,y,z
-x,-y,z
x,-y,-z
-x,y,-z
-x,-y,-z
x,y,-z
-x,y,z
x,-y,z
1/2+x,1/2+y,z
1/2-x,1/2-y,z
1/2+x,1/2-y,-z
1/2-x,1/2+y,-z
1/2-x,1/2-y,-z
1/2+x,1/2+y,-z
1/2-x,1/2+y,z
1/2+x,1/2-y,z
loop_
_atom_site_type_symbol
_atom_site_label
_atom_site_fract_x
_atom_site_fract_y
_atom_site_fract_z
Si Si1 0.390874 0.864030 0.401425
Si Si2 0.241690 0.871883 0.905578
Si Si3 0.394014 0.286420 0.669106
Si Si4 0.393701 0.243950 0.129799
Si Si5 0.731277 0.579363 0.709958
O O1 0.372350 0.888321 0.500000
O O2 0.500000 0.870154 0.384516
O O3 0.367647 0.779244 0.393033
O O4 0.330752 0.906749 0.332121
O O5 0.333779 0.823706 0.898820
O O6 0.157917 0.814738 0.903759
O O7 0.234586 0.914095 0.815027
O O8 0.240529 0.908982 0.000000
O O9 0.500000 0.306081 0.652504
O O10 0.388349 0.251306 0.765518
O O11 0.331582 0.356568 0.672537
O O12 0.500000 0.240253 0.104779
O O13 0.698179 0.500000 0.686703
#
# Coordination Sequence:
#
# PCOD9488257 Si02
#       5
#    16  16  16  16  16
#     4  10  21  39  64  88 108 138 182 229 277 329
#     4  10  20  32  49  77 109 144 188 228 268 322
#     4   9  18  35  59  84 110 141 182 229 274 324
#     4   9  16  30  53  79 107 137 176 233 284 315
#     4  11  23  37  54  80 117 154 184 222 273 328
#
# _framework density 19.188938
#
# number of rings (size 3 to 8) (size 9 to 14) (size 15 to 20)
#    0.000    2.200    2.000    1.800    0.000    4.800 
#    0.000    1.000    0.000    0.000    0.000   12.600 
#    0.000    0.000    0.000    0.000    0.000    0.000 
#
# Total GULP energy -223153.399955 kJ/mol
# GULP energy per Si atom -5578.834999 kJ/mol
# Density = 1.914526 g / cm^3
# Si number density = 19.188938 Si / 1000 Ang^3
#
#
#
# Elastic Constant Matrix: (Units=GPa)
#
#
# Indices 1 2 3 4 5 6 
#
# 1 77.9609 5.6970 -0.2265 0.0000 0.0000 0.0000
# 2 5.6970 39.2002 -7.2481 0.0000 0.0000 0.0000
# 3 -0.2265 -7.2481 52.3773 0.0000 0.0000 0.0000
# 4 0.0000 0.0000 0.0000 -7.1562 0.0000 0.0000
# 5 0.0000 0.0000 0.0000 0.0000 12.2148 0.0000
# 6 0.0000 0.0000 0.0000 0.0000 0.0000 5.0617
#
#
#
# Elastic Compliance Matrix: (Units=1/GPa)
#
#
# Indices 1 2 3 4 5 6 
#
# 1 0.012967 -0.001923 -0.000210 0.000000 0.000000 0.000000
# 2 -0.001923 0.026465 0.003654 0.000000 0.000000 0.000000
# 3 -0.000210 0.003654 0.019597 0.000000 0.000000 0.000000
# 4 0.000000 0.000000 0.000000 -0.139740 0.000000 0.000000
# 5 0.000000 0.000000 0.000000 0.000000 0.081868 0.000000
# 6 0.000000 0.000000 0.000000 0.000000 0.000000 0.197562
#
#
# Mechanical properties :
#
#
# Convention : Reuss Voigt Hill
#
# Bulk Modulus (GPa) = 16.11078 18.44258 17.27668
# Shear Modulus (GPa) = 23.10868 13.44511 18.27690
#
# Velocity S-wave (km/s) = 3.47403 2.64989 3.08956
# Velocity P-wave (km/s) = 4.95034 4.35826 4.66371
#
# Compressibility (1/GPa) = 0.06207023
#
# Stress axis : x y z
#
# Youngs Moduli (GPa) = 77.11950 37.78541 51.02827
#
# Poissons Ratio (x) = 0.07267 0.01072
# Poissons Ratio (y) = 0.14833 -0.18646
# Poissons Ratio (z) = 0.01620 -0.13807
#
# Static dielectric constant tensor:
#      x y z
#    x 1.661470 0.000000 0.000000 
#    y 0.000000 1.640280 0.000000 
#    z 0.000000 0.000000 1.709270 
# 
# From -- ./inp_files/40006.got.cif
#   From: 2010.05.17/outbox.cif.g08.bks.cpg/sg65_21_cif.got.tgz:40006.got - 2010.06.03 17:01:31.
