data_PCOD9488235
_publ_section_title
;
Structure prediction by ZEFSAII (Michael W. Deem and Ramdas Pophale) SiO2 
 PCOD9488235
Probable space group: C M M M
;
_chemical_formula_sum "Si O2"
_cell_formula_units_Z 104
_cell_length_a 9.059252
_cell_length_b 27.694277
_cell_length_c 24.112724
_cell_angle_alpha 90.000000
_cell_angle_beta 90.000000
_cell_angle_gamma 90.000000
_cell_volume 6049.627684
_symmetry_space_group_name_H-M "C M M M"
_symmetry_group_IT_number 65
_symmetry_cell_setting 'orthorhombic'
loop_
_space_group_symop_operation_xyz
x,y,z
-x,-y,z
x,-y,-z
-x,y,-z
-x,-y,-z
x,y,-z
-x,y,z
x,-y,z
1/2+x,1/2+y,z
1/2-x,1/2-y,z
1/2+x,1/2-y,-z
1/2-x,1/2+y,-z
1/2-x,1/2-y,-z
1/2+x,1/2+y,-z
1/2-x,1/2+y,z
1/2+x,1/2-y,z
loop_
_atom_site_type_symbol
_atom_site_label
_atom_site_fract_x
_atom_site_fract_y
_atom_site_fract_z
Si Si1 0.322862 0.199793 0.735462
Si Si2 0.177463 0.055817 0.435868
Si Si3 0.325688 0.351454 0.163059
Si Si4 0.824696 0.395316 0.665585
Si Si5 0.667635 0.500000 0.932914
Si Si6 0.327385 0.553417 0.235919
Si Si7 0.174964 0.601145 0.065802
O O1 0.500000 0.203414 0.739019
O O2 0.250000 0.250000 0.718187
O O3 0.255850 0.184809 0.795204
O O4 0.285478 0.156587 0.692575
O O5 0.217057 0.065534 0.500000
O O6 0.249892 0.091832 0.392384
O O7 0.000000 0.058454 0.431482
O O8 0.219789 0.000000 0.423434
O O9 0.500000 0.340883 0.159649
O O10 0.306715 0.403845 0.192311
O O11 0.252138 0.358300 0.103275
O O12 0.768911 0.434169 0.710590
O O13 0.000000 0.397458 0.660251
O O14 0.500000 0.500000 0.910012
O O15 0.753428 0.549144 0.919614
O O16 0.656691 0.500000 0.000000
O O17 0.500000 0.554520 0.252371
O O18 0.293905 0.500000 0.213996
O O19 0.000000 0.599784 0.076510
O O20 0.197771 0.608860 0.000000
#
# Coordination Sequence:
#
# PCOD9488235 Si02
#       7
#    16  16  16  16   8  16  16
#     4  10  21  38  58  79 103 129 165 212 265 319
#     4   9  18  32  50  74 107 148 187 216 244 287
#     4  10  20  33  52  76 101 131 169 210 255 306
#     4  10  20  32  49  76 105 132 167 213 259 303
#     4   9  17  29  45  65  91 129 175 213 244 289
#     4   9  18  31  46  67  98 135 170 205 245 295
#     4  10  20  33  48  69 100 136 172 211 256 304
#
# _framework density 17.191140000000001
#
# number of rings (size 3 to 8) (size 9 to 14) (size 15 to 20)
#    0.000    2.385    0.000    3.000    1.077    7.077 
#    0.000    0.769    0.000    0.923    0.000    0.000 
#    0.000    0.000    0.000    0.000    0.000    0.000 
#
# Total GULP energy -290131.751991 kJ/mol
# GULP energy per Si atom -5579.456769 kJ/mol
# Density = 1.715201 g / cm^3
# Si number density = 17.191140 Si / 1000 Ang^3
#
#
#
# Elastic Constant Matrix: (Units=GPa)
#
#
# Indices 1 2 3 4 5 6 
#
# 1 62.9541 30.2853 50.6756 0.0000 0.0000 0.0000
# 2 30.2853 62.5650 29.2715 0.0000 0.0000 0.0000
# 3 50.6756 29.2715 87.9271 0.0000 0.0000 0.0000
# 4 0.0000 0.0000 0.0000 15.9238 0.0000 0.0000
# 5 0.0000 0.0000 0.0000 0.0000 25.6415 0.0000
# 6 0.0000 0.0000 0.0000 0.0000 0.0000 25.7449
#
#
#
# Elastic Compliance Matrix: (Units=1/GPa)
#
#
# Indices 1 2 3 4 5 6 
#
# 1 0.032959 -0.008371 -0.016209 0.000000 0.000000 0.000000
# 2 -0.008371 0.021058 -0.002186 0.000000 0.000000 0.000000
# 3 -0.016209 -0.002186 0.021442 0.000000 0.000000 0.000000
# 4 0.000000 0.000000 0.000000 0.062799 0.000000 0.000000
# 5 0.000000 0.000000 0.000000 0.000000 0.038999 0.000000
# 6 0.000000 0.000000 0.000000 0.000000 0.000000 0.038843
#
#
# Mechanical properties :
#
#
# Convention : Reuss Voigt Hill
#
# Bulk Modulus (GPa) = 45.60280 48.21232 46.90756
# Shear Modulus (GPa) = 18.05439 20.34296 19.19867
#
# Velocity S-wave (km/s) = 3.24422 3.44370 3.34545
# Velocity P-wave (km/s) = 6.37321 6.62706 6.50137
#
# Compressibility (1/GPa) = 0.02192848
#
# Stress axis : x y z
#
# Youngs Moduli (GPa) = 30.34082 47.48776 46.63641
#
# Poissons Ratio (x) = 0.39751 0.75592
# Poissons Ratio (y) = 0.25398 0.10195
# Poissons Ratio (z) = 0.49179 0.10381
#
# Static dielectric constant tensor:
#      x y z
#    x 1.573360 0.000000 0.000000 
#    y 0.000000 1.580250 0.000000 
#    z 0.000000 0.000000 1.592690 
# 
# From -- ./inp_files/68224.got.cif
#   From: 2010.05.17/outbox.cif.g08.bks.cpg/sg65_35_cif.got.tgz:68224.got - 2010.06.03 17:01:31.
