data_PCOD9488911
_publ_section_title
;
Structure prediction by ZEFSAII (Michael W. Deem and Ramdas Pophale) SiO2 
 PCOD9488911
Probable space group: C M M M
;
_chemical_formula_sum "Si O2"
_cell_formula_units_Z 80
_cell_length_a 16.926464
_cell_length_b 19.738671
_cell_length_c 13.714266
_cell_angle_alpha 90.000000
_cell_angle_beta 90.000000
_cell_angle_gamma 90.000000
_cell_volume 4582.017241
_symmetry_space_group_name_H-M "C M M M"
_symmetry_group_IT_number 65
_symmetry_cell_setting 'orthorhombic'
loop_
_space_group_symop_operation_xyz
x,y,z
-x,-y,z
x,-y,-z
-x,y,-z
-x,-y,-z
x,y,-z
-x,y,z
x,-y,z
1/2+x,1/2+y,z
1/2-x,1/2-y,z
1/2+x,1/2-y,-z
1/2-x,1/2+y,-z
1/2-x,1/2-y,-z
1/2+x,1/2+y,-z
1/2-x,1/2+y,z
1/2+x,1/2-y,z
loop_
_atom_site_type_symbol
_atom_site_label
_atom_site_fract_x
_atom_site_fract_y
_atom_site_fract_z
Si Si1 0.592320 0.183952 0.614683
Si Si2 0.500000 0.081916 0.109127
Si Si3 0.595467 0.342014 0.386819
Si Si4 0.167035 0.920192 0.202911
Si Si5 0.592606 0.418048 0.000000
Si Si6 0.348893 0.079287 0.761905
O O1 0.598118 0.171525 0.500000
O O2 0.500000 0.175412 0.642488
O O3 0.613553 0.262512 0.630431
O O4 0.643598 0.130115 0.672160
O O5 0.580362 0.099357 0.165315
O O6 0.500000 0.000000 0.103800
O O7 0.500000 0.109519 0.000000
O O8 0.617762 0.358589 0.500000
O O9 0.500000 0.349765 0.381016
O O10 0.636040 0.384297 0.300954
O O11 0.261596 0.914835 0.194795
O O12 0.146878 0.000000 0.211567
O O13 0.129564 0.893500 0.102012
O O14 0.603613 0.500000 0.000000
O O15 0.500000 0.403670 0.000000
O O16 0.360922 0.000000 0.734614
#
# Coordination Sequence:
#
# PCOD9488911 Si02
#       6
#    16   8  16  16   8  16
#     4   9  18  34  55  76 103 140 178 216 258 311
#     4   9  18  32  53  75 101 141 179 210 258 314
#     4   9  19  36  57  78 103 140 179 216 264 316
#     4  10  21  34  53  81 111 137 171 220 263 309
#     4   9  18  34  56  78 103 141 178 210 262 316
#     4  10  20  33  52  80 108 137 174 217 260 308
#
# _framework density 17.459558999999999
#
# number of rings (size 3 to 8) (size 9 to 14) (size 15 to 20)
#    0.000    2.600    1.000    1.800    1.400    3.600 
#    0.000    6.000    2.200    1.200    0.000    0.000 
#    0.000    0.000    0.000    0.000    0.000    0.000 
#
# Total GULP energy -222888.008312 kJ/mol
# GULP energy per Si atom -5572.200208 kJ/mol
# Density = 1.741982 g / cm^3
# Si number density = 17.459559 Si / 1000 Ang^3
#
#
#
# Elastic Constant Matrix: (Units=GPa)
#
#
# Indices 1 2 3 4 5 6 
#
# 1 58.0539 35.4232 61.0675 0.0000 0.0000 0.0000
# 2 35.4232 41.1696 60.1951 0.0000 0.0000 0.0000
# 3 61.0675 60.1951 132.6198 0.0000 0.0000 0.0000
# 4 0.0000 0.0000 0.0000 -35.5364 0.0000 0.0000
# 5 0.0000 0.0000 0.0000 0.0000 22.8624 0.0000
# 6 0.0000 0.0000 0.0000 0.0000 0.0000 19.2360
#
#
#
# Elastic Compliance Matrix: (Units=1/GPa)
#
#
# Indices 1 2 3 4 5 6 
#
# 1 0.038991 -0.021696 -0.008107 0.000000 0.000000 0.000000
# 2 -0.021696 0.084287 -0.028267 0.000000 0.000000 0.000000
# 3 -0.008107 -0.028267 0.024103 0.000000 0.000000 0.000000
# 4 0.000000 0.000000 0.000000 -0.028140 0.000000 0.000000
# 5 0.000000 0.000000 0.000000 0.000000 0.043740 0.000000
# 6 0.000000 0.000000 0.000000 0.000000 0.000000 0.051986
#
#
# Mechanical properties :
#
#
# Convention : Reuss Voigt Hill
#
# Bulk Modulus (GPa) = 32.00744 60.57946 46.29345
# Shear Modulus (GPa) = 14.64040 6.32291 10.48165
#
# Velocity S-wave (km/s) = 2.89888 1.90508 2.45284
# Velocity P-wave (km/s) = 5.43846 6.29376 5.88168
#
# Compressibility (1/GPa) = 0.03124274
#
# Stress axis : x y z
#
# Youngs Moduli (GPa) = 25.64683 11.86421 41.48778
#
# Poissons Ratio (x) = 0.25740 0.33633
# Poissons Ratio (y) = 0.55643 1.17274
# Poissons Ratio (z) = 0.20791 0.33537
#
# Static dielectric constant tensor:
#      x y z
#    x 1.602330 0.000000 0.000000 
#    y 0.000000 1.581900 0.000000 
#    z 0.000000 0.000000 1.591380 
# 
# From -- ./inp_files/26712.got.cif
#   From: 2010.05.17/outbox.cif.g08.bks.cpg/sg65_14_cif.got.tgz:26712.got - 2010.06.03 17:01:31.
