data_PCOD9488451
_publ_section_title
;
Structure prediction by ZEFSAII (Michael W. Deem and Ramdas Pophale) SiO2 
 PCOD9488451
Probable space group: C M M M
;
_chemical_formula_sum "Si O2"
_cell_formula_units_Z 104
_cell_length_a 7.471267
_cell_length_b 26.818552
_cell_length_c 23.170020
_cell_angle_alpha 90.000000
_cell_angle_beta 90.000000
_cell_angle_gamma 90.000000
_cell_volume 4642.543602
_symmetry_space_group_name_H-M "C M M M"
_symmetry_group_IT_number 65
_symmetry_cell_setting 'orthorhombic'
loop_
_space_group_symop_operation_xyz
x,y,z
-x,-y,z
x,-y,-z
-x,y,-z
-x,-y,-z
x,y,-z
-x,y,z
x,-y,z
1/2+x,1/2+y,z
1/2-x,1/2-y,z
1/2+x,1/2-y,-z
1/2-x,1/2+y,-z
1/2-x,1/2-y,-z
1/2+x,1/2+y,-z
1/2-x,1/2+y,z
1/2+x,1/2-y,z
loop_
_atom_site_type_symbol
_atom_site_label
_atom_site_fract_x
_atom_site_fract_y
_atom_site_fract_z
Si Si1 0.212444 0.500000 0.934066
Si Si2 0.288063 0.391559 0.065570
Si Si3 0.217977 0.945894 0.311761
Si Si4 0.718582 0.337593 0.273415
Si Si5 0.714237 0.694159 0.148875
Si Si6 0.713335 0.695110 0.398110
Si Si7 0.718478 0.412304 0.437765
O O1 0.266142 0.553047 0.908337
O O2 0.000000 0.500000 0.937135
O O3 0.286808 0.500000 0.000000
O O4 0.500000 0.383226 0.060662
O O5 0.214725 0.348191 0.106030
O O6 0.214009 0.391336 0.000000
O O7 0.272445 0.895728 0.278740
O O8 0.273271 0.939113 0.378792
O O9 0.000000 0.945663 0.310986
O O10 0.277266 0.000000 0.289987
O O11 0.500000 0.336239 0.273858
O O12 0.782284 0.313590 0.214083
O O13 0.779531 0.310288 0.331929
O O14 0.500000 0.687886 0.151771
O O15 0.750000 0.750000 0.128533
O O16 0.500000 0.690338 0.396266
O O17 0.750000 0.750000 0.421606
O O18 0.774947 0.645726 0.431335
O O19 0.777278 0.431973 0.500000
O O20 0.500000 0.413992 0.437638
#
# Coordination Sequence:
#
# PCOD9488451 Si02
#       7
#     8  16  16  16  16  16  16
#     4   9  17  31  53  77  99 127 163 199 234 277
#     4   9  18  33  51  72 100 131 162 198 241 286
#     4   8  13  22  37  57  82 111 141 178 221 266
#     4   8  15  28  42  60  86 113 146 186 226 271
#     4  10  20  33  49  70  96 127 162 198 239 285
#     4   9  16  26  41  58  80 110 142 177 217 257
#     4   8  14  23  34  52  80 110 137 169 214 264
#
# _framework density 22.401513999999999
#
# number of rings (size 3 to 8) (size 9 to 14) (size 15 to 20)
#    0.000    3.308    0.000    2.538    0.000    2.462 
#    1.385    1.538    0.000    0.000    0.000    0.000 
#    0.000    6.000    0.000    5.538    0.000    6.154 
#
# Total GULP energy -290051.551020 kJ/mol
# GULP energy per Si atom -5577.914443 kJ/mol
# Density = 2.235053 g / cm^3
# Si number density = 22.401514 Si / 1000 Ang^3
#
#
#
# Elastic Constant Matrix: (Units=GPa)
#
#
# Indices 1 2 3 4 5 6 
#
# 1 62.4425 -11.1881 3.0189 0.0000 0.0000 0.0000
# 2 -11.1881 135.5395 24.7965 0.0000 0.0000 0.0000
# 3 3.0189 24.7965 57.3497 0.0000 0.0000 0.0000
# 4 0.0000 0.0000 0.0000 3.8434 0.0000 0.0000
# 5 0.0000 0.0000 0.0000 0.0000 -10.9097 0.0000
# 6 0.0000 0.0000 0.0000 0.0000 0.0000 10.1030
#
#
#
# Elastic Compliance Matrix: (Units=1/GPa)
#
#
# Indices 1 2 3 4 5 6 
#
# 1 0.016385 0.001640 -0.001572 0.000000 0.000000 0.000000
# 2 0.001640 0.008176 -0.003621 0.000000 0.000000 0.000000
# 3 -0.001572 -0.003621 0.019085 0.000000 0.000000 0.000000
# 4 0.000000 0.000000 0.000000 0.260185 0.000000 0.000000
# 5 0.000000 0.000000 0.000000 0.000000 -0.091661 0.000000
# 6 0.000000 0.000000 0.000000 0.000000 0.000000 0.098981
#
#
# Mechanical properties :
#
#
# Convention : Reuss Voigt Hill
#
# Bulk Modulus (GPa) = 27.36736 32.06515 29.71625
# Shear Modulus (GPa) = 15.13153 16.52096 15.82624
#
# Velocity S-wave (km/s) = 2.60180 2.71863 2.66085
# Velocity P-wave (km/s) = 4.61184 4.91930 4.76805
#
# Compressibility (1/GPa) = 0.03653988
#
# Stress axis : x y z
#
# Youngs Moduli (GPa) = 61.03310 122.31212 52.39615
#
# Poissons Ratio (x) = -0.20059 0.08234
# Poissons Ratio (y) = -0.10009 0.18974
# Poissons Ratio (z) = 0.09592 0.44293
#
# Static dielectric constant tensor:
#      x y z
#    x 1.858810 0.000000 0.000000 
#    y 0.000000 1.827650 0.000000 
#    z 0.000000 0.000000 1.821190 
# 
# From -- ./inp_files/68173.got.cif
#   From: 2010.05.17/outbox.cif.g08.bks.cpg/sg65_35_cif.got.tgz:68173.got - 2010.06.03 17:01:31.
