data_PCOD9488651
_publ_section_title
;
Structure prediction by ZEFSAII (Michael W. Deem and Ramdas Pophale) SiO2 
 PCOD9488651
Probable space group: C M M M
;
_chemical_formula_sum "Si O2"
_cell_formula_units_Z 56
_cell_length_a 8.847991
_cell_length_b 29.466468
_cell_length_c 12.491895
_cell_angle_alpha 90.000000
_cell_angle_beta 90.000000
_cell_angle_gamma 90.000000
_cell_volume 3256.874918
_symmetry_space_group_name_H-M "C M M M"
_symmetry_group_IT_number 65
_symmetry_cell_setting 'orthorhombic'
loop_
_space_group_symop_operation_xyz
x,y,z
-x,-y,z
x,-y,-z
-x,y,-z
-x,-y,-z
x,y,-z
-x,y,z
x,-y,z
1/2+x,1/2+y,z
1/2-x,1/2-y,z
1/2+x,1/2-y,-z
1/2-x,1/2+y,-z
1/2-x,1/2-y,-z
1/2+x,1/2+y,-z
1/2-x,1/2+y,z
1/2+x,1/2-y,z
loop_
_atom_site_type_symbol
_atom_site_label
_atom_site_fract_x
_atom_site_fract_y
_atom_site_fract_z
Si Si1 0.318778 0.123831 0.333436
Si Si2 0.680477 0.595553 0.875803
Si Si3 0.819244 0.700431 0.500000
Si Si4 0.682164 0.553551 0.500000
Si Si5 0.829340 0.500000 0.128837
O O1 0.500000 0.118701 0.335307
O O2 0.258343 0.126321 0.213058
O O3 0.277052 0.169168 0.398606
O O4 0.246912 0.081323 0.398047
O O5 0.500000 0.597657 0.868306
O O6 0.738160 0.545188 0.845714
O O7 0.723005 0.604347 0.000000
O O8 0.750000 0.750000 0.500000
O O9 0.000000 0.704678 0.500000
O O10 0.723852 0.500000 0.500000
O O11 0.500000 0.556323 0.500000
O O12 0.000000 0.500000 0.173514
O O13 0.842087 0.500000 0.000000
#
# Coordination Sequence:
#
# PCOD9488651 Si02
#       5
#    16  16   8   8   8
#     4  10  21  36  54  79 108 138 177 218 265 321
#     4  10  20  33  50  74 106 143 183 224 262 306
#     4   9  20  38  60  84 105 130 167 216 271 325
#     4  10  21  35  51  73 104 142 180 219 264 310
#     4   9  17  29  45  66  95 138 185 221 256 297
#
# _framework density 17.194396999999999
#
# number of rings (size 3 to 8) (size 9 to 14) (size 15 to 20)
#    0.000    2.286    0.000    3.429    2.000    8.000 
#    0.000    0.000    0.000    0.857    0.000    0.000 
#    0.000    0.000    0.000    0.000    0.000    0.000 
#
# Total GULP energy -156174.340918 kJ/mol
# GULP energy per Si atom -5577.655033 kJ/mol
# Density = 1.715526 g / cm^3
# Si number density = 17.194397 Si / 1000 Ang^3
#
#
#
# Elastic Constant Matrix: (Units=GPa)
#
#
# Indices 1 2 3 4 5 6 
#
# 1 68.0777 44.1293 50.0140 0.0000 0.0000 0.0000
# 2 44.1293 125.5694 66.3094 0.0000 0.0000 0.0000
# 3 50.0140 66.3094 135.9587 0.0000 0.0000 0.0000
# 4 0.0000 0.0000 0.0000 7.8341 0.0000 0.0000
# 5 0.0000 0.0000 0.0000 0.0000 30.6426 0.0000
# 6 0.0000 0.0000 0.0000 0.0000 0.0000 28.1348
#
#
#
# Elastic Compliance Matrix: (Units=1/GPa)
#
#
# Indices 1 2 3 4 5 6 
#
# 1 0.021977 -0.004653 -0.005815 0.000000 0.000000 0.000000
# 2 -0.004653 0.011711 -0.004000 0.000000 0.000000 0.000000
# 3 -0.005815 -0.004000 0.011445 0.000000 0.000000 0.000000
# 4 0.000000 0.000000 0.000000 0.127647 0.000000 0.000000
# 5 0.000000 0.000000 0.000000 0.000000 0.032634 0.000000
# 6 0.000000 0.000000 0.000000 0.000000 0.000000 0.035543
#
#
# Mechanical properties :
#
#
# Convention : Reuss Voigt Hill
#
# Bulk Modulus (GPa) = 61.73830 72.27900 67.00865
# Shear Modulus (GPa) = 18.16235 24.59917 21.38076
#
# Velocity S-wave (km/s) = 3.25359 3.78650 3.53012
# Velocity P-wave (km/s) = 7.07803 7.82588 7.46133
#
# Compressibility (1/GPa) = 0.01619740
#
# Stress axis : x y z
#
# Youngs Moduli (GPa) = 45.50125 85.38829 87.37090
#
# Poissons Ratio (x) = 0.39728 0.50810
# Poissons Ratio (y) = 0.21170 0.34950
# Poissons Ratio (z) = 0.26461 0.34157
#
# Static dielectric constant tensor:
#      x y z
#    x 1.578530 0.000000 0.000000 
#    y 0.000000 1.565650 0.000000 
#    z 0.000000 0.000000 1.617900 
# 
# From -- ./inp_files/20524.got.cif
#   From: 2010.05.17/outbox.cif.g08.bks.cpg/sg65_11_cif.got.tgz:20524.got - 2010.06.03 17:01:31.
