data_PCOD9488254
_publ_section_title
;
Structure prediction by ZEFSAII (Michael W. Deem and Ramdas Pophale) SiO2 
 PCOD9488254
Probable space group: C M M M
;
_chemical_formula_sum "Si O2"
_cell_formula_units_Z 104
_cell_length_a 29.425115
_cell_length_b 14.447696
_cell_length_c 13.418072
_cell_angle_alpha 90.000000
_cell_angle_beta 90.000000
_cell_angle_gamma 90.000000
_cell_volume 5704.359419
_symmetry_space_group_name_H-M "C M M M"
_symmetry_group_IT_number 65
_symmetry_cell_setting 'orthorhombic'
loop_
_space_group_symop_operation_xyz
x,y,z
-x,-y,z
x,-y,-z
-x,y,-z
-x,-y,-z
x,y,-z
-x,y,z
x,-y,z
1/2+x,1/2+y,z
1/2-x,1/2-y,z
1/2+x,1/2-y,-z
1/2-x,1/2+y,-z
1/2-x,1/2-y,-z
1/2+x,1/2+y,-z
1/2-x,1/2+y,z
1/2+x,1/2-y,z
loop_
_atom_site_type_symbol
_atom_site_label
_atom_site_fract_x
_atom_site_fract_y
_atom_site_fract_z
Si Si1 0.946009 0.395215 0.500000
Si Si2 0.554816 0.109561 0.885135
Si Si3 0.096823 0.298404 0.690060
Si Si4 0.882108 0.104760 0.616332
Si Si5 0.195571 0.251579 0.108474
Si Si6 0.707814 0.606674 0.275947
Si Si7 0.312172 0.890580 0.731742
O O1 0.927296 0.500000 0.500000
O O2 0.930831 0.343617 0.400073
O O3 0.000000 0.400074 0.500000
O O4 0.500000 0.119741 0.876320
O O5 0.578798 0.166452 0.796989
O O6 0.565029 0.000000 0.871226
O O7 0.567076 0.134062 0.000000
O O8 0.095971 0.188002 0.677924
O O9 0.148437 0.335665 0.675521
O O10 0.892300 0.117352 0.500000
O O11 0.827700 0.111069 0.634297
O O12 0.895353 0.000000 0.645952
O O13 0.250000 0.250000 0.099073
O O14 0.187449 0.172222 0.189968
O O15 0.183779 0.350435 0.156061
O O16 0.175166 0.236021 0.000000
O O17 0.709658 0.500000 0.240564
O O18 0.760149 0.631963 0.299587
O O19 0.319170 0.000000 0.725344
#
# Coordination Sequence:
#
# PCOD9488254 Si02
#       7
#     8  16  16  16  16  16  16
#     4  11  24  40  59  86 119 151 178 214 279 355
#     4   9  19  37  61  88 118 152 186 220 269 341
#     4  12  21  36  59  86 115 147 185 235 283 331
#     4  10  21  39  59  79 107 147 194 237 280 332
#     4   9  17  29  46  68 100 142 184 225 272 321
#     4   9  18  35  53  71 104 148 191 232 275 322
#     4  10  20  32  49  76 113 147 184 230 274 324
#
# _framework density 18.231670000000001
#
# number of rings (size 3 to 8) (size 9 to 14) (size 15 to 20)
#    0.000    2.077    2.308    2.308    0.000    2.462 
#    1.385    3.846    0.000    2.769    0.000    1.077 
#    0.000    0.000    0.000    0.000    0.000    0.000 
#
# Total GULP energy -289770.950402 kJ/mol
# GULP energy per Si atom -5572.518277 kJ/mol
# Density = 1.819017 g / cm^3
# Si number density = 18.231670 Si / 1000 Ang^3
#
#
#
# Elastic Constant Matrix: (Units=GPa)
#
#
# Indices 1 2 3 4 5 6 
#
# 1 39.5962 33.0270 28.1660 0.0000 0.0000 0.0000
# 2 33.0270 131.8976 52.6833 0.0000 0.0000 0.0000
# 3 28.1660 52.6833 87.4104 0.0000 0.0000 0.0000
# 4 0.0000 0.0000 0.0000 4.4207 0.0000 0.0000
# 5 0.0000 0.0000 0.0000 0.0000 16.4133 0.0000
# 6 0.0000 0.0000 0.0000 0.0000 0.0000 20.6260
#
#
#
# Elastic Compliance Matrix: (Units=1/GPa)
#
#
# Indices 1 2 3 4 5 6 
#
# 1 0.035781 -0.005735 -0.008073 0.000000 0.000000 0.000000
# 2 -0.005735 0.010905 -0.004724 0.000000 0.000000 0.000000
# 3 -0.008073 -0.004724 0.016889 0.000000 0.000000 0.000000
# 4 0.000000 0.000000 0.000000 0.226210 0.000000 0.000000
# 5 0.000000 0.000000 0.000000 0.000000 0.060926 0.000000
# 6 0.000000 0.000000 0.000000 0.000000 0.000000 0.048483
#
#
# Mechanical properties :
#
#
# Convention : Reuss Voigt Hill
#
# Bulk Modulus (GPa) = 37.72167 54.07297 45.89732
# Shear Modulus (GPa) = 11.23354 17.96051 14.59702
#
# Velocity S-wave (km/s) = 2.48494 3.14208 2.83263
# Velocity P-wave (km/s) = 5.38223 6.54880 5.99396
#
# Compressibility (1/GPa) = 0.02650996
#
# Stress axis : x y z
#
# Youngs Moduli (GPa) = 27.94770 91.70330 59.20957
#
# Poissons Ratio (x) = 0.52591 0.47801
# Poissons Ratio (y) = 0.16028 0.27973
# Poissons Ratio (z) = 0.22563 0.43325
#
# Static dielectric constant tensor:
#      x y z
#    x 1.681870 0.000000 0.000000 
#    y 0.000000 1.644410 0.000000 
#    z 0.000000 0.000000 1.628120 
# 
# From -- ./inp_files/33963.got.cif
#   From: 2010.05.17/outbox.cif.g08.bks.cpg/sg65_17_cif.got.tgz:33963.got - 2010.06.03 17:01:31.
