data_PCOD9488520
_publ_section_title
;
Structure prediction by ZEFSAII (Michael W. Deem and Ramdas Pophale) SiO2 
 PCOD9488520
Probable space group: C M M M
;
_chemical_formula_sum "Si O2"
_cell_formula_units_Z 80
_cell_length_a 21.451094
_cell_length_b 7.378103
_cell_length_c 24.265237
_cell_angle_alpha 90.000000
_cell_angle_beta 90.000000
_cell_angle_gamma 90.000000
_cell_volume 3840.419774
_symmetry_space_group_name_H-M "C M M M"
_symmetry_group_IT_number 65
_symmetry_cell_setting 'orthorhombic'
loop_
_space_group_symop_operation_xyz
x,y,z
-x,-y,z
x,-y,-z
-x,y,-z
-x,-y,-z
x,y,-z
-x,y,z
x,-y,z
1/2+x,1/2+y,z
1/2-x,1/2-y,z
1/2+x,1/2-y,-z
1/2-x,1/2+y,-z
1/2-x,1/2-y,-z
1/2+x,1/2+y,-z
1/2-x,1/2+y,z
1/2+x,1/2-y,z
loop_
_atom_site_type_symbol
_atom_site_label
_atom_site_fract_x
_atom_site_fract_y
_atom_site_fract_z
Si Si1 0.000000 0.217632 0.434218
Si Si2 0.425274 0.783175 0.059090
Si Si3 0.131567 0.289827 0.386483
Si Si4 0.678321 0.784567 0.500000
Si Si5 0.427137 0.221756 0.181114
Si Si6 0.676711 0.782916 0.731212
O O1 0.058405 0.282165 0.398185
O O2 0.000000 0.277559 0.500000
O O3 0.000000 0.000000 0.436208
O O4 0.500000 0.756634 0.058351
O O5 0.406512 0.717823 0.119600
O O6 0.414587 0.000000 0.058803
O O7 0.400862 0.712934 0.000000
O O8 0.152160 0.500000 0.386073
O O9 0.155097 0.204076 0.443021
O O10 0.157264 0.212981 0.329490
O O11 0.750000 0.750000 0.500000
O O12 0.661917 0.000000 0.500000
O O13 0.500000 0.275485 0.191355
O O14 0.375234 0.281791 0.225000
O O15 0.428158 0.000000 0.180904
O O16 0.750000 0.750000 0.742941
O O17 0.669487 0.000000 0.730541
#
# Coordination Sequence:
#
# PCOD9488520 Si02
#       6
#     8  16  16   8  16  16
#     4  11  23  37  55  81 105 127 154 197 252 296
#     4   7   9  15  31  58  92 124 154 197 249 291
#     4  10  21  36  54  74  98 131 166 198 242 299
#     4  10  20  33  50  71  93 122 160 202 243 288
#     4   8  14  25  43  69  96 125 166 208 247 295
#     4  10  21  35  53  74  99 134 170 208 251 296
#
# _framework density 20.831056
#
# number of rings (size 3 to 8) (size 9 to 14) (size 15 to 20)
#    0.000    2.900    1.000    2.700    1.400    2.000 
#    0.000    0.000    0.000    0.600    0.000    0.000 
#    0.000    0.000    0.000    5.000    0.000    4.000 
#
# Total GULP energy -222702.241503 kJ/mol
# GULP energy per Si atom -5567.556038 kJ/mol
# Density = 2.078364 g / cm^3
# Si number density = 20.831056 Si / 1000 Ang^3
#
#
#
# Elastic Constant Matrix: (Units=GPa)
#
#
# Indices 1 2 3 4 5 6 
#
# 1 124.9516 -13.8207 96.8957 0.0000 0.0000 0.0000
# 2 -13.8207 76.3259 16.7697 0.0000 0.0000 0.0000
# 3 96.8957 16.7697 228.9321 0.0000 0.0000 0.0000
# 4 0.0000 0.0000 0.0000 -78.9328 0.0000 0.0000
# 5 0.0000 0.0000 0.0000 0.0000 -15.8718 0.0000
# 6 0.0000 0.0000 0.0000 0.0000 0.0000 17.1177
#
#
#
# Elastic Compliance Matrix: (Units=1/GPa)
#
#
# Indices 1 2 3 4 5 6 
#
# 1 0.012802 0.003566 -0.005680 0.000000 0.000000 0.000000
# 2 0.003566 0.014309 -0.002557 0.000000 0.000000 0.000000
# 3 -0.005680 -0.002557 0.006959 0.000000 0.000000 0.000000
# 4 0.000000 0.000000 0.000000 -0.012669 0.000000 0.000000
# 5 0.000000 0.000000 0.000000 0.000000 -0.063005 0.000000
# 6 0.000000 0.000000 0.000000 0.000000 0.000000 0.058419
#
#
# Mechanical properties :
#
#
# Convention : Reuss Voigt Hill
#
# Bulk Modulus (GPa) = 40.43950 69.98876 55.21413
# Shear Modulus (GPa) = 145.34625 6.48695 75.91660
#
# Velocity S-wave (km/s) = 8.36214 1.76659 6.04343
# Velocity P-wave (km/s) = 10.61551 6.15080 8.67529
#
# Compressibility (1/GPa) = 0.02472830
#
# Stress axis : x y z
#
# Youngs Moduli (GPa) = 78.11355 69.88447 143.69157
#
# Poissons Ratio (x) = -0.24921 0.81611
# Poissons Ratio (y) = -0.27855 0.36749
# Poissons Ratio (z) = 0.44366 0.17873
#
# Static dielectric constant tensor:
#      x y z
#    x 14.706800 0.000000 0.000000 
#    y 0.000000 1.791440 0.000000 
#    z 0.000000 0.000000 1.794850 
# 
# From -- ./inp_files/70831.got.cif
#   From: 2010.05.17/outbox.cif.g08.bks.cpg/sg65_36_cif.got.tgz:70831.got - 2010.06.03 17:01:31.
