data_PCOD9488880
_publ_section_title
;
Structure prediction by ZEFSAII (Michael W. Deem and Ramdas Pophale) SiO2 
 PCOD9488880
Probable space group: C M M M
;
_chemical_formula_sum "Si O2"
_cell_formula_units_Z 88
_cell_length_a 17.575505
_cell_length_b 21.284006
_cell_length_c 14.475445
_cell_angle_alpha 90.000000
_cell_angle_beta 90.000000
_cell_angle_gamma 90.000000
_cell_volume 5414.933267
_symmetry_space_group_name_H-M "C M M M"
_symmetry_group_IT_number 65
_symmetry_cell_setting 'orthorhombic'
loop_
_space_group_symop_operation_xyz
x,y,z
-x,-y,z
x,-y,-z
-x,y,-z
-x,-y,-z
x,y,-z
-x,y,z
x,-y,z
1/2+x,1/2+y,z
1/2-x,1/2-y,z
1/2+x,1/2-y,-z
1/2-x,1/2+y,-z
1/2-x,1/2-y,-z
1/2+x,1/2+y,-z
1/2-x,1/2+y,z
1/2+x,1/2-y,z
loop_
_atom_site_type_symbol
_atom_site_label
_atom_site_fract_x
_atom_site_fract_y
_atom_site_fract_z
Si Si1 0.591694 0.000000 0.388655
Si Si2 0.301578 0.686538 0.605107
Si Si3 0.588816 0.757700 0.732712
Si Si4 0.086528 0.163033 0.108714
Si Si5 0.770353 0.074156 0.893234
Si Si6 0.320973 0.112435 0.715243
O O1 0.630990 0.939802 0.339893
O O2 0.500000 0.000000 0.374330
O O3 0.604658 0.000000 0.500000
O O4 0.317609 0.668793 0.500000
O O5 0.250000 0.750000 0.604133
O O6 0.375348 0.708379 0.660728
O O7 0.253339 0.633291 0.656850
O O8 0.500000 0.766017 0.716138
O O9 0.600994 0.725237 0.831869
O O10 0.630172 0.824194 0.725704
O O11 0.152610 0.112815 0.127532
O O12 0.000000 0.141207 0.130945
O O13 0.088840 0.176693 0.000000
O O14 0.707897 0.090367 0.815821
O O15 0.785824 0.000000 0.888838
O O16 0.747741 0.088915 0.000000
#
# Coordination Sequence:
#
# PCOD9488880 Si02
#       6
#     8  16  16  16  16  16
#     4  11  24  40  59  81 106 143 189 229 267 312
#     4   9  18  32  51  75 102 133 172 219 269 319
#     4  10  20  33  52  78 108 141 177 219 271 326
#     4   9  18  33  53  80 112 141 175 221 270 323
#     4  10  20  34  55  82 108 141 183 220 265 325
#     4  11  20  36  55  79 108 141 180 227 273 314
#
# _framework density 16.251355
#
# number of rings (size 3 to 8) (size 9 to 14) (size 15 to 20)
#    0.000    2.091    2.727    1.091    0.000    2.182 
#    0.000    3.636    0.000    2.182    0.000    0.000 
#    0.000    5.818    0.000    0.000    0.000    0.000 
#
# Total GULP energy -245209.959846 kJ/mol
# GULP energy per Si atom -5572.953633 kJ/mol
# Density = 1.621437 g / cm^3
# Si number density = 16.251355 Si / 1000 Ang^3
#
#
#
# Elastic Constant Matrix: (Units=GPa)
#
#
# Indices 1 2 3 4 5 6 
#
# 1 95.9069 68.9905 69.4505 0.0000 0.0000 0.0000
# 2 68.9905 99.9732 59.5619 0.0000 0.0000 0.0000
# 3 69.4505 59.5619 108.7968 0.0000 0.0000 0.0000
# 4 0.0000 0.0000 0.0000 23.6483 0.0000 0.0000
# 5 0.0000 0.0000 0.0000 0.0000 26.5512 0.0000
# 6 0.0000 0.0000 0.0000 0.0000 0.0000 27.0285
#
#
#
# Elastic Compliance Matrix: (Units=1/GPa)
#
#
# Indices 1 2 3 4 5 6 
#
# 1 0.026784 -0.012313 -0.010357 0.000000 0.000000 0.000000
# 2 -0.012313 0.020505 -0.003366 0.000000 0.000000 0.000000
# 3 -0.010357 -0.003366 0.017645 0.000000 0.000000 0.000000
# 4 0.000000 0.000000 0.000000 0.042286 0.000000 0.000000
# 5 0.000000 0.000000 0.000000 0.000000 0.037663 0.000000
# 6 0.000000 0.000000 0.000000 0.000000 0.000000 0.036998
#
#
# Mechanical properties :
#
#
# Convention : Reuss Voigt Hill
#
# Bulk Modulus (GPa) = 77.73966 77.85364 77.79665
# Shear Modulus (GPa) = 20.98729 22.55720 21.77225
#
# Velocity S-wave (km/s) = 3.59753 3.72966 3.66419
# Velocity P-wave (km/s) = 8.07440 8.15825 8.11643
#
# Compressibility (1/GPa) = 0.01286345
#
# Stress axis : x y z
#
# Youngs Moduli (GPa) = 37.33601 48.76881 56.67287
#
# Poissons Ratio (x) = 0.60049 0.58694
# Poissons Ratio (y) = 0.45972 0.19074
# Poissons Ratio (z) = 0.38667 0.16414
#
# Static dielectric constant tensor:
#      x y z
#    x 1.536750 0.000000 0.000000 
#    y 0.000000 1.518390 0.000000 
#    z 0.000000 0.000000 1.555530 
# 
# From -- ./inp_files/42510.got.cif
#   From: 2010.05.17/outbox.cif.g08.bks.cpg/sg65_22_cif.got.tgz:42510.got - 2010.06.03 17:01:31.
