data_PCOD9488693
_publ_section_title
;
Structure prediction by ZEFSAII (Michael W. Deem and Ramdas Pophale) SiO2 
 PCOD9488693
Probable space group: C M M M
;
_chemical_formula_sum "Si O2"
_cell_formula_units_Z 88
_cell_length_a 17.662959
_cell_length_b 9.558422
_cell_length_c 29.347617
_cell_angle_alpha 90.000000
_cell_angle_beta 90.000000
_cell_angle_gamma 90.000000
_cell_volume 4954.758644
_symmetry_space_group_name_H-M "C M M M"
_symmetry_group_IT_number 65
_symmetry_cell_setting 'orthorhombic'
loop_
_space_group_symop_operation_xyz
x,y,z
-x,-y,z
x,-y,-z
-x,y,-z
-x,-y,-z
x,y,-z
-x,y,z
x,-y,z
1/2+x,1/2+y,z
1/2-x,1/2-y,z
1/2+x,1/2-y,-z
1/2-x,1/2+y,-z
1/2-x,1/2-y,-z
1/2+x,1/2+y,-z
1/2-x,1/2+y,z
1/2+x,1/2-y,z
loop_
_atom_site_type_symbol
_atom_site_label
_atom_site_fract_x
_atom_site_fract_y
_atom_site_fract_z
Si Si1 0.086005 0.829994 0.000000
Si Si2 0.907529 0.339018 0.725929
Si Si3 0.407433 0.338975 0.362052
Si Si4 0.827798 0.832180 0.091999
Si Si5 0.092214 0.661736 0.551335
Si Si6 0.409011 0.338163 0.187099
O O1 0.128112 0.788566 0.953748
O O2 0.000000 0.779400 0.000000
O O3 0.084014 0.000000 0.000000
O O4 0.883097 0.500000 0.723518
O O5 0.883624 0.250243 0.681903
O O6 0.883193 0.263207 0.772432
O O7 0.000000 0.338590 0.725917
O O8 0.500000 0.338719 0.362201
O O9 0.383248 0.500000 0.359453
O O10 0.382232 0.263416 0.408508
O O11 0.750000 0.750000 0.094176
O O12 0.874645 0.804219 0.137980
O O13 0.815762 0.000000 0.089633
O O14 0.116296 0.700630 0.500000
O O15 0.113683 0.500000 0.560000
O O16 0.000000 0.664620 0.551464
O O17 0.500000 0.329284 0.184036
O O18 0.390269 0.500000 0.198275
#
# Coordination Sequence:
#
# PCOD9488693 Si02
#       6
#     8  16  16  16  16  16
#     4   9  17  32  55  79 100 127 166 202 230 267
#     4   9  16  25  38  56  77 102 134 176 226 274
#     4   9  15  21  30  45  66  93 127 170 218 267
#     4  10  20  33  51  74 100 129 158 192 233 277
#     4   8  13  20  28  38  56  86 125 169 216 265
#     4   9  17  30  47  66  88 116 153 193 230 270
#
# _framework density 17.760702999999999
#
# number of rings (size 3 to 8) (size 9 to 14) (size 15 to 20)
#    0.000    3.000    0.000    2.455    0.000    7.636 
#    0.000    1.818    0.000    2.182    0.000    0.000 
#    0.000    0.000    0.000    0.000    0.000    0.909 
#
# Total GULP energy -245211.989271 kJ/mol
# GULP energy per Si atom -5572.999756 kJ/mol
# Density = 1.772028 g / cm^3
# Si number density = 17.760703 Si / 1000 Ang^3
#
#
#
# Elastic Constant Matrix: (Units=GPa)
#
#
# Indices 1 2 3 4 5 6 
#
# 1 13.8881 26.1541 28.4301 0.0000 0.0000 0.0000
# 2 26.1541 120.0484 118.8818 0.0000 0.0000 0.0000
# 3 28.4301 118.8818 194.4117 0.0000 0.0000 0.0000
# 4 0.0000 0.0000 0.0000 375.9324 0.0000 0.0000
# 5 0.0000 0.0000 0.0000 0.0000 -6.6246 0.0000
# 6 0.0000 0.0000 0.0000 0.0000 0.0000 13.9066
#
#
#
# Elastic Compliance Matrix: (Units=1/GPa)
#
#
# Indices 1 2 3 4 5 6 
#
# 1 0.123356 -0.022844 -0.004070 0.000000 0.000000 0.000000
# 2 -0.022844 0.025349 -0.012160 0.000000 0.000000 0.000000
# 3 -0.004070 -0.012160 0.013175 0.000000 0.000000 0.000000
# 4 0.000000 0.000000 0.000000 0.002660 0.000000 0.000000
# 5 0.000000 0.000000 0.000000 0.000000 -0.150952 0.000000
# 6 0.000000 0.000000 0.000000 0.000000 0.000000 0.071908
#
#
# Mechanical properties :
#
#
# Convention : Reuss Voigt Hill
#
# Bulk Modulus (GPa) = 11.94301 75.03115 43.48708
# Shear Modulus (GPa) = 26.10225 86.96836 56.53531
#
# Velocity S-wave (km/s) = 3.83778 7.00522 5.64808
# Velocity P-wave (km/s) = 5.13586 10.38114 8.18978
#
# Compressibility (1/GPa) = 0.08373095
#
# Stress axis : x y z
#
# Youngs Moduli (GPa) = 8.10661 39.44988 75.90357
#
# Poissons Ratio (x) = 0.90121 0.30893
# Poissons Ratio (y) = 0.18519 0.92298
# Poissons Ratio (z) = 0.03299 0.47971
#
# Static dielectric constant tensor:
#      x y z
#    x 1.579030 0.000000 0.000000 
#    y 0.000000 1.595180 0.000000 
#    z 0.000000 0.000000 1.606010 
# 
# From -- ./inp_files/76674.got.cif
#   From: 2010.05.17/outbox.cif.g08.bks.cpg/sg65_39_cif.got.tgz:76674.got - 2010.06.03 17:01:31.
