data_PCOD9488152
_publ_section_title
;
Structure prediction by ZEFSAII (Michael W. Deem and Ramdas Pophale) SiO2 
 PCOD9488152
Probable space group: C M M M
;
_chemical_formula_sum "Si O2"
_cell_formula_units_Z 80
_cell_length_a 9.162083
_cell_length_b 27.634025
_cell_length_c 19.077428
_cell_angle_alpha 90.000000
_cell_angle_beta 90.000000
_cell_angle_gamma 90.000000
_cell_volume 4830.123009
_symmetry_space_group_name_H-M "C M M M"
_symmetry_group_IT_number 65
_symmetry_cell_setting 'orthorhombic'
loop_
_space_group_symop_operation_xyz
x,y,z
-x,-y,z
x,-y,-z
-x,y,-z
-x,-y,-z
x,y,-z
-x,y,z
x,-y,z
1/2+x,1/2+y,z
1/2-x,1/2-y,z
1/2+x,1/2-y,-z
1/2-x,1/2+y,-z
1/2-x,1/2-y,-z
1/2+x,1/2+y,-z
1/2-x,1/2+y,z
1/2+x,1/2-y,z
loop_
_atom_site_type_symbol
_atom_site_label
_atom_site_fract_x
_atom_site_fract_y
_atom_site_fract_z
Si Si1 0.825623 0.554221 0.845340
Si Si2 0.673424 0.399574 0.713063
Si Si3 0.326464 0.700939 0.211548
Si Si4 0.325493 0.942796 0.580376
Si Si5 0.825048 0.653453 0.919666
O O1 0.787864 0.500000 0.869211
O O2 0.745142 0.567017 0.773087
O O3 0.792872 0.597439 0.899474
O O4 0.000000 0.555644 0.832846
O O5 0.500000 0.406894 0.712215
O O6 0.702772 0.344496 0.737428
O O7 0.742144 0.412613 0.638701
O O8 0.500000 0.707329 0.205777
O O9 0.250000 0.750000 0.235562
O O10 0.259318 0.685892 0.136403
O O11 0.287047 0.930399 0.500000
O O12 0.500000 0.936662 0.588210
O O13 0.294533 0.000000 0.590358
O O14 0.000000 0.660394 0.911689
O O15 0.785793 0.663291 0.000000
#
# Coordination Sequence:
#
# PCOD9488152 Si02
#       5
#    16  16  16  16  16
#     4   9  17  29  46  68  95 129 165 197 231 276
#     4  10  20  32  48  72  99 125 157 199 241 281
#     4  10  21  36  53  72  93 120 157 200 245 291
#     4   9  18  32  50  74 104 136 166 192 222 267
#     4   9  18  32  49  70  96 125 158 197 241 287
#
# _framework density 16.562726000000001
#
# number of rings (size 3 to 8) (size 9 to 14) (size 15 to 20)
#    0.000    2.600    0.000    2.400    0.000    7.200 
#    0.000    3.000    0.000    0.600    0.000    5.600 
#    0.000    0.000    0.000    0.000    0.000    0.000 
#
# Total GULP energy -223105.948885 kJ/mol
# GULP energy per Si atom -5577.648722 kJ/mol
# Density = 1.652503 g / cm^3
# Si number density = 16.562726 Si / 1000 Ang^3
#
#
#
# Elastic Constant Matrix: (Units=GPa)
#
#
# Indices 1 2 3 4 5 6 
#
# 1 31.6027 26.8779 36.4189 0.0000 0.0000 0.0000
# 2 26.8779 50.7049 15.2541 0.0000 0.0000 0.0000
# 3 36.4189 15.2541 95.3978 0.0000 0.0000 0.0000
# 4 0.0000 0.0000 0.0000 7.8885 0.0000 0.0000
# 5 0.0000 0.0000 0.0000 0.0000 12.2330 0.0000
# 6 0.0000 0.0000 0.0000 0.0000 0.0000 26.0526
#
#
#
# Elastic Compliance Matrix: (Units=1/GPa)
#
#
# Indices 1 2 3 4 5 6 
#
# 1 0.117439 -0.051229 -0.036642 0.000000 0.000000 0.000000
# 2 -0.051229 0.043066 0.012671 0.000000 0.000000 0.000000
# 3 -0.036642 0.012671 0.022445 0.000000 0.000000 0.000000
# 4 0.000000 0.000000 0.000000 0.126767 0.000000 0.000000
# 5 0.000000 0.000000 0.000000 0.000000 0.081746 0.000000
# 6 0.000000 0.000000 0.000000 0.000000 0.000000 0.038384
#
#
# Mechanical properties :
#
#
# Convention : Reuss Voigt Hill
#
# Bulk Modulus (GPa) = 30.72259 37.20079 33.96169
# Shear Modulus (GPa) = 8.45886 15.84510 12.15198
#
# Velocity S-wave (km/s) = 2.26236 3.09637 2.71162
# Velocity P-wave (km/s) = 5.04121 5.94076 5.50938
#
# Compressibility (1/GPa) = 0.03254934
#
# Stress axis : x y z
#
# Youngs Moduli (GPa) = 8.51508 23.22021 44.55424
#
# Poissons Ratio (x) = 1.18955 1.63254
# Poissons Ratio (y) = 0.43622 -0.56454
# Poissons Ratio (z) = 0.31201 -0.29422
#
# Static dielectric constant tensor:
#      x y z
#    x 1.546580 0.000000 0.000000 
#    y 0.000000 1.562640 0.000000 
#    z 0.000000 0.000000 1.531430 
# 
# From -- ./inp_files/49839.got.cif
#   From: 2010.05.17/outbox.cif.g08.bks.cpg/sg65_25_cif.got.tgz:49839.got - 2010.06.03 17:01:31.
