data_PCOD9488542
_publ_section_title
;
Structure prediction by ZEFSAII (Michael W. Deem and Ramdas Pophale) SiO2 
 PCOD9488542
Probable space group: C M M M
;
_chemical_formula_sum "Si O2"
_cell_formula_units_Z 72
_cell_length_a 16.726204
_cell_length_b 28.318306
_cell_length_c 8.397786
_cell_angle_alpha 90.000000
_cell_angle_beta 90.000000
_cell_angle_gamma 90.000000
_cell_volume 3977.676532
_symmetry_space_group_name_H-M "C M M M"
_symmetry_group_IT_number 65
_symmetry_cell_setting 'orthorhombic'
loop_
_space_group_symop_operation_xyz
x,y,z
-x,-y,z
x,-y,-z
-x,y,-z
-x,-y,-z
x,y,-z
-x,y,z
x,-y,z
1/2+x,1/2+y,z
1/2-x,1/2-y,z
1/2+x,1/2-y,-z
1/2-x,1/2+y,-z
1/2-x,1/2-y,-z
1/2+x,1/2+y,-z
1/2-x,1/2+y,z
1/2+x,1/2-y,z
loop_
_atom_site_type_symbol
_atom_site_label
_atom_site_fract_x
_atom_site_fract_y
_atom_site_fract_z
Si Si1 0.088504 0.140074 0.307783
Si Si2 0.500000 0.945228 0.809848
Si Si3 0.659479 0.894039 0.690375
Si Si4 0.754651 0.803915 0.305524
Si Si5 0.817710 0.946118 0.190897
O O1 0.089255 0.140354 0.500000
O O2 0.160603 0.173862 0.254776
O O3 0.112592 0.088182 0.249969
O O4 0.000000 0.153712 0.253484
O O5 0.578776 0.916718 0.756901
O O6 0.500000 0.000000 0.749719
O O7 0.500000 0.947648 0.000000
O O8 0.653123 0.893113 0.500000
O O9 0.685292 0.840939 0.743917
O O10 0.734776 0.926360 0.738927
O O11 0.753209 0.803476 0.500000
O O12 0.750000 0.750000 0.250949
O O13 0.830003 0.000000 0.239900
O O14 0.812704 0.943945 0.000000
#
# Coordination Sequence:
#
# PCOD9488542 Si02
#       5
#    16   8  16  16  16
#     4   9  18  32  50  74 101 131 169 212 255 298
#     4  11  23  37  53  75 109 149 181 215 264 319
#     4  10  20  34  54  80 105 133 175 220 261 306
#     4   8  15  31  53  77 103 130 165 212 262 308
#     4  10  20  33  50  72 100 137 173 205 253 311
#
# _framework density 18.101019999999998
#
# number of rings (size 3 to 8) (size 9 to 14) (size 15 to 20)
#    0.000    2.556    0.000    3.667    0.000    6.222 
#    2.000    2.222    0.000   16.667    0.000    0.000 
#    0.000    0.000    0.000    0.000    0.000    0.000 
#
# Total GULP energy -200710.898130 kJ/mol
# GULP energy per Si atom -5575.302726 kJ/mol
# Density = 1.805982 g / cm^3
# Si number density = 18.101020 Si / 1000 Ang^3
#
#
#
# Elastic Constant Matrix: (Units=GPa)
#
#
# Indices 1 2 3 4 5 6 
#
# 1 129.5198 75.0908 20.8618 0.0000 0.0000 0.0000
# 2 75.0908 176.4023 17.9632 0.0000 0.0000 0.0000
# 3 20.8618 17.9632 16.3920 0.0000 0.0000 0.0000
# 4 0.0000 0.0000 0.0000 69.3126 0.0000 0.0000
# 5 0.0000 0.0000 0.0000 0.0000 8.5000 0.0000
# 6 0.0000 0.0000 0.0000 0.0000 0.0000 11.3334
#
#
#
# Elastic Compliance Matrix: (Units=1/GPa)
#
#
# Indices 1 2 3 4 5 6 
#
# 1 0.011687 -0.003895 -0.010606 0.000000 0.000000 0.000000
# 2 -0.003895 0.007679 -0.003458 0.000000 0.000000 0.000000
# 3 -0.010606 -0.003458 0.078292 0.000000 0.000000 0.000000
# 4 0.000000 0.000000 0.000000 0.014427 0.000000 0.000000
# 5 0.000000 0.000000 0.000000 0.000000 0.117647 0.000000
# 6 0.000000 0.000000 0.000000 0.000000 0.000000 0.088234
#
#
# Mechanical properties :
#
#
# Convention : Reuss Voigt Hill
#
# Bulk Modulus (GPa) = 16.19662 61.12728 38.66195
# Shear Modulus (GPa) = 13.35238 31.72245 22.53741
#
# Velocity S-wave (km/s) = 2.71893 4.19086 3.53241
# Velocity P-wave (km/s) = 4.33868 7.56711 6.16787
#
# Compressibility (1/GPa) = 0.06174129
#
# Stress axis : x y z
#
# Youngs Moduli (GPa) = 85.56293 130.22495 12.77262
#
# Poissons Ratio (x) = 0.50723 0.13546
# Poissons Ratio (y) = 0.33327 0.04417
# Poissons Ratio (z) = 0.90746 0.45031
#
# Static dielectric constant tensor:
#      x y z
#    x 1.606320 0.000000 0.000000 
#    y 0.000000 1.626370 0.000000 
#    z 0.000000 0.000000 1.620770 
# 
# From -- ./inp_files/7239.got.cif
#   From: 2010.05.17/outbox.cif.g08.bks.cpg/sg65_4_cif.got.tgz:7239.got - 2010.06.03 17:01:31.
