data_PCOD9488609
_publ_section_title
;
Structure prediction by ZEFSAII (Michael W. Deem and Ramdas Pophale) SiO2 
 PCOD9488609
Probable space group: C M M M
;
_chemical_formula_sum "Si O2"
_cell_formula_units_Z 88
_cell_length_a 14.871286
_cell_length_b 8.803893
_cell_length_c 30.653171
_cell_angle_alpha 90.000000
_cell_angle_beta 90.000000
_cell_angle_gamma 90.000000
_cell_volume 4013.272872
_symmetry_space_group_name_H-M "C M M M"
_symmetry_group_IT_number 65
_symmetry_cell_setting 'orthorhombic'
loop_
_space_group_symop_operation_xyz
x,y,z
-x,-y,z
x,-y,-z
-x,y,-z
-x,-y,-z
x,y,-z
-x,y,z
x,-y,z
1/2+x,1/2+y,z
1/2-x,1/2-y,z
1/2+x,1/2-y,-z
1/2-x,1/2+y,-z
1/2-x,1/2-y,-z
1/2+x,1/2+y,-z
1/2-x,1/2+y,z
1/2+x,1/2-y,z
loop_
_atom_site_type_symbol
_atom_site_label
_atom_site_fract_x
_atom_site_fract_y
_atom_site_fract_z
Si Si1 0.148533 0.184040 0.500000
Si Si2 0.849289 0.320487 0.775920
Si Si3 0.148854 0.183597 0.593984
Si Si4 0.890144 0.676788 0.952164
Si Si5 0.606131 0.332866 0.864833
Si Si6 0.351725 0.682731 0.311412
O O1 0.250000 0.250000 0.500000
O O2 0.107980 0.229400 0.547040
O O3 0.151873 0.000000 0.500000
O O4 0.847522 0.500000 0.771037
O O5 0.750000 0.250000 0.776510
O O6 0.886146 0.273356 0.822855
O O7 0.894031 0.248756 0.732703
O O8 0.250000 0.250000 0.593798
O O9 0.108122 0.225033 0.641130
O O10 0.153485 0.000000 0.594131
O O11 0.864492 0.500000 0.948843
O O12 0.856891 0.766113 0.909909
O O13 0.000000 0.679744 0.951654
O O14 0.862704 0.736128 0.000000
O O15 0.500000 0.348819 0.872171
O O16 0.644880 0.500000 0.855017
O O17 0.348680 0.500000 0.307942
O O18 0.250000 0.750000 0.312725
#
# Coordination Sequence:
#
# PCOD9488609 Si02
#       6
#     8  16  16  16  16  16
#     4   8  12  18  26  40  62  90 125 162 205 252
#     4  11  21  33  49  67  90 121 157 194 231 273
#     4   8  13  19  29  44  65  94 128 168 209 253
#     4   8  14  26  45  69  96 124 153 184 218 259
#     4  10  20  33  50  73  99 124 152 188 228 269
#     4   9  15  24  37  54  76 104 141 181 220 261
#
# _framework density 21.927240999999999
#
# number of rings (size 3 to 8) (size 9 to 14) (size 15 to 20)
#    0.000    2.909    0.000    4.364    0.000    2.182 
#    0.000    1.818    0.000    0.545    0.000    0.000 
#    0.000    0.000    0.000    0.818    0.000   19.636 
#
# Total GULP energy -245114.471631 kJ/mol
# GULP energy per Si atom -5570.783446 kJ/mol
# Density = 2.187733 g / cm^3
# Si number density = 21.927241 Si / 1000 Ang^3
#
#
#
# Elastic Constant Matrix: (Units=GPa)
#
#
# Indices 1 2 3 4 5 6 
#
# 1 49.8709 5.4862 14.2727 0.0000 0.0000 0.0000
# 2 5.4862 93.9594 73.0505 0.0000 0.0000 0.0000
# 3 14.2727 73.0505 251.1392 0.0000 0.0000 0.0000
# 4 0.0000 0.0000 0.0000 4.3145 0.0000 0.0000
# 5 0.0000 0.0000 0.0000 0.0000 5.8686 0.0000
# 6 0.0000 0.0000 0.0000 0.0000 0.0000 2.7082
#
#
#
# Elastic Compliance Matrix: (Units=1/GPa)
#
#
# Indices 1 2 3 4 5 6 
#
# 1 0.020393 -0.000374 -0.001050 0.000000 0.000000 0.000000
# 2 -0.000374 0.013760 -0.003981 0.000000 0.000000 0.000000
# 3 -0.001050 -0.003981 0.005200 0.000000 0.000000 0.000000
# 4 0.000000 0.000000 0.000000 0.231775 0.000000 0.000000
# 5 0.000000 0.000000 0.000000 0.000000 0.170398 0.000000
# 6 0.000000 0.000000 0.000000 0.000000 0.000000 0.369245
#
#
# Mechanical properties :
#
#
# Convention : Reuss Voigt Hill
#
# Bulk Modulus (GPa) = 35.03632 64.50980 49.77306
# Shear Modulus (GPa) = 6.01615 22.72229 14.36922
#
# Velocity S-wave (km/s) = 1.65820 3.22259 2.56269
# Velocity P-wave (km/s) = 4.43614 6.58260 5.61293
#
# Compressibility (1/GPa) = 0.02854181
#
# Stress axis : x y z
#
# Youngs Moduli (GPa) = 49.03529 72.67444 192.32358
#
# Poissons Ratio (x) = 0.02720 0.20196
# Poissons Ratio (y) = 0.01835 0.76568
# Poissons Ratio (z) = 0.05149 0.28933
#
# Static dielectric constant tensor:
#      x y z
#    x 2.224410 0.000000 0.000000 
#    y 0.000000 1.760980 0.000000 
#    z 0.000000 0.000000 1.898840 
# 
# From -- ./inp_files/78101.got.cif
#   From: 2010.05.17/outbox.cif.g08.bks.cpg/sg65_40_cif.got.tgz:78101.got - 2010.06.03 17:01:31.
