data_PCOD9488014
_publ_section_title
;
Structure prediction by ZEFSAII (Michael W. Deem and Ramdas Pophale) SiO2 
 PCOD9488014
Probable space group: C M M M
;
_chemical_formula_sum "Si O2"
_cell_formula_units_Z 104
_cell_length_a 8.529205
_cell_length_b 27.454627
_cell_length_c 24.445069
_cell_angle_alpha 90.000000
_cell_angle_beta 90.000000
_cell_angle_gamma 90.000000
_cell_volume 5724.207496
_symmetry_space_group_name_H-M "C M M M"
_symmetry_group_IT_number 65
_symmetry_cell_setting 'orthorhombic'
loop_
_space_group_symop_operation_xyz
x,y,z
-x,-y,z
x,-y,-z
-x,y,-z
-x,-y,-z
x,y,-z
-x,y,z
x,-y,z
1/2+x,1/2+y,z
1/2-x,1/2-y,z
1/2+x,1/2-y,-z
1/2-x,1/2+y,-z
1/2-x,1/2-y,-z
1/2+x,1/2+y,-z
1/2-x,1/2+y,z
1/2+x,1/2-y,z
loop_
_atom_site_type_symbol
_atom_site_label
_atom_site_fract_x
_atom_site_fract_y
_atom_site_fract_z
Si Si1 0.311097 0.105112 0.062303
Si Si2 0.811425 0.057173 0.562479
Si Si3 0.184568 0.399605 0.670734
Si Si4 0.684863 0.444709 0.225184
Si Si5 0.823029 0.000000 0.066316
Si Si6 0.815353 0.350031 0.170178
Si Si7 0.814708 0.197031 0.274797
O O1 0.500000 0.105225 0.061794
O O2 0.260615 0.144437 0.107502
O O3 0.257904 0.050971 0.080150
O O4 0.255646 0.113660 0.000000
O O5 0.768315 0.069919 0.500000
O O6 0.730177 0.088976 0.608757
O O7 0.000000 0.061747 0.567257
O O8 0.772777 0.000000 0.570771
O O9 0.279009 0.435965 0.710825
O O10 0.233114 0.345644 0.690297
O O11 0.000000 0.406417 0.679413
O O12 0.500000 0.435697 0.215327
O O13 0.721801 0.500000 0.209440
O O14 0.786173 0.403964 0.194918
O O15 0.000000 0.000000 0.087754
O O16 0.827254 0.000000 0.000000
O O17 0.725047 0.314719 0.211258
O O18 0.000000 0.338502 0.172036
O O19 0.750000 0.250000 0.288840
O O20 0.000000 0.194309 0.282863
#
# Coordination Sequence:
#
# PCOD9488014 Si02
#       7
#    16  16  16  16   8  16  16
#     4   9  18  32  48  67  96 134 171 207 251 304
#     4   9  18  33  53  78 112 155 195 225 256 297
#     4  11  21  33  52  79 108 138 176 218 261 310
#     4  10  20  32  46  67  99 138 174 212 258 307
#     4   9  17  27  41  63  91 127 171 211 242 283
#     4  10  20  33  51  75 100 129 168 210 256 310
#     4  11  22  39  61  81 103 129 164 212 266 321
#
# _framework density 18.168454000000001
#
# number of rings (size 3 to 8) (size 9 to 14) (size 15 to 20)
#    0.000    2.077    0.000    6.692    1.077    5.846 
#    0.000    0.769    0.000    0.923    0.000    0.000 
#    0.000    0.000    0.000    0.000    0.000    0.000 
#
# Total GULP energy -290253.302177 kJ/mol
# GULP energy per Si atom -5581.794273 kJ/mol
# Density = 1.812710 g / cm^3
# Si number density = 18.168454 Si / 1000 Ang^3
#
#
#
# Elastic Constant Matrix: (Units=GPa)
#
#
# Indices 1 2 3 4 5 6 
#
# 1 35.8944 3.4628 8.1917 0.0000 0.0000 0.0000
# 2 3.4628 47.7271 15.4855 0.0000 0.0000 0.0000
# 3 8.1917 15.4855 93.2718 0.0000 0.0000 0.0000
# 4 0.0000 0.0000 0.0000 17.0963 0.0000 0.0000
# 5 0.0000 0.0000 0.0000 0.0000 22.1887 0.0000
# 6 0.0000 0.0000 0.0000 0.0000 0.0000 20.7458
#
#
#
# Elastic Compliance Matrix: (Units=1/GPa)
#
#
# Indices 1 2 3 4 5 6 
#
# 1 0.028509 -0.001328 -0.002283 0.000000 0.000000 0.000000
# 2 -0.001328 0.022207 -0.003570 0.000000 0.000000 0.000000
# 3 -0.002283 -0.003570 0.011515 0.000000 0.000000 0.000000
# 4 0.000000 0.000000 0.000000 0.058492 0.000000 0.000000
# 5 0.000000 0.000000 0.000000 0.000000 0.045068 0.000000
# 6 0.000000 0.000000 0.000000 0.000000 0.000000 0.048203
#
#
# Mechanical properties :
#
#
# Convention : Reuss Voigt Hill
#
# Bulk Modulus (GPa) = 20.89084 25.68592 23.28838
# Shear Modulus (GPa) = 20.46563 21.98970 21.22767
#
# Velocity S-wave (km/s) = 3.35989 3.48274 3.42187
# Velocity P-wave (km/s) = 5.15511 5.50827 5.33461
#
# Compressibility (1/GPa) = 0.04786788
#
# Stress axis : x y z
#
# Youngs Moduli (GPa) = 35.07706 45.03045 86.84574
#
# Poissons Ratio (x) = 0.05978 0.19830
# Poissons Ratio (y) = 0.04657 0.31007
# Poissons Ratio (z) = 0.08009 0.16077
#
# Static dielectric constant tensor:
#      x y z
#    x 1.607030 0.000000 0.000000 
#    y 0.000000 1.597290 0.000000 
#    z 0.000000 0.000000 1.671740 
# 
# From -- ./inp_files/68284.got.cif
#   From: 2010.05.17/outbox.cif.g08.bks.cpg/sg65_35_cif.got.tgz:68284.got - 2010.06.03 17:01:31.
