data_PCOD9488866
_publ_section_title
;
Structure prediction by ZEFSAII (Michael W. Deem and Ramdas Pophale) SiO2 
 PCOD9488866
Probable space group: C M M M
;
_chemical_formula_sum "Si O2"
_cell_formula_units_Z 88
_cell_length_a 18.414680
_cell_length_b 28.101644
_cell_length_c 7.631881
_cell_angle_alpha 90.000000
_cell_angle_beta 90.000000
_cell_angle_gamma 90.000000
_cell_volume 3949.367010
_symmetry_space_group_name_H-M "C M M M"
_symmetry_group_IT_number 65
_symmetry_cell_setting 'orthorhombic'
loop_
_space_group_symop_operation_xyz
x,y,z
-x,-y,z
x,-y,-z
-x,y,-z
-x,-y,-z
x,y,-z
-x,y,z
x,-y,z
1/2+x,1/2+y,z
1/2-x,1/2-y,z
1/2+x,1/2-y,-z
1/2-x,1/2+y,-z
1/2-x,1/2-y,-z
1/2+x,1/2+y,-z
1/2-x,1/2+y,z
1/2+x,1/2-y,z
loop_
_atom_site_type_symbol
_atom_site_label
_atom_site_fract_x
_atom_site_fract_y
_atom_site_fract_z
Si Si1 0.877393 0.341696 0.797272
Si Si2 0.921640 0.759302 0.296544
Si Si3 0.859581 0.447248 0.796802
Si Si4 0.581013 0.500000 0.285481
Si Si5 0.696453 0.425716 0.292839
Si Si6 0.286475 0.682174 0.293133
O O1 0.917573 0.297782 0.709568
O O2 0.885192 0.395633 0.723111
O O3 0.792813 0.325386 0.788434
O O4 0.899456 0.343333 0.000000
O O5 0.921319 0.774554 0.500000
O O6 0.846449 0.781072 0.222765
O O7 0.000000 0.774052 0.220132
O O8 0.877761 0.500000 0.721982
O O9 0.772076 0.441413 0.792449
O O10 0.882755 0.448067 0.000000
O O11 0.500000 0.500000 0.220036
O O12 0.578289 0.500000 0.500000
O O13 0.628386 0.455229 0.230016
O O14 0.707717 0.435177 0.500000
O O15 0.680699 0.370295 0.274872
O O16 0.272818 0.692608 0.500000
#
# Coordination Sequence:
#
# PCOD9488866 Si02
#       6
#    16  16  16   8  16  16
#     4  10  20  33  52  78 102 127 163 206 250 294
#     4  10  21  36  52  71  99 135 170 203 245 297
#     4   9  17  30  49  71  96 123 152 193 243 291
#     4   9  16  24  37  61  93 125 156 195 238 275
#     4   9  16  27  44  67  93 121 158 200 238 278
#     4   9  18  32  51  73  98 130 167 206 245 290
#
# _framework density 22.282050999999999
#
# number of rings (size 3 to 8) (size 9 to 14) (size 15 to 20)
#    0.000    2.636    0.909    1.091    0.000    4.727 
#    0.000    3.636    0.000    1.636    0.000    8.909 
#    0.000    0.000    0.000    0.000    0.000    0.000 
#
# Total GULP energy -245223.143476 kJ/mol
# GULP energy per Si atom -5573.253261 kJ/mol
# Density = 2.223134 g / cm^3
# Si number density = 22.282051 Si / 1000 Ang^3
#
#
#
# Elastic Constant Matrix: (Units=GPa)
#
#
# Indices 1 2 3 4 5 6 
#
# 1 22.7840 3.7948 -3.1455 0.0000 0.0000 0.0000
# 2 3.7948 116.6290 6.3141 0.0000 0.0000 0.0000
# 3 -3.1455 6.3141 43.8259 0.0000 0.0000 0.0000
# 4 0.0000 0.0000 0.0000 12.7642 0.0000 0.0000
# 5 0.0000 0.0000 0.0000 0.0000 12.5134 0.0000
# 6 0.0000 0.0000 0.0000 0.0000 0.0000 2.4435
#
#
#
# Elastic Compliance Matrix: (Units=1/GPa)
#
#
# Indices 1 2 3 4 5 6 
#
# 1 0.044638 -0.001639 0.003440 0.000000 0.000000 0.000000
# 2 -0.001639 0.008702 -0.001371 0.000000 0.000000 0.000000
# 3 0.003440 -0.001371 0.023262 0.000000 0.000000 0.000000
# 4 0.000000 0.000000 0.000000 0.078344 0.000000 0.000000
# 5 0.000000 0.000000 0.000000 0.000000 0.079914 0.000000
# 6 0.000000 0.000000 0.000000 0.000000 0.000000 0.409255
#
#
# Mechanical properties :
#
#
# Convention : Reuss Voigt Hill
#
# Bulk Modulus (GPa) = 12.90956 21.90731 17.40844
# Shear Modulus (GPa) = 7.47299 17.29593 12.38446
#
# Velocity S-wave (km/s) = 1.83333 2.78911 2.36011
# Velocity P-wave (km/s) = 3.20745 4.49726 3.90596
#
# Compressibility (1/GPa) = 0.07746197
#
# Stress axis : x y z
#
# Youngs Moduli (GPa) = 22.40227 114.91941 42.98858
#
# Poissons Ratio (x) = 0.18831 -0.14788
# Poissons Ratio (y) = 0.03671 0.05895
# Poissons Ratio (z) = -0.07706 0.15759
#
# Static dielectric constant tensor:
#      x y z
#    x 1.824880 0.000000 0.000000 
#    y 0.000000 1.854430 0.000000 
#    z 0.000000 0.000000 1.860870 
# 
# From -- ./inp_files/12614.got.cif
#   From: 2010.05.17/outbox.cif.g08.bks.cpg/sg65_7_cif.got.tgz:12614.got - 2010.06.03 17:01:31.
