data_PCOD9488211
_publ_section_title
;
Structure prediction by ZEFSAII (Michael W. Deem and Ramdas Pophale) SiO2 
 PCOD9488211
Probable space group: C M M M
;
_chemical_formula_sum "Si O2"
_cell_formula_units_Z 120
_cell_length_a 25.471069
_cell_length_b 20.941054
_cell_length_c 13.864722
_cell_angle_alpha 90.000000
_cell_angle_beta 90.000000
_cell_angle_gamma 90.000000
_cell_volume 7395.318367
_symmetry_space_group_name_H-M "C M M M"
_symmetry_group_IT_number 65
_symmetry_cell_setting 'orthorhombic'
loop_
_space_group_symop_operation_xyz
x,y,z
-x,-y,z
x,-y,-z
-x,y,-z
-x,-y,-z
x,y,-z
-x,y,z
x,-y,z
1/2+x,1/2+y,z
1/2-x,1/2-y,z
1/2+x,1/2-y,-z
1/2-x,1/2+y,-z
1/2-x,1/2-y,-z
1/2+x,1/2+y,-z
1/2-x,1/2+y,z
1/2+x,1/2-y,z
loop_
_atom_site_type_symbol
_atom_site_label
_atom_site_fract_x
_atom_site_fract_y
_atom_site_fract_z
Si Si1 0.560946 0.072386 0.616584
Si Si2 0.644654 0.323029 0.614530
Si Si3 0.608382 0.858500 0.111800
Si Si4 0.718134 0.072973 0.887570
Si Si5 0.000000 0.572043 0.116513
Si Si6 0.866430 0.313894 0.691350
Si Si7 0.440373 0.572858 0.617176
Si Si8 0.250320 0.323168 0.261250
O O1 0.562474 0.073817 0.500000
O O2 0.500000 0.083232 0.644977
O O3 0.598773 0.127304 0.655132
O O4 0.575871 0.000000 0.646536
O O5 0.653093 0.329276 0.500000
O O6 0.623243 0.252153 0.637396
O O7 0.602698 0.375940 0.647376
O O8 0.699236 0.330409 0.671270
O O9 0.656156 0.909180 0.117926
O O10 0.553371 0.890971 0.139431
O O11 0.622382 0.807258 0.193806
O O12 0.605935 0.836659 0.000000
O O13 0.747911 0.124225 0.822182
O O14 0.726146 0.000000 0.856332
O O15 0.732869 0.078631 0.000000
O O16 0.000000 0.500000 0.154572
O O17 0.000000 0.567683 0.000000
O O18 0.804644 0.329562 0.681258
O O19 0.440654 0.573444 0.500000
O O20 0.500000 0.588298 0.648056
O O21 0.428318 0.500000 0.646788
O O22 0.250000 0.250000 0.223278
#
# Coordination Sequence:
#
# PCOD9488211 Si02
#       8
#    16  16  16  16   8  16  16  16
#     4   9  19  34  48  65  94 132 172 211 246 282
#     4  10  20  34  52  74  99 126 160 202 244 295
#     4   9  18  31  45  66  98 131 165 208 255 295
#     4   9  17  31  51  72  96 127 164 208 250 290
#     4   9  16  26  42  64  91 127 168 205 245 293
#     4  10  20  32  49  70  93 129 170 207 247 286
#     4   8  15  30  51  73  95 117 142 180 238 300
#     4   9  20  34  47  69  99 130 164 200 246 295
#
# _framework density 16.226482000000001
#
# number of rings (size 3 to 8) (size 9 to 14) (size 15 to 20)
#    0.000    2.867    0.000    1.600    0.933    8.533 
#    0.000    3.333    0.000    1.600    0.000    0.000 
#    0.000    0.000    0.000    4.667    0.000    0.533 
#
# Total GULP energy -334283.219874 kJ/mol
# GULP energy per Si atom -5571.386998 kJ/mol
# Density = 1.618955 g / cm^3
# Si number density = 16.226482 Si / 1000 Ang^3
#
#
#
# Elastic Constant Matrix: (Units=GPa)
#
#
# Indices 1 2 3 4 5 6 
#
# 1 102.1100 74.5656 35.4928 0.0000 0.0000 0.0000
# 2 74.5656 117.0438 44.1524 0.0000 0.0000 0.0000
# 3 35.4928 44.1524 57.3891 0.0000 0.0000 0.0000
# 4 0.0000 0.0000 0.0000 25.8368 0.0000 0.0000
# 5 0.0000 0.0000 0.0000 0.0000 21.7873 0.0000
# 6 0.0000 0.0000 0.0000 0.0000 0.0000 22.9223
#
#
#
# Elastic Compliance Matrix: (Units=1/GPa)
#
#
# Indices 1 2 3 4 5 6 
#
# 1 0.018771 -0.010678 -0.003394 0.000000 0.000000 0.000000
# 2 -0.010678 0.018112 -0.007330 0.000000 0.000000 0.000000
# 3 -0.003394 -0.007330 0.025163 0.000000 0.000000 0.000000
# 4 0.000000 0.000000 0.000000 0.038705 0.000000 0.000000
# 5 0.000000 0.000000 0.000000 0.000000 0.045898 0.000000
# 6 0.000000 0.000000 0.000000 0.000000 0.000000 0.043626
#
#
# Mechanical properties :
#
#
# Convention : Reuss Voigt Hill
#
# Bulk Modulus (GPa) = 51.97084 64.99604 58.48344
# Shear Modulus (GPa) = 20.87750 22.26475 21.57113
#
# Velocity S-wave (km/s) = 3.59086 3.70824 3.65002
# Velocity P-wave (km/s) = 7.02070 7.64704 7.34055
#
# Compressibility (1/GPa) = 0.01924156
#
# Stress axis : x y z
#
# Youngs Moduli (GPa) = 53.27467 55.21272 39.74032
#
# Poissons Ratio (x) = 0.58957 0.13487
# Poissons Ratio (y) = 0.56887 0.29131
# Poissons Ratio (z) = 0.18080 0.40473
#
# Static dielectric constant tensor:
#      x y z
#    x 1.542100 0.000000 0.000000 
#    y 0.000000 1.532790 0.000000 
#    z 0.000000 0.000000 1.566410 
# 
# From -- ./inp_files/46116.got.cif
#   From: 2010.05.17/outbox.cif.g08.bks.cpg/sg65_24_cif.got.tgz:46116.got - 2010.06.03 17:01:31.
