data_PCOD9488108
_publ_section_title
;
Structure prediction by ZEFSAII (Michael W. Deem and Ramdas Pophale) SiO2 
 PCOD9488108
Probable space group: C M M M
;
_chemical_formula_sum "Si O2"
_cell_formula_units_Z 72
_cell_length_a 13.927124
_cell_length_b 14.822008
_cell_length_c 18.115765
_cell_angle_alpha 90.000000
_cell_angle_beta 90.000000
_cell_angle_gamma 90.000000
_cell_volume 3739.600111
_symmetry_space_group_name_H-M "C M M M"
_symmetry_group_IT_number 65
_symmetry_cell_setting 'orthorhombic'
loop_
_space_group_symop_operation_xyz
x,y,z
-x,-y,z
x,-y,-z
-x,y,-z
-x,-y,-z
x,y,-z
-x,y,z
x,-y,z
1/2+x,1/2+y,z
1/2-x,1/2-y,z
1/2+x,1/2-y,-z
1/2-x,1/2+y,-z
1/2-x,1/2-y,-z
1/2+x,1/2+y,-z
1/2-x,1/2+y,z
1/2+x,1/2-y,z
loop_
_atom_site_type_symbol
_atom_site_label
_atom_site_fract_x
_atom_site_fract_y
_atom_site_fract_z
Si Si1 0.750000 0.250000 0.335752
Si Si2 0.884326 0.397594 0.079810
Si Si3 0.384376 0.605253 0.916080
Si Si4 0.388706 0.605423 0.589056
Si Si5 0.385106 0.756120 0.799001
O O1 0.696229 0.329247 0.381658
O O2 0.665631 0.225321 0.278218
O O3 0.850721 0.500000 0.085149
O O4 0.856748 0.336603 0.146803
O O5 0.000000 0.400089 0.080397
O O6 0.857185 0.359822 0.000000
O O7 0.500000 0.612996 0.918455
O O8 0.361737 0.500000 0.904631
O O9 0.356525 0.667220 0.846534
O O10 0.352604 0.630357 0.000000
O O11 0.387752 0.609201 0.500000
O O12 0.500000 0.629397 0.612093
O O13 0.373639 0.500000 0.610796
O O14 0.500000 0.753460 0.789539
#
# Coordination Sequence:
#
# PCOD9488108 Si02
#       5
#     8  16  16  16  16
#     4  12  23  34  55  90 124 150 182 228 285 348
#     4   8  14  27  47  65  85 128 189 239 276 320
#     4   8  14  27  48  70  95 139 200 255 295 331
#     4   9  20  42  70  94 116 148 190 231 273 332
#     4  10  20  32  47  72 109 148 182 227 291 349
#
# _framework density 19.253395999999999
#
# number of rings (size 3 to 8) (size 9 to 14) (size 15 to 20)
#    0.000    2.889    0.000    3.667    0.000    4.444 
#    0.000    4.444    0.000    4.667    0.000    7.778 
#    0.000    0.000    0.000    0.000    0.000    0.000 
#
# Total GULP energy -200517.398830 kJ/mol
# GULP energy per Si atom -5569.927745 kJ/mol
# Density = 1.920957 g / cm^3
# Si number density = 19.253396 Si / 1000 Ang^3
#
#
#
# Elastic Constant Matrix: (Units=GPa)
#
#
# Indices 1 2 3 4 5 6 
#
# 1 158.9696 40.8170 38.1579 0.0000 0.0000 0.0000
# 2 40.8170 103.5528 53.5042 0.0000 0.0000 0.0000
# 3 38.1579 53.5042 82.3474 0.0000 0.0000 0.0000
# 4 0.0000 0.0000 0.0000 32.2188 0.0000 0.0000
# 5 0.0000 0.0000 0.0000 0.0000 60.4699 0.0000
# 6 0.0000 0.0000 0.0000 0.0000 0.0000 -3.5659
#
#
#
# Elastic Compliance Matrix: (Units=1/GPa)
#
#
# Indices 1 2 3 4 5 6 
#
# 1 0.007270 -0.001693 -0.002268 0.000000 0.000000 0.000000
# 2 -0.001693 0.014932 -0.008917 0.000000 0.000000 0.000000
# 3 -0.002268 -0.008917 0.018988 0.000000 0.000000 0.000000
# 4 0.000000 0.000000 0.000000 0.031038 0.000000 0.000000
# 5 0.000000 0.000000 0.000000 0.000000 0.016537 0.000000
# 6 0.000000 0.000000 0.000000 0.000000 0.000000 -0.280436
#
#
# Mechanical properties :
#
#
# Convention : Reuss Voigt Hill
#
# Bulk Modulus (GPa) = 64.79882 67.75866 66.27874
# Shear Modulus (GPa) = -31.10050 31.98394 0.44172
#
# Velocity S-wave (km/s) = -4.02347 4.08022 0.47950
# Velocity P-wave (km/s) = 3.48488 7.58070 5.89964
#
# Compressibility (1/GPa) = 0.01543238
#
# Stress axis : x y z
#
# Youngs Moduli (GPa) = 137.55518 66.97177 52.66363
#
# Poissons Ratio (x) = 0.11342 0.11946
# Poissons Ratio (y) = 0.23295 0.46960
# Poissons Ratio (z) = 0.31202 0.59718
#
# Static dielectric constant tensor:
#      x y z
#    x 1.770940 0.000000 0.000000 
#    y 0.000000 1.680120 0.000000 
#    z 0.000000 0.000000 1.645440 
# 
# From -- ./inp_files/52753.got.cif
#   From: 2010.05.17/outbox.cif.g08.bks.cpg/sg65_27_cif.got.tgz:52753.got - 2010.06.03 17:01:31.
