data_PCOD9488350
_publ_section_title
;
Structure prediction by ZEFSAII (Michael W. Deem and Ramdas Pophale) SiO2 
 PCOD9488350
Probable space group: C M M M
;
_chemical_formula_sum "Si O2"
_cell_formula_units_Z 80
_cell_length_a 13.136065
_cell_length_b 21.779585
_cell_length_c 18.130880
_cell_angle_alpha 90.000000
_cell_angle_beta 90.000000
_cell_angle_gamma 90.000000
_cell_volume 5187.209308
_symmetry_space_group_name_H-M "C M M M"
_symmetry_group_IT_number 65
_symmetry_cell_setting 'orthorhombic'
loop_
_space_group_symop_operation_xyz
x,y,z
-x,-y,z
x,-y,-z
-x,y,-z
-x,-y,-z
x,y,-z
-x,y,z
x,-y,z
1/2+x,1/2+y,z
1/2-x,1/2-y,z
1/2+x,1/2-y,-z
1/2-x,1/2+y,-z
1/2-x,1/2-y,-z
1/2+x,1/2+y,-z
1/2-x,1/2+y,z
1/2+x,1/2-y,z
loop_
_atom_site_type_symbol
_atom_site_label
_atom_site_fract_x
_atom_site_fract_y
_atom_site_fract_z
Si Si1 0.876176 0.929487 0.416077
Si Si2 0.250000 0.250000 0.198451
Si Si3 0.881014 0.853110 0.277166
Si Si4 0.382617 0.572580 0.128793
Si Si5 0.308984 0.849263 0.915267
Si Si6 0.500000 0.068212 0.089092
O O1 0.845959 0.914068 0.500000
O O2 0.842144 0.882423 0.353341
O O3 0.000000 0.929303 0.413970
O O4 0.844956 0.000000 0.400695
O O5 0.181388 0.204924 0.247519
O O6 0.310907 0.206251 0.142123
O O7 0.876455 0.905866 0.214101
O O8 0.000000 0.836490 0.285295
O O9 0.500000 0.583672 0.104738
O O10 0.361906 0.500000 0.120266
O O11 0.298415 0.614523 0.089449
O O12 0.398049 0.895616 0.892239
O O13 0.325463 0.829386 0.000000
O O14 0.500000 0.000000 0.120175
O O15 0.500000 0.064125 0.000000
#
# Coordination Sequence:
#
# PCOD9488350 Si02
#       6
#    16   8  16  16  16   8
#     4   8  13  23  43  70  95 117 141 171 212 262
#     4  10  21  32  45  62  86 120 158 186 225 268
#     4   9  17  29  44  63  90 121 149 180 216 261
#     4   9  17  29  46  68  92 117 144 181 235 287
#     4  10  20  33  47  64  86 116 154 196 236 280
#     4   9  18  32  50  68  84 108 146 197 248 278
#
# _framework density 15.422551
#
# number of rings (size 3 to 8) (size 9 to 14) (size 15 to 20)
#    0.000    2.900    0.000    2.100    1.400    4.000 
#    0.000    1.500    0.000    0.000    0.000    0.000 
#    0.000    0.000    0.000    2.200    0.000    0.200 
#
# Total GULP energy -222727.156600 kJ/mol
# GULP energy per Si atom -5568.178915 kJ/mol
# Density = 1.538745 g / cm^3
# Si number density = 15.422551 Si / 1000 Ang^3
#
#
#
# Elastic Constant Matrix: (Units=GPa)
#
#
# Indices 1 2 3 4 5 6 
#
# 1 39.8314 25.9871 26.0088 0.0000 0.0000 0.0000
# 2 25.9871 94.0804 56.3850 0.0000 0.0000 0.0000
# 3 26.0088 56.3850 95.2607 0.0000 0.0000 0.0000
# 4 0.0000 0.0000 0.0000 18.9911 0.0000 0.0000
# 5 0.0000 0.0000 0.0000 0.0000 -39.4996 0.0000
# 6 0.0000 0.0000 0.0000 0.0000 0.0000 14.6759
#
#
#
# Elastic Compliance Matrix: (Units=1/GPa)
#
#
# Indices 1 2 3 4 5 6 
#
# 1 0.032381 -0.005650 -0.005497 0.000000 0.000000 0.000000
# 2 -0.005650 0.017459 -0.008791 0.000000 0.000000 0.000000
# 3 -0.005497 -0.008791 0.017202 0.000000 0.000000 0.000000
# 4 0.000000 0.000000 0.000000 0.052656 0.000000 0.000000
# 5 0.000000 0.000000 0.000000 0.000000 -0.025317 0.000000
# 6 0.000000 0.000000 0.000000 0.000000 0.000000 0.068139
#
#
# Mechanical properties :
#
#
# Convention : Reuss Voigt Hill
#
# Bulk Modulus (GPa) = 36.81103 49.54826 43.17965
# Shear Modulus (GPa) = 23.64609 6.88625 15.26617
#
# Velocity S-wave (km/s) = 3.91988 2.11536 3.14962
# Velocity P-wave (km/s) = 6.66389 6.17764 6.42536
#
# Compressibility (1/GPa) = 0.02716577
#
# Stress axis : x y z
#
# Youngs Moduli (GPa) = 30.88210 57.27794 58.13346
#
# Poissons Ratio (x) = 0.32363 0.31954
# Poissons Ratio (y) = 0.17449 0.51106
# Poissons Ratio (z) = 0.16975 0.50354
#
# Static dielectric constant tensor:
#      x y z
#    x 2.121310 0.000000 0.000000 
#    y 0.000000 1.514990 0.000000 
#    z 0.000000 0.000000 1.522820 
# 
# From -- ./inp_files/51376.got.cif
#   From: 2010.05.17/outbox.cif.g08.bks.cpg/sg65_26_cif.got.tgz:51376.got - 2010.06.03 17:01:31.
