data_PCOD9488727
_publ_section_title
;
Structure prediction by ZEFSAII (Michael W. Deem and Ramdas Pophale) SiO2 
 PCOD9488727
Probable space group: C M M M
;
_chemical_formula_sum "Si O2"
_cell_formula_units_Z 88
_cell_length_a 18.550781
_cell_length_b 9.138648
_cell_length_c 29.179850
_cell_angle_alpha 90.000000
_cell_angle_beta 90.000000
_cell_angle_gamma 90.000000
_cell_volume 4946.832474
_symmetry_space_group_name_H-M "C M M M"
_symmetry_group_IT_number 65
_symmetry_cell_setting 'orthorhombic'
loop_
_space_group_symop_operation_xyz
x,y,z
-x,-y,z
x,-y,-z
-x,y,-z
-x,-y,-z
x,y,-z
-x,y,z
x,-y,z
1/2+x,1/2+y,z
1/2-x,1/2-y,z
1/2+x,1/2-y,-z
1/2-x,1/2+y,-z
1/2-x,1/2-y,-z
1/2+x,1/2+y,-z
1/2-x,1/2+y,z
1/2+x,1/2-y,z
loop_
_atom_site_type_symbol
_atom_site_label
_atom_site_fract_x
_atom_site_fract_y
_atom_site_fract_z
Si Si1 0.917368 0.821901 0.000000
Si Si2 0.912226 0.331603 0.274829
Si Si3 0.085029 0.174848 0.181370
Si Si4 0.327826 0.323287 0.089793
Si Si5 0.086922 0.170113 0.632372
Si Si6 0.827789 0.325731 0.552458
O O1 0.874774 0.777821 0.954326
O O2 0.000000 0.770893 0.000000
O O3 0.919345 0.000000 0.000000
O O4 0.889096 0.500000 0.277498
O O5 0.890183 0.257412 0.227136
O O6 0.889095 0.242227 0.319645
O O7 0.000000 0.329265 0.274858
O O8 0.130262 0.214802 0.136522
O O9 0.000000 0.206511 0.173759
O O10 0.090986 0.000000 0.188586
O O11 0.320734 0.500000 0.088491
O O12 0.250000 0.250000 0.088407
O O13 0.119787 0.257103 0.589899
O O14 0.000000 0.177780 0.630749
O O15 0.107972 0.000000 0.630556
O O16 0.852482 0.298918 0.500000
O O17 0.821342 0.500000 0.558737
O O18 0.750000 0.250000 0.557429
#
# Coordination Sequence:
#
# PCOD9488727 Si02
#       6
#     8  16  16  16  16  16
#     4   9  17  32  55  79 100 129 174 216 248 293
#     4   9  17  30  50  76 104 133 167 211 262 310
#     4   9  17  31  51  73  97 129 171 212 249 296
#     4  10  20  33  51  75 104 136 167 206 255 303
#     4  10  20  34  54  80 109 140 175 217 263 311
#     4  10  21  37  56  77 104 139 177 217 262 314
#
# _framework density 17.789161
#
# number of rings (size 3 to 8) (size 9 to 14) (size 15 to 20)
#    0.000    2.455    0.000    2.455    0.000    7.636 
#    0.000    2.727    0.000    4.364    0.000    0.000 
#    0.000    0.000    0.000    0.000    0.000    0.000 
#
# Total GULP energy -245506.445197 kJ/mol
# GULP energy per Si atom -5579.691936 kJ/mol
# Density = 1.774867 g / cm^3
# Si number density = 17.789161 Si / 1000 Ang^3
#
#
#
# Elastic Constant Matrix: (Units=GPa)
#
#
# Indices 1 2 3 4 5 6 
#
# 1 67.9751 44.9428 72.0318 0.0000 0.0000 0.0000
# 2 44.9428 85.6889 90.4114 0.0000 0.0000 0.0000
# 3 72.0318 90.4114 190.7094 0.0000 0.0000 0.0000
# 4 0.0000 0.0000 0.0000 23.7316 0.0000 0.0000
# 5 0.0000 0.0000 0.0000 0.0000 -26.1758 0.0000
# 6 0.0000 0.0000 0.0000 0.0000 0.0000 28.7840
#
#
#
# Elastic Compliance Matrix: (Units=1/GPa)
#
#
# Indices 1 2 3 4 5 6 
#
# 1 0.026283 -0.006624 -0.006787 0.000000 0.000000 0.000000
# 2 -0.006624 0.025019 -0.009359 0.000000 0.000000 0.000000
# 3 -0.006787 -0.009359 0.012244 0.000000 0.000000 0.000000
# 4 0.000000 0.000000 0.000000 0.042138 0.000000 0.000000
# 5 0.000000 0.000000 0.000000 0.000000 -0.038203 0.000000
# 6 0.000000 0.000000 0.000000 0.000000 0.000000 0.034741
#
#
# Mechanical properties :
#
#
# Convention : Reuss Voigt Hill
#
# Bulk Modulus (GPa) = 55.53748 84.34947 69.94348
# Shear Modulus (GPa) = 32.51726 14.40046 23.45886
#
# Velocity S-wave (km/s) = 4.28006 2.84827 3.63535
# Velocity P-wave (km/s) = 7.46411 7.63780 7.55145
#
# Compressibility (1/GPa) = 0.01800586
#
# Stress axis : x y z
#
# Youngs Moduli (GPa) = 38.04786 39.96886 81.67305
#
# Poissons Ratio (x) = 0.26476 0.55429
# Poissons Ratio (y) = 0.25204 0.76440
# Poissons Ratio (z) = 0.25822 0.37408
#
# Static dielectric constant tensor:
#      x y z
#    x 1.584780 0.000000 0.000000 
#    y 0.000000 1.596920 0.000000 
#    z 0.000000 0.000000 1.591130 
# 
# From -- ./inp_files/70952.got.cif
#   From: 2010.05.17/outbox.cif.g08.bks.cpg/sg65_36_cif.got.tgz:70952.got - 2010.06.03 17:01:31.
