data_PCOD9488238
_publ_section_title
;
Structure prediction by ZEFSAII (Michael W. Deem and Ramdas Pophale) SiO2 
 PCOD9488238
Probable space group: C M M M
;
_chemical_formula_sum "Si O2"
_cell_formula_units_Z 96
_cell_length_a 9.180082
_cell_length_b 18.556218
_cell_length_c 32.391891
_cell_angle_alpha 90.000000
_cell_angle_beta 90.000000
_cell_angle_gamma 90.000000
_cell_volume 5517.880984
_symmetry_space_group_name_H-M "C M M M"
_symmetry_group_IT_number 65
_symmetry_cell_setting 'orthorhombic'
loop_
_space_group_symop_operation_xyz
x,y,z
-x,-y,z
x,-y,-z
-x,y,-z
-x,-y,-z
x,y,-z
-x,y,z
x,-y,z
1/2+x,1/2+y,z
1/2-x,1/2-y,z
1/2+x,1/2-y,-z
1/2-x,1/2+y,-z
1/2-x,1/2-y,-z
1/2+x,1/2+y,-z
1/2-x,1/2+y,z
1/2+x,1/2-y,z
loop_
_atom_site_type_symbol
_atom_site_label
_atom_site_fract_x
_atom_site_fract_y
_atom_site_fract_z
Si Si1 0.830453 0.587614 0.954056
Si Si2 0.676433 0.414436 0.544361
Si Si3 0.673243 0.827348 0.293882
Si Si4 0.668915 0.413065 0.128440
Si Si5 0.326526 0.827507 0.199716
Si Si6 0.671826 0.586878 0.365347
O O1 0.825659 0.500000 0.954311
O O2 0.734222 0.611670 0.915559
O O3 0.000000 0.607599 0.948204
O O4 0.783607 0.611391 0.000000
O O5 0.727872 0.384161 0.500000
O O6 0.500000 0.409193 0.544721
O O7 0.709671 0.500000 0.543901
O O8 0.724495 0.386725 0.589180
O O9 0.500000 0.819690 0.298752
O O10 0.750000 0.750000 0.298301
O O11 0.701540 0.852820 0.246823
O O12 0.738502 0.879452 0.328259
O O13 0.500000 0.392417 0.132041
O O14 0.678003 0.500000 0.129664
O O15 0.760403 0.380061 0.165711
O O16 0.500000 0.820301 0.194550
O O17 0.250000 0.750000 0.195235
O O18 0.500000 0.604754 0.360955
O O19 0.682533 0.500000 0.364964
#
# Coordination Sequence:
#
# PCOD9488238 Si02
#       6
#    16  16  16  16  16  16
#     4   8  14  26  45  69  98 132 167 201 238 281
#     4   7  10  19  38  65  95 125 157 191 228 275
#     4  10  21  36  53  71  93 125 163 202 244 292
#     4  10  20  32  49  76 106 133 163 201 242 283
#     4  10  21  37  55  72  93 125 164 203 245 295
#     4   9  17  29  48  75 103 129 158 196 241 285
#
# _framework density 17.397983
#
# number of rings (size 3 to 8) (size 9 to 14) (size 15 to 20)
#    0.000    3.000    0.000    3.500    0.000    4.333 
#    0.000    5.000    0.000    1.500    0.000    2.333 
#    0.000    0.000    0.000    0.000    0.000    0.000 
#
# Total GULP energy -267277.658424 kJ/mol
# GULP energy per Si atom -5568.284551 kJ/mol
# Density = 1.735838 g / cm^3
# Si number density = 17.397983 Si / 1000 Ang^3
#
#
#
# Elastic Constant Matrix: (Units=GPa)
#
#
# Indices 1 2 3 4 5 6 
#
# 1 79.4562 23.6698 85.4685 0.0000 0.0000 0.0000
# 2 23.6698 11.0749 38.3684 0.0000 0.0000 0.0000
# 3 85.4685 38.3684 177.2950 0.0000 0.0000 0.0000
# 4 0.0000 0.0000 0.0000 -26.3347 0.0000 0.0000
# 5 0.0000 0.0000 0.0000 0.0000 25.6215 0.0000
# 6 0.0000 0.0000 0.0000 0.0000 0.0000 23.6264
#
#
#
# Elastic Compliance Matrix: (Units=1/GPa)
#
#
# Indices 1 2 3 4 5 6 
#
# 1 0.034968 -0.065273 -0.002731 0.000000 0.000000 0.000000
# 2 -0.065273 0.482645 -0.072983 0.000000 0.000000 0.000000
# 3 -0.002731 -0.072983 0.022751 0.000000 0.000000 0.000000
# 4 0.000000 0.000000 0.000000 -0.037973 0.000000 0.000000
# 5 0.000000 0.000000 0.000000 0.000000 0.039030 0.000000
# 6 0.000000 0.000000 0.000000 0.000000 0.000000 0.042326
#
#
# Mechanical properties :
#
#
# Convention : Reuss Voigt Hill
#
# Bulk Modulus (GPa) = 3.87013 62.53774 33.20394
# Shear Modulus (GPa) = 5.25292 12.60391 8.92842
#
# Velocity S-wave (km/s) = 1.73949 2.69447 2.26782
# Velocity P-wave (km/s) = 2.50274 6.76045 5.09742
#
# Compressibility (1/GPa) = 0.25838928
#
# Stress axis : x y z
#
# Youngs Moduli (GPa) = 28.59730 2.07192 43.95352
#
# Poissons Ratio (x) = 0.13524 0.12005
# Poissons Ratio (y) = 1.86664 3.20786
# Poissons Ratio (z) = 0.07811 0.15121
#
# Static dielectric constant tensor:
#      x y z
#    x 1.576510 0.000000 0.000000 
#    y 0.000000 1.569970 0.000000 
#    z 0.000000 0.000000 1.626790 
# 
# From -- ./inp_files/73221.got.cif
#   From: 2010.05.17/outbox.cif.g08.bks.cpg/sg65_37_cif.got.tgz:73221.got - 2010.06.03 17:01:31.
