data_PCOD9488633
_publ_section_title
;
Structure prediction by ZEFSAII (Michael W. Deem and Ramdas Pophale) SiO2 
 PCOD9488633
Probable space group: C M M M
;
_chemical_formula_sum "Si O2"
_cell_formula_units_Z 96
_cell_length_a 19.270624
_cell_length_b 8.714385
_cell_length_c 31.564956
_cell_angle_alpha 90.000000
_cell_angle_beta 90.000000
_cell_angle_gamma 90.000000
_cell_volume 5300.754724
_symmetry_space_group_name_H-M "C M M M"
_symmetry_group_IT_number 65
_symmetry_cell_setting 'orthorhombic'
loop_
_space_group_symop_operation_xyz
x,y,z
-x,-y,z
x,-y,-z
-x,y,-z
-x,-y,-z
x,y,-z
-x,y,z
x,-y,z
1/2+x,1/2+y,z
1/2-x,1/2-y,z
1/2+x,1/2-y,-z
1/2-x,1/2+y,-z
1/2-x,1/2-y,-z
1/2+x,1/2+y,-z
1/2-x,1/2+y,z
1/2+x,1/2-y,z
loop_
_atom_site_type_symbol
_atom_site_label
_atom_site_fract_x
_atom_site_fract_y
_atom_site_fract_z
Si Si1 0.827318 0.314307 0.126455
Si Si2 0.581676 0.184333 0.547086
Si Si3 0.326057 0.683089 0.378687
Si Si4 0.919599 0.685453 0.207545
Si Si5 0.173135 0.184096 0.718079
Si Si6 0.420419 0.186885 0.048142
O O1 0.823940 0.500000 0.125975
O O2 0.750000 0.250000 0.129850
O O3 0.874884 0.268888 0.166399
O O4 0.866180 0.262335 0.083542
O O5 0.605861 0.233804 0.500000
O O6 0.500000 0.219858 0.550114
O O7 0.622435 0.257450 0.585645
O O8 0.588815 0.000000 0.549082
O O9 0.323017 0.500000 0.379974
O O10 0.250000 0.750000 0.387024
O O11 0.345151 0.728308 0.330410
O O12 0.918372 0.500000 0.209669
O O13 0.881923 0.751818 0.248745
O O14 0.000000 0.733269 0.204249
O O15 0.250000 0.250000 0.727204
O O16 0.175990 0.000000 0.720776
O O17 0.500000 0.232711 0.057997
O O18 0.420027 0.000000 0.048446
O O19 0.404109 0.235497 0.000000
#
# Coordination Sequence:
#
# PCOD9488633 Si02
#       6
#    16  16  16  16  16  16
#     4  10  20  33  50  74 103 133 168 210 254 303
#     4   9  19  36  56  78 106 140 176 214 257 305
#     4  10  21  36  55  79 106 137 173 213 257 305
#     4  10  21  36  54  76 102 134 172 213 258 308
#     4  10  21  37  56  78 105 136 171 212 257 307
#     4   8  14  27  49  74  98 128 168 211 252 296
#
# _framework density 18.110628999999999
#
# number of rings (size 3 to 8) (size 9 to 14) (size 15 to 20)
#    0.000    2.500    0.000    3.000    0.000    8.333 
#    0.000    4.167    0.000    1.500    0.000    1.167 
#    0.000    0.000    0.000    0.000    0.000    0.000 
#
# Total GULP energy -267827.584099 kJ/mol
# GULP energy per Si atom -5579.741335 kJ/mol
# Density = 1.806941 g / cm^3
# Si number density = 18.110629 Si / 1000 Ang^3
#
#
#
# Elastic Constant Matrix: (Units=GPa)
#
#
# Indices 1 2 3 4 5 6 
#
# 1 152.4908 37.4932 125.9897 0.0000 0.0000 0.0000
# 2 37.4932 14.4761 40.1979 0.0000 0.0000 0.0000
# 3 125.9897 40.1979 160.7927 0.0000 0.0000 0.0000
# 4 0.0000 0.0000 0.0000 9.4292 0.0000 0.0000
# 5 0.0000 0.0000 0.0000 0.0000 41.2256 0.0000
# 6 0.0000 0.0000 0.0000 0.0000 0.0000 30.9994
#
#
#
# Elastic Compliance Matrix: (Units=1/GPa)
#
#
# Indices 1 2 3 4 5 6 
#
# 1 0.021906 -0.029672 -0.009747 0.000000 0.000000 0.000000
# 2 -0.029672 0.266093 -0.043273 0.000000 0.000000 0.000000
# 3 -0.009747 -0.043273 0.024674 0.000000 0.000000 0.000000
# 4 0.000000 0.000000 0.000000 0.106054 0.000000 0.000000
# 5 0.000000 0.000000 0.000000 0.000000 0.024257 0.000000
# 6 0.000000 0.000000 0.000000 0.000000 0.000000 0.032259
#
#
# Mechanical properties :
#
#
# Convention : Reuss Voigt Hill
#
# Bulk Modulus (GPa) = 6.78933 81.68012 44.23472
# Shear Modulus (GPa) = 7.24929 24.60276 15.92602
#
# Velocity S-wave (km/s) = 2.00287 3.68974 2.96864
# Velocity P-wave (km/s) = 3.01754 7.95932 6.01899
#
# Compressibility (1/GPa) = 0.14728998
#
# Stress axis : x y z
#
# Youngs Moduli (GPa) = 45.64956 3.75808 40.52786
#
# Poissons Ratio (x) = 0.11151 0.39501
# Poissons Ratio (y) = 1.35451 1.75377
# Poissons Ratio (z) = 0.44493 0.16262
#
# Static dielectric constant tensor:
#      x y z
#    x 1.586500 0.000000 0.000000 
#    y 0.000000 1.615530 0.000000 
#    z 0.000000 0.000000 1.625910 
# 
# From -- ./inp_files/75322.got.cif
#   From: 2010.05.17/outbox.cif.g08.bks.cpg/sg65_38_cif.got.tgz:75322.got - 2010.06.03 17:01:31.
