data_PCOD9488785
_publ_section_title
;
Structure prediction by ZEFSAII (Michael W. Deem and Ramdas Pophale) SiO2 
 PCOD9488785
Probable space group: C M M M
;
_chemical_formula_sum "Si O2"
_cell_formula_units_Z 96
_cell_length_a 19.295828
_cell_length_b 9.176412
_cell_length_c 31.763380
_cell_angle_alpha 90.000000
_cell_angle_beta 90.000000
_cell_angle_gamma 90.000000
_cell_volume 5624.229496
_symmetry_space_group_name_H-M "C M M M"
_symmetry_group_IT_number 65
_symmetry_cell_setting 'orthorhombic'
loop_
_space_group_symop_operation_xyz
x,y,z
-x,-y,z
x,-y,-z
-x,y,-z
-x,-y,-z
x,y,-z
-x,y,z
x,-y,z
1/2+x,1/2+y,z
1/2-x,1/2-y,z
1/2+x,1/2-y,-z
1/2-x,1/2+y,-z
1/2-x,1/2-y,-z
1/2+x,1/2+y,-z
1/2-x,1/2+y,z
1/2+x,1/2-y,z
loop_
_atom_site_type_symbol
_atom_site_label
_atom_site_fract_x
_atom_site_fract_y
_atom_site_fract_z
Si Si1 0.584489 0.331826 0.288353
Si Si2 0.175898 0.673212 0.049131
Si Si3 0.084407 0.332224 0.203893
Si Si4 0.916754 0.828443 0.117911
Si Si5 0.581699 0.174314 0.626027
Si Si6 0.175766 0.324833 0.452604
O O1 0.500000 0.328929 0.288008
O O2 0.605992 0.500000 0.286539
O O3 0.607618 0.244404 0.246999
O O4 0.605877 0.256012 0.331865
O O5 0.181309 0.500000 0.056454
O O6 0.250000 0.750000 0.055881
O O7 0.120931 0.745247 0.080262
O O8 0.156942 0.695539 0.000000
O O9 0.107016 0.500000 0.201548
O O10 0.104634 0.242627 0.162446
O O11 0.000000 0.332378 0.204696
O O12 0.000000 0.813237 0.114209
O O13 0.900297 0.000000 0.117247
O O14 0.500000 0.204229 0.620083
O O15 0.623986 0.217938 0.584618
O O16 0.588978 0.000000 0.632130
O O17 0.150737 0.288468 0.500000
O O18 0.183824 0.500000 0.450810
O O19 0.250000 0.250000 0.446799
#
# Coordination Sequence:
#
# PCOD9488785 Si02
#       6
#    16  16  16  16  16  16
#     4   9  16  26  42  66  96 127 158 193 236 286
#     4  10  21  37  56  76 100 133 172 211 252 301
#     4   9  16  27  45  69  98 131 165 200 240 288
#     4  10  20  33  51  77 107 136 168 208 252 296
#     4   9  17  29  46  69  95 122 155 195 237 280
#     4   9  18  32  49  68  91 122 158 194 234 282
#
# _framework density 17.069006000000002
#
# number of rings (size 3 to 8) (size 9 to 14) (size 15 to 20)
#    0.000    2.667    0.000    2.000    0.000    7.333 
#    0.000    3.333    0.000    1.000    0.000    9.333 
#    0.000    0.000    0.000    0.000    0.000    0.000 
#
# Total GULP energy -267613.765783 kJ/mol
# GULP energy per Si atom -5575.286787 kJ/mol
# Density = 1.703016 g / cm^3
# Si number density = 17.069006 Si / 1000 Ang^3
#
#
#
# Elastic Constant Matrix: (Units=GPa)
#
#
# Indices 1 2 3 4 5 6 
#
# 1 27.3680 41.6911 59.3533 0.0000 0.0000 0.0000
# 2 41.6911 114.6762 101.6507 0.0000 0.0000 0.0000
# 3 59.3533 101.6507 174.4598 0.0000 0.0000 0.0000
# 4 0.0000 0.0000 0.0000 28.7104 0.0000 0.0000
# 5 0.0000 0.0000 0.0000 0.0000 -13.4631 0.0000
# 6 0.0000 0.0000 0.0000 0.0000 0.0000 21.4099
#
#
#
# Elastic Compliance Matrix: (Units=1/GPa)
#
#
# Indices 1 2 3 4 5 6 
#
# 1 0.159642 -0.020466 -0.042388 0.000000 0.000000 0.000000
# 2 -0.020466 0.020658 -0.005074 0.000000 0.000000 0.000000
# 3 -0.042388 -0.005074 0.023109 0.000000 0.000000 0.000000
# 4 0.000000 0.000000 0.000000 0.034831 0.000000 0.000000
# 5 0.000000 0.000000 0.000000 0.000000 -0.074277 0.000000
# 6 0.000000 0.000000 0.000000 0.000000 0.000000 0.046707
#
#
# Mechanical properties :
#
#
# Convention : Reuss Voigt Hill
#
# Bulk Modulus (GPa) = 14.80280 80.21045 47.50662
# Shear Modulus (GPa) = 13.54855 14.91869 14.23362
#
# Velocity S-wave (km/s) = 2.82042 2.95959 2.89084
# Velocity P-wave (km/s) = 4.39289 7.66634 6.24781
#
# Compressibility (1/GPa) = 0.06755479
#
# Stress axis : x y z
#
# Youngs Moduli (GPa) = 6.26403 48.40655 43.27270
#
# Poissons Ratio (x) = 0.99066 1.83423
# Poissons Ratio (y) = 0.12820 0.21957
# Poissons Ratio (z) = 0.26552 0.24562
#
# Static dielectric constant tensor:
#      x y z
#    x 1.551390 0.000000 0.000000 
#    y 0.000000 1.570300 0.000000 
#    z 0.000000 0.000000 1.569710 
# 
# From -- ./inp_files/67834.got.cif
#   From: 2010.05.17/outbox.cif.g08.bks.cpg/sg65_34_cif.got.tgz:67834.got - 2010.06.03 17:01:31.
