data_PCOD9488383
_publ_section_title
;
Structure prediction by ZEFSAII (Michael W. Deem and Ramdas Pophale) SiO2 
 PCOD9488383
Probable space group: C M M M
;
_chemical_formula_sum "Si O2"
_cell_formula_units_Z 80
_cell_length_a 8.847721
_cell_length_b 14.920931
_cell_length_c 27.709769
_cell_angle_alpha 90.000000
_cell_angle_beta 90.000000
_cell_angle_gamma 90.000000
_cell_volume 3658.139364
_symmetry_space_group_name_H-M "C M M M"
_symmetry_group_IT_number 65
_symmetry_cell_setting 'orthorhombic'
loop_
_space_group_symop_operation_xyz
x,y,z
-x,-y,z
x,-y,-z
-x,y,-z
-x,-y,-z
x,y,-z
-x,y,z
x,-y,z
1/2+x,1/2+y,z
1/2-x,1/2-y,z
1/2+x,1/2-y,-z
1/2-x,1/2+y,-z
1/2-x,1/2-y,-z
1/2+x,1/2+y,-z
1/2-x,1/2+y,z
1/2+x,1/2-y,z
loop_
_atom_site_type_symbol
_atom_site_label
_atom_site_fract_x
_atom_site_fract_y
_atom_site_fract_z
Si Si1 0.321052 0.651178 0.799033
Si Si2 0.818095 0.351160 0.895355
Si Si3 0.824035 0.110035 0.395452
Si Si4 0.181933 0.649906 0.000000
Si Si5 0.333409 0.105789 0.701031
Si Si6 0.316091 0.394506 0.500000
O O1 0.500000 0.653191 0.804144
O O2 0.250000 0.750000 0.798373
O O3 0.249569 0.606532 0.846851
O O4 0.272821 0.613936 0.747343
O O5 0.750000 0.250000 0.896999
O O6 0.000000 0.347742 0.891028
O O7 0.777890 0.391517 0.947941
O O8 0.733736 0.142214 0.348803
O O9 0.764638 0.140978 0.447949
O O10 0.000000 0.134791 0.390584
O O11 0.820663 0.000000 0.396231
O O12 0.250000 0.750000 0.000000
O O13 0.000000 0.657061 0.000000
O O14 0.500000 0.144203 0.711774
O O15 0.348955 0.000000 0.692935
O O16 0.277290 0.500000 0.500000
O O17 0.500000 0.389299 0.500000
#
# Coordination Sequence:
#
# PCOD9488383 Si02
#       6
#    16  16  16   8  16   8
#     4  11  21  33  49  69  94 124 158 194 233 276
#     4   9  15  25  40  61  89 118 149 184 225 270
#     4   8  13  23  40  62  88 118 151 186 225 269
#     4   8  14  22  36  58  85 116 145 178 221 269
#     4  10  20  33  48  68  95 125 157 194 234 275
#     4   7  10  18  35  59  86 115 146 181 222 267
#
# _framework density 21.869040999999999
#
# number of rings (size 3 to 8) (size 9 to 14) (size 15 to 20)
#    0.000    2.900    0.000    5.400    0.000    2.000 
#    0.000    0.500    0.000    3.000    0.000    1.400 
#    0.000    5.600    0.000    0.000    0.000    0.000 
#
# Total GULP energy -222905.165895 kJ/mol
# GULP energy per Si atom -5572.629147 kJ/mol
# Density = 2.181927 g / cm^3
# Si number density = 21.869041 Si / 1000 Ang^3
#
#
#
# Elastic Constant Matrix: (Units=GPa)
#
#
# Indices 1 2 3 4 5 6 
#
# 1 109.7072 5.2638 78.4474 0.0000 0.0000 0.0000
# 2 5.2638 46.4566 13.6376 0.0000 0.0000 0.0000
# 3 78.4474 13.6376 244.2447 0.0000 0.0000 0.0000
# 4 0.0000 0.0000 0.0000 10.4789 0.0000 0.0000
# 5 0.0000 0.0000 0.0000 0.0000 37.9510 0.0000
# 6 0.0000 0.0000 0.0000 0.0000 0.0000 5.3612
#
#
#
# Elastic Compliance Matrix: (Units=1/GPa)
#
#
# Indices 1 2 3 4 5 6 
#
# 1 0.011835 -0.000229 -0.003788 0.000000 0.000000 0.000000
# 2 -0.000229 0.021889 -0.001149 0.000000 0.000000 0.000000
# 3 -0.003788 -0.001149 0.005375 0.000000 0.000000 0.000000
# 4 0.000000 0.000000 0.000000 0.095430 0.000000 0.000000
# 5 0.000000 0.000000 0.000000 0.000000 0.026350 0.000000
# 6 0.000000 0.000000 0.000000 0.000000 0.000000 0.186524
#
#
# Mechanical properties :
#
#
# Convention : Reuss Voigt Hill
#
# Bulk Modulus (GPa) = 34.76214 66.12290 50.44252
# Shear Modulus (GPa) = 13.61197 30.96221 22.28709
#
# Velocity S-wave (km/s) = 2.49756 3.76680 3.19582
# Velocity P-wave (km/s) = 4.92414 7.01568 6.06082
#
# Compressibility (1/GPa) = 0.02876693
#
# Stress axis : x y z
#
# Youngs Moduli (GPa) = 84.49409 45.68589 186.03997
#
# Poissons Ratio (x) = 0.01046 0.70481
# Poissons Ratio (y) = 0.01934 0.21370
# Poissons Ratio (z) = 0.32010 0.05248
#
# Static dielectric constant tensor:
#      x y z
#    x 1.762920 0.000000 0.000000 
#    y 0.000000 1.860210 0.000000 
#    z 0.000000 0.000000 1.887230 
# 
# From -- ./inp_files/67791.got.cif
#   From: 2010.05.17/outbox.cif.g08.bks.cpg/sg65_34_cif.got.tgz:67791.got - 2010.06.03 17:01:31.
