data_PCOD9488017
_publ_section_title
;
Structure prediction by ZEFSAII (Michael W. Deem and Ramdas Pophale) SiO2 
 PCOD9488017
Probable space group: C M M M
;
_chemical_formula_sum "Si O2"
_cell_formula_units_Z 88
_cell_length_a 20.358823
_cell_length_b 8.737841
_cell_length_c 29.231817
_cell_angle_alpha 90.000000
_cell_angle_beta 90.000000
_cell_angle_gamma 90.000000
_cell_volume 5200.111018
_symmetry_space_group_name_H-M "C M M M"
_symmetry_group_IT_number 65
_symmetry_cell_setting 'orthorhombic'
loop_
_space_group_symop_operation_xyz
x,y,z
-x,-y,z
x,-y,-z
-x,y,-z
-x,-y,-z
x,y,-z
-x,y,z
x,-y,z
1/2+x,1/2+y,z
1/2-x,1/2-y,z
1/2+x,1/2-y,-z
1/2-x,1/2+y,-z
1/2-x,1/2-y,-z
1/2+x,1/2+y,-z
1/2-x,1/2+y,z
1/2+x,1/2-y,z
loop_
_atom_site_type_symbol
_atom_site_label
_atom_site_fract_x
_atom_site_fract_y
_atom_site_fract_z
Si Si1 0.821669 0.184825 0.872446
Si Si2 0.076293 0.813051 0.500000
Si Si3 0.924661 0.813501 0.051699
Si Si4 0.678029 0.683219 0.232649
Si Si5 0.076359 0.682248 0.695378
Si Si6 0.079905 0.822181 0.400830
O O1 0.750000 0.250000 0.883320
O O2 0.875162 0.238788 0.909136
O O3 0.837612 0.228180 0.819987
O O4 0.819069 0.000000 0.874109
O O5 0.104604 0.766422 0.450656
O O6 0.000000 0.763662 0.500000
O O7 0.076154 0.000000 0.500000
O O8 0.000000 0.766226 0.060036
O O9 0.924214 0.000000 0.052228
O O10 0.906019 0.766710 0.000000
O O11 0.681004 0.500000 0.234864
O O12 0.750000 0.750000 0.243540
O O13 0.623422 0.743367 0.267277
O O14 0.078442 0.500000 0.699729
O O15 0.098192 0.729404 0.644192
O O16 0.000000 0.732221 0.700911
O O17 0.000000 0.818443 0.403473
O O18 0.098642 0.000000 0.394856
#
# Coordination Sequence:
#
# PCOD9488017 Si02
#       6
#    16   8  16  16  16  16
#     4   9  18  31  48  70  93 118 151 191 232 275
#     4   7  10  18  35  59  86 117 152 189 228 271
#     4   8  14  26  45  69  96 124 154 188 224 264
#     4  10  20  34  51  69  92 123 159 199 241 286
#     4  10  20  32  46  68  98 127 157 196 239 282
#     4   8  13  23  40  62  89 121 156 192 231 275
#
# _framework density 16.922716000000001
#
# number of rings (size 3 to 8) (size 9 to 14) (size 15 to 20)
#    0.000    3.182    0.000    2.727    0.000    2.909 
#    0.000    2.273    0.000    3.273    0.000    1.909 
#    0.000    0.000    0.000    0.000    0.000    0.000 
#
# Total GULP energy -244955.843701 kJ/mol
# GULP energy per Si atom -5567.178266 kJ/mol
# Density = 1.688420 g / cm^3
# Si number density = 16.922716 Si / 1000 Ang^3
#
#
#
# Elastic Constant Matrix: (Units=GPa)
#
#
# Indices 1 2 3 4 5 6 
#
# 1 79.0429 25.6433 99.6660 0.0000 0.0000 0.0000
# 2 25.6433 22.0154 35.5400 0.0000 0.0000 0.0000
# 3 99.6660 35.5400 163.3695 0.0000 0.0000 0.0000
# 4 0.0000 0.0000 0.0000 12.1005 0.0000 0.0000
# 5 0.0000 0.0000 0.0000 0.0000 -9.9529 0.0000
# 6 0.0000 0.0000 0.0000 0.0000 0.0000 21.0583
#
#
#
# Elastic Compliance Matrix: (Units=1/GPa)
#
#
# Indices 1 2 3 4 5 6 
#
# 1 0.058338 -0.016180 -0.032070 0.000000 0.000000 0.000000
# 2 -0.016180 0.074497 -0.006335 0.000000 0.000000 0.000000
# 3 -0.032070 -0.006335 0.027064 0.000000 0.000000 0.000000
# 4 0.000000 0.000000 0.000000 0.082641 0.000000 0.000000
# 5 0.000000 0.000000 0.000000 0.000000 -0.100473 0.000000
# 6 0.000000 0.000000 0.000000 0.000000 0.000000 0.047487
#
#
# Mechanical properties :
#
#
# Convention : Reuss Voigt Hill
#
# Bulk Modulus (GPa) = 19.71312 65.12516 42.41914
# Shear Modulus (GPa) = 15.84107 11.54641 13.69374
#
# Velocity S-wave (km/s) = 3.06287 2.61493 2.84772
# Velocity P-wave (km/s) = 4.91756 6.90540 5.99445
#
# Compressibility (1/GPa) = 0.05072764
#
# Stress axis : x y z
#
# Youngs Moduli (GPa) = 17.14140 13.42345 36.94914
#
# Poissons Ratio (x) = 0.21719 1.18497
# Poissons Ratio (y) = 0.27735 0.23408
# Poissons Ratio (z) = 0.54973 0.08504
#
# Static dielectric constant tensor:
#      x y z
#    x 1.544350 0.000000 0.000000 
#    y 0.000000 1.568290 0.000000 
#    z 0.000000 0.000000 1.599220 
# 
# From -- ./inp_files/76666.got.cif
#   From: 2010.05.17/outbox.cif.g08.bks.cpg/sg65_39_cif.got.tgz:76666.got - 2010.06.03 17:01:31.
