data_PCOD9488556
_publ_section_title
;
Structure prediction by ZEFSAII (Michael W. Deem and Ramdas Pophale) SiO2 
 PCOD9488556
Probable space group: C M M M
;
_chemical_formula_sum "Si O2"
_cell_formula_units_Z 120
_cell_length_a 30.755212
_cell_length_b 16.885340
_cell_length_c 14.064291
_cell_angle_alpha 90.000000
_cell_angle_beta 90.000000
_cell_angle_gamma 90.000000
_cell_volume 7303.758061
_symmetry_space_group_name_H-M "C M M M"
_symmetry_group_IT_number 65
_symmetry_cell_setting 'orthorhombic'
loop_
_space_group_symop_operation_xyz
x,y,z
-x,-y,z
x,-y,-z
-x,y,-z
-x,-y,-z
x,y,-z
-x,y,z
x,-y,z
1/2+x,1/2+y,z
1/2-x,1/2-y,z
1/2+x,1/2-y,-z
1/2-x,1/2+y,-z
1/2-x,1/2-y,-z
1/2+x,1/2+y,-z
1/2-x,1/2+y,z
1/2+x,1/2-y,z
loop_
_atom_site_type_symbol
_atom_site_label
_atom_site_fract_x
_atom_site_fract_y
_atom_site_fract_z
Si Si1 0.500000 0.404030 0.392684
Si Si2 0.333983 0.323312 0.609318
Si Si3 0.412653 0.405228 0.286055
Si Si4 0.550269 0.326320 0.110587
Si Si5 0.205753 0.297561 0.238360
Si Si6 0.951879 0.636755 0.113669
Si Si7 0.256969 0.906884 0.602451
Si Si8 0.355299 0.091082 0.885080
O O1 0.500000 0.500000 0.396067
O O2 0.500000 0.374246 0.500000
O O3 0.457283 0.380418 0.336951
O O4 0.340741 0.294554 0.500000
O O5 0.374807 0.369740 0.650313
O O6 0.320827 0.259132 0.689310
O O7 0.293367 0.382994 0.604980
O O8 0.409714 0.500000 0.282180
O O9 0.416868 0.369679 0.180730
O O10 0.500000 0.352896 0.126399
O O11 0.551094 0.231733 0.126571
O O12 0.560405 0.340413 0.000000
O O13 0.250000 0.250000 0.205816
O O14 0.221797 0.366608 0.307892
O O15 0.175244 0.340908 0.160914
O O16 0.905916 0.601307 0.147353
O O17 0.000000 0.611126 0.150528
O O18 0.952990 0.621640 0.000000
O O19 0.274052 0.876109 0.500000
O O20 0.262468 0.000000 0.604984
O O21 0.341683 0.000000 0.862891
O O22 0.354439 0.099665 0.000000
#
# Coordination Sequence:
#
# PCOD9488556 Si02
#       8
#     8  16  16  16  16  16  16  16
#     4   9  18  30  41  57  85 119 155 198 244 288
#     4  10  20  33  50  72  97 126 161 205 257 308
#     4  11  20  30  45  67  94 128 168 207 249 295
#     4   9  17  30  47  67  95 131 169 208 247 291
#     4  10  20  34  52  73  99 132 168 207 248 296
#     4   8  15  29  49  72  99 130 161 198 247 298
#     4   9  17  31  52  76  99 123 155 200 255 306
#     4  10  20  33  51  77 107 136 168 206 248 299
#
# _framework density 16.429898000000001
#
# number of rings (size 3 to 8) (size 9 to 14) (size 15 to 20)
#    0.000    2.467    0.667    3.200    0.000    3.733 
#    0.000    2.000    0.000    0.800    0.000    0.000 
#    0.000    0.000    0.000    7.600    0.000    0.800 
#
# Total GULP energy -334006.608532 kJ/mol
# GULP energy per Si atom -5566.776809 kJ/mol
# Density = 1.639250 g / cm^3
# Si number density = 16.429898 Si / 1000 Ang^3
#
#
#
# Elastic Constant Matrix: (Units=GPa)
#
#
# Indices 1 2 3 4 5 6 
#
# 1 65.5874 28.0649 31.5407 0.0000 0.0000 0.0000
# 2 28.0649 44.8506 21.0123 0.0000 0.0000 0.0000
# 3 31.5407 21.0123 58.9805 0.0000 0.0000 0.0000
# 4 0.0000 0.0000 0.0000 11.9495 0.0000 0.0000
# 5 0.0000 0.0000 0.0000 0.0000 -10.5678 0.0000
# 6 0.0000 0.0000 0.0000 0.0000 0.0000 20.1432
#
#
#
# Elastic Compliance Matrix: (Units=1/GPa)
#
#
# Indices 1 2 3 4 5 6 
#
# 1 0.024306 -0.010947 -0.009098 0.000000 0.000000 0.000000
# 2 -0.010947 0.031693 -0.005437 0.000000 0.000000 0.000000
# 3 -0.009098 -0.005437 0.023757 0.000000 0.000000 0.000000
# 4 0.000000 0.000000 0.000000 0.083686 0.000000 0.000000
# 5 0.000000 0.000000 0.000000 0.000000 -0.094627 0.000000
# 6 0.000000 0.000000 0.000000 0.000000 0.000000 0.049645
#
#
# Mechanical properties :
#
#
# Convention : Reuss Voigt Hill
#
# Bulk Modulus (GPa) = 34.73126 36.73936 35.73531
# Shear Modulus (GPa) = 27.92951 10.22501 19.07726
#
# Velocity S-wave (km/s) = 4.12748 2.49738 3.41123
# Velocity P-wave (km/s) = 6.62569 5.54308 6.10842
#
# Compressibility (1/GPa) = 0.02879250
#
# Stress axis : x y z
#
# Youngs Moduli (GPa) = 41.14149 31.55225 42.09270
#
# Poissons Ratio (x) = 0.34540 0.38297
# Poissons Ratio (y) = 0.45038 0.22886
# Poissons Ratio (z) = 0.37431 0.17155
#
# Static dielectric constant tensor:
#      x y z
#    x 1.583070 0.000000 0.000000 
#    y 0.000000 1.555590 0.000000 
#    z 0.000000 0.000000 1.559830 
# 
# From -- ./inp_files/48113.got.cif
#   From: 2010.05.17/outbox.cif.g08.bks.cpg/sg65_25_cif.got.tgz:48113.got - 2010.06.03 17:01:31.
