data_PCOD9488052
_publ_section_title
;
Structure prediction by ZEFSAII (Michael W. Deem and Ramdas Pophale) SiO2 
 PCOD9488052
Probable space group: C M M M
;
_chemical_formula_sum "Si O2"
_cell_formula_units_Z 96
_cell_length_a 27.675079
_cell_length_b 9.186395
_cell_length_c 24.521663
_cell_angle_alpha 90.000000
_cell_angle_beta 90.000000
_cell_angle_gamma 90.000000
_cell_volume 6234.245556
_symmetry_space_group_name_H-M "C M M M"
_symmetry_group_IT_number 65
_symmetry_cell_setting 'orthorhombic'
loop_
_space_group_symop_operation_xyz
x,y,z
-x,-y,z
x,-y,-z
-x,y,-z
-x,-y,-z
x,y,-z
-x,y,z
x,-y,z
1/2+x,1/2+y,z
1/2-x,1/2-y,z
1/2+x,1/2-y,-z
1/2-x,1/2+y,-z
1/2-x,1/2-y,-z
1/2+x,1/2+y,-z
1/2-x,1/2+y,z
1/2+x,1/2-y,z
loop_
_atom_site_type_symbol
_atom_site_label
_atom_site_fract_x
_atom_site_fract_y
_atom_site_fract_z
Si Si1 0.555985 0.826047 0.831892
Si Si2 0.697796 0.675164 0.000000
Si Si3 0.643402 0.324971 0.111442
Si Si4 0.558791 0.831781 0.500000
Si Si5 0.900409 0.824630 0.273449
Si Si6 0.299999 0.673049 0.778978
Si Si7 0.442693 0.673415 0.610042
O O1 0.500000 0.796283 0.845012
O O2 0.593523 0.755175 0.874353
O O3 0.569017 0.755577 0.773281
O O4 0.562880 0.000000 0.829603
O O5 0.750000 0.750000 0.000000
O O6 0.667457 0.713723 0.054043
O O7 0.704363 0.500000 0.000000
O O8 0.635622 0.500000 0.113239
O O9 0.680265 0.288190 0.160655
O O10 0.500000 0.823395 0.500000
O O11 0.574635 0.753680 0.444415
O O12 0.572660 0.000000 0.500000
O O13 0.844365 0.791545 0.261202
O O14 0.916570 0.783607 0.334046
O O15 0.906984 0.000000 0.267131
O O16 0.292810 0.500000 0.777819
O O17 0.250000 0.750000 0.766664
O O18 0.500000 0.702103 0.616779
O O19 0.436950 0.500000 0.602659
#
# Coordination Sequence:
#
# PCOD9488052 Si02
#       7
#    16   8  16   8  16  16  16
#     4  10  20  32  47  69  95 122 153 189 229 272
#     4  10  20  34  53  76  97 119 152 193 235 278
#     4   9  19  34  50  69  93 121 154 187 222 273
#     4   9  17  27  39  59  90 123 150 181 222 263
#     4   9  18  31  47  68  92 120 155 190 225 270
#     4   9  17  29  45  66  91 117 145 180 224 271
#     4   9  16  27  44  64  87 118 154 186 217 260
#
# _framework density 15.398815000000001
#
# number of rings (size 3 to 8) (size 9 to 14) (size 15 to 20)
#    0.000    2.750    0.000    2.750    0.000    7.000 
#    0.000    2.083    0.000    2.500    0.000    0.583 
#    0.000    0.000    0.000    0.000    0.000    0.000 
#
# Total GULP energy -267543.641827 kJ/mol
# GULP energy per Si atom -5573.825871 kJ/mol
# Density = 1.536377 g / cm^3
# Si number density = 15.398815 Si / 1000 Ang^3
#
#
#
# Elastic Constant Matrix: (Units=GPa)
#
#
# Indices 1 2 3 4 5 6 
#
# 1 107.7707 51.2475 72.3456 0.0000 0.0000 0.0000
# 2 51.2475 36.9631 51.4500 0.0000 0.0000 0.0000
# 3 72.3456 51.4500 151.9447 0.0000 0.0000 0.0000
# 4 0.0000 0.0000 0.0000 11.7461 0.0000 0.0000
# 5 0.0000 0.0000 0.0000 0.0000 15.7548 0.0000
# 6 0.0000 0.0000 0.0000 0.0000 0.0000 27.8121
#
#
#
# Elastic Compliance Matrix: (Units=1/GPa)
#
#
# Indices 1 2 3 4 5 6 
#
# 1 0.027244 -0.037294 -0.000343 0.000000 0.000000 0.000000
# 2 -0.037294 0.102224 -0.016857 0.000000 0.000000 0.000000
# 3 -0.000343 -0.016857 0.012453 0.000000 0.000000 0.000000
# 4 0.000000 0.000000 0.000000 0.085134 0.000000 0.000000
# 5 0.000000 0.000000 0.000000 0.000000 0.063473 0.000000
# 6 0.000000 0.000000 0.000000 0.000000 0.000000 0.035956
#
#
# Mechanical properties :
#
#
# Convention : Reuss Voigt Hill
#
# Bulk Modulus (GPa) = 30.36607 71.86272 51.11439
# Shear Modulus (GPa) = 11.19945 19.17164 15.18555
#
# Velocity S-wave (km/s) = 2.69976 3.53229 3.14371
# Velocity P-wave (km/s) = 5.42963 7.96273 6.81491
#
# Compressibility (1/GPa) = 0.03293150
#
# Stress axis : x y z
#
# Youngs Moduli (GPa) = 36.70583 9.78240 80.30208
#
# Poissons Ratio (x) = 0.36482 0.02758
# Poissons Ratio (y) = 1.36890 1.35369
# Poissons Ratio (z) = 0.01261 0.16491
#
# Static dielectric constant tensor:
#      x y z
#    x 1.492620 0.000000 0.000000 
#    y 0.000000 1.515170 0.000000 
#    z 0.000000 0.000000 1.503280 
# 
# From -- ./inp_files/71750.got.cif
#   From: 2010.05.17/outbox.cif.g08.bks.cpg/sg65_36_cif.got.tgz:71750.got - 2010.06.03 17:01:31.
