data_PCOD9488344
_publ_section_title
;
Structure prediction by ZEFSAII (Michael W. Deem and Ramdas Pophale) SiO2 
 PCOD9488344
Probable space group: C M M M
;
_chemical_formula_sum "Si O2"
_cell_formula_units_Z 88
_cell_length_a 8.993229
_cell_length_b 28.589009
_cell_length_c 23.941263
_cell_angle_alpha 90.000000
_cell_angle_beta 90.000000
_cell_angle_gamma 90.000000
_cell_volume 6155.478392
_symmetry_space_group_name_H-M "C M M M"
_symmetry_group_IT_number 65
_symmetry_cell_setting 'orthorhombic'
loop_
_space_group_symop_operation_xyz
x,y,z
-x,-y,z
x,-y,-z
-x,y,-z
-x,-y,-z
x,y,-z
-x,y,z
x,-y,z
1/2+x,1/2+y,z
1/2-x,1/2-y,z
1/2+x,1/2-y,-z
1/2-x,1/2+y,-z
1/2-x,1/2-y,-z
1/2+x,1/2+y,-z
1/2-x,1/2+y,z
1/2+x,1/2-y,z
loop_
_atom_site_type_symbol
_atom_site_label
_atom_site_fract_x
_atom_site_fract_y
_atom_site_fract_z
Si Si1 0.824518 0.056047 0.210130
Si Si2 0.176314 0.200030 0.066752
Si Si3 0.177778 0.606127 0.105773
Si Si4 0.325817 0.443187 0.438205
Si Si5 0.674312 0.556093 0.000000
Si Si6 0.329843 0.943123 0.325267
O O1 0.733309 0.082796 0.162902
O O2 0.768976 0.069776 0.271887
O O3 0.000000 0.064959 0.203756
O O4 0.801259 0.000000 0.203991
O O5 0.250000 0.250000 0.079460
O O6 0.256914 0.158132 0.098662
O O7 0.000000 0.200589 0.078015
O O8 0.195841 0.191761 0.000000
O O9 0.246642 0.576487 0.054640
O O10 0.000000 0.606447 0.102344
O O11 0.274250 0.427833 0.500000
O O12 0.500000 0.431258 0.432291
O O13 0.318166 0.500000 0.438171
O O14 0.235177 0.426606 0.384509
O O15 0.681749 0.500000 0.000000
O O16 0.500000 0.570072 0.000000
O O17 0.500000 0.928254 0.317622
O O18 0.328569 0.000000 0.327124
#
# Coordination Sequence:
#
# PCOD9488344 Si02
#       6
#    16  16  16  16   8  16
#     4  10  20  33  47  61  82 115 151 184 219 261
#     4  10  20  35  55  74  94 114 137 170 212 261
#     4  12  23  34  50  70  91 113 142 178 219 262
#     4   8  13  21  33  49  70  98 133 172 213 255
#     4  11  23  37  50  65  88 117 147 179 217 259
#     4   9  16  25  37  54  76 102 136 178 219 256
#
# _framework density 14.296208999999999
#
# number of rings (size 3 to 8) (size 9 to 14) (size 15 to 20)
#    0.000    2.091    0.909    4.636    0.000    7.273 
#    0.000    1.818    0.000    0.000    0.000    0.000 
#    0.000    0.000    0.000    0.000    0.000    0.909 
#
# Total GULP energy -245408.542762 kJ/mol
# GULP energy per Si atom -5577.466881 kJ/mol
# Density = 1.426367 g / cm^3
# Si number density = 14.296209 Si / 1000 Ang^3
#
#
#
# Elastic Constant Matrix: (Units=GPa)
#
#
# Indices 1 2 3 4 5 6 
#
# 1 117.1236 42.7141 58.3382 0.0000 0.0000 0.0000
# 2 42.7141 47.5533 33.0286 0.0000 0.0000 0.0000
# 3 58.3382 33.0286 103.3540 0.0000 0.0000 0.0000
# 4 0.0000 0.0000 0.0000 0.1755 0.0000 0.0000
# 5 0.0000 0.0000 0.0000 0.0000 21.3009 0.0000
# 6 0.0000 0.0000 0.0000 0.0000 0.0000 18.4496
#
#
#
# Elastic Compliance Matrix: (Units=1/GPa)
#
#
# Indices 1 2 3 4 5 6 
#
# 1 0.014591 -0.009493 -0.005202 0.000000 0.000000 0.000000
# 2 -0.009493 0.033204 -0.005253 0.000000 0.000000 0.000000
# 3 -0.005202 -0.005253 0.014291 0.000000 0.000000 0.000000
# 4 0.000000 0.000000 0.000000 5.696511 0.000000 0.000000
# 5 0.000000 0.000000 0.000000 0.000000 0.046946 0.000000
# 6 0.000000 0.000000 0.000000 0.000000 0.000000 0.054202
#
#
# Mechanical properties :
#
#
# Convention : Reuss Voigt Hill
#
# Bulk Modulus (GPa) = 45.06546 59.57697 52.32122
# Shear Modulus (GPa) = 0.84645 16.91521 8.88083
#
# Velocity S-wave (km/s) = 0.77030 3.44349 2.49510
# Velocity P-wave (km/s) = 5.69054 7.58775 6.70657
#
# Compressibility (1/GPa) = 0.02218994
#
# Stress axis : x y z
#
# Youngs Moduli (GPa) = 68.53398 30.11656 69.97626
#
# Poissons Ratio (x) = 0.28590 0.36404
# Poissons Ratio (y) = 0.65060 0.36756
# Poissons Ratio (z) = 0.35654 0.15819
#
# Static dielectric constant tensor:
#      x y z
#    x 1.475890 0.000000 0.000000 
#    y 0.000000 1.444470 0.000000 
#    z 0.000000 0.000000 1.472940 
# 
# From -- ./inp_files/60676.got.cif
#   From: 2010.05.17/outbox.cif.g08.bks.cpg/sg65_31_cif.got.tgz:60676.got - 2010.06.03 17:01:31.
