data_PCOD9488869
_publ_section_title
;
Structure prediction by ZEFSAII (Michael W. Deem and Ramdas Pophale) SiO2 
 PCOD9488869
Probable space group: C M M M
;
_chemical_formula_sum "Si O2"
_cell_formula_units_Z 104
_cell_length_a 8.661047
_cell_length_b 27.656832
_cell_length_c 22.167823
_cell_angle_alpha 90.000000
_cell_angle_beta 90.000000
_cell_angle_gamma 90.000000
_cell_volume 5310.016519
_symmetry_space_group_name_H-M "C M M M"
_symmetry_group_IT_number 65
_symmetry_cell_setting 'orthorhombic'
loop_
_space_group_symop_operation_xyz
x,y,z
-x,-y,z
x,-y,-z
-x,y,-z
-x,-y,-z
x,y,-z
-x,y,z
x,-y,z
1/2+x,1/2+y,z
1/2-x,1/2-y,z
1/2+x,1/2-y,-z
1/2-x,1/2+y,-z
1/2-x,1/2-y,-z
1/2+x,1/2+y,-z
1/2-x,1/2+y,z
1/2+x,1/2-y,z
loop_
_atom_site_type_symbol
_atom_site_label
_atom_site_fract_x
_atom_site_fract_y
_atom_site_fract_z
Si Si1 0.827060 0.798184 0.428342
Si Si2 0.186115 0.946047 0.183741
Si Si3 0.185073 0.197093 0.249602
Si Si4 0.685830 0.900644 0.696199
Si Si5 0.683526 0.097921 0.566307
Si Si6 0.685651 0.348705 0.878806
Si Si7 0.182816 0.696243 0.000000
O O1 0.845226 0.789594 0.500000
O O2 0.750000 0.750000 0.402381
O O3 0.719861 0.845106 0.426035
O O4 0.000000 0.806957 0.403932
O O5 0.256438 0.932863 0.248526
O O6 0.231207 0.903549 0.137975
O O7 0.000000 0.943687 0.189461
O O8 0.230019 0.000000 0.165078
O O9 0.250000 0.250000 0.263158
O O10 0.250101 0.153452 0.290617
O O11 0.227346 0.182804 0.180407
O O12 0.000000 0.197002 0.253709
O O13 0.500000 0.898374 0.696040
O O14 0.738974 0.921410 0.631042
O O15 0.747451 0.083193 0.500000
O O16 0.500000 0.090042 0.563699
O O17 0.500000 0.346558 0.885063
O O18 0.760432 0.330121 0.939627
O O19 0.250000 0.750000 0.000000
O O20 0.000000 0.698800 0.000000
#
# Coordination Sequence:
#
# PCOD9488869 Si02
#       7
#    16  16  16  16  16  16   8
#     4   9  16  25  38  56  79 112 155 199 243 294
#     4   9  19  38  63  86 108 138 177 224 277 327
#     4  10  20  34  53  76 105 142 183 228 274 320
#     4  10  20  33  52  78 104 133 173 221 273 329
#     4   9  18  32  47  64  91 127 165 207 259 320
#     4   9  19  36  57  82 112 146 186 227 266 314
#     4  12  24  36  55  84 121 163 198 227 261 302
#
# _framework density 19.585626000000001
#
# number of rings (size 3 to 8) (size 9 to 14) (size 15 to 20)
#    0.000    2.462    0.000    3.462    0.000    8.308 
#    0.000    0.385    0.000    2.769    0.000    3.231 
#    0.000    0.000    0.000    0.000    0.000    0.000 
#
# Total GULP energy -290046.451526 kJ/mol
# GULP energy per Si atom -5577.816376 kJ/mol
# Density = 1.954105 g / cm^3
# Si number density = 19.585626 Si / 1000 Ang^3
#
#
#
# Elastic Constant Matrix: (Units=GPa)
#
#
# Indices 1 2 3 4 5 6 
#
# 1 21.7863 16.6502 32.8863 0.0000 0.0000 0.0000
# 2 16.6502 82.5766 48.7166 0.0000 0.0000 0.0000
# 3 32.8863 48.7166 176.6936 0.0000 0.0000 0.0000
# 4 0.0000 0.0000 0.0000 -9.3997 0.0000 0.0000
# 5 0.0000 0.0000 0.0000 0.0000 17.9797 0.0000
# 6 0.0000 0.0000 0.0000 0.0000 0.0000 19.8198
#
#
#
# Elastic Compliance Matrix: (Units=1/GPa)
#
#
# Indices 1 2 3 4 5 6 
#
# 1 0.067413 -0.007393 -0.010509 0.000000 0.000000 0.000000
# 2 -0.007393 0.015273 -0.002835 0.000000 0.000000 0.000000
# 3 -0.010509 -0.002835 0.008397 0.000000 0.000000 0.000000
# 4 0.000000 0.000000 0.000000 -0.106386 0.000000 0.000000
# 5 0.000000 0.000000 0.000000 0.000000 0.055618 0.000000
# 6 0.000000 0.000000 0.000000 0.000000 0.000000 0.050455
#
#
# Mechanical properties :
#
#
# Convention : Reuss Voigt Hill
#
# Bulk Modulus (GPa) = 20.15726 53.06254 36.60990
# Shear Modulus (GPa) = 33.60657 17.86685 25.73671
#
# Velocity S-wave (km/s) = 4.14681 3.02361 3.62893
# Velocity P-wave (km/s) = 5.76561 6.27225 6.02426
#
# Compressibility (1/GPa) = 0.04960992
#
# Stress axis : x y z
#
# Youngs Moduli (GPa) = 14.83388 65.47416 119.08983
#
# Poissons Ratio (x) = 0.48406 1.25147
# Poissons Ratio (y) = 0.10967 0.33762
# Poissons Ratio (z) = 0.15588 0.18562
#
# Static dielectric constant tensor:
#      x y z
#    x 1.662240 0.000000 0.000000 
#    y 0.000000 1.683060 0.000000 
#    z 0.000000 0.000000 1.726550 
# 
# From -- ./inp_files/60401.got.cif
#   From: 2010.05.17/outbox.cif.g08.bks.cpg/sg65_31_cif.got.tgz:60401.got - 2010.06.03 17:01:31.
