data_PCOD9488155
_publ_section_title
;
Structure prediction by ZEFSAII (Michael W. Deem and Ramdas Pophale) SiO2 
 PCOD9488155
Probable space group: C M M M
;
_chemical_formula_sum "Si O2"
_cell_formula_units_Z 104
_cell_length_a 7.806163
_cell_length_b 29.640158
_cell_length_c 24.477668
_cell_angle_alpha 90.000000
_cell_angle_beta 90.000000
_cell_angle_gamma 90.000000
_cell_volume 5663.542578
_symmetry_space_group_name_H-M "C M M M"
_symmetry_group_IT_number 65
_symmetry_cell_setting 'orthorhombic'
loop_
_space_group_symop_operation_xyz
x,y,z
-x,-y,z
x,-y,-z
-x,y,-z
-x,-y,-z
x,y,-z
-x,y,z
x,-y,z
1/2+x,1/2+y,z
1/2-x,1/2-y,z
1/2+x,1/2-y,-z
1/2-x,1/2+y,-z
1/2-x,1/2-y,-z
1/2+x,1/2+y,-z
1/2-x,1/2+y,z
1/2+x,1/2-y,z
loop_
_atom_site_type_symbol
_atom_site_label
_atom_site_fract_x
_atom_site_fract_y
_atom_site_fract_z
Si Si1 0.203366 0.302309 0.832328
Si Si2 0.793056 0.302939 0.380960
Si Si3 0.209128 0.949895 0.108015
Si Si4 0.293536 0.450024 0.234942
Si Si5 0.205715 0.143628 0.059791
Si Si6 0.705934 0.803075 0.500000
Si Si7 0.295440 0.145729 0.274289
O O1 0.250000 0.250000 0.828218
O O2 0.255958 0.323716 0.889928
O O3 0.275073 0.330332 0.780607
O O4 0.000000 0.305963 0.829963
O O5 0.750000 0.250000 0.374473
O O6 0.730332 0.319443 0.440778
O O7 0.727441 0.331167 0.329356
O O8 0.000000 0.306136 0.381764
O O9 0.260139 0.943878 0.171510
O O10 0.269222 0.906821 0.074212
O O11 0.000000 0.949847 0.106743
O O12 0.263760 0.000000 0.089918
O O13 0.500000 0.450138 0.234909
O O14 0.235474 0.500000 0.252578
O O15 0.235175 0.407479 0.269574
O O16 0.000000 0.140912 0.057052
O O17 0.269247 0.158166 0.000000
O O18 0.500000 0.808181 0.500000
O O19 0.750000 0.750000 0.500000
O O20 0.500000 0.152914 0.274534
#
# Coordination Sequence:
#
# PCOD9488155 Si02
#       7
#    16  16  16  16  16   8  16
#     4  11  23  37  52  69  92 123 156 194 237 278
#     4   9  17  29  45  69  99 130 164 196 232 276
#     4   8  14  27  48  73  97 118 144 182 227 276
#     4   9  17  30  50  73  96 124 156 190 231 280
#     4  10  20  34  53  74  94 120 155 193 234 281
#     4   8  14  26  44  64  93 130 161 195 232 271
#     4  10  20  32  48  73 100 125 155 193 236 280
#
# _framework density 18.363066
#
# number of rings (size 3 to 8) (size 9 to 14) (size 15 to 20)
#    0.000    2.615    1.538    1.846    0.000    2.462 
#    0.000    1.538    0.000    0.462    0.000    1.615 
#    0.000    4.308    0.000    0.000    0.000    0.000 
#
# Total GULP energy -289896.252733 kJ/mol
# GULP energy per Si atom -5574.927937 kJ/mol
# Density = 1.832127 g / cm^3
# Si number density = 18.363066 Si / 1000 Ang^3
#
#
#
# Elastic Constant Matrix: (Units=GPa)
#
#
# Indices 1 2 3 4 5 6 
#
# 1 21.7359 -0.3316 13.0571 0.0000 0.0000 0.0000
# 2 -0.3316 113.2654 83.0757 0.0000 0.0000 0.0000
# 3 13.0571 83.0757 166.7942 0.0000 0.0000 0.0000
# 4 0.0000 0.0000 0.0000 22.8277 0.0000 0.0000
# 5 0.0000 0.0000 0.0000 0.0000 5.2860 0.0000
# 6 0.0000 0.0000 0.0000 0.0000 0.0000 11.4115
#
#
#
# Elastic Compliance Matrix: (Units=1/GPa)
#
#
# Indices 1 2 3 4 5 6 
#
# 1 0.049841 0.004739 -0.006262 0.000000 0.000000 0.000000
# 2 0.004739 0.014361 -0.007524 0.000000 0.000000 0.000000
# 3 -0.006262 -0.007524 0.010233 0.000000 0.000000 0.000000
# 4 0.000000 0.000000 0.000000 0.043806 0.000000 0.000000
# 5 0.000000 0.000000 0.000000 0.000000 0.189178 0.000000
# 6 0.000000 0.000000 0.000000 0.000000 0.000000 0.087631
#
#
# Mechanical properties :
#
#
# Convention : Reuss Voigt Hill
#
# Bulk Modulus (GPa) = 17.74906 54.82199 36.28553
# Shear Modulus (GPa) = 11.57610 21.63800 16.60705
#
# Velocity S-wave (km/s) = 2.51350 3.43643 3.01054
# Velocity P-wave (km/s) = 4.25561 6.75756 5.64690
#
# Compressibility (1/GPa) = 0.05634100
#
# Stress axis : x y z
#
# Youngs Moduli (GPa) = 20.06387 69.63229 97.72250
#
# Poissons Ratio (x) = -0.32997 0.61193
# Poissons Ratio (y) = -0.09508 0.73525
# Poissons Ratio (z) = 0.12564 0.52390
#
# Static dielectric constant tensor:
#      x y z
#    x 1.680280 0.000000 0.000000 
#    y 0.000000 1.600980 0.000000 
#    z 0.000000 0.000000 1.670250 
# 
# From -- ./inp_files/68163.got.cif
#   From: 2010.05.17/outbox.cif.g08.bks.cpg/sg65_35_cif.got.tgz:68163.got - 2010.06.03 17:01:31.
