data_PCOD9488080
_publ_section_title
;
Structure prediction by ZEFSAII (Michael W. Deem and Ramdas Pophale) SiO2 
 PCOD9488080
Probable space group: C M M M
;
_chemical_formula_sum "Si O2"
_cell_formula_units_Z 120
_cell_length_a 32.105450
_cell_length_b 15.989401
_cell_length_c 14.194518
_cell_angle_alpha 90.000000
_cell_angle_beta 90.000000
_cell_angle_gamma 90.000000
_cell_volume 7286.712016
_symmetry_space_group_name_H-M "C M M M"
_symmetry_group_IT_number 65
_symmetry_cell_setting 'orthorhombic'
loop_
_space_group_symop_operation_xyz
x,y,z
-x,-y,z
x,-y,-z
-x,y,-z
-x,-y,-z
x,y,-z
-x,y,z
x,-y,z
1/2+x,1/2+y,z
1/2-x,1/2-y,z
1/2+x,1/2-y,-z
1/2-x,1/2+y,-z
1/2-x,1/2-y,-z
1/2+x,1/2+y,-z
1/2-x,1/2+y,z
1/2+x,1/2-y,z
loop_
_atom_site_type_symbol
_atom_site_label
_atom_site_fract_x
_atom_site_fract_y
_atom_site_fract_z
Si Si1 0.549316 0.838243 0.233474
Si Si2 0.665323 0.092598 0.887033
Si Si3 0.749162 0.847848 0.791898
Si Si4 0.889319 0.599927 0.611538
Si Si5 0.206660 0.600857 0.390847
Si Si6 0.667895 0.595464 0.889788
Si Si7 0.892836 0.248872 0.111618
Si Si8 0.049833 0.500000 0.105466
O O1 0.500000 0.835760 0.251824
O O2 0.576797 0.852933 0.326188
O O3 0.566507 0.759537 0.175224
O O4 0.558498 0.917246 0.164717
O O5 0.710836 0.107741 0.844665
O O6 0.636868 0.172115 0.862752
O O7 0.650054 0.000000 0.856343
O O8 0.668225 0.092086 0.000000
O O9 0.750000 0.750000 0.816778
O O10 0.738579 0.859163 0.681958
O O11 0.792321 0.887371 0.824922
O O12 0.894613 0.615016 0.500000
O O13 0.894021 0.500000 0.626443
O O14 0.841328 0.622155 0.635584
O O15 0.213213 0.623992 0.500000
O O16 0.209784 0.500000 0.384484
O O17 0.653578 0.500000 0.878151
O O18 0.632625 0.664253 0.871210
O O19 0.680539 0.606377 0.000000
O O20 0.902315 0.254812 0.000000
O O21 0.000000 0.500000 0.094388
O O22 0.068773 0.500000 0.000000
#
# Coordination Sequence:
#
# PCOD9488080 Si02
#       8
#    16  16  16  16  16  16  16   8
#     4  11  21  32  49  73 101 136 173 210 259 315
#     4  10  20  32  47  70 102 139 174 205 240 291
#     4  12  21  30  50  76 104 135 170 216 261 302
#     4   9  18  33  52  73 100 137 179 217 250 294
#     4   9  19  35  52  70  97 137 179 213 249 300
#     4  10  21  37  55  75 102 137 176 219 264 305
#     4  10  21  35  51  73 102 136 176 215 254 305
#     4   9  18  30  43  67 103 139 168 194 235 301
#
# _framework density 16.468333999999999
#
# number of rings (size 3 to 8) (size 9 to 14) (size 15 to 20)
#    0.000    1.933    2.000    3.600    0.933    4.000 
#    0.000    0.667    0.000    0.400    0.000    1.867 
#    0.000    0.000    0.000    1.200    0.000    0.000 
#
# Total GULP energy -334979.016093 kJ/mol
# GULP energy per Si atom -5582.983602 kJ/mol
# Density = 1.643085 g / cm^3
# Si number density = 16.468334 Si / 1000 Ang^3
#
#
#
# Elastic Constant Matrix: (Units=GPa)
#
#
# Indices 1 2 3 4 5 6 
#
# 1 72.6963 33.1779 45.2800 0.0000 0.0000 0.0000
# 2 33.1779 84.3944 27.8423 0.0000 0.0000 0.0000
# 3 45.2800 27.8423 72.0025 0.0000 0.0000 0.0000
# 4 0.0000 0.0000 0.0000 14.8385 0.0000 0.0000
# 5 0.0000 0.0000 0.0000 0.0000 25.2634 0.0000
# 6 0.0000 0.0000 0.0000 0.0000 0.0000 17.0850
#
#
#
# Elastic Compliance Matrix: (Units=1/GPa)
#
#
# Indices 1 2 3 4 5 6 
#
# 1 0.024458 -0.005205 -0.013368 0.000000 0.000000 0.000000
# 2 -0.005205 0.014689 -0.002407 0.000000 0.000000 0.000000
# 3 -0.013368 -0.002407 0.023226 0.000000 0.000000 0.000000
# 4 0.000000 0.000000 0.000000 0.067392 0.000000 0.000000
# 5 0.000000 0.000000 0.000000 0.000000 0.039583 0.000000
# 6 0.000000 0.000000 0.000000 0.000000 0.000000 0.058531
#
#
# Mechanical properties :
#
#
# Convention : Reuss Voigt Hill
#
# Bulk Modulus (GPa) = 48.98782 49.07706 49.03244
# Shear Modulus (GPa) = 18.07381 19.62359 18.84870
#
# Velocity S-wave (km/s) = 3.31643 3.45569 3.38678
# Velocity P-wave (km/s) = 6.66905 6.76668 6.71804
#
# Compressibility (1/GPa) = 0.02041324
#
# Stress axis : x y z
#
# Youngs Moduli (GPa) = 40.88669 68.07628 43.05534
#
# Poissons Ratio (x) = 0.35433 0.57557
# Poissons Ratio (y) = 0.21281 0.10363
# Poissons Ratio (z) = 0.54658 0.16386
#
# Static dielectric constant tensor:
#      x y z
#    x 1.552670 0.000000 0.000000 
#    y 0.000000 1.549210 0.000000 
#    z 0.000000 0.000000 1.575220 
# 
# From -- ./inp_files/48080.got.cif
#   From: 2010.05.17/outbox.cif.g08.bks.cpg/sg65_25_cif.got.tgz:48080.got - 2010.06.03 17:01:31.
