data_PCOD9488836
_publ_section_title
;
Structure prediction by ZEFSAII (Michael W. Deem and Ramdas Pophale) SiO2 
 PCOD9488836
Probable space group: C M M M
;
_chemical_formula_sum "Si O2"
_cell_formula_units_Z 120
_cell_length_a 28.330806
_cell_length_b 8.899740
_cell_length_c 27.043916
_cell_angle_alpha 90.000000
_cell_angle_beta 90.000000
_cell_angle_gamma 90.000000
_cell_volume 6818.766640
_symmetry_space_group_name_H-M "C M M M"
_symmetry_group_IT_number 65
_symmetry_cell_setting 'orthorhombic'
loop_
_space_group_symop_operation_xyz
x,y,z
-x,-y,z
x,-y,-z
-x,y,-z
-x,-y,-z
x,y,-z
-x,y,z
x,-y,z
1/2+x,1/2+y,z
1/2-x,1/2-y,z
1/2+x,1/2-y,-z
1/2-x,1/2+y,-z
1/2-x,1/2-y,-z
1/2+x,1/2+y,-z
1/2-x,1/2+y,z
1/2+x,1/2-y,z
loop_
_atom_site_type_symbol
_atom_site_label
_atom_site_fract_x
_atom_site_fract_y
_atom_site_fract_z
Si Si1 0.945505 0.680506 0.753188
Si Si2 0.602070 0.320037 0.848969
Si Si3 0.199394 0.820101 0.199992
Si Si4 0.801473 0.318645 0.500000
Si Si5 0.055752 0.679842 0.943205
Si Si6 0.355783 0.177933 0.599370
Si Si7 0.945361 0.176403 0.558970
Si Si8 0.643747 0.320237 0.701827
O O1 0.941612 0.500000 0.752717
O O2 0.930243 0.742444 0.807046
O O3 0.907106 0.750274 0.715942
O O4 0.000000 0.720881 0.742616
O O5 0.597719 0.500000 0.843852
O O6 0.656399 0.278961 0.836659
O O7 0.585568 0.265882 0.902373
O O8 0.250000 0.750000 0.189326
O O9 0.179833 0.776729 0.254395
O O10 0.203966 0.000000 0.199114
O O11 0.799690 0.500000 0.500000
O O12 0.750000 0.250000 0.500000
O O13 0.828426 0.272290 0.450075
O O14 0.061774 0.500000 0.937378
O O15 0.000000 0.711751 0.936074
O O16 0.067707 0.718410 0.000000
O O17 0.409953 0.220903 0.588958
O O18 0.340091 0.260850 0.648894
O O19 0.350302 0.000000 0.605285
O O20 0.939788 0.202530 0.500000
O O21 0.000000 0.202849 0.571190
O O22 0.934893 0.000000 0.568043
O O23 0.639513 0.500000 0.701783
#
# Coordination Sequence:
#
# PCOD9488836 Si02
#       8
#    16  16  16   8  16  16  16  16
#     4  10  20  34  53  78 108 143 181 217 257 308
#     4  10  20  33  51  79 111 143 182 225 270 320
#     4   9  20  37  56  78 103 131 170 219 270 322
#     4  10  24  42  59  80 103 131 168 209 255 310
#     4   9  18  32  50  76 112 152 192 230 267 311
#     4  11  22  38  57  80 108 136 170 210 255 308
#     4   9  18  33  54  79 104 134 171 205 244 296
#     4  10  22  38  55  79 107 136 171 211 261 315
#
# _framework density 17.598490999999999
#
# number of rings (size 3 to 8) (size 9 to 14) (size 15 to 20)
#    0.000    2.267    0.667    3.600    0.000    8.800 
#    0.000    4.000    0.000    0.400    0.000    0.000 
#    0.000    0.000    0.000    0.000    0.000    0.000 
#
# Total GULP energy -334900.203539 kJ/mol
# GULP energy per Si atom -5581.670059 kJ/mol
# Density = 1.755844 g / cm^3
# Si number density = 17.598491 Si / 1000 Ang^3
#
#
#
# Elastic Constant Matrix: (Units=GPa)
#
#
# Indices 1 2 3 4 5 6 
#
# 1 77.1491 28.1320 42.9798 0.0000 0.0000 0.0000
# 2 28.1320 37.0499 36.0346 0.0000 0.0000 0.0000
# 3 42.9798 36.0346 112.6075 0.0000 0.0000 0.0000
# 4 0.0000 0.0000 0.0000 30.0282 0.0000 0.0000
# 5 0.0000 0.0000 0.0000 0.0000 8.4410 0.0000
# 6 0.0000 0.0000 0.0000 0.0000 0.0000 29.7039
#
#
#
# Elastic Compliance Matrix: (Units=1/GPa)
#
#
# Indices 1 2 3 4 5 6 
#
# 1 0.018996 -0.010703 -0.003825 0.000000 0.000000 0.000000
# 2 -0.010703 0.045217 -0.010385 0.000000 0.000000 0.000000
# 3 -0.003825 -0.010385 0.013664 0.000000 0.000000 0.000000
# 4 0.000000 0.000000 0.000000 0.033302 0.000000 0.000000
# 5 0.000000 0.000000 0.000000 0.000000 0.118469 0.000000
# 6 0.000000 0.000000 0.000000 0.000000 0.000000 0.033666
#
#
# Mechanical properties :
#
#
# Convention : Reuss Voigt Hill
#
# Bulk Modulus (GPa) = 35.64941 49.01104 42.33023
# Shear Modulus (GPa) = 15.50438 21.61196 18.55817
#
# Velocity S-wave (km/s) = 2.97139 3.50817 3.25088
# Velocity P-wave (km/s) = 5.66333 6.65730 6.18033
#
# Compressibility (1/GPa) = 0.02805096
#
# Stress axis : x y z
#
# Youngs Moduli (GPa) = 52.64329 22.11538 73.18769
#
# Poissons Ratio (x) = 0.23670 0.27996
# Poissons Ratio (y) = 0.56344 0.76002
# Poissons Ratio (z) = 0.20137 0.22966
#
# Static dielectric constant tensor:
#      x y z
#    x 1.583790 0.000000 0.000000 
#    y 0.000000 1.589540 0.000000 
#    z 0.000000 0.000000 1.604220 
# 
# From -- ./inp_files/76098.got.cif
#   From: 2010.05.17/outbox.cif.g08.bks.cpg/sg65_39_cif.got.tgz:76098.got - 2010.06.03 17:01:31.
