data_PCOD9488584
_publ_section_title
;
Structure prediction by ZEFSAII (Michael W. Deem and Ramdas Pophale) SiO2 
 PCOD9488584
Probable space group: C M M M
;
_chemical_formula_sum "Si O2"
_cell_formula_units_Z 112
_cell_length_a 15.084889
_cell_length_b 15.976287
_cell_length_c 23.866835
_cell_angle_alpha 90.000000
_cell_angle_beta 90.000000
_cell_angle_gamma 90.000000
_cell_volume 5751.919551
_symmetry_space_group_name_H-M "C M M M"
_symmetry_group_IT_number 65
_symmetry_cell_setting 'orthorhombic'
loop_
_space_group_symop_operation_xyz
x,y,z
-x,-y,z
x,-y,-z
-x,y,-z
-x,-y,-z
x,y,-z
-x,y,z
x,-y,z
1/2+x,1/2+y,z
1/2-x,1/2-y,z
1/2+x,1/2-y,-z
1/2-x,1/2+y,-z
1/2-x,1/2-y,-z
1/2+x,1/2+y,-z
1/2-x,1/2+y,z
1/2+x,1/2-y,z
loop_
_atom_site_type_symbol
_atom_site_label
_atom_site_fract_x
_atom_site_fract_y
_atom_site_fract_z
Si Si1 0.259872 0.595087 0.346173
Si Si2 0.600965 0.366136 0.745888
Si Si3 0.101764 0.671263 0.716615
Si Si4 0.400600 0.601356 0.875376
Si Si5 0.601565 0.899107 0.836899
Si Si6 0.272838 0.102553 0.062791
Si Si7 0.598732 0.601857 0.565313
O O1 0.233427 0.500000 0.360258
O O2 0.325861 0.592024 0.292833
O O3 0.173007 0.646248 0.329698
O O4 0.321335 0.631059 0.395751
O O5 0.500000 0.398751 0.738177
O O6 0.601366 0.269745 0.727542
O O7 0.621659 0.373294 0.811702
O O8 0.131020 0.630049 0.775606
O O9 0.000000 0.644282 0.704848
O O10 0.500000 0.631029 0.888248
O O11 0.401557 0.500000 0.875991
O O12 0.325460 0.628685 0.918394
O O13 0.500000 0.870547 0.843726
O O14 0.660942 0.869145 0.888368
O O15 0.602820 0.000000 0.837339
O O16 0.275027 0.000000 0.062701
O O17 0.294843 0.130105 0.000000
O O18 0.609156 0.623710 0.500000
O O19 0.500000 0.629524 0.584194
O O20 0.598659 0.500000 0.568737
#
# Coordination Sequence:
#
# PCOD9488584 Si02
#       7
#    16  16  16  16  16  16  16
#     4  11  20  30  51  79 104 130 163 205 247 288
#     4  10  20  33  50  73 101 130 161 201 249 298
#     4  10  21  35  50  70 100 137 170 201 242 294
#     4   9  17  29  46  68  93 121 154 194 241 294
#     4   9  17  30  48  67  87 116 158 204 244 282
#     4   9  17  28  43  65  90 115 148 193 244 294
#     4   8  15  29  49  75 106 135 164 202 247 290
#
# _framework density 19.471761000000001
#
# number of rings (size 3 to 8) (size 9 to 14) (size 15 to 20)
#    0.000    2.571    0.000    3.000    0.000    4.000 
#    0.000    2.857    0.000    3.857    0.000    8.000 
#    0.000    0.000    0.000    0.000    0.000    0.000 
#
# Total GULP energy -312528.237326 kJ/mol
# GULP energy per Si atom -5580.861381 kJ/mol
# Density = 1.942744 g / cm^3
# Si number density = 19.471761 Si / 1000 Ang^3
#
#
#
# Elastic Constant Matrix: (Units=GPa)
#
#
# Indices 1 2 3 4 5 6 
#
# 1 100.3596 16.6589 71.1581 0.0000 0.0000 0.0000
# 2 16.6589 18.6789 8.0467 0.0000 0.0000 0.0000
# 3 71.1581 8.0467 90.7823 0.0000 0.0000 0.0000
# 4 0.0000 0.0000 0.0000 -5.2194 0.0000 0.0000
# 5 0.0000 0.0000 0.0000 0.0000 23.6267 0.0000
# 6 0.0000 0.0000 0.0000 0.0000 0.0000 11.4932
#
#
#
# Elastic Compliance Matrix: (Units=1/GPa)
#
#
# Indices 1 2 3 4 5 6 
#
# 1 0.025894 -0.014920 -0.018974 0.000000 0.000000 0.000000
# 2 -0.014920 0.064258 0.005999 0.000000 0.000000 0.000000
# 3 -0.018974 0.005999 0.025356 0.000000 0.000000 0.000000
# 4 0.000000 0.000000 0.000000 -0.191592 0.000000 0.000000
# 5 0.000000 0.000000 0.000000 0.000000 0.042325 0.000000
# 6 0.000000 0.000000 0.000000 0.000000 0.000000 0.087008
#
#
# Mechanical properties :
#
#
# Convention : Reuss Voigt Hill
#
# Bulk Modulus (GPa) = 16.74520 44.61646 30.68083
# Shear Modulus (GPa) = 38.77614 13.57725 26.17670
#
# Velocity S-wave (km/s) = 4.46736 2.64347 3.67050
# Velocity P-wave (km/s) = 5.93533 5.68158 5.80984
#
# Compressibility (1/GPa) = 0.05971861
#
# Stress axis : x y z
#
# Youngs Moduli (GPa) = 38.61910 15.56217 39.43824
#
# Poissons Ratio (x) = 0.23218 0.74830
# Poissons Ratio (y) = 0.57619 -0.23659
# Poissons Ratio (z) = 0.73276 -0.09336
#
# Static dielectric constant tensor:
#      x y z
#    x 1.699390 0.000000 0.000000 
#    y 0.000000 1.693100 0.000000 
#    z 0.000000 0.000000 1.665960 
# 
# From -- ./inp_files/69956.got.cif
#   From: 2010.05.17/outbox.cif.g08.bks.cpg/sg65_35_cif.got.tgz:69956.got - 2010.06.03 17:01:31.
