data_PCOD9488012
_publ_section_title
;
Structure prediction by ZEFSAII (Michael W. Deem and Ramdas Pophale) SiO2 
 PCOD9488012
Probable space group: C M M M
;
_chemical_formula_sum "Si O2"
_cell_formula_units_Z 56
_cell_length_a 30.792344
_cell_length_b 9.116655
_cell_length_c 12.740269
_cell_angle_alpha 90.000000
_cell_angle_beta 90.000000
_cell_angle_gamma 90.000000
_cell_volume 3576.488788
_symmetry_space_group_name_H-M "C M M M"
_symmetry_group_IT_number 65
_symmetry_cell_setting 'orthorhombic'
loop_
_space_group_symop_operation_xyz
x,y,z
-x,-y,z
x,-y,-z
-x,y,-z
-x,-y,-z
x,y,-z
-x,y,z
x,-y,z
1/2+x,1/2+y,z
1/2-x,1/2-y,z
1/2+x,1/2-y,-z
1/2-x,1/2+y,-z
1/2-x,1/2-y,-z
1/2+x,1/2+y,-z
1/2-x,1/2+y,z
1/2+x,1/2-y,z
loop_
_atom_site_type_symbol
_atom_site_label
_atom_site_fract_x
_atom_site_fract_y
_atom_site_fract_z
Si Si1 0.948249 0.174440 0.716352
Si Si2 0.616324 0.825542 0.124877
Si Si3 0.447288 0.831210 0.500000
Si Si4 0.793809 0.169026 0.872343
O O1 0.921358 0.249002 0.809061
O O2 0.934537 0.246869 0.605792
O O3 0.000000 0.199271 0.729560
O O4 0.941005 0.000000 0.714065
O O5 0.662613 0.755791 0.156450
O O6 0.616579 0.000000 0.142401
O O7 0.610542 0.800172 0.000000
O O8 0.500000 0.832783 0.500000
O O9 0.432437 0.000000 0.500000
O O10 0.750000 0.250000 0.836655
O O11 0.795278 0.000000 0.837719
O O12 0.792538 0.168086 0.000000
#
# Coordination Sequence:
#
# PCOD9488012 Si02
#       4
#    16  16   8  16
#     4  10  20  33  49  69  94 124 158 196 237 280
#     4  10  20  32  46  67  96 128 161 195 233 280
#     4   9  17  31  51  71  90 115 152 197 239 277
#     4   9  16  27  44  65  90 120 154 192 233 276
#
# _framework density 15.657816
#
# number of rings (size 3 to 8) (size 9 to 14) (size 15 to 20)
#    0.000    2.429    0.000    3.000    0.000    9.143 
#    0.000    2.857    0.000    0.000    0.000    1.000 
#    0.000    0.000    0.000    0.000    0.000    0.000 
#
# Total GULP energy -156115.794247 kJ/mol
# GULP energy per Si atom -5575.564080 kJ/mol
# Density = 1.562218 g / cm^3
# Si number density = 15.657816 Si / 1000 Ang^3
#
#
#
# Elastic Constant Matrix: (Units=GPa)
#
#
# Indices 1 2 3 4 5 6 
#
# 1 90.7663 83.9149 56.5287 0.0000 0.0000 0.0000
# 2 83.9149 149.5777 70.1647 0.0000 0.0000 0.0000
# 3 56.5287 70.1647 64.9250 0.0000 0.0000 0.0000
# 4 0.0000 0.0000 0.0000 26.2557 0.0000 0.0000
# 5 0.0000 0.0000 0.0000 0.0000 -2.8541 0.0000
# 6 0.0000 0.0000 0.0000 0.0000 0.0000 30.9922
#
#
#
# Elastic Compliance Matrix: (Units=1/GPa)
#
#
# Indices 1 2 3 4 5 6 
#
# 1 0.028999 -0.008974 -0.015550 0.000000 0.000000 0.000000
# 2 -0.008974 0.016337 -0.009841 0.000000 0.000000 0.000000
# 3 -0.015550 -0.009841 0.039577 0.000000 0.000000 0.000000
# 4 0.000000 0.000000 0.000000 0.038087 0.000000 0.000000
# 5 0.000000 0.000000 0.000000 0.000000 -0.350370 0.000000
# 6 0.000000 0.000000 0.000000 0.000000 0.000000 0.032266
#
#
# Mechanical properties :
#
#
# Convention : Reuss Voigt Hill
#
# Bulk Modulus (GPa) = 61.80046 80.72063 71.26054
# Shear Modulus (GPa) = -41.32893 17.18946 -12.06973
#
# Velocity S-wave (km/s) = -5.14319 3.31693 -2.77942
# Velocity P-wave (km/s) = 2.07008 8.14458 5.94220
#
# Compressibility (1/GPa) = 0.01618111
#
# Stress axis : x y z
#
# Youngs Moduli (GPa) = 34.48443 61.21210 25.26736
#
# Poissons Ratio (x) = 0.54934 0.39290
# Poissons Ratio (y) = 0.30948 0.24866
# Poissons Ratio (z) = 0.53622 0.60241
#
# Static dielectric constant tensor:
#      x y z
#    x 1.506930 0.000000 0.000000 
#    y 0.000000 1.522770 0.000000 
#    z 0.000000 0.000000 1.498930 
# 
# From -- ./inp_files/20429.got.cif
#   From: 2010.05.17/outbox.cif.g08.bks.cpg/sg65_11_cif.got.tgz:20429.got - 2010.06.03 17:01:31.
