data_PCOD9488738
_publ_section_title
;
Structure prediction by ZEFSAII (Michael W. Deem and Ramdas Pophale) SiO2 
 PCOD9488738
Probable space group: C M M M
;
_chemical_formula_sum "Si O2"
_cell_formula_units_Z 56
_cell_length_a 7.780515
_cell_length_b 21.642421
_cell_length_c 15.349857
_cell_angle_alpha 90.000000
_cell_angle_beta 90.000000
_cell_angle_gamma 90.000000
_cell_volume 2584.749852
_symmetry_space_group_name_H-M "C M M M"
_symmetry_group_IT_number 65
_symmetry_cell_setting 'orthorhombic'
loop_
_space_group_symop_operation_xyz
x,y,z
-x,-y,z
x,-y,-z
-x,y,-z
-x,-y,-z
x,y,-z
-x,y,z
x,-y,z
1/2+x,1/2+y,z
1/2-x,1/2-y,z
1/2+x,1/2-y,-z
1/2-x,1/2+y,-z
1/2-x,1/2-y,-z
1/2+x,1/2+y,-z
1/2-x,1/2+y,z
1/2+x,1/2-y,z
loop_
_atom_site_type_symbol
_atom_site_label
_atom_site_fract_x
_atom_site_fract_y
_atom_site_fract_z
Si Si1 0.208052 0.371793 0.818598
Si Si2 0.210741 0.073265 0.500000
Si Si3 0.208881 0.500000 0.896296
Si Si4 0.204630 0.680167 0.000000
Si Si5 0.801230 0.178427 0.632673
O O1 0.257942 0.442194 0.836631
O O2 0.274795 0.337212 0.734019
O O3 0.000000 0.367784 0.814044
O O4 0.272308 0.343674 0.908973
O O5 0.269742 0.118255 0.419849
O O6 0.000000 0.069393 0.500000
O O7 0.267046 0.000000 0.500000
O O8 0.000000 0.500000 0.903433
O O9 0.266101 0.500000 0.000000
O O10 0.250000 0.750000 0.000000
O O11 0.000000 0.666516 0.000000
O O12 0.750000 0.250000 0.614054
O O13 0.000000 0.177719 0.610949
#
# Coordination Sequence:
#
# PCOD9488738 Si02
#       5
#    16   8   8   8  16
#     4  10  20  35  57  85 117 153 195 239 288 346
#     4   9  21  42  65  89 118 153 190 234 295 358
#     4   9  16  32  57  82 113 156 198 239 291 346
#     4  10  20  33  51  75 109 152 193 234 279 336
#     4  11  23  40  64  89 118 155 195 242 293 351
#
# _framework density 21.66554
#
# number of rings (size 3 to 8) (size 9 to 14) (size 15 to 20)
#    0.000    2.000    1.429    2.143    2.000    3.429 
#    0.000    2.143    0.000    4.286    0.000    0.000 
#    0.000    0.000    0.000    0.000    0.000    0.000 
#
# Total GULP energy -155872.621189 kJ/mol
# GULP energy per Si atom -5566.879328 kJ/mol
# Density = 2.161623 g / cm^3
# Si number density = 21.665540 Si / 1000 Ang^3
#
#
#
# Elastic Constant Matrix: (Units=GPa)
#
#
# Indices 1 2 3 4 5 6 
#
# 1 26.1554 13.4805 4.5421 0.0000 0.0000 0.0000
# 2 13.4805 226.0220 78.4880 0.0000 0.0000 0.0000
# 3 4.5421 78.4880 141.6217 0.0000 0.0000 0.0000
# 4 0.0000 0.0000 0.0000 56.0915 0.0000 0.0000
# 5 0.0000 0.0000 0.0000 0.0000 4.7792 0.0000
# 6 0.0000 0.0000 0.0000 0.0000 0.0000 -2.8421
#
#
#
# Elastic Compliance Matrix: (Units=1/GPa)
#
#
# Indices 1 2 3 4 5 6 
#
# 1 0.039446 -0.002369 0.000048 0.000000 0.000000 0.000000
# 2 -0.002369 0.005621 -0.003039 0.000000 0.000000 0.000000
# 3 0.000048 -0.003039 0.008744 0.000000 0.000000 0.000000
# 4 0.000000 0.000000 0.000000 0.017828 0.000000 0.000000
# 5 0.000000 0.000000 0.000000 0.000000 0.209238 0.000000
# 6 0.000000 0.000000 0.000000 0.000000 0.000000 -0.351856
#
#
# Mechanical properties :
#
#
# Convention : Reuss Voigt Hill
#
# Bulk Modulus (GPa) = 23.20741 65.20226 44.20483
# Shear Modulus (GPa) = -108.94695 31.42496 -38.76099
#
# Velocity S-wave (km/s) = -7.09894 3.81262 -4.23432
# Velocity P-wave (km/s) = 7.51388 7.03858 1.85967
#
# Compressibility (1/GPa) = 0.04308968
#
# Stress axis : x y z
#
# Youngs Moduli (GPa) = 25.35120 177.90218 114.36537
#
# Poissons Ratio (x) = 0.42151 -0.00549
# Poissons Ratio (y) = 0.06007 0.34759
# Poissons Ratio (z) = -0.00122 0.54069
#
# Static dielectric constant tensor:
#      x y z
#    x 1.824720 0.000000 0.000000 
#    y 0.000000 1.317980 0.000000 
#    z 0.000000 0.000000 1.768590 
# 
# From -- ./inp_files/35559.got.cif
#   From: 2010.05.17/outbox.cif.g08.bks.cpg/sg65_18_cif.got.tgz:35559.got - 2010.06.03 17:01:31.
