data_PCOD9488460
_publ_section_title
;
Structure prediction by ZEFSAII (Michael W. Deem and Ramdas Pophale) SiO2 
 PCOD9488460
Probable space group: C M M M
;
_chemical_formula_sum "Si O2"
_cell_formula_units_Z 88
_cell_length_a 31.711476
_cell_length_b 8.696725
_cell_length_c 17.687572
_cell_angle_alpha 90.000000
_cell_angle_beta 90.000000
_cell_angle_gamma 90.000000
_cell_volume 4877.984486
_symmetry_space_group_name_H-M "C M M M"
_symmetry_group_IT_number 65
_symmetry_cell_setting 'orthorhombic'
loop_
_space_group_symop_operation_xyz
x,y,z
-x,-y,z
x,-y,-z
-x,y,-z
-x,-y,-z
x,y,-z
-x,y,z
x,-y,z
1/2+x,1/2+y,z
1/2-x,1/2-y,z
1/2+x,1/2-y,-z
1/2-x,1/2+y,-z
1/2-x,1/2-y,-z
1/2+x,1/2+y,-z
1/2-x,1/2+y,z
1/2+x,1/2-y,z
loop_
_atom_site_type_symbol
_atom_site_label
_atom_site_fract_x
_atom_site_fract_y
_atom_site_fract_z
Si Si1 0.205569 0.184677 0.743335
Si Si2 0.952855 0.314963 0.912424
Si Si3 0.909304 0.819278 0.369011
Si Si4 0.500000 0.322936 0.409921
Si Si5 0.177497 0.683376 0.416272
Si Si6 0.882270 0.821516 0.194960
O O1 0.250000 0.250000 0.770118
O O2 0.198622 0.237891 0.656412
O O3 0.165493 0.238927 0.793206
O O4 0.205441 0.000000 0.743951
O O5 0.953224 0.500000 0.911131
O O6 0.914502 0.259225 0.861206
O O7 0.000000 0.262828 0.887178
O O8 0.947615 0.266858 0.000000
O O9 0.871755 0.728885 0.409174
O O10 0.900847 0.814961 0.279724
O O11 0.955656 0.754386 0.384687
O O12 0.907618 0.000000 0.393158
O O13 0.500000 0.500000 0.380589
O O14 0.500000 0.327750 0.500000
O O15 0.192641 0.731774 0.500000
O O16 0.182499 0.500000 0.409816
O O17 0.879451 0.000000 0.172407
#
# Coordination Sequence:
#
# PCOD9488460 Si02
#       6
#    16  16  16   8  16  16
#     4  10  21  37  56  78 103 133 172 216 263 315
#     4   9  19  35  54  79 111 144 176 208 246 298
#     4   9  18  31  47  68  95 131 174 217 259 309
#     4   9  16  26  43  65  90 127 172 214 257 303
#     4  10  20  33  49  70  98 132 171 217 267 315
#     4   9  19  33  52  78 105 134 169 212 258 304
#
# _framework density 18.040237000000001
#
# number of rings (size 3 to 8) (size 9 to 14) (size 15 to 20)
#    0.000    2.636    0.000    3.273    1.273    6.909 
#    0.000    1.364    0.000    2.182    0.000    0.000 
#    0.000    0.000    0.000    0.000    0.000    0.000 
#
# Total GULP energy -245271.005992 kJ/mol
# GULP energy per Si atom -5574.341045 kJ/mol
# Density = 1.799918 g / cm^3
# Si number density = 18.040237 Si / 1000 Ang^3
#
#
#
# Elastic Constant Matrix: (Units=GPa)
#
#
# Indices 1 2 3 4 5 6 
#
# 1 156.0841 24.5002 49.8521 0.0000 0.0000 0.0000
# 2 24.5002 31.1132 22.3066 0.0000 0.0000 0.0000
# 3 49.8521 22.3066 61.7066 0.0000 0.0000 0.0000
# 4 0.0000 0.0000 0.0000 23.2175 0.0000 0.0000
# 5 0.0000 0.0000 0.0000 0.0000 10.7050 0.0000
# 6 0.0000 0.0000 0.0000 0.0000 0.0000 24.9403
#
#
#
# Elastic Compliance Matrix: (Units=1/GPa)
#
#
# Indices 1 2 3 4 5 6 
#
# 1 0.008773 -0.002466 -0.006196 0.000000 0.000000 0.000000
# 2 -0.002466 0.044078 -0.013942 0.000000 0.000000 0.000000
# 3 -0.006196 -0.013942 0.026251 0.000000 0.000000 0.000000
# 4 0.000000 0.000000 0.000000 0.043071 0.000000 0.000000
# 5 0.000000 0.000000 0.000000 0.000000 0.093414 0.000000
# 6 0.000000 0.000000 0.000000 0.000000 0.000000 0.040096
#
#
# Mechanical properties :
#
#
# Convention : Reuss Voigt Hill
#
# Bulk Modulus (GPa) = 29.50317 49.13575 39.31946
# Shear Modulus (GPa) = 16.01596 21.92225 18.96910
#
# Velocity S-wave (km/s) = 2.98281 3.48973 3.24618
# Velocity P-wave (km/s) = 5.31531 6.59800 5.99108
#
# Compressibility (1/GPa) = 0.03389466
#
# Stress axis : x y z
#
# Youngs Moduli (GPa) = 113.98801 22.68705 38.09333
#
# Poissons Ratio (x) = 0.05594 0.23603
# Poissons Ratio (y) = 0.28109 0.53109
# Poissons Ratio (z) = 0.70628 0.31630
#
# Static dielectric constant tensor:
#      x y z
#    x 1.654350 0.000000 0.000000 
#    y 0.000000 1.623340 0.000000 
#    z 0.000000 0.000000 1.597220 
# 
# From -- ./inp_files/58028.got.cif
#   From: 2010.05.17/outbox.cif.g08.bks.cpg/sg65_30_cif.got.tgz:58028.got - 2010.06.03 17:01:31.
