data_PCOD9488217
_publ_section_title
;
Structure prediction by ZEFSAII (Michael W. Deem and Ramdas Pophale) SiO2 
 PCOD9488217
Probable space group: C M M M
;
_chemical_formula_sum "Si O2"
_cell_formula_units_Z 92
_cell_length_a 23.556789
_cell_length_b 28.762968
_cell_length_c 7.468415
_cell_angle_alpha 90.000000
_cell_angle_beta 90.000000
_cell_angle_gamma 90.000000
_cell_volume 5060.322929
_symmetry_space_group_name_H-M "C M M M"
_symmetry_group_IT_number 65
_symmetry_cell_setting 'orthorhombic'
loop_
_space_group_symop_operation_xyz
x,y,z
-x,-y,z
x,-y,-z
-x,y,-z
-x,-y,-z
x,y,-z
-x,y,z
x,-y,z
1/2+x,1/2+y,z
1/2-x,1/2-y,z
1/2+x,1/2-y,-z
1/2-x,1/2+y,-z
1/2-x,1/2-y,-z
1/2+x,1/2+y,-z
1/2-x,1/2+y,z
1/2+x,1/2-y,z
loop_
_atom_site_type_symbol
_atom_site_label
_atom_site_fract_x
_atom_site_fract_y
_atom_site_fract_z
Si Si1 0.361730 0.143103 0.711140
Si Si2 0.240925 0.000000 0.291349
Si Si3 0.852062 0.897096 0.000000
Si Si4 0.143610 0.000000 0.000000
Si Si5 0.067332 0.809118 0.000000
Si Si6 0.252365 0.397841 0.285242
Si Si7 0.933274 0.731130 0.713315
Si Si8 0.065715 0.551576 0.784292
O O1 0.355408 0.150839 0.500000
O O2 0.297937 0.135540 0.779319
O O3 0.396363 0.187389 0.778742
O O4 0.397021 0.095549 0.731048
O O5 0.184930 0.000000 0.171528
O O6 0.270268 0.049129 0.254488
O O7 0.226033 0.000000 0.500000
O O8 0.882122 0.948170 0.000000
O O9 0.896288 0.855567 0.000000
O O10 0.809547 0.893459 0.170802
O O11 0.079894 0.776874 0.827515
O O12 0.000000 0.819145 0.000000
O O13 0.261771 0.392531 0.500000
O O14 0.925014 0.738244 0.500000
O O15 0.000000 0.720265 0.740867
O O16 0.084815 0.500000 0.722480
O O17 0.000000 0.557734 0.726709
O O18 0.065771 0.550607 0.000000
#
# Coordination Sequence:
#
# PCOD9488217 Si02
#       8
#    16   8   8   4   8  16  16  16
#     4  10  20  32  49  73 101 137 185 229 268 311
#     4   8  14  28  46  67 102 142 177 210 243 289
#     4  10  20  37  59  82 109 139 167 198 257 319
#     4   8  16  32  53  80 106 132 163 188 236 310
#     4  10  22  39  62  86 102 128 171 212 255 319
#     4   9  19  32  49  77 110 142 179 218 256 307
#     4   9  19  36  55  77 105 138 180 228 271 308
#     4   9  19  32  43  64  99 139 184 234 286 324
#
# _framework density 18.180658000000001
#
# number of rings (size 3 to 8) (size 9 to 14) (size 15 to 20)
#    0.000    2.783    0.000    1.043    3.652    2.087 
#    0.000    2.826    0.000    3.130    0.000    0.000 
#    0.000    9.739    0.000    0.000    0.000    0.000 
#
# Total GULP energy -256306.198569 kJ/mol
# GULP energy per Si atom -5571.873882 kJ/mol
# Density = 1.813928 g / cm^3
# Si number density = 18.180658 Si / 1000 Ang^3
#
#
#
# Elastic Constant Matrix: (Units=GPa)
#
#
# Indices 1 2 3 4 5 6 
#
# 1 61.3945 77.4511 23.1339 0.0000 0.0000 0.0000
# 2 77.4511 155.3838 36.9348 0.0000 0.0000 0.0000
# 3 23.1339 36.9348 61.6348 0.0000 0.0000 0.0000
# 4 0.0000 0.0000 0.0000 23.6574 0.0000 0.0000
# 5 0.0000 0.0000 0.0000 0.0000 90.3177 0.0000
# 6 0.0000 0.0000 0.0000 0.0000 0.0000 33.4395
#
#
#
# Elastic Compliance Matrix: (Units=1/GPa)
#
#
# Indices 1 2 3 4 5 6 
#
# 1 0.044709 -0.021336 -0.003996 0.000000 0.000000 0.000000
# 2 -0.021336 0.017686 -0.002590 0.000000 0.000000 0.000000
# 3 -0.003996 -0.002590 0.019277 0.000000 0.000000 0.000000
# 4 0.000000 0.000000 0.000000 0.042270 0.000000 0.000000
# 5 0.000000 0.000000 0.000000 0.000000 0.011072 0.000000
# 6 0.000000 0.000000 0.000000 0.000000 0.000000 0.029905
#
#
# Mechanical properties :
#
#
# Convention : Reuss Voigt Hill
#
# Bulk Modulus (GPa) = 38.71666 61.49475 50.10570
# Shear Modulus (GPa) = 21.79869 38.87581 30.33725
#
# Velocity S-wave (km/s) = 3.46642 4.62920 4.08935
# Velocity P-wave (km/s) = 6.11254 7.90382 7.06518
#
# Compressibility (1/GPa) = 0.02582867
#
# Stress axis : x y z
#
# Youngs Moduli (GPa) = 22.36678 56.54148 51.87631
#
# Poissons Ratio (x) = 1.20634 0.20728
# Poissons Ratio (y) = 0.47721 0.13438
# Poissons Ratio (z) = 0.08937 0.14647
#
# Static dielectric constant tensor:
#      x y z
#    x 1.603900 0.000000 0.000000 
#    y 0.000000 1.637660 0.000000 
#    z 0.000000 0.000000 1.649690 
# 
# From -- ./inp_files/14676.got.cif
#   From: 2010.05.17/outbox.cif.g08.bks.cpg/sg65_8_cif.got.tgz:14676.got - 2010.06.03 17:01:31.
