data_PCOD9488228
_publ_section_title
;
Structure prediction by ZEFSAII (Michael W. Deem and Ramdas Pophale) SiO2 
 PCOD9488228
Probable space group: C M M M
;
_chemical_formula_sum "Si O2"
_cell_formula_units_Z 96
_cell_length_a 27.988495
_cell_length_b 19.818370
_cell_length_c 7.355011
_cell_angle_alpha 90.000000
_cell_angle_beta 90.000000
_cell_angle_gamma 90.000000
_cell_volume 4079.724203
_symmetry_space_group_name_H-M "C M M M"
_symmetry_group_IT_number 65
_symmetry_cell_setting 'orthorhombic'
loop_
_space_group_symop_operation_xyz
x,y,z
-x,-y,z
x,-y,-z
-x,y,-z
-x,-y,-z
x,y,-z
-x,y,z
x,-y,z
1/2+x,1/2+y,z
1/2-x,1/2-y,z
1/2+x,1/2-y,-z
1/2-x,1/2+y,-z
1/2-x,1/2-y,-z
1/2+x,1/2+y,-z
1/2-x,1/2+y,z
1/2+x,1/2-y,z
loop_
_atom_site_type_symbol
_atom_site_label
_atom_site_fract_x
_atom_site_fract_y
_atom_site_fract_z
Si Si1 0.797060 0.215997 0.710183
Si Si2 0.944257 0.073827 0.278926
Si Si3 0.098672 0.213099 0.279814
Si Si4 0.753678 0.077534 0.219805
Si Si5 0.146406 0.420934 0.219753
Si Si6 0.051993 0.651221 0.787432
O O1 0.798531 0.237547 0.500000
O O2 0.750000 0.250000 0.793705
O O3 0.848697 0.233330 0.788599
O O4 0.789498 0.135313 0.717072
O O5 0.943095 0.074197 0.500000
O O6 0.915350 0.138647 0.216490
O O7 0.000000 0.080163 0.227813
O O8 0.926723 0.000000 0.219780
O O9 0.100096 0.211700 0.500000
O O10 0.060386 0.268874 0.225774
O O11 0.699873 0.097944 0.281058
O O12 0.762916 0.000000 0.277223
O O13 0.754109 0.077520 0.000000
O O14 0.140652 0.500000 0.260030
O O15 0.100228 0.381679 0.290356
O O16 0.147363 0.413733 0.000000
O O17 0.000000 0.633003 0.710431
O O18 0.050877 0.632116 0.000000
#
# Coordination Sequence:
#
# PCOD9488228 Si02
#       6
#    16  16  16  16  16  16
#     4  10  21  34  48  71 101 130 165 209 251 291
#     4   8  14  26  45  67  87 109 145 190 227 266
#     4  10  20  33  50  70  94 128 164 196 238 294
#     4   9  18  33  53  75  98 129 169 206 245 300
#     4   8  15  30  51  73  98 129 165 202 239 287
#     4  10  20  32  49  75 102 127 160 204 250 292
#
# _framework density 23.531002999999998
#
# number of rings (size 3 to 8) (size 9 to 14) (size 15 to 20)
#    0.000    2.833    0.000    3.000    0.000    3.333 
#    0.000    3.333    0.000    2.000    0.000    3.500 
#    0.000    0.000    0.000    0.000    0.000    0.000 
#
# Total GULP energy -268136.367370 kJ/mol
# GULP energy per Si atom -5586.174320 kJ/mol
# Density = 2.347745 g / cm^3
# Si number density = 23.531003 Si / 1000 Ang^3
#
#
#
# Elastic Constant Matrix: (Units=GPa)
#
#
# Indices 1 2 3 4 5 6 
#
# 1 70.0752 -0.7998 -2.1208 0.0000 0.0000 0.0000
# 2 -0.7998 33.7613 -9.7257 0.0000 0.0000 0.0000
# 3 -2.1208 -9.7257 91.2158 0.0000 0.0000 0.0000
# 4 0.0000 0.0000 0.0000 14.0307 0.0000 0.0000
# 5 0.0000 0.0000 0.0000 0.0000 -29.9636 0.0000
# 6 0.0000 0.0000 0.0000 0.0000 0.0000 41.1783
#
#
#
# Elastic Compliance Matrix: (Units=1/GPa)
#
#
# Indices 1 2 3 4 5 6 
#
# 1 0.014287 0.000448 0.000380 0.000000 0.000000 0.000000
# 2 0.000448 0.030572 0.003270 0.000000 0.000000 0.000000
# 3 0.000380 0.003270 0.011321 0.000000 0.000000 0.000000
# 4 0.000000 0.000000 0.000000 0.071272 0.000000 0.000000
# 5 0.000000 0.000000 0.000000 0.000000 -0.033374 0.000000
# 6 0.000000 0.000000 0.000000 0.000000 0.000000 0.024285
#
#
# Mechanical properties :
#
#
# Convention : Reuss Voigt Hill
#
# Bulk Modulus (GPa) = 15.53379 18.86219 17.19799
# Shear Modulus (GPa) = 37.98652 18.89566 28.44109
#
# Velocity S-wave (km/s) = 4.02222 2.83682 3.48036
# Velocity P-wave (km/s) = 5.30912 4.33167 4.84510
#
# Compressibility (1/GPa) = 0.06437580
#
# Stress axis : x y z
#
# Youngs Moduli (GPa) = 69.99371 32.70932 88.33517
#
# Poissons Ratio (x) = -0.01465 -0.03356
# Poissons Ratio (y) = -0.03135 -0.28887
# Poissons Ratio (z) = -0.02659 -0.10696
#
# Static dielectric constant tensor:
#      x y z
#    x 1.877950 0.000000 0.000000 
#    y 0.000000 1.865310 0.000000 
#    z 0.000000 0.000000 1.901590 
# 
# From -- ./inp_files/12307.got.cif
#   From: 2010.05.17/outbox.cif.g08.bks.cpg/sg65_7_cif.got.tgz:12307.got - 2010.06.03 17:01:31.
