data_PCOD9488279
_publ_section_title
;
Structure prediction by ZEFSAII (Michael W. Deem and Ramdas Pophale) SiO2 
 PCOD9488279
Probable space group: C M M M
;
_chemical_formula_sum "Si O2"
_cell_formula_units_Z 64
_cell_length_a 13.389320
_cell_length_b 13.754413
_cell_length_c 19.181624
_cell_angle_alpha 90.000000
_cell_angle_beta 90.000000
_cell_angle_gamma 90.000000
_cell_volume 3532.530786
_symmetry_space_group_name_H-M "C M M M"
_symmetry_group_IT_number 65
_symmetry_cell_setting 'orthorhombic'
loop_
_space_group_symop_operation_xyz
x,y,z
-x,-y,z
x,-y,-z
-x,y,-z
-x,-y,-z
x,y,-z
-x,y,z
x,-y,z
1/2+x,1/2+y,z
1/2-x,1/2-y,z
1/2+x,1/2-y,-z
1/2-x,1/2+y,-z
1/2-x,1/2-y,-z
1/2+x,1/2+y,-z
1/2-x,1/2+y,z
1/2+x,1/2-y,z
loop_
_atom_site_type_symbol
_atom_site_label
_atom_site_fract_x
_atom_site_fract_y
_atom_site_fract_z
Si Si1 0.000000 0.884443 0.314792
Si Si2 0.882805 0.881712 0.922968
Si Si3 0.890382 0.615722 0.694937
Si Si4 0.305553 0.381328 0.223783
Si Si5 0.500000 0.780396 0.582200
O O1 0.901708 0.856634 0.270746
O O2 0.000000 0.828056 0.387417
O O3 0.000000 0.000000 0.323716
O O4 0.822869 0.848043 0.855364
O O5 0.000000 0.856689 0.914290
O O6 0.878837 0.000000 0.923313
O O7 0.849856 0.848743 0.000000
O O8 0.879979 0.500000 0.684179
O O9 0.797626 0.649532 0.740476
O O10 0.905886 0.666735 0.620086
O O11 0.000000 0.632136 0.729285
O O12 0.303386 0.500000 0.221707
O O13 0.500000 0.787730 0.500000
#
# Coordination Sequence:
#
# PCOD9488279 Si02
#       5
#     8  16  16  16   8
#     4  10  20  32  50  76 102 132 161 195 254 313
#     4   8  12  19  37  70 106 134 164 204 245 284
#     4   8  17  33  53  74  95 127 171 211 243 286
#     4   9  15  28  48  72 103 132 164 206 246 295
#     4  10  21  37  54  74  98 125 164 214 254 299
#
# _framework density 18.117322999999999
#
# number of rings (size 3 to 8) (size 9 to 14) (size 15 to 20)
#    0.750    2.500    1.250    0.750    0.000    2.250 
#    0.000    2.500    0.000    5.250    0.000   10.500 
#    0.000    0.000    0.000    0.000    0.000    0.000 
#
# Total GULP energy -178140.679329 kJ/mol
# GULP energy per Si atom -5566.896229 kJ/mol
# Density = 1.807609 g / cm^3
# Si number density = 18.117323 Si / 1000 Ang^3
#
#
#
# Elastic Constant Matrix: (Units=GPa)
#
#
# Indices 1 2 3 4 5 6 
#
# 1 127.3455 34.4088 101.4074 0.0000 0.0000 0.0000
# 2 34.4088 57.0611 32.6546 0.0000 0.0000 0.0000
# 3 101.4074 32.6546 194.7520 0.0000 0.0000 0.0000
# 4 0.0000 0.0000 0.0000 12.2073 0.0000 0.0000
# 5 0.0000 0.0000 0.0000 0.0000 22.5121 0.0000
# 6 0.0000 0.0000 0.0000 0.0000 0.0000 17.5273
#
#
#
# Elastic Compliance Matrix: (Units=1/GPa)
#
#
# Indices 1 2 3 4 5 6 
#
# 1 0.014562 -0.004913 -0.006759 0.000000 0.000000 0.000000
# 2 -0.004913 0.021043 -0.000970 0.000000 0.000000 0.000000
# 3 -0.006759 -0.000970 0.008817 0.000000 0.000000 0.000000
# 4 0.000000 0.000000 0.000000 0.081918 0.000000 0.000000
# 5 0.000000 0.000000 0.000000 0.000000 0.044421 0.000000
# 6 0.000000 0.000000 0.000000 0.000000 0.000000 0.057054
#
#
# Mechanical properties :
#
#
# Convention : Reuss Voigt Hill
#
# Bulk Modulus (GPa) = 52.25270 79.56669 65.90970
# Shear Modulus (GPa) = 19.26943 24.49520 21.88232
#
# Velocity S-wave (km/s) = 3.26481 3.68099 3.47913
# Velocity P-wave (km/s) = 6.56627 7.87902 7.25241
#
# Compressibility (1/GPa) = 0.01913777
#
# Stress axis : x y z
#
# Youngs Moduli (GPa) = 68.66984 47.52168 113.42146
#
# Poissons Ratio (x) = 0.23350 0.76659
# Poissons Ratio (y) = 0.33741 0.11001
# Poissons Ratio (z) = 0.46413 0.04609
#
# Static dielectric constant tensor:
#      x y z
#    x 1.627870 0.000000 0.000000 
#    y 0.000000 1.670520 0.000000 
#    z 0.000000 0.000000 1.597760 
# 
# From -- ./inp_files/52669.got.cif
#   From: 2010.05.17/outbox.cif.g08.bks.cpg/sg65_27_cif.got.tgz:52669.got - 2010.06.03 17:01:31.
