data_PCOD9488587
_publ_section_title
;
Structure prediction by ZEFSAII (Michael W. Deem and Ramdas Pophale) SiO2 
 PCOD9488587
Probable space group: C M M M
;
_chemical_formula_sum "Si O2"
_cell_formula_units_Z 64
_cell_length_a 15.061695
_cell_length_b 8.934361
_cell_length_c 21.851073
_cell_angle_alpha 90.000000
_cell_angle_beta 90.000000
_cell_angle_gamma 90.000000
_cell_volume 2940.425046
_symmetry_space_group_name_H-M "C M M M"
_symmetry_group_IT_number 65
_symmetry_cell_setting 'orthorhombic'
loop_
_space_group_symop_operation_xyz
x,y,z
-x,-y,z
x,-y,-z
-x,y,-z
-x,-y,-z
x,y,-z
-x,y,z
x,-y,z
1/2+x,1/2+y,z
1/2-x,1/2-y,z
1/2+x,1/2-y,-z
1/2-x,1/2+y,-z
1/2-x,1/2-y,-z
1/2+x,1/2+y,-z
1/2-x,1/2+y,z
1/2+x,1/2-y,z
loop_
_atom_site_type_symbol
_atom_site_label
_atom_site_fract_x
_atom_site_fract_y
_atom_site_fract_z
Si Si1 0.394989 0.665547 0.811403
Si Si2 0.891488 0.674149 0.067524
Si Si3 0.652366 0.177753 0.311759
Si Si4 0.150763 0.820640 0.567281
O O1 0.500000 0.650294 0.821118
O O2 0.357395 0.500000 0.798022
O O3 0.358522 0.733118 0.874421
O O4 0.385773 0.772283 0.753177
O O5 0.866240 0.500000 0.073567
O O6 0.000000 0.677125 0.068267
O O7 0.864293 0.729280 0.000000
O O8 0.750000 0.250000 0.310758
O O9 0.607891 0.248653 0.372427
O O10 0.654934 0.000000 0.317595
O O11 0.110457 0.791043 0.500000
O O12 0.250000 0.750000 0.564687
O O13 0.156599 0.000000 0.574830
#
# Coordination Sequence:
#
# PCOD9488587 Si02
#       4
#    16  16  16  16
#     4  10  20  33  50  73 101 131 164 202 243 289
#     4   8  14  26  45  69  96 125 159 199 240 282
#     4  11  21  33  51  73 100 131 164 202 243 290
#     4   9  16  27  45  69  96 124 157 198 241 284
#
# _framework density 21.765561000000002
#
# number of rings (size 3 to 8) (size 9 to 14) (size 15 to 20)
#    0.000    2.500    0.000    6.000    0.000    3.500 
#    0.000    2.500    0.000    1.500    0.000    5.250 
#    0.000    0.000    0.000    0.000    0.000    0.000 
#
# Total GULP energy -178499.808268 kJ/mol
# GULP energy per Si atom -5578.119008 kJ/mol
# Density = 2.171602 g / cm^3
# Si number density = 21.765561 Si / 1000 Ang^3
#
#
#
# Elastic Constant Matrix: (Units=GPa)
#
#
# Indices 1 2 3 4 5 6 
#
# 1 36.7861 8.4411 10.7015 0.0000 0.0000 0.0000
# 2 8.4411 156.0490 99.0898 0.0000 0.0000 0.0000
# 3 10.7015 99.0898 218.8371 0.0000 0.0000 0.0000
# 4 0.0000 0.0000 0.0000 121.1321 0.0000 0.0000
# 5 0.0000 0.0000 0.0000 0.0000 6.7318 0.0000
# 6 0.0000 0.0000 0.0000 0.0000 0.0000 9.9407
#
#
#
# Elastic Compliance Matrix: (Units=1/GPa)
#
#
# Indices 1 2 3 4 5 6 
#
# 1 0.027665 -0.000895 -0.000948 0.000000 0.000000 0.000000
# 2 -0.000895 0.009023 -0.004042 0.000000 0.000000 0.000000
# 3 -0.000948 -0.004042 0.006446 0.000000 0.000000 0.000000
# 4 0.000000 0.000000 0.000000 0.008255 0.000000 0.000000
# 5 0.000000 0.000000 0.000000 0.000000 0.148549 0.000000
# 6 0.000000 0.000000 0.000000 0.000000 0.000000 0.100596
#
#
# Mechanical properties :
#
#
# Convention : Reuss Voigt Hill
#
# Bulk Modulus (GPa) = 31.88188 72.01522 51.94855
# Shear Modulus (GPa) = 15.49142 47.12358 31.30750
#
# Velocity S-wave (km/s) = 2.67074 4.65806 3.79673
# Velocity P-wave (km/s) = 4.91835 7.87963 6.56806
#
# Compressibility (1/GPa) = 0.03136578
#
# Stress axis : x y z
#
# Youngs Moduli (GPa) = 36.14653 110.82453 155.13059
#
# Poissons Ratio (x) = 0.09915 0.14703
# Poissons Ratio (y) = 0.03234 0.62704
# Poissons Ratio (z) = 0.03426 0.44795
#
# Static dielectric constant tensor:
#      x y z
#    x 1.863490 0.000000 0.000000 
#    y 0.000000 1.760360 0.000000 
#    z 0.000000 0.000000 1.856890 
# 
# From -- ./inp_files/49358.got.cif
#   From: 2010.05.17/outbox.cif.g08.bks.cpg/sg65_25_cif.got.tgz:49358.got - 2010.06.03 17:01:31.
