data_PCOD9488310
_publ_section_title
;
Structure prediction by ZEFSAII (Michael W. Deem and Ramdas Pophale) SiO2 
 PCOD9488310
Probable space group: C M M M
;
_chemical_formula_sum "Si O2"
_cell_formula_units_Z 88
_cell_length_a 7.989996
_cell_length_b 23.948078
_cell_length_c 23.727318
_cell_angle_alpha 90.000000
_cell_angle_beta 90.000000
_cell_angle_gamma 90.000000
_cell_volume 4540.104788
_symmetry_space_group_name_H-M "C M M M"
_symmetry_group_IT_number 65
_symmetry_cell_setting 'orthorhombic'
loop_
_space_group_symop_operation_xyz
x,y,z
-x,-y,z
x,-y,-z
-x,y,-z
-x,-y,-z
x,y,-z
-x,y,z
x,-y,z
1/2+x,1/2+y,z
1/2-x,1/2-y,z
1/2+x,1/2-y,-z
1/2-x,1/2+y,-z
1/2-x,1/2-y,-z
1/2+x,1/2+y,-z
1/2-x,1/2+y,z
1/2+x,1/2-y,z
loop_
_atom_site_type_symbol
_atom_site_label
_atom_site_fract_x
_atom_site_fract_y
_atom_site_fract_z
Si Si1 0.202426 0.815138 0.500000
Si Si2 0.798223 0.882020 0.169830
Si Si3 0.298208 0.314163 0.277983
Si Si4 0.202110 0.813335 0.936096
Si Si5 0.798435 0.879242 0.611660
Si Si6 0.800281 0.500000 0.650208
Si Si7 0.300581 0.000000 0.219753
O O1 0.250000 0.750000 0.500000
O O2 0.262845 0.847749 0.444264
O O3 0.000000 0.817377 0.500000
O O4 0.736311 0.842799 0.220748
O O5 0.737012 0.857347 0.110407
O O6 0.753416 0.944784 0.186502
O O7 0.000000 0.878593 0.168628
O O8 0.500000 0.318037 0.277849
O O9 0.250000 0.250000 0.281095
O O10 0.235471 0.347654 0.332456
O O11 0.250000 0.750000 0.919958
O O12 0.000000 0.815921 0.937480
O O13 0.263628 0.823293 0.000000
O O14 0.000000 0.875154 0.611243
O O15 0.754677 0.944038 0.618343
O O16 0.734365 0.500000 0.715315
O O17 0.000000 0.500000 0.653180
O O18 0.500000 0.000000 0.223514
#
# Coordination Sequence:
#
# PCOD9488310 Si02
#       7
#     8  16  16  16  16   8   8
#     4  10  22  39  60  85 113 148 184 220 269 322
#     4  10  20  35  55  78 106 144 183 219 269 327
#     4  10  20  32  51  78 106 138 176 219 267 317
#     4   9  18  33  54  81 112 145 181 221 266 319
#     4  10  21  38  58  80 110 147 183 219 266 327
#     4  11  23  38  58  84 109 140 182 231 280 320
#     4  11  23  37  55  81 109 139 180 231 280 322
#
# _framework density 19.382812999999999
#
# number of rings (size 3 to 8) (size 9 to 14) (size 15 to 20)
#    0.000    2.000    1.818    1.636    0.000    4.000 
#    0.000    2.273    0.000    2.727    0.000    0.000 
#    0.000    0.000    0.000    0.000    0.000    0.000 
#
# Total GULP energy -245694.551476 kJ/mol
# GULP energy per Si atom -5583.967079 kJ/mol
# Density = 1.933870 g / cm^3
# Si number density = 19.382813 Si / 1000 Ang^3
#
#
#
# Elastic Constant Matrix: (Units=GPa)
#
#
# Indices 1 2 3 4 5 6 
#
# 1 10.5558 -2.9897 16.0008 0.0000 0.0000 0.0000
# 2 -2.9897 188.7045 105.3118 0.0000 0.0000 0.0000
# 3 16.0008 105.3118 156.7055 0.0000 0.0000 0.0000
# 4 0.0000 0.0000 0.0000 31.5713 0.0000 0.0000
# 5 0.0000 0.0000 0.0000 0.0000 3.9310 0.0000
# 6 0.0000 0.0000 0.0000 0.0000 0.0000 34.3279
#
#
#
# Elastic Compliance Matrix: (Units=1/GPa)
#
#
# Indices 1 2 3 4 5 6 
#
# 1 0.136603 0.015919 -0.024646 0.000000 0.000000 0.000000
# 2 0.015919 0.010335 -0.008571 0.000000 0.000000 0.000000
# 3 -0.024646 -0.008571 0.014658 0.000000 0.000000 0.000000
# 4 0.000000 0.000000 0.000000 0.031674 0.000000 0.000000
# 5 0.000000 0.000000 0.000000 0.000000 0.254388 0.000000
# 6 0.000000 0.000000 0.000000 0.000000 0.000000 0.029131
#
#
# Mechanical properties :
#
#
# Convention : Reuss Voigt Hill
#
# Bulk Modulus (GPa) = 7.87408 65.84571 36.85989
# Shear Modulus (GPa) = 9.02989 29.80890 19.41939
#
# Velocity S-wave (km/s) = 2.16075 3.92587 3.16869
# Velocity P-wave (km/s) = 3.20879 7.38883 5.69610
#
# Compressibility (1/GPa) = 0.12699902
#
# Stress axis : x y z
#
# Youngs Moduli (GPa) = 7.32049 96.76266 68.22349
#
# Poissons Ratio (x) = -1.54033 1.68144
# Poissons Ratio (y) = -0.11653 0.58472
# Poissons Ratio (z) = 0.18042 0.82932
#
# Static dielectric constant tensor:
#      x y z
#    x 1.687150 0.000000 0.000000 
#    y 0.000000 1.632050 0.000000 
#    z 0.000000 0.000000 1.697020 
# 
# From -- ./inp_files/59866.got.cif
#   From: 2010.05.17/outbox.cif.g08.bks.cpg/sg65_30_cif.got.tgz:59866.got - 2010.06.03 17:01:31.
