data_PCOD9488267
_publ_section_title
;
Structure prediction by ZEFSAII (Michael W. Deem and Ramdas Pophale) SiO2 
 PCOD9488267
Probable space group: C M M M
;
_chemical_formula_sum "Si O2"
_cell_formula_units_Z 100
_cell_length_a 7.963182
_cell_length_b 31.756111
_cell_length_c 20.833188
_cell_angle_alpha 90.000000
_cell_angle_beta 90.000000
_cell_angle_gamma 90.000000
_cell_volume 5268.290155
_symmetry_space_group_name_H-M "C M M M"
_symmetry_group_IT_number 65
_symmetry_cell_setting 'orthorhombic'
loop_
_space_group_symop_operation_xyz
x,y,z
-x,-y,z
x,-y,-z
-x,y,-z
-x,-y,-z
x,y,-z
-x,y,z
x,-y,z
1/2+x,1/2+y,z
1/2-x,1/2-y,z
1/2+x,1/2-y,-z
1/2-x,1/2+y,-z
1/2-x,1/2-y,-z
1/2+x,1/2+y,-z
1/2-x,1/2+y,z
1/2+x,1/2-y,z
loop_
_atom_site_type_symbol
_atom_site_label
_atom_site_fract_x
_atom_site_fract_y
_atom_site_fract_z
Si Si1 0.696374 0.683207 0.642168
Si Si2 0.500000 0.046406 0.386541
Si Si3 0.297245 0.678111 0.500000
Si Si4 0.295418 0.047608 0.073743
Si Si5 0.000000 0.611830 0.500000
Si Si6 0.306968 0.204036 0.782609
Si Si7 0.308797 0.414035 0.321961
Si Si8 0.706001 0.886999 0.817816
O O1 0.500000 0.692185 0.652510
O O2 0.739305 0.698459 0.570088
O O3 0.787639 0.700553 0.705037
O O4 0.718008 0.632385 0.646052
O O5 0.500000 0.082079 0.439317
O O6 0.332212 0.054325 0.345938
O O7 0.500000 0.000000 0.414349
O O8 0.500000 0.668648 0.500000
O O9 0.168548 0.639405 0.500000
O O10 0.500000 0.047599 0.073989
O O11 0.243158 0.084670 0.121681
O O12 0.243366 0.000000 0.093183
O O13 0.242234 0.054388 0.000000
O O14 0.500000 0.201807 0.798432
O O15 0.250000 0.250000 0.803179
O O16 0.232629 0.161661 0.814353
O O17 0.500000 0.426745 0.335587
O O18 0.279184 0.407244 0.246652
O O19 0.500000 0.887643 0.813476
#
# Coordination Sequence:
#
# PCOD9488267 Si02
#       8
#    16   8   8  16   4  16  16  16
#     4   9  18  33  54  76 100 130 171 219 271 331
#     4  12  25  38  52  76 107 140 185 241 288 339
#     4  10  20  33  56  82  99 132 179 227 273 343
#     4   8  14  26  48  81 117 148 181 226 279 332
#     4  12  23  36  60  70 104 138 190 232 286 344
#     4  10  20  32  50  74 107 141 180 226 275 331
#     4  10  20  36  55  76 103 139 183 230 283 339
#     4   9  17  31  54  83 111 145 187 226 274 339
#
# _framework density 18.981491999999999
#
# number of rings (size 3 to 8) (size 9 to 14) (size 15 to 20)
#    0.000    2.400    2.400    1.080    2.240    1.600 
#    0.000    0.400    0.000    2.400    0.000    1.120 
#    0.000    0.000    0.000    0.000    0.000    0.480 
#
# Total GULP energy -278595.293133 kJ/mol
# GULP energy per Si atom -5571.905863 kJ/mol
# Density = 1.893829 g / cm^3
# Si number density = 18.981492 Si / 1000 Ang^3
#
#
#
# Elastic Constant Matrix: (Units=GPa)
#
#
# Indices 1 2 3 4 5 6 
#
# 1 45.4657 32.3247 8.9507 0.0000 0.0000 0.0000
# 2 32.3247 106.7797 57.0139 0.0000 0.0000 0.0000
# 3 8.9507 57.0139 97.7974 0.0000 0.0000 0.0000
# 4 0.0000 0.0000 0.0000 -2.9146 0.0000 0.0000
# 5 0.0000 0.0000 0.0000 0.0000 9.6436 0.0000
# 6 0.0000 0.0000 0.0000 0.0000 0.0000 11.9412
#
#
#
# Elastic Compliance Matrix: (Units=1/GPa)
#
#
# Indices 1 2 3 4 5 6 
#
# 1 0.028856 -0.010636 0.003560 0.000000 0.000000 0.000000
# 2 -0.010636 0.017518 -0.009239 0.000000 0.000000 0.000000
# 3 0.003560 -0.009239 0.015286 0.000000 0.000000 0.000000
# 4 0.000000 0.000000 0.000000 -0.343103 0.000000 0.000000
# 5 0.000000 0.000000 0.000000 0.000000 0.103696 0.000000
# 6 0.000000 0.000000 0.000000 0.000000 0.000000 0.083743
#
#
# Mechanical properties :
#
#
# Convention : Reuss Voigt Hill
#
# Bulk Modulus (GPa) = 34.44916 49.62461 42.03688
# Shear Modulus (GPa) = -96.71761 13.85095 -41.43333
#
# Velocity S-wave (km/s) = -7.14593 2.70424 -4.67714
# Velocity P-wave (km/s) = 7.06381 5.99592 2.64069
#
# Compressibility (1/GPa) = 0.02902829
#
# Stress axis : x y z
#
# Youngs Moduli (GPa) = 34.65527 57.08426 65.42064
#
# Poissons Ratio (x) = 0.60714 -0.23287
# Poissons Ratio (y) = 0.36859 0.60443
# Poissons Ratio (z) = -0.12336 0.52741
#
# Static dielectric constant tensor:
#      x y z
#    x 1.777560 0.000000 0.000000 
#    y 0.000000 1.693670 0.000000 
#    z 0.000000 0.000000 1.654320 
# 
# From -- ./inp_files/60975.got.cif
#   From: 2010.05.17/outbox.cif.g08.bks.cpg/sg65_31_cif.got.tgz:60975.got - 2010.06.03 17:01:31.
