data_PCOD9488170
_publ_section_title
;
Structure prediction by ZEFSAII (Michael W. Deem and Ramdas Pophale) SiO2 
 PCOD9488170
Probable space group: C M M M
;
_chemical_formula_sum "Si O2"
_cell_formula_units_Z 88
_cell_length_a 19.019636
_cell_length_b 8.225433
_cell_length_c 29.266332
_cell_angle_alpha 90.000000
_cell_angle_beta 90.000000
_cell_angle_gamma 90.000000
_cell_volume 4578.563747
_symmetry_space_group_name_H-M "C M M M"
_symmetry_group_IT_number 65
_symmetry_cell_setting 'orthorhombic'
loop_
_space_group_symop_operation_xyz
x,y,z
-x,-y,z
x,-y,-z
-x,y,-z
-x,-y,-z
x,y,-z
-x,y,z
x,-y,z
1/2+x,1/2+y,z
1/2-x,1/2-y,z
1/2+x,1/2-y,-z
1/2-x,1/2+y,-z
1/2-x,1/2-y,-z
1/2+x,1/2+y,-z
1/2-x,1/2+y,z
1/2+x,1/2-y,z
loop_
_atom_site_type_symbol
_atom_site_label
_atom_site_fract_x
_atom_site_fract_y
_atom_site_fract_z
Si Si1 0.918631 0.800956 0.500000
Si Si2 0.580866 0.696287 0.774926
Si Si3 0.330412 0.306212 0.412087
Si Si4 0.169839 0.196716 0.138081
Si Si5 0.419354 0.805861 0.674032
Si Si6 0.918621 0.198238 0.948856
O O1 0.876683 0.745716 0.455005
O O2 0.000000 0.748763 0.500000
O O3 0.919010 0.000000 0.500000
O O4 0.500000 0.750212 0.781750
O O5 0.581076 0.500000 0.775217
O O6 0.629277 0.753517 0.816441
O O7 0.603460 0.752714 0.724707
O O8 0.330403 0.500000 0.414320
O O9 0.250000 0.250000 0.414563
O O10 0.368204 0.255070 0.365364
O O11 0.250000 0.250000 0.138428
O O12 0.130156 0.254803 0.092356
O O13 0.166873 0.000000 0.137954
O O14 0.500000 0.745125 0.667071
O O15 0.420938 0.000000 0.672506
O O16 0.000000 0.245250 0.941493
O O17 0.917356 0.000000 0.948699
O O18 0.897299 0.250558 0.000000
#
# Coordination Sequence:
#
# PCOD9488170 Si02
#       6
#     8  16  16  16  16  16
#     4   9  19  36  59  85 110 141 182 223 262 310
#     4   9  18  34  55  75  97 132 178 221 258 301
#     4  11  22  37  58  83 114 148 181 219 264 314
#     4  10  20  32  48  73 103 133 166 207 256 309
#     4  10  21  37  57  82 110 139 176 221 267 317
#     4   8  14  27  49  74  97 125 166 212 251 292
#
# _framework density 19.219999999999999
#
# number of rings (size 3 to 8) (size 9 to 14) (size 15 to 20)
#    0.000    2.455    0.000    3.000    0.000    5.818 
#    0.000    3.182    0.000    4.909    0.000    1.273 
#    0.000    0.000    0.000    0.000    0.000    0.000 
#
# Total GULP energy -245613.493619 kJ/mol
# GULP energy per Si atom -5582.124855 kJ/mol
# Density = 1.917625 g / cm^3
# Si number density = 19.220000 Si / 1000 Ang^3
#
#
#
# Elastic Constant Matrix: (Units=GPa)
#
#
# Indices 1 2 3 4 5 6 
#
# 1 155.6708 16.3519 146.5068 0.0000 0.0000 0.0000
# 2 16.3519 15.3773 22.9845 0.0000 0.0000 0.0000
# 3 146.5068 22.9845 221.8506 0.0000 0.0000 0.0000
# 4 0.0000 0.0000 0.0000 4.2415 0.0000 0.0000
# 5 0.0000 0.0000 0.0000 0.0000 21.8157 0.0000
# 6 0.0000 0.0000 0.0000 0.0000 0.0000 23.2105
#
#
#
# Elastic Compliance Matrix: (Units=1/GPa)
#
#
# Indices 1 2 3 4 5 6 
#
# 1 0.017003 -0.001535 -0.011069 0.000000 0.000000 0.000000
# 2 -0.001535 0.077085 -0.006973 0.000000 0.000000 0.000000
# 3 -0.011069 -0.006973 0.012540 0.000000 0.000000 0.000000
# 4 0.000000 0.000000 0.000000 0.235768 0.000000 0.000000
# 5 0.000000 0.000000 0.000000 0.000000 0.045839 0.000000
# 6 0.000000 0.000000 0.000000 0.000000 0.000000 0.043084
#
#
# Mechanical properties :
#
#
# Convention : Reuss Voigt Hill
#
# Bulk Modulus (GPa) = 14.82054 84.95392 49.88723
# Shear Modulus (GPa) = 10.14274 23.65722 16.89998
#
# Velocity S-wave (km/s) = 2.29970 3.51217 2.96850
# Velocity P-wave (km/s) = 3.84438 7.79384 6.14504
#
# Compressibility (1/GPa) = 0.06747394
#
# Stress axis : x y z
#
# Youngs Moduli (GPa) = 58.81390 12.97267 79.74514
#
# Poissons Ratio (x) = 0.01991 0.88273
# Poissons Ratio (y) = 0.09028 0.55603
# Poissons Ratio (z) = 0.65103 0.09045
#
# Static dielectric constant tensor:
#      x y z
#    x 1.610250 0.000000 0.000000 
#    y 0.000000 1.678080 0.000000 
#    z 0.000000 0.000000 1.660670 
# 
# From -- ./inp_files/76560.got.cif
#   From: 2010.05.17/outbox.cif.g08.bks.cpg/sg65_39_cif.got.tgz:76560.got - 2010.06.03 17:01:31.
