data_PCOD9488233
_publ_section_title
;
Structure prediction by ZEFSAII (Michael W. Deem and Ramdas Pophale) SiO2 
 PCOD9488233
Probable space group: C M M M
;
_chemical_formula_sum "Si O2"
_cell_formula_units_Z 120
_cell_length_a 14.243682
_cell_length_b 29.949975
_cell_length_c 14.886305
_cell_angle_alpha 90.000000
_cell_angle_beta 90.000000
_cell_angle_gamma 90.000000
_cell_volume 6350.466747
_symmetry_space_group_name_H-M "C M M M"
_symmetry_group_IT_number 65
_symmetry_cell_setting 'orthorhombic'
loop_
_space_group_symop_operation_xyz
x,y,z
-x,-y,z
x,-y,-z
-x,y,-z
-x,-y,-z
x,y,-z
-x,y,z
x,-y,z
1/2+x,1/2+y,z
1/2-x,1/2-y,z
1/2+x,1/2-y,-z
1/2-x,1/2+y,-z
1/2-x,1/2-y,-z
1/2+x,1/2+y,-z
1/2-x,1/2+y,z
1/2+x,1/2-y,z
loop_
_atom_site_type_symbol
_atom_site_label
_atom_site_fract_x
_atom_site_fract_y
_atom_site_fract_z
Si Si1 0.500000 0.946283 0.398825
Si Si2 0.612794 0.907569 0.104847
Si Si3 0.751159 0.873838 0.602939
Si Si4 0.392938 0.281885 0.844380
Si Si5 0.814367 0.552342 0.284208
Si Si6 0.894549 0.698575 0.606977
Si Si7 0.311920 0.808046 0.897585
Si Si8 0.606208 0.701514 0.362097
O O1 0.500000 0.927124 0.500000
O O2 0.592460 0.935479 0.342404
O O3 0.500000 0.000000 0.406594
O O4 0.500000 0.909317 0.116434
O O5 0.662056 0.937420 0.180692
O O6 0.650262 0.857300 0.119777
O O7 0.632529 0.919353 0.000000
O O8 0.731170 0.888649 0.500000
O O9 0.761612 0.915127 0.670343
O O10 0.670108 0.841001 0.641622
O O11 0.837226 0.839655 0.599984
O O12 0.500000 0.285620 0.881357
O O13 0.363076 0.229644 0.838716
O O14 0.301208 0.303880 0.890338
O O15 0.394625 0.302004 0.745175
O O16 0.794547 0.500000 0.296041
O O17 0.898898 0.691304 0.500000
O O18 0.856649 0.748667 0.618575
O O19 0.000000 0.696797 0.644609
O O20 0.337907 0.796128 0.000000
O O21 0.500000 0.701567 0.395916
#
# Coordination Sequence:
#
# PCOD9488233 Si02
#       8
#     8  16  16  16  16  16  16  16
#     4   9  18  34  53  75 107 141 174 218 269 325
#     4  10  21  37  57  82 112 147 190 236 284 342
#     4  11  23  36  56  81 110 152 193 233 284 340
#     4  10  20  32  49  75 109 149 190 232 282 336
#     4  11  23  38  57  82 110 144 186 234 287 343
#     4   9  19  33  49  75 109 143 181 223 268 323
#     4  10  21  34  51  77 108 146 192 241 287 338
#     4  10  21  35  53  79 109 146 190 235 277 326
#
# _framework density 18.896249000000001
#
# number of rings (size 3 to 8) (size 9 to 14) (size 15 to 20)
#    0.000    1.933    0.667    3.200    6.533    4.533 
#    0.000    0.667    0.000    0.400    0.000    0.933 
#    0.000    0.000    0.000   11.467    0.000    0.133 
#
# Total GULP energy -334799.990188 kJ/mol
# GULP energy per Si atom -5579.999836 kJ/mol
# Density = 1.885324 g / cm^3
# Si number density = 18.896249 Si / 1000 Ang^3
#
#
#
# Elastic Constant Matrix: (Units=GPa)
#
#
# Indices 1 2 3 4 5 6 
#
# 1 68.4256 29.8572 11.9775 0.0000 0.0000 0.0000
# 2 29.8572 111.3137 35.2901 0.0000 0.0000 0.0000
# 3 11.9775 35.2901 87.6609 0.0000 0.0000 0.0000
# 4 0.0000 0.0000 0.0000 27.1329 0.0000 0.0000
# 5 0.0000 0.0000 0.0000 0.0000 18.4616 0.0000
# 6 0.0000 0.0000 0.0000 0.0000 0.0000 17.5022
#
#
#
# Elastic Compliance Matrix: (Units=1/GPa)
#
#
# Indices 1 2 3 4 5 6 
#
# 1 0.016574 -0.004273 -0.000544 0.000000 0.000000 0.000000
# 2 -0.004273 0.011400 -0.004005 0.000000 0.000000 0.000000
# 3 -0.000544 -0.004005 0.013094 0.000000 0.000000 0.000000
# 4 0.000000 0.000000 0.000000 0.036856 0.000000 0.000000
# 5 0.000000 0.000000 0.000000 0.000000 0.054167 0.000000
# 6 0.000000 0.000000 0.000000 0.000000 0.000000 0.057136
#
#
# Mechanical properties :
#
#
# Convention : Reuss Voigt Hill
#
# Bulk Modulus (GPa) = 42.69367 46.84999 44.77183
# Shear Modulus (GPa) = 23.29054 25.30435 24.29745
#
# Velocity S-wave (km/s) = 3.51458 3.66337 3.58974
# Velocity P-wave (km/s) = 6.25399 6.53764 6.39739
#
# Compressibility (1/GPa) = 0.02342268
#
# Stress axis : x y z
#
# Youngs Moduli (GPa) = 60.33465 87.72248 76.36833
#
# Poissons Ratio (x) = 0.37484 0.04157
# Poissons Ratio (y) = 0.25781 0.30588
# Poissons Ratio (z) = 0.03285 0.35136
#
# Static dielectric constant tensor:
#      x y z
#    x 1.695320 0.000000 0.000000 
#    y 0.000000 1.635610 0.000000 
#    z 0.000000 0.000000 1.692810 
# 
# From -- ./inp_files/41457.got.cif
#   From: 2010.05.17/outbox.cif.g08.bks.cpg/sg65_21_cif.got.tgz:41457.got - 2010.06.03 17:01:31.
