data_PCOD9488949
_publ_section_title
;
Structure prediction by ZEFSAII (Michael W. Deem and Ramdas Pophale) SiO2 
 PCOD9488949
Probable space group: C M M M
;
_chemical_formula_sum "Si O2"
_cell_formula_units_Z 96
_cell_length_a 23.580538
_cell_length_b 24.781561
_cell_length_c 7.625703
_cell_angle_alpha 90.000000
_cell_angle_beta 90.000000
_cell_angle_gamma 90.000000
_cell_volume 4456.175181
_symmetry_space_group_name_H-M "C M M M"
_symmetry_group_IT_number 65
_symmetry_cell_setting 'orthorhombic'
loop_
_space_group_symop_operation_xyz
x,y,z
-x,-y,z
x,-y,-z
-x,y,-z
-x,-y,-z
x,y,-z
-x,y,z
x,-y,z
1/2+x,1/2+y,z
1/2-x,1/2-y,z
1/2+x,1/2-y,-z
1/2-x,1/2+y,-z
1/2-x,1/2-y,-z
1/2+x,1/2+y,-z
1/2-x,1/2+y,z
1/2+x,1/2-y,z
loop_
_atom_site_type_symbol
_atom_site_label
_atom_site_fract_x
_atom_site_fract_y
_atom_site_fract_z
Si Si1 0.938100 0.893942 0.706447
Si Si2 0.262163 0.331272 0.797094
Si Si3 0.679782 0.439922 0.713227
Si Si4 0.435204 0.060138 0.289646
Si Si5 0.619307 0.716404 0.787218
Si Si6 0.635116 0.832933 0.789276
O O1 0.940773 0.906630 0.500000
O O2 0.884143 0.926733 0.775423
O O3 0.921731 0.830965 0.724437
O O4 0.000000 0.904759 0.783337
O O5 0.280604 0.393457 0.786275
O O6 0.316523 0.298726 0.725272
O O7 0.199500 0.328201 0.719218
O O8 0.257762 0.314329 0.000000
O O9 0.680721 0.435900 0.500000
O O10 0.696615 0.500000 0.762603
O O11 0.437560 0.057321 0.500000
O O12 0.500000 0.069139 0.226298
O O13 0.395555 0.110973 0.250226
O O14 0.416765 0.000000 0.227762
O O15 0.604626 0.777311 0.733471
O O16 0.619418 0.713257 0.000000
O O17 0.638584 0.830839 0.000000
#
# Coordination Sequence:
#
# PCOD9488949 Si02
#       6
#    16  16  16  16  16  16
#     4   9  18  32  49  70  97 129 165 204 244 285
#     4   9  18  33  51  71  99 132 162 196 240 288
#     4   9  18  32  49  70  97 129 165 204 244 285
#     4   9  20  39  57  72  96 130 163 196 239 290
#     4   9  18  33  51  71  99 132 162 196 240 288
#     4  10  20  33  53  79 100 124 162 201 238 286
#
# _framework density 21.543137999999999
#
# number of rings (size 3 to 8) (size 9 to 14) (size 15 to 20)
#    0.000    2.833    0.000    1.000    0.000    6.333 
#    0.000    9.167    0.000    5.000    0.000    4.667 
#    0.000    0.000    0.000    0.000    0.000    0.000 
#
# Total GULP energy -267696.607711 kJ/mol
# GULP energy per Si atom -5577.012661 kJ/mol
# Density = 2.149410 g / cm^3
# Si number density = 21.543138 Si / 1000 Ang^3
#
#
#
# Elastic Constant Matrix: (Units=GPa)
#
#
# Indices 1 2 3 4 5 6 
#
# 1 15.4499 -10.3861 -4.1044 0.0000 0.0000 0.0000
# 2 -10.3861 112.7400 -5.7055 0.0000 0.0000 0.0000
# 3 -4.1044 -5.7055 42.5716 0.0000 0.0000 0.0000
# 4 0.0000 0.0000 0.0000 21.6671 0.0000 0.0000
# 5 0.0000 0.0000 0.0000 0.0000 14.2105 0.0000
# 6 0.0000 0.0000 0.0000 0.0000 0.0000 -0.6551
#
#
#
# Elastic Compliance Matrix: (Units=1/GPa)
#
#
# Indices 1 2 3 4 5 6 
#
# 1 0.071500 0.006983 0.007829 0.000000 0.000000 0.000000
# 2 0.006983 0.009613 0.001962 0.000000 0.000000 0.000000
# 3 0.007829 0.001962 0.024508 0.000000 0.000000 0.000000
# 4 0.000000 0.000000 0.000000 0.046153 0.000000 0.000000
# 5 0.000000 0.000000 0.000000 0.000000 0.070371 0.000000
# 6 0.000000 0.000000 0.000000 0.000000 0.000000 -1.526466
#
#
# Mechanical properties :
#
#
# Convention : Reuss Voigt Hill
#
# Bulk Modulus (GPa) = 7.18559 14.48551 10.83555
# Shear Modulus (GPa) = -3.87152 19.77498 7.95173
#
# Velocity S-wave (km/s) = -1.34201 3.03301 1.92330
# Velocity P-wave (km/s) = 0.97023 4.35937 3.15796
#
# Compressibility (1/GPa) = 0.13916745
#
# Stress axis : x y z
#
# Youngs Moduli (GPa) = 13.98611 104.03078 40.80374
#
# Poissons Ratio (x) = -0.72645 -0.31947
# Poissons Ratio (y) = -0.09767 -0.08004
# Poissons Ratio (z) = -0.10950 -0.20406
#
# Static dielectric constant tensor:
#      x y z
#    x 1.789490 0.000000 0.000000 
#    y 0.000000 1.772980 0.000000 
#    z 0.000000 0.000000 1.817290 
# 
# From -- ./inp_files/14277.got.cif
#   From: 2010.05.17/outbox.cif.g08.bks.cpg/sg65_8_cif.got.tgz:14277.got - 2010.06.03 17:01:31.
