data_PCOD9488920
_publ_section_title
;
Structure prediction by ZEFSAII (Michael W. Deem and Ramdas Pophale) SiO2 
 PCOD9488920
Probable space group: C M M M
;
_chemical_formula_sum "Si O2"
_cell_formula_units_Z 72
_cell_length_a 9.166374
_cell_length_b 17.926049
_cell_length_c 23.723635
_cell_angle_alpha 90.000000
_cell_angle_beta 90.000000
_cell_angle_gamma 90.000000
_cell_volume 3898.193436
_symmetry_space_group_name_H-M "C M M M"
_symmetry_group_IT_number 65
_symmetry_cell_setting 'orthorhombic'
loop_
_space_group_symop_operation_xyz
x,y,z
-x,-y,z
x,-y,-z
-x,y,-z
-x,-y,-z
x,y,-z
-x,y,z
x,-y,z
1/2+x,1/2+y,z
1/2-x,1/2-y,z
1/2+x,1/2-y,-z
1/2-x,1/2+y,-z
1/2-x,1/2-y,-z
1/2+x,1/2+y,-z
1/2-x,1/2+y,z
1/2+x,1/2-y,z
loop_
_atom_site_type_symbol
_atom_site_label
_atom_site_fract_x
_atom_site_fract_y
_atom_site_fract_z
Si Si1 0.826353 0.830305 0.500000
Si Si2 0.669791 0.909303 0.937302
Si Si3 0.670559 0.590026 0.175876
Si Si4 0.328751 0.088681 0.602204
Si Si5 0.326331 0.170125 0.720585
O O1 0.750000 0.750000 0.500000
O O2 0.770993 0.874330 0.554938
O O3 0.000000 0.822685 0.500000
O O4 0.500000 0.888613 0.929150
O O5 0.766564 0.884958 0.884706
O O6 0.674516 0.000000 0.937817
O O7 0.716479 0.884443 0.000000
O O8 0.500000 0.608483 0.180671
O O9 0.685300 0.500000 0.179108
O O10 0.760233 0.626981 0.226148
O O11 0.500000 0.102728 0.588444
O O12 0.299721 0.123912 0.663316
O O13 0.307160 0.000000 0.603834
O O14 0.500000 0.178687 0.727252
O O15 0.250000 0.250000 0.715778
#
# Coordination Sequence:
#
# PCOD9488920 Si02
#       5
#     8  16  16  16  16
#     4  12  25  40  61  89 121 157 193 230 275 326
#     4   8  14  26  46  73 105 141 181 225 273 326
#     4  10  20  33  52  80 112 145 183 229 278 329
#     4  10  22  41  64  89 117 149 186 230 279 330
#     4  11  23  39  59  82 110 146 187 230 279 334
#
# _framework density 18.470094
#
# number of rings (size 3 to 8) (size 9 to 14) (size 15 to 20)
#    0.000    2.000    0.000    4.667    0.000    8.000 
#    0.000    2.222    0.000    0.667    0.000    0.000 
#    0.000    0.000    0.000    0.000    0.000    0.000 
#
# Total GULP energy -201074.155876 kJ/mol
# GULP energy per Si atom -5585.393219 kJ/mol
# Density = 1.842806 g / cm^3
# Si number density = 18.470094 Si / 1000 Ang^3
#
#
#
# Elastic Constant Matrix: (Units=GPa)
#
#
# Indices 1 2 3 4 5 6 
#
# 1 139.0163 68.3025 121.0470 0.0000 0.0000 0.0000
# 2 68.3025 65.5443 62.3009 0.0000 0.0000 0.0000
# 3 121.0470 62.3009 174.7209 0.0000 0.0000 0.0000
# 4 0.0000 0.0000 0.0000 -43.0142 0.0000 0.0000
# 5 0.0000 0.0000 0.0000 0.0000 -27.6406 0.0000
# 6 0.0000 0.0000 0.0000 0.0000 0.0000 27.1181
#
#
#
# Elastic Compliance Matrix: (Units=1/GPa)
#
#
# Indices 1 2 3 4 5 6 
#
# 1 0.024650 -0.014302 -0.011978 0.000000 0.000000 0.000000
# 2 -0.014302 0.031377 -0.001280 0.000000 0.000000 0.000000
# 3 -0.011978 -0.001280 0.014478 0.000000 0.000000 0.000000
# 4 0.000000 0.000000 0.000000 -0.023248 0.000000 0.000000
# 5 0.000000 0.000000 0.000000 0.000000 -0.036179 0.000000
# 6 0.000000 0.000000 0.000000 0.000000 0.000000 0.036876
#
#
# Mechanical properties :
#
#
# Convention : Reuss Voigt Hill
#
# Bulk Modulus (GPa) = 64.99476 98.06469 81.52973
# Shear Modulus (GPa) = 46.20960 -0.19863 23.00549
#
# Velocity S-wave (km/s) = 5.00729 -0.32829 3.53307
# Velocity P-wave (km/s) = 8.28831 7.28460 7.80261
#
# Compressibility (1/GPa) = 0.01538586
#
# Stress axis : x y z
#
# Youngs Moduli (GPa) = 40.56790 31.87003 69.07060
#
# Poissons Ratio (x) = 0.45582 0.82731
# Poissons Ratio (y) = 0.58021 0.08839
# Poissons Ratio (z) = 0.48591 0.04078
#
# Static dielectric constant tensor:
#      x y z
#    x 1.614920 0.000000 0.000000 
#    y 0.000000 1.618430 0.000000 
#    z 0.000000 0.000000 1.619800 
# 
# From -- ./inp_files/59194.got.cif
#   From: 2010.05.17/outbox.cif.g08.bks.cpg/sg65_30_cif.got.tgz:59194.got - 2010.06.03 17:01:31.
