data_PCOD9488982
_publ_section_title
;
Structure prediction by ZEFSAII (Michael W. Deem and Ramdas Pophale) SiO2 
 PCOD9488982
Probable space group: C M M M
;
_chemical_formula_sum "Si O2"
_cell_formula_units_Z 104
_cell_length_a 29.461770
_cell_length_b 8.648221
_cell_length_c 21.080066
_cell_angle_alpha 90.000000
_cell_angle_beta 90.000000
_cell_angle_gamma 90.000000
_cell_volume 5371.030026
_symmetry_space_group_name_H-M "C M M M"
_symmetry_group_IT_number 65
_symmetry_cell_setting 'orthorhombic'
loop_
_space_group_symop_operation_xyz
x,y,z
-x,-y,z
x,-y,-z
-x,y,-z
-x,-y,-z
x,y,-z
-x,y,z
x,-y,z
1/2+x,1/2+y,z
1/2-x,1/2-y,z
1/2+x,1/2-y,-z
1/2-x,1/2+y,-z
1/2-x,1/2-y,-z
1/2+x,1/2+y,-z
1/2-x,1/2+y,z
1/2+x,1/2-y,z
loop_
_atom_site_type_symbol
_atom_site_label
_atom_site_fract_x
_atom_site_fract_y
_atom_site_fract_z
Si Si1 0.050238 0.684967 0.893805
Si Si2 0.500000 0.176119 0.577131
Si Si3 0.699278 0.813784 0.190508
Si Si4 0.402152 0.684379 0.572544
Si Si5 0.860719 0.682181 0.690807
Si Si6 0.949327 0.816325 0.247789
Si Si7 0.855115 0.185189 0.069584
O O1 0.055093 0.500000 0.884917
O O2 0.050783 0.770030 0.825971
O O3 0.093783 0.749478 0.929324
O O4 0.000000 0.711885 0.922052
O O5 0.500000 0.172930 0.500000
O O6 0.547603 0.257742 0.592938
O O7 0.500000 0.000000 0.600659
O O8 0.750000 0.750000 0.187470
O O9 0.675215 0.762242 0.256364
O O10 0.671357 0.755000 0.129442
O O11 0.699101 0.000000 0.189580
O O12 0.394307 0.737605 0.500000
O O13 0.403379 0.500000 0.573113
O O14 0.364321 0.741096 0.621845
O O15 0.854695 0.500000 0.682890
O O16 0.909608 0.719691 0.720988
O O17 0.000000 0.781953 0.272337
O O18 0.940998 0.000000 0.255274
O O19 0.856272 0.000000 0.076242
O O20 0.834865 0.222497 0.000000
#
# Coordination Sequence:
#
# PCOD9488982 Si02
#       7
#    16   8  16  16  16  16  16
#     4  10  20  35  56  84 121 163 205 248 294 347
#     4   9  17  31  51  77 115 163 208 249 292 341
#     4  11  25  45  69  94 119 150 191 245 307 368
#     4  10  21  36  55  82 119 162 205 247 293 348
#     4  11  23  38  60  89 119 155 199 245 299 356
#     4  10  20  33  53  82 117 158 201 245 294 347
#     4  11  24  41  63  91 123 160 201 246 298 356
#
# _framework density 19.363140000000001
#
# number of rings (size 3 to 8) (size 9 to 14) (size 15 to 20)
#    0.000    1.615    1.538    3.000    1.077    7.385 
#    0.000    1.538    0.000    0.462    0.000    0.000 
#    0.000    0.000    0.000    0.000    0.000    0.000 
#
# Total GULP energy -290426.800859 kJ/mol
# GULP energy per Si atom -5585.130786 kJ/mol
# Density = 1.931907 g / cm^3
# Si number density = 19.363140 Si / 1000 Ang^3
#
#
#
# Elastic Constant Matrix: (Units=GPa)
#
#
# Indices 1 2 3 4 5 6 
#
# 1 102.4079 26.2641 64.5028 0.0000 0.0000 0.0000
# 2 26.2641 46.8088 26.7769 0.0000 0.0000 0.0000
# 3 64.5028 26.7769 132.4767 0.0000 0.0000 0.0000
# 4 0.0000 0.0000 0.0000 21.2708 0.0000 0.0000
# 5 0.0000 0.0000 0.0000 0.0000 4.3859 0.0000
# 6 0.0000 0.0000 0.0000 0.0000 0.0000 28.9340
#
#
#
# Elastic Compliance Matrix: (Units=1/GPa)
#
#
# Indices 1 2 3 4 5 6 
#
# 1 0.014976 -0.004785 -0.006324 0.000000 0.000000 0.000000
# 2 -0.004785 0.025685 -0.002862 0.000000 0.000000 0.000000
# 3 -0.006324 -0.002862 0.011206 0.000000 0.000000 0.000000
# 4 0.000000 0.000000 0.000000 0.047013 0.000000 0.000000
# 5 0.000000 0.000000 0.000000 0.000000 0.228002 0.000000
# 6 0.000000 0.000000 0.000000 0.000000 0.000000 0.034561
#
#
# Mechanical properties :
#
#
# Convention : Reuss Voigt Hill
#
# Bulk Modulus (GPa) = 41.79751 57.42012 49.60881
# Shear Modulus (GPa) = 12.58302 21.86147 17.22224
#
# Velocity S-wave (km/s) = 2.55197 3.36374 2.98557
# Velocity P-wave (km/s) = 5.50603 6.69366 6.12868
#
# Compressibility (1/GPa) = 0.02392487
#
# Stress axis : x y z
#
# Youngs Moduli (GPa) = 66.77561 38.93267 89.23517
#
# Poissons Ratio (x) = 0.18628 0.56436
# Poissons Ratio (y) = 0.31951 0.25539
# Poissons Ratio (z) = 0.42232 0.11142
#
# Static dielectric constant tensor:
#      x y z
#    x 1.656980 0.000000 0.000000 
#    y 0.000000 1.653440 0.000000 
#    z 0.000000 0.000000 1.750890 
# 
# From -- ./inp_files/60369.got.cif
#   From: 2010.05.17/outbox.cif.g08.bks.cpg/sg65_31_cif.got.tgz:60369.got - 2010.06.03 17:01:31.
