data_PCOD9488903
_publ_section_title
;
Structure prediction by ZEFSAII (Michael W. Deem and Ramdas Pophale) SiO2 
 PCOD9488903
Probable space group: C M M M
;
_chemical_formula_sum "Si O2"
_cell_formula_units_Z 100
_cell_length_a 18.409334
_cell_length_b 14.255600
_cell_length_c 22.076771
_cell_angle_alpha 90.000000
_cell_angle_beta 90.000000
_cell_angle_gamma 90.000000
_cell_volume 5793.741721
_symmetry_space_group_name_H-M "C M M M"
_symmetry_group_IT_number 65
_symmetry_cell_setting 'orthorhombic'
loop_
_space_group_symop_operation_xyz
x,y,z
-x,-y,z
x,-y,-z
-x,y,-z
-x,-y,-z
x,y,-z
-x,y,z
x,-y,z
1/2+x,1/2+y,z
1/2-x,1/2-y,z
1/2+x,1/2-y,-z
1/2-x,1/2+y,-z
1/2-x,1/2-y,-z
1/2+x,1/2+y,-z
1/2-x,1/2+y,z
1/2+x,1/2-y,z
loop_
_atom_site_type_symbol
_atom_site_label
_atom_site_fract_x
_atom_site_fract_y
_atom_site_fract_z
Si Si1 0.130353 0.285719 0.600603
Si Si2 0.279736 0.608226 0.571974
Si Si3 0.500000 0.791834 0.500000
Si Si4 0.140195 0.610470 0.851890
Si Si5 0.414650 0.890548 0.720768
Si Si6 0.219377 0.888879 0.930543
Si Si7 0.078560 0.766816 0.929385
O O1 0.198690 0.351202 0.581316
O O2 0.163637 0.180576 0.601877
O O3 0.064545 0.291910 0.552996
O O4 0.104632 0.323350 0.665460
O O5 0.294720 0.611084 0.500000
O O6 0.284883 0.500000 0.592251
O O7 0.125567 0.500000 0.861063
O O8 0.132593 0.628731 0.780583
O O9 0.217812 0.632081 0.882511
O O10 0.085409 0.675951 0.888016
O O11 0.500000 0.881234 0.736431
O O12 0.403085 0.000000 0.702907
O O13 0.145676 0.834712 0.916727
O O14 0.206426 0.000000 0.929192
O O15 0.242507 0.865222 0.000000
O O16 0.000000 0.812776 0.920151
O O17 0.083660 0.739672 0.000000
#
# Coordination Sequence:
#
# PCOD9488903 Si02
#       7
#    16  16   4  16  16  16  16
#     4  11  20  38  58  83 116 144 183 233 273 325
#     4  10  20  37  58  81 114 152 180 217 276 331
#     4  12  20  34  62  92 112 144 190 234 286 326
#     4  10  20  35  54  76 106 143 181 222 272 329
#     4  10  21  36  55  80 111 144 179 225 281 336
#     4   9  18  34  56  80 106 138 183 236 279 322
#     4  10  20  33  52  79 110 143 180 224 280 332
#
# _framework density 17.260003000000001
#
# number of rings (size 3 to 8) (size 9 to 14) (size 15 to 20)
#    0.000    1.920    2.400    2.400    0.000    3.520 
#    5.760    4.800    0.000    0.000    0.000    0.000 
#    0.000    0.000    0.000    0.000    0.000    0.000 
#
# Total GULP energy -278335.764743 kJ/mol
# GULP energy per Si atom -5566.715295 kJ/mol
# Density = 1.722072 g / cm^3
# Si number density = 17.260003 Si / 1000 Ang^3
#
#
#
# Elastic Constant Matrix: (Units=GPa)
#
#
# Indices 1 2 3 4 5 6 
#
# 1 128.8572 58.2134 76.6340 0.0000 0.0000 0.0000
# 2 58.2134 97.1168 57.5379 0.0000 0.0000 0.0000
# 3 76.6340 57.5379 97.5481 0.0000 0.0000 0.0000
# 4 0.0000 0.0000 0.0000 20.0742 0.0000 0.0000
# 5 0.0000 0.0000 0.0000 0.0000 131.6066 0.0000
# 6 0.0000 0.0000 0.0000 0.0000 0.0000 16.9431
#
#
#
# Elastic Compliance Matrix: (Units=1/GPa)
#
#
# Indices 1 2 3 4 5 6 
#
# 1 0.015158 -0.003122 -0.010067 0.000000 0.000000 0.000000
# 2 -0.003122 0.016471 -0.007263 0.000000 0.000000 0.000000
# 3 -0.010067 -0.007263 0.022444 0.000000 0.000000 0.000000
# 4 0.000000 0.000000 0.000000 0.049815 0.000000 0.000000
# 5 0.000000 0.000000 0.000000 0.000000 0.007598 0.000000
# 6 0.000000 0.000000 0.000000 0.000000 0.000000 0.059021
#
#
# Mechanical properties :
#
#
# Convention : Reuss Voigt Hill
#
# Bulk Modulus (GPa) = 75.93016 78.69921 77.31468
# Shear Modulus (GPa) = 23.16970 42.46723 32.81846
#
# Velocity S-wave (km/s) = 3.66784 4.96566 4.36525
# Velocity P-wave (km/s) = 7.87559 8.86411 8.38443
#
# Compressibility (1/GPa) = 0.01317000
#
# Stress axis : x y z
#
# Youngs Moduli (GPa) = 65.97362 60.71254 44.55611
#
# Poissons Ratio (x) = 0.18953 0.44853
# Poissons Ratio (y) = 0.20595 0.32361
# Poissons Ratio (z) = 0.66413 0.44095
#
# Static dielectric constant tensor:
#      x y z
#    x 1.589470 0.000000 0.000000 
#    y 0.000000 1.592270 0.000000 
#    z 0.000000 0.000000 1.571800 
# 
# From -- ./inp_files/62864.got.cif
#   From: 2010.05.17/outbox.cif.g08.bks.cpg/sg65_32_cif.got.tgz:62864.got - 2010.06.03 17:01:31.
