data_PCOD9488045
_publ_section_title
;
Structure prediction by ZEFSAII (Michael W. Deem and Ramdas Pophale) SiO2 
 PCOD9488045
Probable space group: C M M M
;
_chemical_formula_sum "Si O2"
_cell_formula_units_Z 104
_cell_length_a 8.495151
_cell_length_b 27.859707
_cell_length_c 24.597863
_cell_angle_alpha 90.000000
_cell_angle_beta 90.000000
_cell_angle_gamma 90.000000
_cell_volume 5821.635708
_symmetry_space_group_name_H-M "C M M M"
_symmetry_group_IT_number 65
_symmetry_cell_setting 'orthorhombic'
loop_
_space_group_symop_operation_xyz
x,y,z
-x,-y,z
x,-y,-z
-x,y,-z
-x,-y,-z
x,y,-z
-x,y,z
x,-y,z
1/2+x,1/2+y,z
1/2-x,1/2-y,z
1/2+x,1/2-y,-z
1/2-x,1/2+y,-z
1/2-x,1/2-y,-z
1/2+x,1/2+y,-z
1/2-x,1/2+y,z
1/2+x,1/2-y,z
loop_
_atom_site_type_symbol
_atom_site_label
_atom_site_fract_x
_atom_site_fract_y
_atom_site_fract_z
Si Si1 0.686618 0.054217 0.273703
Si Si2 0.189764 0.605515 0.561870
Si Si3 0.814334 0.853545 0.333999
Si Si4 0.810328 0.556111 0.938045
Si Si5 0.689334 0.698216 0.771966
Si Si6 0.820785 0.500000 0.566000
Si Si7 0.812251 0.100440 0.830499
O O1 0.500000 0.060334 0.282897
O O2 0.778140 0.095130 0.306093
O O3 0.725962 0.063961 0.210568
O O4 0.730068 0.000000 0.289020
O O5 0.241534 0.615527 0.500000
O O6 0.238401 0.643794 0.606782
O O7 0.250381 0.552018 0.578778
O O8 0.000000 0.601921 0.561086
O O9 0.754691 0.815547 0.289167
O O10 0.000000 0.847300 0.339990
O O11 0.768645 0.500000 0.929370
O O12 0.733072 0.588118 0.891734
O O13 0.000000 0.559574 0.934121
O O14 0.765625 0.568760 0.000000
O O15 0.500000 0.699095 0.770790
O O16 0.750000 0.750000 0.788691
O O17 0.735111 0.653947 0.810976
O O18 0.831244 0.500000 0.500000
O O19 0.000000 0.500000 0.588149
O O20 0.000000 0.095820 0.822693
#
# Coordination Sequence:
#
# PCOD9488045 Si02
#       7
#    16  16  16  16  16   8  16
#     4  10  20  32  47  68  96 133 172 204 238 288
#     4   9  17  30  48  69  95 130 169 203 236 284
#     4  10  21  34  48  72 102 126 155 201 256 303
#     4   9  18  32  50  75 109 148 186 215 236 272
#     4   9  20  37  55  75  97 123 158 205 259 310
#     4   7  12  24  41  61  87 121 161 199 224 253
#     4  10  20  33  50  76 106 131 163 209 259 303
#
# _framework density 17.864394000000001
#
# number of rings (size 3 to 8) (size 9 to 14) (size 15 to 20)
#    0.000    2.692    0.000    4.154    1.077    7.692 
#    0.000    0.769    0.000    2.308    0.000    0.000 
#    0.000    0.000    0.000    0.000    0.000    0.000 
#
# Total GULP energy -289919.019594 kJ/mol
# GULP energy per Si atom -5575.365761 kJ/mol
# Density = 1.782373 g / cm^3
# Si number density = 17.864394 Si / 1000 Ang^3
#
#
#
# Elastic Constant Matrix: (Units=GPa)
#
#
# Indices 1 2 3 4 5 6 
#
# 1 9.9739 6.0482 10.0561 0.0000 0.0000 0.0000
# 2 6.0482 55.4786 23.3459 0.0000 0.0000 0.0000
# 3 10.0561 23.3459 101.8511 0.0000 0.0000 0.0000
# 4 0.0000 0.0000 0.0000 18.2011 0.0000 0.0000
# 5 0.0000 0.0000 0.0000 0.0000 34.3447 0.0000
# 6 0.0000 0.0000 0.0000 0.0000 0.0000 20.8678
#
#
#
# Elastic Compliance Matrix: (Units=1/GPa)
#
#
# Indices 1 2 3 4 5 6 
#
# 1 0.114923 -0.008582 -0.009380 0.000000 0.000000 0.000000
# 2 -0.008582 0.020590 -0.003872 0.000000 0.000000 0.000000
# 3 -0.009380 -0.003872 0.011632 0.000000 0.000000 0.000000
# 4 0.000000 0.000000 0.000000 0.054942 0.000000 0.000000
# 5 0.000000 0.000000 0.000000 0.000000 0.029117 0.000000
# 6 0.000000 0.000000 0.000000 0.000000 0.000000 0.047921
#
#
# Mechanical properties :
#
#
# Convention : Reuss Voigt Hill
#
# Bulk Modulus (GPa) = 9.66394 27.35600 18.50997
# Shear Modulus (GPa) = 13.99451 23.20629 18.60040
#
# Velocity S-wave (km/s) = 2.80192 3.60811 3.23026
# Velocity P-wave (km/s) = 3.98610 5.71877 4.92917
#
# Compressibility (1/GPa) = 0.10347744
#
# Stress axis : x y z
#
# Youngs Moduli (GPa) = 8.70151 48.56725 85.97038
#
# Poissons Ratio (x) = 0.41679 0.80637
# Poissons Ratio (y) = 0.07467 0.33290
# Poissons Ratio (z) = 0.08162 0.18807
#
# Static dielectric constant tensor:
#      x y z
#    x 1.617130 0.000000 0.000000 
#    y 0.000000 1.607980 0.000000 
#    z 0.000000 0.000000 1.641750 
# 
# From -- ./inp_files/68248.got.cif
#   From: 2010.05.17/outbox.cif.g08.bks.cpg/sg65_35_cif.got.tgz:68248.got - 2010.06.03 17:01:31.
