data_PCOD9488215
_publ_section_title
;
Structure prediction by ZEFSAII (Michael W. Deem and Ramdas Pophale) SiO2 
 PCOD9488215
Probable space group: C M M M
;
_chemical_formula_sum "Si O2"
_cell_formula_units_Z 88
_cell_length_a 7.562131
_cell_length_b 15.171801
_cell_length_c 32.862978
_cell_angle_alpha 90.000000
_cell_angle_beta 90.000000
_cell_angle_gamma 90.000000
_cell_volume 3770.407149
_symmetry_space_group_name_H-M "C M M M"
_symmetry_group_IT_number 65
_symmetry_cell_setting 'orthorhombic'
loop_
_space_group_symop_operation_xyz
x,y,z
-x,-y,z
x,-y,-z
-x,y,-z
-x,-y,-z
x,y,-z
-x,y,z
x,-y,z
1/2+x,1/2+y,z
1/2-x,1/2-y,z
1/2+x,1/2-y,-z
1/2-x,1/2+y,-z
1/2-x,1/2-y,-z
1/2+x,1/2+y,-z
1/2-x,1/2+y,z
1/2+x,1/2-y,z
loop_
_atom_site_type_symbol
_atom_site_label
_atom_site_fract_x
_atom_site_fract_y
_atom_site_fract_z
Si Si1 0.789169 0.147679 0.305391
Si Si2 0.500000 0.891421 0.453168
Si Si3 0.288621 0.601079 0.131228
Si Si4 0.297649 0.394308 0.217023
Si Si5 0.712070 0.897111 0.956490
Si Si6 0.698092 0.396572 0.605878
O O1 0.750000 0.250000 0.308766
O O2 0.714882 0.121324 0.261196
O O3 0.726407 0.109114 0.348214
O O4 0.000000 0.126516 0.304308
O O5 0.500000 0.864250 0.500000
O O6 0.670125 0.860301 0.427769
O O7 0.500000 0.000000 0.452608
O O8 0.500000 0.596500 0.136280
O O9 0.219351 0.500000 0.127929
O O10 0.218890 0.639117 0.174115
O O11 0.259048 0.643330 0.087139
O O12 0.500000 0.359656 0.219739
O O13 0.305525 0.500000 0.212340
O O14 0.500000 0.898087 0.957695
O O15 0.773041 0.000000 0.955816
O O16 0.775641 0.859479 0.000000
O O17 0.500000 0.357150 0.605469
O O18 0.681011 0.500000 0.597128
#
# Coordination Sequence:
#
# PCOD9488215 Si02
#       6
#    16   8  16  16  16  16
#     4  10  20  32  49  72  96 129 162 200 243 290
#     4   9  18  32  54  84 112 136 165 211 258 290
#     4   8  13  21  35  54  74 101 139 183 223 262
#     4   8  14  27  46  65  88 119 156 193 233 285
#     4   8  13  20  29  43  69 105 138 168 211 269
#     4   9  18  33  54  79 105 138 175 208 247 295
#
# _framework density 23.339653999999999
#
# number of rings (size 3 to 8) (size 9 to 14) (size 15 to 20)
#    0.000    3.364    0.000    2.182    1.273    2.909 
#    0.000    4.545    0.000    1.636    0.000    0.000 
#    0.000    0.727    0.000    1.636    0.000    4.364 
#
# Total GULP energy -245044.074090 kJ/mol
# GULP energy per Si atom -5569.183502 kJ/mol
# Density = 2.328653 g / cm^3
# Si number density = 23.339654 Si / 1000 Ang^3
#
#
#
# Elastic Constant Matrix: (Units=GPa)
#
#
# Indices 1 2 3 4 5 6 
#
# 1 70.3606 -1.3134 67.3340 0.0000 0.0000 0.0000
# 2 -1.3134 32.6269 4.0128 0.0000 0.0000 0.0000
# 3 67.3340 4.0128 290.4887 0.0000 0.0000 0.0000
# 4 0.0000 0.0000 0.0000 -47.4778 0.0000 0.0000
# 5 0.0000 0.0000 0.0000 0.0000 39.7823 0.0000
# 6 0.0000 0.0000 0.0000 0.0000 0.0000 -32.1226
#
#
#
# Elastic Compliance Matrix: (Units=1/GPa)
#
#
# Indices 1 2 3 4 5 6 
#
# 1 0.018316 0.001262 -0.004263 0.000000 0.000000 0.000000
# 2 0.001262 0.030789 -0.000718 0.000000 0.000000 0.000000
# 3 -0.004263 -0.000718 0.004441 0.000000 0.000000 0.000000
# 4 0.000000 0.000000 0.000000 -0.021062 0.000000 0.000000
# 5 0.000000 0.000000 0.000000 0.000000 0.025137 0.000000
# 6 0.000000 0.000000 0.000000 0.000000 0.000000 -0.031131
#
#
# Mechanical properties :
#
#
# Convention : Reuss Voigt Hill
#
# Bulk Modulus (GPa) = 21.68887 59.28257 40.48572
# Shear Modulus (GPa) = 101.42942 13.59921 57.51431
#
# Velocity S-wave (km/s) = 6.59942 2.41647 4.96949
# Velocity P-wave (km/s) = 8.20869 5.76548 7.09308
#
# Compressibility (1/GPa) = 0.04610659
#
# Stress axis : x y z
#
# Youngs Moduli (GPa) = 54.59832 32.47954 225.19933
#
# Poissons Ratio (x) = -0.04098 0.96000
# Poissons Ratio (y) = -0.06888 0.16164
# Poissons Ratio (z) = 0.23275 0.02331
#
# Static dielectric constant tensor:
#      x y z
#    x 1.844770 0.000000 0.000000 
#    y 0.000000 1.856090 0.000000 
#    z 0.000000 0.000000 1.962350 
# 
# From -- ./inp_files/76694.got.cif
#   From: 2010.05.17/outbox.cif.g08.bks.cpg/sg65_39_cif.got.tgz:76694.got - 2010.06.03 17:01:31.
