data_PCOD9488594
_publ_section_title
;
Structure prediction by ZEFSAII (Michael W. Deem and Ramdas Pophale) SiO2 
 PCOD9488594
Probable space group: C M M M
;
_chemical_formula_sum "Si O2"
_cell_formula_units_Z 104
_cell_length_a 8.594311
_cell_length_b 33.568836
_cell_length_c 21.226743
_cell_angle_alpha 90.000000
_cell_angle_beta 90.000000
_cell_angle_gamma 90.000000
_cell_volume 6123.936932
_symmetry_space_group_name_H-M "C M M M"
_symmetry_group_IT_number 65
_symmetry_cell_setting 'orthorhombic'
loop_
_space_group_symop_operation_xyz
x,y,z
-x,-y,z
x,-y,-z
-x,y,-z
-x,-y,-z
x,y,-z
-x,y,z
x,-y,z
1/2+x,1/2+y,z
1/2-x,1/2-y,z
1/2+x,1/2-y,-z
1/2-x,1/2+y,-z
1/2-x,1/2-y,-z
1/2+x,1/2+y,-z
1/2-x,1/2+y,z
1/2+x,1/2-y,z
loop_
_atom_site_type_symbol
_atom_site_label
_atom_site_fract_x
_atom_site_fract_y
_atom_site_fract_z
Si Si1 0.316202 0.500000 0.784014
Si Si2 0.811114 0.453702 0.000000
Si Si3 0.812415 0.663413 0.430084
Si Si4 0.183325 0.500000 0.644295
Si Si5 0.314044 0.585392 0.367004
Si Si6 0.813566 0.129055 0.762702
Si Si7 0.813323 0.573515 0.137061
Si Si8 0.313013 0.793679 0.303131
O O1 0.500000 0.500000 0.770510
O O2 0.225971 0.500000 0.718342
O O3 0.268201 0.538131 0.824475
O O4 0.765406 0.431618 0.064270
O O5 0.757812 0.500000 0.000000
O O6 0.000000 0.455159 0.000000
O O7 0.759596 0.675045 0.500000
O O8 0.752185 0.619514 0.412293
O O9 0.763144 0.692721 0.373768
O O10 0.000000 0.662433 0.429592
O O11 0.252837 0.458647 0.618855
O O12 0.000000 0.500000 0.635317
O O13 0.500000 0.585480 0.369846
O O14 0.269250 0.599628 0.295827
O O15 0.737840 0.113155 0.826675
O O16 0.754624 0.172440 0.742532
O O17 0.000000 0.128460 0.767649
O O18 0.000000 0.568843 0.140864
O O19 0.500000 0.794219 0.300164
O O20 0.250000 0.750000 0.289216
#
# Coordination Sequence:
#
# PCOD9488594 Si02
#       8
#     8   8  16   8  16  16  16  16
#     4  12  22  31  45  71 104 136 175 222 265 307
#     4   9  18  32  48  72 105 144 187 226 258 300
#     4   9  19  36  55  75 103 138 173 206 247 308
#     4  12  22  32  50  72  96 132 176 219 265 312
#     4  10  20  33  50  73 102 130 167 218 265 306
#     4  10  20  34  52  75 105 135 169 215 264 311
#     4  11  20  33  52  73 102 143 185 220 260 307
#     4  10  20  35  56  82 109 135 167 206 258 312
#
# _framework density 16.98254
#
# number of rings (size 3 to 8) (size 9 to 14) (size 15 to 20)
#    0.000    1.769    2.308    3.231    0.000    2.462 
#    0.000    2.308    0.000    2.308    0.000    0.538 
#    0.000    0.000    0.000    0.000    0.000    0.000 
#
# Total GULP energy -290307.050494 kJ/mol
# GULP energy per Si atom -5582.827894 kJ/mol
# Density = 1.694389 g / cm^3
# Si number density = 16.982540 Si / 1000 Ang^3
#
#
#
# Elastic Constant Matrix: (Units=GPa)
#
#
# Indices 1 2 3 4 5 6 
#
# 1 17.4202 8.5494 4.0157 0.0000 0.0000 0.0000
# 2 8.5494 108.3460 28.0009 0.0000 0.0000 0.0000
# 3 4.0157 28.0009 77.7429 0.0000 0.0000 0.0000
# 4 0.0000 0.0000 0.0000 13.0238 0.0000 0.0000
# 5 0.0000 0.0000 0.0000 0.0000 10.5913 0.0000
# 6 0.0000 0.0000 0.0000 0.0000 0.0000 26.7558
#
#
#
# Elastic Compliance Matrix: (Units=1/GPa)
#
#
# Indices 1 2 3 4 5 6 
#
# 1 0.059883 -0.004329 -0.001534 0.000000 0.000000 0.000000
# 2 -0.004329 0.010490 -0.003555 0.000000 0.000000 0.000000
# 3 -0.001534 -0.003555 0.014222 0.000000 0.000000 0.000000
# 4 0.000000 0.000000 0.000000 0.076783 0.000000 0.000000
# 5 0.000000 0.000000 0.000000 0.000000 0.094417 0.000000
# 6 0.000000 0.000000 0.000000 0.000000 0.000000 0.037375
#
#
# Mechanical properties :
#
#
# Convention : Reuss Voigt Hill
#
# Bulk Modulus (GPa) = 15.20678 31.62679 23.41678
# Shear Modulus (GPa) = 14.97345 20.93706 17.95525
#
# Velocity S-wave (km/s) = 2.97256 3.51502 3.25511
# Velocity P-wave (km/s) = 4.55580 5.92768 5.28643
#
# Compressibility (1/GPa) = 0.06576016
#
# Stress axis : x y z
#
# Youngs Moduli (GPa) = 16.69932 95.32968 70.31158
#
# Poissons Ratio (x) = 0.41266 0.10786
# Poissons Ratio (y) = 0.07229 0.24993
# Poissons Ratio (z) = 0.02562 0.33886
#
# Static dielectric constant tensor:
#      x y z
#    x 1.567240 0.000000 0.000000 
#    y 0.000000 1.567670 0.000000 
#    z 0.000000 0.000000 1.582520 
# 
# From -- ./inp_files/60979.got.cif
#   From: 2010.05.17/outbox.cif.g08.bks.cpg/sg65_31_cif.got.tgz:60979.got - 2010.06.03 17:01:31.
