data_PCOD9488784
_publ_section_title
;
Structure prediction by ZEFSAII (Michael W. Deem and Ramdas Pophale) SiO2 
 PCOD9488784
Probable space group: C M M M
;
_chemical_formula_sum "Si O2"
_cell_formula_units_Z 96
_cell_length_a 9.197943
_cell_length_b 31.869269
_cell_length_c 18.874970
_cell_angle_alpha 90.000000
_cell_angle_beta 90.000000
_cell_angle_gamma 90.000000
_cell_volume 5532.852416
_symmetry_space_group_name_H-M "C M M M"
_symmetry_group_IT_number 65
_symmetry_cell_setting 'orthorhombic'
loop_
_space_group_symop_operation_xyz
x,y,z
-x,-y,z
x,-y,-z
-x,y,-z
-x,-y,-z
x,y,-z
-x,y,z
x,-y,z
1/2+x,1/2+y,z
1/2-x,1/2-y,z
1/2+x,1/2-y,-z
1/2-x,1/2+y,-z
1/2-x,1/2-y,-z
1/2+x,1/2+y,-z
1/2-x,1/2+y,z
1/2+x,1/2-y,z
loop_
_atom_site_type_symbol
_atom_site_label
_atom_site_fract_x
_atom_site_fract_y
_atom_site_fract_z
Si Si1 0.671978 0.048479 0.682598
Si Si2 0.325400 0.615493 0.415668
Si Si3 0.331845 0.291248 0.413775
Si Si4 0.831069 0.377436 0.914562
Si Si5 0.173566 0.048287 0.165601
Si Si6 0.168100 0.792356 0.913616
O O1 0.500000 0.055932 0.692160
O O2 0.740823 0.080316 0.626942
O O3 0.755381 0.053149 0.756985
O O4 0.690728 0.000000 0.659527
O O5 0.301054 0.611517 0.500000
O O6 0.500000 0.612365 0.404361
O O7 0.278010 0.662530 0.392749
O O8 0.325930 0.291022 0.500000
O O9 0.500000 0.288192 0.393659
O O10 0.250000 0.250000 0.387964
O O11 0.747187 0.417494 0.884435
O O12 0.752343 0.334390 0.891394
O O13 0.000000 0.377684 0.892682
O O14 0.826796 0.378417 0.000000
O O15 0.000000 0.054407 0.169026
O O16 0.200626 0.000000 0.142523
O O17 0.250000 0.750000 0.890754
O O18 0.000000 0.792826 0.890965
O O19 0.168517 0.792093 0.000000
#
# Coordination Sequence:
#
# PCOD9488784 Si02
#       6
#    16  16  16  16  16  16
#     4  10  21  36  53  73  98 129 166 207 251 301
#     4   9  18  32  50  74 103 133 166 204 246 293
#     4   8  14  25  42  66  96 128 161 197 237 283
#     4  10  20  33  51  77 107 136 167 206 252 298
#     4  10  21  37  56  75  97 130 170 208 250 304
#     4   9  16  27  45  70 101 135 170 207 247 293
#
# _framework density 17.350905000000001
#
# number of rings (size 3 to 8) (size 9 to 14) (size 15 to 20)
#    0.000    2.667    0.000    3.000    0.000    6.667 
#    0.000    5.000    0.000    1.000    0.000    4.667 
#    0.000    0.000    0.000    0.000    0.000    0.000 
#
# Total GULP energy -267589.323608 kJ/mol
# GULP energy per Si atom -5574.777575 kJ/mol
# Density = 1.731141 g / cm^3
# Si number density = 17.350905 Si / 1000 Ang^3
#
#
#
# Elastic Constant Matrix: (Units=GPa)
#
#
# Indices 1 2 3 4 5 6 
#
# 1 127.3072 105.3237 33.7305 0.0000 0.0000 0.0000
# 2 105.3237 168.4244 45.9584 0.0000 0.0000 0.0000
# 3 33.7305 45.9584 16.8522 0.0000 0.0000 0.0000
# 4 0.0000 0.0000 0.0000 -23.1833 0.0000 0.0000
# 5 0.0000 0.0000 0.0000 0.0000 24.9572 0.0000
# 6 0.0000 0.0000 0.0000 0.0000 0.0000 38.4910
#
#
#
# Elastic Compliance Matrix: (Units=1/GPa)
#
#
# Indices 1 2 3 4 5 6 
#
# 1 0.017964 -0.005560 -0.020794 0.000000 0.000000 0.000000
# 2 -0.005560 0.024929 -0.056856 0.000000 0.000000 0.000000
# 3 -0.020794 -0.056856 0.256014 0.000000 0.000000 0.000000
# 4 0.000000 0.000000 0.000000 -0.043134 0.000000 0.000000
# 5 0.000000 0.000000 0.000000 0.000000 0.040069 0.000000
# 6 0.000000 0.000000 0.000000 0.000000 0.000000 0.025980
#
#
# Mechanical properties :
#
#
# Convention : Reuss Voigt Hill
#
# Bulk Modulus (GPa) = 7.54786 75.84545 41.69665
# Shear Modulus (GPa) = 9.39139 16.55771 12.97455
#
# Velocity S-wave (km/s) = 2.32903 3.09250 2.73751
# Velocity P-wave (km/s) = 3.40471 7.52057 5.83742
#
# Compressibility (1/GPa) = 0.13248788
#
# Stress axis : x y z
#
# Youngs Moduli (GPa) = 55.66654 40.11469 3.90603
#
# Poissons Ratio (x) = 0.22303 0.08122
# Poissons Ratio (y) = 0.30949 0.22208
# Poissons Ratio (z) = 1.15753 2.28075
#
# Static dielectric constant tensor:
#      x y z
#    x 1.579270 0.000000 0.000000 
#    y 0.000000 1.589530 0.000000 
#    z 0.000000 0.000000 1.565550 
# 
# From -- ./inp_files/60158.got.cif
#   From: 2010.05.17/outbox.cif.g08.bks.cpg/sg65_31_cif.got.tgz:60158.got - 2010.06.03 17:01:31.
