data_PCOD9488242
_publ_section_title
;
Structure prediction by ZEFSAII (Michael W. Deem and Ramdas Pophale) SiO2 
 PCOD9488242
Probable space group: C M M M
;
_chemical_formula_sum "Si O2"
_cell_formula_units_Z 104
_cell_length_a 29.468214
_cell_length_b 8.464389
_cell_length_c 23.766487
_cell_angle_alpha 90.000000
_cell_angle_beta 90.000000
_cell_angle_gamma 90.000000
_cell_volume 5928.084987
_symmetry_space_group_name_H-M "C M M M"
_symmetry_group_IT_number 65
_symmetry_cell_setting 'orthorhombic'
loop_
_space_group_symop_operation_xyz
x,y,z
-x,-y,z
x,-y,-z
-x,y,-z
-x,-y,-z
x,y,-z
-x,y,z
x,-y,z
1/2+x,1/2+y,z
1/2-x,1/2-y,z
1/2+x,1/2-y,-z
1/2-x,1/2+y,-z
1/2-x,1/2-y,-z
1/2+x,1/2+y,-z
1/2-x,1/2+y,z
1/2+x,1/2-y,z
loop_
_atom_site_type_symbol
_atom_site_label
_atom_site_fract_x
_atom_site_fract_y
_atom_site_fract_z
Si Si1 0.550634 0.192360 0.650739
Si Si2 0.642198 0.690269 0.830073
Si Si3 0.198551 0.190099 0.720010
Si Si4 0.301438 0.687582 0.500000
Si Si5 0.800770 0.191075 0.063757
Si Si6 0.853394 0.689784 0.609542
Si Si7 0.949103 0.309636 0.218481
O O1 0.500000 0.244750 0.633336
O O2 0.594104 0.243856 0.615088
O O3 0.557735 0.239026 0.716119
O O4 0.550201 0.000000 0.649884
O O5 0.642793 0.500000 0.830549
O O6 0.672453 0.742146 0.776623
O O7 0.664851 0.746292 0.888062
O O8 0.591169 0.745349 0.819306
O O9 0.250000 0.250000 0.720640
O O10 0.172614 0.255703 0.665619
O O11 0.198319 0.000000 0.717788
O O12 0.299815 0.500000 0.500000
O O13 0.250000 0.750000 0.500000
O O14 0.327900 0.745807 0.444837
O O15 0.750000 0.250000 0.076316
O O16 0.800207 0.000000 0.064431
O O17 0.812349 0.241968 0.000000
O O18 0.852916 0.500000 0.607399
O O19 0.947699 0.500000 0.217691
O O20 0.000000 0.259905 0.201894
#
# Coordination Sequence:
#
# PCOD9488242 Si02
#       7
#    16  16  16   8  16  16  16
#     4   8  15  30  54  82 108 134 168 209 252 304
#     4  10  20  32  49  76 107 136 171 216 266 316
#     4  11  22  34  49  74 107 137 169 211 263 313
#     4  12  26  44  61  78 105 139 180 221 259 308
#     4   9  18  33  51  72 101 139 181 222 262 310
#     4  11  21  37  60  82 105 137 176 214 258 308
#     4   9  17  31  52  78 106 137 173 212 257 311
#
# _framework density 17.543607000000002
#
# number of rings (size 3 to 8) (size 9 to 14) (size 15 to 20)
#    0.000    2.154    1.538    3.462    0.000    1.538 
#    0.000    0.385    0.000    4.615    0.000    3.231 
#    0.000    0.000    0.000    0.000    0.000    0.000 
#
# Total GULP energy -290182.282334 kJ/mol
# GULP energy per Si atom -5580.428506 kJ/mol
# Density = 1.750368 g / cm^3
# Si number density = 17.543607 Si / 1000 Ang^3
#
#
#
# Elastic Constant Matrix: (Units=GPa)
#
#
# Indices 1 2 3 4 5 6 
#
# 1 192.1341 29.5532 106.7976 0.0000 0.0000 0.0000
# 2 29.5532 31.3343 29.7002 0.0000 0.0000 0.0000
# 3 106.7976 29.7002 132.8479 0.0000 0.0000 0.0000
# 4 0.0000 0.0000 0.0000 4.0036 0.0000 0.0000
# 5 0.0000 0.0000 0.0000 0.0000 31.5881 0.0000
# 6 0.0000 0.0000 0.0000 0.0000 0.0000 23.7758
#
#
#
# Elastic Compliance Matrix: (Units=1/GPa)
#
#
# Indices 1 2 3 4 5 6 
#
# 1 0.009526 -0.002190 -0.007169 0.000000 0.000000 0.000000
# 2 -0.002190 0.040998 -0.007405 0.000000 0.000000 0.000000
# 3 -0.007169 -0.007405 0.014946 0.000000 0.000000 0.000000
# 4 0.000000 0.000000 0.000000 0.249775 0.000000 0.000000
# 5 0.000000 0.000000 0.000000 0.000000 0.031658 0.000000
# 6 0.000000 0.000000 0.000000 0.000000 0.000000 0.042060
#
#
# Mechanical properties :
#
#
# Convention : Reuss Voigt Hill
#
# Bulk Modulus (GPa) = 31.30597 76.49094 53.89845
# Shear Modulus (GPa) = 11.54367 24.55785 18.05076
#
# Velocity S-wave (km/s) = 2.56793 3.74547 3.21114
# Velocity P-wave (km/s) = 5.16486 7.89936 6.67367
#
# Compressibility (1/GPa) = 0.03194279
#
# Stress axis : x y z
#
# Youngs Moduli (GPa) = 104.97344 24.39118 66.90810
#
# Poissons Ratio (x) = 0.05342 0.47964
# Poissons Ratio (y) = 0.22989 0.49547
# Poissons Ratio (z) = 0.75251 0.18062
#
# Static dielectric constant tensor:
#      x y z
#    x 1.588740 0.000000 0.000000 
#    y 0.000000 1.602480 0.000000 
#    z 0.000000 0.000000 1.583640 
# 
# From -- ./inp_files/65928.got.cif
#   From: 2010.05.17/outbox.cif.g08.bks.cpg/sg65_33_cif.got.tgz:65928.got - 2010.06.03 17:01:31.
