data_PCOD9488874
_publ_section_title
;
Structure prediction by ZEFSAII (Michael W. Deem and Ramdas Pophale) SiO2 
 PCOD9488874
Probable space group: C M M M
;
_chemical_formula_sum "Si O2"
_cell_formula_units_Z 80
_cell_length_a 29.744530
_cell_length_b 7.794580
_cell_length_c 17.445931
_cell_angle_alpha 90.000000
_cell_angle_beta 90.000000
_cell_angle_gamma 90.000000
_cell_volume 4044.771389
_symmetry_space_group_name_H-M "C M M M"
_symmetry_group_IT_number 65
_symmetry_cell_setting 'orthorhombic'
loop_
_space_group_symop_operation_xyz
x,y,z
-x,-y,z
x,-y,-z
-x,y,-z
-x,-y,-z
x,y,-z
-x,y,z
x,-y,z
1/2+x,1/2+y,z
1/2-x,1/2-y,z
1/2+x,1/2-y,-z
1/2-x,1/2+y,-z
1/2-x,1/2-y,-z
1/2+x,1/2+y,-z
1/2-x,1/2+y,z
1/2+x,1/2-y,z
loop_
_atom_site_type_symbol
_atom_site_label
_atom_site_fract_x
_atom_site_fract_y
_atom_site_fract_z
Si Si1 0.448262 0.210451 0.000000
Si Si2 0.123716 0.705005 0.877048
Si Si3 0.198158 0.706712 0.585149
Si Si4 0.126787 0.703769 0.704924
Si Si5 0.197368 0.797244 0.000000
Si Si6 0.447854 0.707208 0.414737
O O1 0.418746 0.268023 0.073071
O O2 0.500000 0.266367 0.000000
O O3 0.448563 0.000000 0.000000
O O4 0.118002 0.500000 0.872178
O O5 0.125000 0.775247 0.790861
O O6 0.169058 0.734681 0.926020
O O7 0.185667 0.771063 0.500000
O O8 0.193836 0.500000 0.583602
O O9 0.250000 0.750000 0.598313
O O10 0.166557 0.776007 0.651870
O O11 0.134826 0.500000 0.712813
O O12 0.082138 0.727448 0.654613
O O13 0.250000 0.750000 0.000000
O O14 0.194524 0.000000 0.000000
O O15 0.432298 0.764710 0.500000
O O16 0.500000 0.757658 0.406704
O O17 0.446111 0.500000 0.414156
#
# Coordination Sequence:
#
# PCOD9488874 Si02
#       6
#     8  16  16  16   8  16
#     4   8  14  28  51  73  96 130 164 196 242 301
#     4   9  19  35  53  78 109 135 168 213 259 313
#     4   9  18  32  48  68  96 129 166 206 248 297
#     4  10  20  33  52  78 106 134 168 216 266 310
#     4  11  22  38  60  80 103 138 176 214 261 314
#     4   9  19  35  52  72 103 144 186 224 263 309
#
# _framework density 19.778621000000001
#
# number of rings (size 3 to 8) (size 9 to 14) (size 15 to 20)
#    0.000    2.700    0.000    2.700    0.000    4.800 
#    0.000    7.000    0.000    4.800    0.000    0.000 
#    0.000    0.000    0.000    0.000    0.000    0.000 
#
# Total GULP energy -223117.357267 kJ/mol
# GULP energy per Si atom -5577.933932 kJ/mol
# Density = 1.973360 g / cm^3
# Si number density = 19.778621 Si / 1000 Ang^3
#
#
#
# Elastic Constant Matrix: (Units=GPa)
#
#
# Indices 1 2 3 4 5 6 
#
# 1 144.4580 -8.2615 112.6510 0.0000 0.0000 0.0000
# 2 -8.2615 21.0371 7.9753 0.0000 0.0000 0.0000
# 3 112.6510 7.9753 224.3273 0.0000 0.0000 0.0000
# 4 0.0000 0.0000 0.0000 11.7995 0.0000 0.0000
# 5 0.0000 0.0000 0.0000 0.0000 3.5705 0.0000
# 6 0.0000 0.0000 0.0000 0.0000 0.0000 23.6387
#
#
#
# Elastic Compliance Matrix: (Units=1/GPa)
#
#
# Indices 1 2 3 4 5 6 
#
# 1 0.012401 0.007330 -0.006488 0.000000 0.000000 0.000000
# 2 0.007330 0.052517 -0.005548 0.000000 0.000000 0.000000
# 3 -0.006488 -0.005548 0.007913 0.000000 0.000000 0.000000
# 4 0.000000 0.000000 0.000000 0.084750 0.000000 0.000000
# 5 0.000000 0.000000 0.000000 0.000000 0.280071 0.000000
# 6 0.000000 0.000000 0.000000 0.000000 0.000000 0.042304
#
#
# Mechanical properties :
#
#
# Convention : Reuss Voigt Hill
#
# Bulk Modulus (GPa) = 15.76827 68.28356 42.02591
# Shear Modulus (GPa) = 9.79419 26.29891 18.04655
#
# Velocity S-wave (km/s) = 2.22770 3.65041 3.02392
# Velocity P-wave (km/s) = 3.82185 7.23645 5.78674
#
# Compressibility (1/GPa) = 0.06341851
#
# Stress axis : x y z
#
# Youngs Moduli (GPa) = 80.63773 19.04157 126.37189
#
# Poissons Ratio (x) = -0.13957 0.81991
# Poissons Ratio (y) = -0.59105 0.70109
# Poissons Ratio (z) = 0.52319 0.10564
#
# Static dielectric constant tensor:
#      x y z
#    x 1.731730 0.000000 0.000000 
#    y 0.000000 1.722940 0.000000 
#    z 0.000000 0.000000 1.730400 
# 
# From -- ./inp_files/57285.got.cif
#   From: 2010.05.17/outbox.cif.g08.bks.cpg/sg65_29_cif.got.tgz:57285.got - 2010.06.03 17:01:31.
