data_PCOD9488662
_publ_section_title
;
Structure prediction by ZEFSAII (Michael W. Deem and Ramdas Pophale) SiO2 
 PCOD9488662
Probable space group: C M M M
;
_chemical_formula_sum "Si O2"
_cell_formula_units_Z 56
_cell_length_a 9.411432
_cell_length_b 28.833925
_cell_length_c 10.697110
_cell_angle_alpha 90.000000
_cell_angle_beta 90.000000
_cell_angle_gamma 90.000000
_cell_volume 2902.858956
_symmetry_space_group_name_H-M "C M M M"
_symmetry_group_IT_number 65
_symmetry_cell_setting 'orthorhombic'
loop_
_space_group_symop_operation_xyz
x,y,z
-x,-y,z
x,-y,-z
-x,y,-z
-x,-y,-z
x,y,-z
-x,y,z
x,-y,z
1/2+x,1/2+y,z
1/2-x,1/2-y,z
1/2+x,1/2-y,-z
1/2-x,1/2+y,-z
1/2-x,1/2-y,-z
1/2+x,1/2+y,-z
1/2-x,1/2+y,z
1/2+x,1/2-y,z
loop_
_atom_site_type_symbol
_atom_site_label
_atom_site_fract_x
_atom_site_fract_y
_atom_site_fract_z
Si Si1 0.169142 0.134226 0.260626
Si Si2 0.842515 0.708913 0.145532
Si Si3 0.667063 0.055273 0.146173
Si Si4 0.330268 0.299829 0.500000
O O1 0.250417 0.163071 0.154670
O O2 0.238469 0.083803 0.244311
O O3 0.200315 0.166002 0.382238
O O4 0.000000 0.132263 0.245492
O O5 0.750000 0.750000 0.204183
O O6 0.000000 0.704615 0.201489
O O7 0.860691 0.720070 0.000000
O O8 0.500000 0.067747 0.159929
O O9 0.679907 0.000000 0.164252
O O10 0.706109 0.064523 0.000000
O O11 0.500000 0.290291 0.500000
O O12 0.250000 0.250000 0.500000
#
# Coordination Sequence:
#
# PCOD9488662 Si02
#       4
#    16  16  16   8
#     4  11  22  36  55  79 108 143 185 229 275 328
#     4  10  20  33  50  75 107 139 173 218 273 331
#     4   9  19  37  60  86 116 147 180 223 276 332
#     4  10  24  42  57  78 109 147 190 235 279 322
#
# _framework density 19.291326000000002
#
# number of rings (size 3 to 8) (size 9 to 14) (size 15 to 20)
#    0.000    2.000    0.000    4.286    0.000   10.857 
#    0.000    2.143    0.000    4.286    0.000    0.000 
#    0.000    0.000    0.000    0.000    0.000    0.000 
#
# Total GULP energy -156027.017687 kJ/mol
# GULP energy per Si atom -5572.393489 kJ/mol
# Density = 1.924742 g / cm^3
# Si number density = 19.291326 Si / 1000 Ang^3
#
#
#
# Elastic Constant Matrix: (Units=GPa)
#
#
# Indices 1 2 3 4 5 6 
#
# 1 119.6091 70.9058 54.0639 0.0000 0.0000 0.0000
# 2 70.9058 108.6727 42.3196 0.0000 0.0000 0.0000
# 3 54.0639 42.3196 66.9509 0.0000 0.0000 0.0000
# 4 0.0000 0.0000 0.0000 4.9863 0.0000 0.0000
# 5 0.0000 0.0000 0.0000 0.0000 15.2149 0.0000
# 6 0.0000 0.0000 0.0000 0.0000 0.0000 38.7612
#
#
#
# Elastic Compliance Matrix: (Units=1/GPa)
#
#
# Indices 1 2 3 4 5 6 
#
# 1 0.016812 -0.007538 -0.008811 0.000000 0.000000 0.000000
# 2 -0.007538 0.015587 -0.003765 0.000000 0.000000 0.000000
# 3 -0.008811 -0.003765 0.024431 0.000000 0.000000 0.000000
# 4 0.000000 0.000000 0.000000 0.200550 0.000000 0.000000
# 5 0.000000 0.000000 0.000000 0.000000 0.065725 0.000000
# 6 0.000000 0.000000 0.000000 0.000000 0.000000 0.025799
#
#
# Mechanical properties :
#
#
# Convention : Reuss Voigt Hill
#
# Bulk Modulus (GPa) = 60.23643 69.97902 65.10772
# Shear Modulus (GPa) = 12.66894 20.32203 16.49548
#
# Velocity S-wave (km/s) = 2.56543 3.24918 2.92733
# Velocity P-wave (km/s) = 6.32990 7.10140 6.72672
#
# Compressibility (1/GPa) = 0.01660125
#
# Stress axis : x y z
#
# Youngs Moduli (GPa) = 59.48186 64.15804 40.93103
#
# Poissons Ratio (x) = 0.48362 0.36065
# Poissons Ratio (y) = 0.44838 0.15411
# Poissons Ratio (z) = 0.52410 0.24156
#
# Static dielectric constant tensor:
#      x y z
#    x 1.709060 0.000000 0.000000 
#    y 0.000000 1.776610 0.000000 
#    z 0.000000 0.000000 1.752770 
# 
# From -- ./inp_files/20438.got.cif
#   From: 2010.05.17/outbox.cif.g08.bks.cpg/sg65_11_cif.got.tgz:20438.got - 2010.06.03 17:01:31.
