data_PCOD9488354
_publ_section_title
;
Structure prediction by ZEFSAII (Michael W. Deem and Ramdas Pophale) SiO2 
 PCOD9488354
Probable space group: C M M M
;
_chemical_formula_sum "Si O2"
_cell_formula_units_Z 72
_cell_length_a 26.249450
_cell_length_b 7.356253
_cell_length_c 17.186451
_cell_angle_alpha 90.000000
_cell_angle_beta 90.000000
_cell_angle_gamma 90.000000
_cell_volume 3318.662360
_symmetry_space_group_name_H-M "C M M M"
_symmetry_group_IT_number 65
_symmetry_cell_setting 'orthorhombic'
loop_
_space_group_symop_operation_xyz
x,y,z
-x,-y,z
x,-y,-z
-x,y,-z
-x,-y,-z
x,y,-z
-x,y,z
x,-y,z
1/2+x,1/2+y,z
1/2-x,1/2-y,z
1/2+x,1/2-y,-z
1/2-x,1/2+y,-z
1/2-x,1/2-y,-z
1/2+x,1/2+y,-z
1/2-x,1/2+y,z
1/2+x,1/2-y,z
loop_
_atom_site_type_symbol
_atom_site_label
_atom_site_fract_x
_atom_site_fract_y
_atom_site_fract_z
Si Si1 0.899016 0.221761 0.686000
Si Si2 0.188654 0.217334 0.000000
Si Si3 0.888605 0.222422 0.864508
Si Si4 0.000000 0.203056 0.091785
Si Si5 0.804735 0.216458 0.587503
Si Si6 0.000000 0.221634 0.591809
O O1 0.886789 0.275797 0.774297
O O2 0.852140 0.286082 0.634417
O O3 0.950760 0.278123 0.642317
O O4 0.900689 0.000000 0.687053
O O5 0.250000 0.250000 0.000000
O O6 0.156451 0.281362 0.076467
O O7 0.184157 0.000000 0.000000
O O8 0.945292 0.285093 0.888886
O O9 0.888351 0.000000 0.868760
O O10 0.000000 0.000000 0.129549
O O11 0.000000 0.183635 0.000000
O O12 0.803564 0.290794 0.500000
O O13 0.750000 0.250000 0.625028
O O14 0.810976 0.000000 0.582288
O O15 0.000000 0.278520 0.500000
O O16 0.000000 0.000000 0.589281
#
# Coordination Sequence:
#
# PCOD9488354 Si02
#       6
#    16   8  16   8  16   8
#     4   9  16  25  39  61  89 117 146 180 221 267
#     4  10  20  33  47  65  91 122 153 186 226 270
#     4   9  16  26  41  63  88 114 146 185 224 263
#     4   9  13  21  39  61  85 109 137 175 217 255
#     4   9  17  29  44  62  85 114 148 183 217 255
#     4   9  15  23  37  60  92 124 147 174 222 278
#
# _framework density 21.695488000000001
#
# number of rings (size 3 to 8) (size 9 to 14) (size 15 to 20)
#    0.000    2.889    1.111    1.333    0.000    6.222 
#    0.000    0.000    0.000    0.000    0.000    2.333 
#    0.000    8.000    0.000    0.000    0.000    0.000 
#
# Total GULP energy -200652.046212 kJ/mol
# GULP energy per Si atom -5573.667950 kJ/mol
# Density = 2.164611 g / cm^3
# Si number density = 21.695488 Si / 1000 Ang^3
#
#
#
# Elastic Constant Matrix: (Units=GPa)
#
#
# Indices 1 2 3 4 5 6 
#
# 1 257.2931 3.7050 129.8176 0.0000 0.0000 0.0000
# 2 3.7050 79.5129 6.9488 0.0000 0.0000 0.0000
# 3 129.8176 6.9488 168.1369 0.0000 0.0000 0.0000
# 4 0.0000 0.0000 0.0000 -10.9542 0.0000 0.0000
# 5 0.0000 0.0000 0.0000 0.0000 9.6700 0.0000
# 6 0.0000 0.0000 0.0000 0.0000 0.0000 8.6637
#
#
#
# Elastic Compliance Matrix: (Units=1/GPa)
#
#
# Indices 1 2 3 4 5 6 
#
# 1 0.006368 0.000133 -0.004922 0.000000 0.000000 0.000000
# 2 0.000133 0.012625 -0.000625 0.000000 0.000000 0.000000
# 3 -0.004922 -0.000625 0.009774 0.000000 0.000000 0.000000
# 4 0.000000 0.000000 0.000000 -0.091289 0.000000 0.000000
# 5 0.000000 0.000000 0.000000 0.000000 0.103413 0.000000
# 6 0.000000 0.000000 0.000000 0.000000 0.000000 0.115424
#
#
# Mechanical properties :
#
#
# Convention : Reuss Voigt Hill
#
# Bulk Modulus (GPa) = 55.74256 87.32065 71.53161
# Shear Modulus (GPa) = 28.88127 25.77398 27.32763
#
# Velocity S-wave (km/s) = 3.65253 3.45046 3.55293
# Velocity P-wave (km/s) = 6.59825 7.49733 7.06211
#
# Compressibility (1/GPa) = 0.01793961
#
# Stress axis : x y z
#
# Youngs Moduli (GPa) = 157.02671 79.20814 102.31247
#
# Poissons Ratio (x) = -0.01057 0.50363
# Poissons Ratio (y) = -0.02095 0.06392
# Poissons Ratio (z) = 0.77296 0.04949
#
# Static dielectric constant tensor:
#      x y z
#    x 2.464840 0.000000 0.000000 
#    y 0.000000 1.908170 0.000000 
#    z 0.000000 0.000000 1.972530 
# 
# From -- ./inp_files/56582.got.cif
#   From: 2010.05.17/outbox.cif.g08.bks.cpg/sg65_29_cif.got.tgz:56582.got - 2010.06.03 17:01:31.
