data_PCOD9488723
_publ_section_title
;
Structure prediction by ZEFSAII (Michael W. Deem and Ramdas Pophale) SiO2 
 PCOD9488723
Probable space group: C M M M
;
_chemical_formula_sum "Si O2"
_cell_formula_units_Z 112
_cell_length_a 14.130314
_cell_length_b 26.092741
_cell_length_c 14.844691
_cell_angle_alpha 90.000000
_cell_angle_beta 90.000000
_cell_angle_gamma 90.000000
_cell_volume 5473.217137
_symmetry_space_group_name_H-M "C M M M"
_symmetry_group_IT_number 65
_symmetry_cell_setting 'orthorhombic'
loop_
_space_group_symop_operation_xyz
x,y,z
-x,-y,z
x,-y,-z
-x,y,-z
-x,-y,-z
x,y,-z
-x,y,z
x,-y,z
1/2+x,1/2+y,z
1/2-x,1/2-y,z
1/2+x,1/2-y,-z
1/2-x,1/2+y,-z
1/2-x,1/2-y,-z
1/2+x,1/2+y,-z
1/2-x,1/2+y,z
1/2+x,1/2-y,z
loop_
_atom_site_type_symbol
_atom_site_label
_atom_site_fract_x
_atom_site_fract_y
_atom_site_fract_z
Si Si1 0.106562 0.387484 0.392418
Si Si2 0.897379 0.941214 0.786057
Si Si3 0.283629 0.059159 0.892440
Si Si4 0.886791 0.660735 0.101249
Si Si5 0.386556 0.214756 0.275524
Si Si6 0.193179 0.919440 0.397543
Si Si7 0.386670 0.305484 0.399544
O O1 0.109589 0.378199 0.500000
O O2 0.123034 0.334307 0.340688
O O3 0.195653 0.424217 0.373626
O O4 0.000000 0.405840 0.370010
O O5 0.809422 0.920042 0.841639
O O6 0.870580 0.941978 0.681003
O O7 0.000000 0.916305 0.798975
O O8 0.903593 0.000000 0.817250
O O9 0.363099 0.101666 0.874956
O O10 0.304072 0.000000 0.864554
O O11 0.267526 0.057906 0.000000
O O12 0.848210 0.698132 0.178438
O O13 0.000000 0.665746 0.099911
O O14 0.850998 0.670799 0.000000
O O15 0.500000 0.222248 0.266047
O O16 0.352984 0.266152 0.324045
O O17 0.176749 0.937584 0.500000
O O18 0.167145 0.859119 0.396305
O O19 0.373419 0.282888 0.500000
O O20 0.500000 0.315071 0.389948
#
# Coordination Sequence:
#
# PCOD9488723 Si02
#       7
#    16  16  16  16  16  16  16
#     4   9  17  29  46  69  97 129 165 202 240 289
#     4  10  21  36  54  76 101 130 167 210 255 307
#     4   9  18  33  53  76 101 130 167 212 258 301
#     4   9  17  29  48  76 107 138 172 208 250 304
#     4   9  16  27  44  66  97 135 168 203 248 294
#     4  10  20  33  51  75 103 135 168 206 255 305
#     4   9  17  29  46  70  99 129 166 213 258 298
#
# _framework density 20.463284999999999
#
# number of rings (size 3 to 8) (size 9 to 14) (size 15 to 20)
#    0.000    2.714    0.000    1.714    0.000    4.000 
#    0.000    5.714    0.000    2.143    0.000    7.000 
#    0.000    0.000    0.000   16.714    0.000    0.429 
#
# Total GULP energy -312199.249804 kJ/mol
# GULP energy per Si atom -5574.986604 kJ/mol
# Density = 2.041671 g / cm^3
# Si number density = 20.463285 Si / 1000 Ang^3
#
#
#
# Elastic Constant Matrix: (Units=GPa)
#
#
# Indices 1 2 3 4 5 6 
#
# 1 48.3180 3.0484 12.0218 0.0000 0.0000 0.0000
# 2 3.0484 43.8458 31.5816 0.0000 0.0000 0.0000
# 3 12.0218 31.5816 49.5919 0.0000 0.0000 0.0000
# 4 0.0000 0.0000 0.0000 80.2787 0.0000 0.0000
# 5 0.0000 0.0000 0.0000 0.0000 21.8367 0.0000
# 6 0.0000 0.0000 0.0000 0.0000 0.0000 13.2348
#
#
#
# Elastic Compliance Matrix: (Units=1/GPa)
#
#
# Indices 1 2 3 4 5 6 
#
# 1 0.022467 0.004361 -0.008224 0.000000 0.000000 0.000000
# 2 0.004361 0.042981 -0.028429 0.000000 0.000000 0.000000
# 3 -0.008224 -0.028429 0.040262 0.000000 0.000000 0.000000
# 4 0.000000 0.000000 0.000000 0.012457 0.000000 0.000000
# 5 0.000000 0.000000 0.000000 0.000000 0.045794 0.000000
# 6 0.000000 0.000000 0.000000 0.000000 0.000000 0.075559
#
#
# Mechanical properties :
#
#
# Convention : Reuss Voigt Hill
#
# Bulk Modulus (GPa) = 24.31424 26.11771 25.21597
# Shear Modulus (GPa) = 15.73260 29.41030 22.57145
#
# Velocity S-wave (km/s) = 2.77577 3.79518 3.32478
# Velocity P-wave (km/s) = 4.70966 5.65645 5.20463
#
# Compressibility (1/GPa) = 0.04112816
#
# Stress axis : x y z
#
# Youngs Moduli (GPa) = 44.50938 23.26624 24.83711
#
# Poissons Ratio (x) = -0.10148 0.20426
# Poissons Ratio (y) = -0.19413 0.70609
# Poissons Ratio (z) = 0.36604 0.66143
#
# Static dielectric constant tensor:
#      x y z
#    x 1.779910 0.000000 0.000000 
#    y 0.000000 1.717490 0.000000 
#    z 0.000000 0.000000 1.742030 
# 
# From -- ./inp_files/40787.got.cif
#   From: 2010.05.17/outbox.cif.g08.bks.cpg/sg65_21_cif.got.tgz:40787.got - 2010.06.03 17:01:31.
