data_PCOD9488284
_publ_section_title
;
Structure prediction by ZEFSAII (Michael W. Deem and Ramdas Pophale) SiO2 
 PCOD9488284
Probable space group: C M M M
;
_chemical_formula_sum "Si O2"
_cell_formula_units_Z 96
_cell_length_a 24.725611
_cell_length_b 23.976813
_cell_length_c 7.571852
_cell_angle_alpha 90.000000
_cell_angle_beta 90.000000
_cell_angle_gamma 90.000000
_cell_volume 4488.906971
_symmetry_space_group_name_H-M "C M M M"
_symmetry_group_IT_number 65
_symmetry_cell_setting 'orthorhombic'
loop_
_space_group_symop_operation_xyz
x,y,z
-x,-y,z
x,-y,-z
-x,y,-z
-x,-y,-z
x,y,-z
-x,y,z
x,-y,z
1/2+x,1/2+y,z
1/2-x,1/2-y,z
1/2+x,1/2-y,-z
1/2-x,1/2+y,-z
1/2-x,1/2-y,-z
1/2+x,1/2+y,-z
1/2-x,1/2+y,z
1/2+x,1/2-y,z
loop_
_atom_site_type_symbol
_atom_site_label
_atom_site_fract_x
_atom_site_fract_y
_atom_site_fract_z
Si Si1 0.831240 0.233475 0.703672
Si Si2 0.727193 0.378690 0.203886
Si Si3 0.560102 0.672562 0.214299
Si Si4 0.381348 0.437503 0.215684
Si Si5 0.156454 0.356244 0.704164
Si Si6 0.438525 0.064218 0.284279
O O1 0.813576 0.237204 0.500000
O O2 0.793864 0.185364 0.785467
O O3 0.892304 0.210784 0.713732
O O4 0.832948 0.295104 0.784902
O O5 0.677446 0.415338 0.275499
O O6 0.785249 0.385604 0.291346
O O7 0.734361 0.393455 0.000000
O O8 0.500000 0.687844 0.270882
O O9 0.575232 0.609242 0.265761
O O10 0.562571 0.675538 0.000000
O O11 0.392426 0.500000 0.275055
O O12 0.380079 0.437656 0.000000
O O13 0.141475 0.345571 0.500000
O O14 0.108140 0.393853 0.778791
O O15 0.437193 0.064137 0.500000
O O16 0.500000 0.079753 0.232693
O O17 0.428840 0.000000 0.229624
#
# Coordination Sequence:
#
# PCOD9488284 Si02
#       6
#    16  16  16  16  16  16
#     4  10  20  33  49  70  99 132 164 201 243 285
#     4  10  20  33  50  72  99 130 162 198 243 292
#     4   9  18  32  50  73 100 130 165 203 242 286
#     4   8  15  29  48  70  96 126 161 199 237 280
#     4  10  20  32  50  76  99 123 161 202 239 287
#     4   8  15  30  51  73  98 127 158 195 239 286
#
# _framework density 21.386050999999998
#
# number of rings (size 3 to 8) (size 9 to 14) (size 15 to 20)
#    0.000    2.833    0.000    3.000    0.000    5.333 
#    0.000    3.333    0.000   12.500    0.000    5.833 
#    0.000    0.000    0.000    0.000    0.000    0.000 
#
# Total GULP energy -267820.525578 kJ/mol
# GULP energy per Si atom -5579.594283 kJ/mol
# Density = 2.133738 g / cm^3
# Si number density = 21.386051 Si / 1000 Ang^3
#
#
#
# Elastic Constant Matrix: (Units=GPa)
#
#
# Indices 1 2 3 4 5 6 
#
# 1 133.8228 15.8568 -2.1679 0.0000 0.0000 0.0000
# 2 15.8568 16.5701 0.6483 0.0000 0.0000 0.0000
# 3 -2.1679 0.6483 48.3462 0.0000 0.0000 0.0000
# 4 0.0000 0.0000 0.0000 4.6391 0.0000 0.0000
# 5 0.0000 0.0000 0.0000 0.0000 -246.0213 0.0000
# 6 0.0000 0.0000 0.0000 0.0000 0.0000 6.9898
#
#
#
# Elastic Compliance Matrix: (Units=1/GPa)
#
#
# Indices 1 2 3 4 5 6 
#
# 1 0.008440 -0.008095 0.000487 0.000000 0.000000 0.000000
# 2 -0.008095 0.068147 -0.001277 0.000000 0.000000 0.000000
# 3 0.000487 -0.001277 0.020723 0.000000 0.000000 0.000000
# 4 0.000000 0.000000 0.000000 0.215561 0.000000 0.000000
# 5 0.000000 0.000000 0.000000 0.000000 -0.004065 0.000000
# 6 0.000000 0.000000 0.000000 0.000000 0.000000 0.143066
#
#
# Mechanical properties :
#
#
# Convention : Reuss Voigt Hill
#
# Bulk Modulus (GPa) = 12.57247 25.26817 18.92032
# Shear Modulus (GPa) = 10.07750 -34.58504 -12.25377
#
# Velocity S-wave (km/s) = 2.17311 -4.02578 -2.39630
# Velocity P-wave (km/s) = 3.49115 3.12542 1.09997
#
# Compressibility (1/GPa) = 0.07953887
#
# Stress axis : x y z
#
# Youngs Moduli (GPa) = 118.48759 14.67423 48.25528
#
# Poissons Ratio (x) = 0.11879 -0.02350
# Poissons Ratio (y) = 0.95921 0.06162
# Poissons Ratio (z) = -0.05770 0.01874
#
# Static dielectric constant tensor:
#      x y z
#    x 1.742890 0.000000 0.000000 
#    y 0.000000 1.773130 0.000000 
#    z 0.000000 0.000000 1.817900 
# 
# From -- ./inp_files/14280.got.cif
#   From: 2010.05.17/outbox.cif.g08.bks.cpg/sg65_8_cif.got.tgz:14280.got - 2010.06.03 17:01:31.
