data_PCOD9488846
_publ_section_title
;
Structure prediction by ZEFSAII (Michael W. Deem and Ramdas Pophale) SiO2 
 PCOD9488846
Probable space group: C M M M
;
_chemical_formula_sum "Si O2"
_cell_formula_units_Z 88
_cell_length_a 25.254085
_cell_length_b 20.320382
_cell_length_c 7.387836
_cell_angle_alpha 90.000000
_cell_angle_beta 90.000000
_cell_angle_gamma 90.000000
_cell_volume 3791.235409
_symmetry_space_group_name_H-M "C M M M"
_symmetry_group_IT_number 65
_symmetry_cell_setting 'orthorhombic'
loop_
_space_group_symop_operation_xyz
x,y,z
-x,-y,z
x,-y,-z
-x,y,-z
-x,-y,-z
x,y,-z
-x,y,z
x,-y,z
1/2+x,1/2+y,z
1/2-x,1/2-y,z
1/2+x,1/2-y,-z
1/2-x,1/2+y,-z
1/2-x,1/2-y,-z
1/2+x,1/2+y,-z
1/2-x,1/2+y,z
1/2+x,1/2-y,z
loop_
_atom_site_type_symbol
_atom_site_label
_atom_site_fract_x
_atom_site_fract_y
_atom_site_fract_z
Si Si1 0.938735 0.500000 0.778210
Si Si2 0.135090 0.382018 0.794643
Si Si3 0.759147 0.323027 0.788657
Si Si4 0.941874 0.886760 0.279785
Si Si5 0.058897 0.266729 0.718322
Si Si6 0.327869 0.571209 0.718818
O O1 0.904853 0.563509 0.717575
O O2 0.000000 0.500000 0.717752
O O3 0.941251 0.500000 0.000000
O O4 0.191736 0.364610 0.709285
O O5 0.103248 0.313668 0.795160
O O6 0.145468 0.404997 0.000000
O O7 0.750000 0.250000 0.711324
O O8 0.707145 0.367520 0.778331
O O9 0.773121 0.312902 0.000000
O O10 0.942633 0.890196 0.500000
O O11 0.936354 0.809701 0.231091
O O12 0.888706 0.922240 0.220216
O O13 0.000000 0.910019 0.219043
O O14 0.062261 0.269479 0.500000
O O15 0.000000 0.289587 0.771717
O O16 0.327992 0.572731 0.500000
O O17 0.306276 0.500000 0.776428
#
# Coordination Sequence:
#
# PCOD9488846 Si02
#       6
#     8  16  16  16  16  16
#     4   9  18  32  49  71  97 127 168 213 256 310
#     4  10  20  33  52  73  97 133 176 218 263 315
#     4  10  22  38  56  79 106 140 185 229 272 327
#     4   8  15  30  52  77 106 139 173 212 259 312
#     4   9  17  30  50  76 104 134 169 211 265 320
#     4  10  21  35  54  82 111 140 179 222 268 323
#
# _framework density 23.211431000000001
#
# number of rings (size 3 to 8) (size 9 to 14) (size 15 to 20)
#    0.000    2.636    0.000    2.727    1.273    2.909 
#    0.000    2.273    0.000    3.273    0.000    1.273 
#    0.000    0.000    0.000    0.000    0.000    0.000 
#
# Total GULP energy -245720.586642 kJ/mol
# GULP energy per Si atom -5584.558787 kJ/mol
# Density = 2.315860 g / cm^3
# Si number density = 23.211431 Si / 1000 Ang^3
#
#
#
# Elastic Constant Matrix: (Units=GPa)
#
#
# Indices 1 2 3 4 5 6 
#
# 1 163.8833 76.2507 -0.0204 0.0000 0.0000 0.0000
# 2 76.2507 120.9989 -0.8298 0.0000 0.0000 0.0000
# 3 -0.0204 -0.8298 78.4874 0.0000 0.0000 0.0000
# 4 0.0000 0.0000 0.0000 -9.6831 0.0000 0.0000
# 5 0.0000 0.0000 0.0000 0.0000 10.4476 0.0000
# 6 0.0000 0.0000 0.0000 0.0000 0.0000 41.3907
#
#
#
# Elastic Compliance Matrix: (Units=1/GPa)
#
#
# Indices 1 2 3 4 5 6 
#
# 1 0.008633 -0.005441 -0.000055 0.000000 0.000000 0.000000
# 2 -0.005441 0.011694 0.000122 0.000000 0.000000 0.000000
# 3 -0.000055 0.000122 0.012742 0.000000 0.000000 0.000000
# 4 0.000000 0.000000 0.000000 -0.103273 0.000000 0.000000
# 5 0.000000 0.000000 0.000000 0.000000 0.095716 0.000000
# 6 0.000000 0.000000 0.000000 0.000000 0.000000 0.024160
#
#
# Mechanical properties :
#
#
# Convention : Reuss Voigt Hill
#
# Bulk Modulus (GPa) = 44.79946 57.13009 50.96478
# Shear Modulus (GPa) = 73.67944 27.62897 50.65420
#
# Velocity S-wave (km/s) = 5.64018 3.45384 4.67657
# Velocity P-wave (km/s) = 7.85863 6.36959 7.15296
#
# Compressibility (1/GPa) = 0.02232170
#
# Stress axis : x y z
#
# Youngs Moduli (GPa) = 115.82864 85.51283 78.47953
#
# Poissons Ratio (x) = 0.46527 0.00434
# Poissons Ratio (y) = 0.63022 -0.00959
# Poissons Ratio (z) = 0.00640 -0.01045
#
# Static dielectric constant tensor:
#      x y z
#    x 1.853090 0.000000 0.000000 
#    y 0.000000 1.829640 0.000000 
#    z 0.000000 0.000000 1.904360 
# 
# From -- ./inp_files/13964.got.cif
#   From: 2010.05.17/outbox.cif.g08.bks.cpg/sg65_7_cif.got.tgz:13964.got - 2010.06.03 17:01:31.
