data_PCOD9488713
_publ_section_title
;
Structure prediction by ZEFSAII (Michael W. Deem and Ramdas Pophale) SiO2 
 PCOD9488713
Probable space group: C M M M
;
_chemical_formula_sum "Si O2"
_cell_formula_units_Z 80
_cell_length_a 18.797060
_cell_length_b 7.577904
_cell_length_c 27.260848
_cell_angle_alpha 90.000000
_cell_angle_beta 90.000000
_cell_angle_gamma 90.000000
_cell_volume 3883.098330
_symmetry_space_group_name_H-M "C M M M"
_symmetry_group_IT_number 65
_symmetry_cell_setting 'orthorhombic'
loop_
_space_group_symop_operation_xyz
x,y,z
-x,-y,z
x,-y,-z
-x,y,-z
-x,-y,-z
x,y,-z
-x,y,z
x,-y,z
1/2+x,1/2+y,z
1/2-x,1/2-y,z
1/2+x,1/2-y,-z
1/2-x,1/2+y,-z
1/2-x,1/2-y,-z
1/2+x,1/2+y,-z
1/2-x,1/2+y,z
1/2+x,1/2-y,z
loop_
_atom_site_type_symbol
_atom_site_label
_atom_site_fract_x
_atom_site_fract_y
_atom_site_fract_z
Si Si1 0.081145 0.211984 0.700352
Si Si2 0.666562 0.788183 0.903545
Si Si3 0.166212 0.787774 0.606415
Si Si4 0.917570 0.283875 0.000000
Si Si5 0.581562 0.788540 0.190725
Si Si6 0.665431 0.288412 0.500000
O O1 0.125726 0.280214 0.654270
O O2 0.109740 0.251433 0.754664
O O3 0.000000 0.278749 0.698515
O O4 0.078785 0.000000 0.696356
O O5 0.750000 0.750000 0.906221
O O6 0.623983 0.724395 0.951366
O O7 0.630277 0.721128 0.853463
O O8 0.659268 0.000000 0.903376
O O9 0.250000 0.750000 0.610301
O O10 0.139475 0.721614 0.553013
O O11 0.158191 0.000000 0.605657
O O12 0.917173 0.500000 0.000000
O O13 0.000000 0.229779 0.000000
O O14 0.500000 0.720928 0.187409
O O15 0.577825 0.000000 0.186048
O O16 0.655596 0.500000 0.500000
O O17 0.750000 0.250000 0.500000
#
# Coordination Sequence:
#
# PCOD9488713 Si02
#       6
#    16  16  16   8  16   8
#     4   9  18  32  48  67  93 123 153 188 232 278
#     4  10  20  33  51  75 101 126 154 193 237 277
#     4   9  17  29  46  67  90 117 151 189 228 273
#     4   9  17  32  55  77  96 125 164 198 228 269
#     4   9  18  33  51  69  90 121 161 196 225 267
#     4   8  14  26  43  63  87 115 147 184 226 270
#
# _framework density 20.602104000000001
#
# number of rings (size 3 to 8) (size 9 to 14) (size 15 to 20)
#    0.000    2.900    0.000    0.900    0.000    4.800 
#    0.000    4.500    0.000    5.400    0.000    0.000 
#    0.000   11.200    0.000    0.000    0.000    0.000 
#
# Total GULP energy -223064.780034 kJ/mol
# GULP energy per Si atom -5576.619501 kJ/mol
# Density = 2.055521 g / cm^3
# Si number density = 20.602104 Si / 1000 Ang^3
#
#
#
# Elastic Constant Matrix: (Units=GPa)
#
#
# Indices 1 2 3 4 5 6 
#
# 1 101.4775 -0.4515 116.9835 0.0000 0.0000 0.0000
# 2 -0.4515 48.0684 8.0677 0.0000 0.0000 0.0000
# 3 116.9835 8.0677 272.4627 0.0000 0.0000 0.0000
# 4 0.0000 0.0000 0.0000 15.7196 0.0000 0.0000
# 5 0.0000 0.0000 0.0000 0.0000 46.4672 0.0000
# 6 0.0000 0.0000 0.0000 0.0000 0.0000 18.3129
#
#
#
# Elastic Compliance Matrix: (Units=1/GPa)
#
#
# Indices 1 2 3 4 5 6 
#
# 1 0.019635 0.001607 -0.008478 0.000000 0.000000 0.000000
# 2 0.001607 0.021039 -0.001313 0.000000 0.000000 0.000000
# 3 -0.008478 -0.001313 0.007349 0.000000 0.000000 0.000000
# 4 0.000000 0.000000 0.000000 0.063615 0.000000 0.000000
# 5 0.000000 0.000000 0.000000 0.000000 0.021521 0.000000
# 6 0.000000 0.000000 0.000000 0.000000 0.000000 0.054606
#
#
# Mechanical properties :
#
#
# Convention : Reuss Voigt Hill
#
# Bulk Modulus (GPa) = 31.58973 74.57867 53.08420
# Shear Modulus (GPa) = 23.28999 35.92721 29.60860
#
# Velocity S-wave (km/s) = 3.36589 4.18049 3.79511
# Velocity P-wave (km/s) = 5.52016 7.71881 6.71015
#
# Compressibility (1/GPa) = 0.03165586
#
# Stress axis : x y z
#
# Youngs Moduli (GPa) = 50.92944 47.53039 136.06942
#
# Poissons Ratio (x) = -0.07640 1.15360
# Poissons Ratio (y) = -0.08186 0.17867
# Poissons Ratio (z) = 0.43178 0.06241
#
# Static dielectric constant tensor:
#      x y z
#    x 1.692120 0.000000 0.000000 
#    y 0.000000 1.807130 0.000000 
#    z 0.000000 0.000000 1.764240 
# 
# From -- ./inp_files/67330.got.cif
#   From: 2010.05.17/outbox.cif.g08.bks.cpg/sg65_34_cif.got.tgz:67330.got - 2010.06.03 17:01:31.
