data_PCOD9488855
_publ_section_title
;
Structure prediction by ZEFSAII (Michael W. Deem and Ramdas Pophale) SiO2 
 PCOD9488855
Probable space group: C M M M
;
_chemical_formula_sum "Si O2"
_cell_formula_units_Z 116
_cell_length_a 28.930053
_cell_length_b 27.221942
_cell_length_c 7.826776
_cell_angle_alpha 90.000000
_cell_angle_beta 90.000000
_cell_angle_gamma 90.000000
_cell_volume 6163.838316
_symmetry_space_group_name_H-M "C M M M"
_symmetry_group_IT_number 65
_symmetry_cell_setting 'orthorhombic'
loop_
_space_group_symop_operation_xyz
x,y,z
-x,-y,z
x,-y,-z
-x,y,-z
-x,-y,-z
x,y,-z
-x,y,z
x,-y,z
1/2+x,1/2+y,z
1/2-x,1/2-y,z
1/2+x,1/2-y,-z
1/2-x,1/2+y,-z
1/2-x,1/2-y,-z
1/2+x,1/2+y,-z
1/2-x,1/2+y,z
1/2+x,1/2-y,z
loop_
_atom_site_type_symbol
_atom_site_label
_atom_site_fract_x
_atom_site_fract_y
_atom_site_fract_z
Si Si1 0.151827 0.553050 0.201422
Si Si2 0.203512 0.051684 0.188119
Si Si3 0.298407 0.151916 0.793342
Si Si4 0.254207 0.500000 0.500000
Si Si5 0.355778 0.246025 0.794281
Si Si6 0.190616 0.848081 0.300369
Si Si7 0.051183 0.301419 0.207148
Si Si8 0.948284 0.584274 0.298469
O O1 0.165474 0.500000 0.281189
O O2 0.175969 0.602441 0.269675
O O3 0.096545 0.559092 0.219393
O O4 0.162178 0.550927 0.000000
O O5 0.237904 0.042278 0.346600
O O6 0.175238 0.101090 0.212999
O O7 0.176026 0.000000 0.190226
O O8 0.226469 0.054734 0.000000
O O9 0.323948 0.201062 0.731257
O O10 0.244745 0.155218 0.747885
O O11 0.302143 0.151473 0.000000
O O12 0.335721 0.298722 0.748180
O O13 0.407542 0.233528 0.735121
O O14 0.355755 0.243666 0.000000
O O15 0.186067 0.854685 0.500000
O O16 0.057590 0.357179 0.270823
O O17 0.000000 0.285106 0.259254
O O18 0.052500 0.304108 0.000000
O O19 0.947617 0.573686 0.500000
O O20 0.000000 0.571334 0.233038
#
# Coordination Sequence:
#
# PCOD9488855 Si02
#       8
#    16  16  16   4  16  16  16  16
#     4  10  21  38  57  76  99 131 179 230 278 334
#     4   9  17  32  53  75 106 141 174 223 267 306
#     4  10  21  37  52  71 100 137 180 227 281 336
#     4   8  14  32  52  78 106 136 179 218 259 322
#     4  10  20  35  54  77 105 137 175 221 274 332
#     4  12  23  35  51  77 108 142 187 228 266 327
#     4   9  17  33  58  82 104 135 175 219 270 331
#     4  10  20  33  52  76 104 135 170 217 277 337
#
# _framework density 18.819444000000001
#
# number of rings (size 3 to 8) (size 9 to 14) (size 15 to 20)
#    0.414    1.655    2.069    2.069    0.000    5.241 
#    0.000    2.759    0.000    0.000    0.000    0.000 
#    0.000    0.552    0.000    7.379    0.000    4.552 
#
# Total GULP energy -323014.408948 kJ/mol
# GULP energy per Si atom -5569.213947 kJ/mol
# Density = 1.877661 g / cm^3
# Si number density = 18.819444 Si / 1000 Ang^3
#
#
#
# Elastic Constant Matrix: (Units=GPa)
#
#
# Indices 1 2 3 4 5 6 
#
# 1 49.6812 43.4334 2.8707 0.0000 0.0000 0.0000
# 2 43.4334 152.1259 15.3038 0.0000 0.0000 0.0000
# 3 2.8707 15.3038 64.0889 0.0000 0.0000 0.0000
# 4 0.0000 0.0000 0.0000 30.2321 0.0000 0.0000
# 5 0.0000 0.0000 0.0000 0.0000 -16.2448 0.0000
# 6 0.0000 0.0000 0.0000 0.0000 0.0000 23.6098
#
#
#
# Elastic Compliance Matrix: (Units=1/GPa)
#
#
# Indices 1 2 3 4 5 6 
#
# 1 0.026850 -0.007731 0.000643 0.000000 0.000000 0.000000
# 2 -0.007731 0.008961 -0.001794 0.000000 0.000000 0.000000
# 3 0.000643 -0.001794 0.016003 0.000000 0.000000 0.000000
# 4 0.000000 0.000000 0.000000 0.033077 0.000000 0.000000
# 5 0.000000 0.000000 0.000000 0.000000 -0.061558 0.000000
# 6 0.000000 0.000000 0.000000 0.000000 0.000000 0.042355
#
#
# Mechanical properties :
#
#
# Convention : Reuss Voigt Hill
#
# Bulk Modulus (GPa) = 29.36694 43.23465 36.30079
# Shear Modulus (GPa) = 52.74251 21.13861 36.94056
#
# Velocity S-wave (km/s) = 5.29966 3.35510 4.43526
# Velocity P-wave (km/s) = 7.28608 6.16703 6.74978
#
# Compressibility (1/GPa) = 0.03405190
#
# Stress axis : x y z
#
# Youngs Moduli (GPa) = 37.24464 111.59382 62.48905
#
# Poissons Ratio (x) = 0.86268 -0.04020
# Poissons Ratio (y) = 0.28792 0.11208
# Poissons Ratio (z) = -0.02396 0.20015
#
# Static dielectric constant tensor:
#      x y z
#    x 1.658440 0.000000 0.000000 
#    y 0.000000 1.697610 0.000000 
#    z 0.000000 0.000000 1.709440 
# 
# From -- ./inp_files/16903.got.cif
#   From: 2010.05.17/outbox.cif.g08.bks.cpg/sg65_9_cif.got.tgz:16903.got - 2010.06.03 17:01:31.
