data_PCOD9488956
_publ_section_title
;
Structure prediction by ZEFSAII (Michael W. Deem and Ramdas Pophale) SiO2 
 PCOD9488956
Probable space group: C M M M
;
_chemical_formula_sum "Si O2"
_cell_formula_units_Z 88
_cell_length_a 31.535959
_cell_length_b 8.703696
_cell_length_c 17.633092
_cell_angle_alpha 90.000000
_cell_angle_beta 90.000000
_cell_angle_gamma 90.000000
_cell_volume 4839.920516
_symmetry_space_group_name_H-M "C M M M"
_symmetry_group_IT_number 65
_symmetry_cell_setting 'orthorhombic'
loop_
_space_group_symop_operation_xyz
x,y,z
-x,-y,z
x,-y,-z
-x,y,-z
-x,-y,-z
x,y,-z
-x,y,z
x,-y,z
1/2+x,1/2+y,z
1/2-x,1/2-y,z
1/2+x,1/2-y,-z
1/2-x,1/2+y,-z
1/2-x,1/2-y,-z
1/2+x,1/2+y,-z
1/2-x,1/2+y,z
1/2+x,1/2-y,z
loop_
_atom_site_type_symbol
_atom_site_label
_atom_site_fract_x
_atom_site_fract_y
_atom_site_fract_z
Si Si1 0.952398 0.185018 0.589070
Si Si2 0.822101 0.184430 0.917742
Si Si3 0.794420 0.183795 0.751574
Si Si4 0.591058 0.180326 0.868010
Si Si5 0.379815 0.177971 0.305465
Si Si6 0.000000 0.677541 0.909558
O O1 0.948218 0.224079 0.500000
O O2 0.914041 0.253233 0.637098
O O3 0.000000 0.234997 0.613966
O O4 0.951160 0.000000 0.595059
O O5 0.801151 0.241122 0.839197
O O6 0.871255 0.231750 0.909764
O O7 0.818561 0.000000 0.917419
O O8 0.806030 0.241226 0.000000
O O9 0.750000 0.250000 0.723621
O O10 0.834771 0.237137 0.702702
O O11 0.793146 0.000000 0.752880
O O12 0.600365 0.187177 0.778811
O O13 0.544483 0.246021 0.883483
O O14 0.592132 0.000000 0.891815
O O15 0.372230 0.000000 0.323589
O O16 0.000000 0.500000 0.881040
O O17 0.000000 0.674400 0.000000
#
# Coordination Sequence:
#
# PCOD9488956 Si02
#       6
#    16  16  16  16  16   8
#     4   9  19  36  57  82 113 147 179 210 250 304
#     4   9  18  32  48  67  95 129 166 215 271 319
#     4  10  20  35  54  75 103 136 176 221 269 321
#     4   9  18  30  45  66  93 129 172 214 256 306
#     4  10  20  33  53  79 107 138 175 217 262 310
#     4   9  16  26  41  61  88 125 168 212 255 295
#
# _framework density 18.182116000000001
#
# number of rings (size 3 to 8) (size 9 to 14) (size 15 to 20)
#    0.000    2.636    0.000    2.182    1.273    3.636 
#    0.000    1.364    0.000    2.182    0.000    0.000 
#    0.000    0.000    0.000    0.000    0.000    0.000 
#
# Total GULP energy -245289.307969 kJ/mol
# GULP energy per Si atom -5574.756999 kJ/mol
# Density = 1.814073 g / cm^3
# Si number density = 18.182116 Si / 1000 Ang^3
#
#
#
# Elastic Constant Matrix: (Units=GPa)
#
#
# Indices 1 2 3 4 5 6 
#
# 1 152.3787 34.3465 44.1704 0.0000 0.0000 0.0000
# 2 34.3465 33.9677 26.7308 0.0000 0.0000 0.0000
# 3 44.1704 26.7308 56.9380 0.0000 0.0000 0.0000
# 4 0.0000 0.0000 0.0000 17.1812 0.0000 0.0000
# 5 0.0000 0.0000 0.0000 0.0000 7.2308 0.0000
# 6 0.0000 0.0000 0.0000 0.0000 0.0000 29.7792
#
#
#
# Elastic Compliance Matrix: (Units=1/GPa)
#
#
# Indices 1 2 3 4 5 6 
#
# 1 0.009135 -0.005805 -0.004362 0.000000 0.000000 0.000000
# 2 -0.005805 0.050377 -0.019148 0.000000 0.000000 0.000000
# 3 -0.004362 -0.019148 0.029936 0.000000 0.000000 0.000000
# 4 0.000000 0.000000 0.000000 0.058203 0.000000 0.000000
# 5 0.000000 0.000000 0.000000 0.000000 0.138296 0.000000
# 6 0.000000 0.000000 0.000000 0.000000 0.000000 0.033581
#
#
# Mechanical properties :
#
#
# Convention : Reuss Voigt Hill
#
# Bulk Modulus (GPa) = 32.44605 50.42000 41.43302
# Shear Modulus (GPa) = 12.87232 20.04069 16.45650
#
# Velocity S-wave (km/s) = 2.66365 3.32357 3.01174
# Velocity P-wave (km/s) = 5.22913 6.52065 5.91028
#
# Compressibility (1/GPa) = 0.03082040
#
# Stress axis : x y z
#
# Youngs Moduli (GPa) = 109.46493 19.85014 33.40474
#
# Poissons Ratio (x) = 0.11523 0.14570
# Poissons Ratio (y) = 0.63542 0.63962
# Poissons Ratio (z) = 0.47745 0.38008
#
# Static dielectric constant tensor:
#      x y z
#    x 1.629370 0.000000 0.000000 
#    y 0.000000 1.626140 0.000000 
#    z 0.000000 0.000000 1.624150 
# 
# From -- ./inp_files/57996.got.cif
#   From: 2010.05.17/outbox.cif.g08.bks.cpg/sg65_29_cif.got.tgz:57996.got - 2010.06.03 17:01:31.
