data_PCOD9488398
_publ_section_title
;
Structure prediction by ZEFSAII (Michael W. Deem and Ramdas Pophale) SiO2 
 PCOD9488398
Probable space group: C M M M
;
_chemical_formula_sum "Si O2"
_cell_formula_units_Z 104
_cell_length_a 8.123577
_cell_length_b 28.712005
_cell_length_c 24.267160
_cell_angle_alpha 90.000000
_cell_angle_beta 90.000000
_cell_angle_gamma 90.000000
_cell_volume 5660.173919
_symmetry_space_group_name_H-M "C M M M"
_symmetry_group_IT_number 65
_symmetry_cell_setting 'orthorhombic'
loop_
_space_group_symop_operation_xyz
x,y,z
-x,-y,z
x,-y,-z
-x,y,-z
-x,-y,-z
x,y,-z
-x,y,z
x,-y,z
1/2+x,1/2+y,z
1/2-x,1/2-y,z
1/2+x,1/2-y,-z
1/2-x,1/2+y,-z
1/2-x,1/2-y,-z
1/2+x,1/2+y,-z
1/2-x,1/2+y,z
1/2+x,1/2-y,z
loop_
_atom_site_type_symbol
_atom_site_label
_atom_site_fract_x
_atom_site_fract_y
_atom_site_fract_z
Si Si1 0.189848 0.126144 0.849289
Si Si2 0.684792 0.500000 0.433763
Si Si3 0.306482 0.101410 0.562878
Si Si4 0.311286 0.197829 0.763333
Si Si5 0.699156 0.301362 0.936236
Si Si6 0.693173 0.366822 0.323749
Si Si7 0.700980 0.553523 0.761970
O O1 0.200427 0.165662 0.802336
O O2 0.261929 0.154175 0.901498
O O3 0.259005 0.080710 0.817543
O O4 0.000000 0.115147 0.862673
O O5 0.500000 0.500000 0.409563
O O6 0.670216 0.500000 0.500000
O O7 0.776954 0.452568 0.421085
O O8 0.244499 0.108141 0.500000
O O9 0.500000 0.110985 0.562993
O O10 0.220924 0.129300 0.611422
O O11 0.500000 0.194595 0.781888
O O12 0.250000 0.250000 0.764435
O O13 0.292149 0.175270 0.703299
O O14 0.500000 0.302553 0.934477
O O15 0.750000 0.250000 0.914571
O O16 0.752574 0.303994 0.000000
O O17 0.500000 0.360252 0.312831
O O18 0.745303 0.413833 0.290298
O O19 0.500000 0.552996 0.763662
O O20 0.756375 0.500000 0.758007
#
# Coordination Sequence:
#
# PCOD9488398 Si02
#       7
#    16   8  16  16  16  16  16
#     4   9  17  30  48  70  96 128 165 201 242 291
#     4   9  17  29  45  65  89 123 165 201 236 283
#     4  10  20  33  48  69  99 131 162 201 249 297
#     4  11  21  34  52  73  99 126 158 199 246 294
#     4   9  17  28  43  66  96 128 161 200 247 296
#     4  10  20  33  51  74  98 126 164 201 242 294
#     4   8  15  28  46  68  93 123 160 201 240 281
#
# _framework density 18.373992999999999
#
# number of rings (size 3 to 8) (size 9 to 14) (size 15 to 20)
#    0.000    2.538    0.000    3.923    1.077    3.692 
#    0.000    0.000    0.000    5.077    0.000    3.231 
#    0.000    0.000    0.000    9.385    0.000   10.154 
#
# Total GULP energy -289698.596403 kJ/mol
# GULP energy per Si atom -5571.126854 kJ/mol
# Density = 1.833217 g / cm^3
# Si number density = 18.373993 Si / 1000 Ang^3
#
#
#
# Elastic Constant Matrix: (Units=GPa)
#
#
# Indices 1 2 3 4 5 6 
#
# 1 31.2028 0.3957 0.6255 0.0000 0.0000 0.0000
# 2 0.3957 63.2362 12.5132 0.0000 0.0000 0.0000
# 3 0.6255 12.5132 72.5314 0.0000 0.0000 0.0000
# 4 0.0000 0.0000 0.0000 -48.2334 0.0000 0.0000
# 5 0.0000 0.0000 0.0000 0.0000 14.5485 0.0000
# 6 0.0000 0.0000 0.0000 0.0000 0.0000 16.1999
#
#
#
# Elastic Compliance Matrix: (Units=1/GPa)
#
#
# Indices 1 2 3 4 5 6 
#
# 1 0.032055 -0.000151 -0.000250 0.000000 0.000000 0.000000
# 2 -0.000151 0.016373 -0.002823 0.000000 0.000000 0.000000
# 3 -0.000250 -0.002823 0.014276 0.000000 0.000000 0.000000
# 4 0.000000 0.000000 0.000000 -0.020733 0.000000 0.000000
# 5 0.000000 0.000000 0.000000 0.000000 0.068735 0.000000
# 6 0.000000 0.000000 0.000000 0.000000 0.000000 0.061729
#
#
# Mechanical properties :
#
#
# Convention : Reuss Voigt Hill
#
# Bulk Modulus (GPa) = 17.77610 21.55993 19.66801
# Shear Modulus (GPa) = 25.29874 6.73207 16.01541
#
# Velocity S-wave (km/s) = 3.71466 1.91621 2.95555
# Velocity P-wave (km/s) = 5.30036 4.08108 4.73017
#
# Compressibility (1/GPa) = 0.05625531
#
# Stress axis : x y z
#
# Youngs Moduli (GPa) = 31.19606 61.07472 70.04571
#
# Poissons Ratio (x) = 0.00923 0.01754
# Poissons Ratio (y) = 0.00471 0.19777
# Poissons Ratio (z) = 0.00781 0.17244
#
# Static dielectric constant tensor:
#      x y z
#    x 1.674350 0.000000 0.000000 
#    y 0.000000 1.630610 0.000000 
#    z 0.000000 0.000000 1.680130 
# 
# From -- ./inp_files/68274.got.cif
#   From: 2010.05.17/outbox.cif.g08.bks.cpg/sg65_35_cif.got.tgz:68274.got - 2010.06.03 17:01:31.
