data_PCOD9488592
_publ_section_title
;
Structure prediction by ZEFSAII (Michael W. Deem and Ramdas Pophale) SiO2 
 PCOD9488592
Probable space group: C M M M
;
_chemical_formula_sum "Si O2"
_cell_formula_units_Z 104
_cell_length_a 26.736164
_cell_length_b 9.090139
_cell_length_c 24.963195
_cell_angle_alpha 90.000000
_cell_angle_beta 90.000000
_cell_angle_gamma 90.000000
_cell_volume 6066.941258
_symmetry_space_group_name_H-M "C M M M"
_symmetry_group_IT_number 65
_symmetry_cell_setting 'orthorhombic'
loop_
_space_group_symop_operation_xyz
x,y,z
-x,-y,z
x,-y,-z
-x,y,-z
-x,-y,-z
x,y,-z
-x,y,z
x,-y,z
1/2+x,1/2+y,z
1/2-x,1/2-y,z
1/2+x,1/2-y,-z
1/2-x,1/2+y,-z
1/2-x,1/2-y,-z
1/2+x,1/2+y,-z
1/2-x,1/2+y,z
1/2+x,1/2-y,z
loop_
_atom_site_type_symbol
_atom_site_label
_atom_site_fract_x
_atom_site_fract_y
_atom_site_fract_z
Si Si1 0.298221 0.666321 0.564375
Si Si2 0.440983 0.174611 0.230874
Si Si3 0.597162 0.175669 0.439150
Si Si4 0.303122 0.325311 0.064387
Si Si5 0.901633 0.323054 0.113993
Si Si6 0.440889 0.664054 0.337208
Si Si7 0.000000 0.172075 0.935748
O O1 0.291597 0.654494 0.500000
O O2 0.303675 0.500000 0.584883
O O3 0.250000 0.750000 0.586472
O O4 0.347227 0.763913 0.571237
O O5 0.500000 0.210671 0.221031
O O6 0.410348 0.206203 0.177141
O O7 0.421660 0.257505 0.283564
O O8 0.439074 0.000000 0.241119
O O9 0.582515 0.220937 0.500000
O O10 0.565996 0.244741 0.391328
O O11 0.595837 0.000000 0.437183
O O12 0.301992 0.500000 0.076178
O O13 0.250000 0.250000 0.078858
O O14 0.350535 0.248298 0.092358
O O15 0.309114 0.308741 0.000000
O O16 0.901292 0.500000 0.105926
O O17 0.950069 0.252572 0.085161
O O18 0.500000 0.653075 0.328565
O O19 0.419930 0.500000 0.343768
O O20 0.000000 0.000000 0.918852
O O21 0.000000 0.176099 0.000000
#
# Coordination Sequence:
#
# PCOD9488592 Si02
#       7
#    16  16  16  16  16  16   8
#     4   9  16  27  45  69  97 127 159 197 241 294
#     4   9  18  35  55  76 103 135 174 216 262 320
#     4  10  20  33  50  73 101 134 171 210 257 313
#     4  10  21  37  56  80 111 149 192 234 276 325
#     4  11  21  35  56  82 110 144 184 228 277 327
#     4  10  21  35  52  75 101 133 173 216 264 315
#     4  11  23  35  49  77 117 153 182 219 270 325
#
# _framework density 17.142081999999998
#
# number of rings (size 3 to 8) (size 9 to 14) (size 15 to 20)
#    0.000    2.077    0.769    3.000    0.000    8.615 
#    0.000    1.538    0.000    0.923    0.000    2.154 
#    0.000    0.000    0.000    0.000    0.000    0.000 
#
# Total GULP energy -289937.222694 kJ/mol
# GULP energy per Si atom -5575.715821 kJ/mol
# Density = 1.710307 g / cm^3
# Si number density = 17.142082 Si / 1000 Ang^3
#
#
#
# Elastic Constant Matrix: (Units=GPa)
#
#
# Indices 1 2 3 4 5 6 
#
# 1 94.8787 57.8817 50.8836 0.0000 0.0000 0.0000
# 2 57.8817 113.9120 71.3132 0.0000 0.0000 0.0000
# 3 50.8836 71.3132 96.8462 0.0000 0.0000 0.0000
# 4 0.0000 0.0000 0.0000 23.8932 0.0000 0.0000
# 5 0.0000 0.0000 0.0000 0.0000 15.5424 0.0000
# 6 0.0000 0.0000 0.0000 0.0000 0.0000 18.8644
#
#
#
# Elastic Compliance Matrix: (Units=1/GPa)
#
#
# Indices 1 2 3 4 5 6 
#
# 1 0.016298 -0.005418 -0.004573 0.000000 0.000000 0.000000
# 2 -0.005418 0.018088 -0.010472 0.000000 0.000000 0.000000
# 3 -0.004573 -0.010472 0.020440 0.000000 0.000000 0.000000
# 4 0.000000 0.000000 0.000000 0.041853 0.000000 0.000000
# 5 0.000000 0.000000 0.000000 0.000000 0.064340 0.000000
# 6 0.000000 0.000000 0.000000 0.000000 0.000000 0.053010
#
#
# Mechanical properties :
#
#
# Convention : Reuss Voigt Hill
#
# Bulk Modulus (GPa) = 71.95332 73.97709 72.96520
# Shear Modulus (GPa) = 19.26122 20.03057 19.64589
#
# Velocity S-wave (km/s) = 3.35568 3.42205 3.38903
# Velocity P-wave (km/s) = 7.55513 7.67221 7.61389
#
# Compressibility (1/GPa) = 0.01389790
#
# Stress axis : x y z
#
# Youngs Moduli (GPa) = 61.35748 55.28519 48.92434
#
# Poissons Ratio (x) = 0.29956 0.22374
# Poissons Ratio (y) = 0.33246 0.51235
# Poissons Ratio (z) = 0.28059 0.57896
#
# Static dielectric constant tensor:
#      x y z
#    x 1.580210 0.000000 0.000000 
#    y 0.000000 1.595830 0.000000 
#    z 0.000000 0.000000 1.571000 
# 
# From -- ./inp_files/76004.got.cif
#   From: 2010.05.17/outbox.cif.g08.bks.cpg/sg65_39_cif.got.tgz:76004.got - 2010.06.03 17:01:31.
