data_PCOD9488418
_publ_section_title
;
Structure prediction by ZEFSAII (Michael W. Deem and Ramdas Pophale) SiO2 
 PCOD9488418
Probable space group: C M M M
;
_chemical_formula_sum "Si O2"
_cell_formula_units_Z 96
_cell_length_a 28.055287
_cell_length_b 8.583663
_cell_length_c 24.745899
_cell_angle_alpha 90.000000
_cell_angle_beta 90.000000
_cell_angle_gamma 90.000000
_cell_volume 5959.236351
_symmetry_space_group_name_H-M "C M M M"
_symmetry_group_IT_number 65
_symmetry_cell_setting 'orthorhombic'
loop_
_space_group_symop_operation_xyz
x,y,z
-x,-y,z
x,-y,-z
-x,y,-z
-x,-y,-z
x,y,-z
-x,y,z
x,-y,z
1/2+x,1/2+y,z
1/2-x,1/2-y,z
1/2+x,1/2-y,-z
1/2-x,1/2+y,-z
1/2-x,1/2-y,-z
1/2+x,1/2+y,-z
1/2-x,1/2+y,z
1/2+x,1/2-y,z
loop_
_atom_site_type_symbol
_atom_site_label
_atom_site_fract_x
_atom_site_fract_y
_atom_site_fract_z
Si Si1 0.393615 0.187997 0.773531
Si Si2 0.555446 0.809255 0.117673
Si Si3 0.942011 0.318471 0.000000
Si Si4 0.696165 0.185351 0.500000
Si Si5 0.353725 0.686654 0.393040
Si Si6 0.945423 0.688297 0.337281
Si Si7 0.302474 0.686130 0.281939
O O1 0.414357 0.241758 0.830781
O O2 0.427553 0.233225 0.723022
O O3 0.341506 0.251225 0.759907
O O4 0.392236 0.000000 0.774188
O O5 0.500000 0.766059 0.125030
O O6 0.556473 0.000000 0.116245
O O7 0.572239 0.752366 0.058435
O O8 0.927322 0.500000 0.000000
O O9 0.000000 0.317037 0.000000
O O10 0.750000 0.250000 0.500000
O O11 0.668238 0.243011 0.447038
O O12 0.698421 0.000000 0.500000
O O13 0.353164 0.500000 0.396661
O O14 0.406999 0.743223 0.378841
O O15 0.321474 0.734831 0.341422
O O16 0.943623 0.500000 0.340342
O O17 0.000000 0.737325 0.346084
O O18 0.301973 0.500000 0.280443
O O19 0.250000 0.750000 0.272415
#
# Coordination Sequence:
#
# PCOD9488418 Si02
#       7
#    16  16   8   8  16  16  16
#     4   9  16  26  43  67  93 121 154 189 226 270
#     4   8  12  19  34  59  91 124 155 186 220 260
#     4   7  10  16  28  52  88 123 152 185 222 257
#     4  12  24  38  57  78  99 122 150 187 229 273
#     4  10  21  36  53  74  98 123 153 187 225 271
#     4   9  17  30  48  70  97 128 159 191 227 268
#     4  10  20  33  49  68  91 118 147 183 228 274
#
# _framework density 16.109446999999999
#
# number of rings (size 3 to 8) (size 9 to 14) (size 15 to 20)
#    0.000    2.750    0.000    3.750    0.000    5.667 
#    0.000    0.417    0.000    4.000    0.000    1.167 
#    0.000    2.000    0.000    0.000    0.000    0.000 
#
# Total GULP energy -267518.637101 kJ/mol
# GULP energy per Si atom -5573.304940 kJ/mol
# Density = 1.607278 g / cm^3
# Si number density = 16.109447 Si / 1000 Ang^3
#
#
#
# Elastic Constant Matrix: (Units=GPa)
#
#
# Indices 1 2 3 4 5 6 
#
# 1 142.1857 30.7398 88.3771 0.0000 0.0000 0.0000
# 2 30.7398 22.4768 31.7737 0.0000 0.0000 0.0000
# 3 88.3771 31.7737 157.9860 0.0000 0.0000 0.0000
# 4 0.0000 0.0000 0.0000 9.5321 0.0000 0.0000
# 5 0.0000 0.0000 0.0000 0.0000 18.5963 0.0000
# 6 0.0000 0.0000 0.0000 0.0000 0.0000 21.9581
#
#
#
# Elastic Compliance Matrix: (Units=1/GPa)
#
#
# Indices 1 2 3 4 5 6 
#
# 1 0.012151 -0.009794 -0.004828 0.000000 0.000000 0.000000
# 2 -0.009794 0.070057 -0.008611 0.000000 0.000000 0.000000
# 3 -0.004828 -0.008611 0.010762 0.000000 0.000000 0.000000
# 4 0.000000 0.000000 0.000000 0.104908 0.000000 0.000000
# 5 0.000000 0.000000 0.000000 0.000000 0.053774 0.000000
# 6 0.000000 0.000000 0.000000 0.000000 0.000000 0.045541
#
#
# Mechanical properties :
#
#
# Convention : Reuss Voigt Hill
#
# Bulk Modulus (GPa) = 21.50275 69.38108 45.44192
# Shear Modulus (GPa) = 13.92132 21.46782 17.69457
#
# Velocity S-wave (km/s) = 2.94287 3.65447 3.31780
# Velocity P-wave (km/s) = 4.99241 7.80826 6.55336
#
# Compressibility (1/GPa) = 0.04650567
#
# Stress axis : x y z
#
# Youngs Moduli (GPa) = 82.29735 14.27399 92.91884
#
# Poissons Ratio (x) = 0.13980 0.44858
# Poissons Ratio (y) = 0.80600 0.80014
# Poissons Ratio (z) = 0.39730 0.12292
#
# Static dielectric constant tensor:
#      x y z
#    x 1.513040 0.000000 0.000000 
#    y 0.000000 1.547420 0.000000 
#    z 0.000000 0.000000 1.553770 
# 
# From -- ./inp_files/71715.got.cif
#   From: 2010.05.17/outbox.cif.g08.bks.cpg/sg65_36_cif.got.tgz:71715.got - 2010.06.03 17:01:31.
