data_PCOD9488806
_publ_section_title
;
Structure prediction by ZEFSAII (Michael W. Deem and Ramdas Pophale) SiO2 
 PCOD9488806
Probable space group: C M M M
;
_chemical_formula_sum "Si O2"
_cell_formula_units_Z 116
_cell_length_a 23.880037
_cell_length_b 29.804491
_cell_length_c 8.426306
_cell_angle_alpha 90.000000
_cell_angle_beta 90.000000
_cell_angle_gamma 90.000000
_cell_volume 5997.274553
_symmetry_space_group_name_H-M "C M M M"
_symmetry_group_IT_number 65
_symmetry_cell_setting 'orthorhombic'
loop_
_space_group_symop_operation_xyz
x,y,z
-x,-y,z
x,-y,-z
-x,y,-z
-x,-y,-z
x,y,-z
-x,y,z
x,-y,z
1/2+x,1/2+y,z
1/2-x,1/2-y,z
1/2+x,1/2-y,-z
1/2-x,1/2+y,-z
1/2-x,1/2-y,-z
1/2+x,1/2+y,-z
1/2-x,1/2+y,z
1/2+x,1/2-y,z
loop_
_atom_site_type_symbol
_atom_site_label
_atom_site_fract_x
_atom_site_fract_y
_atom_site_fract_z
Si Si1 0.220599 0.948247 0.186886
Si Si2 0.403208 0.568553 0.684681
Si Si3 0.415788 0.759968 0.680600
Si Si4 0.939400 0.357403 0.190653
Si Si5 0.317262 0.883048 0.188368
Si Si6 0.500000 0.500000 0.783324
Si Si7 0.288095 0.788641 0.682560
Si Si8 0.433866 0.338359 0.178400
O O1 0.160460 0.943070 0.269725
O O2 0.271838 0.918345 0.251612
O O3 0.237366 0.000000 0.196525
O O4 0.212169 0.936803 0.000000
O O5 0.413930 0.558376 0.500000
O O6 0.450012 0.539318 0.777365
O O7 0.409452 0.621603 0.716741
O O8 0.436634 0.759382 0.500000
O O9 0.437586 0.804446 0.768124
O O10 0.349640 0.768041 0.675951
O O11 0.426676 0.712193 0.759805
O O12 0.881516 0.379900 0.252218
O O13 0.000000 0.375049 0.247802
O O14 0.938282 0.361456 0.000000
O O15 0.291311 0.834245 0.221108
O O16 0.321981 0.891116 0.000000
O O17 0.269808 0.798123 0.500000
O O18 0.250000 0.750000 0.753565
O O19 0.500000 0.346602 0.173120
O O20 0.410578 0.341889 0.000000
#
# Coordination Sequence:
#
# PCOD9488806 Si02
#       8
#    16  16  16  16  16   4  16  16
#     4  10  22  40  59  83 113 145 182 226 282 339
#     4  12  24  41  62  82 106 139 182 233 284 332
#     4  10  20  33  51  77 109 146 184 224 271 323
#     4   9  17  32  55  81 110 147 187 227 270 323
#     4   9  19  35  55  80 109 144 185 227 274 330
#     4  12  25  44  65  86 109 136 183 242 289 334
#     4   9  19  34  50  73 106 143 182 225 273 321
#     4  11  24  39  53  76 108 143 180 222 273 326
#
# _framework density 19.342117999999999
#
# number of rings (size 3 to 8) (size 9 to 14) (size 15 to 20)
#    0.000    1.931    1.379    2.276    1.931    4.138 
#    0.000    1.379    0.000    0.414    0.000    2.897 
#    0.000    0.000    0.000    8.138    0.000    8.552 
#
# Total GULP energy -322912.808793 kJ/mol
# GULP energy per Si atom -5567.462221 kJ/mol
# Density = 1.929809 g / cm^3
# Si number density = 19.342118 Si / 1000 Ang^3
#
#
#
# Elastic Constant Matrix: (Units=GPa)
#
#
# Indices 1 2 3 4 5 6 
#
# 1 133.8572 58.4315 5.2322 0.0000 0.0000 0.0000
# 2 58.4315 65.2593 4.3009 0.0000 0.0000 0.0000
# 3 5.2322 4.3009 19.5399 0.0000 0.0000 0.0000
# 4 0.0000 0.0000 0.0000 78.7630 0.0000 0.0000
# 5 0.0000 0.0000 0.0000 0.0000 -491.9389 0.0000
# 6 0.0000 0.0000 0.0000 0.0000 0.0000 144.5889
#
#
#
# Elastic Compliance Matrix: (Units=1/GPa)
#
#
# Indices 1 2 3 4 5 6 
#
# 1 0.012279 -0.010936 -0.000881 0.000000 0.000000 0.000000
# 2 -0.010936 0.025289 -0.002638 0.000000 0.000000 0.000000
# 3 -0.000881 -0.002638 0.051994 0.000000 0.000000 0.000000
# 4 0.000000 0.000000 0.000000 0.012696 0.000000 0.000000
# 5 0.000000 0.000000 0.000000 0.000000 -0.002033 0.000000
# 6 0.000000 0.000000 0.000000 0.000000 0.000000 0.006916
#
#
# Mechanical properties :
#
#
# Convention : Reuss Voigt Hill
#
# Bulk Modulus (GPa) = 16.48745 39.39837 27.94291
# Shear Modulus (GPa) = 31.99604 -43.67127 -5.83762
#
# Velocity S-wave (km/s) = 4.07162 -4.75682 -1.73915
# Velocity P-wave (km/s) = 5.53595 3.12352 3.23190
#
# Compressibility (1/GPa) = 0.06065218
#
# Stress axis : x y z
#
# Youngs Moduli (GPa) = 81.44007 39.54232 19.23303
#
# Poissons Ratio (x) = 0.43244 0.01694
# Poissons Ratio (y) = 0.89065 0.05074
# Poissons Ratio (z) = 0.07173 0.10431
#
# Static dielectric constant tensor:
#      x y z
#    x 1.723140 0.000000 0.000000 
#    y 0.000000 1.643740 0.000000 
#    z 0.000000 0.000000 1.715700 
# 
# From -- ./inp_files/14877.got.cif
#   From: 2010.05.17/outbox.cif.g08.bks.cpg/sg65_8_cif.got.tgz:14877.got - 2010.06.03 17:01:31.
