data_PCOD9488921
_publ_section_title
;
Structure prediction by ZEFSAII (Michael W. Deem and Ramdas Pophale) SiO2 
 PCOD9488921
Probable space group: C M M M
;
_chemical_formula_sum "Si O2"
_cell_formula_units_Z 96
_cell_length_a 18.250807
_cell_length_b 25.688151
_cell_length_c 11.823973
_cell_angle_alpha 90.000000
_cell_angle_beta 90.000000
_cell_angle_gamma 90.000000
_cell_volume 5543.427185
_symmetry_space_group_name_H-M "C M M M"
_symmetry_group_IT_number 65
_symmetry_cell_setting 'orthorhombic'
loop_
_space_group_symop_operation_xyz
x,y,z
-x,-y,z
x,-y,-z
-x,y,-z
-x,-y,-z
x,y,-z
-x,y,z
x,-y,z
1/2+x,1/2+y,z
1/2-x,1/2-y,z
1/2+x,1/2-y,-z
1/2-x,1/2+y,-z
1/2-x,1/2-y,-z
1/2+x,1/2+y,-z
1/2-x,1/2+y,z
1/2+x,1/2-y,z
loop_
_atom_site_type_symbol
_atom_site_label
_atom_site_fract_x
_atom_site_fract_y
_atom_site_fract_z
Si Si1 0.412788 0.859896 0.866087
Si Si2 0.341722 0.559459 0.865361
Si Si3 0.416570 0.656313 0.747895
Si Si4 0.662528 0.748813 0.131042
Si Si5 0.688868 0.938721 0.737807
Si Si6 0.582371 0.615284 0.500000
Si Si7 0.260411 0.562370 0.500000
O O1 0.500000 0.856165 0.847640
O O2 0.373610 0.804600 0.843120
O O3 0.375202 0.903556 0.788640
O O4 0.400978 0.871707 0.000000
O O5 0.364497 0.500000 0.838115
O O6 0.389807 0.602447 0.803344
O O7 0.258734 0.565538 0.821236
O O8 0.344767 0.566398 0.000000
O O9 0.500000 0.666416 0.782054
O O10 0.367865 0.703392 0.791131
O O11 0.413198 0.648978 0.613532
O O12 0.750000 0.750000 0.140477
O O13 0.644099 0.736598 0.000000
O O14 0.718485 0.921132 0.614487
O O15 0.668639 0.000000 0.731327
O O16 0.500000 0.590268 0.500000
O O17 0.654776 0.579666 0.500000
O O18 0.260222 0.500000 0.500000
#
# Coordination Sequence:
#
# PCOD9488921 Si02
#       7
#    16  16  16  16  16   8   8
#     4  10  21  37  58  86 119 151 188 236 288 346
#     4  10  20  33  52  80 112 146 186 231 280 338
#     4  11  22  37  56  79 113 150 186 232 284 337
#     4  10  21  37  59  86 113 146 188 232 281 340
#     4  10  20  36  58  83 113 148 189 237 286 337
#     4  10  22  37  56  83 114 151 195 240 284 333
#     4  10  20  37  60  83 110 153 201 239 279 336
#
# _framework density 17.317806999999998
#
# number of rings (size 3 to 8) (size 9 to 14) (size 15 to 20)
#    0.000    1.833    1.667    2.500    0.000    5.167 
#    0.000    5.000    0.000    1.500    0.000    0.000 
#    0.000    0.000    0.000    0.000    0.000    0.000 
#
# Total GULP energy -267906.431229 kJ/mol
# GULP energy per Si atom -5581.383984 kJ/mol
# Density = 1.727839 g / cm^3
# Si number density = 17.317807 Si / 1000 Ang^3
#
#
#
# Elastic Constant Matrix: (Units=GPa)
#
#
# Indices 1 2 3 4 5 6 
#
# 1 86.2572 46.5713 55.4962 0.0000 0.0000 0.0000
# 2 46.5713 70.2565 61.3346 0.0000 0.0000 0.0000
# 3 55.4962 61.3346 98.5512 0.0000 0.0000 0.0000
# 4 0.0000 0.0000 0.0000 18.3701 0.0000 0.0000
# 5 0.0000 0.0000 0.0000 0.0000 -90.3224 0.0000
# 6 0.0000 0.0000 0.0000 0.0000 0.0000 402.2102
#
#
#
# Elastic Compliance Matrix: (Units=1/GPa)
#
#
# Indices 1 2 3 4 5 6 
#
# 1 0.019804 -0.007427 -0.006530 0.000000 0.000000 0.000000
# 2 -0.007427 0.033954 -0.016949 0.000000 0.000000 0.000000
# 3 -0.006530 -0.016949 0.024372 0.000000 0.000000 0.000000
# 4 0.000000 0.000000 0.000000 0.054436 0.000000 0.000000
# 5 0.000000 0.000000 0.000000 0.000000 -0.011071 0.000000
# 6 0.000000 0.000000 0.000000 0.000000 0.000000 0.002486
#
#
# Mechanical properties :
#
#
# Convention : Reuss Voigt Hill
#
# Bulk Modulus (GPa) = 61.28074 64.65212 62.96643
# Shear Modulus (GPa) = 26.14611 72.16244 49.15427
#
# Velocity S-wave (km/s) = 3.88981 6.46220 5.33341
# Velocity P-wave (km/s) = 7.45902 9.64851 8.62353
#
# Compressibility (1/GPa) = 0.01631834
#
# Stress axis : x y z
#
# Youngs Moduli (GPa) = 50.49363 29.45204 41.02986
#
# Poissons Ratio (x) = 0.21875 0.26792
# Poissons Ratio (y) = 0.37503 0.69541
# Poissons Ratio (z) = 0.32972 0.49918
#
# Static dielectric constant tensor:
#      x y z
#    x 1.574630 0.000000 0.000000 
#    y 0.000000 1.567600 0.000000 
#    z 0.000000 0.000000 1.586420 
# 
# From -- ./inp_files/27199.got.cif
#   From: 2010.05.17/outbox.cif.g08.bks.cpg/sg65_14_cif.got.tgz:27199.got - 2010.06.03 17:01:31.
