data_PCOD9488000
_publ_section_title
;
Structure prediction by ZEFSAII (Michael W. Deem and Ramdas Pophale) SiO2 
 PCOD9488000
Probable space group: C M M M
;
_chemical_formula_sum "Si O2"
_cell_formula_units_Z 88
_cell_length_a 19.239456
_cell_length_b 7.538035
_cell_length_c 29.824164
_cell_angle_alpha 90.000000
_cell_angle_beta 90.000000
_cell_angle_gamma 90.000000
_cell_volume 4325.329692
_symmetry_space_group_name_H-M "C M M M"
_symmetry_group_IT_number 65
_symmetry_cell_setting 'orthorhombic'
loop_
_space_group_symop_operation_xyz
x,y,z
-x,-y,z
x,-y,-z
-x,y,-z
-x,-y,-z
x,y,-z
-x,y,z
x,-y,z
1/2+x,1/2+y,z
1/2-x,1/2-y,z
1/2+x,1/2-y,-z
1/2-x,1/2+y,-z
1/2-x,1/2-y,-z
1/2+x,1/2+y,-z
1/2-x,1/2+y,z
1/2+x,1/2-y,z
loop_
_atom_site_type_symbol
_atom_site_label
_atom_site_fract_x
_atom_site_fract_y
_atom_site_fract_z
Si Si1 0.419249 0.282517 0.402049
Si Si2 0.079545 0.787598 0.766961
Si Si3 0.915514 0.794356 0.500000
Si Si4 0.420793 0.213069 0.867169
Si Si5 0.831563 0.787182 0.683118
Si Si6 0.168547 0.712920 0.049624
O O1 0.500000 0.232356 0.394572
O O2 0.418630 0.500000 0.403368
O O3 0.395776 0.219058 0.451492
O O4 0.370464 0.222614 0.361668
O O5 0.105953 0.751942 0.817206
O O6 0.128928 0.719725 0.727513
O O7 0.000000 0.719166 0.763411
O O8 0.075691 0.000000 0.762267
O O9 0.000000 0.793506 0.500000
O O10 0.892955 0.000000 0.500000
O O11 0.500000 0.280351 0.869659
O O12 0.375141 0.281696 0.908342
O O13 0.423257 0.000000 0.870957
O O14 0.750000 0.750000 0.683434
O O15 0.839293 0.000000 0.682925
O O16 0.160071 0.500000 0.048719
O O17 0.250000 0.750000 0.055646
O O18 0.147997 0.779874 0.000000
#
# Coordination Sequence:
#
# PCOD9488000 Si02
#       6
#    16  16   8  16  16  16
#     4   8  13  24  44  67  89 115 150 190 227 263
#     4   9  18  33  51  68  87 116 154 191 226 265
#     4   7  10  18  37  66  91 109 140 189 232 260
#     4   9  18  32  50  72  95 118 147 186 230 271
#     4  10  20  32  46  66  93 122 151 185 225 270
#     4   9  18  32  49  69  94 124 155 185 219 263
#
# _framework density 20.345269999999999
#
# number of rings (size 3 to 8) (size 9 to 14) (size 15 to 20)
#    0.000    3.182    0.000    1.636    0.000    4.727 
#    0.000    5.909    0.000    1.636    0.000    5.091 
#    0.000    2.182    0.000    0.000    0.000    0.000 
#
# Total GULP energy -245311.325513 kJ/mol
# GULP energy per Si atom -5575.257398 kJ/mol
# Density = 2.029896 g / cm^3
# Si number density = 20.345270 Si / 1000 Ang^3
#
#
#
# Elastic Constant Matrix: (Units=GPa)
#
#
# Indices 1 2 3 4 5 6 
#
# 1 94.1316 0.7921 122.9652 0.0000 0.0000 0.0000
# 2 0.7921 51.2310 8.0910 0.0000 0.0000 0.0000
# 3 122.9652 8.0910 263.7844 0.0000 0.0000 0.0000
# 4 0.0000 0.0000 0.0000 25.1109 0.0000 0.0000
# 5 0.0000 0.0000 0.0000 0.0000 81.0457 0.0000
# 6 0.0000 0.0000 0.0000 0.0000 0.0000 16.4610
#
#
#
# Elastic Compliance Matrix: (Units=1/GPa)
#
#
# Indices 1 2 3 4 5 6 
#
# 1 0.027295 0.001595 -0.012773 0.000000 0.000000 0.000000
# 2 0.001595 0.019708 -0.001348 0.000000 0.000000 0.000000
# 3 -0.012773 -0.001348 0.009787 0.000000 0.000000 0.000000
# 4 0.000000 0.000000 0.000000 0.039823 0.000000 0.000000
# 5 0.000000 0.000000 0.000000 0.000000 0.012339 0.000000
# 6 0.000000 0.000000 0.000000 0.000000 0.000000 0.060750
#
#
# Mechanical properties :
#
#
# Convention : Reuss Voigt Hill
#
# Bulk Modulus (GPa) = 31.50796 74.76039 53.13418
# Shear Modulus (GPa) = 24.35077 43.01009 33.68043
#
# Velocity S-wave (km/s) = 3.46334 4.60282 4.07313
# Velocity P-wave (km/s) = 5.61367 8.06682 6.94935
#
# Compressibility (1/GPa) = 0.03173801
#
# Stress axis : x y z
#
# Youngs Moduli (GPa) = 36.63622 50.74167 102.18144
#
# Poissons Ratio (x) = -0.08094 1.30515
# Poissons Ratio (y) = -0.05844 0.13775
# Poissons Ratio (z) = 0.46795 0.06841
#
# Static dielectric constant tensor:
#      x y z
#    x 1.677790 0.000000 0.000000 
#    y 0.000000 1.798340 0.000000 
#    z 0.000000 0.000000 1.746500 
# 
# From -- ./inp_files/74259.got.cif
#   From: 2010.05.17/outbox.cif.g08.bks.cpg/sg65_38_cif.got.tgz:74259.got - 2010.06.03 17:01:31.
