data_PCOD9488099
_publ_section_title
;
Structure prediction by ZEFSAII (Michael W. Deem and Ramdas Pophale) SiO2 
 PCOD9488099
Probable space group: C M M M
;
_chemical_formula_sum "Si O2"
_cell_formula_units_Z 104
_cell_length_a 25.961271
_cell_length_b 8.804510
_cell_length_c 23.647819
_cell_angle_alpha 90.000000
_cell_angle_beta 90.000000
_cell_angle_gamma 90.000000
_cell_volume 5405.330264
_symmetry_space_group_name_H-M "C M M M"
_symmetry_group_IT_number 65
_symmetry_cell_setting 'orthorhombic'
loop_
_space_group_symop_operation_xyz
x,y,z
-x,-y,z
x,-y,-z
-x,y,-z
-x,-y,-z
x,y,-z
-x,y,z
x,-y,z
1/2+x,1/2+y,z
1/2-x,1/2-y,z
1/2+x,1/2-y,-z
1/2-x,1/2+y,-z
1/2-x,1/2-y,-z
1/2+x,1/2+y,-z
1/2-x,1/2+y,z
1/2+x,1/2-y,z
loop_
_atom_site_type_symbol
_atom_site_label
_atom_site_fract_x
_atom_site_fract_y
_atom_site_fract_z
Si Si1 0.111556 0.317084 0.179384
Si Si2 0.000000 0.180761 0.646625
Si Si3 0.890078 0.181040 0.064369
Si Si4 0.303740 0.817721 0.598468
Si Si5 0.000000 0.330607 0.933532
Si Si6 0.083149 0.683208 0.436761
Si Si7 0.196038 0.317296 0.269946
Si Si8 0.000000 0.683118 0.227776
O O1 0.111590 0.500000 0.174661
O O2 0.134393 0.251783 0.120694
O O3 0.148386 0.270740 0.231056
O O4 0.052728 0.272282 0.195437
O O5 0.950821 0.240116 0.611353
O O6 0.000000 0.248044 0.709608
O O7 0.000000 0.000000 0.649052
O O8 0.948683 0.235324 0.074687
O O9 0.886192 0.000000 0.065477
O O10 0.875347 0.231325 0.000000
O O11 0.250000 0.750000 0.577061
O O12 0.356735 0.774148 0.568392
O O13 0.309896 0.771677 0.664468
O O14 0.299721 0.000000 0.595811
O O15 0.000000 0.500000 0.905920
O O16 0.000000 0.356668 0.000000
O O17 0.064691 0.720681 0.500000
O O18 0.079627 0.500000 0.429787
O O19 0.198627 0.500000 0.268769
O O20 0.250000 0.250000 0.249168
O O21 0.000000 0.500000 0.233222
#
# Coordination Sequence:
#
# PCOD9488099 Si02
#       8
#    16   8  16  16   8  16  16   8
#     4  10  20  34  55  81 106 137 179 222 263 314
#     4  12  25  38  55  80 110 144 184 232 278 315
#     4  10  20  32  47  71 105 141 173 211 263 319
#     4   9  18  34  56  82 110 139 174 218 270 326
#     4   9  16  27  44  64  89 127 172 209 242 291
#     4  10  21  38  59  80 107 149 192 223 261 320
#     4   9  18  33  53  77 104 135 174 219 266 316
#     4  10  21  38  58  80 109 142 175 217 270 325
#
# _framework density 19.240265999999998
#
# number of rings (size 3 to 8) (size 9 to 14) (size 15 to 20)
#    0.000    2.231    0.000    3.000    0.000    8.308 
#    0.000    3.077    0.000    0.462    0.000    0.000 
#    0.000    0.000    0.000    0.000    0.000    0.000 
#
# Total GULP energy -289979.297957 kJ/mol
# GULP energy per Si atom -5576.524961 kJ/mol
# Density = 1.919647 g / cm^3
# Si number density = 19.240266 Si / 1000 Ang^3
#
#
#
# Elastic Constant Matrix: (Units=GPa)
#
#
# Indices 1 2 3 4 5 6 
#
# 1 87.6070 18.1633 41.1006 0.0000 0.0000 0.0000
# 2 18.1633 24.2491 35.1889 0.0000 0.0000 0.0000
# 3 41.1006 35.1889 132.8389 0.0000 0.0000 0.0000
# 4 0.0000 0.0000 0.0000 16.9811 0.0000 0.0000
# 5 0.0000 0.0000 0.0000 0.0000 51.4297 0.0000
# 6 0.0000 0.0000 0.0000 0.0000 0.0000 27.8861
#
#
#
# Elastic Compliance Matrix: (Units=1/GPa)
#
#
# Indices 1 2 3 4 5 6 
#
# 1 0.014017 -0.006832 -0.002527 0.000000 0.000000 0.000000
# 2 -0.006832 0.070320 -0.016514 0.000000 0.000000 0.000000
# 3 -0.002527 -0.016514 0.012684 0.000000 0.000000 0.000000
# 4 0.000000 0.000000 0.000000 0.058889 0.000000 0.000000
# 5 0.000000 0.000000 0.000000 0.000000 0.019444 0.000000
# 6 0.000000 0.000000 0.000000 0.000000 0.000000 0.035860
#
#
# Mechanical properties :
#
#
# Convention : Reuss Voigt Hill
#
# Bulk Modulus (GPa) = 22.08708 48.17783 35.13246
# Shear Modulus (GPa) = 17.98230 29.27550 23.62890
#
# Velocity S-wave (km/s) = 3.06047 3.90497 3.50822
# Velocity P-wave (km/s) = 4.89828 6.73989 5.89149
#
# Compressibility (1/GPa) = 0.04527533
#
# Stress axis : x y z
#
# Youngs Moduli (GPa) = 71.34405 14.22074 78.83773
#
# Poissons Ratio (x) = 0.09715 0.19922
# Poissons Ratio (y) = 0.48741 1.30192
# Poissons Ratio (z) = 0.18029 0.23484
#
# Static dielectric constant tensor:
#      x y z
#    x 1.703130 0.000000 0.000000 
#    y 0.000000 1.651050 0.000000 
#    z 0.000000 0.000000 1.708780 
# 
# From -- ./inp_files/75859.got.cif
#   From: 2010.05.17/outbox.cif.g08.bks.cpg/sg65_38_cif.got.tgz:75859.got - 2010.06.03 17:01:31.
