data_PCOD9488703
_publ_section_title
;
Structure prediction by ZEFSAII (Michael W. Deem and Ramdas Pophale) SiO2 
 PCOD9488703
Probable space group: C M M M
;
_chemical_formula_sum "Si O2"
_cell_formula_units_Z 96
_cell_length_a 20.990960
_cell_length_b 28.920452
_cell_length_c 7.482488
_cell_angle_alpha 90.000000
_cell_angle_beta 90.000000
_cell_angle_gamma 90.000000
_cell_volume 4542.379408
_symmetry_space_group_name_H-M "C M M M"
_symmetry_group_IT_number 65
_symmetry_cell_setting 'orthorhombic'
loop_
_space_group_symop_operation_xyz
x,y,z
-x,-y,z
x,-y,-z
-x,y,-z
-x,-y,-z
x,y,-z
-x,y,z
x,-y,z
1/2+x,1/2+y,z
1/2-x,1/2-y,z
1/2+x,1/2-y,-z
1/2-x,1/2+y,-z
1/2-x,1/2-y,-z
1/2+x,1/2+y,-z
1/2-x,1/2+y,z
1/2+x,1/2-y,z
loop_
_atom_site_type_symbol
_atom_site_label
_atom_site_fract_x
_atom_site_fract_y
_atom_site_fract_z
Si Si1 0.304598 0.551847 0.210293
Si Si2 0.928302 0.784484 0.786630
Si Si3 0.072214 0.552922 0.782343
Si Si4 0.571895 0.609162 0.287489
Si Si5 0.689697 0.115679 0.781016
Si Si6 0.812580 0.278074 0.218768
O O1 0.301671 0.500000 0.286019
O O2 0.374365 0.573982 0.225467
O O3 0.251422 0.587092 0.281460
O O4 0.290465 0.547971 0.000000
O O5 0.909852 0.837933 0.756327
O O6 0.875394 0.749151 0.719377
O O7 0.000000 0.778041 0.714838
O O8 0.931443 0.778122 0.000000
O O9 0.086494 0.500000 0.728299
O O10 0.126281 0.588358 0.724607
O O11 0.000000 0.564267 0.725979
O O12 0.072323 0.553185 0.000000
O O13 0.569080 0.605301 0.500000
O O14 0.500000 0.601259 0.216719
O O15 0.689869 0.168812 0.723397
O O16 0.690256 0.116412 0.000000
O O17 0.750000 0.250000 0.273620
O O18 0.813309 0.277987 0.000000
#
# Coordination Sequence:
#
# PCOD9488703 Si02
#       6
#    16  16  16  16  16  16
#     4  10  20  33  51  74  98 127 164 203 241 283
#     4   9  17  30  49  72  97 125 159 198 237 280
#     4   8  13  21  34  55  87 125 157 185 224 274
#     4  10  21  36  53  72  95 125 159 196 244 299
#     4   9  16  26  42  65  95 128 160 195 234 278
#     4   9  16  25  40  63  90 120 152 188 231 273
#
# _framework density 21.134298000000001
#
# number of rings (size 3 to 8) (size 9 to 14) (size 15 to 20)
#    0.000    2.833    0.000    2.500    0.000    7.000 
#    0.000    5.000    0.000    4.500    0.000    0.000 
#    0.000    0.667    0.000    3.500    0.000    3.333 
#
# Total GULP energy -268002.073177 kJ/mol
# GULP energy per Si atom -5583.376525 kJ/mol
# Density = 2.108620 g / cm^3
# Si number density = 21.134298 Si / 1000 Ang^3
#
#
#
# Elastic Constant Matrix: (Units=GPa)
#
#
# Indices 1 2 3 4 5 6 
#
# 1 112.9968 101.7877 -5.1822 0.0000 0.0000 0.0000
# 2 101.7877 168.0819 -4.2914 0.0000 0.0000 0.0000
# 3 -5.1822 -4.2914 57.7078 0.0000 0.0000 0.0000
# 4 0.0000 0.0000 0.0000 -101.4872 0.0000 0.0000
# 5 0.0000 0.0000 0.0000 0.0000 -32.1935 0.0000
# 6 0.0000 0.0000 0.0000 0.0000 0.0000 42.1343
#
#
#
# Elastic Compliance Matrix: (Units=1/GPa)
#
#
# Indices 1 2 3 4 5 6 
#
# 1 0.019516 -0.011796 0.000875 0.000000 0.000000 0.000000
# 2 -0.011796 0.013091 -0.000086 0.000000 0.000000 0.000000
# 3 0.000875 -0.000086 0.017401 0.000000 0.000000 0.000000
# 4 0.000000 0.000000 0.000000 -0.009853 0.000000 0.000000
# 5 0.000000 0.000000 0.000000 0.000000 -0.031062 0.000000
# 6 0.000000 0.000000 0.000000 0.000000 0.000000 0.023734
#
#
# Mechanical properties :
#
#
# Convention : Reuss Voigt Hill
#
# Bulk Modulus (GPa) = 35.72145 58.15720 46.93932
# Shear Modulus (GPa) = 77.91712 -1.87779 38.01967
#
# Velocity S-wave (km/s) = 6.07846 -0.94363 4.24601
# Velocity P-wave (km/s) = 8.13648 5.13716 6.80414
#
# Compressibility (1/GPa) = 0.02799439
#
# Stress axis : x y z
#
# Youngs Moduli (GPa) = 51.23993 76.38888 57.46829
#
# Poissons Ratio (x) = 0.90110 -0.05030
# Poissons Ratio (y) = 0.60444 0.00493
# Poissons Ratio (z) = -0.04485 0.00656
#
# Static dielectric constant tensor:
#      x y z
#    x 1.737160 0.000000 0.000000 
#    y 0.000000 1.730190 0.000000 
#    z 0.000000 0.000000 1.712810 
# 
# From -- ./inp_files/12235.got.cif
#   From: 2010.05.17/outbox.cif.g08.bks.cpg/sg65_7_cif.got.tgz:12235.got - 2010.06.03 17:01:31.
