data_PCOD9488462
_publ_section_title
;
Structure prediction by ZEFSAII (Michael W. Deem and Ramdas Pophale) SiO2 
 PCOD9488462
Probable space group: C M M M
;
_chemical_formula_sum "Si O2"
_cell_formula_units_Z 104
_cell_length_a 27.145878
_cell_length_b 8.826672
_cell_length_c 21.859815
_cell_angle_alpha 90.000000
_cell_angle_beta 90.000000
_cell_angle_gamma 90.000000
_cell_volume 5237.781334
_symmetry_space_group_name_H-M "C M M M"
_symmetry_group_IT_number 65
_symmetry_cell_setting 'orthorhombic'
loop_
_space_group_symop_operation_xyz
x,y,z
-x,-y,z
x,-y,-z
-x,y,-z
-x,-y,-z
x,y,-z
-x,y,z
x,-y,z
1/2+x,1/2+y,z
1/2-x,1/2-y,z
1/2+x,1/2-y,-z
1/2-x,1/2+y,-z
1/2-x,1/2-y,-z
1/2+x,1/2+y,-z
1/2-x,1/2+y,z
1/2+x,1/2-y,z
loop_
_atom_site_type_symbol
_atom_site_label
_atom_site_fract_x
_atom_site_fract_y
_atom_site_fract_z
Si Si1 0.350298 0.681289 0.621491
Si Si2 0.298476 0.670203 0.927647
Si Si3 0.556308 0.820780 0.318862
Si Si4 0.595854 0.819811 0.068904
Si Si5 0.304434 0.180622 0.500000
Si Si6 0.697348 0.318925 0.750450
Si Si7 0.907707 0.818659 0.805579
O O1 0.347763 0.500000 0.614931
O O2 0.405195 0.732732 0.638947
O O3 0.331542 0.760868 0.560693
O O4 0.317853 0.725286 0.681094
O O5 0.307220 0.500000 0.902479
O O6 0.250000 0.750000 0.901629
O O7 0.346630 0.773809 0.925848
O O8 0.289146 0.650811 0.000000
O O9 0.500000 0.798132 0.337806
O O10 0.563670 0.758394 0.250155
O O11 0.567343 0.000000 0.319689
O O12 0.574106 0.738365 0.128442
O O13 0.589756 0.000000 0.073445
O O14 0.579656 0.772693 0.000000
O O15 0.250000 0.250000 0.500000
O O16 0.301915 0.000000 0.500000
O O17 0.701307 0.500000 0.751785
O O18 0.750000 0.250000 0.765831
O O19 0.650228 0.277800 0.792681
O O20 0.911647 0.000000 0.801450
#
# Coordination Sequence:
#
# PCOD9488462 Si02
#       7
#    16  16  16  16   8  16  16
#     4  10  21  38  59  87 122 159 203 248 291 342
#     4   9  16  26  40  58  83 119 164 210 255 309
#     4  10  21  39  64  91 117 147 187 239 297 350
#     4  10  20  33  49  70  98 133 173 221 281 345
#     4  12  24  38  59  90 131 176 216 251 289 333
#     4   9  19  33  51  76 106 143 186 233 281 330
#     4  10  21  36  54  79 109 142 185 232 281 344
#
# _framework density 19.855736
#
# number of rings (size 3 to 8) (size 9 to 14) (size 15 to 20)
#    0.000    2.154    0.000    4.385    0.000    9.538 
#    0.000    1.923    0.000    2.769    0.000    3.231 
#    0.000    0.000    0.000    0.000    0.000    0.000 
#
# Total GULP energy -290375.854851 kJ/mol
# GULP energy per Si atom -5584.151055 kJ/mol
# Density = 1.981054 g / cm^3
# Si number density = 19.855736 Si / 1000 Ang^3
#
#
#
# Elastic Constant Matrix: (Units=GPa)
#
#
# Indices 1 2 3 4 5 6 
#
# 1 46.4962 19.9245 25.6690 0.0000 0.0000 0.0000
# 2 19.9245 70.6743 43.5935 0.0000 0.0000 0.0000
# 3 25.6690 43.5935 157.1839 0.0000 0.0000 0.0000
# 4 0.0000 0.0000 0.0000 28.8474 0.0000 0.0000
# 5 0.0000 0.0000 0.0000 0.0000 -9.0071 0.0000
# 6 0.0000 0.0000 0.0000 0.0000 0.0000 24.7174
#
#
#
# Elastic Compliance Matrix: (Units=1/GPa)
#
#
# Indices 1 2 3 4 5 6 
#
# 1 0.025313 -0.005533 -0.002599 0.000000 0.000000 0.000000
# 2 -0.005533 0.018279 -0.004166 0.000000 0.000000 0.000000
# 3 -0.002599 -0.004166 0.007942 0.000000 0.000000 0.000000
# 4 0.000000 0.000000 0.000000 0.034665 0.000000 0.000000
# 5 0.000000 0.000000 0.000000 0.000000 -0.111024 0.000000
# 6 0.000000 0.000000 0.000000 0.000000 0.000000 0.040457
#
#
# Mechanical properties :
#
#
# Convention : Reuss Voigt Hill
#
# Bulk Modulus (GPa) = 37.12297 50.30315 43.71306
# Shear Modulus (GPa) = 101.60943 21.25602 61.43272
#
# Velocity S-wave (km/s) = 7.16135 3.27543 5.56837
# Velocity P-wave (km/s) = 9.33364 6.30031 7.96275
#
# Compressibility (1/GPa) = 0.02693750
#
# Stress axis : x y z
#
# Youngs Moduli (GPa) = 39.50528 54.70782 125.91561
#
# Poissons Ratio (x) = 0.30270 0.32729
# Poissons Ratio (y) = 0.21858 0.52455
# Poissons Ratio (z) = 0.10268 0.22791
#
# Static dielectric constant tensor:
#      x y z
#    x 1.709000 0.000000 0.000000 
#    y 0.000000 1.672210 0.000000 
#    z 0.000000 0.000000 1.732340 
# 
# From -- ./inp_files/65856.got.cif
#   From: 2010.05.17/outbox.cif.g08.bks.cpg/sg65_33_cif.got.tgz:65856.got - 2010.06.03 17:01:31.
