data_PCOD9488022
_publ_section_title
;
Structure prediction by ZEFSAII (Michael W. Deem and Ramdas Pophale) SiO2 
 PCOD9488022
Probable space group: C M M M
;
_chemical_formula_sum "Si O2"
_cell_formula_units_Z 72
_cell_length_a 30.403481
_cell_length_b 15.050481
_cell_length_c 7.371853
_cell_angle_alpha 90.000000
_cell_angle_beta 90.000000
_cell_angle_gamma 90.000000
_cell_volume 3373.264195
_symmetry_space_group_name_H-M "C M M M"
_symmetry_group_IT_number 65
_symmetry_cell_setting 'orthorhombic'
loop_
_space_group_symop_operation_xyz
x,y,z
-x,-y,z
x,-y,-z
-x,y,-z
-x,-y,-z
x,y,-z
-x,y,z
x,-y,z
1/2+x,1/2+y,z
1/2-x,1/2-y,z
1/2+x,1/2-y,-z
1/2-x,1/2+y,-z
1/2-x,1/2-y,-z
1/2+x,1/2+y,-z
1/2-x,1/2+y,z
1/2+x,1/2-y,z
loop_
_atom_site_type_symbol
_atom_site_label
_atom_site_fract_x
_atom_site_fract_y
_atom_site_fract_z
Si Si1 0.625448 0.179999 0.709965
Si Si2 0.553580 0.500000 0.288826
Si Si3 0.206845 0.194859 0.220006
Si Si4 0.726478 0.500000 0.788837
Si Si5 0.669715 0.000000 0.720818
Si Si6 0.449117 0.305977 0.722587
O O1 0.615380 0.160489 0.500000
O O2 0.663997 0.252707 0.719196
O O3 0.644927 0.088585 0.785661
O O4 0.582290 0.227368 0.786729
O O5 0.500000 0.500000 0.282563
O O6 0.566580 0.500000 0.500000
O O7 0.566918 0.403892 0.214422
O O8 0.250000 0.250000 0.277324
O O9 0.209646 0.093569 0.286791
O O10 0.207073 0.193903 0.000000
O O11 0.779501 0.500000 0.778578
O O12 0.713805 0.500000 0.000000
O O13 0.670787 0.000000 0.500000
O O14 0.447972 0.308150 0.500000
O O15 0.500000 0.294504 0.773857
#
# Coordination Sequence:
#
# PCOD9488022 Si02
#       6
#    16   8  16   8   8  16
#     4  10  20  32  49  73 100 129 164 204 247 288
#     4   7  10  19  38  62  88 119 152 187 230 280
#     4  10  20  34  52  72  95 125 162 200 239 290
#     4  10  20  35  53  72  95 127 165 199 238 292
#     4  10  20  32  46  69 100 130 161 202 249 290
#     4   8  14  26  44  67  96 128 160 195 237 288
#
# _framework density 21.344311999999999
#
# number of rings (size 3 to 8) (size 9 to 14) (size 15 to 20)
#    0.000    2.778    2.222    1.333    0.000    2.222 
#    0.000    1.667    0.000    4.000    0.000    0.000 
#    0.000    8.000    0.000    0.000    0.000    0.000 
#
# Total GULP energy -200911.272936 kJ/mol
# GULP energy per Si atom -5580.868693 kJ/mol
# Density = 2.129573 g / cm^3
# Si number density = 21.344312 Si / 1000 Ang^3
#
#
#
# Elastic Constant Matrix: (Units=GPa)
#
#
# Indices 1 2 3 4 5 6 
#
# 1 75.3597 59.0129 -15.3680 0.0000 0.0000 0.0000
# 2 59.0129 197.4177 -4.0255 0.0000 0.0000 0.0000
# 3 -15.3680 -4.0255 74.5775 0.0000 0.0000 0.0000
# 4 0.0000 0.0000 0.0000 -14.0421 0.0000 0.0000
# 5 0.0000 0.0000 0.0000 0.0000 31.6520 0.0000
# 6 0.0000 0.0000 0.0000 0.0000 0.0000 29.0357
#
#
#
# Elastic Compliance Matrix: (Units=1/GPa)
#
#
# Indices 1 2 3 4 5 6 
#
# 1 0.018173 -0.005362 0.003455 0.000000 0.000000 0.000000
# 2 -0.005362 0.006653 -0.000746 0.000000 0.000000 0.000000
# 3 0.003455 -0.000746 0.014081 0.000000 0.000000 0.000000
# 4 0.000000 0.000000 0.000000 -0.071215 0.000000 0.000000
# 5 0.000000 0.000000 0.000000 0.000000 0.031594 0.000000
# 6 0.000000 0.000000 0.000000 0.000000 0.000000 0.034440
#
#
# Mechanical properties :
#
#
# Convention : Reuss Voigt Hill
#
# Bulk Modulus (GPa) = 29.75980 47.39929 38.57954
# Shear Modulus (GPa) = 99.53889 29.84483 64.69186
#
# Velocity S-wave (km/s) = 6.83638 3.74338 5.51131
# Velocity P-wave (km/s) = 8.73429 6.39837 7.65594
#
# Compressibility (1/GPa) = 0.03360238
#
# Stress axis : x y z
#
# Youngs Moduli (GPa) = 55.02601 150.30790 71.01926
#
# Poissons Ratio (x) = 0.80594 -0.24541
# Poissons Ratio (y) = 0.29505 0.05297
# Poissons Ratio (z) = -0.19014 0.11210
#
# Static dielectric constant tensor:
#      x y z
#    x 1.725500 0.000000 0.000000 
#    y 0.000000 1.786170 0.000000 
#    z 0.000000 0.000000 1.811720 
# 
# From -- ./inp_files/18064.got.cif
#   From: 2010.05.17/outbox.cif.g08.bks.cpg/sg65_10_cif.got.tgz:18064.got - 2010.06.03 17:01:31.
