data_PCOD9488326
_publ_section_title
;
Structure prediction by ZEFSAII (Michael W. Deem and Ramdas Pophale) SiO2 
 PCOD9488326
Probable space group: C M M M
;
_chemical_formula_sum "Si O2"
_cell_formula_units_Z 88
_cell_length_a 15.015498
_cell_length_b 17.941483
_cell_length_c 17.807816
_cell_angle_alpha 90.000000
_cell_angle_beta 90.000000
_cell_angle_gamma 90.000000
_cell_volume 4797.431010
_symmetry_space_group_name_H-M "C M M M"
_symmetry_group_IT_number 65
_symmetry_cell_setting 'orthorhombic'
loop_
_space_group_symop_operation_xyz
x,y,z
-x,-y,z
x,-y,-z
-x,y,-z
-x,-y,-z
x,y,-z
-x,y,z
x,-y,z
1/2+x,1/2+y,z
1/2-x,1/2-y,z
1/2+x,1/2-y,-z
1/2-x,1/2+y,-z
1/2-x,1/2-y,-z
1/2+x,1/2+y,-z
1/2-x,1/2+y,z
1/2+x,1/2-y,z
loop_
_atom_site_type_symbol
_atom_site_label
_atom_site_fract_x
_atom_site_fract_y
_atom_site_fract_z
Si Si1 0.862505 0.415307 0.500000
Si Si2 0.141782 0.754421 0.500000
Si Si3 0.108604 0.663110 0.915552
Si Si4 0.603765 0.203855 0.243778
Si Si5 0.099303 0.845298 0.348827
Si Si6 0.600069 0.000000 0.909234
Si Si7 0.217365 0.582240 0.333816
O O1 0.905150 0.500000 0.500000
O O2 0.899362 0.329560 0.500000
O O3 0.810259 0.414445 0.421410
O O4 0.250000 0.750000 0.500000
O O5 0.114051 0.800601 0.426682
O O6 0.130042 0.712270 0.843501
O O7 0.141593 0.579932 0.893065
O O8 0.000000 0.658933 0.920155
O O9 0.139114 0.682637 0.000000
O O10 0.500000 0.178024 0.246854
O O11 0.607584 0.282039 0.285511
O O12 0.665031 0.145246 0.287866
O O13 0.177804 0.902765 0.334334
O O14 0.000000 0.877141 0.348412
O O15 0.500000 0.000000 0.876454
O O16 0.591976 0.000000 0.000000
O O17 0.194760 0.500000 0.304625
#
# Coordination Sequence:
#
# PCOD9488326 Si02
#       7
#     8   8  16  16  16   8  16
#     4  10  20  34  54  76 104 141 172 204 257 311
#     4  12  17  34  59  76 104 136 166 213 268 318
#     4   8  14  25  42  68 103 138 168 202 251 313
#     4  10  20  32  52  81 109 138 172 211 261 328
#     4  11  22  36  55  78 102 139 186 221 258 307
#     4   7  10  18  34  56  88 129 160 186 229 289
#     4  11  22  37  55  75 105 141 176 223 267 303
#
# _framework density 18.343150000000001
#
# number of rings (size 3 to 8) (size 9 to 14) (size 15 to 20)
#    0.000    2.091    3.636    1.909    1.273    0.727 
#    0.000    0.455    0.000    7.636    0.000    0.000 
#    0.000    0.000    0.000    8.727    0.000    0.000 
#
# Total GULP energy -245011.384058 kJ/mol
# GULP energy per Si atom -5568.440547 kJ/mol
# Density = 1.830140 g / cm^3
# Si number density = 18.343150 Si / 1000 Ang^3
#
#
#
# Elastic Constant Matrix: (Units=GPa)
#
#
# Indices 1 2 3 4 5 6 
#
# 1 72.3944 2.6082 9.6785 0.0000 0.0000 0.0000
# 2 2.6082 21.9038 0.3269 0.0000 0.0000 0.0000
# 3 9.6785 0.3269 115.8145 0.0000 0.0000 0.0000
# 4 0.0000 0.0000 0.0000 58.7194 0.0000 0.0000
# 5 0.0000 0.0000 0.0000 0.0000 -4.5816 0.0000
# 6 0.0000 0.0000 0.0000 0.0000 0.0000 5.3005
#
#
#
# Elastic Compliance Matrix: (Units=1/GPa)
#
#
# Indices 1 2 3 4 5 6 
#
# 1 0.014029 -0.001653 -0.001168 0.000000 0.000000 0.000000
# 2 -0.001653 0.045851 0.000009 0.000000 0.000000 0.000000
# 3 -0.001168 0.000009 0.008732 0.000000 0.000000 0.000000
# 4 0.000000 0.000000 0.000000 0.017030 0.000000 0.000000
# 5 0.000000 0.000000 0.000000 0.000000 -0.218265 0.000000
# 6 0.000000 0.000000 0.000000 0.000000 0.000000 0.188661
#
#
# Mechanical properties :
#
#
# Convention : Reuss Voigt Hill
#
# Bulk Modulus (GPa) = 15.87610 26.14887 21.01248
# Shear Modulus (GPa) = 60.49069 25.05427 42.77248
#
# Velocity S-wave (km/s) = 5.74881 3.69977 4.83411
# Velocity P-wave (km/s) = 7.26216 5.70416 6.52979
#
# Compressibility (1/GPa) = 0.06298778
#
# Stress axis : x y z
#
# Youngs Moduli (GPa) = 71.28142 21.80982 114.52055
#
# Poissons Ratio (x) = 0.03605 0.13373
# Poissons Ratio (y) = 0.11783 -0.00100
# Poissons Ratio (z) = 0.08324 -0.00019
#
# Static dielectric constant tensor:
#      x y z
#    x 1.657740 0.000000 0.000000 
#    y 0.000000 1.655920 0.000000 
#    z 0.000000 0.000000 1.630510 
# 
# From -- ./inp_files/53083.got.cif
#   From: 2010.05.17/outbox.cif.g08.bks.cpg/sg65_27_cif.got.tgz:53083.got - 2010.06.03 17:01:31.
