data_PCOD9488638
_publ_section_title
;
Structure prediction by ZEFSAII (Michael W. Deem and Ramdas Pophale) SiO2 
 PCOD9488638
Probable space group: C M M M
;
_chemical_formula_sum "Si O2"
_cell_formula_units_Z 64
_cell_length_a 7.952226
_cell_length_b 29.331034
_cell_length_c 17.414421
_cell_angle_alpha 90.000000
_cell_angle_beta 90.000000
_cell_angle_gamma 90.000000
_cell_volume 4061.861650
_symmetry_space_group_name_H-M "C M M M"
_symmetry_group_IT_number 65
_symmetry_cell_setting 'orthorhombic'
loop_
_space_group_symop_operation_xyz
x,y,z
-x,-y,z
x,-y,-z
-x,y,-z
-x,-y,-z
x,y,-z
-x,y,z
x,-y,z
1/2+x,1/2+y,z
1/2-x,1/2-y,z
1/2+x,1/2-y,-z
1/2-x,1/2+y,-z
1/2-x,1/2-y,-z
1/2+x,1/2+y,-z
1/2-x,1/2+y,z
1/2+x,1/2-y,z
loop_
_atom_site_type_symbol
_atom_site_label
_atom_site_fract_x
_atom_site_fract_y
_atom_site_fract_z
Si Si1 0.702343 0.199606 0.411795
Si Si2 0.800168 0.394626 0.654561
Si Si3 0.189542 0.054274 0.194706
Si Si4 0.500000 0.944641 0.087676
Si Si5 0.702458 0.553115 0.500000
O O1 0.765060 0.194857 0.500000
O O2 0.500000 0.196830 0.414707
O O3 0.750000 0.250000 0.384395
O O4 0.760646 0.156947 0.361542
O O5 0.712974 0.419125 0.725759
O O6 0.769246 0.422205 0.576035
O O7 0.000000 0.394034 0.669903
O O8 0.333498 0.068602 0.134896
O O9 0.000000 0.060967 0.165167
O O10 0.211276 0.000000 0.209669
O O11 0.500000 0.000000 0.085060
O O12 0.500000 0.928194 0.000000
O O13 0.751153 0.500000 0.500000
O O14 0.500000 0.555834 0.500000
#
# Coordination Sequence:
#
# PCOD9488638 Si02
#       5
#    16  16  16   8   8
#     4   9  18  32  47  65  89 121 165 210 252 294
#     4  11  20  33  49  67  95 132 169 207 251 294
#     4  10  20  33  50  74 103 135 168 205 248 294
#     4   9  18  34  54  75 101 133 165 200 248 302
#     4  11  23  33  42  63  92 127 176 216 242 287
#
# _framework density 15.756323
#
# number of rings (size 3 to 8) (size 9 to 14) (size 15 to 20)
#    0.000    2.000    2.500    1.875    0.000    6.500 
#    0.000    2.500    0.000    0.000    0.000    0.000 
#    0.000    1.000    0.500    0.000    0.000    0.000 
#
# Total GULP energy -178544.022927 kJ/mol
# GULP energy per Si atom -5579.500716 kJ/mol
# Density = 1.572046 g / cm^3
# Si number density = 15.756323 Si / 1000 Ang^3
#
#
#
# Elastic Constant Matrix: (Units=GPa)
#
#
# Indices 1 2 3 4 5 6 
#
# 1 75.5656 31.0657 41.9169 0.0000 0.0000 0.0000
# 2 31.0657 86.7361 39.6748 0.0000 0.0000 0.0000
# 3 41.9169 39.6748 103.2364 0.0000 0.0000 0.0000
# 4 0.0000 0.0000 0.0000 2.5664 0.0000 0.0000
# 5 0.0000 0.0000 0.0000 0.0000 6.7161 0.0000
# 6 0.0000 0.0000 0.0000 0.0000 0.0000 19.4293
#
#
#
# Elastic Compliance Matrix: (Units=1/GPa)
#
#
# Indices 1 2 3 4 5 6 
#
# 1 0.018045 -0.003775 -0.005876 0.000000 0.000000 0.000000
# 2 -0.003775 0.014778 -0.004146 0.000000 0.000000 0.000000
# 3 -0.005876 -0.004146 0.013666 0.000000 0.000000 0.000000
# 4 0.000000 0.000000 0.000000 0.389651 0.000000 0.000000
# 5 0.000000 0.000000 0.000000 0.000000 0.148895 0.000000
# 6 0.000000 0.000000 0.000000 0.000000 0.000000 0.051469
#
#
# Mechanical properties :
#
#
# Convention : Reuss Voigt Hill
#
# Bulk Modulus (GPa) = 52.92817 54.53922 53.73370
# Shear Modulus (GPa) = 7.45826 15.93441 11.69633
#
# Velocity S-wave (km/s) = 2.17802 3.18355 2.72752
# Velocity P-wave (km/s) = 6.32374 6.94281 6.64049
#
# Compressibility (1/GPa) = 0.01889353
#
# Stress axis : x y z
#
# Youngs Moduli (GPa) = 55.41692 67.66775 73.17520
#
# Poissons Ratio (x) = 0.25547 0.42997
# Poissons Ratio (y) = 0.20922 0.30342
# Poissons Ratio (z) = 0.32562 0.28058
#
# Static dielectric constant tensor:
#      x y z
#    x 1.561370 0.000000 0.000000 
#    y 0.000000 1.524570 0.000000 
#    z 0.000000 0.000000 1.493110 
# 
# From -- ./inp_files/36054.got.cif
#   From: 2010.05.17/outbox.cif.g08.bks.cpg/sg65_19_cif.got.tgz:36054.got - 2010.06.03 17:01:31.
