data_PCOD9488567
_publ_section_title
;
Structure prediction by ZEFSAII (Michael W. Deem and Ramdas Pophale) SiO2 
 PCOD9488567
Probable space group: C M M M
;
_chemical_formula_sum "Si O2"
_cell_formula_units_Z 88
_cell_length_a 8.857454
_cell_length_b 18.843445
_cell_length_c 29.875550
_cell_angle_alpha 90.000000
_cell_angle_beta 90.000000
_cell_angle_gamma 90.000000
_cell_volume 4986.377098
_symmetry_space_group_name_H-M "C M M M"
_symmetry_group_IT_number 65
_symmetry_cell_setting 'orthorhombic'
loop_
_space_group_symop_operation_xyz
x,y,z
-x,-y,z
x,-y,-z
-x,y,-z
-x,-y,-z
x,y,-z
-x,y,z
x,-y,z
1/2+x,1/2+y,z
1/2-x,1/2-y,z
1/2+x,1/2-y,-z
1/2-x,1/2+y,-z
1/2-x,1/2-y,-z
1/2+x,1/2+y,-z
1/2-x,1/2+y,z
1/2+x,1/2-y,z
loop_
_atom_site_type_symbol
_atom_site_label
_atom_site_fract_x
_atom_site_fract_y
_atom_site_fract_z
Si Si1 0.180518 0.328741 0.237294
Si Si2 0.819442 0.670589 0.138264
Si Si3 0.179132 0.915778 0.681753
Si Si4 0.317437 0.171868 0.500000
Si Si5 0.319321 0.329632 0.950941
Si Si6 0.181692 0.582981 0.587194
O O1 0.250000 0.250000 0.240112
O O2 0.215691 0.359523 0.187563
O O3 0.244961 0.375367 0.277256
O O4 0.000000 0.323448 0.240642
O O5 0.750000 0.750000 0.139758
O O6 0.749500 0.635832 0.093752
O O7 0.000000 0.674904 0.133353
O O8 0.244849 0.892854 0.633701
O O9 0.000000 0.904430 0.682578
O O10 0.209168 0.000000 0.685667
O O11 0.500000 0.175318 0.500000
O O12 0.250000 0.250000 0.500000
O O13 0.271523 0.129052 0.455470
O O14 0.500000 0.324645 0.946518
O O15 0.250000 0.250000 0.952250
O O16 0.285223 0.361852 0.000000
O O17 0.220942 0.500000 0.579995
O O18 0.000000 0.586975 0.591356
#
# Coordination Sequence:
#
# PCOD9488567 Si02
#       6
#    16  16  16   8  16  16
#     4  10  20  33  50  72  98 130 166 204 249 299
#     4   9  16  25  38  57  82 114 152 192 236 286
#     4  10  21  36  54  77 103 131 166 207 249 294
#     4  10  21  35  53  79 107 134 164 200 244 290
#     4   9  15  21  31  49  75 110 150 189 231 280
#     4   9  18  35  57  76  97 130 170 206 240 284
#
# _framework density 17.648084999999998
#
# number of rings (size 3 to 8) (size 9 to 14) (size 15 to 20)
#    0.000    2.545    0.000    3.545    0.000    6.909 
#    0.000    1.818    0.000    2.727    0.000    0.000 
#    0.000    0.727    0.000    8.000    0.000    8.909 
#
# Total GULP energy -245181.709738 kJ/mol
# GULP energy per Si atom -5572.311585 kJ/mol
# Density = 1.760792 g / cm^3
# Si number density = 17.648085 Si / 1000 Ang^3
#
#
#
# Elastic Constant Matrix: (Units=GPa)
#
#
# Indices 1 2 3 4 5 6 
#
# 1 57.2383 28.6788 76.2788 0.0000 0.0000 0.0000
# 2 28.6788 33.1994 64.4612 0.0000 0.0000 0.0000
# 3 76.2788 64.4612 235.9068 0.0000 0.0000 0.0000
# 4 0.0000 0.0000 0.0000 -52.6148 0.0000 0.0000
# 5 0.0000 0.0000 0.0000 0.0000 27.9874 0.0000
# 6 0.0000 0.0000 0.0000 0.0000 0.0000 20.0730
#
#
#
# Elastic Compliance Matrix: (Units=1/GPa)
#
#
# Indices 1 2 3 4 5 6 
#
# 1 0.034923 -0.017558 -0.006494 0.000000 0.000000 0.000000
# 2 -0.017558 0.072989 -0.014267 0.000000 0.000000 0.000000
# 3 -0.006494 -0.014267 0.010237 0.000000 0.000000 0.000000
# 4 0.000000 0.000000 0.000000 -0.019006 0.000000 0.000000
# 5 0.000000 0.000000 0.000000 0.000000 0.035730 0.000000
# 6 0.000000 0.000000 0.000000 0.000000 0.000000 0.049818
#
#
# Mechanical properties :
#
#
# Convention : Reuss Voigt Hill
#
# Bulk Modulus (GPa) = 24.08990 73.90913 48.99952
# Shear Modulus (GPa) = 18.17075 9.55083 13.86079
#
# Velocity S-wave (km/s) = 3.21224 2.32886 2.80554
# Velocity P-wave (km/s) = 5.23811 7.01440 6.19030
#
# Compressibility (1/GPa) = 0.04151117
#
# Stress axis : x y z
#
# Youngs Moduli (GPa) = 28.63462 13.70061 97.68137
#
# Poissons Ratio (x) = 0.24055 0.63438
# Poissons Ratio (y) = 0.50276 1.39363
# Poissons Ratio (z) = 0.18597 0.19547
#
# Static dielectric constant tensor:
#      x y z
#    x 1.589120 0.000000 0.000000 
#    y 0.000000 1.570410 0.000000 
#    z 0.000000 0.000000 1.651990 
# 
# From -- ./inp_files/73222.got.cif
#   From: 2010.05.17/outbox.cif.g08.bks.cpg/sg65_37_cif.got.tgz:73222.got - 2010.06.03 17:01:31.
