data_PCOD9488475
_publ_section_title
;
Structure prediction by ZEFSAII (Michael W. Deem and Ramdas Pophale) SiO2 
 PCOD9488475
Probable space group: C M M M
;
_chemical_formula_sum "Si O2"
_cell_formula_units_Z 120
_cell_length_a 27.995662
_cell_length_b 8.936810
_cell_length_c 26.330037
_cell_angle_alpha 90.000000
_cell_angle_beta 90.000000
_cell_angle_gamma 90.000000
_cell_volume 6587.562303
_symmetry_space_group_name_H-M "C M M M"
_symmetry_group_IT_number 65
_symmetry_cell_setting 'orthorhombic'
loop_
_space_group_symop_operation_xyz
x,y,z
-x,-y,z
x,-y,-z
-x,y,-z
-x,-y,-z
x,y,-z
-x,y,z
x,-y,z
1/2+x,1/2+y,z
1/2-x,1/2-y,z
1/2+x,1/2-y,-z
1/2-x,1/2+y,-z
1/2-x,1/2-y,-z
1/2+x,1/2+y,-z
1/2-x,1/2+y,z
1/2+x,1/2-y,z
loop_
_atom_site_type_symbol
_atom_site_label
_atom_site_fract_x
_atom_site_fract_y
_atom_site_fract_z
Si Si1 0.300774 0.678181 0.751580
Si Si2 0.302416 0.819467 0.944422
Si Si3 0.500000 0.180600 0.559696
Si Si4 0.644686 0.825024 0.842897
Si Si5 0.944957 0.829762 0.823342
Si Si6 0.444002 0.669158 0.701926
Si Si7 0.900353 0.323408 0.612025
Si Si8 0.801960 0.179350 0.631761
O O1 0.299007 0.500000 0.755818
O O2 0.250000 0.750000 0.765102
O O3 0.337603 0.741389 0.792376
O O4 0.309366 0.713603 0.692126
O O5 0.250000 0.750000 0.942412
O O6 0.329955 0.770098 0.894115
O O7 0.299328 0.000000 0.942642
O O8 0.323417 0.779437 0.000000
O O9 0.500000 0.211805 0.500000
O O10 0.551418 0.231950 0.582565
O O11 0.500000 0.000000 0.567682
O O12 0.589056 0.790310 0.848044
O O13 0.654356 0.000000 0.836496
O O14 0.941873 0.813591 0.762215
O O15 0.000000 0.814251 0.837446
O O16 0.929390 0.000000 0.835108
O O17 0.500000 0.678973 0.688097
O O18 0.426856 0.500000 0.689363
O O19 0.414801 0.788531 0.670218
O O20 0.894948 0.500000 0.602803
O O21 0.849049 0.244210 0.603606
O O22 0.750000 0.250000 0.617901
O O23 0.799676 0.000000 0.625900
#
# Coordination Sequence:
#
# PCOD9488475 Si02
#       8
#    16  16   8  16  16  16  16  16
#     4  10  20  33  49  71 104 141 174 206 247 298
#     4   9  19  35  52  71  95 121 153 196 247 301
#     4   9  20  38  57  81 113 145 177 217 270 321
#     4  11  21  31  48  73  98 128 165 206 253 301
#     4   9  19  34  49  67  96 135 171 203 244 295
#     4   9  17  30  48  71 102 138 173 209 253 303
#     4  11  20  32  54  81 107 139 179 221 264 311
#     4  10  21  36  53  76 108 146 182 216 256 307
#
# _framework density 18.216146999999999
#
# number of rings (size 3 to 8) (size 9 to 14) (size 15 to 20)
#    0.000    2.200    0.667    3.600    0.000    7.733 
#    0.000    1.333    0.000    4.000    0.000    2.800 
#    0.000    0.000    0.000    0.000    0.000    0.000 
#
# Total GULP energy -334487.605897 kJ/mol
# GULP energy per Si atom -5574.793432 kJ/mol
# Density = 1.817469 g / cm^3
# Si number density = 18.216147 Si / 1000 Ang^3
#
#
#
# Elastic Constant Matrix: (Units=GPa)
#
#
# Indices 1 2 3 4 5 6 
#
# 1 120.7156 39.0762 38.0628 0.0000 0.0000 0.0000
# 2 39.0762 27.5855 14.8359 0.0000 0.0000 0.0000
# 3 38.0628 14.8359 28.3753 0.0000 0.0000 0.0000
# 4 0.0000 0.0000 0.0000 10.1942 0.0000 0.0000
# 5 0.0000 0.0000 0.0000 0.0000 12.4164 0.0000
# 6 0.0000 0.0000 0.0000 0.0000 0.0000 33.2767
#
#
#
# Elastic Compliance Matrix: (Units=1/GPa)
#
#
# Indices 1 2 3 4 5 6 
#
# 1 0.019564 -0.018919 -0.016351 0.000000 0.000000 0.000000
# 2 -0.018919 0.068728 -0.010556 0.000000 0.000000 0.000000
# 3 -0.016351 -0.010556 0.062695 0.000000 0.000000 0.000000
# 4 0.000000 0.000000 0.000000 0.098095 0.000000 0.000000
# 5 0.000000 0.000000 0.000000 0.000000 0.080539 0.000000
# 6 0.000000 0.000000 0.000000 0.000000 0.000000 0.030051
#
#
# Mechanical properties :
#
#
# Convention : Reuss Voigt Hill
#
# Bulk Modulus (GPa) = 16.85378 40.06959 28.46169
# Shear Modulus (GPa) = 10.61343 16.82424 13.71883
#
# Velocity S-wave (km/s) = 2.41641 3.04236 2.74727
# Velocity P-wave (km/s) = 4.13008 5.86394 5.07165
#
# Compressibility (1/GPa) = 0.05933386
#
# Stress axis : x y z
#
# Youngs Moduli (GPa) = 51.11469 14.55016 15.95030
#
# Poissons Ratio (x) = 0.27528 0.26081
# Poissons Ratio (y) = 0.96705 0.16837
# Poissons Ratio (z) = 0.83579 0.15359
#
# Static dielectric constant tensor:
#      x y z
#    x 1.677440 0.000000 0.000000 
#    y 0.000000 1.630750 0.000000 
#    z 0.000000 0.000000 1.623930 
# 
# From -- ./inp_files/76119.got.cif
#   From: 2010.05.17/outbox.cif.g08.bks.cpg/sg65_39_cif.got.tgz:76119.got - 2010.06.03 17:01:31.
