data_PCOD9488495
_publ_section_title
;
Structure prediction by ZEFSAII (Michael W. Deem and Ramdas Pophale) SiO2 
 PCOD9488495
Probable space group: C M M M
;
_chemical_formula_sum "Si O2"
_cell_formula_units_Z 104
_cell_length_a 28.784831
_cell_length_b 22.341120
_cell_length_c 7.794035
_cell_angle_alpha 90.000000
_cell_angle_beta 90.000000
_cell_angle_gamma 90.000000
_cell_volume 5012.229832
_symmetry_space_group_name_H-M "C M M M"
_symmetry_group_IT_number 65
_symmetry_cell_setting 'orthorhombic'
loop_
_space_group_symop_operation_xyz
x,y,z
-x,-y,z
x,-y,-z
-x,y,-z
-x,-y,-z
x,y,-z
-x,y,z
x,-y,z
1/2+x,1/2+y,z
1/2-x,1/2-y,z
1/2+x,1/2-y,-z
1/2-x,1/2+y,-z
1/2-x,1/2-y,-z
1/2+x,1/2+y,-z
1/2-x,1/2+y,z
1/2+x,1/2-y,z
loop_
_atom_site_type_symbol
_atom_site_label
_atom_site_fract_x
_atom_site_fract_y
_atom_site_fract_z
Si Si1 0.719443 0.935367 0.704294
Si Si2 0.552579 0.666515 0.792754
Si Si3 0.621961 0.431370 0.297546
Si Si4 0.446325 0.928109 0.000000
Si Si5 0.863974 0.254822 0.790140
Si Si6 0.796720 0.155717 0.194779
Si Si7 0.620726 0.109704 0.699589
O O1 0.717058 0.939215 0.500000
O O2 0.752199 0.879066 0.738343
O O3 0.666870 0.924783 0.762777
O O4 0.737473 0.000000 0.769748
O O5 0.500000 0.676708 0.733238
O O6 0.573995 0.603839 0.730320
O O7 0.589700 0.717407 0.742440
O O8 0.552374 0.665267 0.000000
O O9 0.633506 0.430527 0.500000
O O10 0.620235 0.500000 0.240410
O O11 0.661465 0.392692 0.204775
O O12 0.420499 0.904369 0.169634
O O13 0.500000 0.909317 0.000000
O O14 0.444047 0.000000 0.000000
O O15 0.819703 0.215653 0.728779
O O16 0.866741 0.320357 0.713934
O O17 0.862657 0.258526 0.000000
O O18 0.785851 0.170965 0.000000
O O19 0.610991 0.094442 0.500000
#
# Coordination Sequence:
#
# PCOD9488495 Si02
#       7
#    16  16  16   8  16  16  16
#     4  10  22  39  59  88 127 166 207 259 312 367
#     4   9  19  35  55  78 106 146 195 251 311 368
#     4  10  20  33  49  72 109 153 197 251 307 362
#     4  11  26  48  74 101 132 170 207 256 320 380
#     4   9  19  38  58  86 125 164 204 258 316 372
#     4  10  21  35  57  87 119 161 209 255 303 364
#     4  11  24  43  69 100 132 168 211 258 312 378
#
# _framework density 20.749247
#
# number of rings (size 3 to 8) (size 9 to 14) (size 15 to 20)
#    0.000    2.077    0.769    2.769    1.077    9.538 
#    0.000    5.385    0.000    0.000    0.000    0.000 
#    0.000    0.000    0.000    0.000    0.000    0.000 
#
# Total GULP energy -290332.569276 kJ/mol
# GULP energy per Si atom -5583.318640 kJ/mol
# Density = 2.070202 g / cm^3
# Si number density = 20.749247 Si / 1000 Ang^3
#
#
#
# Elastic Constant Matrix: (Units=GPa)
#
#
# Indices 1 2 3 4 5 6 
#
# 1 114.5439 20.0974 34.9053 0.0000 0.0000 0.0000
# 2 20.0974 81.8055 12.2933 0.0000 0.0000 0.0000
# 3 34.9053 12.2933 53.6587 0.0000 0.0000 0.0000
# 4 0.0000 0.0000 0.0000 30.4749 0.0000 0.0000
# 5 0.0000 0.0000 0.0000 0.0000 38.7645 0.0000
# 6 0.0000 0.0000 0.0000 0.0000 0.0000 18.9820
#
#
#
# Elastic Compliance Matrix: (Units=1/GPa)
#
#
# Indices 1 2 3 4 5 6 
#
# 1 0.011113 -0.001702 -0.006839 0.000000 0.000000 0.000000
# 2 -0.001702 0.012921 -0.001853 0.000000 0.000000 0.000000
# 3 -0.006839 -0.001853 0.023510 0.000000 0.000000 0.000000
# 4 0.000000 0.000000 0.000000 0.032814 0.000000 0.000000
# 5 0.000000 0.000000 0.000000 0.000000 0.025797 0.000000
# 6 0.000000 0.000000 0.000000 0.000000 0.000000 0.052682
#
#
# Mechanical properties :
#
#
# Convention : Reuss Voigt Hill
#
# Bulk Modulus (GPa) = 37.37621 42.73335 40.05478
# Shear Modulus (GPa) = 26.51922 29.82509 28.17216
#
# Velocity S-wave (km/s) = 3.57890 3.79543 3.68875
# Velocity P-wave (km/s) = 5.92710 6.31244 6.12280
#
# Compressibility (1/GPa) = 0.02675498
#
# Stress axis : x y z
#
# Youngs Moduli (GPa) = 89.98409 77.39476 42.53575
#
# Poissons Ratio (x) = 0.13176 0.29091
# Poissons Ratio (y) = 0.15319 0.07881
# Poissons Ratio (z) = 0.61541 0.14339
#
# Static dielectric constant tensor:
#      x y z
#    x 1.740750 0.000000 0.000000 
#    y 0.000000 1.751510 0.000000 
#    z 0.000000 0.000000 1.780380 
# 
# From -- ./inp_files/16508.got.cif
#   From: 2010.05.17/outbox.cif.g08.bks.cpg/sg65_9_cif.got.tgz:16508.got - 2010.06.03 17:01:31.
