data_PCOD9488188
_publ_section_title
;
Structure prediction by ZEFSAII (Michael W. Deem and Ramdas Pophale) SiO2 
 PCOD9488188
Probable space group: C M M M
;
_chemical_formula_sum "Si O2"
_cell_formula_units_Z 88
_cell_length_a 7.441981
_cell_length_b 32.410275
_cell_length_c 17.437798
_cell_angle_alpha 90.000000
_cell_angle_beta 90.000000
_cell_angle_gamma 90.000000
_cell_volume 4205.938474
_symmetry_space_group_name_H-M "C M M M"
_symmetry_group_IT_number 65
_symmetry_cell_setting 'orthorhombic'
loop_
_space_group_symop_operation_xyz
x,y,z
-x,-y,z
x,-y,-z
-x,y,-z
-x,-y,-z
x,y,-z
-x,y,z
x,-y,z
1/2+x,1/2+y,z
1/2-x,1/2-y,z
1/2+x,1/2-y,-z
1/2-x,1/2+y,-z
1/2-x,1/2-y,-z
1/2+x,1/2+y,-z
1/2-x,1/2+y,z
1/2+x,1/2-y,z
loop_
_atom_site_type_symbol
_atom_site_label
_atom_site_fract_x
_atom_site_fract_y
_atom_site_fract_z
Si Si1 0.719482 0.045703 0.332964
Si Si2 0.213628 0.374183 0.758523
Si Si3 0.281605 0.923944 0.500000
Si Si4 0.785146 0.703362 0.663609
Si Si5 0.706143 0.500000 0.906417
Si Si6 0.719416 0.827656 0.500000
Si Si7 0.715918 0.410792 0.913456
O O1 0.500000 0.045813 0.331272
O O2 0.783643 0.084129 0.282037
O O3 0.773584 0.054334 0.421130
O O4 0.777364 0.000000 0.307937
O O5 0.284015 0.332729 0.719086
O O6 0.243417 0.377702 0.848951
O O7 0.000000 0.374660 0.745630
O O8 0.500000 0.924338 0.500000
O O9 0.227657 0.875830 0.500000
O O10 0.750000 0.750000 0.687981
O O11 0.718473 0.694518 0.577383
O O12 0.000000 0.699085 0.660566
O O13 0.500000 0.500000 0.879110
O O14 0.788017 0.455779 0.886318
O O15 0.702423 0.500000 0.000000
O O16 0.500000 0.827301 0.500000
O O17 0.500000 0.414943 0.917655
O O18 0.779378 0.402249 0.000000
#
# Coordination Sequence:
#
# PCOD9488188 Si02
#       7
#    16  16   8  16   8   8  16
#     4   9  16  25  40  66 100 136 170 201 236 283
#     4  10  20  32  48  74 105 130 158 206 257 294
#     4   9  13  23  42  63  94 136 173 200 232 280
#     4  10  20  34  52  74 100 130 164 205 252 297
#     4   7  12  26  47  69  93 124 163 200 230 271
#     4   9  15  28  48  68  96 131 164 201 244 288
#     4   9  18  33  52  72  97 132 170 203 238 288
#
# _framework density 20.922796000000002
#
# number of rings (size 3 to 8) (size 9 to 14) (size 15 to 20)
#    0.000    2.818    1.818    1.636    1.273    2.182 
#    0.000    0.000    0.000    2.182    0.000    0.636 
#    0.000    1.455    0.000    0.000    0.000    0.000 
#
# Total GULP energy -245625.534252 kJ/mol
# GULP energy per Si atom -5582.398506 kJ/mol
# Density = 2.087518 g / cm^3
# Si number density = 20.922796 Si / 1000 Ang^3
#
#
#
# Elastic Constant Matrix: (Units=GPa)
#
#
# Indices 1 2 3 4 5 6 
#
# 1 65.3125 6.3211 0.7034 0.0000 0.0000 0.0000
# 2 6.3211 173.7122 90.1389 0.0000 0.0000 0.0000
# 3 0.7034 90.1389 129.9564 0.0000 0.0000 0.0000
# 4 0.0000 0.0000 0.0000 6.0385 0.0000 0.0000
# 5 0.0000 0.0000 0.0000 0.0000 8.6568 0.0000
# 6 0.0000 0.0000 0.0000 0.0000 0.0000 -1.3415
#
#
#
# Elastic Compliance Matrix: (Units=1/GPa)
#
#
# Indices 1 2 3 4 5 6 
#
# 1 0.015384 -0.000807 0.000477 0.000000 0.000000 0.000000
# 2 -0.000807 0.009036 -0.006263 0.000000 0.000000 0.000000
# 3 0.000477 -0.006263 0.012036 0.000000 0.000000 0.000000
# 4 0.000000 0.000000 0.000000 0.165604 0.000000 0.000000
# 5 0.000000 0.000000 0.000000 0.000000 0.115517 0.000000
# 6 0.000000 0.000000 0.000000 0.000000 0.000000 -0.745424
#
#
# Mechanical properties :
#
#
# Convention : Reuss Voigt Hill
#
# Bulk Modulus (GPa) = 42.97532 62.58974 52.78253
# Shear Modulus (GPa) = -12.28791 20.79193 4.25201
#
# Velocity S-wave (km/s) = -2.42605 3.15579 1.42711
# Velocity P-wave (km/s) = 3.56888 6.57710 5.29127
#
# Compressibility (1/GPa) = 0.02326917
#
# Stress axis : x y z
#
# Youngs Moduli (GPa) = 65.00264 110.67012 83.08157
#
# Poissons Ratio (x) = 0.08932 -0.03959
# Poissons Ratio (y) = 0.05246 0.52034
# Poissons Ratio (z) = -0.03097 0.69312
#
# Static dielectric constant tensor:
#      x y z
#    x 1.838780 0.000000 0.000000 
#    y 0.000000 1.752980 0.000000 
#    z 0.000000 0.000000 1.750640 
# 
# From -- ./inp_files/38863.got.cif
#   From: 2010.05.17/outbox.cif.g08.bks.cpg/sg65_20_cif.got.tgz:38863.got - 2010.06.03 17:01:31.
