data_PCOD9488327
_publ_section_title
;
Structure prediction by ZEFSAII (Michael W. Deem and Ramdas Pophale) SiO2 
 PCOD9488327
Probable space group: C M M M
;
_chemical_formula_sum "Si O2"
_cell_formula_units_Z 72
_cell_length_a 24.861054
_cell_length_b 17.634810
_cell_length_c 7.559239
_cell_angle_alpha 90.000000
_cell_angle_beta 90.000000
_cell_angle_gamma 90.000000
_cell_volume 3314.121288
_symmetry_space_group_name_H-M "C M M M"
_symmetry_group_IT_number 65
_symmetry_cell_setting 'orthorhombic'
loop_
_space_group_symop_operation_xyz
x,y,z
-x,-y,z
x,-y,-z
-x,y,-z
-x,-y,-z
x,y,-z
-x,y,z
x,-y,z
1/2+x,1/2+y,z
1/2-x,1/2-y,z
1/2+x,1/2-y,-z
1/2-x,1/2+y,-z
1/2-x,1/2-y,-z
1/2+x,1/2+y,-z
1/2-x,1/2+y,z
1/2+x,1/2-y,z
loop_
_atom_site_type_symbol
_atom_site_label
_atom_site_fract_x
_atom_site_fract_y
_atom_site_fract_z
Si Si1 0.852686 0.204026 0.706979
Si Si2 0.562088 0.000000 0.283929
Si Si3 0.852353 0.624593 0.714381
Si Si4 0.938207 0.915185 0.283898
Si Si5 0.768210 0.917824 0.207345
O O1 0.865213 0.213633 0.500000
O O2 0.852281 0.288710 0.780837
O O3 0.898181 0.148730 0.782822
O O4 0.797803 0.155925 0.717460
O O5 0.597110 0.073406 0.228821
O O6 0.500000 0.000000 0.225005
O O7 0.561067 0.000000 0.500000
O O8 0.852740 0.624656 0.500000
O O9 0.795568 0.588896 0.768331
O O10 0.936297 0.915414 0.500000
O O11 0.000000 0.901490 0.234184
O O12 0.922878 0.000000 0.226373
O O13 0.786009 0.000000 0.282225
O O14 0.780313 0.917714 0.000000
#
# Coordination Sequence:
#
# PCOD9488327 Si02
#       5
#    16   8  16  16  16
#     4  10  20  32  52  82 109 138 178 221 267 320
#     4   9  18  34  57  83 111 145 182 223 272 321
#     4  10  20  35  55  79 108 141 177 219 269 323
#     4   8  14  26  45  71 104 137 167 205 255 308
#     4  11  23  37  54  76 105 142 181 221 272 326
#
# _framework density 21.725216
#
# number of rings (size 3 to 8) (size 9 to 14) (size 15 to 20)
#    0.000    2.333    1.111    2.667    0.000    6.667 
#    0.000    4.444    0.000    2.000    0.000    6.222 
#    0.000    0.000    0.000    0.000    0.000    0.000 
#
# Total GULP energy -201032.096293 kJ/mol
# GULP energy per Si atom -5584.224897 kJ/mol
# Density = 2.167577 g / cm^3
# Si number density = 21.725216 Si / 1000 Ang^3
#
#
#
# Elastic Constant Matrix: (Units=GPa)
#
#
# Indices 1 2 3 4 5 6 
#
# 1 125.3064 78.4914 -13.0811 0.0000 0.0000 0.0000
# 2 78.4914 189.6543 3.3259 0.0000 0.0000 0.0000
# 3 -13.0811 3.3259 52.9109 0.0000 0.0000 0.0000
# 4 0.0000 0.0000 0.0000 -4.7171 0.0000 0.0000
# 5 0.0000 0.0000 0.0000 0.0000 -56.1671 0.0000
# 6 0.0000 0.0000 0.0000 0.0000 0.0000 -43.6071
#
#
#
# Elastic Compliance Matrix: (Units=1/GPa)
#
#
# Indices 1 2 3 4 5 6 
#
# 1 0.011253 -0.004711 0.003078 0.000000 0.000000 0.000000
# 2 -0.004711 0.007251 -0.001621 0.000000 0.000000 0.000000
# 3 0.003078 -0.001621 0.019763 0.000000 0.000000 0.000000
# 4 0.000000 0.000000 0.000000 -0.211994 0.000000 0.000000
# 5 0.000000 0.000000 0.000000 0.000000 -0.017804 0.000000
# 6 0.000000 0.000000 0.000000 0.000000 0.000000 -0.022932
#
#
# Mechanical properties :
#
#
# Convention : Reuss Voigt Hill
#
# Bulk Modulus (GPa) = 31.48680 56.14934 43.81807
# Shear Modulus (GPa) = -25.33305 -0.95591 -13.14448
#
# Velocity S-wave (km/s) = -3.41848 -0.66405 -2.46241
# Velocity P-wave (km/s) = 1.02793 5.03124 3.48258
#
# Compressibility (1/GPa) = 0.03175934
#
# Stress axis : x y z
#
# Youngs Moduli (GPa) = 88.86669 137.91298 50.60069
#
# Poissons Ratio (x) = 0.64973 -0.15576
# Poissons Ratio (y) = 0.41866 0.08200
# Poissons Ratio (z) = -0.27354 0.22349
#
# Static dielectric constant tensor:
#      x y z
#    x 1.758400 0.000000 0.000000 
#    y 0.000000 1.812790 0.000000 
#    z 0.000000 0.000000 1.824610 
# 
# From -- ./inp_files/7266.got.cif
#   From: 2010.05.17/outbox.cif.g08.bks.cpg/sg65_4_cif.got.tgz:7266.got - 2010.06.03 17:01:31.
