data_PCOD9488672
_publ_section_title
;
Structure prediction by ZEFSAII (Michael W. Deem and Ramdas Pophale) SiO2 
 PCOD9488672
Probable space group: C M M M
;
_chemical_formula_sum "Si O2"
_cell_formula_units_Z 72
_cell_length_a 17.484560
_cell_length_b 21.057887
_cell_length_c 11.631371
_cell_angle_alpha 90.000000
_cell_angle_beta 90.000000
_cell_angle_gamma 90.000000
_cell_volume 4282.529931
_symmetry_space_group_name_H-M "C M M M"
_symmetry_group_IT_number 65
_symmetry_cell_setting 'orthorhombic'
loop_
_space_group_symop_operation_xyz
x,y,z
-x,-y,z
x,-y,-z
-x,y,-z
-x,-y,-z
x,y,-z
-x,y,z
x,-y,z
1/2+x,1/2+y,z
1/2-x,1/2-y,z
1/2+x,1/2-y,-z
1/2-x,1/2+y,-z
1/2-x,1/2-y,-z
1/2+x,1/2+y,-z
1/2-x,1/2+y,z
1/2+x,1/2-y,z
loop_
_atom_site_type_symbol
_atom_site_label
_atom_site_fract_x
_atom_site_fract_y
_atom_site_fract_z
Si Si1 0.868644 0.628043 0.245802
Si Si2 0.296736 0.363842 0.360546
Si Si3 0.875817 0.500000 0.368551
Si Si4 0.407498 0.924176 0.000000
Si Si5 0.311135 0.500000 0.632242
Si Si6 0.414882 0.748170 0.632939
O O1 0.783001 0.639994 0.293727
O O2 0.900308 0.564801 0.308304
O O3 0.874577 0.610242 0.112660
O O4 0.911073 0.691504 0.284428
O O5 0.282325 0.367183 0.500000
O O6 0.333952 0.431072 0.322064
O O7 0.351131 0.304209 0.340215
O O8 0.899162 0.500000 0.500000
O O9 0.782226 0.500000 0.364048
O O10 0.500000 0.919239 0.000000
O O11 0.388796 0.000000 0.000000
O O12 0.335901 0.500000 0.500000
O O13 0.401942 0.769485 0.500000
O O14 0.500000 0.719839 0.637896
#
# Coordination Sequence:
#
# PCOD9488672 Si02
#       6
#    16  16   8   8   8  16
#     4  11  19  34  54  75 100 139 184 218 257 310
#     4   9  17  31  54  82 108 135 173 220 266 313
#     4   9  16  27  49  79 103 123 162 216 260 308
#     4  11  24  40  53  72 107 146 177 216 267 312
#     4   7  12  24  44  71  99 126 158 199 248 299
#     4  10  20  33  50  77 113 146 173 212 269 322
#
# _framework density 16.812491000000001
#
# number of rings (size 3 to 8) (size 9 to 14) (size 15 to 20)
#    0.000    2.333    1.111    4.667    0.000    1.778 
#    0.000    2.778    0.000    6.000    0.000    0.000 
#    0.000    0.889    0.000    0.000    0.000    0.000 
#
# Total GULP energy -200578.779907 kJ/mol
# GULP energy per Si atom -5571.632775 kJ/mol
# Density = 1.677423 g / cm^3
# Si number density = 16.812491 Si / 1000 Ang^3
#
#
#
# Elastic Constant Matrix: (Units=GPa)
#
#
# Indices 1 2 3 4 5 6 
#
# 1 69.5406 47.4174 36.4184 0.0000 0.0000 0.0000
# 2 47.4174 112.1738 50.0356 0.0000 0.0000 0.0000
# 3 36.4184 50.0356 102.3409 0.0000 0.0000 0.0000
# 4 0.0000 0.0000 0.0000 -7.7942 0.0000 0.0000
# 5 0.0000 0.0000 0.0000 0.0000 2.6320 0.0000
# 6 0.0000 0.0000 0.0000 0.0000 0.0000 -0.5519
#
#
#
# Elastic Compliance Matrix: (Units=1/GPa)
#
#
# Indices 1 2 3 4 5 6 
#
# 1 0.021467 -0.007247 -0.004096 0.000000 0.000000 0.000000
# 2 -0.007247 0.013848 -0.004191 0.000000 0.000000 0.000000
# 3 -0.004096 -0.004191 0.013278 0.000000 0.000000 0.000000
# 4 0.000000 0.000000 0.000000 -0.128300 0.000000 0.000000
# 5 0.000000 0.000000 0.000000 0.000000 0.379944 0.000000
# 6 0.000000 0.000000 0.000000 0.000000 0.000000 -1.811813
#
#
# Mechanical properties :
#
#
# Convention : Reuss Voigt Hill
#
# Bulk Modulus (GPa) = 57.06568 61.31090 59.18829
# Shear Modulus (GPa) = -3.39060 8.86942 2.73941
#
# Velocity S-wave (km/s) = -1.42165 2.29934 1.27786
# Velocity P-wave (km/s) = 5.59655 6.60272 6.12034
#
# Compressibility (1/GPa) = 0.01752367
#
# Stress axis : x y z
#
# Youngs Moduli (GPa) = 46.58360 72.21316 75.31284
#
# Poissons Ratio (x) = 0.52336 0.30846
# Poissons Ratio (y) = 0.33761 0.31566
# Poissons Ratio (z) = 0.19079 0.30267
#
# Static dielectric constant tensor:
#      x y z
#    x 1.572260 0.000000 0.000000 
#    y 0.000000 1.598480 0.000000 
#    z 0.000000 0.000000 1.551040 
# 
# From -- ./inp_files/26588.got.cif
#   From: 2010.05.17/outbox.cif.g08.bks.cpg/sg65_14_cif.got.tgz:26588.got - 2010.06.03 17:01:31.
