data_PCOD9488321
_publ_section_title
;
Structure prediction by ZEFSAII (Michael W. Deem and Ramdas Pophale) SiO2 
 PCOD9488321
Probable space group: C M M M
;
_chemical_formula_sum "Si O2"
_cell_formula_units_Z 104
_cell_length_a 30.540530
_cell_length_b 15.056746
_cell_length_c 13.456116
_cell_angle_alpha 90.000000
_cell_angle_beta 90.000000
_cell_angle_gamma 90.000000
_cell_volume 6187.673877
_symmetry_space_group_name_H-M "C M M M"
_symmetry_group_IT_number 65
_symmetry_cell_setting 'orthorhombic'
loop_
_space_group_symop_operation_xyz
x,y,z
-x,-y,z
x,-y,-z
-x,y,-z
-x,-y,-z
x,y,-z
-x,y,z
x,-y,z
1/2+x,1/2+y,z
1/2-x,1/2-y,z
1/2+x,1/2-y,-z
1/2-x,1/2+y,-z
1/2-x,1/2-y,-z
1/2+x,1/2+y,-z
1/2-x,1/2+y,z
1/2+x,1/2-y,z
loop_
_atom_site_type_symbol
_atom_site_label
_atom_site_fract_x
_atom_site_fract_y
_atom_site_fract_z
Si Si1 0.948341 0.902348 0.679186
Si Si2 0.662394 0.758926 0.883832
Si Si3 0.213169 0.395997 0.384185
Si Si4 0.750000 0.750000 0.756641
Si Si5 0.947881 0.710120 0.614584
Si Si6 0.406981 0.601422 0.110841
Si Si7 0.623221 0.104245 0.733397
O O1 0.932139 0.812505 0.627716
O O2 0.939865 0.890767 0.796954
O O3 0.000000 0.905653 0.659123
O O4 0.930074 0.000000 0.650355
O O5 0.707350 0.742168 0.825464
O O6 0.631149 0.673032 0.875801
O O7 0.638144 0.840735 0.829921
O O8 0.670275 0.776523 0.000000
O O9 0.216253 0.371639 0.500000
O O10 0.224490 0.500000 0.373706
O O11 0.242789 0.334477 0.314722
O O12 0.163313 0.385805 0.345026
O O13 0.942071 0.683545 0.500000
O O14 0.919679 0.648266 0.686001
O O15 0.000000 0.707023 0.637031
O O16 0.389977 0.500000 0.114018
O O17 0.426286 0.614632 0.000000
O O18 0.617398 0.000000 0.753244
#
# Coordination Sequence:
#
# PCOD9488321 Si02
#       7
#    16  16  16   8  16  16  16
#     4   9  17  30  49  74 104 134 164 201 246 301
#     4  10  20  35  53  76 103 132 166 209 257 310
#     4   9  18  33  53  76 102 134 172 211 254 304
#     4  10  20  32  52  78 102 134 166 208 256 306
#     4  10  20  33  51  77 106 136 172 213 258 306
#     4   9  17  30  50  74  99 129 162 199 247 299
#     4  10  20  35  54  75 100 136 178 220 259 299
#
# _framework density 16.807607999999998
#
# number of rings (size 3 to 8) (size 9 to 14) (size 15 to 20)
#    0.000    2.462    1.538    0.923    0.000    2.769 
#    0.000    3.846    0.000    3.231    0.000    1.077 
#    0.000    0.000    0.000    0.000    0.000    0.000 
#
# Total GULP energy -289709.875143 kJ/mol
# GULP energy per Si atom -5571.343753 kJ/mol
# Density = 1.676935 g / cm^3
# Si number density = 16.807608 Si / 1000 Ang^3
#
#
#
# Elastic Constant Matrix: (Units=GPa)
#
#
# Indices 1 2 3 4 5 6 
#
# 1 37.3309 34.2928 23.9578 0.0000 0.0000 0.0000
# 2 34.2928 94.0191 41.5761 0.0000 0.0000 0.0000
# 3 23.9578 41.5761 87.7267 0.0000 0.0000 0.0000
# 4 0.0000 0.0000 0.0000 12.3368 0.0000 0.0000
# 5 0.0000 0.0000 0.0000 0.0000 19.4226 0.0000
# 6 0.0000 0.0000 0.0000 0.0000 0.0000 23.0210
#
#
#
# Elastic Compliance Matrix: (Units=1/GPa)
#
#
# Indices 1 2 3 4 5 6 
#
# 1 0.042180 -0.013020 -0.005349 0.000000 0.000000 0.000000
# 2 -0.013020 0.017475 -0.004726 0.000000 0.000000 0.000000
# 3 -0.005349 -0.004726 0.015100 0.000000 0.000000 0.000000
# 4 0.000000 0.000000 0.000000 0.081058 0.000000 0.000000
# 5 0.000000 0.000000 0.000000 0.000000 0.051486 0.000000
# 6 0.000000 0.000000 0.000000 0.000000 0.000000 0.043439
#
#
# Mechanical properties :
#
#
# Convention : Reuss Voigt Hill
#
# Bulk Modulus (GPa) = 35.00747 46.52559 40.76653
# Shear Modulus (GPa) = 16.31592 18.90609 17.61100
#
# Velocity S-wave (km/s) = 3.11906 3.35752 3.24048
# Velocity P-wave (km/s) = 5.81764 6.54003 6.18938
#
# Compressibility (1/GPa) = 0.02856533
#
# Stress axis : x y z
#
# Youngs Moduli (GPa) = 23.70779 57.22483 66.22642
#
# Poissons Ratio (x) = 0.74504 0.35424
# Poissons Ratio (y) = 0.30867 0.31300
# Poissons Ratio (z) = 0.12681 0.27046
#
# Static dielectric constant tensor:
#      x y z
#    x 1.542190 0.000000 0.000000 
#    y 0.000000 1.575300 0.000000 
#    z 0.000000 0.000000 1.564880 
# 
# From -- ./inp_files/33986.got.cif
#   From: 2010.05.17/outbox.cif.g08.bks.cpg/sg65_17_cif.got.tgz:33986.got - 2010.06.03 17:01:31.
