data_PCOD9488059
_publ_section_title
;
Structure prediction by ZEFSAII (Michael W. Deem and Ramdas Pophale) SiO2 
 PCOD9488059
Probable space group: C M M M
;
_chemical_formula_sum "Si O2"
_cell_formula_units_Z 104
_cell_length_a 27.373173
_cell_length_b 8.181903
_cell_length_c 22.881545
_cell_angle_alpha 90.000000
_cell_angle_beta 90.000000
_cell_angle_gamma 90.000000
_cell_volume 5124.657132
_symmetry_space_group_name_H-M "C M M M"
_symmetry_group_IT_number 65
_symmetry_cell_setting 'orthorhombic'
loop_
_space_group_symop_operation_xyz
x,y,z
-x,-y,z
x,-y,-z
-x,y,-z
-x,-y,-z
x,y,-z
-x,y,z
x,-y,z
1/2+x,1/2+y,z
1/2-x,1/2-y,z
1/2+x,1/2-y,-z
1/2-x,1/2+y,-z
1/2-x,1/2-y,-z
1/2+x,1/2+y,-z
1/2-x,1/2+y,z
1/2+x,1/2-y,z
loop_
_atom_site_type_symbol
_atom_site_label
_atom_site_fract_x
_atom_site_fract_y
_atom_site_fract_z
Si Si1 0.348210 0.803330 0.437785
Si Si2 0.693520 0.301444 0.183740
Si Si3 0.095165 0.812646 0.135301
Si Si4 0.054845 0.699328 0.385446
Si Si5 0.058984 0.310131 0.255148
Si Si6 0.805694 0.194416 0.685815
Si Si7 0.000000 0.693909 0.934400
O O1 0.327586 0.742272 0.500000
O O2 0.404924 0.753550 0.432027
O O3 0.326169 0.753066 0.376001
O O4 0.345676 0.000000 0.439077
O O5 0.692779 0.500000 0.183461
O O6 0.750000 0.250000 0.173040
O O7 0.650918 0.244514 0.138936
O O8 0.677941 0.244935 0.249615
O O9 0.077736 0.797748 0.202444
O O10 0.050373 0.738492 0.098686
O O11 0.098740 0.000000 0.116841
O O12 0.053164 0.500000 0.383525
O O13 0.071822 0.748948 0.320245
O O14 0.000000 0.757403 0.396327
O O15 0.074398 0.500000 0.247390
O O16 0.000000 0.310767 0.253730
O O17 0.750000 0.250000 0.684814
O O18 0.810382 0.000000 0.686789
O O19 0.000000 0.500000 0.937882
O O20 0.000000 0.764422 0.000000
#
# Coordination Sequence:
#
# PCOD9488059 Si02
#       7
#    16  16  16  16  16  16   8
#     4  10  20  32  47  69  96 129 174 223 271 325
#     4   9  20  36  56  86 117 146 182 226 282 340
#     4  11  21  34  56  86 119 150 185 232 279 325
#     4   8  15  28  46  69  97 130 170 216 263 317
#     4   9  16  27  46  73 104 137 177 219 269 334
#     4  10  20  36  56  76 102 133 169 215 270 329
#     4  11  25  43  61  85 119 161 204 233 260 307
#
# _framework density 20.294039999999999
#
# number of rings (size 3 to 8) (size 9 to 14) (size 15 to 20)
#    0.000    2.385    0.769    3.000    0.000    3.385 
#    0.000    1.538    0.000    0.923    0.000    1.077 
#    0.000    0.000    0.000    0.000    0.000    0.000 
#
# Total GULP energy -289693.955698 kJ/mol
# GULP energy per Si atom -5571.037610 kJ/mol
# Density = 2.024785 g / cm^3
# Si number density = 20.294040 Si / 1000 Ang^3
#
#
#
# Elastic Constant Matrix: (Units=GPa)
#
#
# Indices 1 2 3 4 5 6 
#
# 1 109.5448 14.8221 78.1633 0.0000 0.0000 0.0000
# 2 14.8221 19.8877 12.9803 0.0000 0.0000 0.0000
# 3 78.1633 12.9803 89.7806 0.0000 0.0000 0.0000
# 4 0.0000 0.0000 0.0000 -11.9299 0.0000 0.0000
# 5 0.0000 0.0000 0.0000 0.0000 15.6357 0.0000
# 6 0.0000 0.0000 0.0000 0.0000 0.0000 9.2089
#
#
#
# Elastic Compliance Matrix: (Units=1/GPa)
#
#
# Indices 1 2 3 4 5 6 
#
# 1 0.024506 -0.004791 -0.020642 0.000000 0.000000 0.000000
# 2 -0.004791 0.056458 -0.003991 0.000000 0.000000 0.000000
# 3 -0.020642 -0.003991 0.029686 0.000000 0.000000 0.000000
# 4 0.000000 0.000000 0.000000 -0.083823 0.000000 0.000000
# 5 0.000000 0.000000 0.000000 0.000000 0.063956 0.000000
# 6 0.000000 0.000000 0.000000 0.000000 0.000000 0.108590
#
#
# Mechanical properties :
#
#
# Convention : Reuss Voigt Hill
#
# Bulk Modulus (GPa) = 19.30466 47.90497 33.60482
# Shear Modulus (GPa) = 18.14950 10.13277 14.14113
#
# Velocity S-wave (km/s) = 2.99377 2.23692 2.64258
# Velocity P-wave (km/s) = 4.63502 5.50713 5.08978
#
# Compressibility (1/GPa) = 0.05180096
#
# Stress axis : x y z
#
# Youngs Moduli (GPa) = 40.80709 17.71223 33.68564
#
# Poissons Ratio (x) = 0.08486 0.69534
# Poissons Ratio (y) = 0.19551 0.13445
# Poissons Ratio (z) = 0.84234 0.07070
#
# Static dielectric constant tensor:
#      x y z
#    x 1.780180 0.000000 0.000000 
#    y 0.000000 1.718620 0.000000 
#    z 0.000000 0.000000 1.728770 
# 
# From -- ./inp_files/65883.got.cif
#   From: 2010.05.17/outbox.cif.g08.bks.cpg/sg65_33_cif.got.tgz:65883.got - 2010.06.03 17:01:31.
