data_PCOD9488537
_publ_section_title
;
Structure prediction by ZEFSAII (Michael W. Deem and Ramdas Pophale) SiO2 
 PCOD9488537
Probable space group: C M M M
;
_chemical_formula_sum "Si O2"
_cell_formula_units_Z 64
_cell_length_a 9.832550
_cell_length_b 21.216428
_cell_length_c 17.633030
_cell_angle_alpha 90.000000
_cell_angle_beta 90.000000
_cell_angle_gamma 90.000000
_cell_volume 3678.454410
_symmetry_space_group_name_H-M "C M M M"
_symmetry_group_IT_number 65
_symmetry_cell_setting 'orthorhombic'
loop_
_space_group_symop_operation_xyz
x,y,z
-x,-y,z
x,-y,-z
-x,y,-z
-x,-y,-z
x,y,-z
-x,y,z
x,-y,z
1/2+x,1/2+y,z
1/2-x,1/2-y,z
1/2+x,1/2-y,-z
1/2-x,1/2+y,-z
1/2-x,1/2-y,-z
1/2+x,1/2+y,-z
1/2-x,1/2+y,z
1/2+x,1/2-y,z
loop_
_atom_site_type_symbol
_atom_site_label
_atom_site_fract_x
_atom_site_fract_y
_atom_site_fract_z
Si Si1 0.337037 0.500000 0.908613
Si Si2 0.335026 0.070295 0.588348
Si Si3 0.845321 0.388496 0.149222
Si Si4 0.836942 0.313770 0.304585
Si Si5 0.855321 0.304198 0.000000
O O1 0.500000 0.500000 0.901664
O O2 0.266612 0.440996 0.867300
O O3 0.305031 0.500000 0.000000
O O4 0.296322 0.076822 0.500000
O O5 0.500000 0.069624 0.591357
O O6 0.293344 0.130679 0.637263
O O7 0.290467 0.000000 0.614912
O O8 0.818184 0.344571 0.221524
O O9 0.000000 0.414890 0.158775
O O10 0.845698 0.346642 0.073953
O O11 0.750000 0.250000 0.313069
O O12 0.000000 0.301624 0.314321
O O13 0.750000 0.250000 0.000000
O O14 0.000000 0.271358 0.000000
#
# Coordination Sequence:
#
# PCOD9488537 Si02
#       5
#     8  16  16  16   8
#     4  11  23  37  55  81 106 135 176 226 277 321
#     4   8  15  30  53  81 110 141 182 227 268 317
#     4  10  21  36  54  76 105 141 180 220 265 321
#     4  10  21  35  55  82 111 145 183 226 273 322
#     4  10  20  33  50  71  97 136 176 216 265 312
#
# _framework density 17.398610999999999
#
# number of rings (size 3 to 8) (size 9 to 14) (size 15 to 20)
#    0.000    2.375    1.250    1.875    1.750    3.000 
#    0.000    0.000    0.000    0.000    0.000    1.750 
#    0.000    0.000    0.000    0.000    0.000    0.000 
#
# Total GULP energy -178279.362791 kJ/mol
# GULP energy per Si atom -5571.230087 kJ/mol
# Density = 1.735901 g / cm^3
# Si number density = 17.398611 Si / 1000 Ang^3
#
#
#
# Elastic Constant Matrix: (Units=GPa)
#
#
# Indices 1 2 3 4 5 6 
#
# 1 82.1945 79.1987 28.9785 0.0000 0.0000 0.0000
# 2 79.1987 156.6485 75.2007 0.0000 0.0000 0.0000
# 3 28.9785 75.2007 98.1633 0.0000 0.0000 0.0000
# 4 0.0000 0.0000 0.0000 23.0044 0.0000 0.0000
# 5 0.0000 0.0000 0.0000 0.0000 313.9370 0.0000
# 6 0.0000 0.0000 0.0000 0.0000 0.0000 39.9201
#
#
#
# Elastic Compliance Matrix: (Units=1/GPa)
#
#
# Indices 1 2 3 4 5 6 
#
# 1 0.024488 -0.014094 0.003568 0.000000 0.000000 0.000000
# 2 -0.014094 0.018208 -0.009788 0.000000 0.000000 0.000000
# 3 0.003568 -0.009788 0.016633 0.000000 0.000000 0.000000
# 4 0.000000 0.000000 0.000000 0.043470 0.000000 0.000000
# 5 0.000000 0.000000 0.000000 0.000000 0.003185 0.000000
# 6 0.000000 0.000000 0.000000 0.000000 0.000000 0.025050
#
#
# Mechanical properties :
#
#
# Convention : Reuss Voigt Hill
#
# Bulk Modulus (GPa) = 53.47455 78.19577 65.83516
# Shear Modulus (GPa) = 28.10625 85.61418 56.86021
#
# Velocity S-wave (km/s) = 4.02360 7.02241 5.72292
# Velocity P-wave (km/s) = 7.23792 10.52586 9.03275
#
# Compressibility (1/GPa) = 0.01870048
#
# Stress axis : x y z
#
# Youngs Moduli (GPa) = 40.83581 54.92053 60.12311
#
# Poissons Ratio (x) = 0.77402 -0.21449
# Poissons Ratio (y) = 0.57552 0.58850
# Poissons Ratio (z) = -0.14569 0.53758
#
# Static dielectric constant tensor:
#      x y z
#    x 1.587620 0.000000 0.000000 
#    y 0.000000 1.384490 0.000000 
#    z 0.000000 0.000000 1.589970 
# 
# From -- ./inp_files/45104.got.cif
#   From: 2010.05.17/outbox.cif.g08.bks.cpg/sg65_23_cif.got.tgz:45104.got - 2010.06.03 17:01:31.
