data_PCOD9488524
_publ_section_title
;
Structure prediction by ZEFSAII (Michael W. Deem and Ramdas Pophale) SiO2 
 PCOD9488524
Probable space group: C M M M
;
_chemical_formula_sum "Si O2"
_cell_formula_units_Z 80
_cell_length_a 18.601472
_cell_length_b 7.611300
_cell_length_c 27.376152
_cell_angle_alpha 90.000000
_cell_angle_beta 90.000000
_cell_angle_gamma 90.000000
_cell_volume 3875.953484
_symmetry_space_group_name_H-M "C M M M"
_symmetry_group_IT_number 65
_symmetry_cell_setting 'orthorhombic'
loop_
_space_group_symop_operation_xyz
x,y,z
-x,-y,z
x,-y,-z
-x,y,-z
-x,-y,-z
x,y,-z
-x,y,z
x,-y,z
1/2+x,1/2+y,z
1/2-x,1/2-y,z
1/2+x,1/2-y,-z
1/2-x,1/2+y,-z
1/2-x,1/2-y,-z
1/2+x,1/2+y,-z
1/2-x,1/2+y,z
1/2+x,1/2-y,z
loop_
_atom_site_type_symbol
_atom_site_label
_atom_site_fract_x
_atom_site_fract_y
_atom_site_fract_z
Si Si1 0.582208 0.709565 0.106101
Si Si2 0.418161 0.791601 0.000000
Si Si3 0.834852 0.211306 0.393772
Si Si4 0.416958 0.715247 0.297405
Si Si5 0.165956 0.788982 0.799246
Si Si6 0.335263 0.289266 0.500000
O O1 0.500000 0.779610 0.107178
O O2 0.577345 0.500000 0.111828
O O3 0.614195 0.740505 0.052135
O O4 0.628652 0.778550 0.151194
O O5 0.500000 0.716171 0.000000
O O6 0.422778 0.000000 0.000000
O O7 0.750000 0.250000 0.388476
O O8 0.878495 0.276046 0.347044
O O9 0.860904 0.277341 0.447120
O O10 0.841991 0.000000 0.394617
O O11 0.500000 0.767747 0.295427
O O12 0.415339 0.500000 0.297625
O O13 0.374181 0.775090 0.249417
O O14 0.250000 0.750000 0.797883
O O15 0.158205 0.000000 0.799320
O O16 0.345311 0.500000 0.500000
O O17 0.250000 0.250000 0.500000
#
# Coordination Sequence:
#
# PCOD9488524 Si02
#       6
#    16   8  16  16  16   8
#     4   9  17  31  51  72  94 123 158 191 223 267
#     4   9  17  29  48  75 102 125 151 187 230 271
#     4   9  16  27  45  67  92 122 155 192 231 273
#     4   9  17  30  48  69  92 120 155 193 233 277
#     4  10  20  33  50  71  94 121 154 192 233 277
#     4   8  14  24  39  63  91 119 153 188 226 272
#
# _framework density 20.640083000000001
#
# number of rings (size 3 to 8) (size 9 to 14) (size 15 to 20)
#    0.000    2.900    0.000    1.500    0.000    4.400 
#    0.000    1.000    0.000    6.600    0.000    0.000 
#    0.000    8.000    0.000    0.000    0.000    0.000 
#
# Total GULP energy -223039.870763 kJ/mol
# GULP energy per Si atom -5575.996769 kJ/mol
# Density = 2.059311 g / cm^3
# Si number density = 20.640083 Si / 1000 Ang^3
#
#
#
# Elastic Constant Matrix: (Units=GPa)
#
#
# Indices 1 2 3 4 5 6 
#
# 1 110.0867 -0.8870 115.2491 0.0000 0.0000 0.0000
# 2 -0.8870 45.1863 9.5101 0.0000 0.0000 0.0000
# 3 115.2491 9.5101 277.2451 0.0000 0.0000 0.0000
# 4 0.0000 0.0000 0.0000 -175.2355 0.0000 0.0000
# 5 0.0000 0.0000 0.0000 0.0000 35.0142 0.0000
# 6 0.0000 0.0000 0.0000 0.0000 0.0000 17.1119
#
#
#
# Elastic Compliance Matrix: (Units=1/GPa)
#
#
# Indices 1 2 3 4 5 6 
#
# 1 0.016219 0.001750 -0.006802 0.000000 0.000000 0.000000
# 2 0.001750 0.022480 -0.001499 0.000000 0.000000 0.000000
# 3 -0.006802 -0.001499 0.006486 0.000000 0.000000 0.000000
# 4 0.000000 0.000000 0.000000 -0.005707 0.000000 0.000000
# 5 0.000000 0.000000 0.000000 0.000000 0.028560 0.000000
# 6 0.000000 0.000000 0.000000 0.000000 0.000000 0.058439
#
#
# Mechanical properties :
#
#
# Convention : Reuss Voigt Hill
#
# Bulk Modulus (GPa) = 31.16840 75.58472 53.37656
# Shear Modulus (GPa) = 33.27266 -4.04549 14.61358
#
# Velocity S-wave (km/s) = 4.01938 -1.40152 2.66375
# Velocity P-wave (km/s) = 6.05593 5.83788 5.94790
#
# Compressibility (1/GPa) = 0.03208378
#
# Stress axis : x y z
#
# Youngs Moduli (GPa) = 61.65609 44.48329 154.17971
#
# Poissons Ratio (x) = -0.07785 1.04876
# Poissons Ratio (y) = -0.10790 0.23105
# Poissons Ratio (z) = 0.41939 0.06666
#
# Static dielectric constant tensor:
#      x y z
#    x 1.689770 0.000000 0.000000 
#    y 0.000000 1.762930 0.000000 
#    z 0.000000 0.000000 1.777700 
# 
# From -- ./inp_files/70827.got.cif
#   From: 2010.05.17/outbox.cif.g08.bks.cpg/sg65_36_cif.got.tgz:70827.got - 2010.06.03 17:01:31.
