data_PCOD9488898
_publ_section_title
;
Structure prediction by ZEFSAII (Michael W. Deem and Ramdas Pophale) SiO2 
 PCOD9488898
Probable space group: C M M M
;
_chemical_formula_sum "Si O2"
_cell_formula_units_Z 68
_cell_length_a 9.033490
_cell_length_b 35.042862
_cell_length_c 12.070950
_cell_angle_alpha 90.000000
_cell_angle_beta 90.000000
_cell_angle_gamma 90.000000
_cell_volume 3821.172007
_symmetry_space_group_name_H-M "C M M M"
_symmetry_group_IT_number 65
_symmetry_cell_setting 'orthorhombic'
loop_
_space_group_symop_operation_xyz
x,y,z
-x,-y,z
x,-y,-z
-x,y,-z
-x,-y,-z
x,y,-z
-x,y,z
x,-y,z
1/2+x,1/2+y,z
1/2-x,1/2-y,z
1/2+x,1/2-y,-z
1/2-x,1/2+y,-z
1/2-x,1/2-y,-z
1/2+x,1/2+y,-z
1/2-x,1/2+y,z
1/2+x,1/2-y,z
loop_
_atom_site_type_symbol
_atom_site_label
_atom_site_fract_x
_atom_site_fract_y
_atom_site_fract_z
Si Si1 0.176517 0.924043 0.369353
Si Si2 0.824247 0.209524 0.132459
Si Si3 0.828243 0.412824 0.000000
Si Si4 0.821710 0.366788 0.785343
Si Si5 0.168639 0.000000 0.746627
Si Si6 0.741986 0.500000 0.000000
O O1 0.196209 0.929854 0.500000
O O2 0.260506 0.887324 0.323425
O O3 0.000000 0.919552 0.347716
O O4 0.234752 0.961200 0.302558
O O5 0.750000 0.250000 0.160386
O O6 0.745511 0.174793 0.194515
O O7 0.000000 0.210253 0.153660
O O8 0.802727 0.203580 0.000000
O O9 0.767001 0.393388 0.888809
O O10 0.819212 0.458560 0.000000
O O11 0.000000 0.402441 0.000000
O O12 0.000000 0.365391 0.783970
O O13 0.000000 0.000000 0.704526
O O14 0.165535 0.000000 0.879549
#
# Coordination Sequence:
#
# PCOD9488898 Si02
#       6
#    16  16   8  16   8   4
#     4  10  21  38  57  77 106 147 194 240 284 331
#     4  10  20  34  55  85 118 152 183 221 272 335
#     4  10  21  33  50  75 111 152 186 225 282 337
#     4  11  21  36  56  81 113 148 187 233 279 335
#     4  10  20  33  52  79 108 144 187 235 287 335
#     4  12  18  34  52  78 112 150 186 232 280 340
#
# _framework density 17.795586
#
# number of rings (size 3 to 8) (size 9 to 14) (size 15 to 20)
#    0.000    1.647    3.529    2.118    0.000    2.824 
#    0.000    0.588    0.000    2.118    0.000    0.000 
#    0.000    0.000    0.000    0.000    0.000    0.000 
#
# Total GULP energy -189594.282881 kJ/mol
# GULP energy per Si atom -5576.302438 kJ/mol
# Density = 1.775508 g / cm^3
# Si number density = 17.795586 Si / 1000 Ang^3
#
#
#
# Elastic Constant Matrix: (Units=GPa)
#
#
# Indices 1 2 3 4 5 6 
#
# 1 65.0133 50.9639 37.2426 0.0000 0.0000 0.0000
# 2 50.9639 150.0956 52.5012 0.0000 0.0000 0.0000
# 3 37.2426 52.5012 72.6655 0.0000 0.0000 0.0000
# 4 0.0000 0.0000 0.0000 18.8842 0.0000 0.0000
# 5 0.0000 0.0000 0.0000 0.0000 21.7782 0.0000
# 6 0.0000 0.0000 0.0000 0.0000 0.0000 24.2101
#
#
#
# Elastic Compliance Matrix: (Units=1/GPa)
#
#
# Indices 1 2 3 4 5 6 
#
# 1 0.024530 -0.005261 -0.008771 0.000000 0.000000 0.000000
# 2 -0.005261 0.010044 -0.004560 0.000000 0.000000 0.000000
# 3 -0.008771 -0.004560 0.021552 0.000000 0.000000 0.000000
# 4 0.000000 0.000000 0.000000 0.052954 0.000000 0.000000
# 5 0.000000 0.000000 0.000000 0.000000 0.045917 0.000000
# 6 0.000000 0.000000 0.000000 0.000000 0.000000 0.041305
#
#
# Mechanical properties :
#
#
# Convention : Reuss Voigt Hill
#
# Bulk Modulus (GPa) = 52.79561 63.24332 58.01946
# Shear Modulus (GPa) = 20.85061 22.77896 21.81478
#
# Velocity S-wave (km/s) = 3.42668 3.58164 3.50502
# Velocity P-wave (km/s) = 6.73709 7.26086 7.00388
#
# Compressibility (1/GPa) = 0.01894097
#
# Stress axis : x y z
#
# Youngs Moduli (GPa) = 40.76641 99.56270 46.39959
#
# Poissons Ratio (x) = 0.52380 0.40697
# Poissons Ratio (y) = 0.21447 0.21160
# Poissons Ratio (z) = 0.35756 0.45405
#
# Static dielectric constant tensor:
#      x y z
#    x 1.605710 0.000000 0.000000 
#    y 0.000000 1.603910 0.000000 
#    z 0.000000 0.000000 1.608460 
# 
# From -- ./inp_files/22746.got.cif
#   From: 2010.05.17/outbox.cif.g08.bks.cpg/sg65_12_cif.got.tgz:22746.got - 2010.06.03 17:01:31.
