data_PCOD9488645
_publ_section_title
;
Structure prediction by ZEFSAII (Michael W. Deem and Ramdas Pophale) SiO2 
 PCOD9488645
Probable space group: C M M M
;
_chemical_formula_sum "Si O2"
_cell_formula_units_Z 96
_cell_length_a 9.368376
_cell_length_b 29.304031
_cell_length_c 18.472304
_cell_angle_alpha 90.000000
_cell_angle_beta 90.000000
_cell_angle_gamma 90.000000
_cell_volume 5071.223428
_symmetry_space_group_name_H-M "C M M M"
_symmetry_group_IT_number 65
_symmetry_cell_setting 'orthorhombic'
loop_
_space_group_symop_operation_xyz
x,y,z
-x,-y,z
x,-y,-z
-x,y,-z
-x,-y,-z
x,y,-z
-x,y,z
x,-y,z
1/2+x,1/2+y,z
1/2-x,1/2-y,z
1/2+x,1/2-y,-z
1/2-x,1/2+y,-z
1/2-x,1/2-y,-z
1/2+x,1/2+y,-z
1/2-x,1/2+y,z
1/2+x,1/2-y,z
loop_
_atom_site_type_symbol
_atom_site_label
_atom_site_fract_x
_atom_site_fract_y
_atom_site_fract_z
Si Si1 0.329609 0.131908 0.656352
Si Si2 0.659652 0.707717 0.585233
Si Si3 0.168553 0.054396 0.415644
Si Si4 0.333965 0.449617 0.087988
Si Si5 0.670554 0.797533 0.214737
Si Si6 0.170942 0.640685 0.083806
O O1 0.500000 0.129798 0.648589
O O2 0.252603 0.163033 0.596511
O O3 0.259617 0.082828 0.642212
O O4 0.297233 0.161308 0.728769
O O5 0.643938 0.715368 0.500000
O O6 0.500000 0.704451 0.616757
O O7 0.750000 0.750000 0.615183
O O8 0.208329 0.064611 0.500000
O O9 0.000000 0.065596 0.408144
O O10 0.184345 0.000000 0.406126
O O11 0.500000 0.444234 0.108296
O O12 0.284959 0.500000 0.112538
O O13 0.242559 0.406236 0.110709
O O14 0.328521 0.450200 0.000000
O O15 0.500000 0.789936 0.218842
O O16 0.750000 0.750000 0.227098
O O17 0.708848 0.817774 0.136045
O O18 0.000000 0.635082 0.086478
O O19 0.212321 0.648293 0.000000
#
# Coordination Sequence:
#
# PCOD9488645 Si02
#       6
#    16  16  16  16  16  16
#     4  11  22  35  53  77 107 141 176 215 261 316
#     4  10  20  33  50  74 104 136 172 214 256 300
#     4   9  19  37  60  85 113 145 182 223 263 305
#     4   8  14  26  46  74 106 134 161 199 248 303
#     4  10  23  40  55  76 105 137 176 223 275 328
#     4   9  18  34  55  77 102 134 176 225 275 329
#
# _framework density 18.930343000000001
#
# number of rings (size 3 to 8) (size 9 to 14) (size 15 to 20)
#    0.000    2.500    0.000    3.000    0.000    7.667 
#    0.000    3.333    0.000    5.000    0.000    0.000 
#    0.000    0.000    0.000    0.000    0.000    0.000 
#
# Total GULP energy -267529.768942 kJ/mol
# GULP energy per Si atom -5573.536853 kJ/mol
# Density = 1.888726 g / cm^3
# Si number density = 18.930343 Si / 1000 Ang^3
#
#
#
# Elastic Constant Matrix: (Units=GPa)
#
#
# Indices 1 2 3 4 5 6 
#
# 1 62.1978 53.5043 43.3718 0.0000 0.0000 0.0000
# 2 53.5043 108.5558 56.6052 0.0000 0.0000 0.0000
# 3 43.3718 56.6052 70.0852 0.0000 0.0000 0.0000
# 4 0.0000 0.0000 0.0000 17.2949 0.0000 0.0000
# 5 0.0000 0.0000 0.0000 0.0000 10.6190 0.0000
# 6 0.0000 0.0000 0.0000 0.0000 0.0000 36.6552
#
#
#
# Elastic Compliance Matrix: (Units=1/GPa)
#
#
# Indices 1 2 3 4 5 6 
#
# 1 0.033416 -0.009824 -0.012744 0.000000 0.000000 0.000000
# 2 -0.009824 0.018802 -0.009106 0.000000 0.000000 0.000000
# 3 -0.012744 -0.009106 0.029510 0.000000 0.000000 0.000000
# 4 0.000000 0.000000 0.000000 0.057821 0.000000 0.000000
# 5 0.000000 0.000000 0.000000 0.000000 0.094171 0.000000
# 6 0.000000 0.000000 0.000000 0.000000 0.000000 0.027281
#
#
# Mechanical properties :
#
#
# Convention : Reuss Voigt Hill
#
# Bulk Modulus (GPa) = 54.41255 60.86682 57.63968
# Shear Modulus (GPa) = 15.12963 18.73765 16.93364
#
# Velocity S-wave (km/s) = 2.83013 3.14956 2.99410
# Velocity P-wave (km/s) = 6.28374 6.74160 6.51669
#
# Compressibility (1/GPa) = 0.01837811
#
# Stress axis : x y z
#
# Youngs Moduli (GPa) = 29.92590 53.18479 33.88689
#
# Poissons Ratio (x) = 0.52251 0.43187
# Poissons Ratio (y) = 0.29400 0.30858
# Poissons Ratio (z) = 0.38139 0.48431
#
# Static dielectric constant tensor:
#      x y z
#    x 1.649250 0.000000 0.000000 
#    y 0.000000 1.704770 0.000000 
#    z 0.000000 0.000000 1.701950 
# 
# From -- ./inp_files/60233.got.cif
#   From: 2010.05.17/outbox.cif.g08.bks.cpg/sg65_31_cif.got.tgz:60233.got - 2010.06.03 17:01:31.
