data_PCOD9488058
_publ_section_title
;
Structure prediction by ZEFSAII (Michael W. Deem and Ramdas Pophale) SiO2 
 PCOD9488058
Probable space group: C M M M
;
_chemical_formula_sum "Si O2"
_cell_formula_units_Z 72
_cell_length_a 29.104673
_cell_length_b 16.395579
_cell_length_c 9.329483
_cell_angle_alpha 90.000000
_cell_angle_beta 90.000000
_cell_angle_gamma 90.000000
_cell_volume 4451.917011
_symmetry_space_group_name_H-M "C M M M"
_symmetry_group_IT_number 65
_symmetry_cell_setting 'orthorhombic'
loop_
_space_group_symop_operation_xyz
x,y,z
-x,-y,z
x,-y,-z
-x,y,-z
-x,-y,-z
x,y,-z
-x,y,z
x,-y,z
1/2+x,1/2+y,z
1/2-x,1/2-y,z
1/2+x,1/2-y,-z
1/2-x,1/2+y,-z
1/2-x,1/2-y,-z
1/2+x,1/2+y,-z
1/2-x,1/2+y,z
1/2+x,1/2-y,z
loop_
_atom_site_type_symbol
_atom_site_label
_atom_site_fract_x
_atom_site_fract_y
_atom_site_fract_z
Si Si1 0.275014 0.338512 0.662416
Si Si2 0.140210 0.736940 0.671937
Si Si3 0.446601 0.664067 0.328683
Si Si4 0.555779 0.500000 0.836489
Si Si5 0.307236 0.093427 0.829963
O O1 0.274851 0.371523 0.500000
O O2 0.250000 0.250000 0.658125
O O3 0.326426 0.313937 0.706368
O O4 0.243774 0.391733 0.766165
O O5 0.144710 0.723806 0.500000
O O6 0.088437 0.763210 0.705852
O O7 0.159394 0.658307 0.753482
O O8 0.443819 0.649793 0.500000
O O9 0.500000 0.681486 0.293906
O O10 0.431650 0.582122 0.247272
O O11 0.500000 0.500000 0.839320
O O12 0.572362 0.500000 0.000000
O O13 0.320938 0.000000 0.802466
O O14 0.306834 0.107796 0.000000
#
# Coordination Sequence:
#
# PCOD9488058 Si02
#       5
#    16  16  16   8  16
#     4   8  15  29  47  66  89 117 151 190 230 274
#     4   9  18  32  50  72  95 122 160 197 233 280
#     4   9  17  31  51  72  96 126 159 197 238 278
#     4   9  17  29  45  67  95 125 157 191 229 277
#     4  10  20  32  47  69  96 125 158 194 235 284
#
# _framework density 16.172809000000001
#
# number of rings (size 3 to 8) (size 9 to 14) (size 15 to 20)
#    0.000    3.000    0.000    2.333    0.000    8.000 
#    2.000    0.000    0.000    0.667    0.000    4.667 
#    0.000    0.000    0.000    0.000    0.000    0.000 
#
# Total GULP energy -200445.312041 kJ/mol
# GULP energy per Si atom -5567.925334 kJ/mol
# Density = 1.613600 g / cm^3
# Si number density = 16.172809 Si / 1000 Ang^3
#
#
#
# Elastic Constant Matrix: (Units=GPa)
#
#
# Indices 1 2 3 4 5 6 
#
# 1 93.8814 52.8298 45.8650 0.0000 0.0000 0.0000
# 2 52.8298 93.3184 62.3484 0.0000 0.0000 0.0000
# 3 45.8650 62.3484 62.5461 0.0000 0.0000 0.0000
# 4 0.0000 0.0000 0.0000 24.6066 0.0000 0.0000
# 5 0.0000 0.0000 0.0000 0.0000 10.8932 0.0000
# 6 0.0000 0.0000 0.0000 0.0000 0.0000 20.2001
#
#
#
# Elastic Compliance Matrix: (Units=1/GPa)
#
#
# Indices 1 2 3 4 5 6 
#
# 1 0.017057 -0.003891 -0.008629 0.000000 0.000000 0.000000
# 2 -0.003891 0.032973 -0.030015 0.000000 0.000000 0.000000
# 3 -0.008629 -0.030015 0.052236 0.000000 0.000000 0.000000
# 4 0.000000 0.000000 0.000000 0.040640 0.000000 0.000000
# 5 0.000000 0.000000 0.000000 0.000000 0.091801 0.000000
# 6 0.000000 0.000000 0.000000 0.000000 0.000000 0.049505
#
#
# Mechanical properties :
#
#
# Convention : Reuss Voigt Hill
#
# Bulk Modulus (GPa) = 58.15566 63.53693 60.84630
# Shear Modulus (GPa) = 13.33284 17.05348 15.19316
#
# Velocity S-wave (km/s) = 2.87435 3.25076 3.06833
# Velocity P-wave (km/s) = 6.85951 7.31173 7.08923
#
# Compressibility (1/GPa) = 0.01719523
#
# Stress axis : x y z
#
# Youngs Moduli (GPa) = 58.62667 30.32804 19.14373
#
# Poissons Ratio (x) = 0.11801 0.16520
# Poissons Ratio (y) = 0.22812 0.57460
# Poissons Ratio (z) = 0.50590 0.91030
#
# Static dielectric constant tensor:
#      x y z
#    x 1.571970 0.000000 0.000000 
#    y 0.000000 1.523730 0.000000 
#    z 0.000000 0.000000 1.543410 
# 
# From -- ./inp_files/17989.got.cif
#   From: 2010.05.17/outbox.cif.g08.bks.cpg/sg65_9_cif.got.tgz:17989.got - 2010.06.03 17:01:31.
