data_PCOD9488062
_publ_section_title
;
Structure prediction by ZEFSAII (Michael W. Deem and Ramdas Pophale) SiO2 
 PCOD9488062
Probable space group: C M M M
;
_chemical_formula_sum "Si O2"
_cell_formula_units_Z 120
_cell_length_a 27.739222
_cell_length_b 8.018057
_cell_length_c 28.920722
_cell_angle_alpha 90.000000
_cell_angle_beta 90.000000
_cell_angle_gamma 90.000000
_cell_volume 6432.392641
_symmetry_space_group_name_H-M "C M M M"
_symmetry_group_IT_number 65
_symmetry_cell_setting 'orthorhombic'
loop_
_space_group_symop_operation_xyz
x,y,z
-x,-y,z
x,-y,-z
-x,y,-z
-x,-y,-z
x,y,-z
-x,y,z
x,-y,z
1/2+x,1/2+y,z
1/2-x,1/2-y,z
1/2+x,1/2-y,-z
1/2-x,1/2+y,-z
1/2-x,1/2-y,-z
1/2+x,1/2+y,-z
1/2-x,1/2+y,z
1/2+x,1/2-y,z
loop_
_atom_site_type_symbol
_atom_site_label
_atom_site_fract_x
_atom_site_fract_y
_atom_site_fract_z
Si Si1 0.500000 0.300481 0.447420
Si Si2 0.305194 0.301563 0.051258
Si Si3 0.598196 0.201477 0.604488
Si Si4 0.647299 0.799407 0.854826
Si Si5 0.396874 0.203610 0.290779
Si Si6 0.446967 0.796193 0.802365
Si Si7 0.303658 0.798800 0.553531
Si Si8 0.302950 0.799900 0.762934
O O1 0.500000 0.500000 0.448462
O O2 0.500000 0.235717 0.500000
O O3 0.450480 0.246465 0.422654
O O4 0.306580 0.500000 0.049188
O O5 0.250000 0.250000 0.060436
O O6 0.337854 0.248550 0.093961
O O7 0.318384 0.234990 0.000000
O O8 0.594044 0.262092 0.657433
O O9 0.648743 0.259665 0.581290
O O10 0.600835 0.000000 0.605378
O O11 0.595137 0.741241 0.836902
O O12 0.684344 0.739736 0.814912
O O13 0.647294 0.000000 0.853087
O O14 0.433462 0.253493 0.250079
O O15 0.344563 0.256893 0.271875
O O16 0.397673 0.000000 0.291854
O O17 0.500000 0.738776 0.815134
O O18 0.446592 0.000000 0.802810
O O19 0.307132 0.740865 0.500000
O O20 0.250000 0.750000 0.570966
O O21 0.305123 0.000000 0.553437
O O22 0.250000 0.750000 0.748776
O O23 0.305619 0.000000 0.763922
#
# Coordination Sequence:
#
# PCOD9488062 Si02
#       8
#     8  16  16  16  16  16  16  16
#     4  11  25  41  55  75 105 137 165 203 260 315
#     4  10  20  32  47  69  97 128 161 199 244 294
#     4  10  20  35  57  81 102 130 171 213 250 297
#     4   9  17  29  46  70  97 127 164 205 245 286
#     4   8  16  29  46  73 101 124 156 198 242 284
#     4   8  14  26  47  73  98 123 158 202 242 284
#     4   9  18  32  50  73 100 129 164 206 247 290
#     4   9  17  29  44  67 100 133 165 199 236 285
#
# _framework density 18.655578999999999
#
# number of rings (size 3 to 8) (size 9 to 14) (size 15 to 20)
#    0.000    2.867    0.000    3.000    0.933    4.533 
#    0.000    2.000    0.000    1.600    0.000    2.800 
#    0.000    0.000    0.000    0.000    0.000    0.000 
#
# Total GULP energy -334428.527410 kJ/mol
# GULP energy per Si atom -5573.808790 kJ/mol
# Density = 1.861312 g / cm^3
# Si number density = 18.655579 Si / 1000 Ang^3
#
#
#
# Elastic Constant Matrix: (Units=GPa)
#
#
# Indices 1 2 3 4 5 6 
#
# 1 129.4304 5.5019 78.5091 0.0000 0.0000 0.0000
# 2 5.5019 12.3161 9.6746 0.0000 0.0000 0.0000
# 3 78.5091 9.6746 153.0640 0.0000 0.0000 0.0000
# 4 0.0000 0.0000 0.0000 -1.3530 0.0000 0.0000
# 5 0.0000 0.0000 0.0000 0.0000 12.5469 0.0000
# 6 0.0000 0.0000 0.0000 0.0000 0.0000 20.8981
#
#
#
# Elastic Compliance Matrix: (Units=1/GPa)
#
#
# Indices 1 2 3 4 5 6 
#
# 1 0.011219 -0.000517 -0.005722 0.000000 0.000000 0.000000
# 2 -0.000517 0.085461 -0.005136 0.000000 0.000000 0.000000
# 3 -0.005722 -0.005136 0.009793 0.000000 0.000000 0.000000
# 4 0.000000 0.000000 0.000000 -0.739071 0.000000 0.000000
# 5 0.000000 0.000000 0.000000 0.000000 0.079701 0.000000
# 6 0.000000 0.000000 0.000000 0.000000 0.000000 0.047851
#
#
# Mechanical properties :
#
#
# Convention : Reuss Voigt Hill
#
# Bulk Modulus (GPa) = 11.94435 53.57573 32.76004
# Shear Modulus (GPa) = -11.00377 19.82670 4.41147
#
# Velocity S-wave (km/s) = -2.43129 3.26356 1.53942
# Velocity P-wave (km/s) = 1.21042 6.55605 4.55613
#
# Compressibility (1/GPa) = 0.08372159
#
# Stress axis : x y z
#
# Youngs Moduli (GPa) = 89.13688 11.70129 102.11840
#
# Poissons Ratio (x) = 0.00605 0.58428
# Poissons Ratio (y) = 0.04610 0.52452
# Poissons Ratio (z) = 0.51000 0.06010
#
# Static dielectric constant tensor:
#      x y z
#    x 1.632490 0.000000 0.000000 
#    y 0.000000 1.688120 0.000000 
#    z 0.000000 0.000000 1.657050 
# 
# From -- ./inp_files/76142.got.cif
#   From: 2010.05.17/outbox.cif.g08.bks.cpg/sg65_39_cif.got.tgz:76142.got - 2010.06.03 17:01:31.
