data_PCOD9488158
_publ_section_title
;
Structure prediction by ZEFSAII (Michael W. Deem and Ramdas Pophale) SiO2 
 PCOD9488158
Probable space group: C M M M
;
_chemical_formula_sum "Si O2"
_cell_formula_units_Z 116
_cell_length_a 7.601652
_cell_length_b 29.223724
_cell_length_c 28.574902
_cell_angle_alpha 90.000000
_cell_angle_beta 90.000000
_cell_angle_gamma 90.000000
_cell_volume 6347.873903
_symmetry_space_group_name_H-M "C M M M"
_symmetry_group_IT_number 65
_symmetry_cell_setting 'orthorhombic'
loop_
_space_group_symop_operation_xyz
x,y,z
-x,-y,z
x,-y,-z
-x,y,-z
-x,-y,-z
x,y,-z
-x,y,z
x,-y,z
1/2+x,1/2+y,z
1/2-x,1/2-y,z
1/2+x,1/2-y,-z
1/2-x,1/2+y,-z
1/2-x,1/2-y,-z
1/2+x,1/2+y,-z
1/2-x,1/2+y,z
1/2+x,1/2-y,z
loop_
_atom_site_type_symbol
_atom_site_label
_atom_site_fract_x
_atom_site_fract_y
_atom_site_fract_z
Si Si1 0.214736 0.551340 0.788990
Si Si2 0.199569 0.802935 0.076091
Si Si3 0.211497 0.196488 0.447979
Si Si4 0.212226 0.448972 0.319020
Si Si5 0.707658 0.647502 0.355850
Si Si6 0.000000 0.675534 0.000000
Si Si7 0.789883 0.803750 0.738197
Si Si8 0.204739 0.356039 0.167307
O O1 0.268138 0.500000 0.803050
O O2 0.269455 0.558628 0.734944
O O3 0.275357 0.593344 0.820576
O O4 0.000000 0.552291 0.789011
O O5 0.250000 0.750000 0.084724
O O6 0.344484 0.822056 0.040631
O O7 0.204963 0.830186 0.124784
O O8 0.000000 0.803921 0.057337
O O9 0.279052 0.184452 0.500000
O O10 0.250000 0.250000 0.439971
O O11 0.280747 0.167466 0.404233
O O12 0.000000 0.191104 0.449458
O O13 0.270566 0.500000 0.333119
O O14 0.271138 0.406677 0.350050
O O15 0.000000 0.449016 0.318753
O O16 0.500000 0.658061 0.356068
O O17 0.779424 0.671791 0.308951
O O18 0.750000 0.750000 0.736832
O O19 0.716329 0.827158 0.784810
O O20 0.000000 0.809927 0.740196
O O21 0.000000 0.360437 0.154564
#
# Coordination Sequence:
#
# PCOD9488158 Si02
#       8
#    16  16  16  16  16   4  16  16
#     4   8  15  29  52  78 106 141 180 220 263 320
#     4  12  24  39  61  86 117 152 190 240 281 326
#     4   9  18  33  51  71  97 130 174 227 273 319
#     4   9  17  31  51  75 100 132 174 216 259 314
#     4  10  20  32  48  73 101 134 172 217 269 325
#     4  12  24  44  62  90 113 152 199 236 284 328
#     4  11  22  33  46  68 104 142 177 212 259 325
#     4  11  20  35  54  80 113 146 183 220 273 330
#
# _framework density 18.273834999999998
#
# number of rings (size 3 to 8) (size 9 to 14) (size 15 to 20)
#    0.000    1.931    2.759    2.897    0.000    1.379 
#    0.000    0.000    0.000    2.069    0.000    3.862 
#    0.000    1.103    0.000    0.000    0.000    0.000 
#
# Total GULP energy -323215.366538 kJ/mol
# GULP energy per Si atom -5572.678733 kJ/mol
# Density = 1.823224 g / cm^3
# Si number density = 18.273835 Si / 1000 Ang^3
#
#
#
# Elastic Constant Matrix: (Units=GPa)
#
#
# Indices 1 2 3 4 5 6 
#
# 1 78.5907 9.3217 24.3551 0.0000 0.0000 0.0000
# 2 9.3217 66.8947 60.8975 0.0000 0.0000 0.0000
# 3 24.3551 60.8975 139.4197 0.0000 0.0000 0.0000
# 4 0.0000 0.0000 0.0000 7.1979 0.0000 0.0000
# 5 0.0000 0.0000 0.0000 0.0000 102.2429 0.0000
# 6 0.0000 0.0000 0.0000 0.0000 0.0000 8.7284
#
#
#
# Elastic Compliance Matrix: (Units=1/GPa)
#
#
# Indices 1 2 3 4 5 6 
#
# 1 0.013460 0.000440 -0.002543 0.000000 0.000000 0.000000
# 2 0.000440 0.024831 -0.010923 0.000000 0.000000 0.000000
# 3 -0.002543 -0.010923 0.012388 0.000000 0.000000 0.000000
# 4 0.000000 0.000000 0.000000 0.138929 0.000000 0.000000
# 5 0.000000 0.000000 0.000000 0.000000 0.009781 0.000000
# 6 0.000000 0.000000 0.000000 0.000000 0.000000 0.114569
#
#
# Mechanical properties :
#
#
# Convention : Reuss Voigt Hill
#
# Bulk Modulus (GPa) = 40.60716 52.67262 46.63989
# Shear Modulus (GPa) = 14.35875 36.32256 25.34065
#
# Velocity S-wave (km/s) = 2.80617 4.46318 3.72791
# Velocity P-wave (km/s) = 5.72444 7.44625 6.64138
#
# Compressibility (1/GPa) = 0.02462620
#
# Stress axis : x y z
#
# Youngs Moduli (GPa) = 74.29308 40.27181 80.72362
#
# Poissons Ratio (x) = -0.01771 0.20532
# Poissons Ratio (y) = -0.03267 0.88174
# Poissons Ratio (z) = 0.18896 0.43989
#
# Static dielectric constant tensor:
#      x y z
#    x 1.745480 0.000000 0.000000 
#    y 0.000000 1.619310 0.000000 
#    z 0.000000 0.000000 1.617090 
# 
# From -- ./inp_files/74102.got.cif
#   From: 2010.05.17/outbox.cif.g08.bks.cpg/sg65_38_cif.got.tgz:74102.got - 2010.06.03 17:01:31.
