data_PCOD9488611
_publ_section_title
;
Structure prediction by ZEFSAII (Michael W. Deem and Ramdas Pophale) SiO2 
 PCOD9488611
Probable space group: C M M M
;
_chemical_formula_sum "Si O2"
_cell_formula_units_Z 104
_cell_length_a 27.840414
_cell_length_b 8.766698
_cell_length_c 27.446655
_cell_angle_alpha 90.000000
_cell_angle_beta 90.000000
_cell_angle_gamma 90.000000
_cell_volume 6698.863963
_symmetry_space_group_name_H-M "C M M M"
_symmetry_group_IT_number 65
_symmetry_cell_setting 'orthorhombic'
loop_
_space_group_symop_operation_xyz
x,y,z
-x,-y,z
x,-y,-z
-x,y,-z
-x,-y,-z
x,y,-z
-x,y,z
x,-y,z
1/2+x,1/2+y,z
1/2-x,1/2-y,z
1/2+x,1/2-y,-z
1/2-x,1/2+y,-z
1/2-x,1/2-y,-z
1/2+x,1/2+y,-z
1/2-x,1/2+y,z
1/2+x,1/2-y,z
loop_
_atom_site_type_symbol
_atom_site_label
_atom_site_fract_x
_atom_site_fract_y
_atom_site_fract_z
Si Si1 0.646958 0.316542 0.095783
Si Si2 0.698504 0.682428 0.196167
Si Si3 0.803841 0.682534 0.000000
Si Si4 0.944717 0.682850 0.146646
Si Si5 0.944124 0.183442 0.654032
Si Si6 0.899888 0.815018 0.243675
Si Si7 0.442430 0.817947 0.446943
O O1 0.646545 0.500000 0.091376
O O2 0.680857 0.274527 0.141819
O O3 0.668051 0.241622 0.047522
O O4 0.594052 0.258220 0.110547
O O5 0.701827 0.500000 0.197317
O O6 0.750000 0.750000 0.207678
O O7 0.655059 0.727799 0.231827
O O8 0.750000 0.750000 0.000000
O O9 0.801317 0.500000 0.000000
O O10 0.939219 0.500000 0.145502
O O11 0.931811 0.743492 0.200697
O O12 0.000000 0.720677 0.135068
O O13 0.916676 0.232157 0.702761
O O14 0.924024 0.244576 0.602836
O O15 0.000000 0.231877 0.658506
O O16 0.943387 0.000000 0.652327
O O17 0.903877 0.000000 0.239941
O O18 0.423946 0.764319 0.500000
O O19 0.500000 0.788850 0.447288
O O20 0.436013 0.000000 0.444661
#
# Coordination Sequence:
#
# PCOD9488611 Si02
#       7
#    16  16   8  16  16  16  16
#     4  10  21  37  55  75  98 126 159 191 229 276
#     4   9  18  31  48  68  90 117 147 181 221 267
#     4  12  24  38  57  80 105 128 154 193 237 279
#     4  10  20  33  50  73  99 126 157 193 231 271
#     4   9  16  25  39  59  83 113 149 187 221 255
#     4   9  18  31  45  64  91 122 155 188 225 272
#     4   8  14  24  36  51  76 111 146 179 218 263
#
# _framework density 15.525021000000001
#
# number of rings (size 3 to 8) (size 9 to 14) (size 15 to 20)
#    0.000    2.615    0.000    3.923    0.000    7.077 
#    0.000    3.462    0.000    2.308    0.000    0.000 
#    0.000    0.615    0.000    1.385    0.000    2.462 
#
# Total GULP energy -289809.761796 kJ/mol
# GULP energy per Si atom -5573.264650 kJ/mol
# Density = 1.548969 g / cm^3
# Si number density = 15.525021 Si / 1000 Ang^3
#
#
#
# Elastic Constant Matrix: (Units=GPa)
#
#
# Indices 1 2 3 4 5 6 
#
# 1 95.4199 31.6483 65.5817 0.0000 0.0000 0.0000
# 2 31.6483 35.7391 41.8288 0.0000 0.0000 0.0000
# 3 65.5817 41.8288 156.5035 0.0000 0.0000 0.0000
# 4 0.0000 0.0000 0.0000 24.1351 0.0000 0.0000
# 5 0.0000 0.0000 0.0000 0.0000 14.5737 0.0000
# 6 0.0000 0.0000 0.0000 0.0000 0.0000 24.0325
#
#
#
# Elastic Compliance Matrix: (Units=1/GPa)
#
#
# Indices 1 2 3 4 5 6 
#
# 1 0.016717 -0.009611 -0.004436 0.000000 0.000000 0.000000
# 2 -0.009611 0.046243 -0.008332 0.000000 0.000000 0.000000
# 3 -0.004436 -0.008332 0.010476 0.000000 0.000000 0.000000
# 4 0.000000 0.000000 0.000000 0.041433 0.000000 0.000000
# 5 0.000000 0.000000 0.000000 0.000000 0.068617 0.000000
# 6 0.000000 0.000000 0.000000 0.000000 0.000000 0.041610
#
#
# Mechanical properties :
#
#
# Convention : Reuss Voigt Hill
#
# Bulk Modulus (GPa) = 34.87144 62.86448 48.86796
# Shear Modulus (GPa) = 17.89460 22.45517 20.17489
#
# Velocity S-wave (km/s) = 3.39872 3.80726 3.60878
# Velocity P-wave (km/s) = 6.15727 7.73998 6.99354
#
# Compressibility (1/GPa) = 0.02867676
#
# Stress axis : x y z
#
# Youngs Moduli (GPa) = 59.82009 21.62475 95.46067
#
# Poissons Ratio (x) = 0.20784 0.42349
# Poissons Ratio (y) = 0.57494 0.79538
# Poissons Ratio (z) = 0.26538 0.18018
#
# Static dielectric constant tensor:
#      x y z
#    x 1.502530 0.000000 0.000000 
#    y 0.000000 1.523980 0.000000 
#    z 0.000000 0.000000 1.526410 
# 
# From -- ./inp_files/76012.got.cif
#   From: 2010.05.17/outbox.cif.g08.bks.cpg/sg65_39_cif.got.tgz:76012.got - 2010.06.03 17:01:31.
