data_PCOD9488131
_publ_section_title
;
Structure prediction by ZEFSAII (Michael W. Deem and Ramdas Pophale) SiO2 
 PCOD9488131
Probable space group: C M M M
;
_chemical_formula_sum "Si O2"
_cell_formula_units_Z 88
_cell_length_a 8.888724
_cell_length_b 19.084309
_cell_length_c 29.678871
_cell_angle_alpha 90.000000
_cell_angle_beta 90.000000
_cell_angle_gamma 90.000000
_cell_volume 5034.579895
_symmetry_space_group_name_H-M "C M M M"
_symmetry_group_IT_number 65
_symmetry_cell_setting 'orthorhombic'
loop_
_space_group_symop_operation_xyz
x,y,z
-x,-y,z
x,-y,-z
-x,y,-z
-x,-y,-z
x,y,-z
-x,y,z
x,-y,z
1/2+x,1/2+y,z
1/2-x,1/2-y,z
1/2+x,1/2-y,-z
1/2-x,1/2+y,-z
1/2-x,1/2-y,-z
1/2+x,1/2+y,-z
1/2-x,1/2+y,z
1/2+x,1/2-y,z
loop_
_atom_site_type_symbol
_atom_site_label
_atom_site_fract_x
_atom_site_fract_y
_atom_site_fract_z
Si Si1 0.819886 0.171677 0.639019
Si Si2 0.679908 0.917602 0.817360
Si Si3 0.179353 0.172727 0.738475
Si Si4 0.819178 0.582769 0.079623
Si Si5 0.680040 0.171547 0.450564
Si Si6 0.179148 0.827142 0.000000
O O1 0.750000 0.250000 0.640585
O O2 0.784389 0.141790 0.688604
O O3 0.749672 0.137379 0.594267
O O4 0.000000 0.175944 0.634049
O O5 0.500000 0.908384 0.813407
O O6 0.760481 0.873515 0.779156
O O7 0.721345 0.898515 0.868806
O O8 0.712435 0.000000 0.811898
O O9 0.250000 0.250000 0.741466
O O10 0.000000 0.179165 0.740905
O O11 0.786420 0.500000 0.072866
O O12 0.000000 0.590794 0.074747
O O13 0.736140 0.630085 0.043492
O O14 0.712920 0.139681 0.500000
O O15 0.500000 0.176713 0.445852
O O16 0.750000 0.250000 0.451980
O O17 0.250000 0.750000 0.000000
O O18 0.000000 0.822262 0.000000
#
# Coordination Sequence:
#
# PCOD9488131 Si02
#       6
#    16  16  16  16  16   8
#     4   9  16  25  37  55  81 115 154 192 235 286
#     4   9  19  36  57  79 102 131 167 205 247 296
#     4  10  20  32  48  71  99 132 167 205 249 296
#     4   9  19  38  61  81 104 135 168 204 249 298
#     4   9  15  21  31  49  74 107 147 189 234 283
#     4  12  25  38  55  81 111 141 173 208 247 290
#
# _framework density 17.479115
#
# number of rings (size 3 to 8) (size 9 to 14) (size 15 to 20)
#    0.000    2.545    0.000    4.909    0.000    6.545 
#    0.000    1.818    0.000    0.000    0.000    0.000 
#    0.000    0.727    0.000    8.000    0.000    8.909 
#
# Total GULP energy -245177.370953 kJ/mol
# GULP energy per Si atom -5572.212976 kJ/mol
# Density = 1.743933 g / cm^3
# Si number density = 17.479115 Si / 1000 Ang^3
#
#
#
# Elastic Constant Matrix: (Units=GPa)
#
#
# Indices 1 2 3 4 5 6 
#
# 1 76.9115 39.6537 89.2509 0.0000 0.0000 0.0000
# 2 39.6537 39.7391 76.9349 0.0000 0.0000 0.0000
# 3 89.2509 76.9349 215.6276 0.0000 0.0000 0.0000
# 4 0.0000 0.0000 0.0000 -78.4711 0.0000 0.0000
# 5 0.0000 0.0000 0.0000 0.0000 31.3996 0.0000
# 6 0.0000 0.0000 0.0000 0.0000 0.0000 21.5788
#
#
#
# Elastic Compliance Matrix: (Units=1/GPa)
#
#
# Indices 1 2 3 4 5 6 
#
# 1 0.028566 -0.018153 -0.005347 0.000000 0.000000 0.000000
# 2 -0.018153 0.092909 -0.025636 0.000000 0.000000 0.000000
# 3 -0.005347 -0.025636 0.015997 0.000000 0.000000 0.000000
# 4 0.000000 0.000000 0.000000 -0.012744 0.000000 0.000000
# 5 0.000000 0.000000 0.000000 0.000000 0.031847 0.000000
# 6 0.000000 0.000000 0.000000 0.000000 0.000000 0.046342
#
#
# Mechanical properties :
#
#
# Convention : Reuss Voigt Hill
#
# Bulk Modulus (GPa) = 25.50946 82.66190 54.08568
# Shear Modulus (GPa) = 15.91057 3.33070 9.62064
#
# Velocity S-wave (km/s) = 3.02033 1.38191 2.34862
# Velocity P-wave (km/s) = 5.17582 7.06687 6.19394
#
# Compressibility (1/GPa) = 0.03920114
#
# Stress axis : x y z
#
# Youngs Moduli (GPa) = 35.00673 10.76322 62.50986
#
# Poissons Ratio (x) = 0.19538 0.33423
# Poissons Ratio (y) = 0.63548 1.60249
# Poissons Ratio (z) = 0.18718 0.27592
#
# Static dielectric constant tensor:
#      x y z
#    x 1.578100 0.000000 0.000000 
#    y 0.000000 1.560280 0.000000 
#    z 0.000000 0.000000 1.653320 
# 
# From -- ./inp_files/76649.got.cif
#   From: 2010.05.17/outbox.cif.g08.bks.cpg/sg65_39_cif.got.tgz:76649.got - 2010.06.03 17:01:31.
