data_PCOD9488767
_publ_section_title
;
Structure prediction by ZEFSAII (Michael W. Deem and Ramdas Pophale) SiO2 
 PCOD9488767
Probable space group: C M M M
;
_chemical_formula_sum "Si O2"
_cell_formula_units_Z 120
_cell_length_a 8.831362
_cell_length_b 28.220766
_cell_length_c 27.138837
_cell_angle_alpha 90.000000
_cell_angle_beta 90.000000
_cell_angle_gamma 90.000000
_cell_volume 6763.752653
_symmetry_space_group_name_H-M "C M M M"
_symmetry_group_IT_number 65
_symmetry_cell_setting 'orthorhombic'
loop_
_space_group_symop_operation_xyz
x,y,z
-x,-y,z
x,-y,-z
-x,y,-z
-x,-y,-z
x,y,-z
-x,y,z
x,-y,z
1/2+x,1/2+y,z
1/2-x,1/2-y,z
1/2+x,1/2-y,-z
1/2-x,1/2+y,-z
1/2-x,1/2-y,-z
1/2+x,1/2+y,-z
1/2-x,1/2+y,z
1/2+x,1/2-y,z
loop_
_atom_site_type_symbol
_atom_site_label
_atom_site_fract_x
_atom_site_fract_y
_atom_site_fract_z
Si Si1 0.681872 0.300207 0.057267
Si Si2 0.317312 0.399096 0.096969
Si Si3 0.673594 0.056551 0.000000
Si Si4 0.682968 0.444410 0.200664
Si Si5 0.318188 0.101277 0.297561
Si Si6 0.182687 0.644279 0.555316
Si Si7 0.181733 0.300941 0.347279
Si Si8 0.681770 0.554299 0.393995
O O1 0.500000 0.297091 0.058178
O O2 0.750000 0.250000 0.072009
O O3 0.728986 0.344262 0.090799
O O4 0.726264 0.309611 0.000000
O O5 0.500000 0.401039 0.095021
O O6 0.269491 0.422984 0.147973
O O7 0.254600 0.425414 0.049137
O O8 0.500000 0.073244 0.000000
O O9 0.675565 0.000000 0.000000
O O10 0.500000 0.440769 0.204194
O O11 0.722461 0.500000 0.203429
O O12 0.756979 0.416098 0.245441
O O13 0.500000 0.097449 0.299879
O O14 0.277042 0.155729 0.310857
O O15 0.246883 0.068973 0.340628
O O16 0.225109 0.658632 0.500000
O O17 0.229711 0.680758 0.598223
O O18 0.251691 0.593221 0.568818
O O19 0.000000 0.640411 0.557975
O O20 0.250000 0.250000 0.335549
O O21 0.000000 0.297026 0.347110
O O22 0.500000 0.557755 0.393076
O O23 0.723049 0.500000 0.405705
#
# Coordination Sequence:
#
# PCOD9488767 Si02
#       8
#    16  16   8  16  16  16  16  16
#     4   9  17  31  52  77 102 133 175 216 255 302
#     4  10  20  37  57  78 106 143 182 217 258 316
#     4  11  23  35  50  77 110 141 176 219 264 311
#     4  10  21  36  56  82 109 139 177 219 263 312
#     4  10  21  37  56  78 105 137 174 218 267 322
#     4   9  19  35  52  74 108 145 180 218 261 316
#     4   9  19  35  55  79 104 135 176 218 264 315
#     4  10  20  33  51  76 105 137 178 226 269 313
#
# _framework density 17.741631000000002
#
# number of rings (size 3 to 8) (size 9 to 14) (size 15 to 20)
#    0.000    2.333    0.667    2.600    0.000    8.533 
#    0.000    2.000    0.000    3.200    0.000    0.000 
#    0.000    0.000    0.000    0.000    0.000    0.000 
#
# Total GULP energy -334777.653477 kJ/mol
# GULP energy per Si atom -5579.627558 kJ/mol
# Density = 1.770125 g / cm^3
# Si number density = 17.741631 Si / 1000 Ang^3
#
#
#
# Elastic Constant Matrix: (Units=GPa)
#
#
# Indices 1 2 3 4 5 6 
#
# 1 12.7139 26.9322 23.1249 0.0000 0.0000 0.0000
# 2 26.9322 123.7398 52.4416 0.0000 0.0000 0.0000
# 3 23.1249 52.4416 117.0345 0.0000 0.0000 0.0000
# 4 0.0000 0.0000 0.0000 12.0402 0.0000 0.0000
# 5 0.0000 0.0000 0.0000 0.0000 27.5993 0.0000
# 6 0.0000 0.0000 0.0000 0.0000 0.0000 30.2491
#
#
#
# Elastic Compliance Matrix: (Units=1/GPa)
#
#
# Indices 1 2 3 4 5 6 
#
# 1 0.184996 -0.030580 -0.022851 0.000000 0.000000 0.000000
# 2 -0.030580 0.015031 -0.000693 0.000000 0.000000 0.000000
# 3 -0.022851 -0.000693 0.013370 0.000000 0.000000 0.000000
# 4 0.000000 0.000000 0.000000 0.083055 0.000000 0.000000
# 5 0.000000 0.000000 0.000000 0.000000 0.036233 0.000000
# 6 0.000000 0.000000 0.000000 0.000000 0.000000 0.033059
#
#
# Mechanical properties :
#
#
# Convention : Reuss Voigt Hill
#
# Bulk Modulus (GPa) = 9.51030 50.94285 30.22657
# Shear Modulus (GPa) = 9.82237 24.04367 16.93302
#
# Velocity S-wave (km/s) = 2.35550 3.68531 3.09273
# Velocity P-wave (km/s) = 3.57350 6.84725 5.46144
#
# Compressibility (1/GPa) = 0.10514915
#
# Stress axis : x y z
#
# Youngs Moduli (GPa) = 5.40551 66.52942 74.79407
#
# Poissons Ratio (x) = 2.03450 1.70911
# Poissons Ratio (y) = 0.16530 0.05181
# Poissons Ratio (z) = 0.12352 0.04609
#
# Static dielectric constant tensor:
#      x y z
#    x 1.602160 0.000000 0.000000 
#    y 0.000000 1.596350 0.000000 
#    z 0.000000 0.000000 1.592530 
# 
# From -- ./inp_files/73951.got.cif
#   From: 2010.05.17/outbox.cif.g08.bks.cpg/sg65_37_cif.got.tgz:73951.got - 2010.06.03 17:01:31.
