data_PCOD9488733
_publ_section_title
;
Structure prediction by ZEFSAII (Michael W. Deem and Ramdas Pophale) SiO2 
 PCOD9488733
Probable space group: C M M M
;
_chemical_formula_sum "Si O2"
_cell_formula_units_Z 100
_cell_length_a 20.676397
_cell_length_b 7.632111
_cell_length_c 32.956085
_cell_angle_alpha 90.000000
_cell_angle_beta 90.000000
_cell_angle_gamma 90.000000
_cell_volume 5200.620393
_symmetry_space_group_name_H-M "C M M M"
_symmetry_group_IT_number 65
_symmetry_cell_setting 'orthorhombic'
loop_
_space_group_symop_operation_xyz
x,y,z
-x,-y,z
x,-y,-z
-x,y,-z
-x,-y,-z
x,y,-z
-x,y,z
x,-y,z
1/2+x,1/2+y,z
1/2-x,1/2-y,z
1/2+x,1/2-y,-z
1/2-x,1/2+y,-z
1/2-x,1/2-y,-z
1/2+x,1/2+y,-z
1/2-x,1/2+y,z
1/2+x,1/2-y,z
loop_
_atom_site_type_symbol
_atom_site_label
_atom_site_fract_x
_atom_site_fract_y
_atom_site_fract_z
Si Si1 0.178422 0.700751 0.069416
Si Si2 0.337749 0.500000 0.000000
Si Si3 0.072704 0.290226 0.545380
Si Si4 0.426314 0.713937 0.229189
Si Si5 0.324178 0.289162 0.704665
Si Si6 0.925329 0.787690 0.136440
Si Si7 0.676690 0.706509 0.613534
O O1 0.181017 0.500000 0.053620
O O2 0.250000 0.750000 0.085264
O O3 0.125054 0.713117 0.104471
O O4 0.163278 0.844580 0.035221
O O5 0.090394 0.225883 0.500000
O O6 0.068940 0.500000 0.542919
O O7 0.124577 0.253153 0.579818
O O8 0.000000 0.225288 0.554957
O O9 0.500000 0.767166 0.238661
O O10 0.425657 0.500000 0.229329
O O11 0.375014 0.776806 0.262226
O O12 0.411420 0.766232 0.182877
O O13 0.331058 0.500000 0.703739
O O14 0.250000 0.250000 0.715615
O O15 0.335071 0.218924 0.658846
O O16 0.000000 0.739666 0.127296
O O17 0.921639 0.000000 0.134623
O O18 0.673752 0.500000 0.618113
O O19 0.750000 0.750000 0.601104
#
# Coordination Sequence:
#
# PCOD9488733 Si02
#       7
#    16   4  16  16  16  16  16
#     4  12  24  39  64  91 118 156 195 239 290 340
#     4  12  24  44  63  92 121 154 196 240 292 344
#     4   9  19  36  55  74  99 133 172 218 273 331
#     4   8  15  30  55  80 106 144 183 220 268 323
#     4   9  18  32  50  76 107 141 178 221 268 321
#     4   9  18  37  60  84 117 153 190 234 281 333
#     4  10  20  33  51  75 106 141 179 223 271 323
#
# _framework density 19.228475
#
# number of rings (size 3 to 8) (size 9 to 14) (size 15 to 20)
#    0.000    2.400    1.600    2.400    0.000    3.200 
#    0.000    5.600    0.000    2.400    0.000    0.000 
#    0.000    0.000    0.000    0.000    0.000    0.000 
#
# Total GULP energy -278354.384209 kJ/mol
# GULP energy per Si atom -5567.087684 kJ/mol
# Density = 1.918471 g / cm^3
# Si number density = 19.228475 Si / 1000 Ang^3
#
#
#
# Elastic Constant Matrix: (Units=GPa)
#
#
# Indices 1 2 3 4 5 6 
#
# 1 146.7765 26.3555 137.6542 0.0000 0.0000 0.0000
# 2 26.3555 88.5512 29.3598 0.0000 0.0000 0.0000
# 3 137.6542 29.3598 152.1438 0.0000 0.0000 0.0000
# 4 0.0000 0.0000 0.0000 13.6337 0.0000 0.0000
# 5 0.0000 0.0000 0.0000 0.0000 -145.8040 0.0000
# 6 0.0000 0.0000 0.0000 0.0000 0.0000 18.1299
#
#
#
# Elastic Compliance Matrix: (Units=1/GPa)
#
#
# Indices 1 2 3 4 5 6 
#
# 1 0.044981 0.000113 -0.040719 0.000000 0.000000 0.000000
# 2 0.000113 0.012065 -0.002430 0.000000 0.000000 0.000000
# 3 -0.040719 -0.002430 0.043883 0.000000 0.000000 0.000000
# 4 0.000000 0.000000 0.000000 0.073348 0.000000 0.000000
# 5 0.000000 0.000000 0.000000 0.000000 -0.006859 0.000000
# 6 0.000000 0.000000 0.000000 0.000000 0.000000 0.055157
#
#
# Mechanical properties :
#
#
# Convention : Reuss Voigt Hill
#
# Bulk Modulus (GPa) = 67.31297 86.02339 76.66818
# Shear Modulus (GPa) = 15.94376 -9.86794 3.03791
#
# Velocity S-wave (km/s) = 2.88266 -2.26784 1.25831
# Velocity P-wave (km/s) = 6.79430 6.16256 6.48613
#
# Compressibility (1/GPa) = 0.01485598
#
# Stress axis : x y z
#
# Youngs Moduli (GPa) = 22.23138 82.88358 22.78775
#
# Poissons Ratio (x) = -0.00937 0.92790
# Poissons Ratio (y) = -0.00251 0.05539
# Poissons Ratio (z) = 0.90525 0.20145
#
# Static dielectric constant tensor:
#      x y z
#    x 1.636900 0.000000 0.000000 
#    y 0.000000 1.711000 0.000000 
#    z 0.000000 0.000000 1.673070 
# 
# From -- ./inp_files/78218.got.cif
#   From: 2010.05.17/outbox.cif.g08.bks.cpg/sg65_40_cif.got.tgz:78218.got - 2010.06.03 17:01:31.
