data_PCOD9488975
_publ_section_title
;
Structure prediction by ZEFSAII (Michael W. Deem and Ramdas Pophale) SiO2 
 PCOD9488975
Probable space group: C M M M
;
_chemical_formula_sum "Si O2"
_cell_formula_units_Z 88
_cell_length_a 20.051262
_cell_length_b 13.608115
_cell_length_c 17.649173
_cell_angle_alpha 90.000000
_cell_angle_beta 90.000000
_cell_angle_gamma 90.000000
_cell_volume 4815.751213
_symmetry_space_group_name_H-M "C M M M"
_symmetry_group_IT_number 65
_symmetry_cell_setting 'orthorhombic'
loop_
_space_group_symop_operation_xyz
x,y,z
-x,-y,z
x,-y,-z
-x,y,-z
-x,-y,-z
x,y,-z
-x,y,z
x,-y,z
1/2+x,1/2+y,z
1/2-x,1/2-y,z
1/2+x,1/2-y,-z
1/2-x,1/2+y,-z
1/2-x,1/2-y,-z
1/2+x,1/2+y,-z
1/2-x,1/2+y,z
1/2+x,1/2-y,z
loop_
_atom_site_type_symbol
_atom_site_label
_atom_site_fract_x
_atom_site_fract_y
_atom_site_fract_z
Si Si1 0.924163 0.500000 0.907637
Si Si2 0.696261 0.615171 0.847224
Si Si3 0.075251 0.794190 0.590238
Si Si4 0.161016 0.314406 0.090715
Si Si5 0.205745 0.884649 0.333142
Si Si6 0.341616 0.887219 0.410469
O O1 0.889090 0.399385 0.882716
O O2 0.000000 0.500000 0.883881
O O3 0.920802 0.500000 0.000000
O O4 0.679184 0.500000 0.863217
O O5 0.766805 0.642583 0.885721
O O6 0.650241 0.705225 0.875864
O O7 0.703760 0.626944 0.757113
O O8 0.078231 0.814785 0.500000
O O9 0.137442 0.846192 0.630402
O O10 0.093851 0.679800 0.601325
O O11 0.000000 0.817668 0.616222
O O12 0.158646 0.306456 0.000000
O O13 0.276898 0.848565 0.365564
O O14 0.207286 0.000000 0.351124
O O15 0.324985 0.882378 0.500000
O O16 0.354156 0.000000 0.389833
#
# Coordination Sequence:
#
# PCOD9488975 Si02
#       6
#     8  16  16  16  16  16
#     4   9  18  36  60  84 114 146 180 223 270 330
#     4  10  20  33  53  81 113 145 180 231 286 327
#     4  10  21  35  53  78 106 140 182 226 272 325
#     4  10  20  33  55  85 113 146 186 225 276 330
#     4  10  21  35  54  77 105 142 179 224 277 327
#     4   9  18  33  54  78 103 135 177 223 270 325
#
# _framework density 18.273368999999999
#
# number of rings (size 3 to 8) (size 9 to 14) (size 15 to 20)
#    0.000    2.273    0.909    2.182    5.091    4.364 
#    0.000    3.636    0.000    1.636    0.000    2.545 
#    0.000    0.000    0.000    0.000    0.000    0.000 
#
# Total GULP energy -245157.249090 kJ/mol
# GULP energy per Si atom -5571.755661 kJ/mol
# Density = 1.823178 g / cm^3
# Si number density = 18.273369 Si / 1000 Ang^3
#
#
#
# Elastic Constant Matrix: (Units=GPa)
#
#
# Indices 1 2 3 4 5 6 
#
# 1 70.1801 19.5336 9.2191 0.0000 0.0000 0.0000
# 2 19.5336 100.1961 15.2750 0.0000 0.0000 0.0000
# 3 9.2191 15.2750 15.1658 0.0000 0.0000 0.0000
# 4 0.0000 0.0000 0.0000 28.4271 0.0000 0.0000
# 5 0.0000 0.0000 0.0000 0.0000 -10.2331 0.0000
# 6 0.0000 0.0000 0.0000 0.0000 0.0000 16.9897
#
#
#
# Elastic Compliance Matrix: (Units=1/GPa)
#
#
# Indices 1 2 3 4 5 6 
#
# 1 0.015788 -0.001908 -0.007676 0.000000 0.000000 0.000000
# 2 -0.001908 0.012021 -0.010948 0.000000 0.000000 0.000000
# 3 -0.007676 -0.010948 0.081631 0.000000 0.000000 0.000000
# 4 0.000000 0.000000 0.000000 0.035178 0.000000 0.000000
# 5 0.000000 0.000000 0.000000 0.000000 -0.097722 0.000000
# 6 0.000000 0.000000 0.000000 0.000000 0.000000 0.058859
#
#
# Mechanical properties :
#
#
# Convention : Reuss Voigt Hill
#
# Bulk Modulus (GPa) = 14.62487 30.39971 22.51229
# Shear Modulus (GPa) = 29.47906 16.47103 22.97505
#
# Velocity S-wave (km/s) = 4.02085 3.00554 3.54968
# Velocity P-wave (km/s) = 5.43849 5.35878 5.39878
#
# Compressibility (1/GPa) = 0.06837666
#
# Stress axis : x y z
#
# Youngs Moduli (GPa) = 63.33756 83.18477 12.25024
#
# Poissons Ratio (x) = 0.15870 0.09403
# Poissons Ratio (y) = 0.12083 0.13412
# Poissons Ratio (z) = 0.48619 0.91073
#
# Static dielectric constant tensor:
#      x y z
#    x 1.601930 0.000000 0.000000 
#    y 0.000000 1.696730 0.000000 
#    z 0.000000 0.000000 1.622750 
# 
# From -- ./inp_files/54299.got.cif
#   From: 2010.05.17/outbox.cif.g08.bks.cpg/sg65_28_cif.got.tgz:54299.got - 2010.06.03 17:01:31.
