data_PCOD9488397
_publ_section_title
;
Structure prediction by ZEFSAII (Michael W. Deem and Ramdas Pophale) SiO2 
 PCOD9488397
Probable space group: C M M M
;
_chemical_formula_sum "Si O2"
_cell_formula_units_Z 80
_cell_length_a 18.722201
_cell_length_b 7.726043
_cell_length_c 29.108417
_cell_angle_alpha 90.000000
_cell_angle_beta 90.000000
_cell_angle_gamma 90.000000
_cell_volume 4210.489729
_symmetry_space_group_name_H-M "C M M M"
_symmetry_group_IT_number 65
_symmetry_cell_setting 'orthorhombic'
loop_
_space_group_symop_operation_xyz
x,y,z
-x,-y,z
x,-y,-z
-x,y,-z
-x,-y,-z
x,y,-z
-x,y,z
x,-y,z
1/2+x,1/2+y,z
1/2-x,1/2-y,z
1/2+x,1/2-y,-z
1/2-x,1/2+y,-z
1/2-x,1/2-y,-z
1/2+x,1/2+y,-z
1/2-x,1/2+y,z
1/2+x,1/2-y,z
loop_
_atom_site_type_symbol
_atom_site_label
_atom_site_fract_x
_atom_site_fract_y
_atom_site_fract_z
Si Si1 0.912913 0.801272 0.120734
Si Si2 0.832993 0.791670 0.687912
Si Si3 0.581671 0.707017 0.400571
Si Si4 0.087216 0.500000 0.947272
Si Si5 0.417684 0.711309 0.777081
Si Si6 0.581493 0.794413 0.500000
O O1 0.890287 0.669325 0.081309
O O2 0.891933 0.739546 0.171923
O O3 0.000000 0.803114 0.121503
O O4 0.889872 0.000000 0.113428
O O5 0.750000 0.750000 0.686886
O O6 0.872877 0.725921 0.642215
O O7 0.870302 0.728052 0.734625
O O8 0.840484 0.000000 0.688156
O O9 0.500000 0.775398 0.399354
O O10 0.577403 0.500000 0.395916
O O11 0.613535 0.741816 0.451093
O O12 0.000000 0.500000 0.947632
O O13 0.110956 0.500000 0.000000
O O14 0.500000 0.766341 0.770920
O O15 0.418098 0.500000 0.777321
O O16 0.500000 0.720980 0.500000
O O17 0.577432 0.000000 0.500000
#
# Coordination Sequence:
#
# PCOD9488397 Si02
#       6
#    16  16  16   8  16   8
#     4   8  14  25  41  61  87 122 162 200 238 284
#     4  10  20  33  48  69  98 126 152 194 242 289
#     4   9  17  31  52  73  92 121 162 197 229 278
#     4   9  16  24  36  60  96 130 158 193 240 294
#     4   8  14  28  50  69  87 121 164 199 232 278
#     4   9  17  29  48  73  98 119 145 195 246 281
#
# _framework density 19.000164999999999
#
# number of rings (size 3 to 8) (size 9 to 14) (size 15 to 20)
#    0.000    3.200    0.000    2.100    0.000    4.800 
#    1.800    2.500    0.000    1.200    0.000    0.000 
#    0.000    0.800    0.400    0.000    0.000    0.000 
#
# Total GULP energy -222883.739818 kJ/mol
# GULP energy per Si atom -5572.093495 kJ/mol
# Density = 1.895692 g / cm^3
# Si number density = 19.000165 Si / 1000 Ang^3
#
#
#
# Elastic Constant Matrix: (Units=GPa)
#
#
# Indices 1 2 3 4 5 6 
#
# 1 48.1560 11.8692 65.5449 0.0000 0.0000 0.0000
# 2 11.8692 55.4506 52.5390 0.0000 0.0000 0.0000
# 3 65.5449 52.5390 233.8520 0.0000 0.0000 0.0000
# 4 0.0000 0.0000 0.0000 -23.6854 0.0000 0.0000
# 5 0.0000 0.0000 0.0000 0.0000 -5.2120 0.0000
# 6 0.0000 0.0000 0.0000 0.0000 0.0000 13.4409
#
#
#
# Elastic Compliance Matrix: (Units=1/GPa)
#
#
# Indices 1 2 3 4 5 6 
#
# 1 0.033786 0.002211 -0.009967 0.000000 0.000000 0.000000
# 2 0.002211 0.023056 -0.005800 0.000000 0.000000 0.000000
# 3 -0.009967 -0.005800 0.008373 0.000000 0.000000 0.000000
# 4 0.000000 0.000000 0.000000 -0.042220 0.000000 0.000000
# 5 0.000000 0.000000 0.000000 0.000000 -0.191864 0.000000
# 6 0.000000 0.000000 0.000000 0.000000 0.000000 0.074400
#
#
# Mechanical properties :
#
#
# Convention : Reuss Voigt Hill
#
# Bulk Modulus (GPa) = 26.24337 66.37388 46.30863
# Shear Modulus (GPa) = -91.47928 10.74238 -40.36845
#
# Velocity S-wave (km/s) = -6.94630 2.38036 -4.61438
# Velocity P-wave (km/s) = 7.10582 6.52411 1.99106
#
# Compressibility (1/GPa) = 0.03810486
#
# Stress axis : x y z
#
# Youngs Moduli (GPa) = 29.59789 43.37282 119.43615
#
# Poissons Ratio (x) = -0.09591 1.19036
# Poissons Ratio (y) = -0.06545 0.69269
# Poissons Ratio (z) = 0.29499 0.25155
#
# Static dielectric constant tensor:
#      x y z
#    x 1.619800 0.000000 0.000000 
#    y 0.000000 1.693510 0.000000 
#    z 0.000000 0.000000 1.681980 
# 
# From -- ./inp_files/70818.got.cif
#   From: 2010.05.17/outbox.cif.g08.bks.cpg/sg65_36_cif.got.tgz:70818.got - 2010.06.03 17:01:31.
