data_PCOD9488038
_publ_section_title
;
Structure prediction by ZEFSAII (Michael W. Deem and Ramdas Pophale) SiO2 
 PCOD9488038
Probable space group: C M M M
;
_chemical_formula_sum "Si O2"
_cell_formula_units_Z 96
_cell_length_a 28.219804
_cell_length_b 8.976136
_cell_length_c 24.357269
_cell_angle_alpha 90.000000
_cell_angle_beta 90.000000
_cell_angle_gamma 90.000000
_cell_volume 6169.813118
_symmetry_space_group_name_H-M "C M M M"
_symmetry_group_IT_number 65
_symmetry_cell_setting 'orthorhombic'
loop_
_space_group_symop_operation_xyz
x,y,z
-x,-y,z
x,-y,-z
-x,y,-z
-x,-y,-z
x,y,-z
-x,y,z
x,-y,z
1/2+x,1/2+y,z
1/2-x,1/2-y,z
1/2+x,1/2-y,-z
1/2-x,1/2+y,-z
1/2-x,1/2-y,-z
1/2+x,1/2+y,-z
1/2-x,1/2+y,z
1/2+x,1/2-y,z
loop_
_atom_site_type_symbol
_atom_site_label
_atom_site_fract_x
_atom_site_fract_y
_atom_site_fract_z
Si Si1 0.698893 0.679338 0.562733
Si Si2 0.555503 0.178664 0.936502
Si Si3 0.199197 0.178046 0.774073
Si Si4 0.361064 0.320481 0.666788
Si Si5 0.445056 0.178188 0.729724
Si Si6 0.604661 0.678638 0.165624
O O1 0.686204 0.720144 0.500000
O O2 0.703415 0.500000 0.565299
O O3 0.750000 0.750000 0.575116
O O4 0.660621 0.723509 0.608306
O O5 0.500000 0.214595 0.926409
O O6 0.587904 0.261249 0.892765
O O7 0.560376 0.000000 0.930322
O O8 0.566021 0.215842 0.000000
O O9 0.250000 0.250000 0.782762
O O10 0.176835 0.217780 0.714674
O O11 0.158609 0.219572 0.818038
O O12 0.204384 0.000000 0.775237
O O13 0.367379 0.500000 0.668264
O O14 0.409852 0.243040 0.683813
O O15 0.500000 0.213467 0.719453
O O16 0.428190 0.250215 0.787091
O O17 0.439946 0.000000 0.733226
O O18 0.600735 0.500000 0.168358
#
# Coordination Sequence:
#
# PCOD9488038 Si02
#       6
#    16  16  16  16  16  16
#     4   9  17  29  46  69  96 124 154 189 229 274
#     4   9  18  32  49  70  96 124 154 188 225 267
#     4   9  18  30  44  65  91 118 149 185 224 266
#     4   9  18  31  46  67  94 121 151 188 229 272
#     4  10  20  32  47  68  92 119 153 190 228 273
#     4  10  20  32  47  70  97 122 151 187 227 272
#
# _framework density 15.559628999999999
#
# number of rings (size 3 to 8) (size 9 to 14) (size 15 to 20)
#    0.000    2.667    0.000    3.500    0.000    8.000 
#    0.000    0.833    0.000    1.000    0.000    3.500 
#    0.000    0.000    0.000    0.000    0.000    0.000 
#
# Total GULP energy -267612.269485 kJ/mol
# GULP energy per Si atom -5575.255614 kJ/mol
# Density = 1.552421 g / cm^3
# Si number density = 15.559629 Si / 1000 Ang^3
#
#
#
# Elastic Constant Matrix: (Units=GPa)
#
#
# Indices 1 2 3 4 5 6 
#
# 1 148.1855 55.2662 90.0185 0.0000 0.0000 0.0000
# 2 55.2662 33.2790 44.5770 0.0000 0.0000 0.0000
# 3 90.0185 44.5770 113.9565 0.0000 0.0000 0.0000
# 4 0.0000 0.0000 0.0000 20.7821 0.0000 0.0000
# 5 0.0000 0.0000 0.0000 0.0000 23.0580 0.0000
# 6 0.0000 0.0000 0.0000 0.0000 0.0000 30.4319
#
#
#
# Elastic Compliance Matrix: (Units=1/GPa)
#
#
# Indices 1 2 3 4 5 6 
#
# 1 0.019345 -0.024488 -0.005702 0.000000 0.000000 0.000000
# 2 -0.024488 0.094124 -0.017475 0.000000 0.000000 0.000000
# 3 -0.005702 -0.017475 0.020115 0.000000 0.000000 0.000000
# 4 0.000000 0.000000 0.000000 0.048118 0.000000 0.000000
# 5 0.000000 0.000000 0.000000 0.000000 0.043369 0.000000
# 6 0.000000 0.000000 0.000000 0.000000 0.000000 0.032860
#
#
# Mechanical properties :
#
#
# Convention : Reuss Voigt Hill
#
# Bulk Modulus (GPa) = 26.14120 75.01602 50.57861
# Shear Modulus (GPa) = 13.66069 21.89168 17.77619
#
# Velocity S-wave (km/s) = 2.96625 3.75501 3.38369
# Velocity P-wave (km/s) = 5.34496 8.19248 6.91684
#
# Compressibility (1/GPa) = 0.03825380
#
# Stress axis : x y z
#
# Youngs Moduli (GPa) = 51.69208 10.62432 49.71316
#
# Poissons Ratio (x) = 0.26017 0.28348
# Poissons Ratio (y) = 1.26586 0.86872
# Poissons Ratio (z) = 0.29477 0.18566
#
# Static dielectric constant tensor:
#      x y z
#    x 1.497610 0.000000 0.000000 
#    y 0.000000 1.520620 0.000000 
#    z 0.000000 0.000000 1.515830 
# 
# From -- ./inp_files/68014.got.cif
#   From: 2010.05.17/outbox.cif.g08.bks.cpg/sg65_35_cif.got.tgz:68014.got - 2010.06.03 17:01:31.
