data_PCOD9488203
_publ_section_title
;
Structure prediction by ZEFSAII (Michael W. Deem and Ramdas Pophale) SiO2 
 PCOD9488203
Probable space group: C M M M
;
_chemical_formula_sum "Si O2"
_cell_formula_units_Z 104
_cell_length_a 14.118258
_cell_length_b 20.951535
_cell_length_c 20.035433
_cell_angle_alpha 90.000000
_cell_angle_beta 90.000000
_cell_angle_gamma 90.000000
_cell_volume 5926.464585
_symmetry_space_group_name_H-M "C M M M"
_symmetry_group_IT_number 65
_symmetry_cell_setting 'orthorhombic'
loop_
_space_group_symop_operation_xyz
x,y,z
-x,-y,z
x,-y,-z
-x,y,-z
-x,-y,-z
x,y,-z
-x,y,z
x,-y,z
1/2+x,1/2+y,z
1/2-x,1/2-y,z
1/2+x,1/2-y,-z
1/2-x,1/2+y,-z
1/2-x,1/2-y,-z
1/2+x,1/2+y,-z
1/2-x,1/2+y,z
1/2+x,1/2-y,z
loop_
_atom_site_type_symbol
_atom_site_label
_atom_site_fract_x
_atom_site_fract_y
_atom_site_fract_z
Si Si1 0.268575 0.643842 0.423616
Si Si2 0.604632 0.076465 0.212020
Si Si3 0.750000 0.750000 0.874122
Si Si4 0.388916 0.759690 0.624199
Si Si5 0.109797 0.805009 0.234848
Si Si6 0.609066 0.147393 0.926304
Si Si7 0.707254 0.574514 0.291932
O O1 0.261575 0.623799 0.500000
O O2 0.350385 0.697408 0.414762
O O3 0.174062 0.681501 0.400348
O O4 0.287654 0.588439 0.370610
O O5 0.500000 0.100264 0.233826
O O6 0.621146 0.101299 0.137089
O O7 0.691465 0.094095 0.259491
O O8 0.601600 0.000000 0.211272
O O9 0.821282 0.787803 0.825349
O O10 0.685066 0.797055 0.916796
O O11 0.500000 0.769303 0.614038
O O12 0.371903 0.742206 0.702192
O O13 0.132342 0.876231 0.260825
O O14 0.000000 0.798534 0.216306
O O15 0.500000 0.171169 0.922368
O O16 0.620154 0.117698 0.000000
O O17 0.689660 0.500000 0.278090
#
# Coordination Sequence:
#
# PCOD9488203 Si02
#       7
#    16  16   8  16  16  16  16
#     4  10  20  32  48  75 103 130 169 210 253 313
#     4   9  18  34  56  78 100 132 174 218 258 299
#     4  12  19  34  52  78 111 144 168 204 259 312
#     4   9  18  32  51  74 101 131 164 211 262 307
#     4  10  20  33  53  80 103 131 175 220 258 302
#     4  10  21  34  52  81 112 141 171 206 253 310
#     4  10  20  36  53  72 100 135 175 217 260 304
#
# _framework density 17.548404999999999
#
# number of rings (size 3 to 8) (size 9 to 14) (size 15 to 20)
#    0.000    2.154    1.538    3.462    0.000    2.769 
#    0.000    1.538    0.000    0.000    0.000    7.538 
#    0.000    2.462    0.000    0.000    0.000    0.000 
#
# Total GULP energy -290084.644607 kJ/mol
# GULP energy per Si atom -5578.550858 kJ/mol
# Density = 1.750846 g / cm^3
# Si number density = 17.548405 Si / 1000 Ang^3
#
#
#
# Elastic Constant Matrix: (Units=GPa)
#
#
# Indices 1 2 3 4 5 6 
#
# 1 63.5534 4.5397 13.0852 0.0000 0.0000 0.0000
# 2 4.5397 24.3869 6.6326 0.0000 0.0000 0.0000
# 3 13.0852 6.6326 78.4829 0.0000 0.0000 0.0000
# 4 0.0000 0.0000 0.0000 7.8043 0.0000 0.0000
# 5 0.0000 0.0000 0.0000 0.0000 11.2468 0.0000
# 6 0.0000 0.0000 0.0000 0.0000 0.0000 17.8477
#
#
#
# Elastic Compliance Matrix: (Units=1/GPa)
#
#
# Indices 1 2 3 4 5 6 
#
# 1 0.016427 -0.002367 -0.002539 0.000000 0.000000 0.000000
# 2 -0.002367 0.042311 -0.003181 0.000000 0.000000 0.000000
# 3 -0.002539 -0.003181 0.013434 0.000000 0.000000 0.000000
# 4 0.000000 0.000000 0.000000 0.128134 0.000000 0.000000
# 5 0.000000 0.000000 0.000000 0.000000 0.088915 0.000000
# 6 0.000000 0.000000 0.000000 0.000000 0.000000 0.056030
#
#
# Mechanical properties :
#
#
# Convention : Reuss Voigt Hill
#
# Bulk Modulus (GPa) = 17.85794 23.88202 20.86998
# Shear Modulus (GPa) = 13.15478 16.85747 15.00612
#
# Velocity S-wave (km/s) = 2.74090 3.10276 2.92743
# Velocity P-wave (km/s) = 4.49613 5.14538 4.83167
#
# Compressibility (1/GPa) = 0.05599749
#
# Stress axis : x y z
#
# Youngs Moduli (GPa) = 60.87681 23.63429 74.43948
#
# Poissons Ratio (x) = 0.05595 0.18898
# Poissons Ratio (y) = 0.14412 0.23679
# Poissons Ratio (z) = 0.15455 0.07518
#
# Static dielectric constant tensor:
#      x y z
#    x 1.603450 0.000000 0.000000 
#    y 0.000000 1.579950 0.000000 
#    z 0.000000 0.000000 1.600610 
# 
# From -- ./inp_files/53278.got.cif
#   From: 2010.05.17/outbox.cif.g08.bks.cpg/sg65_27_cif.got.tgz:53278.got - 2010.06.03 17:01:31.
