data_PCOD9488234
_publ_section_title
;
Structure prediction by ZEFSAII (Michael W. Deem and Ramdas Pophale) SiO2 
 PCOD9488234
Probable space group: C M M M
;
_chemical_formula_sum "Si O2"
_cell_formula_units_Z 72
_cell_length_a 21.606313
_cell_length_b 16.766019
_cell_length_c 8.569983
_cell_angle_alpha 90.000000
_cell_angle_beta 90.000000
_cell_angle_gamma 90.000000
_cell_volume 3104.492233
_symmetry_space_group_name_H-M "C M M M"
_symmetry_group_IT_number 65
_symmetry_cell_setting 'orthorhombic'
loop_
_space_group_symop_operation_xyz
x,y,z
-x,-y,z
x,-y,-z
-x,y,-z
-x,-y,-z
x,y,-z
-x,y,z
x,-y,z
1/2+x,1/2+y,z
1/2-x,1/2-y,z
1/2+x,1/2-y,-z
1/2-x,1/2+y,-z
1/2-x,1/2-y,-z
1/2+x,1/2+y,-z
1/2-x,1/2+y,z
1/2+x,1/2-y,z
loop_
_atom_site_type_symbol
_atom_site_label
_atom_site_fract_x
_atom_site_fract_y
_atom_site_fract_z
Si Si1 0.750692 0.346965 0.333505
Si Si2 0.070459 0.835784 0.684744
Si Si3 0.394330 0.158956 0.323226
Si Si4 0.754732 0.345823 0.000000
Si Si5 0.072776 0.000000 0.184673
Si Si6 0.103451 0.594438 0.000000
O O1 0.722496 0.372902 0.500000
O O2 0.750000 0.250000 0.334727
O O3 0.823438 0.369971 0.334757
O O4 0.727556 0.374718 0.164577
O O5 0.066713 0.846244 0.500000
O O6 0.106454 0.753839 0.710687
O O7 0.097384 0.916490 0.753313
O O8 0.000000 0.823866 0.745717
O O9 0.421390 0.148457 0.500000
O O10 0.424046 0.120932 0.168110
O O11 0.750000 0.250000 0.000000
O O12 0.827384 0.368052 0.000000
O O13 0.000000 0.000000 0.235486
O O14 0.075130 0.000000 0.000000
O O15 0.107447 0.500000 0.000000
#
# Coordination Sequence:
#
# PCOD9488234 Si02
#       6
#    16  16  16   8   8   8
#     4   8  13  23  41  66  88 112 150 189 227 272
#     4   9  17  30  48  70  97 129 165 202 243 295
#     4   9  18  31  48  72  96 127 165 204 247 294
#     4   8  14  26  44  67  89 118 147 187 236 283
#     4   9  17  27  43  71 101 129 161 201 243 285
#     4  10  20  32  49  75  98 124 165 210 250 293
#
# _framework density 23.192197
#
# number of rings (size 3 to 8) (size 9 to 14) (size 15 to 20)
#    0.000    3.222    0.000    0.333    1.556    1.778 
#    0.000    0.000    0.000    1.333   46.222    3.111 
#    0.000    0.000    0.000    0.000    0.000    0.000 
#
# Total GULP energy -200592.974485 kJ/mol
# GULP energy per Si atom -5572.027069 kJ/mol
# Density = 2.313941 g / cm^3
# Si number density = 23.192197 Si / 1000 Ang^3
#
#
#
# Elastic Constant Matrix: (Units=GPa)
#
#
# Indices 1 2 3 4 5 6 
#
# 1 72.6120 14.0227 15.3571 0.0000 0.0000 0.0000
# 2 14.0227 99.3095 54.8687 0.0000 0.0000 0.0000
# 3 15.3571 54.8687 224.3348 0.0000 0.0000 0.0000
# 4 0.0000 0.0000 0.0000 25.8749 0.0000 0.0000
# 5 0.0000 0.0000 0.0000 0.0000 1.7126 0.0000
# 6 0.0000 0.0000 0.0000 0.0000 0.0000 14.3032
#
#
#
# Elastic Compliance Matrix: (Units=1/GPa)
#
#
# Indices 1 2 3 4 5 6 
#
# 1 0.014218 -0.001700 -0.000558 0.000000 0.000000 0.000000
# 2 -0.001700 0.011846 -0.002781 0.000000 0.000000 0.000000
# 3 -0.000558 -0.002781 0.005176 0.000000 0.000000 0.000000
# 4 0.000000 0.000000 0.000000 0.038648 0.000000 0.000000
# 5 0.000000 0.000000 0.000000 0.000000 0.583892 0.000000
# 6 0.000000 0.000000 0.000000 0.000000 0.000000 0.069914
#
#
# Mechanical properties :
#
#
# Convention : Reuss Voigt Hill
#
# Bulk Modulus (GPa) = 47.25077 62.75036 55.00056
# Shear Modulus (GPa) = 6.74924 29.17868 17.96396
#
# Velocity S-wave (km/s) = 1.70776 3.55085 2.78613
# Velocity P-wave (km/s) = 4.93015 6.62773 5.84094
#
# Compressibility (1/GPa) = 0.02116368
#
# Stress axis : x y z
#
# Youngs Moduli (GPa) = 70.33352 84.41656 193.19994
#
# Poissons Ratio (x) = 0.14347 0.10773
# Poissons Ratio (y) = 0.11953 0.53729
# Poissons Ratio (z) = 0.03922 0.23476
#
# Static dielectric constant tensor:
#      x y z
#    x 1.814500 0.000000 0.000000 
#    y 0.000000 1.810310 0.000000 
#    z 0.000000 0.000000 1.945690 
# 
# From -- ./inp_files/7756.got.cif
#   From: 2010.05.17/outbox.cif.g08.bks.cpg/sg65_4_cif.got.tgz:7756.got - 2010.06.03 17:01:31.
