data_PCOD9488406
_publ_section_title
;
Structure prediction by ZEFSAII (Michael W. Deem and Ramdas Pophale) SiO2 
 PCOD9488406
Probable space group: C M M M
;
_chemical_formula_sum "Si O2"
_cell_formula_units_Z 72
_cell_length_a 17.830409
_cell_length_b 21.030138
_cell_length_c 11.879768
_cell_angle_alpha 90.000000
_cell_angle_beta 90.000000
_cell_angle_gamma 90.000000
_cell_volume 4454.627433
_symmetry_space_group_name_H-M "C M M M"
_symmetry_group_IT_number 65
_symmetry_cell_setting 'orthorhombic'
loop_
_space_group_symop_operation_xyz
x,y,z
-x,-y,z
x,-y,-z
-x,y,-z
-x,-y,-z
x,y,-z
-x,y,z
x,-y,z
1/2+x,1/2+y,z
1/2-x,1/2-y,z
1/2+x,1/2-y,-z
1/2-x,1/2+y,-z
1/2-x,1/2-y,-z
1/2+x,1/2+y,-z
1/2-x,1/2+y,z
1/2+x,1/2-y,z
loop_
_atom_site_type_symbol
_atom_site_label
_atom_site_fract_x
_atom_site_fract_y
_atom_site_fract_z
Si Si1 0.908809 0.573614 0.500000
Si Si2 0.856202 0.500000 0.865059
Si Si3 0.339425 0.243545 0.867231
Si Si4 0.586353 0.377495 0.863121
Si Si5 0.410989 0.874711 0.741417
Si Si6 0.319089 0.500000 0.863041
O O1 0.883455 0.500000 0.500000
O O2 0.886247 0.608886 0.385769
O O3 0.000000 0.571671 0.500000
O O4 0.894204 0.437409 0.814594
O O5 0.768168 0.500000 0.831978
O O6 0.861218 0.500000 0.000000
O O7 0.250000 0.250000 0.857508
O O8 0.378504 0.309605 0.832193
O O9 0.369157 0.184896 0.795343
O O10 0.356737 0.232541 0.000000
O O11 0.500000 0.383530 0.826501
O O12 0.637214 0.436690 0.825317
O O13 0.586383 0.379261 0.000000
O O14 0.500000 0.862517 0.741431
O O15 0.320846 0.500000 0.000000
#
# Coordination Sequence:
#
# PCOD9488406 Si02
#       6
#     8   8  16  16  16   8
#     4   9  18  36  55  72  96 131 172 217 264 298
#     4  11  21  30  45  73 105 133 160 198 252 313
#     4  10  20  33  48  71 107 142 166 201 259 314
#     4   9  16  27  44  65  91 127 170 206 236 284
#     4  11  21  34  53  74  99 132 174 214 251 304
#     4   9  17  29  44  65  95 130 164 199 244 295
#
# _framework density 16.162966999999998
#
# number of rings (size 3 to 8) (size 9 to 14) (size 15 to 20)
#    0.000    2.111    1.111    3.333    0.000    8.000 
#    0.000    0.556    0.000    0.000    0.000    0.000 
#    0.000    0.000    0.000   14.000    0.000    4.444 
#
# Total GULP energy -200832.761899 kJ/mol
# GULP energy per Si atom -5578.687831 kJ/mol
# Density = 1.612618 g / cm^3
# Si number density = 16.162967 Si / 1000 Ang^3
#
#
#
# Elastic Constant Matrix: (Units=GPa)
#
#
# Indices 1 2 3 4 5 6 
#
# 1 50.1111 27.6240 30.5614 0.0000 0.0000 0.0000
# 2 27.6240 133.5110 58.1660 0.0000 0.0000 0.0000
# 3 30.5614 58.1660 82.9283 0.0000 0.0000 0.0000
# 4 0.0000 0.0000 0.0000 16.3524 0.0000 0.0000
# 5 0.0000 0.0000 0.0000 0.0000 8.8804 0.0000
# 6 0.0000 0.0000 0.0000 0.0000 0.0000 26.8409
#
#
#
# Elastic Compliance Matrix: (Units=1/GPa)
#
#
# Indices 1 2 3 4 5 6 
#
# 1 0.026018 -0.001737 -0.008370 0.000000 0.000000 0.000000
# 2 -0.001737 0.010902 -0.007007 0.000000 0.000000 0.000000
# 3 -0.008370 -0.007007 0.020058 0.000000 0.000000 0.000000
# 4 0.000000 0.000000 0.000000 0.061153 0.000000 0.000000
# 5 0.000000 0.000000 0.000000 0.000000 0.112608 0.000000
# 6 0.000000 0.000000 0.000000 0.000000 0.000000 0.037257
#
#
# Mechanical properties :
#
#
# Convention : Reuss Voigt Hill
#
# Bulk Modulus (GPa) = 43.95506 55.47255 49.71381
# Shear Modulus (GPa) = 16.13918 20.42802 18.28360
#
# Velocity S-wave (km/s) = 3.16338 3.55896 3.36699
# Velocity P-wave (km/s) = 6.37154 7.16125 6.77791
#
# Compressibility (1/GPa) = 0.02275051
#
# Stress axis : x y z
#
# Youngs Moduli (GPa) = 38.43534 91.72762 49.85624
#
# Poissons Ratio (x) = 0.15929 0.41731
# Poissons Ratio (y) = 0.06675 0.34932
# Poissons Ratio (z) = 0.32171 0.64270
#
# Static dielectric constant tensor:
#      x y z
#    x 1.541100 0.000000 0.000000 
#    y 0.000000 1.526750 0.000000 
#    z 0.000000 0.000000 1.525220 
# 
# From -- ./inp_files/26574.got.cif
#   From: 2010.05.17/outbox.cif.g08.bks.cpg/sg65_14_cif.got.tgz:26574.got - 2010.06.03 17:01:31.
