data_PCOD9488798
_publ_section_title
;
Structure prediction by ZEFSAII (Michael W. Deem and Ramdas Pophale) SiO2 
 PCOD9488798
Probable space group: C M M M
;
_chemical_formula_sum "Si O2"
_cell_formula_units_Z 104
_cell_length_a 22.505854
_cell_length_b 14.895815
_cell_length_c 17.858028
_cell_angle_alpha 90.000000
_cell_angle_beta 90.000000
_cell_angle_gamma 90.000000
_cell_volume 5986.779552
_symmetry_space_group_name_H-M "C M M M"
_symmetry_group_IT_number 65
_symmetry_cell_setting 'orthorhombic'
loop_
_space_group_symop_operation_xyz
x,y,z
-x,-y,z
x,-y,-z
-x,y,-z
-x,-y,-z
x,y,-z
-x,y,z
x,-y,z
1/2+x,1/2+y,z
1/2-x,1/2-y,z
1/2+x,1/2-y,-z
1/2-x,1/2+y,-z
1/2-x,1/2-y,-z
1/2+x,1/2+y,-z
1/2-x,1/2+y,z
1/2+x,1/2-y,z
loop_
_atom_site_type_symbol
_atom_site_label
_atom_site_fract_x
_atom_site_fract_y
_atom_site_fract_z
Si Si1 0.369126 0.400862 0.156518
Si Si2 0.570178 0.601256 0.317097
Si Si3 0.761492 0.602752 0.089343
Si Si4 0.928116 0.726992 0.584642
Si Si5 0.123313 0.297665 0.864349
Si Si6 0.428266 0.105242 0.721167
Si Si7 0.569570 0.097767 0.000000
O O1 0.389729 0.500000 0.129277
O O2 0.388796 0.395951 0.243359
O O3 0.299338 0.396092 0.136486
O O4 0.391664 0.306800 0.124346
O O5 0.500000 0.615170 0.295982
O O6 0.574249 0.500000 0.348509
O O7 0.587165 0.679105 0.374854
O O8 0.784911 0.500000 0.096901
O O9 0.808352 0.675000 0.119734
O O10 0.750450 0.617856 0.000000
O O11 0.905156 0.720005 0.500000
O O12 0.911723 0.646034 0.640296
O O13 0.000000 0.725901 0.580529
O O14 0.103104 0.334295 0.783894
O O15 0.088591 0.352035 0.926397
O O16 0.500000 0.113497 0.729869
O O17 0.413283 0.000000 0.728708
O O18 0.500000 0.089789 0.000000
O O19 0.597909 0.000000 0.000000
#
# Coordination Sequence:
#
# PCOD9488798 Si02
#       7
#    16  16  16  16  16  16   8
#     4  10  22  36  53  77 105 138 174 215 261 312
#     4   9  17  32  53  76 105 140 176 214 257 309
#     4  10  21  37  57  80 106 134 173 224 271 312
#     4   9  17  30  49  76 109 140 172 212 261 317
#     4  12  21  35  58  77 104 142 179 219 265 312
#     4  10  20  33  51  77 108 141 178 218 262 317
#     4  11  24  38  54  79 107 137 175 221 270 315
#
# _framework density 17.37161
#
# number of rings (size 3 to 8) (size 9 to 14) (size 15 to 20)
#    0.000    1.923    2.308    2.308    1.077    3.077 
#    0.000    3.077    0.000    0.462    0.000    2.154 
#    0.000    3.692    0.000    0.000    0.000    0.000 
#
# Total GULP energy -289727.547880 kJ/mol
# GULP energy per Si atom -5571.683613 kJ/mol
# Density = 1.733207 g / cm^3
# Si number density = 17.371610 Si / 1000 Ang^3
#
#
#
# Elastic Constant Matrix: (Units=GPa)
#
#
# Indices 1 2 3 4 5 6 
#
# 1 40.3815 21.3055 33.2277 0.0000 0.0000 0.0000
# 2 21.3055 144.3991 43.0474 0.0000 0.0000 0.0000
# 3 33.2277 43.0474 93.6939 0.0000 0.0000 0.0000
# 4 0.0000 0.0000 0.0000 7.2360 0.0000 0.0000
# 5 0.0000 0.0000 0.0000 0.0000 20.8542 0.0000
# 6 0.0000 0.0000 0.0000 0.0000 0.0000 20.1369
#
#
#
# Elastic Compliance Matrix: (Units=1/GPa)
#
#
# Indices 1 2 3 4 5 6 
#
# 1 0.035330 -0.001712 -0.011743 0.000000 0.000000 0.000000
# 2 -0.001712 0.008107 -0.003118 0.000000 0.000000 0.000000
# 3 -0.011743 -0.003118 0.016270 0.000000 0.000000 0.000000
# 4 0.000000 0.000000 0.000000 0.138198 0.000000 0.000000
# 5 0.000000 0.000000 0.000000 0.000000 0.047952 0.000000
# 6 0.000000 0.000000 0.000000 0.000000 0.000000 0.049660
#
#
# Mechanical properties :
#
#
# Convention : Reuss Voigt Hill
#
# Bulk Modulus (GPa) = 37.64801 52.62617 45.13709
# Shear Modulus (GPa) = 14.81412 21.70501 18.25957
#
# Velocity S-wave (km/s) = 2.92340 3.53860 3.24561
# Velocity P-wave (km/s) = 5.75450 6.85971 6.33127
#
# Compressibility (1/GPa) = 0.02656183
#
# Stress axis : x y z
#
# Youngs Moduli (GPa) = 28.30490 123.34577 61.46312
#
# Poissons Ratio (x) = 0.21118 0.72174
# Poissons Ratio (y) = 0.04846 0.19162
# Poissons Ratio (z) = 0.33238 0.38456
#
# Static dielectric constant tensor:
#      x y z
#    x 1.595830 0.000000 0.000000 
#    y 0.000000 1.647110 0.000000 
#    z 0.000000 0.000000 1.578800 
# 
# From -- ./inp_files/55868.got.cif
#   From: 2010.05.17/outbox.cif.g08.bks.cpg/sg65_28_cif.got.tgz:55868.got - 2010.06.03 17:01:31.
