data_PCOD9488601
_publ_section_title
;
Structure prediction by ZEFSAII (Michael W. Deem and Ramdas Pophale) SiO2 
 PCOD9488601
Probable space group: C M M M
;
_chemical_formula_sum "Si O2"
_cell_formula_units_Z 80
_cell_length_a 18.424420
_cell_length_b 27.710545
_cell_length_c 8.339637
_cell_angle_alpha 90.000000
_cell_angle_beta 90.000000
_cell_angle_gamma 90.000000
_cell_volume 4257.807671
_symmetry_space_group_name_H-M "C M M M"
_symmetry_group_IT_number 65
_symmetry_cell_setting 'orthorhombic'
loop_
_space_group_symop_operation_xyz
x,y,z
-x,-y,z
x,-y,-z
-x,y,-z
-x,-y,-z
x,y,-z
-x,y,z
x,-y,z
1/2+x,1/2+y,z
1/2-x,1/2-y,z
1/2+x,1/2-y,-z
1/2-x,1/2+y,-z
1/2-x,1/2-y,-z
1/2+x,1/2+y,-z
1/2-x,1/2+y,z
1/2+x,1/2-y,z
loop_
_atom_site_type_symbol
_atom_site_label
_atom_site_fract_x
_atom_site_fract_y
_atom_site_fract_z
Si Si1 0.377365 0.182193 0.312506
Si Si2 0.764717 0.446793 0.310251
Si Si3 0.277529 0.344647 0.190067
Si Si4 0.580330 0.287418 0.806238
Si Si5 0.419826 0.080150 0.189010
O O1 0.391352 0.174324 0.500000
O O2 0.291160 0.179056 0.278624
O O3 0.406460 0.233724 0.258505
O O4 0.412102 0.137737 0.215925
O O5 0.752339 0.442050 0.500000
O O6 0.740892 0.500000 0.256926
O O7 0.727871 0.401701 0.223018
O O8 0.851039 0.442097 0.278287
O O9 0.353231 0.321515 0.243995
O O10 0.268370 0.335986 0.000000
O O11 0.500000 0.304120 0.756747
O O12 0.581906 0.285367 0.000000
O O13 0.500000 0.064741 0.243014
O O14 0.412989 0.069669 0.000000
#
# Coordination Sequence:
#
# PCOD9488601 Si02
#       5
#    16  16  16  16  16
#     4  11  21  32  50  76 106 140 174 205 241 290
#     4  10  21  36  54  75  99 129 165 208 257 304
#     4  10  20  35  56  77  99 132 170 208 250 295
#     4  10  21  36  53  75 104 135 168 207 250 296
#     4  10  20  33  50  73 103 138 173 209 247 289
#
# _framework density 18.789012
#
# number of rings (size 3 to 8) (size 9 to 14) (size 15 to 20)
#    0.000    1.800    0.000    7.200    0.000   10.400 
#    0.000    2.000    0.000    0.600    0.000    4.200 
#    0.000    0.000    0.000    0.000    0.000    0.000 
#
# Total GULP energy -223474.608403 kJ/mol
# GULP energy per Si atom -5586.865210 kJ/mol
# Density = 1.874625 g / cm^3
# Si number density = 18.789012 Si / 1000 Ang^3
#
#
#
# Elastic Constant Matrix: (Units=GPa)
#
#
# Indices 1 2 3 4 5 6 
#
# 1 73.2897 17.6551 -1.7521 0.0000 0.0000 0.0000
# 2 17.6551 57.8331 -9.4541 0.0000 0.0000 0.0000
# 3 -1.7521 -9.4541 16.5200 0.0000 0.0000 0.0000
# 4 0.0000 0.0000 0.0000 24.1194 0.0000 0.0000
# 5 0.0000 0.0000 0.0000 0.0000 -56.4980 0.0000
# 6 0.0000 0.0000 0.0000 0.0000 0.0000 -3.1880
#
#
#
# Elastic Compliance Matrix: (Units=1/GPa)
#
#
# Indices 1 2 3 4 5 6 
#
# 1 0.014746 -0.004684 -0.001117 0.000000 0.000000 0.000000
# 2 -0.004684 0.020564 0.011272 0.000000 0.000000 0.000000
# 3 -0.001117 0.011272 0.066865 0.000000 0.000000 0.000000
# 4 0.000000 0.000000 0.000000 0.041460 0.000000 0.000000
# 5 0.000000 0.000000 0.000000 0.000000 -0.017700 0.000000
# 6 0.000000 0.000000 0.000000 0.000000 0.000000 -0.313681
#
#
# Mechanical properties :
#
#
# Convention : Reuss Voigt Hill
#
# Bulk Modulus (GPa) = 8.84049 17.83782 13.33915
# Shear Modulus (GPa) = -31.05947 2.29962 -14.37993
#
# Velocity S-wave (km/s) = -4.07020 1.10751 -2.76947
# Velocity P-wave (km/s) = 4.16814 3.33913 1.76403
#
# Compressibility (1/GPa) = 0.11311589
#
# Stress axis : x y z
#
# Youngs Moduli (GPa) = 67.81412 48.62935 14.95554
#
# Poissons Ratio (x) = 0.22779 0.01670
# Poissons Ratio (y) = 0.31766 -0.16857
# Poissons Ratio (z) = 0.07573 -0.54813
#
# Static dielectric constant tensor:
#      x y z
#    x 1.657840 0.000000 0.000000 
#    y 0.000000 1.649080 0.000000 
#    z 0.000000 0.000000 1.633890 
# 
# From -- ./inp_files/9603.got.cif
#   From: 2010.05.17/outbox.cif.g08.bks.cpg/sg65_5_cif.got.tgz:9603.got - 2010.06.03 17:01:31.
