data_PCOD9488935
_publ_section_title
;
Structure prediction by ZEFSAII (Michael W. Deem and Ramdas Pophale) SiO2 
 PCOD9488935
Probable space group: C M M M
;
_chemical_formula_sum "Si O2"
_cell_formula_units_Z 116
_cell_length_a 18.769575
_cell_length_b 14.866038
_cell_length_c 22.940330
_cell_angle_alpha 90.000000
_cell_angle_beta 90.000000
_cell_angle_gamma 90.000000
_cell_volume 6401.022276
_symmetry_space_group_name_H-M "C M M M"
_symmetry_group_IT_number 65
_symmetry_cell_setting 'orthorhombic'
loop_
_space_group_symop_operation_xyz
x,y,z
-x,-y,z
x,-y,-z
-x,y,-z
-x,-y,-z
x,y,-z
-x,y,z
x,-y,z
1/2+x,1/2+y,z
1/2-x,1/2-y,z
1/2+x,1/2-y,-z
1/2-x,1/2+y,-z
1/2-x,1/2-y,-z
1/2+x,1/2+y,-z
1/2-x,1/2+y,z
1/2+x,1/2-y,z
loop_
_atom_site_type_symbol
_atom_site_label
_atom_site_fract_x
_atom_site_fract_y
_atom_site_fract_z
Si Si1 0.250914 0.000000 0.500000
Si Si2 0.801346 0.338120 0.065192
Si Si3 0.702465 0.399106 0.163845
Si Si4 0.780265 0.150669 0.403520
Si Si5 0.784342 0.606502 0.721401
Si Si6 0.581219 0.262730 0.130777
Si Si7 0.416757 0.604872 0.653652
Si Si8 0.079174 0.274352 0.733708
O O1 0.247559 0.078799 0.550714
O O2 0.750000 0.250000 0.063288
O O3 0.763637 0.397006 0.114544
O O4 0.878215 0.304967 0.087520
O O5 0.803900 0.376112 0.000000
O O6 0.680222 0.500000 0.177489
O O7 0.738826 0.360515 0.222529
O O8 0.634881 0.346281 0.138831
O O9 0.750000 0.250000 0.415517
O O10 0.756925 0.123524 0.338216
O O11 0.865937 0.141672 0.397578
O O12 0.797120 0.500000 0.729723
O O13 0.857486 0.660923 0.715336
O O14 0.500000 0.283775 0.113189
O O15 0.578857 0.224743 0.196387
O O16 0.500000 0.606619 0.637169
O O17 0.398736 0.500000 0.666925
O O18 0.409433 0.673721 0.708048
O O19 0.000000 0.302347 0.713380
#
# Coordination Sequence:
#
# PCOD9488935 Si02
#       8
#     4  16  16  16  16  16  16  16
#     4  12  26  44  57  94 125 150 208 250 296 348
#     4   9  18  34  55  76 106 152 199 240 280 338
#     4  10  21  34  55  87 117 148 196 243 296 358
#     4  12  23  39  63  87 118 160 198 246 296 354
#     4  11  21  36  60  88 117 156 198 250 300 353
#     4  10  20  33  52  81 117 152 190 240 292 356
#     4  10  20  36  59  90 123 154 193 241 299 360
#     4  10  20  34  57  88 121 156 195 244 301 354
#
# _framework density 18.122105999999999
#
# number of rings (size 3 to 8) (size 9 to 14) (size 15 to 20)
#    0.000    1.655    4.138    1.034    0.000    2.759 
#    0.000    2.069    0.000    0.414    0.000    7.241 
#    0.000    0.000    0.000    0.000    0.000    0.000 
#
# Total GULP energy -322917.463994 kJ/mol
# GULP energy per Si atom -5567.542483 kJ/mol
# Density = 1.808086 g / cm^3
# Si number density = 18.122106 Si / 1000 Ang^3
#
#
#
# Elastic Constant Matrix: (Units=GPa)
#
#
# Indices 1 2 3 4 5 6 
#
# 1 133.6838 47.1263 26.4179 0.0000 0.0000 0.0000
# 2 47.1263 90.8190 26.7478 0.0000 0.0000 0.0000
# 3 26.4179 26.7478 90.7777 0.0000 0.0000 0.0000
# 4 0.0000 0.0000 0.0000 5.6353 0.0000 0.0000
# 5 0.0000 0.0000 0.0000 0.0000 -6.9119 0.0000
# 6 0.0000 0.0000 0.0000 0.0000 0.0000 23.9702
#
#
#
# Elastic Compliance Matrix: (Units=1/GPa)
#
#
# Indices 1 2 3 4 5 6 
#
# 1 0.009317 -0.004419 -0.001409 0.000000 0.000000 0.000000
# 2 -0.004419 0.014154 -0.002884 0.000000 0.000000 0.000000
# 3 -0.001409 -0.002884 0.012276 0.000000 0.000000 0.000000
# 4 0.000000 0.000000 0.000000 0.177452 0.000000 0.000000
# 5 0.000000 0.000000 0.000000 0.000000 -0.144678 0.000000
# 6 0.000000 0.000000 0.000000 0.000000 0.000000 0.041718
#
#
# Mechanical properties :
#
#
# Convention : Reuss Voigt Hill
#
# Bulk Modulus (GPa) = 54.58356 57.31828 55.95092
# Shear Modulus (GPa) = 37.37727 18.87130 28.12428
#
# Velocity S-wave (km/s) = 4.54643 3.23048 3.94373
# Velocity P-wave (km/s) = 7.59903 6.75369 7.18880
#
# Compressibility (1/GPa) = 0.01832053
#
# Stress axis : x y z
#
# Youngs Moduli (GPa) = 107.33342 70.65311 81.46074
#
# Poissons Ratio (x) = 0.31225 0.11479
# Poissons Ratio (y) = 0.47436 0.23495
# Poissons Ratio (z) = 0.15125 0.20378
#
# Static dielectric constant tensor:
#      x y z
#    x 1.664490 0.000000 0.000000 
#    y 0.000000 1.627830 0.000000 
#    z 0.000000 0.000000 1.623860 
# 
# From -- ./inp_files/70596.got.cif
#   From: 2010.05.17/outbox.cif.g08.bks.cpg/sg65_36_cif.got.tgz:70596.got - 2010.06.03 17:01:31.
