data_PCOD9488654
_publ_section_title
;
Structure prediction by ZEFSAII (Michael W. Deem and Ramdas Pophale) SiO2 
 PCOD9488654
Probable space group: C M M M
;
_chemical_formula_sum "Si O2"
_cell_formula_units_Z 104
_cell_length_a 26.495960
_cell_length_b 20.604737
_cell_length_c 9.744530
_cell_angle_alpha 90.000000
_cell_angle_beta 90.000000
_cell_angle_gamma 90.000000
_cell_volume 5319.950997
_symmetry_space_group_name_H-M "C M M M"
_symmetry_group_IT_number 65
_symmetry_cell_setting 'orthorhombic'
loop_
_space_group_symop_operation_xyz
x,y,z
-x,-y,z
x,-y,-z
-x,y,-z
-x,-y,-z
x,y,-z
-x,y,z
x,-y,z
1/2+x,1/2+y,z
1/2-x,1/2-y,z
1/2+x,1/2-y,-z
1/2-x,1/2+y,-z
1/2-x,1/2-y,-z
1/2+x,1/2+y,-z
1/2-x,1/2+y,z
1/2+x,1/2-y,z
loop_
_atom_site_type_symbol
_atom_site_label
_atom_site_fract_x
_atom_site_fract_y
_atom_site_fract_z
Si Si1 0.000000 0.574756 0.332415
Si Si2 0.408100 0.429576 0.336929
Si Si3 0.849040 0.750367 0.843025
Si Si4 0.556778 0.285240 0.664446
Si Si5 0.687353 0.602669 0.159793
Si Si6 0.607759 0.922666 0.654091
Si Si7 0.199946 0.383242 0.162519
O O1 0.053873 0.604662 0.294095
O O2 0.000000 0.500000 0.282656
O O3 0.000000 0.573778 0.500000
O O4 0.398330 0.426933 0.500000
O O5 0.432766 0.500000 0.308439
O O6 0.437519 0.362936 0.304521
O O7 0.355766 0.427099 0.254026
O O8 0.896958 0.751089 0.742096
O O9 0.822584 0.820059 0.834741
O O10 0.808827 0.693731 0.816392
O O11 0.867170 0.741751 0.000000
O O12 0.561966 0.277015 0.500000
O O13 0.500000 0.264561 0.702855
O O14 0.744922 0.592171 0.205184
O O15 0.682104 0.582703 0.000000
O O16 0.617910 0.897377 0.500000
O O17 0.654079 0.912696 0.753668
O O18 0.600145 0.000000 0.642085
O O19 0.195512 0.396134 0.000000
#
# Coordination Sequence:
#
# PCOD9488654 Si02
#       7
#     8  16  16  16  16  16  16
#     4   7  12  28  51  67  83 115 155 187 218 265
#     4   9  18  32  50  74 103 133 166 204 246 292
#     4   9  18  34  53  71  94 128 167 204 244 291
#     4   9  18  33  52  74 101 132 166 205 248 293
#     4   9  18  33  52  70  94 130 167 202 242 289
#     4   9  18  33  52  72  95 125 160 196 236 286
#     4  10  20  33  50  74  99 125 161 204 247 292
#
# _framework density 19.549052
#
# number of rings (size 3 to 8) (size 9 to 14) (size 15 to 20)
#    0.000    3.000    0.000    1.385    0.000    4.923 
#    1.385    5.000    0.000    6.000    0.000    4.308 
#    0.000    0.000    0.000    0.000    0.000    0.000 
#
# Total GULP energy -289786.534840 kJ/mol
# GULP energy per Si atom -5572.817978 kJ/mol
# Density = 1.950456 g / cm^3
# Si number density = 19.549052 Si / 1000 Ang^3
#
#
#
# Elastic Constant Matrix: (Units=GPa)
#
#
# Indices 1 2 3 4 5 6 
#
# 1 116.6509 -10.8936 28.8171 0.0000 0.0000 0.0000
# 2 -10.8936 28.8892 2.3905 0.0000 0.0000 0.0000
# 3 28.8171 2.3905 13.9327 0.0000 0.0000 0.0000
# 4 0.0000 0.0000 0.0000 21.4222 0.0000 0.0000
# 5 0.0000 0.0000 0.0000 0.0000 25.6784 0.0000
# 6 0.0000 0.0000 0.0000 0.0000 0.0000 26.7961
#
#
#
# Elastic Compliance Matrix: (Units=1/GPa)
#
#
# Indices 1 2 3 4 5 6 
#
# 1 0.020730 0.011528 -0.044853 0.000000 0.000000 0.000000
# 2 0.011528 0.041525 -0.030969 0.000000 0.000000 0.000000
# 3 -0.044853 -0.030969 0.169858 0.000000 0.000000 0.000000
# 4 0.000000 0.000000 0.000000 0.046681 0.000000 0.000000
# 5 0.000000 0.000000 0.000000 0.000000 0.038943 0.000000
# 6 0.000000 0.000000 0.000000 0.000000 0.000000 0.037319
#
#
# Mechanical properties :
#
#
# Convention : Reuss Voigt Hill
#
# Bulk Modulus (GPa) = 9.65950 22.23342 15.94646
# Shear Modulus (GPa) = 9.64969 24.05659 16.85314
#
# Velocity S-wave (km/s) = 2.22415 3.51176 2.93933
# Velocity P-wave (km/s) = 3.39819 5.27647 4.43784
#
# Compressibility (1/GPa) = 0.10352497
#
# Stress axis : x y z
#
# Youngs Moduli (GPa) = 48.24008 24.08207 5.88726
#
# Poissons Ratio (x) = -0.27762 0.26406
# Poissons Ratio (y) = -0.55612 0.18232
# Poissons Ratio (z) = 2.16373 0.74579
#
# Static dielectric constant tensor:
#      x y z
#    x 1.671120 0.000000 0.000000 
#    y 0.000000 1.767510 0.000000 
#    z 0.000000 0.000000 1.648120 
# 
# From -- ./inp_files/14764.got.cif
#   From: 2010.05.17/outbox.cif.g08.bks.cpg/sg65_8_cif.got.tgz:14764.got - 2010.06.03 17:01:31.
