data_PCOD9488036
_publ_section_title
;
Structure prediction by ZEFSAII (Michael W. Deem and Ramdas Pophale) SiO2 
 PCOD9488036
Probable space group: C M M M
;
_chemical_formula_sum "Si O2"
_cell_formula_units_Z 116
_cell_length_a 23.767715
_cell_length_b 32.913931
_cell_length_c 7.418998
_cell_angle_alpha 90.000000
_cell_angle_beta 90.000000
_cell_angle_gamma 90.000000
_cell_volume 5803.800019
_symmetry_space_group_name_H-M "C M M M"
_symmetry_group_IT_number 65
_symmetry_cell_setting 'orthorhombic'
loop_
_space_group_symop_operation_xyz
x,y,z
-x,-y,z
x,-y,-z
-x,y,-z
-x,-y,-z
x,y,-z
-x,y,z
x,-y,z
1/2+x,1/2+y,z
1/2-x,1/2-y,z
1/2+x,1/2-y,-z
1/2-x,1/2+y,-z
1/2-x,1/2-y,-z
1/2+x,1/2+y,-z
1/2-x,1/2+y,z
1/2+x,1/2-y,z
loop_
_atom_site_type_symbol
_atom_site_label
_atom_site_fract_x
_atom_site_fract_y
_atom_site_fract_z
Si Si1 0.437667 0.825958 0.787535
Si Si2 0.166905 0.270018 0.715418
Si Si3 0.000000 0.932305 0.000000
Si Si4 0.062979 0.418423 0.292643
Si Si5 0.218003 0.187824 0.720121
Si Si6 0.320605 0.953553 0.279609
Si Si7 0.788282 0.095805 0.280820
Si Si8 0.901973 0.951288 0.714278
O O1 0.500000 0.813384 0.724878
O O2 0.390871 0.792280 0.756183
O O3 0.424920 0.870082 0.706114
O O4 0.439950 0.833177 0.000000
O O5 0.171713 0.268564 0.500000
O O6 0.175795 0.223748 0.778633
O O7 0.220024 0.296962 0.777297
O O8 0.950871 0.934959 0.158048
O O9 0.059370 0.432183 0.500000
O O10 0.117661 0.440124 0.213892
O O11 0.000000 0.424103 0.213877
O O12 0.217432 0.186926 0.500000
O O13 0.206067 0.142320 0.781060
O O14 0.321690 0.951442 0.500000
O O15 0.270164 0.924333 0.219822
O O16 0.308839 0.000000 0.230534
O O17 0.785985 0.096472 0.500000
O O18 0.842445 0.068982 0.235194
O O19 0.912063 0.943427 0.500000
O O20 0.899342 0.000000 0.737325
#
# Coordination Sequence:
#
# PCOD9488036 Si02
#       8
#    16  16   4  16  16  16  16  16
#     4  10  20  32  47  67  96 131 165 206 253 297
#     4   9  16  29  52  77  98 123 165 208 248 300
#     4  12  23  38  60  82 110 138 172 226 272 314
#     4   9  17  29  47  72 100 134 178 218 251 297
#     4   8  15  28  50  78 102 128 160 205 253 297
#     4   9  16  26  45  75 107 136 167 210 262 306
#     4   9  16  28  49  75 105 137 171 208 254 315
#     4  10  20  34  56  83 108 140 180 219 265 323
#
# _framework density 19.986905
#
# number of rings (size 3 to 8) (size 9 to 14) (size 15 to 20)
#    0.000    2.759    0.000    3.310    0.000    5.517 
#    0.000    2.759    9.103    0.414    0.000    1.931 
#    0.000    0.000    0.000    0.000    0.000    0.000 
#
# Total GULP energy -323035.750906 kJ/mol
# GULP energy per Si atom -5569.581912 kJ/mol
# Density = 1.994141 g / cm^3
# Si number density = 19.986905 Si / 1000 Ang^3
#
#
#
# Elastic Constant Matrix: (Units=GPa)
#
#
# Indices 1 2 3 4 5 6 
#
# 1 78.4666 12.4475 12.6590 0.0000 0.0000 0.0000
# 2 12.4475 27.6502 -0.2770 0.0000 0.0000 0.0000
# 3 12.6590 -0.2770 71.8145 0.0000 0.0000 0.0000
# 4 0.0000 0.0000 0.0000 -50.6360 0.0000 0.0000
# 5 0.0000 0.0000 0.0000 0.0000 7.8378 0.0000
# 6 0.0000 0.0000 0.0000 0.0000 0.0000 -75.7050
#
#
#
# Elastic Compliance Matrix: (Units=1/GPa)
#
#
# Indices 1 2 3 4 5 6 
#
# 1 0.014167 -0.006403 -0.002522 0.000000 0.000000 0.000000
# 2 -0.006403 0.039061 0.001279 0.000000 0.000000 0.000000
# 3 -0.002522 0.001279 0.014374 0.000000 0.000000 0.000000
# 4 0.000000 0.000000 0.000000 -0.019749 0.000000 0.000000
# 5 0.000000 0.000000 0.000000 0.000000 0.127587 0.000000
# 6 0.000000 0.000000 0.000000 0.000000 0.000000 -0.013209
#
#
# Mechanical properties :
#
#
# Convention : Reuss Voigt Hill
#
# Bulk Modulus (GPa) = 19.11625 25.28780 22.20203
# Shear Modulus (GPa) = 25.64632 -13.49385 6.07624
#
# Velocity S-wave (km/s) = 3.58600 -2.60115 1.74548
# Velocity P-wave (km/s) = 5.17021 1.91267 3.89804
#
# Compressibility (1/GPa) = 0.05231152
#
# Stress axis : x y z
#
# Youngs Moduli (GPa) = 70.58736 25.60078 69.56880
#
# Poissons Ratio (x) = 0.16392 0.17545
# Poissons Ratio (y) = 0.45196 -0.08900
# Poissons Ratio (z) = 0.17802 -0.03275
#
# Static dielectric constant tensor:
#      x y z
#    x 1.699120 0.000000 0.000000 
#    y 0.000000 1.686230 0.000000 
#    z 0.000000 0.000000 1.624840 
# 
# From -- ./inp_files/15134.got.cif
#   From: 2010.05.17/outbox.cif.g08.bks.cpg/sg65_8_cif.got.tgz:15134.got - 2010.06.03 17:01:31.
