data_PCOD9488157
_publ_section_title
;
Structure prediction by ZEFSAII (Michael W. Deem and Ramdas Pophale) SiO2 
 PCOD9488157
Probable space group: C M M M
;
_chemical_formula_sum "Si O2"
_cell_formula_units_Z 88
_cell_length_a 8.984547
_cell_length_b 27.845288
_cell_length_c 21.716333
_cell_angle_alpha 90.000000
_cell_angle_beta 90.000000
_cell_angle_gamma 90.000000
_cell_volume 5432.933529
_symmetry_space_group_name_H-M "C M M M"
_symmetry_group_IT_number 65
_symmetry_cell_setting 'orthorhombic'
loop_
_space_group_symop_operation_xyz
x,y,z
-x,-y,z
x,-y,-z
-x,y,-z
-x,-y,-z
x,y,-z
-x,y,z
x,-y,z
1/2+x,1/2+y,z
1/2-x,1/2-y,z
1/2+x,1/2-y,-z
1/2-x,1/2+y,-z
1/2-x,1/2-y,-z
1/2+x,1/2+y,-z
1/2-x,1/2+y,z
1/2+x,1/2-y,z
loop_
_atom_site_type_symbol
_atom_site_label
_atom_site_fract_x
_atom_site_fract_y
_atom_site_fract_z
Si Si1 0.820410 0.697207 0.500000
Si Si2 0.321887 0.100464 0.810677
Si Si3 0.178253 0.944670 0.690245
Si Si4 0.822565 0.942791 0.069971
Si Si5 0.677680 0.800655 0.749792
Si Si6 0.679468 0.855761 0.374031
O O1 0.750000 0.750000 0.500000
O O2 0.778138 0.667584 0.438878
O O3 0.000000 0.702098 0.500000
O O4 0.500000 0.095434 0.805721
O O5 0.246262 0.069074 0.756796
O O6 0.264769 0.084253 0.876853
O O7 0.282885 0.155766 0.795423
O O8 0.245664 0.906440 0.642322
O O9 0.000000 0.939612 0.692771
O O10 0.214059 0.000000 0.675536
O O11 0.000000 0.935090 0.077080
O O12 0.796871 0.000000 0.076114
O O13 0.781304 0.928999 0.000000
O O14 0.500000 0.795302 0.750477
O O15 0.750000 0.750000 0.764042
O O16 0.720407 0.819626 0.681656
O O17 0.500000 0.861777 0.372369
#
# Coordination Sequence:
#
# PCOD9488157 Si02
#       6
#     8  16  16  16  16  16
#     4  10  20  34  53  76 101 129 162 201 245 294
#     4  10  20  32  48  73 101 127 159 199 241 287
#     4  10  20  33  50  72  97 127 164 202 240 285
#     4   9  18  32  49  71 100 131 162 196 234 280
#     4   9  18  31  47  69  95 122 155 196 239 282
#     4   9  19  34  50  72 100 127 159 198 241 290
#
# _framework density 16.197510999999999
#
# number of rings (size 3 to 8) (size 9 to 14) (size 15 to 20)
#    0.000    2.545    0.000    3.818    0.000    8.727 
#    0.000    1.364    0.000    3.273    0.000    0.000 
#    0.000    0.000    0.000    0.000    0.000    0.000 
#
# Total GULP energy -245405.914751 kJ/mol
# GULP energy per Si atom -5577.407153 kJ/mol
# Density = 1.616064 g / cm^3
# Si number density = 16.197511 Si / 1000 Ang^3
#
#
#
# Elastic Constant Matrix: (Units=GPa)
#
#
# Indices 1 2 3 4 5 6 
#
# 1 36.4640 51.9358 45.7607 0.0000 0.0000 0.0000
# 2 51.9358 130.2222 75.1705 0.0000 0.0000 0.0000
# 3 45.7607 75.1705 131.5267 0.0000 0.0000 0.0000
# 4 0.0000 0.0000 0.0000 16.3818 0.0000 0.0000
# 5 0.0000 0.0000 0.0000 0.0000 23.1852 0.0000
# 6 0.0000 0.0000 0.0000 0.0000 0.0000 32.8452
#
#
#
# Elastic Compliance Matrix: (Units=1/GPa)
#
#
# Indices 1 2 3 4 5 6 
#
# 1 0.077368 -0.022860 -0.013853 0.000000 0.000000 0.000000
# 2 -0.022860 0.018214 -0.002457 0.000000 0.000000 0.000000
# 3 -0.013853 -0.002457 0.013827 0.000000 0.000000 0.000000
# 4 0.000000 0.000000 0.000000 0.061043 0.000000 0.000000
# 5 0.000000 0.000000 0.000000 0.000000 0.043131 0.000000
# 6 0.000000 0.000000 0.000000 0.000000 0.000000 0.030446
#
#
# Mechanical properties :
#
#
# Convention : Reuss Voigt Hill
#
# Bulk Modulus (GPa) = 32.18466 71.54965 51.86715
# Shear Modulus (GPa) = 15.02741 22.83882 18.93311
#
# Velocity S-wave (km/s) = 3.04922 3.75910 3.42261
# Velocity P-wave (km/s) = 5.68421 7.94419 6.90726
#
# Compressibility (1/GPa) = 0.03107071
#
# Stress axis : x y z
#
# Youngs Moduli (GPa) = 12.92516 54.90211 72.32368
#
# Poissons Ratio (x) = 1.25505 1.00191
# Poissons Ratio (y) = 0.29547 0.17766
# Poissons Ratio (z) = 0.17905 0.13487
#
# Static dielectric constant tensor:
#      x y z
#    x 1.544000 0.000000 0.000000 
#    y 0.000000 1.525470 0.000000 
#    z 0.000000 0.000000 1.530930 
# 
# From -- ./inp_files/59780.got.cif
#   From: 2010.05.17/outbox.cif.g08.bks.cpg/sg65_30_cif.got.tgz:59780.got - 2010.06.03 17:01:31.
