data_PCOD9488476
_publ_section_title
;
Structure prediction by ZEFSAII (Michael W. Deem and Ramdas Pophale) SiO2 
 PCOD9488476
Probable space group: C M M M
;
_chemical_formula_sum "Si O2"
_cell_formula_units_Z 96
_cell_length_a 14.345655
_cell_length_b 19.257389
_cell_length_c 14.314102
_cell_angle_alpha 90.000000
_cell_angle_beta 90.000000
_cell_angle_gamma 90.000000
_cell_volume 3954.411797
_symmetry_space_group_name_H-M "C M M M"
_symmetry_group_IT_number 65
_symmetry_cell_setting 'orthorhombic'
loop_
_space_group_symop_operation_xyz
x,y,z
-x,-y,z
x,-y,-z
-x,y,-z
-x,-y,-z
x,y,-z
-x,y,z
x,-y,z
1/2+x,1/2+y,z
1/2-x,1/2-y,z
1/2+x,1/2-y,-z
1/2-x,1/2+y,-z
1/2-x,1/2-y,-z
1/2+x,1/2+y,-z
1/2-x,1/2+y,z
1/2+x,1/2-y,z
loop_
_atom_site_type_symbol
_atom_site_label
_atom_site_fract_x
_atom_site_fract_y
_atom_site_fract_z
Si Si1 0.597832 0.897686 0.607623
Si Si2 0.397030 0.733944 0.360160
Si Si3 0.393323 0.714089 0.861553
Si Si4 0.795803 0.922189 0.184574
Si Si5 0.611046 0.870569 0.104806
Si Si6 0.694303 0.598177 0.606400
O O1 0.588212 0.916070 0.500000
O O2 0.500000 0.917542 0.655349
O O3 0.605946 0.814035 0.613409
O O4 0.700208 0.923849 0.627054
O O5 0.500000 0.707072 0.388242
O O6 0.389998 0.730118 0.249054
O O7 0.320920 0.681128 0.397800
O O8 0.500000 0.703150 0.889879
O O9 0.338719 0.642334 0.873114
O O10 0.363161 0.788565 0.900562
O O11 0.684095 0.905965 0.175367
O O12 0.843863 0.919602 0.289266
O O13 0.811261 0.000000 0.148998
O O14 0.500000 0.873907 0.129702
O O15 0.621051 0.900127 0.000000
O O16 0.667616 0.574731 0.500000
#
# Coordination Sequence:
#
# PCOD9488476 Si02
#       6
#    16  16  16  16  16  16
#     4   9  16  25  40  65  96 130 174 233 296 349
#     4   9  16  27  46  74 108 144 186 240 297 347
#     4   9  19  37  61  88 119 156 198 245 296 353
#     4  11  24  39  58  88 125 165 206 249 301 359
#     4  10  22  42  69  97 122 152 194 245 302 366
#     4  10  20  33  49  71 106 155 206 249 288 338
#
# _framework density 24.276679999999999
#
# number of rings (size 3 to 8) (size 9 to 14) (size 15 to 20)
#    0.000    2.333    0.000    2.500    0.000    9.667 
#    0.000    0.833    0.000    0.000    0.000   11.667 
#    0.000    0.000    0.000    0.000    0.000    0.000 
#
# Total GULP energy -267296.364220 kJ/mol
# GULP energy per Si atom -5568.674255 kJ/mol
# Density = 2.422143 g / cm^3
# Si number density = 24.276680 Si / 1000 Ang^3
#
#
#
# Elastic Constant Matrix: (Units=GPa)
#
#
# Indices 1 2 3 4 5 6 
#
# 1 52.5303 26.4152 0.3071 0.0000 0.0000 0.0000
# 2 26.4152 124.7425 13.3236 0.0000 0.0000 0.0000
# 3 0.3071 13.3236 125.1679 0.0000 0.0000 0.0000
# 4 0.0000 0.0000 0.0000 -21.9922 0.0000 0.0000
# 5 0.0000 0.0000 0.0000 0.0000 -2.1184 0.0000
# 6 0.0000 0.0000 0.0000 0.0000 0.0000 -20.2116
#
#
#
# Elastic Compliance Matrix: (Units=1/GPa)
#
#
# Indices 1 2 3 4 5 6 
#
# 1 0.021329 -0.004563 0.000433 0.000000 0.000000 0.000000
# 2 -0.004563 0.009085 -0.000956 0.000000 0.000000 0.000000
# 3 0.000433 -0.000956 0.008090 0.000000 0.000000 0.000000
# 4 0.000000 0.000000 0.000000 -0.045471 0.000000 0.000000
# 5 0.000000 0.000000 0.000000 0.000000 -0.472055 0.000000
# 6 0.000000 0.000000 0.000000 0.000000 0.000000 -0.049476
#
#
# Mechanical properties :
#
#
# Convention : Reuss Voigt Hill
#
# Bulk Modulus (GPa) = 35.29482 42.50360 38.89921
# Shear Modulus (GPa) = -9.82543 8.62854 -0.59845
#
# Velocity S-wave (km/s) = -2.01397 1.88732 -0.49704
# Velocity P-wave (km/s) = 3.02689 4.72179 3.96594
#
# Compressibility (1/GPa) = 0.02833277
#
# Stress axis : x y z
#
# Youngs Moduli (GPa) = 46.88560 110.07385 123.61012
#
# Poissons Ratio (x) = 0.50224 -0.05357
# Poissons Ratio (y) = 0.21393 0.11815
# Poissons Ratio (z) = -0.02032 0.10521
#
# Static dielectric constant tensor:
#      x y z
#    x 2.041110 0.000000 0.000000 
#    y 0.000000 1.935810 0.000000 
#    z 0.000000 0.000000 1.963970 
# 
# From -- ./inp_files/40364.got.cif
#   From: 2010.05.17/outbox.cif.g08.bks.cpg/sg65_21_cif.got.tgz:40364.got - 2010.06.03 17:01:31.
