data_PCOD9488576
_publ_section_title
;
Structure prediction by ZEFSAII (Michael W. Deem and Ramdas Pophale) SiO2 
 PCOD9488576
Probable space group: C M M M
;
_chemical_formula_sum "Si O2"
_cell_formula_units_Z 96
_cell_length_a 9.320913
_cell_length_b 14.364914
_cell_length_c 32.082248
_cell_angle_alpha 90.000000
_cell_angle_beta 90.000000
_cell_angle_gamma 90.000000
_cell_volume 4295.624160
_symmetry_space_group_name_H-M "C M M M"
_symmetry_group_IT_number 65
_symmetry_cell_setting 'orthorhombic'
loop_
_space_group_symop_operation_xyz
x,y,z
-x,-y,z
x,-y,-z
-x,y,-z
-x,-y,-z
x,y,-z
-x,y,z
x,-y,z
1/2+x,1/2+y,z
1/2-x,1/2-y,z
1/2+x,1/2-y,-z
1/2-x,1/2+y,-z
1/2-x,1/2-y,-z
1/2+x,1/2+y,-z
1/2-x,1/2+y,z
1/2+x,1/2-y,z
loop_
_atom_site_type_symbol
_atom_site_label
_atom_site_fract_x
_atom_site_fract_y
_atom_site_fract_z
Si Si1 0.336628 0.613613 0.709702
Si Si2 0.663667 0.114016 0.792167
Si Si3 0.334818 0.613454 0.546686
Si Si4 0.671699 0.849169 0.954096
Si Si5 0.836923 0.386195 0.627762
Si Si6 0.339917 0.607936 0.871654
O O1 0.500000 0.646982 0.711881
O O2 0.340823 0.500000 0.709690
O O3 0.245879 0.640707 0.750147
O O4 0.259215 0.641506 0.667062
O O5 0.500000 0.147133 0.792663
O O6 0.750029 0.146031 0.832924
O O7 0.658585 0.000000 0.792675
O O8 0.289553 0.641164 0.500000
O O9 0.500000 0.642668 0.553418
O O10 0.335650 0.500000 0.547168
O O11 0.233055 0.643046 0.584141
O O12 0.500000 0.842471 0.948218
O O13 0.750000 0.750000 0.956393
O O14 0.747783 0.891233 0.913878
O O15 0.694598 0.893268 0.000000
O O16 0.839510 0.500000 0.627799
O O17 0.000000 0.353761 0.632046
O O18 0.500000 0.649577 0.877131
O O19 0.359510 0.500000 0.861224
#
# Coordination Sequence:
#
# PCOD9488576 Si02
#       6
#    16  16  16  16  16  16
#     4   9  15  22  32  45  63  88 117 149 189 240
#     4   9  16  26  40  58  81 107 135 169 210 255
#     4   8  13  20  27  33  43  62  90 127 174 227
#     4  10  21  37  56  76  99 128 161 196 234 276
#     4   9  15  20  26  37  52  71  99 136 179 229
#     4  10  20  33  50  73 100 128 158 192 231 276
#
# _framework density 22.348324999999999
#
# number of rings (size 3 to 8) (size 9 to 14) (size 15 to 20)
#    0.000    2.833    0.000    3.000    0.000    8.667 
#    0.000    3.333    0.000    0.000    0.000    0.000 
#    0.000    0.000    0.000    0.000    0.000    0.000 
#
# Total GULP energy -268104.929372 kJ/mol
# GULP energy per Si atom -5585.519362 kJ/mol
# Density = 2.229746 g / cm^3
# Si number density = 22.348325 Si / 1000 Ang^3
#
#
#
# Elastic Constant Matrix: (Units=GPa)
#
#
# Indices 1 2 3 4 5 6 
#
# 1 225.6819 11.9252 148.8660 0.0000 0.0000 0.0000
# 2 11.9252 61.2651 3.1724 0.0000 0.0000 0.0000
# 3 148.8660 3.1724 222.0589 0.0000 0.0000 0.0000
# 4 0.0000 0.0000 0.0000 -32.0271 0.0000 0.0000
# 5 0.0000 0.0000 0.0000 0.0000 48.5053 0.0000
# 6 0.0000 0.0000 0.0000 0.0000 0.0000 5.5057
#
#
#
# Elastic Compliance Matrix: (Units=1/GPa)
#
#
# Indices 1 2 3 4 5 6 
#
# 1 0.008044 -0.001287 -0.005374 0.000000 0.000000 0.000000
# 2 -0.001287 0.016541 0.000627 0.000000 0.000000 0.000000
# 3 -0.005374 0.000627 0.008097 0.000000 0.000000 0.000000
# 4 0.000000 0.000000 0.000000 -0.031224 0.000000 0.000000
# 5 0.000000 0.000000 0.000000 0.000000 0.020616 0.000000
# 6 0.000000 0.000000 0.000000 0.000000 0.000000 0.181631
#
#
# Mechanical properties :
#
#
# Convention : Reuss Voigt Hill
#
# Bulk Modulus (GPa) = 48.51527 92.99256 70.75391
# Shear Modulus (GPa) = 22.45716 27.39959 24.92838
#
# Velocity S-wave (km/s) = 3.17341 3.50526 3.34345
# Velocity P-wave (km/s) = 5.93154 7.62124 6.82885
#
# Compressibility (1/GPa) = 0.02061207
#
# Stress axis : x y z
#
# Youngs Moduli (GPa) = 124.31542 60.45704 123.49944
#
# Poissons Ratio (x) = 0.07784 0.66372
# Poissons Ratio (y) = 0.16005 -0.07741
# Poissons Ratio (z) = 0.66810 -0.03790
#
# Static dielectric constant tensor:
#      x y z
#    x 1.783270 0.000000 0.000000 
#    y 0.000000 2.856520 0.000000 
#    z 0.000000 0.000000 1.788100 
# 
# From -- ./inp_files/73063.got.cif
#   From: 2010.05.17/outbox.cif.g08.bks.cpg/sg65_37_cif.got.tgz:73063.got - 2010.06.03 17:01:31.
