data_PCOD9488842
_publ_section_title
;
Structure prediction by ZEFSAII (Michael W. Deem and Ramdas Pophale) SiO2 
 PCOD9488842
Probable space group: C M M M
;
_chemical_formula_sum "Si O2"
_cell_formula_units_Z 88
_cell_length_a 25.530039
_cell_length_b 10.766578
_cell_length_c 17.942757
_cell_angle_alpha 90.000000
_cell_angle_beta 90.000000
_cell_angle_gamma 90.000000
_cell_volume 4931.946363
_symmetry_space_group_name_H-M "C M M M"
_symmetry_group_IT_number 65
_symmetry_cell_setting 'orthorhombic'
loop_
_space_group_symop_operation_xyz
x,y,z
-x,-y,z
x,-y,-z
-x,y,-z
-x,-y,-z
x,y,-z
-x,y,z
x,-y,z
1/2+x,1/2+y,z
1/2-x,1/2-y,z
1/2+x,1/2-y,-z
1/2-x,1/2+y,-z
1/2-x,1/2-y,-z
1/2+x,1/2+y,-z
1/2-x,1/2+y,z
1/2+x,1/2-y,z
loop_
_atom_site_type_symbol
_atom_site_label
_atom_site_fract_x
_atom_site_fract_y
_atom_site_fract_z
Si Si1 0.601767 0.352678 0.820392
Si Si2 0.102595 0.250639 0.657007
Si Si3 0.791740 0.357234 0.410217
Si Si4 0.000000 0.150772 0.085117
Si Si5 0.500000 0.145024 0.583708
Si Si6 0.938179 0.000000 0.411165
Si Si7 0.290770 0.641896 0.089110
O O1 0.595159 0.500000 0.801973
O O2 0.604412 0.275286 0.744726
O O3 0.552084 0.313851 0.870062
O O4 0.654920 0.341141 0.867494
O O5 0.153773 0.320831 0.628094
O O6 0.051011 0.320963 0.630004
O O7 0.093614 0.118074 0.617682
O O8 0.798340 0.352535 0.500000
O O9 0.776313 0.500000 0.391379
O O10 0.750000 0.250000 0.389901
O O11 0.000000 0.000000 0.081939
O O12 0.000000 0.196038 0.000000
O O13 0.500000 0.204943 0.500000
O O14 0.500000 0.000000 0.573284
O O15 0.939518 0.000000 0.500000
O O16 0.000000 0.000000 0.385105
O O17 0.271923 0.500000 0.104117
O O18 0.250000 0.750000 0.109697
O O19 0.299975 0.650416 0.000000
#
# Coordination Sequence:
#
# PCOD9488842 Si02
#       7
#    16  16  16   8   8   8  16
#     4  10  20  33  51  82 117 147 180 228 288 338
#     4  12  22  36  56  83 117 149 186 239 293 347
#     4  10  23  42  62  83 110 150 199 246 291 346
#     4   9  17  30  52  78 110 151 189 227 275 339
#     4  11  23  39  59  79 105 147 196 246 293 343
#     4  11  22  34  54  84 112 150 194 237 283 339
#     4   9  18  35  59  84 111 146 188 230 273 332
#
# _framework density 17.842853000000002
#
# number of rings (size 3 to 8) (size 9 to 14) (size 15 to 20)
#    0.000    1.727    1.818    3.273    1.273    4.364 
#    0.000    3.636    0.000    0.000    0.000    0.000 
#    0.000    8.000    0.000    0.000    0.000    0.000 
#
# Total GULP energy -245545.737147 kJ/mol
# GULP energy per Si atom -5580.584935 kJ/mol
# Density = 1.780224 g / cm^3
# Si number density = 17.842853 Si / 1000 Ang^3
#
#
#
# Elastic Constant Matrix: (Units=GPa)
#
#
# Indices 1 2 3 4 5 6 
#
# 1 135.8820 68.7347 58.1846 0.0000 0.0000 0.0000
# 2 68.7347 116.4736 47.0720 0.0000 0.0000 0.0000
# 3 58.1846 47.0720 74.8341 0.0000 0.0000 0.0000
# 4 0.0000 0.0000 0.0000 28.5491 0.0000 0.0000
# 5 0.0000 0.0000 0.0000 0.0000 6.5607 0.0000
# 6 0.0000 0.0000 0.0000 0.0000 0.0000 136.9781
#
#
#
# Elastic Compliance Matrix: (Units=1/GPa)
#
#
# Indices 1 2 3 4 5 6 
#
# 1 0.012698 -0.004698 -0.006918 0.000000 0.000000 0.000000
# 2 -0.004698 0.013250 -0.004682 0.000000 0.000000 0.000000
# 3 -0.006918 -0.004682 0.021687 0.000000 0.000000 0.000000
# 4 0.000000 0.000000 0.000000 0.035027 0.000000 0.000000
# 5 0.000000 0.000000 0.000000 0.000000 0.152424 0.000000
# 6 0.000000 0.000000 0.000000 0.000000 0.000000 0.007300
#
#
# Mechanical properties :
#
#
# Convention : Reuss Voigt Hill
#
# Bulk Modulus (GPa) = 66.49134 75.01915 70.75525
# Shear Modulus (GPa) = 17.85751 44.63080 31.24415
#
# Velocity S-wave (km/s) = 3.16701 5.00675 4.18912
# Velocity P-wave (km/s) = 7.12174 8.69247 7.94601
#
# Compressibility (1/GPa) = 0.01503955
#
# Stress axis : x y z
#
# Youngs Moduli (GPa) = 78.75395 75.47142 46.11103
#
# Poissons Ratio (x) = 0.35453 0.31899
# Poissons Ratio (y) = 0.36995 0.21590
# Poissons Ratio (z) = 0.54481 0.35337
#
# Static dielectric constant tensor:
#      x y z
#    x 1.604040 0.000000 0.000000 
#    y 0.000000 1.702850 0.000000 
#    z 0.000000 0.000000 1.590960 
# 
# From -- ./inp_files/51502.got.cif
#   From: 2010.05.17/outbox.cif.g08.bks.cpg/sg65_26_cif.got.tgz:51502.got - 2010.06.03 17:01:31.
