data_PCOD9488652
_publ_section_title
;
Structure prediction by ZEFSAII (Michael W. Deem and Ramdas Pophale) SiO2 
 PCOD9488652
Probable space group: C M M M
;
_chemical_formula_sum "Si O2"
_cell_formula_units_Z 96
_cell_length_a 14.361449
_cell_length_b 22.138899
_cell_length_c 15.194380
_cell_angle_alpha 90.000000
_cell_angle_beta 90.000000
_cell_angle_gamma 90.000000
_cell_volume 4831.002507
_symmetry_space_group_name_H-M "C M M M"
_symmetry_group_IT_number 65
_symmetry_cell_setting 'orthorhombic'
loop_
_space_group_symop_operation_xyz
x,y,z
-x,-y,z
x,-y,-z
-x,y,-z
-x,-y,-z
x,y,-z
-x,y,z
x,-y,z
1/2+x,1/2+y,z
1/2-x,1/2-y,z
1/2+x,1/2-y,-z
1/2-x,1/2+y,-z
1/2-x,1/2-y,-z
1/2+x,1/2+y,-z
1/2-x,1/2+y,z
1/2+x,1/2-y,z
loop_
_atom_site_type_symbol
_atom_site_label
_atom_site_fract_x
_atom_site_fract_y
_atom_site_fract_z
Si Si1 0.372057 0.200212 0.100477
Si Si2 0.888328 0.851615 0.395855
Si Si3 0.807035 0.069113 0.755022
Si Si4 0.896184 0.386037 0.740582
Si Si5 0.653691 0.333269 0.899479
Si Si6 0.387028 0.216600 0.600073
O O1 0.406719 0.153560 0.171634
O O2 0.392681 0.269522 0.126831
O O3 0.261908 0.186249 0.098421
O O4 0.402684 0.192027 0.000000
O O5 0.871020 0.858893 0.500000
O O6 0.840702 0.901487 0.336095
O O7 0.855418 0.783504 0.370975
O O8 0.000000 0.854568 0.382940
O O9 0.693887 0.072525 0.755853
O O10 0.850330 0.112092 0.831135
O O11 0.836330 0.000000 0.764654
O O12 0.866956 0.338138 0.664900
O O13 0.000000 0.411596 0.719942
O O14 0.625765 0.348584 0.000000
O O15 0.354643 0.205725 0.500000
O O16 0.500000 0.220326 0.597102
#
# Coordination Sequence:
#
# PCOD9488652 Si02
#       6
#    16  16  16  16  16  16
#     4   8  14  27  50  77 100 125 163 213 269 319
#     4   9  19  37  60  84 106 125 155 212 279 330
#     4  11  23  35  50  74 103 143 190 219 243 295
#     4  10  20  33  50  74 107 143 176 214 256 299
#     4   8  15  30  51  74 101 131 165 212 266 310
#     4   8  15  30  53  79 102 124 155 200 261 325
#
# _framework density 19.871652000000001
#
# number of rings (size 3 to 8) (size 9 to 14) (size 15 to 20)
#    0.000    3.000    0.000    3.000    0.000    4.333 
#    0.000    2.500    0.000    1.500    0.000    9.333 
#    0.000    0.000    0.000    0.000    0.000    0.000 
#
# Total GULP energy -267608.519626 kJ/mol
# GULP energy per Si atom -5575.177492 kJ/mol
# Density = 1.982642 g / cm^3
# Si number density = 19.871652 Si / 1000 Ang^3
#
#
#
# Elastic Constant Matrix: (Units=GPa)
#
#
# Indices 1 2 3 4 5 6 
#
# 1 52.1126 1.1455 5.4327 0.0000 0.0000 0.0000
# 2 1.1455 92.6069 42.0287 0.0000 0.0000 0.0000
# 3 5.4327 42.0287 63.2932 0.0000 0.0000 0.0000
# 4 0.0000 0.0000 0.0000 -17.5396 0.0000 0.0000
# 5 0.0000 0.0000 0.0000 0.0000 11.2132 0.0000
# 6 0.0000 0.0000 0.0000 0.0000 0.0000 10.2543
#
#
#
# Elastic Compliance Matrix: (Units=1/GPa)
#
#
# Indices 1 2 3 4 5 6 
#
# 1 0.019398 0.000738 -0.002155 0.000000 0.000000 0.000000
# 2 0.000738 0.015484 -0.010345 0.000000 0.000000 0.000000
# 3 -0.002155 -0.010345 0.022854 0.000000 0.000000 0.000000
# 4 0.000000 0.000000 0.000000 -0.057014 0.000000 0.000000
# 5 0.000000 0.000000 0.000000 0.000000 0.089181 0.000000
# 6 0.000000 0.000000 0.000000 0.000000 0.000000 0.097520
#
#
# Mechanical properties :
#
#
# Convention : Reuss Voigt Hill
#
# Bulk Modulus (GPa) = 29.23011 33.91407 31.57209
# Shear Modulus (GPa) = 22.48688 11.41264 16.94976
#
# Velocity S-wave (km/s) = 3.36758 2.39909 2.92372
# Velocity P-wave (km/s) = 5.46463 4.97773 5.22685
#
# Compressibility (1/GPa) = 0.03421129
#
# Stress axis : x y z
#
# Youngs Moduli (GPa) = 51.55263 64.58111 43.75563
#
# Poissons Ratio (x) = -0.04767 0.09430
# Poissons Ratio (y) = -0.03805 0.45267
# Poissons Ratio (z) = 0.11110 0.66812
#
# Static dielectric constant tensor:
#      x y z
#    x 1.807250 0.000000 0.000000 
#    y 0.000000 1.658240 0.000000 
#    z 0.000000 0.000000 1.694550 
# 
# From -- ./inp_files/40393.got.cif
#   From: 2010.05.17/outbox.cif.g08.bks.cpg/sg65_21_cif.got.tgz:40393.got - 2010.06.03 17:01:31.
