data_PCOD9488107
_publ_section_title
;
Structure prediction by ZEFSAII (Michael W. Deem and Ramdas Pophale) SiO2 
 PCOD9488107
Probable space group: C M M M
;
_chemical_formula_sum "Si O2"
_cell_formula_units_Z 120
_cell_length_a 32.544318
_cell_length_b 14.372066
_cell_length_c 14.286436
_cell_angle_alpha 90.000000
_cell_angle_beta 90.000000
_cell_angle_gamma 90.000000
_cell_volume 6682.181656
_symmetry_space_group_name_H-M "C M M M"
_symmetry_group_IT_number 65
_symmetry_cell_setting 'orthorhombic'
loop_
_space_group_symop_operation_xyz
x,y,z
-x,-y,z
x,-y,-z
-x,y,-z
-x,-y,-z
x,y,-z
-x,y,z
x,-y,z
1/2+x,1/2+y,z
1/2-x,1/2-y,z
1/2+x,1/2-y,-z
1/2-x,1/2+y,-z
1/2-x,1/2-y,-z
1/2+x,1/2+y,-z
1/2-x,1/2+y,z
1/2+x,1/2-y,z
loop_
_atom_site_type_symbol
_atom_site_label
_atom_site_fract_x
_atom_site_fract_y
_atom_site_fract_z
Si Si1 0.047689 0.500000 0.886332
Si Si2 0.679948 0.387251 0.609478
Si Si3 0.450880 0.606436 0.394456
Si Si4 0.109071 0.776007 0.285857
Si Si5 0.608866 0.833355 0.890617
Si Si6 0.296212 0.889320 0.896561
Si Si7 0.733651 0.113076 0.302058
Si Si8 0.353820 0.108249 0.610920
O O1 0.074552 0.409000 0.860667
O O2 0.000000 0.500000 0.854090
O O3 0.046745 0.500000 0.000000
O O4 0.674928 0.361315 0.500000
O O5 0.677306 0.500000 0.614483
O O6 0.645517 0.340631 0.674115
O O7 0.724589 0.357191 0.647966
O O8 0.436657 0.630245 0.500000
O O9 0.500000 0.608306 0.394048
O O10 0.437786 0.500000 0.376278
O O11 0.432028 0.676122 0.321205
O O12 0.108513 0.755705 0.176184
O O13 0.116208 0.676296 0.334404
O O14 0.654884 0.875392 0.882267
O O15 0.602272 0.812269 0.000000
O O16 0.272924 0.853282 0.804572
O O17 0.288888 0.000000 0.899543
O O18 0.285509 0.851134 0.000000
O O19 0.692586 0.135224 0.359865
O O20 0.735355 0.000000 0.299322
O O21 0.358688 0.117550 0.500000
O O22 0.359719 0.000000 0.636601
#
# Coordination Sequence:
#
# PCOD9488107 Si02
#       8
#     8  16  16  16  16  16  16  16
#     4   9  18  34  58  84 109 141 183 231 276 314
#     4  10  21  37  56  79 106 139 185 242 293 328
#     4   9  19  38  63  87 109 137 179 229 276 325
#     4  12  22  33  57  81 112 140 184 226 278 331
#     4  10  20  34  53  78 111 146 184 228 271 320
#     4   9  15  28  51  74  99 142 195 234 263 309
#     4   9  17  31  50  72 104 143 184 228 278 327
#     4  10  20  32  47  72 108 148 182 215 263 331
#
# _framework density 17.958207999999999
#
# number of rings (size 3 to 8) (size 9 to 14) (size 15 to 20)
#    0.000    2.200    2.000    2.400    0.933    3.733 
#    0.000    2.000    0.000    4.000    0.000    2.800 
#    0.000    0.000    0.000    0.000    0.000    0.000 
#
# Total GULP energy -334795.546368 kJ/mol
# GULP energy per Si atom -5579.925773 kJ/mol
# Density = 1.791733 g / cm^3
# Si number density = 17.958208 Si / 1000 Ang^3
#
#
#
# Elastic Constant Matrix: (Units=GPa)
#
#
# Indices 1 2 3 4 5 6 
#
# 1 58.9660 25.0353 38.6218 0.0000 0.0000 0.0000
# 2 25.0353 52.1222 37.9032 0.0000 0.0000 0.0000
# 3 38.6218 37.9032 101.4339 0.0000 0.0000 0.0000
# 4 0.0000 0.0000 0.0000 25.4503 0.0000 0.0000
# 5 0.0000 0.0000 0.0000 0.0000 19.7225 0.0000
# 6 0.0000 0.0000 0.0000 0.0000 0.0000 21.9964
#
#
#
# Elastic Compliance Matrix: (Units=1/GPa)
#
#
# Indices 1 2 3 4 5 6 
#
# 1 0.024214 -0.006764 -0.006692 0.000000 0.000000 0.000000
# 2 -0.006764 0.028234 -0.007975 0.000000 0.000000 0.000000
# 3 -0.006692 -0.007975 0.015387 0.000000 0.000000 0.000000
# 4 0.000000 0.000000 0.000000 0.039292 0.000000 0.000000
# 5 0.000000 0.000000 0.000000 0.000000 0.050704 0.000000
# 6 0.000000 0.000000 0.000000 0.000000 0.000000 0.045462
#
#
# Mechanical properties :
#
#
# Convention : Reuss Voigt Hill
#
# Bulk Modulus (GPa) = 40.04375 46.18251 43.11313
# Shear Modulus (GPa) = 19.64803 20.83128 20.23965
#
# Velocity S-wave (km/s) = 3.31130 3.40955 3.36079
# Velocity P-wave (km/s) = 6.08000 6.42437 6.25455
#
# Compressibility (1/GPa) = 0.02497269
#
# Stress axis : x y z
#
# Youngs Moduli (GPa) = 41.29851 35.41852 64.99109
#
# Poissons Ratio (x) = 0.23957 0.43493
# Poissons Ratio (y) = 0.27934 0.51829
# Poissons Ratio (z) = 0.27638 0.28246
#
# Static dielectric constant tensor:
#      x y z
#    x 1.611870 0.000000 0.000000 
#    y 0.000000 1.635710 0.000000 
#    z 0.000000 0.000000 1.639590 
# 
# From -- ./inp_files/48058.got.cif
#   From: 2010.05.17/outbox.cif.g08.bks.cpg/sg65_25_cif.got.tgz:48058.got - 2010.06.03 17:01:31.
