data_PCOD9488381
_publ_section_title
;
Structure prediction by ZEFSAII (Michael W. Deem and Ramdas Pophale) SiO2 
 PCOD9488381
Probable space group: C M M M
;
_chemical_formula_sum "Si O2"
_cell_formula_units_Z 88
_cell_length_a 19.897033
_cell_length_b 31.955189
_cell_length_c 8.806901
_cell_angle_alpha 90.000000
_cell_angle_beta 90.000000
_cell_angle_gamma 90.000000
_cell_volume 5599.546109
_symmetry_space_group_name_H-M "C M M M"
_symmetry_group_IT_number 65
_symmetry_cell_setting 'orthorhombic'
loop_
_space_group_symop_operation_xyz
x,y,z
-x,-y,z
x,-y,-z
-x,y,-z
-x,-y,-z
x,y,-z
-x,y,z
x,-y,z
1/2+x,1/2+y,z
1/2-x,1/2-y,z
1/2+x,1/2-y,-z
1/2-x,1/2+y,-z
1/2-x,1/2-y,-z
1/2+x,1/2+y,-z
1/2-x,1/2+y,z
1/2+x,1/2-y,z
loop_
_atom_site_type_symbol
_atom_site_label
_atom_site_fract_x
_atom_site_fract_y
_atom_site_fract_z
Si Si1 0.707349 0.291860 0.181917
Si Si2 0.923441 0.243447 0.680379
Si Si3 0.305728 0.046420 0.179411
Si Si4 0.710894 0.868961 0.319968
Si Si5 0.923511 0.336209 0.181241
Si Si6 0.077908 0.500000 0.682153
O O1 0.750000 0.250000 0.221529
O O2 0.634009 0.286174 0.254136
O O3 0.745118 0.332418 0.244885
O O4 0.703101 0.293928 0.000000
O O5 0.913774 0.249786 0.500000
O O6 0.917291 0.288095 0.764482
O O7 0.000000 0.228428 0.704375
O O8 0.270676 0.084870 0.261120
O O9 0.274102 0.000000 0.201813
O O10 0.380339 0.038903 0.248836
O O11 0.310514 0.054275 0.000000
O O12 0.715534 0.866248 0.500000
O O13 0.634430 0.861268 0.265486
O O14 0.000000 0.349789 0.215535
O O15 0.913268 0.338337 0.000000
O O16 0.083703 0.500000 0.500000
O O17 0.000000 0.500000 0.724163
#
# Coordination Sequence:
#
# PCOD9488381 Si02
#       6
#    16  16  16  16  16   8
#     4  11  22  35  53  75 103 137 173 212 253 303
#     4  10  20  34  52  74 101 133 170 212 257 303
#     4   9  20  36  53  69  93 126 162 207 255 305
#     4  12  23  34  53  75 100 131 169 217 262 306
#     4  10  20  33  48  67  95 132 173 213 255 305
#     4   9  17  31  51  73  97 127 166 211 258 303
#
# _framework density 15.715559000000001
#
# number of rings (size 3 to 8) (size 9 to 14) (size 15 to 20)
#    0.545    1.182    1.818    3.818    0.000    4.364 
#    0.000    0.000    0.000    0.000    0.000    0.000 
#    0.000    0.727    0.000    7.636    0.000    3.273 
#
# Total GULP energy -245418.303187 kJ/mol
# GULP energy per Si atom -5577.688709 kJ/mol
# Density = 1.567979 g / cm^3
# Si number density = 15.715559 Si / 1000 Ang^3
#
#
#
# Elastic Constant Matrix: (Units=GPa)
#
#
# Indices 1 2 3 4 5 6 
#
# 1 56.0351 32.8489 27.1054 0.0000 0.0000 0.0000
# 2 32.8489 83.8347 28.9784 0.0000 0.0000 0.0000
# 3 27.1054 28.9784 65.3294 0.0000 0.0000 0.0000
# 4 0.0000 0.0000 0.0000 24.3749 0.0000 0.0000
# 5 0.0000 0.0000 0.0000 0.0000 25.2739 0.0000
# 6 0.0000 0.0000 0.0000 0.0000 0.0000 18.8144
#
#
#
# Elastic Compliance Matrix: (Units=1/GPa)
#
#
# Indices 1 2 3 4 5 6 
#
# 1 0.025854 -0.007586 -0.007362 0.000000 0.000000 0.000000
# 2 -0.007586 0.016314 -0.004089 0.000000 0.000000 0.000000
# 3 -0.007362 -0.004089 0.020175 0.000000 0.000000 0.000000
# 4 0.000000 0.000000 0.000000 0.041026 0.000000 0.000000
# 5 0.000000 0.000000 0.000000 0.000000 0.039566 0.000000
# 6 0.000000 0.000000 0.000000 0.000000 0.000000 0.053151
#
#
# Mechanical properties :
#
#
# Convention : Reuss Voigt Hill
#
# Bulk Modulus (GPa) = 41.20372 42.56275 41.88323
# Shear Modulus (GPa) = 20.63981 21.44374 21.04177
#
# Velocity S-wave (km/s) = 3.62793 3.69791 3.66309
# Velocity P-wave (km/s) = 6.62001 6.73607 6.67829
#
# Compressibility (1/GPa) = 0.02426966
#
# Stress axis : x y z
#
# Youngs Moduli (GPa) = 38.67866 61.29724 49.56507
#
# Poissons Ratio (x) = 0.46497 0.36491
# Poissons Ratio (y) = 0.29340 0.20268
# Poissons Ratio (z) = 0.28476 0.25065
#
# Static dielectric constant tensor:
#      x y z
#    x 1.516580 0.000000 0.000000 
#    y 0.000000 1.540640 0.000000 
#    z 0.000000 0.000000 1.519350 
# 
# From -- ./inp_files/12666.got.cif
#   From: 2010.05.17/outbox.cif.g08.bks.cpg/sg65_7_cif.got.tgz:12666.got - 2010.06.03 17:01:31.
