data_PCOD9488833
_publ_section_title
;
Structure prediction by ZEFSAII (Michael W. Deem and Ramdas Pophale) SiO2 
 PCOD9488833
Probable space group: C M M M
;
_chemical_formula_sum "Si O2"
_cell_formula_units_Z 88
_cell_length_a 29.810532
_cell_length_b 8.799096
_cell_length_c 16.434827
_cell_angle_alpha 90.000000
_cell_angle_beta 90.000000
_cell_angle_gamma 90.000000
_cell_volume 4310.949341
_symmetry_space_group_name_H-M "C M M M"
_symmetry_group_IT_number 65
_symmetry_cell_setting 'orthorhombic'
loop_
_space_group_symop_operation_xyz
x,y,z
-x,-y,z
x,-y,-z
-x,y,-z
-x,-y,-z
x,y,-z
-x,y,z
x,-y,z
1/2+x,1/2+y,z
1/2-x,1/2-y,z
1/2+x,1/2-y,-z
1/2-x,1/2+y,-z
1/2-x,1/2-y,-z
1/2+x,1/2+y,-z
1/2-x,1/2+y,z
1/2+x,1/2-y,z
loop_
_atom_site_type_symbol
_atom_site_label
_atom_site_fract_x
_atom_site_fract_y
_atom_site_fract_z
Si Si1 0.912842 0.668589 0.411374
Si Si2 0.797471 0.317968 0.769583
Si Si3 0.680718 0.320687 0.592552
Si Si4 0.618439 0.325168 0.861694
Si Si5 0.452787 0.665229 0.277880
Si Si6 0.946013 0.316771 0.000000
O O1 0.933709 0.677746 0.500000
O O2 0.892840 0.500000 0.401620
O O3 0.872492 0.787912 0.406506
O O4 0.947659 0.703386 0.342175
O O5 0.797600 0.500000 0.769776
O O6 0.750000 0.250000 0.797239
O O7 0.803113 0.261515 0.675146
O O8 0.836422 0.257448 0.830493
O O9 0.695479 0.271125 0.500000
O O10 0.690303 0.500000 0.599628
O O11 0.627706 0.500000 0.887866
O O12 0.588687 0.331119 0.780849
O O13 0.584688 0.243738 0.924990
O O14 0.500000 0.677608 0.232110
O O15 0.452549 0.500000 0.319740
O O16 0.946200 0.500000 0.000000
O O17 0.000000 0.270166 0.000000
#
# Coordination Sequence:
#
# PCOD9488833 Si02
#       6
#    16  16  16  16  16   8
#     4  10  20  33  51  78 114 159 209 261 317 374
#     4  12  25  42  66  96 131 172 219 268 325 387
#     4  10  20  36  59  87 122 167 219 274 328 381
#     4  11  23  43  69  97 130 168 211 262 321 381
#     4  10  21  36  57  85 118 160 208 256 311 377
#     4  11  25  45  72 107 142 175 213 257 311 379
#
# _framework density 20.413138
#
# number of rings (size 3 to 8) (size 9 to 14) (size 15 to 20)
#    0.000    1.364    1.818    4.091    0.000    5.455 
#    0.000    2.273    0.000    0.000    0.000    0.000 
#    0.000    0.000    0.000    0.000    0.000    0.000 
#
# Total GULP energy -245180.748669 kJ/mol
# GULP energy per Si atom -5572.289742 kJ/mol
# Density = 2.036668 g / cm^3
# Si number density = 20.413138 Si / 1000 Ang^3
#
#
#
# Elastic Constant Matrix: (Units=GPa)
#
#
# Indices 1 2 3 4 5 6 
#
# 1 145.4089 54.1165 49.5369 0.0000 0.0000 0.0000
# 2 54.1165 122.3862 52.7065 0.0000 0.0000 0.0000
# 3 49.5369 52.7065 87.8265 0.0000 0.0000 0.0000
# 4 0.0000 0.0000 0.0000 22.2794 0.0000 0.0000
# 5 0.0000 0.0000 0.0000 0.0000 -2.5649 0.0000
# 6 0.0000 0.0000 0.0000 0.0000 0.0000 26.4091
#
#
#
# Elastic Compliance Matrix: (Units=1/GPa)
#
#
# Indices 1 2 3 4 5 6 
#
# 1 0.009016 -0.002423 -0.003631 0.000000 0.000000 0.000000
# 2 -0.002423 0.011670 -0.005637 0.000000 0.000000 0.000000
# 3 -0.003631 -0.005637 0.016817 0.000000 0.000000 0.000000
# 4 0.000000 0.000000 0.000000 0.044884 0.000000 0.000000
# 5 0.000000 0.000000 0.000000 0.000000 -0.389871 0.000000
# 6 0.000000 0.000000 0.000000 0.000000 0.000000 0.037866
#
#
# Mechanical properties :
#
#
# Convention : Reuss Voigt Hill
#
# Bulk Modulus (GPa) = 70.81659 74.26016 72.53838
# Shear Modulus (GPa) = -20.70135 22.50882 0.90374
#
# Velocity S-wave (km/s) = -3.18798 3.32424 0.66610
# Velocity P-wave (km/s) = 4.60609 7.15484 6.01696
#
# Compressibility (1/GPa) = 0.01412098
#
# Stress axis : x y z
#
# Youngs Moduli (GPa) = 110.91472 85.69255 59.46391
#
# Poissons Ratio (x) = 0.20762 0.21593
# Poissons Ratio (y) = 0.26872 0.33518
# Poissons Ratio (z) = 0.40276 0.48302
#
# Static dielectric constant tensor:
#      x y z
#    x 1.732340 0.000000 0.000000 
#    y 0.000000 1.751340 0.000000 
#    z 0.000000 0.000000 1.757440 
# 
# From -- ./inp_files/57994.got.cif
#   From: 2010.05.17/outbox.cif.g08.bks.cpg/sg65_29_cif.got.tgz:57994.got - 2010.06.03 17:01:31.
