data_PCOD9488635
_publ_section_title
;
Structure prediction by ZEFSAII (Michael W. Deem and Ramdas Pophale) SiO2 
 PCOD9488635
Probable space group: C M M M
;
_chemical_formula_sum "Si O2"
_cell_formula_units_Z 88
_cell_length_a 9.130764
_cell_length_b 19.682841
_cell_length_c 28.697619
_cell_angle_alpha 90.000000
_cell_angle_beta 90.000000
_cell_angle_gamma 90.000000
_cell_volume 5157.518180
_symmetry_space_group_name_H-M "C M M M"
_symmetry_group_IT_number 65
_symmetry_cell_setting 'orthorhombic'
loop_
_space_group_symop_operation_xyz
x,y,z
-x,-y,z
x,-y,-z
-x,y,-z
-x,-y,-z
x,y,-z
-x,y,z
x,-y,z
1/2+x,1/2+y,z
1/2-x,1/2-y,z
1/2+x,1/2-y,-z
1/2-x,1/2+y,-z
1/2-x,1/2-y,-z
1/2+x,1/2+y,-z
1/2-x,1/2+y,z
1/2+x,1/2-y,z
loop_
_atom_site_type_symbol
_atom_site_label
_atom_site_fract_x
_atom_site_fract_y
_atom_site_fract_z
Si Si1 0.173763 0.918750 0.190315
Si Si2 0.668685 0.082649 0.905742
Si Si3 0.325439 0.580501 0.446717
Si Si4 0.330563 0.417063 0.000000
Si Si5 0.173789 0.677653 0.626486
Si Si6 0.674890 0.176976 0.734998
O O1 0.242781 0.898215 0.140559
O O2 0.254207 0.877945 0.230937
O O3 0.000000 0.905710 0.190800
O O4 0.195560 0.000000 0.195759
O O5 0.500000 0.105148 0.903696
O O6 0.667710 0.000000 0.906855
O O7 0.747757 0.105135 0.953163
O O8 0.286189 0.599438 0.500000
O O9 0.500000 0.591443 0.441356
O O10 0.298760 0.500000 0.441491
O O11 0.239033 0.623143 0.408822
O O12 0.329129 0.500000 0.000000
O O13 0.500000 0.396120 0.000000
O O14 0.250000 0.750000 0.617984
O O15 0.201524 0.659170 0.680653
O O16 0.000000 0.684163 0.620349
O O17 0.500000 0.181559 0.742089
O O18 0.750000 0.250000 0.743398
#
# Coordination Sequence:
#
# PCOD9488635 Si02
#       6
#    16  16  16   8  16  16
#     4  10  20  33  50  74 103 134 169 209 254 304
#     4   9  16  26  41  63  93 128 165 206 252 300
#     4   9  19  36  56  78 106 139 172 207 250 300
#     4   9  15  23  37  59  90 127 164 203 250 303
#     4  10  21  36  55  78 103 133 170 212 255 300
#     4  10  21  37  55  75 101 133 170 211 255 304
#
# _framework density 17.062469
#
# number of rings (size 3 to 8) (size 9 to 14) (size 15 to 20)
#    0.000    2.455    0.000    3.000    0.000    8.364 
#    0.000    4.545    0.000    0.000    0.000    0.636 
#    0.000    0.000    0.000    0.000    0.000    0.000 
#
# Total GULP energy -245465.615662 kJ/mol
# GULP energy per Si atom -5578.763992 kJ/mol
# Density = 1.702363 g / cm^3
# Si number density = 17.062469 Si / 1000 Ang^3
#
#
#
# Elastic Constant Matrix: (Units=GPa)
#
#
# Indices 1 2 3 4 5 6 
#
# 1 133.1078 60.1580 106.9638 0.0000 0.0000 0.0000
# 2 60.1580 45.8519 76.5939 0.0000 0.0000 0.0000
# 3 106.9638 76.5939 157.1976 0.0000 0.0000 0.0000
# 4 0.0000 0.0000 0.0000 -36.4686 0.0000 0.0000
# 5 0.0000 0.0000 0.0000 0.0000 37.0213 0.0000
# 6 0.0000 0.0000 0.0000 0.0000 0.0000 28.2709
#
#
#
# Elastic Compliance Matrix: (Units=1/GPa)
#
#
# Indices 1 2 3 4 5 6 
#
# 1 0.018958 -0.017866 -0.004195 0.000000 0.000000 0.000000
# 2 -0.017866 0.134044 -0.053156 0.000000 0.000000 0.000000
# 3 -0.004195 -0.053156 0.035116 0.000000 0.000000 0.000000
# 4 0.000000 0.000000 0.000000 -0.027421 0.000000 0.000000
# 5 0.000000 0.000000 0.000000 0.000000 0.027011 0.000000
# 6 0.000000 0.000000 0.000000 0.000000 0.000000 0.035372
#
#
# Mechanical properties :
#
#
# Convention : Reuss Voigt Hill
#
# Bulk Modulus (GPa) = 26.53575 91.50984 59.02280
# Shear Modulus (GPa) = 12.95085 11.92750 12.43917
#
# Velocity S-wave (km/s) = 2.75803 2.64682 2.70300
# Velocity P-wave (km/s) = 5.07230 7.94289 6.66400
#
# Compressibility (1/GPa) = 0.03768500
#
# Stress axis : x y z
#
# Youngs Moduli (GPa) = 52.74812 7.46023 28.47731
#
# Poissons Ratio (x) = 0.13328 0.11946
# Poissons Ratio (y) = 0.94239 1.51373
# Poissons Ratio (z) = 0.22127 0.39655
#
# Static dielectric constant tensor:
#      x y z
#    x 1.566490 0.000000 0.000000 
#    y 0.000000 1.547530 0.000000 
#    z 0.000000 0.000000 1.564690 
# 
# From -- ./inp_files/67456.got.cif
#   From: 2010.05.17/outbox.cif.g08.bks.cpg/sg65_34_cif.got.tgz:67456.got - 2010.06.03 17:01:31.
