data_PCOD9488426
_publ_section_title
;
Structure prediction by ZEFSAII (Michael W. Deem and Ramdas Pophale) SiO2 
 PCOD9488426
Probable space group: C M M M
;
_chemical_formula_sum "Si O2"
_cell_formula_units_Z 80
_cell_length_a 9.880432
_cell_length_b 26.137257
_cell_length_c 20.408609
_cell_angle_alpha 90.000000
_cell_angle_beta 90.000000
_cell_angle_gamma 90.000000
_cell_volume 5270.470017
_symmetry_space_group_name_H-M "C M M M"
_symmetry_group_IT_number 65
_symmetry_cell_setting 'orthorhombic'
loop_
_space_group_symop_operation_xyz
x,y,z
-x,-y,z
x,-y,-z
-x,y,-z
-x,-y,-z
x,y,-z
-x,y,z
x,-y,z
1/2+x,1/2+y,z
1/2-x,1/2-y,z
1/2+x,1/2-y,-z
1/2-x,1/2+y,-z
1/2-x,1/2-y,-z
1/2+x,1/2+y,-z
1/2-x,1/2+y,z
1/2+x,1/2-y,z
loop_
_atom_site_type_symbol
_atom_site_label
_atom_site_fract_x
_atom_site_fract_y
_atom_site_fract_z
Si Si1 0.841217 0.937596 0.000000
Si Si2 0.500000 0.174721 0.579056
Si Si3 0.162155 0.057357 0.500000
Si Si4 0.000000 0.203217 0.578229
Si Si5 0.342681 0.061893 0.123452
Si Si6 0.341019 0.439325 0.750761
Si Si7 0.274748 0.627266 0.623416
O O1 0.753264 0.921331 0.936742
O O2 0.000000 0.921371 0.000000
O O3 0.844730 0.000000 0.000000
O O4 0.500000 0.164220 0.500000
O O5 0.500000 0.236057 0.586003
O O6 0.627250 0.149917 0.614394
O O7 0.204052 0.087592 0.435699
O O8 0.000000 0.055159 0.500000
O O9 0.217085 0.000000 0.500000
O O10 0.873362 0.174970 0.610367
O O11 0.000000 0.192366 0.500000
O O12 0.500000 0.079864 0.121410
O O13 0.261619 0.073255 0.190246
O O14 0.349168 0.000000 0.119171
O O15 0.500000 0.433156 0.769447
O O16 0.323798 0.500000 0.734228
O O17 0.308297 0.403033 0.689539
#
# Coordination Sequence:
#
# PCOD9488426 Si02
#       7
#     8   8   8   8  16  16  16
#     4   9  15  25  43  65  93 129 172 211 236 271
#     4  11  24  36  54  74  98 117 156 211 267 314
#     4  11  20  33  52  72  93 126 169 203 236 288
#     4  11  20  38  58  74  90 121 162 209 257 312
#     4   9  17  28  43  66  95 130 168 205 244 282
#     4  10  20  33  49  68  95 133 172 203 238 293
#     4  12  20  36  51  74  95 126 160 204 252 299
#
# _framework density 15.178912
#
# number of rings (size 3 to 8) (size 9 to 14) (size 15 to 20)
#    0.000    1.600    4.000    2.100    1.400    6.800 
#    0.000    2.000    0.000    0.000    0.000    0.000 
#    0.000    0.000    0.000    5.400    0.000    0.700 
#
# Total GULP energy -222984.754064 kJ/mol
# GULP energy per Si atom -5574.618852 kJ/mol
# Density = 1.514436 g / cm^3
# Si number density = 15.178912 Si / 1000 Ang^3
#
#
#
# Elastic Constant Matrix: (Units=GPa)
#
#
# Indices 1 2 3 4 5 6 
#
# 1 163.5283 37.3329 62.6871 0.0000 0.0000 0.0000
# 2 37.3329 51.4328 29.4231 0.0000 0.0000 0.0000
# 3 62.6871 29.4231 108.9959 0.0000 0.0000 0.0000
# 4 0.0000 0.0000 0.0000 -1.5652 0.0000 0.0000
# 5 0.0000 0.0000 0.0000 0.0000 24.4234 0.0000
# 6 0.0000 0.0000 0.0000 0.0000 0.0000 29.8382
#
#
#
# Elastic Compliance Matrix: (Units=1/GPa)
#
#
# Indices 1 2 3 4 5 6 
#
# 1 0.008482 -0.003981 -0.003804 0.000000 0.000000 0.000000
# 2 -0.003981 0.024862 -0.004422 0.000000 0.000000 0.000000
# 3 -0.003804 -0.004422 0.012556 0.000000 0.000000 0.000000
# 4 0.000000 0.000000 0.000000 -0.638883 0.000000 0.000000
# 5 0.000000 0.000000 0.000000 0.000000 0.040944 0.000000
# 6 0.000000 0.000000 0.000000 0.000000 0.000000 0.033514
#
#
# Mechanical properties :
#
#
# Convention : Reuss Voigt Hill
#
# Bulk Modulus (GPa) = 46.53943 64.76035 55.64989
# Shear Modulus (GPa) = -10.26800 23.50687 6.61944
#
# Velocity S-wave (km/s) = -2.60372 3.93956 2.09055
# Velocity P-wave (km/s) = 4.65704 7.96560 6.52453
#
# Compressibility (1/GPa) = 0.02148716
#
# Stress axis : x y z
#
# Youngs Moduli (GPa) = 117.89580 40.22209 79.64336
#
# Poissons Ratio (x) = 0.16012 0.30294
# Poissons Ratio (y) = 0.46932 0.35218
# Poissons Ratio (z) = 0.44844 0.17786
#
# Static dielectric constant tensor:
#      x y z
#    x 1.015070 0.000000 0.000000 
#    y 0.000000 1.471550 0.000000 
#    z 0.000000 0.000000 1.496370 
# 
# From -- ./inp_files/50012.got.cif
#   From: 2010.05.17/outbox.cif.g08.bks.cpg/sg65_26_cif.got.tgz:50012.got - 2010.06.03 17:01:31.
