data_PCOD9488259
_publ_section_title
;
Structure prediction by ZEFSAII (Michael W. Deem and Ramdas Pophale) SiO2 
 PCOD9488259
Probable space group: C M M M
;
_chemical_formula_sum "Si O2"
_cell_formula_units_Z 96
_cell_length_a 24.309427
_cell_length_b 9.447490
_cell_length_c 24.296515
_cell_angle_alpha 90.000000
_cell_angle_beta 90.000000
_cell_angle_gamma 90.000000
_cell_volume 5580.012188
_symmetry_space_group_name_H-M "C M M M"
_symmetry_group_IT_number 65
_symmetry_cell_setting 'orthorhombic'
loop_
_space_group_symop_operation_xyz
x,y,z
-x,-y,z
x,-y,-z
-x,y,-z
-x,-y,-z
x,y,-z
-x,y,z
x,-y,z
1/2+x,1/2+y,z
1/2-x,1/2-y,z
1/2+x,1/2-y,-z
1/2-x,1/2+y,-z
1/2-x,1/2-y,-z
1/2+x,1/2+y,-z
1/2-x,1/2+y,z
1/2+x,1/2-y,z
loop_
_atom_site_type_symbol
_atom_site_label
_atom_site_fract_x
_atom_site_fract_y
_atom_site_fract_z
Si Si1 0.379927 0.790742 0.608897
Si Si2 0.192176 0.831894 0.059162
Si Si3 0.890513 0.667686 0.260046
Si Si4 0.500000 0.669926 0.726952
Si Si5 0.710329 0.000000 0.565358
Si Si6 0.337982 0.500000 0.433290
Si Si7 0.000000 0.656056 0.382093
Si Si8 0.691172 0.671183 0.180379
O O1 0.380564 0.818728 0.674262
O O2 0.327264 0.870624 0.584601
O O3 0.369259 0.632176 0.591844
O O4 0.440995 0.835363 0.588111
O O5 0.250000 0.750000 0.058911
O O6 0.166088 0.803364 0.118866
O O7 0.203301 0.000000 0.059297
O O8 0.164330 0.798527 0.000000
O O9 0.892995 0.500000 0.246902
O O10 0.844367 0.750883 0.226352
O O11 0.946598 0.753096 0.248821
O O12 0.500000 0.500000 0.732410
O O13 0.500000 0.718239 0.662606
O O14 0.773508 0.000000 0.584544
O O15 0.713142 0.000000 0.500000
O O16 0.339759 0.500000 0.500000
O O17 0.000000 0.500000 0.353614
O O18 0.695709 0.500000 0.188787
O O19 0.750000 0.750000 0.180709
#
# Coordination Sequence:
#
# PCOD9488259 Si02
#       8
#    16  16  16   8   8   8   8  16
#     4  11  22  40  62  84 108 141 180 226 279 330
#     4   8  14  26  44  67  99 142 187 226 267 316
#     4  11  22  38  56  81 110 143 180 223 272 327
#     4  10  20  34  60  83 104 137 177 220 271 329
#     4  11  22  43  63  79 107 146 188 220 261 328
#     4  11  26  41  59  85 113 144 180 226 269 326
#     4  10  20  38  61  85 111 139 177 224 277 332
#     4  10  20  32  49  77 114 150 185 229 275 322
#
# _framework density 17.204263999999998
#
# number of rings (size 3 to 8) (size 9 to 14) (size 15 to 20)
#    0.000    1.833    1.667    3.750    5.833    3.333 
#    0.000    2.500    0.000    0.000    0.000    0.583 
#    0.000    4.667    0.000    0.000    0.000    0.000 
#
# Total GULP energy -267223.433633 kJ/mol
# GULP energy per Si atom -5567.154867 kJ/mol
# Density = 1.716511 g / cm^3
# Si number density = 17.204264 Si / 1000 Ang^3
#
#
#
# Elastic Constant Matrix: (Units=GPa)
#
#
# Indices 1 2 3 4 5 6 
#
# 1 100.7605 41.3514 33.7116 0.0000 0.0000 0.0000
# 2 41.3514 145.6380 30.4532 0.0000 0.0000 0.0000
# 3 33.7116 30.4532 49.0730 0.0000 0.0000 0.0000
# 4 0.0000 0.0000 0.0000 22.3251 0.0000 0.0000
# 5 0.0000 0.0000 0.0000 0.0000 -14.2913 0.0000
# 6 0.0000 0.0000 0.0000 0.0000 0.0000 27.1824
#
#
#
# Elastic Compliance Matrix: (Units=1/GPa)
#
#
# Indices 1 2 3 4 5 6 
#
# 1 0.013457 -0.002169 -0.007899 0.000000 0.000000 0.000000
# 2 -0.002169 0.008240 -0.003623 0.000000 0.000000 0.000000
# 3 -0.007899 -0.003623 0.028052 0.000000 0.000000 0.000000
# 4 0.000000 0.000000 0.000000 0.044793 0.000000 0.000000
# 5 0.000000 0.000000 0.000000 0.000000 -0.069973 0.000000
# 6 0.000000 0.000000 0.000000 0.000000 0.000000 0.036788
#
#
# Mechanical properties :
#
#
# Convention : Reuss Voigt Hill
#
# Bulk Modulus (GPa) = 44.70789 56.27821 50.49305
# Shear Modulus (GPa) = 51.97721 19.70694 35.84207
#
# Velocity S-wave (km/s) = 5.50249 3.38815 4.56930
# Velocity P-wave (km/s) = 8.14940 6.93461 7.56643
#
# Compressibility (1/GPa) = 0.02236742
#
# Stress axis : x y z
#
# Youngs Moduli (GPa) = 74.30805 121.36062 35.64773
#
# Poissons Ratio (x) = 0.26328 0.28157
# Poissons Ratio (y) = 0.16120 0.12916
# Poissons Ratio (z) = 0.58693 0.43970
#
# Static dielectric constant tensor:
#      x y z
#    x 1.598250 0.000000 0.000000 
#    y 0.000000 1.544530 0.000000 
#    z 0.000000 0.000000 1.614760 
# 
# From -- ./inp_files/71503.got.cif
#   From: 2010.05.17/outbox.cif.g08.bks.cpg/sg65_36_cif.got.tgz:71503.got - 2010.06.03 17:01:31.
