data_PCOD9488915
_publ_section_title
;
Structure prediction by ZEFSAII (Michael W. Deem and Ramdas Pophale) SiO2 
 PCOD9488915
Probable space group: C M M M
;
_chemical_formula_sum "Si O2"
_cell_formula_units_Z 80
_cell_length_a 9.122748
_cell_length_b 18.498054
_cell_length_c 26.267172
_cell_angle_alpha 90.000000
_cell_angle_beta 90.000000
_cell_angle_gamma 90.000000
_cell_volume 4432.666313
_symmetry_space_group_name_H-M "C M M M"
_symmetry_group_IT_number 65
_symmetry_cell_setting 'orthorhombic'
loop_
_space_group_symop_operation_xyz
x,y,z
-x,-y,z
x,-y,-z
-x,y,-z
-x,-y,-z
x,y,-z
-x,y,z
x,-y,z
1/2+x,1/2+y,z
1/2-x,1/2-y,z
1/2+x,1/2-y,-z
1/2-x,1/2+y,-z
1/2-x,1/2-y,-z
1/2+x,1/2+y,-z
1/2-x,1/2+y,z
1/2+x,1/2-y,z
loop_
_atom_site_type_symbol
_atom_site_label
_atom_site_fract_x
_atom_site_fract_y
_atom_site_fract_z
Si Si1 0.825597 0.672630 0.059004
Si Si2 0.172508 0.586925 0.340424
Si Si3 0.674780 0.584232 0.146405
Si Si4 0.329489 0.412183 0.556627
Si Si5 0.324383 0.328170 0.249178
O O1 0.750000 0.750000 0.068618
O O2 0.760305 0.615764 0.098357
O O3 0.000000 0.679506 0.065430
O O4 0.796120 0.652963 0.000000
O O5 0.193143 0.500000 0.336375
O O6 0.231755 0.610697 0.395822
O O7 0.261910 0.626461 0.296403
O O8 0.000000 0.602072 0.335677
O O9 0.500000 0.591131 0.137478
O O10 0.708089 0.500000 0.154613
O O11 0.710572 0.629711 0.196887
O O12 0.283010 0.387846 0.500000
O O13 0.500000 0.391910 0.564224
O O14 0.325193 0.500000 0.555928
O O15 0.500000 0.321727 0.253114
O O16 0.250000 0.250000 0.248376
#
# Coordination Sequence:
#
# PCOD9488915 Si02
#       5
#    16  16  16  16  16
#     4  10  21  37  58  84 114 149 187 225 267 317
#     4  10  20  33  52  80 111 142 179 223 269 317
#     4  10  22  39  59  84 112 143 180 223 272 323
#     4   8  14  26  46  73 105 141 179 218 263 315
#     4  11  23  39  58  79 106 140 180 224 271 326
#
# _framework density 18.047827000000002
#
# number of rings (size 3 to 8) (size 9 to 14) (size 15 to 20)
#    0.000    2.200    0.000    3.600    0.000    7.600 
#    0.000    4.000    0.000    0.600    0.000    0.000 
#    0.000    0.000    0.000    0.000    0.000    0.000 
#
# Total GULP energy -223305.045505 kJ/mol
# GULP energy per Si atom -5582.626138 kJ/mol
# Density = 1.800675 g / cm^3
# Si number density = 18.047827 Si / 1000 Ang^3
#
#
#
# Elastic Constant Matrix: (Units=GPa)
#
#
# Indices 1 2 3 4 5 6 
#
# 1 76.5610 55.9616 76.4317 0.0000 0.0000 0.0000
# 2 55.9616 69.7805 66.5818 0.0000 0.0000 0.0000
# 3 76.4317 66.5818 131.0247 0.0000 0.0000 0.0000
# 4 0.0000 0.0000 0.0000 -100.0186 0.0000 0.0000
# 5 0.0000 0.0000 0.0000 0.0000 3.5521 0.0000
# 6 0.0000 0.0000 0.0000 0.0000 0.0000 27.9753
#
#
#
# Elastic Compliance Matrix: (Units=1/GPa)
#
#
# Indices 1 2 3 4 5 6 
#
# 1 0.041981 -0.019997 -0.014328 0.000000 0.000000 0.000000
# 2 -0.019997 0.037344 -0.007312 0.000000 0.000000 0.000000
# 3 -0.014328 -0.007312 0.019706 0.000000 0.000000 0.000000
# 4 0.000000 0.000000 0.000000 -0.009998 0.000000 0.000000
# 5 0.000000 0.000000 0.000000 0.000000 0.281522 0.000000
# 6 0.000000 0.000000 0.000000 0.000000 0.000000 0.035746
#
#
# Mechanical properties :
#
#
# Convention : Reuss Voigt Hill
#
# Bulk Modulus (GPa) = 63.45847 75.03514 69.24681
# Shear Modulus (GPa) = 10.10455 -8.47214 0.81620
#
# Velocity S-wave (km/s) = 2.36874 -2.16898 0.67322
# Velocity P-wave (km/s) = 6.53596 5.94923 6.24949
#
# Compressibility (1/GPa) = 0.01575834
#
# Stress axis : x y z
#
# Youngs Moduli (GPa) = 23.82006 26.77797 50.74637
#
# Poissons Ratio (x) = 0.53547 0.72709
# Poissons Ratio (y) = 0.47632 0.37106
# Poissons Ratio (z) = 0.34129 0.19580
#
# Static dielectric constant tensor:
#      x y z
#    x 1.599660 0.000000 0.000000 
#    y 0.000000 1.597350 0.000000 
#    z 0.000000 0.000000 1.607530 
# 
# From -- ./inp_files/72828.got.cif
#   From: 2010.05.17/outbox.cif.g08.bks.cpg/sg65_37_cif.got.tgz:72828.got - 2010.06.03 17:01:31.
