data_PCOD9488040
_publ_section_title
;
Structure prediction by ZEFSAII (Michael W. Deem and Ramdas Pophale) SiO2 
 PCOD9488040
Probable space group: C M M M
;
_chemical_formula_sum "Si O2"
_cell_formula_units_Z 96
_cell_length_a 8.096052
_cell_length_b 19.221681
_cell_length_c 32.605119
_cell_angle_alpha 90.000000
_cell_angle_beta 90.000000
_cell_angle_gamma 90.000000
_cell_volume 5073.999780
_symmetry_space_group_name_H-M "C M M M"
_symmetry_group_IT_number 65
_symmetry_cell_setting 'orthorhombic'
loop_
_space_group_symop_operation_xyz
x,y,z
-x,-y,z
x,-y,-z
-x,y,-z
-x,-y,-z
x,y,-z
-x,y,z
x,-y,z
1/2+x,1/2+y,z
1/2-x,1/2-y,z
1/2+x,1/2-y,-z
1/2-x,1/2+y,-z
1/2-x,1/2-y,-z
1/2+x,1/2+y,-z
1/2-x,1/2+y,z
1/2+x,1/2-y,z
loop_
_atom_site_type_symbol
_atom_site_label
_atom_site_fract_x
_atom_site_fract_y
_atom_site_fract_z
Si Si1 0.702284 0.918962 0.133608
Si Si2 0.801794 0.579794 0.288530
Si Si3 0.800306 0.330087 0.788302
Si Si4 0.196587 0.584172 0.044044
Si Si5 0.302685 0.829873 0.454570
Si Si6 0.196500 0.921033 0.622116
O O1 0.500000 0.918529 0.132747
O O2 0.756813 0.870936 0.171014
O O3 0.760928 0.893559 0.088608
O O4 0.749813 0.000000 0.139610
O O5 0.739075 0.500000 0.284758
O O6 0.740187 0.629008 0.252158
O O7 0.760845 0.605904 0.334131
O O8 0.000000 0.576672 0.284992
O O9 0.750000 0.250000 0.788287
O O10 0.000000 0.333093 0.788243
O O11 0.211051 0.500000 0.044451
O O12 0.000000 0.599308 0.043504
O O13 0.266075 0.608654 0.000000
O O14 0.242087 0.852387 0.500000
O O15 0.500000 0.832910 0.454903
O O16 0.250000 0.750000 0.449040
O O17 0.241704 0.875774 0.417055
O O18 0.000000 0.923844 0.625039
O O19 0.261696 0.000000 0.617264
#
# Coordination Sequence:
#
# PCOD9488040 Si02
#       6
#    16  16  16  16  16  16
#     4   8  13  23  41  63  86 115 153 193 231 275
#     4   9  18  34  54  72  92 122 162 204 243 286
#     4  10  20  32  47  68  93 122 155 193 238 285
#     4   7   9  14  28  54  85 111 138 181 234 276
#     4  10  21  37  57  80 107 140 176 212 249 290
#     4  10  21  36  55  80 108 136 166 203 248 296
#
# _framework density 18.919985
#
# number of rings (size 3 to 8) (size 9 to 14) (size 15 to 20)
#    0.000    3.000    0.000    3.000    0.000    5.667 
#    0.000    3.333    0.000    2.000    0.000    0.000 
#    0.000    0.000    0.000    4.167    0.000    3.333 
#
# Total GULP energy -267438.579290 kJ/mol
# GULP energy per Si atom -5571.637069 kJ/mol
# Density = 1.887692 g / cm^3
# Si number density = 18.919985 Si / 1000 Ang^3
#
#
#
# Elastic Constant Matrix: (Units=GPa)
#
#
# Indices 1 2 3 4 5 6 
#
# 1 13.2879 5.0664 13.3810 0.0000 0.0000 0.0000
# 2 5.0664 75.8701 100.6996 0.0000 0.0000 0.0000
# 3 13.3810 100.6996 237.9630 0.0000 0.0000 0.0000
# 4 0.0000 0.0000 0.0000 -15.3356 0.0000 0.0000
# 5 0.0000 0.0000 0.0000 0.0000 1.8924 0.0000
# 6 0.0000 0.0000 0.0000 0.0000 0.0000 19.5360
#
#
#
# Elastic Compliance Matrix: (Units=1/GPa)
#
#
# Indices 1 2 3 4 5 6 
#
# 1 0.079842 0.001431 -0.005095 0.000000 0.000000 0.000000
# 2 0.001431 0.030095 -0.012816 0.000000 0.000000 0.000000
# 3 -0.005095 -0.012816 0.009912 0.000000 0.000000 0.000000
# 4 0.000000 0.000000 0.000000 -0.065208 0.000000 0.000000
# 5 0.000000 0.000000 0.000000 0.000000 0.528422 0.000000
# 6 0.000000 0.000000 0.000000 0.000000 0.000000 0.051188
#
#
# Mechanical properties :
#
#
# Convention : Reuss Voigt Hill
#
# Bulk Modulus (GPa) = 11.50897 62.82388 37.16642
# Shear Modulus (GPa) = 7.18212 15.08349 11.13281
#
# Velocity S-wave (km/s) = 1.95046 2.82658 2.42836
# Velocity P-wave (km/s) = 3.34194 6.62796 5.24873
#
# Compressibility (1/GPa) = 0.08688877
#
# Stress axis : x y z
#
# Youngs Moduli (GPa) = 12.52480 33.22833 100.88634
#
# Poissons Ratio (x) = -0.04755 0.51404
# Poissons Ratio (y) = -0.01792 1.29294
# Poissons Ratio (z) = 0.06382 0.42585
#
# Static dielectric constant tensor:
#      x y z
#    x 1.672940 0.000000 0.000000 
#    y 0.000000 1.621990 0.000000 
#    z 0.000000 0.000000 1.694620 
# 
# From -- ./inp_files/73166.got.cif
#   From: 2010.05.17/outbox.cif.g08.bks.cpg/sg65_37_cif.got.tgz:73166.got - 2010.06.03 17:01:31.
