data_PCOD9488204
_publ_section_title
;
Structure prediction by ZEFSAII (Michael W. Deem and Ramdas Pophale) SiO2 
 PCOD9488204
Probable space group: C M M M
;
_chemical_formula_sum "Si O2"
_cell_formula_units_Z 72
_cell_length_a 16.583177
_cell_length_b 8.614910
_cell_length_c 25.006896
_cell_angle_alpha 90.000000
_cell_angle_beta 90.000000
_cell_angle_gamma 90.000000
_cell_volume 3572.549615
_symmetry_space_group_name_H-M "C M M M"
_symmetry_group_IT_number 65
_symmetry_cell_setting 'orthorhombic'
loop_
_space_group_symop_operation_xyz
x,y,z
-x,-y,z
x,-y,-z
-x,y,-z
-x,-y,-z
x,y,-z
-x,y,z
x,-y,z
1/2+x,1/2+y,z
1/2-x,1/2-y,z
1/2+x,1/2-y,-z
1/2-x,1/2+y,-z
1/2-x,1/2-y,-z
1/2+x,1/2+y,-z
1/2-x,1/2+y,z
1/2+x,1/2-y,z
loop_
_atom_site_type_symbol
_atom_site_label
_atom_site_fract_x
_atom_site_fract_y
_atom_site_fract_z
Si Si1 0.336079 0.183521 0.385783
Si Si2 0.837899 0.812651 0.170757
Si Si3 0.000000 0.179922 0.564037
Si Si4 0.091792 0.813500 0.717534
Si Si5 0.404876 0.688381 0.058051
O O1 0.250000 0.250000 0.404908
O O2 0.416488 0.246407 0.415006
O O3 0.348976 0.232569 0.323933
O O4 0.333954 0.000000 0.390800
O O5 0.750000 0.750000 0.182923
O O6 0.893651 0.769224 0.220826
O O7 0.864375 0.753695 0.112296
O O8 0.837729 0.000000 0.168377
O O9 0.000000 0.188322 0.500000
O O10 0.000000 0.000000 0.581312
O O11 0.000000 0.775282 0.702471
O O12 0.102009 0.000000 0.713386
O O13 0.500000 0.723560 0.060574
O O14 0.398308 0.500000 0.058035
O O15 0.373591 0.743496 0.000000
#
# Coordination Sequence:
#
# PCOD9488204 Si02
#       5
#    16  16   8  16  16
#     4  12  25  42  67  98 133 173 216 263 314 372
#     4  10  20  32  48  75 107 143 185 233 293 357
#     4  11  25  47  73 101 135 173 214 261 312 367
#     4  10  20  36  59  84 116 155 199 253 310 369
#     4   8  14  27  48  71  95 128 178 235 286 345
#
# _framework density 20.153673999999999
#
# number of rings (size 3 to 8) (size 9 to 14) (size 15 to 20)
#    0.000    1.889    1.111    4.333    0.000    7.111 
#    0.000    0.000    0.000    2.000    0.000    1.556 
#    0.000    0.000    0.000    0.000    0.000    0.000 
#
# Total GULP energy -200958.995012 kJ/mol
# GULP energy per Si atom -5582.194306 kJ/mol
# Density = 2.010780 g / cm^3
# Si number density = 20.153674 Si / 1000 Ang^3
#
#
#
# Elastic Constant Matrix: (Units=GPa)
#
#
# Indices 1 2 3 4 5 6 
#
# 1 129.6417 50.0699 41.8205 0.0000 0.0000 0.0000
# 2 50.0699 58.2655 29.4881 0.0000 0.0000 0.0000
# 3 41.8205 29.4881 90.8059 0.0000 0.0000 0.0000
# 4 0.0000 0.0000 0.0000 12.9495 0.0000 0.0000
# 5 0.0000 0.0000 0.0000 0.0000 16.9529 0.0000
# 6 0.0000 0.0000 0.0000 0.0000 0.0000 20.8730
#
#
#
# Elastic Compliance Matrix: (Units=1/GPa)
#
#
# Indices 1 2 3 4 5 6 
#
# 1 0.012043 -0.009025 -0.002616 0.000000 0.000000 0.000000
# 2 -0.009025 0.027302 -0.004709 0.000000 0.000000 0.000000
# 3 -0.002616 -0.004709 0.013746 0.000000 0.000000 0.000000
# 4 0.000000 0.000000 0.000000 0.077223 0.000000 0.000000
# 5 0.000000 0.000000 0.000000 0.000000 0.058987 0.000000
# 6 0.000000 0.000000 0.000000 0.000000 0.000000 0.047909
#
#
# Mechanical properties :
#
#
# Convention : Reuss Voigt Hill
#
# Bulk Modulus (GPa) = 49.04134 57.94110 53.49122
# Shear Modulus (GPa) = 18.06960 20.64406 19.35683
#
# Velocity S-wave (km/s) = 2.99756 3.20399 3.10249
# Velocity P-wave (km/s) = 6.03051 6.51916 6.27959
#
# Compressibility (1/GPa) = 0.02039096
#
# Stress axis : x y z
#
# Youngs Moduli (GPa) = 83.03543 36.62720 72.74637
#
# Poissons Ratio (x) = 0.33057 0.19027
# Poissons Ratio (y) = 0.74943 0.34259
# Poissons Ratio (z) = 0.21718 0.17249
#
# Static dielectric constant tensor:
#      x y z
#    x 1.704370 0.000000 0.000000 
#    y 0.000000 1.679160 0.000000 
#    z 0.000000 0.000000 1.745230 
# 
# From -- ./inp_files/74616.got.cif
#   From: 2010.05.17/outbox.cif.g08.bks.cpg/sg65_38_cif.got.tgz:74616.got - 2010.06.03 17:01:31.
