data_PCOD9488226
_publ_section_title
;
Structure prediction by ZEFSAII (Michael W. Deem and Ramdas Pophale) SiO2 
 PCOD9488226
Probable space group: C M M M
;
_chemical_formula_sum "Si O2"
_cell_formula_units_Z 64
_cell_length_a 10.404872
_cell_length_b 27.672022
_cell_length_c 12.536346
_cell_angle_alpha 90.000000
_cell_angle_beta 90.000000
_cell_angle_gamma 90.000000
_cell_volume 3609.512966
_symmetry_space_group_name_H-M "C M M M"
_symmetry_group_IT_number 65
_symmetry_cell_setting 'orthorhombic'
loop_
_space_group_symop_operation_xyz
x,y,z
-x,-y,z
x,-y,-z
-x,y,-z
-x,-y,-z
x,y,-z
-x,y,z
x,-y,z
1/2+x,1/2+y,z
1/2-x,1/2-y,z
1/2+x,1/2-y,-z
1/2-x,1/2+y,-z
1/2-x,1/2-y,-z
1/2+x,1/2+y,-z
1/2-x,1/2+y,z
1/2+x,1/2-y,z
loop_
_atom_site_type_symbol
_atom_site_label
_atom_site_fract_x
_atom_site_fract_y
_atom_site_fract_z
Si Si1 0.226894 0.100678 0.874147
Si Si2 0.500000 0.945233 0.127628
Si Si3 0.351575 0.058977 0.500000
Si Si4 0.853339 0.211071 0.871212
Si Si5 0.138482 0.057570 0.665281
O O1 0.372772 0.084952 0.849397
O O2 0.196803 0.156760 0.853431
O O3 0.147574 0.070042 0.789600
O O4 0.201375 0.091157 0.000000
O O5 0.500000 0.000000 0.174862
O O6 0.500000 0.951083 0.000000
O O7 0.500000 0.075533 0.500000
O O8 0.264130 0.074667 0.600896
O O9 0.357058 0.000000 0.500000
O O10 0.750000 0.250000 0.830756
O O11 0.000000 0.216882 0.831568
O O12 0.859286 0.216903 0.000000
O O13 0.000000 0.075983 0.625231
O O14 0.138096 0.000000 0.651932
#
# Coordination Sequence:
#
# PCOD9488226 Si02
#       5
#    16   8   8  16  16
#     4  10  20  32  49  74 107 141 174 211 260 316
#     4   9  18  30  44  67 103 143 177 210 248 302
#     4   9  19  35  53  71  94 129 174 219 258 300
#     4   9  18  31  48  69  98 135 175 217 262 311
#     4  10  20  33  51  74 102 135 171 212 257 308
#
# _framework density 17.730924000000002
#
# number of rings (size 3 to 8) (size 9 to 14) (size 15 to 20)
#    0.000    2.500    0.000    1.875    3.500    4.500 
#    0.000    1.250    0.000    0.000    0.000    0.875 
#    0.000    0.000    0.000    0.000    0.000    0.000 
#
# Total GULP energy -178169.657612 kJ/mol
# GULP energy per Si atom -5567.801800 kJ/mol
# Density = 1.769057 g / cm^3
# Si number density = 17.730924 Si / 1000 Ang^3
#
#
#
# Elastic Constant Matrix: (Units=GPa)
#
#
# Indices 1 2 3 4 5 6 
#
# 1 192.2199 54.4958 41.0725 0.0000 0.0000 0.0000
# 2 54.4958 34.6516 4.2165 0.0000 0.0000 0.0000
# 3 41.0725 4.2165 62.7225 0.0000 0.0000 0.0000
# 4 0.0000 0.0000 0.0000 -12.3180 0.0000 0.0000
# 5 0.0000 0.0000 0.0000 0.0000 -2.7192 0.0000
# 6 0.0000 0.0000 0.0000 0.0000 0.0000 17.4229
#
#
#
# Elastic Compliance Matrix: (Units=1/GPa)
#
#
# Indices 1 2 3 4 5 6 
#
# 1 0.011435 -0.017214 -0.006331 0.000000 0.000000 0.000000
# 2 -0.017214 0.055009 0.007574 0.000000 0.000000 0.000000
# 3 -0.006331 0.007574 0.019580 0.000000 0.000000 0.000000
# 4 0.000000 0.000000 0.000000 -0.081182 0.000000 0.000000
# 5 0.000000 0.000000 0.000000 0.000000 -0.367750 0.000000
# 6 0.000000 0.000000 0.000000 0.000000 0.000000 0.057396
#
#
# Mechanical properties :
#
#
# Convention : Reuss Voigt Hill
#
# Bulk Modulus (GPa) = 18.49021 54.35151 36.42086
# Shear Modulus (GPa) = -19.56618 13.13108 -3.21755
#
# Velocity S-wave (km/s) = -3.32551 2.72430 -1.34855
# Velocity P-wave (km/s) = 2.07231 6.37305 4.26153
#
# Compressibility (1/GPa) = 0.05408267
#
# Stress axis : x y z
#
# Youngs Moduli (GPa) = 87.44761 18.17890 51.07293
#
# Poissons Ratio (x) = 0.31293 0.32335
# Poissons Ratio (y) = 1.50531 -0.38684
# Poissons Ratio (z) = 0.55364 -0.13769
#
# Static dielectric constant tensor:
#      x y z
#    x 1.681480 0.000000 0.000000 
#    y 0.000000 1.574030 0.000000 
#    z 0.000000 0.000000 1.617490 
# 
# From -- ./inp_files/21013.got.cif
#   From: 2010.05.17/outbox.cif.g08.bks.cpg/sg65_11_cif.got.tgz:21013.got - 2010.06.03 17:01:31.
