data_PCOD9488522
_publ_section_title
;
Structure prediction by ZEFSAII (Michael W. Deem and Ramdas Pophale) SiO2 
 PCOD9488522
Probable space group: C M M M
;
_chemical_formula_sum "Si O2"
_cell_formula_units_Z 72
_cell_length_a 7.528019
_cell_length_b 18.220050
_cell_length_c 25.099837
_cell_angle_alpha 90.000000
_cell_angle_beta 90.000000
_cell_angle_gamma 90.000000
_cell_volume 3442.715796
_symmetry_space_group_name_H-M "C M M M"
_symmetry_group_IT_number 65
_symmetry_cell_setting 'orthorhombic'
loop_
_space_group_symop_operation_xyz
x,y,z
-x,-y,z
x,-y,-z
-x,y,-z
-x,-y,-z
x,y,-z
-x,y,z
x,-y,z
1/2+x,1/2+y,z
1/2-x,1/2-y,z
1/2+x,1/2-y,-z
1/2-x,1/2+y,-z
1/2-x,1/2-y,-z
1/2+x,1/2+y,-z
1/2-x,1/2+y,z
1/2+x,1/2-y,z
loop_
_atom_site_type_symbol
_atom_site_label
_atom_site_fract_x
_atom_site_fract_y
_atom_site_fract_z
Si Si1 0.212326 0.583861 0.787455
Si Si2 0.213635 0.911499 0.442702
Si Si3 0.217420 0.584775 0.000000
Si Si4 0.786765 0.915280 0.328509
Si Si5 0.287112 0.164192 0.892829
O O1 0.282345 0.500000 0.788292
O O2 0.245337 0.617893 0.729035
O O3 0.281409 0.628563 0.838019
O O4 0.000000 0.579414 0.792676
O O5 0.283492 0.884299 0.500000
O O6 0.278436 0.883274 0.385111
O O7 0.000000 0.901020 0.443864
O O8 0.241964 0.000000 0.441723
O O9 0.279017 0.624692 0.946271
O O10 0.269524 0.500000 0.000000
O O11 0.000000 0.586986 0.000000
O O12 0.000000 0.917998 0.332184
O O13 0.721220 0.000000 0.325842
O O14 0.500000 0.154494 0.892695
O O15 0.250000 0.250000 0.894710
#
# Coordination Sequence:
#
# PCOD9488522 Si02
#       5
#    16  16   8  16  16
#     4   9  17  29  44  62  86 117 151 183 217 261
#     4   7   9  14  26  46  73 104 137 173 213 257
#     4   9  17  32  55  77  94 117 152 186 214 255
#     4   8  13  21  35  56  80 108 144 183 220 257
#     4  10  20  33  50  71  94 120 149 183 222 261
#
# _framework density 20.913723000000001
#
# number of rings (size 3 to 8) (size 9 to 14) (size 15 to 20)
#    0.000    3.444    0.000    3.000    0.000    3.556 
#    0.000    0.000    0.000    3.333    0.000    4.667 
#    0.000    0.889    0.000    2.000    0.000    5.333 
#
# Total GULP energy -200453.206982 kJ/mol
# GULP energy per Si atom -5568.144638 kJ/mol
# Density = 2.086612 g / cm^3
# Si number density = 20.913723 Si / 1000 Ang^3
#
#
#
# Elastic Constant Matrix: (Units=GPa)
#
#
# Indices 1 2 3 4 5 6 
#
# 1 52.4897 -1.8547 10.4607 0.0000 0.0000 0.0000
# 2 -1.8547 62.4455 82.7965 0.0000 0.0000 0.0000
# 3 10.4607 82.7965 300.6808 0.0000 0.0000 0.0000
# 4 0.0000 0.0000 0.0000 -7.2827 0.0000 0.0000
# 5 0.0000 0.0000 0.0000 0.0000 15.2390 0.0000
# 6 0.0000 0.0000 0.0000 0.0000 0.0000 11.0609
#
#
#
# Elastic Compliance Matrix: (Units=1/GPa)
#
#
# Indices 1 2 3 4 5 6 
#
# 1 0.019395 0.002316 -0.001313 0.000000 0.000000 0.000000
# 2 0.002316 0.025500 -0.007102 0.000000 0.000000 0.000000
# 3 -0.001313 -0.007102 0.005327 0.000000 0.000000 0.000000
# 4 0.000000 0.000000 0.000000 -0.137312 0.000000 0.000000
# 5 0.000000 0.000000 0.000000 0.000000 0.065621 0.000000
# 6 0.000000 0.000000 0.000000 0.000000 0.000000 0.090409
#
#
# Mechanical properties :
#
#
# Convention : Reuss Voigt Hill
#
# Bulk Modulus (GPa) = 26.29866 66.49121 46.39494
# Shear Modulus (GPa) = 53.29876 25.41768 39.35822
#
# Velocity S-wave (km/s) = 5.05375 3.48998 4.34283
# Velocity P-wave (km/s) = 6.83052 6.93557 6.88324
#
# Compressibility (1/GPa) = 0.03802475
#
# Stress axis : x y z
#
# Youngs Moduli (GPa) = 51.56024 39.21621 187.71745
#
# Poissons Ratio (x) = -0.09084 0.24640
# Poissons Ratio (y) = -0.11944 1.33322
# Poissons Ratio (z) = 0.06768 0.27852
#
# Static dielectric constant tensor:
#      x y z
#    x 1.810140 0.000000 0.000000 
#    y 0.000000 1.684470 0.000000 
#    z 0.000000 0.000000 1.834340 
# 
# From -- ./inp_files/61308.got.cif
#   From: 2010.05.17/outbox.cif.g08.bks.cpg/sg65_31_cif.got.tgz:61308.got - 2010.06.03 17:01:31.
