data_PCOD9488881
_publ_section_title
;
Structure prediction by ZEFSAII (Michael W. Deem and Ramdas Pophale) SiO2 
 PCOD9488881
Probable space group: C M M M
;
_chemical_formula_sum "Si O2"
_cell_formula_units_Z 104
_cell_length_a 8.717679
_cell_length_b 29.001993
_cell_length_c 23.548197
_cell_angle_alpha 90.000000
_cell_angle_beta 90.000000
_cell_angle_gamma 90.000000
_cell_volume 5953.692186
_symmetry_space_group_name_H-M "C M M M"
_symmetry_group_IT_number 65
_symmetry_cell_setting 'orthorhombic'
loop_
_space_group_symop_operation_xyz
x,y,z
-x,-y,z
x,-y,-z
-x,y,-z
-x,-y,-z
x,y,-z
-x,y,z
x,-y,z
1/2+x,1/2+y,z
1/2-x,1/2-y,z
1/2+x,1/2-y,-z
1/2-x,1/2+y,-z
1/2-x,1/2-y,-z
1/2+x,1/2+y,-z
1/2-x,1/2+y,z
1/2+x,1/2-y,z
loop_
_atom_site_type_symbol
_atom_site_label
_atom_site_fract_x
_atom_site_fract_y
_atom_site_fract_z
Si Si1 0.184288 0.639018 0.670639
Si Si2 0.182876 0.552818 0.853996
Si Si3 0.818870 0.052757 0.271342
Si Si4 0.816054 0.698517 0.217331
Si Si5 0.814865 0.300650 0.564719
Si Si6 0.683310 0.198461 0.000000
Si Si7 0.682660 0.354280 0.891631
O O1 0.261976 0.590525 0.684459
O O2 0.219099 0.673063 0.723338
O O3 0.234509 0.662932 0.612196
O O4 0.000000 0.632935 0.669202
O O5 0.223784 0.500000 0.869268
O O6 0.230278 0.559372 0.788126
O O7 0.266394 0.592411 0.889200
O O8 0.000000 0.558216 0.859158
O O9 0.000000 0.058481 0.260283
O O10 0.792333 0.000000 0.289963
O O11 0.750000 0.750000 0.217290
O O12 0.743634 0.669746 0.165802
O O13 0.000000 0.699754 0.210438
O O14 0.769327 0.312440 0.500000
O O15 0.750000 0.250000 0.577801
O O16 0.000000 0.298184 0.566602
O O17 0.750000 0.250000 0.000000
O O18 0.742678 0.171756 0.944606
O O19 0.500000 0.200372 0.000000
O O20 0.500000 0.350559 0.894292
#
# Coordination Sequence:
#
# PCOD9488881 Si02
#       7
#    16  16  16  16  16   8  16
#     4  10  20  33  52  78 109 144 183 227 278 333
#     4  10  20  36  59  86 116 149 184 225 277 335
#     4  10  20  33  52  80 111 143 181 226 276 333
#     4  11  22  35  52  78 111 145 183 226 279 332
#     4   9  18  33  52  76 107 145 188 230 273 326
#     4  12  26  46  67  86 113 150 194 235 277 331
#     4  12  24  40  61  86 115 148 188 231 278 329
#
# _framework density 17.468153000000001
#
# number of rings (size 3 to 8) (size 9 to 14) (size 15 to 20)
#    0.000    1.538    1.538    4.385    0.000    3.077 
#    0.000    0.385    0.000    2.769    0.000    3.231 
#    0.000    0.000    0.000    0.000    0.000    0.000 
#
# Total GULP energy -290553.901587 kJ/mol
# GULP energy per Si atom -5587.575031 kJ/mol
# Density = 1.742839 g / cm^3
# Si number density = 17.468153 Si / 1000 Ang^3
#
#
#
# Elastic Constant Matrix: (Units=GPa)
#
#
# Indices 1 2 3 4 5 6 
#
# 1 82.6466 59.8148 48.2677 0.0000 0.0000 0.0000
# 2 59.8148 140.4282 68.2353 0.0000 0.0000 0.0000
# 3 48.2677 68.2353 95.5953 0.0000 0.0000 0.0000
# 4 0.0000 0.0000 0.0000 30.9351 0.0000 0.0000
# 5 0.0000 0.0000 0.0000 0.0000 8.9595 0.0000
# 6 0.0000 0.0000 0.0000 0.0000 0.0000 35.4382
#
#
#
# Elastic Compliance Matrix: (Units=1/GPa)
#
#
# Indices 1 2 3 4 5 6 
#
# 1 0.019507 -0.005394 -0.005999 0.000000 0.000000 0.000000
# 2 -0.005394 0.012394 -0.006123 0.000000 0.000000 0.000000
# 3 -0.005999 -0.006123 0.017861 0.000000 0.000000 0.000000
# 4 0.000000 0.000000 0.000000 0.032326 0.000000 0.000000
# 5 0.000000 0.000000 0.000000 0.000000 0.111614 0.000000
# 6 0.000000 0.000000 0.000000 0.000000 0.000000 0.028218
#
#
# Mechanical properties :
#
#
# Convention : Reuss Voigt Hill
#
# Bulk Modulus (GPa) = 67.89417 74.58954 71.24185
# Shear Modulus (GPa) = 19.09400 24.55671 21.82535
#
# Velocity S-wave (km/s) = 3.30975 3.75347 3.53857
# Velocity P-wave (km/s) = 7.31832 7.84714 7.58734
#
# Compressibility (1/GPa) = 0.01472881
#
# Stress axis : x y z
#
# Youngs Moduli (GPa) = 51.26280 80.68487 55.98875
#
# Poissons Ratio (x) = 0.43520 0.33590
# Poissons Ratio (y) = 0.27650 0.34283
# Poissons Ratio (z) = 0.30755 0.49405
#
# Static dielectric constant tensor:
#      x y z
#    x 1.596290 0.000000 0.000000 
#    y 0.000000 1.586110 0.000000 
#    z 0.000000 0.000000 1.574550 
# 
# From -- ./inp_files/60371.got.cif
#   From: 2010.05.17/outbox.cif.g08.bks.cpg/sg65_31_cif.got.tgz:60371.got - 2010.06.03 17:01:31.
