data_PCOD9488614
_publ_section_title
;
Structure prediction by ZEFSAII (Michael W. Deem and Ramdas Pophale) SiO2 
 PCOD9488614
Probable space group: C M M M
;
_chemical_formula_sum "Si O2"
_cell_formula_units_Z 104
_cell_length_a 27.172992
_cell_length_b 9.165453
_cell_length_c 25.256456
_cell_angle_alpha 90.000000
_cell_angle_beta 90.000000
_cell_angle_gamma 90.000000
_cell_volume 6290.190606
_symmetry_space_group_name_H-M "C M M M"
_symmetry_group_IT_number 65
_symmetry_cell_setting 'orthorhombic'
loop_
_space_group_symop_operation_xyz
x,y,z
-x,-y,z
x,-y,-z
-x,y,-z
-x,-y,-z
x,y,-z
-x,y,z
x,-y,z
1/2+x,1/2+y,z
1/2-x,1/2-y,z
1/2+x,1/2-y,-z
1/2-x,1/2+y,-z
1/2-x,1/2-y,-z
1/2+x,1/2+y,-z
1/2-x,1/2+y,z
1/2+x,1/2-y,z
loop_
_atom_site_type_symbol
_atom_site_label
_atom_site_fract_x
_atom_site_fract_y
_atom_site_fract_z
Si Si1 0.297475 0.665606 0.563796
Si Si2 0.441312 0.825506 0.235046
Si Si3 0.600116 0.174422 0.439231
Si Si4 0.301843 0.175384 0.062520
Si Si5 0.901221 0.677672 0.122191
Si Si6 0.441613 0.663801 0.340951
Si Si7 0.000000 0.322056 0.061103
O O1 0.291725 0.655148 0.500000
O O2 0.302032 0.500000 0.583751
O O3 0.250000 0.750000 0.584984
O O4 0.345824 0.761355 0.571753
O O5 0.500000 0.797284 0.226008
O O6 0.411060 0.780678 0.183039
O O7 0.423865 0.745444 0.288161
O O8 0.436798 0.000000 0.242039
O O9 0.586548 0.214241 0.500000
O O10 0.567390 0.245936 0.394141
O O11 0.599859 0.000000 0.435699
O O12 0.250000 0.250000 0.077270
O O13 0.349529 0.224012 0.096271
O O14 0.297072 0.000000 0.068067
O O15 0.310832 0.205705 0.000000
O O16 0.901187 0.500000 0.120504
O O17 0.949622 0.725546 0.089517
O O18 0.500000 0.653410 0.334162
O O19 0.421216 0.500000 0.345817
O O20 0.000000 0.500000 0.063115
O O21 0.000000 0.278467 0.000000
#
# Coordination Sequence:
#
# PCOD9488614 Si02
#       7
#    16  16  16  16  16  16   8
#     4   9  16  27  45  69  97 127 157 189 228 278
#     4   9  16  29  49  70  92 118 153 197 245 297
#     4  10  20  33  50  73  99 126 159 199 245 297
#     4   9  17  29  45  67  97 133 171 206 240 285
#     4   9  15  25  43  69  97 125 158 200 248 293
#     4  10  21  35  50  69  95 127 163 201 243 294
#     4   9  14  20  36  68 105 129 148 187 246 299
#
# _framework density 16.533681000000001
#
# number of rings (size 3 to 8) (size 9 to 14) (size 15 to 20)
#    0.000    2.692    0.769    1.846    0.000    5.846 
#    0.000    2.308    0.000    0.923    0.000    4.308 
#    0.000    3.692    0.000    0.000    0.000    0.000 
#
# Total GULP energy -289596.782765 kJ/mol
# GULP energy per Si atom -5569.168899 kJ/mol
# Density = 1.649605 g / cm^3
# Si number density = 16.533681 Si / 1000 Ang^3
#
#
#
# Elastic Constant Matrix: (Units=GPa)
#
#
# Indices 1 2 3 4 5 6 
#
# 1 81.0034 28.8773 56.6393 0.0000 0.0000 0.0000
# 2 28.8773 51.7821 46.5956 0.0000 0.0000 0.0000
# 3 56.6393 46.5956 117.6621 0.0000 0.0000 0.0000
# 4 0.0000 0.0000 0.0000 12.4250 0.0000 0.0000
# 5 0.0000 0.0000 0.0000 0.0000 19.9123 0.0000
# 6 0.0000 0.0000 0.0000 0.0000 0.0000 19.4318
#
#
#
# Elastic Compliance Matrix: (Units=1/GPa)
#
#
# Indices 1 2 3 4 5 6 
#
# 1 0.019051 -0.003685 -0.007711 0.000000 0.000000 0.000000
# 2 -0.003685 0.030716 -0.010390 0.000000 0.000000 0.000000
# 3 -0.007711 -0.010390 0.016325 0.000000 0.000000 0.000000
# 4 0.000000 0.000000 0.000000 0.080483 0.000000 0.000000
# 5 0.000000 0.000000 0.000000 0.000000 0.050220 0.000000
# 6 0.000000 0.000000 0.000000 0.000000 0.000000 0.051462
#
#
# Mechanical properties :
#
#
# Convention : Reuss Voigt Hill
#
# Bulk Modulus (GPa) = 44.40576 57.18578 50.79577
# Shear Modulus (GPa) = 16.70361 18.24284 17.47322
#
# Velocity S-wave (km/s) = 3.18193 3.32531 3.25441
# Velocity P-wave (km/s) = 6.35733 7.02895 6.70156
#
# Compressibility (1/GPa) = 0.02251960
#
# Stress axis : x y z
#
# Youngs Moduli (GPa) = 52.49156 32.55614 61.25436
#
# Poissons Ratio (x) = 0.11998 0.47234
# Poissons Ratio (y) = 0.19344 0.63643
# Poissons Ratio (z) = 0.40477 0.33826
#
# Static dielectric constant tensor:
#      x y z
#    x 1.563530 0.000000 0.000000 
#    y 0.000000 1.565600 0.000000 
#    z 0.000000 0.000000 1.550450 
# 
# From -- ./inp_files/76005.got.cif
#   From: 2010.05.17/outbox.cif.g08.bks.cpg/sg65_39_cif.got.tgz:76005.got - 2010.06.03 17:01:31.
