data_PCOD9488122
_publ_section_title
;
Structure prediction by ZEFSAII (Michael W. Deem and Ramdas Pophale) SiO2 
 PCOD9488122
Probable space group: C M M M
;
_chemical_formula_sum "Si O2"
_cell_formula_units_Z 88
_cell_length_a 8.635538
_cell_length_b 14.598730
_cell_length_c 31.193000
_cell_angle_alpha 90.000000
_cell_angle_beta 90.000000
_cell_angle_gamma 90.000000
_cell_volume 3932.435620
_symmetry_space_group_name_H-M "C M M M"
_symmetry_group_IT_number 65
_symmetry_cell_setting 'orthorhombic'
loop_
_space_group_symop_operation_xyz
x,y,z
-x,-y,z
x,-y,-z
-x,y,-z
-x,-y,-z
x,y,-z
-x,y,z
x,-y,z
1/2+x,1/2+y,z
1/2-x,1/2-y,z
1/2+x,1/2-y,-z
1/2-x,1/2+y,-z
1/2-x,1/2-y,-z
1/2+x,1/2+y,-z
1/2-x,1/2+y,z
1/2+x,1/2-y,z
loop_
_atom_site_type_symbol
_atom_site_label
_atom_site_fract_x
_atom_site_fract_y
_atom_site_fract_z
Si Si1 0.685236 0.145870 0.453469
Si Si2 0.680821 0.648783 0.367171
Si Si3 0.676248 0.388488 0.805157
Si Si4 0.000000 0.611831 0.049858
Si Si5 0.667177 0.107951 0.279748
Si Si6 0.679947 0.388037 0.903489
O O1 0.730672 0.105994 0.500000
O O2 0.500000 0.148392 0.451795
O O3 0.750000 0.250000 0.453912
O O4 0.743891 0.103003 0.409136
O O5 0.500000 0.649500 0.374282
O O6 0.750000 0.750000 0.366363
O O7 0.719157 0.614323 0.319790
O O8 0.500000 0.363310 0.795249
O O9 0.683668 0.500000 0.805836
O O10 0.780099 0.354359 0.766101
O O11 0.709357 0.360882 0.853920
O O12 0.834582 0.641810 0.070644
O O13 0.000000 0.500000 0.052952
O O14 0.000000 0.637300 0.000000
O O15 0.500000 0.147340 0.292525
O O16 0.651499 0.000000 0.272530
O O17 0.500000 0.360172 0.915012
O O18 0.677255 0.500000 0.905778
#
# Coordination Sequence:
#
# PCOD9488122 Si02
#       6
#    16  16  16   8  16  16
#     4   9  16  27  45  68  92 117 149 188 227 269
#     4  11  21  33  50  70  97 127 155 191 231 280
#     4   8  14  25  40  58  79 105 141 185 228 267
#     4   9  16  22  30  46  68  98 138 180 223 273
#     4  10  20  32  48  70  94 121 155 196 237 280
#     4   8  14  23  34  48  69  98 134 180 225 267
#
# _framework density 22.377991000000002
#
# number of rings (size 3 to 8) (size 9 to 14) (size 15 to 20)
#    0.000    2.818    0.000    4.909    1.273    2.545 
#    0.000    1.818    0.000    0.545    0.000    3.818 
#    0.000    0.000    0.000    0.000    0.000    0.909 
#
# Total GULP energy -245246.635739 kJ/mol
# GULP energy per Si atom -5573.787176 kJ/mol
# Density = 2.232706 g / cm^3
# Si number density = 22.377991 Si / 1000 Ang^3
#
#
#
# Elastic Constant Matrix: (Units=GPa)
#
#
# Indices 1 2 3 4 5 6 
#
# 1 158.0665 14.1472 97.1834 0.0000 0.0000 0.0000
# 2 14.1472 52.4206 6.7410 0.0000 0.0000 0.0000
# 3 97.1834 6.7410 149.0584 0.0000 0.0000 0.0000
# 4 0.0000 0.0000 0.0000 -5.0339 0.0000 0.0000
# 5 0.0000 0.0000 0.0000 0.0000 506.3086 0.0000
# 6 0.0000 0.0000 0.0000 0.0000 0.0000 8.7309
#
#
#
# Elastic Compliance Matrix: (Units=1/GPa)
#
#
# Indices 1 2 3 4 5 6 
#
# 1 0.010767 -0.002015 -0.006929 0.000000 0.000000 0.000000
# 2 -0.002015 0.019565 0.000429 0.000000 0.000000 0.000000
# 3 -0.006929 0.000429 0.011207 0.000000 0.000000 0.000000
# 4 0.000000 0.000000 0.000000 -0.198652 0.000000 0.000000
# 5 0.000000 0.000000 0.000000 0.000000 0.001975 0.000000
# 6 0.000000 0.000000 0.000000 0.000000 0.000000 0.114535
#
#
# Mechanical properties :
#
#
# Convention : Reuss Voigt Hill
#
# Bulk Modulus (GPa) = 40.80075 66.18763 53.49419
# Shear Modulus (GPa) = -324.58352 118.09939 -103.24206
#
# Velocity S-wave (km/s) = -12.05656 7.27251 -6.79968
# Velocity P-wave (km/s) = 13.24923 10.00802 6.13929
#
# Compressibility (1/GPa) = 0.02450936
#
# Stress axis : x y z
#
# Youngs Moduli (GPa) = 92.87987 51.11156 89.23273
#
# Poissons Ratio (x) = 0.10298 0.61825
# Poissons Ratio (y) = 0.18713 -0.03826
# Poissons Ratio (z) = 0.64352 -0.02191
#
# Static dielectric constant tensor:
#      x y z
#    x 1.820820 0.000000 0.000000 
#    y 0.000000 1.121760 0.000000 
#    z 0.000000 0.000000 1.848370 
# 
# From -- ./inp_files/76791.got.cif
#   From: 2010.05.17/outbox.cif.g08.bks.cpg/sg65_39_cif.got.tgz:76791.got - 2010.06.03 17:01:31.
