data_PCOD9488136
_publ_section_title
;
Structure prediction by ZEFSAII (Michael W. Deem and Ramdas Pophale) SiO2 
 PCOD9488136
Probable space group: C M M M
;
_chemical_formula_sum "Si O2"
_cell_formula_units_Z 88
_cell_length_a 8.179337
_cell_length_b 30.920978
_cell_length_c 18.084388
_cell_angle_alpha 90.000000
_cell_angle_beta 90.000000
_cell_angle_gamma 90.000000
_cell_volume 4573.778620
_symmetry_space_group_name_H-M "C M M M"
_symmetry_group_IT_number 65
_symmetry_cell_setting 'orthorhombic'
loop_
_space_group_symop_operation_xyz
x,y,z
-x,-y,z
x,-y,-z
-x,y,-z
-x,-y,-z
x,y,-z
-x,y,z
x,-y,z
1/2+x,1/2+y,z
1/2-x,1/2-y,z
1/2+x,1/2-y,-z
1/2-x,1/2+y,-z
1/2-x,1/2-y,-z
1/2+x,1/2+y,-z
1/2-x,1/2+y,z
1/2+x,1/2-y,z
loop_
_atom_site_type_symbol
_atom_site_label
_atom_site_fract_x
_atom_site_fract_y
_atom_site_fract_z
Si Si1 0.815040 0.107604 0.412799
Si Si2 0.000000 0.448710 0.590389
Si Si3 0.689410 0.361930 0.915761
Si Si4 0.310068 0.953382 0.089560
Si Si5 0.690599 0.204931 0.201195
Si Si6 0.197598 0.297935 0.369472
O O1 0.823420 0.098062 0.500000
O O2 0.663906 0.077610 0.384235
O O3 0.768821 0.158440 0.405120
O O4 0.000000 0.100237 0.382214
O O5 0.000000 0.500000 0.611146
O O6 0.000000 0.447455 0.500000
O O7 0.500000 0.350197 0.918086
O O8 0.708958 0.411471 0.891077
O O9 0.773855 0.332631 0.855573
O O10 0.755824 0.357729 0.000000
O O11 0.500000 0.947805 0.111045
O O12 0.251390 0.000000 0.116928
O O13 0.307263 0.955140 0.000000
O O14 0.500000 0.208317 0.212855
O O15 0.750000 0.250000 0.168451
O O16 0.759768 0.199775 0.283918
O O17 0.250000 0.250000 0.397356
O O18 0.000000 0.300326 0.374126
#
# Coordination Sequence:
#
# PCOD9488136 Si02
#       6
#    16   8  16  16  16  16
#     4  10  20  34  55  85 118 151 189 231 277 328
#     4   9  18  34  56  82 116 154 191 237 282 324
#     4  10  20  32  48  72 100 130 166 211 263 314
#     4   8  14  26  45  68  93 121 154 194 243 301
#     4  10  21  36  54  74  98 132 174 215 260 316
#     4  10  20  35  55  79 108 143 182 225 276 334
#
# _framework density 19.240107999999999
#
# number of rings (size 3 to 8) (size 9 to 14) (size 15 to 20)
#    0.000    2.455    0.909    2.182    0.000    4.727 
#    0.000    3.636    0.000    1.091    0.000    2.545 
#    0.000    0.000    0.000    0.000    0.000    0.000 
#
# Total GULP energy -245038.494177 kJ/mol
# GULP energy per Si atom -5569.056686 kJ/mol
# Density = 1.919632 g / cm^3
# Si number density = 19.240108 Si / 1000 Ang^3
#
#
#
# Elastic Constant Matrix: (Units=GPa)
#
#
# Indices 1 2 3 4 5 6 
#
# 1 93.8212 46.7466 5.3045 0.0000 0.0000 0.0000
# 2 46.7466 99.9666 8.2551 0.0000 0.0000 0.0000
# 3 5.3045 8.2551 10.6681 0.0000 0.0000 0.0000
# 4 0.0000 0.0000 0.0000 -328.5379 0.0000 0.0000
# 5 0.0000 0.0000 0.0000 0.0000 14.6332 0.0000
# 6 0.0000 0.0000 0.0000 0.0000 0.0000 34.3845
#
#
#
# Elastic Compliance Matrix: (Units=1/GPa)
#
#
# Indices 1 2 3 4 5 6 
#
# 1 0.013937 -0.006351 -0.002015 0.000000 0.000000 0.000000
# 2 -0.006351 0.013580 -0.007351 0.000000 0.000000 0.000000
# 3 -0.002015 -0.007351 0.100428 0.000000 0.000000 0.000000
# 4 0.000000 0.000000 0.000000 -0.003044 0.000000 0.000000
# 5 0.000000 0.000000 0.000000 0.000000 0.068338 0.000000
# 6 0.000000 0.000000 0.000000 0.000000 0.000000 0.029083
#
#
# Mechanical properties :
#
#
# Convention : Reuss Voigt Hill
#
# Bulk Modulus (GPa) = 10.36153 36.11870 23.24012
# Shear Modulus (GPa) = 17.48707 -46.29406 -14.40350
#
# Velocity S-wave (km/s) = 3.01804 -4.91055 -2.73906
# Velocity P-wave (km/s) = 4.18830 3.65211 1.44982
#
# Compressibility (1/GPa) = 0.09651080
#
# Stress axis : x y z
#
# Youngs Moduli (GPa) = 71.75261 73.63721 9.95741
#
# Poissons Ratio (x) = 0.46765 0.02007
# Poissons Ratio (y) = 0.45568 0.07319
# Poissons Ratio (z) = 0.14461 0.54129
#
# Static dielectric constant tensor:
#      x y z
#    x 1.710050 0.000000 0.000000 
#    y 0.000000 1.687840 0.000000 
#    z 0.000000 0.000000 1.681330 
# 
# From -- ./inp_files/50413.got.cif
#   From: 2010.05.17/outbox.cif.g08.bks.cpg/sg65_26_cif.got.tgz:50413.got - 2010.06.03 17:01:31.
