data_PCOD9488960
_publ_section_title
;
Structure prediction by ZEFSAII (Michael W. Deem and Ramdas Pophale) SiO2 
 PCOD9488960
Probable space group: C M M M
;
_chemical_formula_sum "Si O2"
_cell_formula_units_Z 82
_cell_length_a 9.137206
_cell_length_b 24.289231
_cell_length_c 20.736363
_cell_angle_alpha 90.000000
_cell_angle_beta 90.000000
_cell_angle_gamma 90.000000
_cell_volume 4602.139388
_symmetry_space_group_name_H-M "C M M M"
_symmetry_group_IT_number 65
_symmetry_cell_setting 'orthorhombic'
loop_
_space_group_symop_operation_xyz
x,y,z
-x,-y,z
x,-y,-z
-x,y,-z
-x,-y,-z
x,y,-z
-x,y,z
x,-y,z
1/2+x,1/2+y,z
1/2-x,1/2-y,z
1/2+x,1/2-y,-z
1/2-x,1/2+y,-z
1/2-x,1/2-y,-z
1/2+x,1/2+y,-z
1/2-x,1/2+y,z
1/2+x,1/2-y,z
loop_
_atom_site_type_symbol
_atom_site_label
_atom_site_fract_x
_atom_site_fract_y
_atom_site_fract_z
Si Si1 0.322979 0.619129 0.194173
Si Si2 0.240648 0.500000 0.393809
Si Si3 0.667830 0.122005 0.429164
Si Si4 0.500000 0.500000 0.500000
Si Si5 0.824098 0.000000 0.756827
Si Si6 0.324633 0.307554 0.925824
Si Si7 0.177957 0.690146 0.693558
O O1 0.500000 0.623521 0.203497
O O2 0.279424 0.555949 0.207047
O O3 0.288952 0.643878 0.123889
O O4 0.239436 0.656153 0.246173
O O5 0.165503 0.557922 0.410017
O O6 0.375766 0.500000 0.442778
O O7 0.273592 0.500000 0.317535
O O8 0.738849 0.128047 0.500000
O O9 0.500000 0.140137 0.434588
O O10 0.730063 0.157766 0.370899
O O11 0.000000 0.000000 0.755065
O O12 0.500000 0.299934 0.924218
O O13 0.250000 0.250000 0.906195
O O14 0.281935 0.319263 0.000000
O O15 0.250000 0.750000 0.694065
O O16 0.000000 0.692706 0.695547
#
# Coordination Sequence:
#
# PCOD9488960 Si02
#       7
#    16   8  16   2   8  16  16
#     4  10  20  36  57  80 111 146 179 220 272 324
#     4  12  19  35  52  81 108 133 178 221 274 325
#     4  10  21  37  57  75 101 136 177 224 272 321
#     4  12  24  28  54  88 112 140 174 234 280 338
#     4  10  20  33  53  79 111 143 174 217 272 324
#     4   9  18  33  55  82 110 142 182 223 265 315
#     4  11  23  38  55  79 106 141 183 226 274 328
#
# _framework density 17.817800999999999
#
# number of rings (size 3 to 8) (size 9 to 14) (size 15 to 20)
#    0.000    1.756    3.415    1.463    0.000    3.512 
#    1.756    0.976    0.000    2.927    0.000    0.000 
#    0.000    4.683    0.000    0.000    0.000    0.000 
#
# Total GULP energy -228283.241275 kJ/mol
# GULP energy per Si atom -5567.883934 kJ/mol
# Density = 1.777725 g / cm^3
# Si number density = 17.817801 Si / 1000 Ang^3
#
#
#
# Elastic Constant Matrix: (Units=GPa)
#
#
# Indices 1 2 3 4 5 6 
#
# 1 33.1131 32.3577 30.3306 0.0000 0.0000 0.0000
# 2 32.3577 127.3415 83.1024 0.0000 0.0000 0.0000
# 3 30.3306 83.1024 138.6369 0.0000 0.0000 0.0000
# 4 0.0000 0.0000 0.0000 28.5435 0.0000 0.0000
# 5 0.0000 0.0000 0.0000 0.0000 23.9677 0.0000
# 6 0.0000 0.0000 0.0000 0.0000 0.0000 -34.3478
#
#
#
# Elastic Compliance Matrix: (Units=1/GPa)
#
#
# Indices 1 2 3 4 5 6 
#
# 1 0.041867 -0.007656 -0.004570 0.000000 0.000000 0.000000
# 2 -0.007656 0.014299 -0.006896 0.000000 0.000000 0.000000
# 3 -0.004570 -0.006896 0.012347 0.000000 0.000000 0.000000
# 4 0.000000 0.000000 0.000000 0.035034 0.000000 0.000000
# 5 0.000000 0.000000 0.000000 0.000000 0.041723 0.000000
# 6 0.000000 0.000000 0.000000 0.000000 0.000000 -0.029114
#
#
# Mechanical properties :
#
#
# Convention : Reuss Voigt Hill
#
# Bulk Modulus (GPa) = 33.03852 65.63034 49.33443
# Shear Modulus (GPa) = 30.39713 13.85274 22.12494
#
# Velocity S-wave (km/s) = 4.13485 2.79133 3.52765
# Velocity P-wave (km/s) = 6.43263 6.87771 6.65889
#
# Compressibility (1/GPa) = 0.03026770
#
# Stress axis : x y z
#
# Youngs Moduli (GPa) = 23.88508 69.93717 80.99379
#
# Poissons Ratio (x) = 0.53543 0.37018
# Poissons Ratio (y) = 0.18286 0.55853
# Poissons Ratio (z) = 0.10917 0.48229
#
# Static dielectric constant tensor:
#      x y z
#    x 1.620860 0.000000 0.000000 
#    y 0.000000 1.594770 0.000000 
#    z 0.000000 0.000000 1.629830 
# 
# From -- ./inp_files/59723.got.cif
#   From: 2010.05.17/outbox.cif.g08.bks.cpg/sg65_30_cif.got.tgz:59723.got - 2010.06.03 17:01:31.
