data_PCOD9488334
_publ_section_title
;
Structure prediction by ZEFSAII (Michael W. Deem and Ramdas Pophale) SiO2 
 PCOD9488334
Probable space group: C M M M
;
_chemical_formula_sum "Si O2"
_cell_formula_units_Z 72
_cell_length_a 23.687544
_cell_length_b 18.139753
_cell_length_c 9.360581
_cell_angle_alpha 90.000000
_cell_angle_beta 90.000000
_cell_angle_gamma 90.000000
_cell_volume 4022.112455
_symmetry_space_group_name_H-M "C M M M"
_symmetry_group_IT_number 65
_symmetry_cell_setting 'orthorhombic'
loop_
_space_group_symop_operation_xyz
x,y,z
-x,-y,z
x,-y,-z
-x,y,-z
-x,-y,-z
x,y,-z
-x,y,z
x,-y,z
1/2+x,1/2+y,z
1/2-x,1/2-y,z
1/2+x,1/2-y,-z
1/2-x,1/2+y,-z
1/2-x,1/2-y,-z
1/2+x,1/2+y,-z
1/2-x,1/2+y,z
1/2+x,1/2-y,z
loop_
_atom_site_type_symbol
_atom_site_label
_atom_site_fract_x
_atom_site_fract_y
_atom_site_fract_z
Si Si1 0.309268 0.000000 0.168841
Si Si2 0.190021 0.000000 0.329113
Si Si3 0.156077 0.364379 0.658520
Si Si4 0.651171 0.358017 0.836953
Si Si5 0.750000 0.250000 0.248595
Si Si6 0.433585 0.739314 0.664813
O O1 0.339892 0.074143 0.220445
O O2 0.251701 0.000000 0.258730
O O3 0.298831 0.000000 0.000000
O O4 0.161431 0.926673 0.266992
O O5 0.192012 0.000000 0.500000
O O6 0.158173 0.398203 0.500000
O O7 0.208384 0.306542 0.669593
O O8 0.099441 0.316659 0.673207
O O9 0.705747 0.303469 0.831448
O O10 0.598091 0.313452 0.775305
O O11 0.643365 0.382084 0.000000
O O12 0.425337 0.713088 0.500000
O O13 0.500000 0.745637 0.690942
#
# Coordination Sequence:
#
# PCOD9488334 Si02
#       6
#     8   8  16  16   8  16
#     4  12  24  36  53  82 121 155 186 231 288 344
#     4  12  24  38  57  82 117 156 192 231 280 341
#     4  10  20  35  58  84 113 150 193 234 281 338
#     4  11  22  36  57  86 119 151 187 232 286 343
#     4  10  20  32  56  82 118 146 188 228 288 336
#     4   9  20  40  63  86 113 148 194 242 283 330
#
# _framework density 17.901042
#
# number of rings (size 3 to 8) (size 9 to 14) (size 15 to 20)
#    0.000    1.556    2.222    3.333    0.000    5.778 
#    0.000    1.111    0.000    6.667    0.000    0.000 
#    0.000    0.000    0.000    0.000    0.000    0.000 
#
# Total GULP energy -200868.965804 kJ/mol
# GULP energy per Si atom -5579.693495 kJ/mol
# Density = 1.786030 g / cm^3
# Si number density = 17.901042 Si / 1000 Ang^3
#
#
#
# Elastic Constant Matrix: (Units=GPa)
#
#
# Indices 1 2 3 4 5 6 
#
# 1 115.5523 31.7944 49.6883 0.0000 0.0000 0.0000
# 2 31.7944 86.9390 59.7666 0.0000 0.0000 0.0000
# 3 49.6883 59.7666 165.4689 0.0000 0.0000 0.0000
# 4 0.0000 0.0000 0.0000 -108.1289 0.0000 0.0000
# 5 0.0000 0.0000 0.0000 0.0000 14.1550 0.0000
# 6 0.0000 0.0000 0.0000 0.0000 0.0000 11.9821
#
#
#
# Elastic Compliance Matrix: (Units=1/GPa)
#
#
# Indices 1 2 3 4 5 6 
#
# 1 0.010236 -0.002169 -0.002290 0.000000 0.000000 0.000000
# 2 -0.002169 0.015761 -0.005042 0.000000 0.000000 0.000000
# 3 -0.002290 -0.005042 0.008552 0.000000 0.000000 0.000000
# 4 0.000000 0.000000 0.000000 -0.009248 0.000000 0.000000
# 5 0.000000 0.000000 0.000000 0.000000 0.070646 0.000000
# 6 0.000000 0.000000 0.000000 0.000000 0.000000 0.083458
#
#
# Mechanical properties :
#
#
# Convention : Reuss Voigt Hill
#
# Bulk Modulus (GPa) = 64.31806 72.27320 68.29563
# Shear Modulus (GPa) = 24.55925 -1.28430 11.63748
#
# Velocity S-wave (km/s) = 3.70800 -0.84794 2.55247
# Velocity P-wave (km/s) = 7.37157 6.28512 6.84992
#
# Compressibility (1/GPa) = 0.01554773
#
# Stress axis : x y z
#
# Youngs Moduli (GPa) = 97.69740 63.44622 116.92893
#
# Poissons Ratio (x) = 0.13760 0.26780
# Poissons Ratio (y) = 0.21189 0.58952
# Poissons Ratio (z) = 0.22376 0.31987
#
# Static dielectric constant tensor:
#      x y z
#    x 1.590340 0.000000 0.000000 
#    y 0.000000 1.560590 0.000000 
#    z 0.000000 0.000000 1.618500 
# 
# From -- ./inp_files/13656.got.cif
#   From: 2010.05.17/outbox.cif.g08.bks.cpg/sg65_7_cif.got.tgz:13656.got - 2010.06.03 17:01:31.
