data_PCOD9488856
_publ_section_title
;
Structure prediction by ZEFSAII (Michael W. Deem and Ramdas Pophale) SiO2 
 PCOD9488856
Probable space group: C M M M
;
_chemical_formula_sum "Si O2"
_cell_formula_units_Z 88
_cell_length_a 17.617700
_cell_length_b 22.187920
_cell_length_c 12.542765
_cell_angle_alpha 90.000000
_cell_angle_beta 90.000000
_cell_angle_gamma 90.000000
_cell_volume 4902.968321
_symmetry_space_group_name_H-M "C M M M"
_symmetry_group_IT_number 65
_symmetry_cell_setting 'orthorhombic'
loop_
_space_group_symop_operation_xyz
x,y,z
-x,-y,z
x,-y,-z
-x,y,-z
-x,-y,-z
x,y,-z
-x,y,z
x,-y,z
1/2+x,1/2+y,z
1/2-x,1/2-y,z
1/2+x,1/2-y,-z
1/2-x,1/2+y,-z
1/2-x,1/2-y,-z
1/2+x,1/2+y,-z
1/2-x,1/2+y,z
1/2+x,1/2-y,z
loop_
_atom_site_type_symbol
_atom_site_label
_atom_site_fract_x
_atom_site_fract_y
_atom_site_fract_z
Si Si1 0.909054 0.500000 0.623542
Si Si2 0.193897 0.136635 0.327590
Si Si3 0.667023 0.426964 0.123687
Si Si4 0.135011 0.628906 0.378804
Si Si5 0.585969 0.742235 0.370223
Si Si6 0.410912 0.572023 0.500000
Si Si7 0.000000 0.067322 0.128511
O O1 0.880643 0.500000 0.500000
O O2 0.880919 0.563401 0.671299
O O3 0.000000 0.500000 0.623592
O O4 0.213100 0.105935 0.214554
O O5 0.275357 0.141306 0.382632
O O6 0.150321 0.199914 0.320956
O O7 0.136021 0.096253 0.398250
O O8 0.668952 0.500000 0.132906
O O9 0.580990 0.405359 0.152087
O O10 0.683324 0.412942 0.000000
O O11 0.104415 0.624560 0.500000
O O12 0.096563 0.688823 0.333371
O O13 0.595669 0.739763 0.500000
O O14 0.500000 0.721861 0.346943
O O15 0.410024 0.500000 0.500000
O O16 0.500000 0.591413 0.500000
O O17 0.000000 0.000000 0.176524
O O18 0.000000 0.060973 0.000000
#
# Coordination Sequence:
#
# PCOD9488856 Si02
#       7
#     8  16  16  16  16   8   8
#     4   9  18  32  52  76 103 137 176 219 264 307
#     4  12  21  32  53  75 108 139 177 218 264 311
#     4   9  19  33  49  71 101 138 184 224 259 301
#     4  10  20  33  52  76 107 138 175 217 265 315
#     4  10  20  35  52  72 104 145 184 214 252 317
#     4  11  24  34  43  70 114 153 178 203 255 323
#     4   7  12  26  44  61  85 123 171 217 245 278
#
# _framework density 17.948312000000001
#
# number of rings (size 3 to 8) (size 9 to 14) (size 15 to 20)
#    0.000    2.091    1.818    3.273    5.091    3.636 
#    0.000    0.000    0.000    2.182    0.000    0.000 
#    0.000    2.909    0.000    0.000    0.000    0.000 
#
# Total GULP energy -245058.066856 kJ/mol
# GULP energy per Si atom -5569.501519 kJ/mol
# Density = 1.790746 g / cm^3
# Si number density = 17.948312 Si / 1000 Ang^3
#
#
#
# Elastic Constant Matrix: (Units=GPa)
#
#
# Indices 1 2 3 4 5 6 
#
# 1 62.3258 20.2385 -0.6758 0.0000 0.0000 0.0000
# 2 20.2385 109.5994 15.8203 0.0000 0.0000 0.0000
# 3 -0.6758 15.8203 62.4867 0.0000 0.0000 0.0000
# 4 0.0000 0.0000 0.0000 13.2080 0.0000 0.0000
# 5 0.0000 0.0000 0.0000 0.0000 4.2085 0.0000
# 6 0.0000 0.0000 0.0000 0.0000 0.0000 20.5736
#
#
#
# Elastic Compliance Matrix: (Units=1/GPa)
#
#
# Indices 1 2 3 4 5 6 
#
# 1 0.017131 -0.003311 0.001024 0.000000 0.000000 0.000000
# 2 -0.003311 0.010110 -0.002596 0.000000 0.000000 0.000000
# 3 0.001024 -0.002596 0.016672 0.000000 0.000000 0.000000
# 4 0.000000 0.000000 0.000000 0.075712 0.000000 0.000000
# 5 0.000000 0.000000 0.000000 0.000000 0.237615 0.000000
# 6 0.000000 0.000000 0.000000 0.000000 0.000000 0.048606
#
#
# Mechanical properties :
#
#
# Convention : Reuss Voigt Hill
#
# Bulk Modulus (GPa) = 29.28542 33.90866 31.59704
# Shear Modulus (GPa) = 11.70978 20.86662 16.28820
#
# Velocity S-wave (km/s) = 2.55702 3.41338 3.01575
# Velocity P-wave (km/s) = 5.00697 5.87097 5.45610
#
# Compressibility (1/GPa) = 0.03414668
#
# Stress axis : x y z
#
# Youngs Moduli (GPa) = 58.37368 98.90979 59.98229
#
# Poissons Ratio (x) = 0.32750 -0.06140
# Poissons Ratio (y) = 0.19328 0.15568
# Poissons Ratio (z) = -0.05975 0.25672
#
# Static dielectric constant tensor:
#      x y z
#    x 1.631070 0.000000 0.000000 
#    y 0.000000 1.671360 0.000000 
#    z 0.000000 0.000000 1.609560 
# 
# From -- ./inp_files/26882.got.cif
#   From: 2010.05.17/outbox.cif.g08.bks.cpg/sg65_14_cif.got.tgz:26882.got - 2010.06.03 17:01:31.
