data_PCOD9488269
_publ_section_title
;
Structure prediction by ZEFSAII (Michael W. Deem and Ramdas Pophale) SiO2 
 PCOD9488269
Probable space group: C M M M
;
_chemical_formula_sum "Si O2"
_cell_formula_units_Z 72
_cell_length_a 9.353345
_cell_length_b 32.104302
_cell_length_c 14.454372
_cell_angle_alpha 90.000000
_cell_angle_beta 90.000000
_cell_angle_gamma 90.000000
_cell_volume 4340.396588
_symmetry_space_group_name_H-M "C M M M"
_symmetry_group_IT_number 65
_symmetry_cell_setting 'orthorhombic'
loop_
_space_group_symop_operation_xyz
x,y,z
-x,-y,z
x,-y,-z
-x,y,-z
-x,-y,-z
x,y,-z
-x,y,z
x,-y,z
1/2+x,1/2+y,z
1/2-x,1/2-y,z
1/2+x,1/2-y,-z
1/2-x,1/2+y,-z
1/2-x,1/2-y,-z
1/2+x,1/2+y,-z
1/2-x,1/2+y,z
1/2+x,1/2-y,z
loop_
_atom_site_type_symbol
_atom_site_label
_atom_site_fract_x
_atom_site_fract_y
_atom_site_fract_z
Si Si1 0.670768 0.292377 0.609320
Si Si2 0.169431 0.453057 0.611166
Si Si3 0.328901 0.376954 0.291660
Si Si4 0.338060 0.000000 0.112354
Si Si5 0.669990 0.583210 0.893719
O O1 0.698155 0.299521 0.500000
O O2 0.500000 0.287303 0.620915
O O3 0.750000 0.250000 0.636639
O O4 0.717986 0.333056 0.665684
O O5 0.187785 0.450689 0.500000
O O6 0.213537 0.500000 0.640350
O O7 0.254695 0.415904 0.658493
O O8 0.000000 0.448900 0.629998
O O9 0.500000 0.380108 0.306081
O O10 0.301038 0.381618 0.182179
O O11 0.254151 0.958162 0.136602
O O12 0.500000 0.000000 0.147844
O O13 0.343253 0.000000 0.000000
O O14 0.500000 0.574301 0.892139
O O15 0.708458 0.593413 0.000000
#
# Coordination Sequence:
#
# PCOD9488269 Si02
#       5
#    16  16  16   8  16
#     4   9  18  33  52  74  98 121 151 196 246 295
#     4   9  19  34  48  66  97 133 164 195 236 289
#     4  10  20  32  50  74  97 125 164 205 242 284
#     4   9  17  29  45  65  90 123 164 207 245 278
#     4   9  18  32  48  67  95 130 165 202 243 286
#
# _framework density 16.588346000000001
#
# number of rings (size 3 to 8) (size 9 to 14) (size 15 to 20)
#    0.000    2.778    0.000    1.667    1.556    4.889 
#    0.000    3.333    0.000    0.667    0.000    0.000 
#    0.000    0.000    0.000    0.000    0.000    0.000 
#
# Total GULP energy -200731.769952 kJ/mol
# GULP energy per Si atom -5575.882499 kJ/mol
# Density = 1.655059 g / cm^3
# Si number density = 16.588346 Si / 1000 Ang^3
#
#
#
# Elastic Constant Matrix: (Units=GPa)
#
#
# Indices 1 2 3 4 5 6 
#
# 1 25.2623 49.8472 38.0322 0.0000 0.0000 0.0000
# 2 49.8472 159.9112 82.6247 0.0000 0.0000 0.0000
# 3 38.0322 82.6247 81.8172 0.0000 0.0000 0.0000
# 4 0.0000 0.0000 0.0000 26.8718 0.0000 0.0000
# 5 0.0000 0.0000 0.0000 0.0000 16.0209 0.0000
# 6 0.0000 0.0000 0.0000 0.0000 0.0000 28.2702
#
#
#
# Elastic Compliance Matrix: (Units=1/GPa)
#
#
# Indices 1 2 3 4 5 6 
#
# 1 0.170302 -0.025476 -0.053436 0.000000 0.000000 0.000000
# 2 -0.025476 0.016888 -0.005212 0.000000 0.000000 0.000000
# 3 -0.053436 -0.005212 0.042326 0.000000 0.000000 0.000000
# 4 0.000000 0.000000 0.000000 0.037214 0.000000 0.000000
# 5 0.000000 0.000000 0.000000 0.000000 0.062418 0.000000
# 6 0.000000 0.000000 0.000000 0.000000 0.000000 0.035373
#
#
# Mechanical properties :
#
#
# Convention : Reuss Voigt Hill
#
# Bulk Modulus (GPa) = 16.32221 67.55545 41.93883
# Shear Modulus (GPa) = 9.03846 20.66502 14.85174
#
# Velocity S-wave (km/s) = 2.33677 3.53336 2.99542
# Velocity P-wave (km/s) = 4.14024 7.58018 6.10741
#
# Compressibility (1/GPa) = 0.06126620
#
# Stress axis : x y z
#
# Youngs Moduli (GPa) = 5.87193 59.21385 23.62642
#
# Poissons Ratio (x) = 1.50854 1.26251
# Poissons Ratio (y) = 0.14959 0.12315
# Poissons Ratio (z) = 0.31377 0.30863
#
# Static dielectric constant tensor:
#      x y z
#    x 1.552510 0.000000 0.000000 
#    y 0.000000 1.524040 0.000000 
#    z 0.000000 0.000000 1.594520 
# 
# From -- ./inp_files/36939.got.cif
#   From: 2010.05.17/outbox.cif.g08.bks.cpg/sg65_19_cif.got.tgz:36939.got - 2010.06.03 17:01:31.
