data_PCOD9488780
_publ_section_title
;
Structure prediction by ZEFSAII (Michael W. Deem and Ramdas Pophale) SiO2 
 PCOD9488780
Probable space group: C M M M
;
_chemical_formula_sum "Si O2"
_cell_formula_units_Z 104
_cell_length_a 8.659174
_cell_length_b 29.288517
_cell_length_c 24.199924
_cell_angle_alpha 90.000000
_cell_angle_beta 90.000000
_cell_angle_gamma 90.000000
_cell_volume 6137.448356
_symmetry_space_group_name_H-M "C M M M"
_symmetry_group_IT_number 65
_symmetry_cell_setting 'orthorhombic'
loop_
_space_group_symop_operation_xyz
x,y,z
-x,-y,z
x,-y,-z
-x,y,-z
-x,-y,-z
x,y,-z
-x,y,z
x,-y,z
1/2+x,1/2+y,z
1/2-x,1/2-y,z
1/2+x,1/2-y,-z
1/2-x,1/2+y,-z
1/2-x,1/2-y,-z
1/2+x,1/2+y,-z
1/2-x,1/2+y,z
1/2+x,1/2-y,z
loop_
_atom_site_type_symbol
_atom_site_label
_atom_site_fract_x
_atom_site_fract_y
_atom_site_fract_z
Si Si1 0.686063 0.301419 0.000000
Si Si2 0.186801 0.801488 0.120970
Si Si3 0.813277 0.140563 0.773067
Si Si4 0.816915 0.551937 0.724305
Si Si5 0.684314 0.448210 0.601328
Si Si6 0.684231 0.855224 0.438685
Si Si7 0.684707 0.300894 0.665406
O O1 0.750000 0.250000 0.000000
O O2 0.733593 0.320164 0.939898
O O3 0.500000 0.300488 0.000000
O O4 0.250000 0.750000 0.127297
O O5 0.236387 0.833354 0.171488
O O6 0.000000 0.798872 0.122528
O O7 0.742594 0.090635 0.765248
O O8 0.766860 0.170290 0.719413
O O9 0.000000 0.137200 0.773142
O O10 0.788883 0.500000 0.743465
O O11 0.730352 0.557462 0.665676
O O12 0.000000 0.557246 0.714564
O O13 0.500000 0.443674 0.595664
O O14 0.728203 0.500000 0.585006
O O15 0.766387 0.407854 0.568765
O O16 0.731462 0.839504 0.500000
O O17 0.500000 0.851731 0.434122
O O18 0.759233 0.826430 0.389585
O O19 0.500000 0.299068 0.665208
O O20 0.750000 0.250000 0.667971
#
# Coordination Sequence:
#
# PCOD9488780 Si02
#       7
#     8  16  16  16  16  16  16
#     4   8  14  26  44  66  99 140 175 211 246 285
#     4   9  17  29  46  72 105 140 177 210 247 292
#     4  10  20  33  51  77 105 134 168 207 252 301
#     4  10  20  33  52  77 103 132 165 203 250 303
#     4  10  20  35  56  80 105 132 162 200 250 307
#     4  11  24  40  57  77 101 131 169 211 254 302
#     4  11  23  38  56  76 100 132 168 209 256 302
#
# _framework density 16.945152
#
# number of rings (size 3 to 8) (size 9 to 14) (size 15 to 20)
#    0.000    2.000    1.538    2.308    0.000    4.923 
#    0.000    1.538    0.000    0.000    0.000    0.538 
#    0.000    4.308    0.000    0.000    0.000    0.000 
#
# Total GULP energy -290167.289236 kJ/mol
# GULP energy per Si atom -5580.140178 kJ/mol
# Density = 1.690658 g / cm^3
# Si number density = 16.945152 Si / 1000 Ang^3
#
#
#
# Elastic Constant Matrix: (Units=GPa)
#
#
# Indices 1 2 3 4 5 6 
#
# 1 21.2556 20.3032 26.3261 0.0000 0.0000 0.0000
# 2 20.3032 88.0169 57.3605 0.0000 0.0000 0.0000
# 3 26.3261 57.3605 137.9131 0.0000 0.0000 0.0000
# 4 0.0000 0.0000 0.0000 23.6630 0.0000 0.0000
# 5 0.0000 0.0000 0.0000 0.0000 13.9477 0.0000
# 6 0.0000 0.0000 0.0000 0.0000 0.0000 31.2289
#
#
#
# Elastic Compliance Matrix: (Units=1/GPa)
#
#
# Indices 1 2 3 4 5 6 
#
# 1 0.067265 -0.009806 -0.008761 0.000000 0.000000 0.000000
# 2 -0.009806 0.017016 -0.005205 0.000000 0.000000 0.000000
# 3 -0.008761 -0.005205 0.011088 0.000000 0.000000 0.000000
# 4 0.000000 0.000000 0.000000 0.042260 0.000000 0.000000
# 5 0.000000 0.000000 0.000000 0.000000 0.071696 0.000000
# 6 0.000000 0.000000 0.000000 0.000000 0.000000 0.032022
#
#
# Mechanical properties :
#
#
# Convention : Reuss Voigt Hill
#
# Bulk Modulus (GPa) = 20.91055 50.57392 35.74224
# Shear Modulus (GPa) = 16.40235 23.31430 19.85833
#
# Velocity S-wave (km/s) = 3.11459 3.71329 3.42704
# Velocity P-wave (km/s) = 5.03003 6.94947 6.06615
#
# Compressibility (1/GPa) = 0.04782274
#
# Stress axis : x y z
#
# Youngs Moduli (GPa) = 14.86661 58.76901 90.18466
#
# Poissons Ratio (x) = 0.57631 0.79015
# Poissons Ratio (y) = 0.14579 0.46943
# Poissons Ratio (z) = 0.13025 0.30591
#
# Static dielectric constant tensor:
#      x y z
#    x 1.569440 0.000000 0.000000 
#    y 0.000000 1.554940 0.000000 
#    z 0.000000 0.000000 1.591910 
# 
# From -- ./inp_files/68238.got.cif
#   From: 2010.05.17/outbox.cif.g08.bks.cpg/sg65_35_cif.got.tgz:68238.got - 2010.06.03 17:01:31.
