data_PCOD9488565
_publ_section_title
;
Structure prediction by ZEFSAII (Michael W. Deem and Ramdas Pophale) SiO2 
 PCOD9488565
Probable space group: C M M M
;
_chemical_formula_sum "Si O2"
_cell_formula_units_Z 88
_cell_length_a 9.353303
_cell_length_b 15.655441
_cell_length_c 29.943796
_cell_angle_alpha 90.000000
_cell_angle_beta 90.000000
_cell_angle_gamma 90.000000
_cell_volume 4384.672542
_symmetry_space_group_name_H-M "C M M M"
_symmetry_group_IT_number 65
_symmetry_cell_setting 'orthorhombic'
loop_
_space_group_symop_operation_xyz
x,y,z
-x,-y,z
x,-y,-z
-x,y,-z
-x,-y,-z
x,y,-z
-x,y,z
x,-y,z
1/2+x,1/2+y,z
1/2-x,1/2-y,z
1/2+x,1/2-y,-z
1/2-x,1/2+y,-z
1/2-x,1/2-y,-z
1/2+x,1/2+y,-z
1/2-x,1/2+y,z
1/2+x,1/2-y,z
loop_
_atom_site_type_symbol
_atom_site_label
_atom_site_fract_x
_atom_site_fract_y
_atom_site_fract_z
Si Si1 0.672168 0.340238 0.684259
Si Si2 0.326891 0.601634 0.047913
Si Si3 0.660487 0.101084 0.230592
Si Si4 0.161034 0.102357 0.414818
Si Si5 0.162608 0.604946 0.500000
Si Si6 0.666753 0.604923 0.854743
O O1 0.500000 0.336437 0.688107
O O2 0.750000 0.250000 0.685405
O O3 0.740393 0.388202 0.726211
O O4 0.707502 0.378856 0.635655
O O5 0.500000 0.608602 0.048489
O O6 0.295253 0.500000 0.047290
O O7 0.278904 0.634234 0.096346
O O8 0.275549 0.637204 0.000000
O O9 0.500000 0.136608 0.237338
O O10 0.738161 0.135957 0.186425
O O11 0.646709 0.000000 0.223332
O O12 0.259454 0.134004 0.454889
O O13 0.000000 0.136208 0.420379
O O14 0.155304 0.000000 0.419164
O O15 0.164324 0.500000 0.500000
O O16 0.000000 0.632802 0.500000
O O17 0.500000 0.628658 0.848871
O O18 0.668901 0.500000 0.855259
#
# Coordination Sequence:
#
# PCOD9488565 Si02
#       6
#    16  16  16  16   8  16
#     4  11  23  38  55  75 101 132 167 207 253 302
#     4   7   9  14  27  50  80 113 149 189 233 281
#     4  10  20  33  50  72  98 129 166 208 251 295
#     4   9  18  34  56  79 103 133 167 201 239 287
#     4   9  17  29  50  81 110 133 161 201 242 279
#     4   8  13  22  38  60  86 118 157 199 241 287
#
# _framework density 20.069914000000001
#
# number of rings (size 3 to 8) (size 9 to 14) (size 15 to 20)
#    0.000    3.000    0.000    3.545    0.000    4.364 
#    0.000    2.273    0.000    0.545    0.000    3.818 
#    0.000    0.727    0.000    2.000    0.000    5.091 
#
# Total GULP energy -245117.844173 kJ/mol
# GULP energy per Si atom -5570.860095 kJ/mol
# Density = 2.002423 g / cm^3
# Si number density = 20.069914 Si / 1000 Ang^3
#
#
#
# Elastic Constant Matrix: (Units=GPa)
#
#
# Indices 1 2 3 4 5 6 
#
# 1 89.3766 9.0118 95.0455 0.0000 0.0000 0.0000
# 2 9.0118 11.2642 6.4579 0.0000 0.0000 0.0000
# 3 95.0455 6.4579 220.8343 0.0000 0.0000 0.0000
# 4 0.0000 0.0000 0.0000 -29.4014 0.0000 0.0000
# 5 0.0000 0.0000 0.0000 0.0000 14.2890 0.0000
# 6 0.0000 0.0000 0.0000 0.0000 0.0000 11.0805
#
#
#
# Elastic Compliance Matrix: (Units=1/GPa)
#
#
# Indices 1 2 3 4 5 6 
#
# 1 0.022241 -0.012515 -0.009206 0.000000 0.000000 0.000000
# 2 -0.012515 0.097333 0.002540 0.000000 0.000000 0.000000
# 3 -0.009206 0.002540 0.008416 0.000000 0.000000 0.000000
# 4 0.000000 0.000000 0.000000 -0.034012 0.000000 0.000000
# 5 0.000000 0.000000 0.000000 0.000000 0.069984 0.000000
# 6 0.000000 0.000000 0.000000 0.000000 0.000000 0.090248
#
#
# Mechanical properties :
#
#
# Convention : Reuss Voigt Hill
#
# Bulk Modulus (GPa) = 11.15733 60.27838 35.71785
# Shear Modulus (GPa) = 15.50635 13.25763 14.38199
#
# Velocity S-wave (km/s) = 2.78261 2.57295 2.67983
# Velocity P-wave (km/s) = 3.98688 6.23908 5.23552
#
# Compressibility (1/GPa) = 0.08962719
#
# Stress axis : x y z
#
# Youngs Moduli (GPa) = 44.96264 10.27402 118.81701
#
# Poissons Ratio (x) = 0.12858 1.09386
# Poissons Ratio (y) = 0.56272 -0.30181
# Poissons Ratio (z) = 0.41394 -0.02610
#
# Static dielectric constant tensor:
#      x y z
#    x 1.703040 0.000000 0.000000 
#    y 0.000000 1.752340 0.000000 
#    z 0.000000 0.000000 1.788810 
# 
# From -- ./inp_files/76597.got.cif
#   From: 2010.05.17/outbox.cif.g08.bks.cpg/sg65_39_cif.got.tgz:76597.got - 2010.06.03 17:01:31.
