data_PCOD9488671
_publ_section_title
;
Structure prediction by ZEFSAII (Michael W. Deem and Ramdas Pophale) SiO2 
 PCOD9488671
Probable space group: C M M M
;
_chemical_formula_sum "Si O2"
_cell_formula_units_Z 120
_cell_length_a 28.658031
_cell_length_b 28.925392
_cell_length_c 7.611558
_cell_angle_alpha 90.000000
_cell_angle_beta 90.000000
_cell_angle_gamma 90.000000
_cell_volume 6309.561277
_symmetry_space_group_name_H-M "C M M M"
_symmetry_group_IT_number 65
_symmetry_cell_setting 'orthorhombic'
loop_
_space_group_symop_operation_xyz
x,y,z
-x,-y,z
x,-y,-z
-x,y,-z
-x,-y,-z
x,y,-z
-x,y,z
x,-y,z
1/2+x,1/2+y,z
1/2-x,1/2-y,z
1/2+x,1/2-y,-z
1/2-x,1/2+y,-z
1/2-x,1/2-y,-z
1/2+x,1/2+y,-z
1/2-x,1/2+y,z
1/2+x,1/2-y,z
loop_
_atom_site_type_symbol
_atom_site_label
_atom_site_fract_x
_atom_site_fract_y
_atom_site_fract_z
Si Si1 0.772129 0.796285 0.703814
Si Si2 0.853938 0.140422 0.293393
Si Si3 0.785289 0.384797 0.212625
Si Si4 0.055306 0.445523 0.500000
Si Si5 0.946639 0.294672 0.213198
Si Si6 0.552799 0.690350 0.211654
Si Si7 0.201981 0.948453 0.208508
Si Si8 0.893511 0.613367 0.788151
O O1 0.845185 0.860000 0.500000
O O2 0.750000 0.750000 0.784184
O O3 0.818557 0.820431 0.782676
O O4 0.733814 0.836636 0.713714
O O5 0.783068 0.214885 0.500000
O O6 0.906850 0.155086 0.262034
O O7 0.838382 0.089694 0.232499
O O8 0.749668 0.424528 0.275334
O O9 0.839063 0.392371 0.254889
O O10 0.781918 0.381894 0.000000
O O11 0.064650 0.500000 0.500000
O O12 0.077173 0.422161 0.672778
O O13 0.000000 0.437894 0.500000
O O14 0.935244 0.242621 0.273010
O O15 0.911597 0.335307 0.262354
O O16 0.000000 0.305277 0.268247
O O17 0.946790 0.293487 0.000000
O O18 0.500000 0.679538 0.271950
O O19 0.551515 0.691537 0.000000
O O20 0.193446 0.000000 0.279647
O O21 0.208017 0.952835 0.000000
O O22 0.899696 0.607815 0.000000
#
# Coordination Sequence:
#
# PCOD9488671 Si02
#       8
#    16  16  16   8  16  16  16  16
#     4   9  19  33  48  70 109 154 185 217 265 322
#     4  10  20  33  50  77 109 141 179 222 273 330
#     4   9  19  33  52  82 108 137 182 229 279 332
#     4  11  26  44  60  84 111 144 196 242 291 360
#     4   8  15  30  52  77 105 141 184 225 271 324
#     4   9  18  33  53  77 108 146 186 227 269 320
#     4   9  18  35  57  77 102 138 180 226 273 331
#     4  10  21  38  61  86 115 147 187 241 295 343
#
# _framework density 19.018754000000001
#
# number of rings (size 3 to 8) (size 9 to 14) (size 15 to 20)
#    0.000    2.733    0.000    1.600    2.800    2.933 
#    1.200    2.000    0.000    0.400    0.000    2.800 
#    0.000    0.000    0.000    0.000    0.000    0.000 
#
# Total GULP energy -334558.769621 kJ/mol
# GULP energy per Si atom -5575.979494 kJ/mol
# Density = 1.897547 g / cm^3
# Si number density = 19.018754 Si / 1000 Ang^3
#
#
#
# Elastic Constant Matrix: (Units=GPa)
#
#
# Indices 1 2 3 4 5 6 
#
# 1 121.4812 99.0717 12.7088 0.0000 0.0000 0.0000
# 2 99.0717 157.2428 17.4587 0.0000 0.0000 0.0000
# 3 12.7088 17.4587 41.4844 0.0000 0.0000 0.0000
# 4 0.0000 0.0000 0.0000 29.8137 0.0000 0.0000
# 5 0.0000 0.0000 0.0000 0.0000 -4.7200 0.0000
# 6 0.0000 0.0000 0.0000 0.0000 0.0000 12.4456
#
#
#
# Elastic Compliance Matrix: (Units=1/GPa)
#
#
# Indices 1 2 3 4 5 6 
#
# 1 0.016953 -0.010600 -0.000733 0.000000 0.000000 0.000000
# 2 -0.010600 0.013299 -0.002350 0.000000 0.000000 0.000000
# 3 -0.000733 -0.002350 0.025319 0.000000 0.000000 0.000000
# 4 0.000000 0.000000 0.000000 0.033542 0.000000 0.000000
# 5 0.000000 0.000000 0.000000 0.000000 -0.211862 0.000000
# 6 0.000000 0.000000 0.000000 0.000000 0.000000 0.080350
#
#
# Mechanical properties :
#
#
# Convention : Reuss Voigt Hill
#
# Bulk Modulus (GPa) = 35.45287 64.29854 49.87571
# Shear Modulus (GPa) = -887.50658 20.23913 -433.63372
#
# Velocity S-wave (km/s) = -21.62547 3.26570 -15.11616
# Velocity P-wave (km/s) = 24.59404 6.93549 16.68481
#
# Compressibility (1/GPa) = 0.02820646
#
# Stress axis : x y z
#
# Youngs Moduli (GPa) = 58.98667 75.19333 39.49649
#
# Poissons Ratio (x) = 0.79705 0.02893
# Poissons Ratio (y) = 0.62526 0.09280
# Poissons Ratio (z) = 0.04321 0.17667
#
# Static dielectric constant tensor:
#      x y z
#    x 1.658390 0.000000 0.000000 
#    y 0.000000 1.657940 0.000000 
#    z 0.000000 0.000000 1.702110 
# 
# From -- ./inp_files/17095.got.cif
#   From: 2010.05.17/outbox.cif.g08.bks.cpg/sg65_9_cif.got.tgz:17095.got - 2010.06.03 17:01:31.
