data_PCOD9488525
_publ_section_title
;
Structure prediction by ZEFSAII (Michael W. Deem and Ramdas Pophale) SiO2 
 PCOD9488525
Probable space group: C M M M
;
_chemical_formula_sum "Si O2"
_cell_formula_units_Z 104
_cell_length_a 14.256138
_cell_length_b 34.901963
_cell_length_c 9.608198
_cell_angle_alpha 90.000000
_cell_angle_beta 90.000000
_cell_angle_gamma 90.000000
_cell_volume 4780.724186
_symmetry_space_group_name_H-M "C M M M"
_symmetry_group_IT_number 65
_symmetry_cell_setting 'orthorhombic'
loop_
_space_group_symop_operation_xyz
x,y,z
-x,-y,z
x,-y,-z
-x,y,-z
-x,-y,-z
x,y,-z
-x,y,z
x,-y,z
1/2+x,1/2+y,z
1/2-x,1/2-y,z
1/2+x,1/2-y,-z
1/2-x,1/2+y,-z
1/2-x,1/2-y,-z
1/2+x,1/2+y,-z
1/2-x,1/2+y,z
1/2+x,1/2-y,z
loop_
_atom_site_type_symbol
_atom_site_label
_atom_site_fract_x
_atom_site_fract_y
_atom_site_fract_z
Si Si1 0.615105 0.083411 0.338938
Si Si2 0.109825 0.500000 0.669223
Si Si3 0.141320 0.741065 0.158648
Si Si4 0.387282 0.845174 0.157976
Si Si5 0.114392 0.956851 0.339505
Si Si6 0.391459 0.686542 0.344325
Si Si7 0.384925 0.616265 0.839914
O O1 0.641629 0.088508 0.500000
O O2 0.500000 0.082225 0.336328
O O3 0.646712 0.119255 0.248354
O O4 0.648596 0.041439 0.288331
O O5 0.112282 0.500000 0.500000
O O6 0.000000 0.500000 0.710352
O O7 0.250000 0.750000 0.146793
O O8 0.129823 0.697781 0.211649
O O9 0.106786 0.773074 0.264938
O O10 0.102284 0.743619 0.000000
O O11 0.500000 0.849076 0.152000
O O12 0.350974 0.846579 0.000000
O O13 0.143253 0.950322 0.500000
O O14 0.143440 0.922253 0.240770
O O15 0.000000 0.956927 0.339072
O O16 0.143931 0.000000 0.299377
O O17 0.349517 0.688535 0.500000
O O18 0.500000 0.675303 0.361361
O O19 0.350943 0.653808 0.243633
O O20 0.500000 0.616835 0.841948
O O21 0.355000 0.616705 0.000000
#
# Coordination Sequence:
#
# PCOD9488525 Si02
#       7
#    16   8  16  16  16  16  16
#     4   8  13  22  38  60  87 120 155 187 220 263
#     4   7  10  18  33  55  85 119 151 183 218 255
#     4  10  21  36  52  69  92 123 159 197 241 289
#     4   9  17  29  45  66  93 123 154 191 234 279
#     4   8  13  21  33  51  80 117 150 181 222 270
#     4  10  20  33  50  71  94 121 154 193 237 285
#     4   9  16  25  39  60  86 116 150 187 225 270
#
# _framework density 21.754027000000001
#
# number of rings (size 3 to 8) (size 9 to 14) (size 15 to 20)
#    0.000    3.154    0.000    2.769    0.000    4.615 
#    0.000    3.462    0.000    2.308    0.000    0.000 
#    2.308    0.000    4.154    0.000    1.846    0.000 
#
# Total GULP energy -290215.124526 kJ/mol
# GULP energy per Si atom -5581.060087 kJ/mol
# Density = 2.170451 g / cm^3
# Si number density = 21.754027 Si / 1000 Ang^3
#
#
#
# Elastic Constant Matrix: (Units=GPa)
#
#
# Indices 1 2 3 4 5 6 
#
# 1 55.1836 12.3345 1.0129 0.0000 0.0000 0.0000
# 2 12.3345 259.4952 136.5662 0.0000 0.0000 0.0000
# 3 1.0129 136.5662 136.1046 0.0000 0.0000 0.0000
# 4 0.0000 0.0000 0.0000 41.1141 0.0000 0.0000
# 5 0.0000 0.0000 0.0000 0.0000 -207.2022 0.0000
# 6 0.0000 0.0000 0.0000 0.0000 0.0000 23.0195
#
#
#
# Elastic Compliance Matrix: (Units=1/GPa)
#
#
# Indices 1 2 3 4 5 6 
#
# 1 0.018474 -0.001707 0.001576 0.000000 0.000000 0.000000
# 2 -0.001707 0.008323 -0.008339 0.000000 0.000000 0.000000
# 3 0.001576 -0.008339 0.015703 0.000000 0.000000 0.000000
# 4 0.000000 0.000000 0.000000 0.024323 0.000000 0.000000
# 5 0.000000 0.000000 0.000000 0.000000 -0.004826 0.000000
# 6 0.000000 0.000000 0.000000 0.000000 0.000000 0.043441
#
#
# Mechanical properties :
#
#
# Convention : Reuss Voigt Hill
#
# Bulk Modulus (GPa) = 39.12520 83.40116 61.26318
# Shear Modulus (GPa) = 38.19750 -8.55573 14.82089
#
# Velocity S-wave (km/s) = 4.19487 -1.98532 2.61299
# Velocity P-wave (km/s) = 6.44103 5.75901 6.10955
#
# Compressibility (1/GPa) = 0.02555898
#
# Stress axis : x y z
#
# Youngs Moduli (GPa) = 54.13003 120.14407 63.68328
#
# Poissons Ratio (x) = 0.20513 -0.10034
# Poissons Ratio (y) = 0.09242 0.53105
# Poissons Ratio (z) = -0.08529 1.00187
#
# Static dielectric constant tensor:
#      x y z
#    x 1.751860 0.000000 0.000000 
#    y 0.000000 1.779480 0.000000 
#    z 0.000000 0.000000 1.761040 
# 
# From -- ./inp_files/12824.got.cif
#   From: 2010.05.17/outbox.cif.g08.bks.cpg/sg65_7_cif.got.tgz:12824.got - 2010.06.03 17:01:31.
