data_PCOD9488237
_publ_section_title
;
Structure prediction by ZEFSAII (Michael W. Deem and Ramdas Pophale) SiO2 
 PCOD9488237
Probable space group: C M M M
;
_chemical_formula_sum "Si O2"
_cell_formula_units_Z 88
_cell_length_a 31.509121
_cell_length_b 7.514909
_cell_length_c 17.417923
_cell_angle_alpha 90.000000
_cell_angle_beta 90.000000
_cell_angle_gamma 90.000000
_cell_volume 4124.358234
_symmetry_space_group_name_H-M "C M M M"
_symmetry_group_IT_number 65
_symmetry_cell_setting 'orthorhombic'
loop_
_space_group_symop_operation_xyz
x,y,z
-x,-y,z
x,-y,-z
-x,y,-z
-x,-y,-z
x,y,-z
-x,y,z
x,-y,z
1/2+x,1/2+y,z
1/2-x,1/2-y,z
1/2+x,1/2-y,-z
1/2-x,1/2+y,-z
1/2-x,1/2-y,-z
1/2+x,1/2+y,-z
1/2-x,1/2+y,z
1/2+x,1/2-y,z
loop_
_atom_site_type_symbol
_atom_site_label
_atom_site_fract_x
_atom_site_fract_y
_atom_site_fract_z
Si Si1 0.549464 0.282048 0.500000
Si Si2 0.799368 0.713250 0.087708
Si Si3 0.205041 0.213068 0.413008
Si Si4 0.376617 0.215039 0.809363
Si Si5 0.546017 0.783172 0.088347
Si Si6 0.386674 0.710330 0.366520
O O1 0.548117 0.500000 0.500000
O O2 0.500000 0.224195 0.500000
O O3 0.576760 0.223532 0.424694
O O4 0.804313 0.500000 0.084539
O O5 0.750000 0.750000 0.104699
O O6 0.832017 0.777729 0.153285
O O7 0.808314 0.779026 0.000000
O O8 0.208131 0.282114 0.500000
O O9 0.250000 0.250000 0.372639
O O10 0.160642 0.283961 0.382109
O O11 0.202013 0.000000 0.415215
O O12 0.413769 0.278170 0.865216
O O13 0.390740 0.267613 0.724202
O O14 0.375151 0.000000 0.809380
O O15 0.500000 0.728147 0.119434
O O16 0.546773 0.000000 0.089166
O O17 0.548754 0.728791 0.000000
O O18 0.385162 0.500000 0.383102
#
# Coordination Sequence:
#
# PCOD9488237 Si02
#       6
#     8  16  16  16  16  16
#     4   9  18  36  60  77  93 129 177 213 246 301
#     4   9  18  33  52  73 101 139 179 213 245 289
#     4   9  17  31  51  72  94 122 157 198 241 285
#     4  10  20  32  49  76 106 132 162 206 255 297
#     4   8  14  27  49  74  98 127 163 200 241 294
#     4  10  20  35  53  74 101 131 167 209 250 296
#
# _framework density 21.336652999999998
#
# number of rings (size 3 to 8) (size 9 to 14) (size 15 to 20)
#    0.000    2.818    0.909    1.091    0.000    5.091 
#    0.000    4.091    0.000    2.182    0.000    1.273 
#    0.000    0.000    0.000    0.000    0.000    0.000 
#
# Total GULP energy -245192.280851 kJ/mol
# GULP energy per Si atom -5572.551838 kJ/mol
# Density = 2.128809 g / cm^3
# Si number density = 21.336653 Si / 1000 Ang^3
#
#
#
# Elastic Constant Matrix: (Units=GPa)
#
#
# Indices 1 2 3 4 5 6 
#
# 1 199.5761 5.9592 98.6275 0.0000 0.0000 0.0000
# 2 5.9592 55.2255 -3.8446 0.0000 0.0000 0.0000
# 3 98.6275 -3.8446 112.8950 0.0000 0.0000 0.0000
# 4 0.0000 0.0000 0.0000 13.8760 0.0000 0.0000
# 5 0.0000 0.0000 0.0000 0.0000 -14.8023 0.0000
# 6 0.0000 0.0000 0.0000 0.0000 0.0000 6.2928
#
#
#
# Elastic Compliance Matrix: (Units=1/GPa)
#
#
# Indices 1 2 3 4 5 6 
#
# 1 0.008942 -0.001512 -0.007863 0.000000 0.000000 0.000000
# 2 -0.001512 0.018406 0.001948 0.000000 0.000000 0.000000
# 3 -0.007863 0.001948 0.015793 0.000000 0.000000 0.000000
# 4 0.000000 0.000000 0.000000 0.072067 0.000000 0.000000
# 5 0.000000 0.000000 0.000000 0.000000 -0.067557 0.000000
# 6 0.000000 0.000000 0.000000 0.000000 0.000000 0.158913
#
#
# Mechanical properties :
#
#
# Convention : Reuss Voigt Hill
#
# Bulk Modulus (GPa) = 35.35229 63.24232 49.29731
# Shear Modulus (GPa) = 21.65929 18.87026 20.26477
#
# Velocity S-wave (km/s) = 3.18955 2.97712 3.08517
# Velocity P-wave (km/s) = 5.49264 6.44378 5.98713
#
# Compressibility (1/GPa) = 0.02828671
#
# Stress axis : x y z
#
# Youngs Moduli (GPa) = 111.83703 54.32904 63.31732
#
# Poissons Ratio (x) = 0.08216 0.49787
# Poissons Ratio (y) = 0.16913 -0.12334
# Poissons Ratio (z) = 0.87938 -0.10583
#
# Static dielectric constant tensor:
#      x y z
#    x 1.806230 0.000000 0.000000 
#    y 0.000000 1.823480 0.000000 
#    z 0.000000 0.000000 1.711360 
# 
# From -- ./inp_files/46755.got.cif
#   From: 2010.05.17/outbox.cif.g08.bks.cpg/sg65_24_cif.got.tgz:46755.got - 2010.06.03 17:01:31.
