data_PCOD9488140
_publ_section_title
;
Structure prediction by ZEFSAII (Michael W. Deem and Ramdas Pophale) SiO2 
 PCOD9488140
Probable space group: C M M M
;
_chemical_formula_sum "Si O2"
_cell_formula_units_Z 88
_cell_length_a 9.225453
_cell_length_b 14.904612
_cell_length_c 31.155499
_cell_angle_alpha 90.000000
_cell_angle_beta 90.000000
_cell_angle_gamma 90.000000
_cell_volume 4283.937114
_symmetry_space_group_name_H-M "C M M M"
_symmetry_group_IT_number 65
_symmetry_cell_setting 'orthorhombic'
loop_
_space_group_symop_operation_xyz
x,y,z
-x,-y,z
x,-y,-z
-x,y,-z
-x,-y,-z
x,y,-z
-x,y,z
x,-y,z
1/2+x,1/2+y,z
1/2-x,1/2-y,z
1/2+x,1/2-y,-z
1/2-x,1/2+y,-z
1/2-x,1/2-y,-z
1/2+x,1/2+y,-z
1/2-x,1/2+y,z
1/2+x,1/2-y,z
loop_
_atom_site_type_symbol
_atom_site_label
_atom_site_fract_x
_atom_site_fract_y
_atom_site_fract_z
Si Si1 0.828011 0.345616 0.701038
Si Si2 0.667977 0.390595 0.047603
Si Si3 0.839122 0.104999 0.214865
Si Si4 0.326398 0.152762 0.395488
Si Si5 0.328696 0.500000 0.551325
Si Si6 0.834642 0.610227 0.867595
O O1 0.750000 0.250000 0.699209
O O2 0.753870 0.390236 0.741864
O O3 0.805707 0.384402 0.653239
O O4 0.000000 0.338560 0.707663
O O5 0.500000 0.364028 0.053019
O O6 0.669819 0.500000 0.047888
O O7 0.763139 0.361021 0.087675
O O8 0.718107 0.362685 0.000000
O O9 0.755962 0.142029 0.173557
O O10 0.000000 0.144776 0.220831
O O11 0.856231 0.000000 0.205591
O O12 0.500000 0.160636 0.402410
O O13 0.250000 0.250000 0.398115
O O14 0.250770 0.086028 0.428507
O O15 0.500000 0.500000 0.562372
O O16 0.316007 0.500000 0.500000
O O17 0.835007 0.500000 0.867422
O O18 0.000000 0.639785 0.864355
#
# Coordination Sequence:
#
# PCOD9488140 Si02
#       6
#    16  16  16  16   8  16
#     4  10  21  37  57  81 110 142 181 225 273 328
#     4   8  13  21  33  49  73 110 154 199 250 311
#     4  10  20  32  48  72 101 137 176 215 265 322
#     4  10  22  41  65  93 125 164 205 253 308 362
#     4  11  25  43  65  95 129 167 211 257 304 359
#     4   9  16  25  37  56  85 120 159 207 259 312
#
# _framework density 20.541851999999999
#
# number of rings (size 3 to 8) (size 9 to 14) (size 15 to 20)
#    0.000    2.455    0.000    3.000    1.273    6.909 
#    0.000    1.818    0.000    0.000    0.000    0.000 
#    0.000    0.727    0.000    2.727    0.000    6.364 
#
# Total GULP energy -245598.120323 kJ/mol
# GULP energy per Si atom -5581.775462 kJ/mol
# Density = 2.049510 g / cm^3
# Si number density = 20.541852 Si / 1000 Ang^3
#
#
#
# Elastic Constant Matrix: (Units=GPa)
#
#
# Indices 1 2 3 4 5 6 
#
# 1 173.3619 33.8961 116.4753 0.0000 0.0000 0.0000
# 2 33.8961 56.8811 38.2205 0.0000 0.0000 0.0000
# 3 116.4753 38.2205 164.2151 0.0000 0.0000 0.0000
# 4 0.0000 0.0000 0.0000 -92.3983 0.0000 0.0000
# 5 0.0000 0.0000 0.0000 0.0000 70.1549 0.0000
# 6 0.0000 0.0000 0.0000 0.0000 0.0000 17.5881
#
#
#
# Elastic Compliance Matrix: (Units=1/GPa)
#
#
# Indices 1 2 3 4 5 6 
#
# 1 0.011137 -0.001575 -0.007533 0.000000 0.000000 0.000000
# 2 -0.001575 0.021062 -0.003785 0.000000 0.000000 0.000000
# 3 -0.007533 -0.003785 0.012314 0.000000 0.000000 0.000000
# 4 0.000000 0.000000 0.000000 -0.010823 0.000000 0.000000
# 5 0.000000 0.000000 0.000000 0.000000 0.014254 0.000000
# 6 0.000000 0.000000 0.000000 0.000000 0.000000 0.056857
#
#
# Mechanical properties :
#
#
# Convention : Reuss Voigt Hill
#
# Bulk Modulus (GPa) = 53.39845 85.73799 69.56822
# Shear Modulus (GPa) = 36.54168 12.79335 24.66752
#
# Velocity S-wave (km/s) = 4.22226 2.49829 3.46908
# Velocity P-wave (km/s) = 7.05843 7.08172 7.07008
#
# Compressibility (1/GPa) = 0.01872713
#
# Stress axis : x y z
#
# Youngs Moduli (GPa) = 89.78787 47.47782 81.21166
#
# Poissons Ratio (x) = 0.07479 0.61176
# Poissons Ratio (y) = 0.14144 0.30738
# Poissons Ratio (z) = 0.67637 0.17970
#
# Static dielectric constant tensor:
#      x y z
#    x 1.708130 0.000000 0.000000 
#    y 0.000000 1.826010 0.000000 
#    z 0.000000 0.000000 1.724510 
# 
# From -- ./inp_files/76596.got.cif
#   From: 2010.05.17/outbox.cif.g08.bks.cpg/sg65_39_cif.got.tgz:76596.got - 2010.06.03 17:01:31.
