data_PCOD9488513
_publ_section_title
;
Structure prediction by ZEFSAII (Michael W. Deem and Ramdas Pophale) SiO2 
 PCOD9488513
Probable space group: C M M M
;
_chemical_formula_sum "Si O2"
_cell_formula_units_Z 104
_cell_length_a 8.748000
_cell_length_b 27.984219
_cell_length_c 27.654692
_cell_angle_alpha 90.000000
_cell_angle_beta 90.000000
_cell_angle_gamma 90.000000
_cell_volume 6770.033087
_symmetry_space_group_name_H-M "C M M M"
_symmetry_group_IT_number 65
_symmetry_cell_setting 'orthorhombic'
loop_
_space_group_symop_operation_xyz
x,y,z
-x,-y,z
x,-y,-z
-x,y,-z
-x,-y,-z
x,y,-z
-x,y,z
x,-y,z
1/2+x,1/2+y,z
1/2-x,1/2-y,z
1/2+x,1/2-y,-z
1/2-x,1/2+y,-z
1/2-x,1/2-y,-z
1/2+x,1/2+y,-z
1/2-x,1/2+y,z
1/2+x,1/2-y,z
loop_
_atom_site_type_symbol
_atom_site_label
_atom_site_fract_x
_atom_site_fract_y
_atom_site_fract_z
Si Si1 0.816783 0.148257 0.297816
Si Si2 0.682579 0.301969 0.600567
Si Si3 0.683123 0.895967 0.445344
Si Si4 0.681690 0.196486 0.795870
Si Si5 0.183832 0.196009 0.895197
Si Si6 0.816128 0.196318 0.000000
Si Si7 0.684372 0.553762 0.352916
O O1 0.784297 0.182363 0.343906
O O2 0.733043 0.166342 0.250342
O O3 0.770967 0.095118 0.315124
O O4 0.000000 0.149223 0.289793
O O5 0.500000 0.302025 0.594570
O O6 0.750000 0.250000 0.590665
O O7 0.754604 0.343283 0.567591
O O8 0.727305 0.909014 0.500000
O O9 0.500000 0.895684 0.442006
O O10 0.749799 0.931027 0.404804
O O11 0.500000 0.200134 0.798854
O O12 0.750000 0.250000 0.790469
O O13 0.746778 0.175108 0.846118
O O14 0.250000 0.250000 0.896365
O O15 0.000000 0.197542 0.891173
O O16 0.226301 0.174304 0.947812
O O17 0.750000 0.250000 0.000000
O O18 0.000000 0.199978 0.000000
O O19 0.500000 0.555621 0.356161
O O20 0.730479 0.500000 0.339935
#
# Coordination Sequence:
#
# PCOD9488513 Si02
#       7
#    16  16  16  16  16   8  16
#     4   9  18  32  48  66  87 111 140 175 214 256
#     4  10  20  33  50  69  90 118 150 182 217 257
#     4  10  21  35  50  70  95 120 146 176 210 251
#     4  11  20  28  40  60  86 117 151 183 217 254
#     4   9  15  24  36  52  76 107 145 185 221 254
#     4   8  14  22  34  50  70 102 143 184 221 254
#     4   9  19  36  56  74  90 111 140 174 216 265
#
# _framework density 15.361815999999999
#
# number of rings (size 3 to 8) (size 9 to 14) (size 15 to 20)
#    0.000    2.462    0.000    5.077    0.000    7.077 
#    0.000    1.538    0.000    0.000    0.000    0.000 
#    0.000    0.000    0.000    0.692    0.000   15.923 
#
# Total GULP energy -289789.555509 kJ/mol
# GULP energy per Si atom -5572.876067 kJ/mol
# Density = 1.532685 g / cm^3
# Si number density = 15.361816 Si / 1000 Ang^3
#
#
#
# Elastic Constant Matrix: (Units=GPa)
#
#
# Indices 1 2 3 4 5 6 
#
# 1 43.1704 14.7027 38.5905 0.0000 0.0000 0.0000
# 2 14.7027 60.6334 25.2907 0.0000 0.0000 0.0000
# 3 38.5905 25.2907 121.6668 0.0000 0.0000 0.0000
# 4 0.0000 0.0000 0.0000 8.5778 0.0000 0.0000
# 5 0.0000 0.0000 0.0000 0.0000 23.7604 0.0000
# 6 0.0000 0.0000 0.0000 0.0000 0.0000 16.0202
#
#
#
# Elastic Compliance Matrix: (Units=1/GPa)
#
#
# Indices 1 2 3 4 5 6 
#
# 1 0.033196 -0.004005 -0.009697 0.000000 0.000000 0.000000
# 2 -0.004005 0.018541 -0.002584 0.000000 0.000000 0.000000
# 3 -0.009697 -0.002584 0.011832 0.000000 0.000000 0.000000
# 4 0.000000 0.000000 0.000000 0.116580 0.000000 0.000000
# 5 0.000000 0.000000 0.000000 0.000000 0.042087 0.000000
# 6 0.000000 0.000000 0.000000 0.000000 0.000000 0.062421
#
#
# Mechanical properties :
#
#
# Convention : Reuss Voigt Hill
#
# Bulk Modulus (GPa) = 32.25982 42.51537 37.38759
# Shear Modulus (GPa) = 15.26431 19.46413 17.36422
#
# Velocity S-wave (km/s) = 3.15565 3.56342 3.36571
# Velocity P-wave (km/s) = 5.85859 6.68332 6.28450
#
# Compressibility (1/GPa) = 0.03099831
#
# Stress axis : x y z
#
# Youngs Moduli (GPa) = 30.12413 53.93319 84.51745
#
# Poissons Ratio (x) = 0.21600 0.81954
# Poissons Ratio (y) = 0.12065 0.21838
# Poissons Ratio (z) = 0.29210 0.13936
#
# Static dielectric constant tensor:
#      x y z
#    x 1.512860 0.000000 0.000000 
#    y 0.000000 1.488980 0.000000 
#    z 0.000000 0.000000 1.547130 
# 
# From -- ./inp_files/73746.got.cif
#   From: 2010.05.17/outbox.cif.g08.bks.cpg/sg65_37_cif.got.tgz:73746.got - 2010.06.03 17:01:31.
