data_PCOD9488453
_publ_section_title
;
Structure prediction by ZEFSAII (Michael W. Deem and Ramdas Pophale) SiO2 
 PCOD9488453
Probable space group: C M M M
;
_chemical_formula_sum "Si O2"
_cell_formula_units_Z 88
_cell_length_a 28.016604
_cell_length_b 19.200430
_cell_length_c 9.016408
_cell_angle_alpha 90.000000
_cell_angle_beta 90.000000
_cell_angle_gamma 90.000000
_cell_volume 4850.203965
_symmetry_space_group_name_H-M "C M M M"
_symmetry_group_IT_number 65
_symmetry_cell_setting 'orthorhombic'
loop_
_space_group_symop_operation_xyz
x,y,z
-x,-y,z
x,-y,-z
-x,y,-z
-x,-y,-z
x,y,-z
-x,y,z
x,-y,z
1/2+x,1/2+y,z
1/2-x,1/2-y,z
1/2+x,1/2-y,-z
1/2-x,1/2+y,-z
1/2-x,1/2-y,-z
1/2+x,1/2+y,-z
1/2-x,1/2+y,z
1/2+x,1/2-y,z
loop_
_atom_site_type_symbol
_atom_site_label
_atom_site_fract_x
_atom_site_fract_y
_atom_site_fract_z
Si Si1 0.751380 0.078648 0.178386
Si Si2 0.183368 0.804022 0.327031
Si Si3 0.500000 0.417721 0.168551
Si Si4 0.947587 0.677477 0.821111
Si Si5 0.841154 0.657486 0.178025
Si Si6 0.072543 0.825012 0.327437
O O1 0.782421 0.140022 0.250419
O O2 0.695989 0.096245 0.211157
O O3 0.763664 0.000000 0.227064
O O4 0.757438 0.081916 0.000000
O O5 0.196000 0.795790 0.500000
O O6 0.179768 0.728153 0.250695
O O7 0.129248 0.831914 0.316686
O O8 0.500000 0.500000 0.165966
O O9 0.545618 0.388732 0.253964
O O10 0.500000 0.390812 0.000000
O O11 0.896323 0.644763 0.775023
O O12 0.943470 0.755703 0.758885
O O13 0.000000 0.648994 0.774382
O O14 0.947709 0.678349 0.000000
O O15 0.841388 0.667923 0.000000
O O16 0.059903 0.817723 0.500000
#
# Coordination Sequence:
#
# PCOD9488453 Si02
#       6
#    16  16   8  16  16  16
#     4  10  21  36  53  73 101 139 178 214 257 310
#     4  10  21  35  53  78 104 131 168 216 263 306
#     4  11  23  35  47  65  93 131 170 205 242 291
#     4   9  16  28  50  76 100 126 160 204 249 296
#     4   9  18  33  53  77 104 135 172 214 258 305
#     4  10  20  33  49  70  97 126 159 204 253 297
#
# _framework density 18.143567000000001
#
# number of rings (size 3 to 8) (size 9 to 14) (size 15 to 20)
#    0.000    2.273    0.909    1.909    0.000    6.909 
#    0.000    3.636    0.000    0.545    0.000    3.818 
#    0.000    0.000    0.000   10.727    0.000   11.273 
#
# Total GULP energy -245249.612649 kJ/mol
# GULP energy per Si atom -5573.854833 kJ/mol
# Density = 1.810227 g / cm^3
# Si number density = 18.143567 Si / 1000 Ang^3
#
#
#
# Elastic Constant Matrix: (Units=GPa)
#
#
# Indices 1 2 3 4 5 6 
#
# 1 101.5483 19.4648 16.6315 0.0000 0.0000 0.0000
# 2 19.4648 27.2625 8.7771 0.0000 0.0000 0.0000
# 3 16.6315 8.7771 16.2731 0.0000 0.0000 0.0000
# 4 0.0000 0.0000 0.0000 -5.9454 0.0000 0.0000
# 5 0.0000 0.0000 0.0000 0.0000 13.1583 0.0000
# 6 0.0000 0.0000 0.0000 0.0000 0.0000 29.0124
#
#
#
# Elastic Compliance Matrix: (Units=1/GPa)
#
#
# Indices 1 2 3 4 5 6 
#
# 1 0.012553 -0.005848 -0.009676 0.000000 0.000000 0.000000
# 2 -0.005848 0.047112 -0.019434 0.000000 0.000000 0.000000
# 3 -0.009676 -0.019434 0.081822 0.000000 0.000000 0.000000
# 4 0.000000 0.000000 0.000000 -0.168197 0.000000 0.000000
# 5 0.000000 0.000000 0.000000 0.000000 0.075998 0.000000
# 6 0.000000 0.000000 0.000000 0.000000 0.000000 0.034468
#
#
# Mechanical properties :
#
#
# Convention : Reuss Voigt Hill
#
# Bulk Modulus (GPa) = 13.97185 26.09232 20.03209
# Shear Modulus (GPa) = 28.16440 13.92574 21.04507
#
# Velocity S-wave (km/s) = 3.94421 2.77344 3.40945
# Velocity P-wave (km/s) = 5.33477 4.96671 5.15403
#
# Compressibility (1/GPa) = 0.07157247
#
# Stress axis : x y z
#
# Youngs Moduli (GPa) = 79.66182 21.22586 12.22161
#
# Poissons Ratio (x) = 0.12412 0.11825
# Poissons Ratio (y) = 0.46583 0.23752
# Poissons Ratio (z) = 0.77078 0.41251
#
# Static dielectric constant tensor:
#      x y z
#    x 1.671050 0.000000 0.000000 
#    y 0.000000 1.577630 0.000000 
#    z 0.000000 0.000000 1.611400 
# 
# From -- ./inp_files/18302.got.cif
#   From: 2010.05.17/outbox.cif.g08.bks.cpg/sg65_10_cif.got.tgz:18302.got - 2010.06.03 17:01:31.
