data_PCOD9488050
_publ_section_title
;
Structure prediction by ZEFSAII (Michael W. Deem and Ramdas Pophale) SiO2 
 PCOD9488050
Probable space group: C M M M
;
_chemical_formula_sum "Si O2"
_cell_formula_units_Z 80
_cell_length_a 28.641390
_cell_length_b 7.907797
_cell_length_c 19.483780
_cell_angle_alpha 90.000000
_cell_angle_beta 90.000000
_cell_angle_gamma 90.000000
_cell_volume 4412.887137
_symmetry_space_group_name_H-M "C M M M"
_symmetry_group_IT_number 65
_symmetry_cell_setting 'orthorhombic'
loop_
_space_group_symop_operation_xyz
x,y,z
-x,-y,z
x,-y,-z
-x,y,-z
-x,-y,-z
x,y,-z
-x,y,z
x,-y,z
1/2+x,1/2+y,z
1/2-x,1/2-y,z
1/2+x,1/2-y,-z
1/2-x,1/2+y,-z
1/2-x,1/2-y,-z
1/2+x,1/2+y,-z
1/2-x,1/2+y,z
1/2+x,1/2-y,z
loop_
_atom_site_type_symbol
_atom_site_label
_atom_site_fract_x
_atom_site_fract_y
_atom_site_fract_z
Si Si1 0.052425 0.793237 0.786938
Si Si2 0.605474 0.293495 0.923304
Si Si3 0.197144 0.796890 0.154490
Si Si4 0.696967 0.798966 0.423139
Si Si5 0.355839 0.297116 0.711392
O O1 0.070129 0.742877 0.862889
O O2 0.092642 0.737599 0.733923
O O3 0.000000 0.734867 0.772824
O O4 0.051904 0.000000 0.785951
O O5 0.605004 0.500000 0.924204
O O6 0.657359 0.240450 0.898998
O O7 0.594584 0.234946 0.000000
O O8 0.250000 0.750000 0.138843
O O9 0.180280 0.735406 0.229795
O O10 0.195031 0.000000 0.155500
O O11 0.687605 0.729636 0.500000
O O12 0.750000 0.750000 0.404352
O O13 0.661713 0.745454 0.363942
O O14 0.695313 0.000000 0.426934
O O15 0.356564 0.500000 0.716540
#
# Coordination Sequence:
#
# PCOD9488050 Si02
#       5
#    16  16  16  16  16
#     4   8  14  25  42  64  87 112 146 187 227 264
#     4   8  14  24  37  56  84 114 143 179 223 265
#     4   9  17  27  39  58  84 114 147 180 214 255
#     4  10  20  32  47  69  95 120 146 176 211 254
#     4   9  17  29  45  65  90 118 147 182 221 260
#
# _framework density 18.128722
#
# number of rings (size 3 to 8) (size 9 to 14) (size 15 to 20)
#    0.000    3.200    0.000    3.600    0.000    4.400 
#    0.000    2.000    0.000    1.200    0.000    4.200 
#    0.000    0.000    0.000    8.800    0.000    8.800 
#
# Total GULP energy -222863.987726 kJ/mol
# GULP energy per Si atom -5571.599693 kJ/mol
# Density = 1.808746 g / cm^3
# Si number density = 18.128722 Si / 1000 Ang^3
#
#
#
# Elastic Constant Matrix: (Units=GPa)
#
#
# Indices 1 2 3 4 5 6 
#
# 1 117.7449 4.5424 68.9451 0.0000 0.0000 0.0000
# 2 4.5424 14.6807 5.6457 0.0000 0.0000 0.0000
# 3 68.9451 5.6457 128.9256 0.0000 0.0000 0.0000
# 4 0.0000 0.0000 0.0000 -2.7193 0.0000 0.0000
# 5 0.0000 0.0000 0.0000 0.0000 14.1774 0.0000
# 6 0.0000 0.0000 0.0000 0.0000 0.0000 14.1243
#
#
#
# Elastic Compliance Matrix: (Units=1/GPa)
#
#
# Indices 1 2 3 4 5 6 
#
# 1 0.012389 -0.001308 -0.006568 0.000000 0.000000 0.000000
# 2 -0.001308 0.069421 -0.002341 0.000000 0.000000 0.000000
# 3 -0.006568 -0.002341 0.011371 0.000000 0.000000 0.000000
# 4 0.000000 0.000000 0.000000 -0.367741 0.000000 0.000000
# 5 0.000000 0.000000 0.000000 0.000000 0.070535 0.000000
# 6 0.000000 0.000000 0.000000 0.000000 0.000000 0.070800
#
#
# Mechanical properties :
#
#
# Convention : Reuss Voigt Hill
#
# Bulk Modulus (GPa) = 13.74586 46.62419 30.18503
# Shear Modulus (GPa) = -56.47091 17.26433 -19.60329
#
# Velocity S-wave (km/s) = -5.58727 3.08932 -3.29194
# Velocity P-wave (km/s) = 5.83306 6.20479 1.49579
#
# Compressibility (1/GPa) = 0.07274915
#
# Stress axis : x y z
#
# Youngs Moduli (GPa) = 80.71459 14.40478 87.94037
#
# Poissons Ratio (x) = 0.01883 0.57761
# Poissons Ratio (y) = 0.10554 0.20585
# Poissons Ratio (z) = 0.53015 0.03372
#
# Static dielectric constant tensor:
#      x y z
#    x 1.618760 0.000000 0.000000 
#    y 0.000000 1.677190 0.000000 
#    z 0.000000 0.000000 1.641840 
# 
# From -- ./inp_files/49880.got.cif
#   From: 2010.05.17/outbox.cif.g08.bks.cpg/sg65_25_cif.got.tgz:49880.got - 2010.06.03 17:01:31.
