data_PCOD9488288
_publ_section_title
;
Structure prediction by ZEFSAII (Michael W. Deem and Ramdas Pophale) SiO2 
 PCOD9488288
Probable space group: C M M M
;
_chemical_formula_sum "Si O2"
_cell_formula_units_Z 88
_cell_length_a 8.714678
_cell_length_b 31.724959
_cell_length_c 17.687516
_cell_angle_alpha 90.000000
_cell_angle_beta 90.000000
_cell_angle_gamma 90.000000
_cell_volume 4890.117113
_symmetry_space_group_name_H-M "C M M M"
_symmetry_group_IT_number 65
_symmetry_cell_setting 'orthorhombic'
loop_
_space_group_symop_operation_xyz
x,y,z
-x,-y,z
x,-y,-z
-x,y,-z
-x,-y,-z
x,y,-z
-x,y,z
x,-y,z
1/2+x,1/2+y,z
1/2-x,1/2-y,z
1/2+x,1/2-y,-z
1/2-x,1/2+y,-z
1/2-x,1/2-y,-z
1/2+x,1/2+y,-z
1/2-x,1/2+y,z
1/2+x,1/2-y,z
loop_
_atom_site_type_symbol
_atom_site_label
_atom_site_fract_x
_atom_site_fract_y
_atom_site_fract_z
Si Si1 0.682962 0.206806 0.620072
Si Si2 0.314976 0.951464 0.086397
Si Si3 0.682740 0.614496 0.204120
Si Si4 0.187353 0.451549 0.500000
Si Si5 0.316557 0.708097 0.209864
Si Si6 0.314393 0.113753 0.373051
O O1 0.500000 0.209640 0.615451
O O2 0.750000 0.250000 0.586530
O O3 0.737793 0.206582 0.707480
O O4 0.729888 0.159935 0.593605
O O5 0.500000 0.949590 0.089559
O O6 0.247036 0.919749 0.146909
O O7 0.270224 0.000000 0.101748
O O8 0.268704 0.941375 0.000000
O O9 0.500000 0.610902 0.209854
O O10 0.717511 0.662232 0.175896
O O11 0.751347 0.609602 0.288265
O O12 0.239429 0.500000 0.500000
O O13 0.234872 0.424388 0.426922
O O14 0.000000 0.452169 0.500000
O O15 0.500000 0.712270 0.218838
O O16 0.250000 0.750000 0.171206
O O17 0.500000 0.113582 0.369390
#
# Coordination Sequence:
#
# PCOD9488288 Si02
#       6
#    16  16  16   8  16  16
#     4   9  15  24  41  65  93 123 155 194 241 290
#     4   9  19  36  56  77 101 130 165 204 246 294
#     4  10  20  32  50  78 107 133 163 202 248 298
#     4   9  18  34  54  71  89 121 167 213 252 289
#     4   9  16  26  42  67  98 130 164 199 236 282
#     4   9  18  32  50  72  97 127 166 209 247 288
#
# _framework density 17.995480000000001
#
# number of rings (size 3 to 8) (size 9 to 14) (size 15 to 20)
#    0.000    2.818    0.000    3.273    0.000    4.364 
#    0.000    3.636    0.000    1.091    0.000    0.000 
#    0.000    0.000    0.000    0.000    0.000    0.000 
#
# Total GULP energy -245107.962840 kJ/mol
# GULP energy per Si atom -5570.635519 kJ/mol
# Density = 1.795452 g / cm^3
# Si number density = 17.995480 Si / 1000 Ang^3
#
#
#
# Elastic Constant Matrix: (Units=GPa)
#
#
# Indices 1 2 3 4 5 6 
#
# 1 28.9625 48.0352 25.5496 0.0000 0.0000 0.0000
# 2 48.0352 206.0184 91.9072 0.0000 0.0000 0.0000
# 3 25.5496 91.9072 85.4477 0.0000 0.0000 0.0000
# 4 0.0000 0.0000 0.0000 -261.6374 0.0000 0.0000
# 5 0.0000 0.0000 0.0000 0.0000 5.4057 0.0000
# 6 0.0000 0.0000 0.0000 0.0000 0.0000 29.4769
#
#
#
# Elastic Compliance Matrix: (Units=1/GPa)
#
#
# Indices 1 2 3 4 5 6 
#
# 1 0.057535 -0.011035 -0.005334 0.000000 0.000000 0.000000
# 2 -0.011035 0.011448 -0.009014 0.000000 0.000000 0.000000
# 3 -0.005334 -0.009014 0.022993 0.000000 0.000000 0.000000
# 4 0.000000 0.000000 0.000000 -0.003822 0.000000 0.000000
# 5 0.000000 0.000000 0.000000 0.000000 0.184990 0.000000
# 6 0.000000 0.000000 0.000000 0.000000 0.000000 0.033925
#
#
# Mechanical properties :
#
#
# Convention : Reuss Voigt Hill
#
# Bulk Modulus (GPa) = 24.26580 72.37917 48.32249
# Shear Modulus (GPa) = 13.45633 -35.02186 -10.78277
#
# Velocity S-wave (km/s) = 2.73749 -4.41630 -2.45050
# Velocity P-wave (km/s) = 4.84824 3.78194 4.34791
#
# Compressibility (1/GPa) = 0.04121027
#
# Stress axis : x y z
#
# Youngs Moduli (GPa) = 17.38063 87.35034 43.49089
#
# Poissons Ratio (x) = 0.96394 0.23198
# Poissons Ratio (y) = 0.19180 0.39202
# Poissons Ratio (z) = 0.09271 0.78737
#
# Static dielectric constant tensor:
#      x y z
#    x 1.604350 0.000000 0.000000 
#    y 0.000000 1.669120 0.000000 
#    z 0.000000 0.000000 1.593520 
# 
# From -- ./inp_files/50332.got.cif
#   From: 2010.05.17/outbox.cif.g08.bks.cpg/sg65_26_cif.got.tgz:50332.got - 2010.06.03 17:01:31.
