data_PCOD9488734
_publ_section_title
;
Structure prediction by ZEFSAII (Michael W. Deem and Ramdas Pophale) SiO2 
 PCOD9488734
Probable space group: C M M M
;
_chemical_formula_sum "Si O2"
_cell_formula_units_Z 120
_cell_length_a 27.242861
_cell_length_b 9.003943
_cell_length_c 28.051809
_cell_angle_alpha 90.000000
_cell_angle_beta 90.000000
_cell_angle_gamma 90.000000
_cell_volume 6880.917087
_symmetry_space_group_name_H-M "C M M M"
_symmetry_group_IT_number 65
_symmetry_cell_setting 'orthorhombic'
loop_
_space_group_symop_operation_xyz
x,y,z
-x,-y,z
x,-y,-z
-x,y,-z
-x,-y,-z
x,y,-z
-x,y,z
x,-y,z
1/2+x,1/2+y,z
1/2-x,1/2-y,z
1/2+x,1/2-y,-z
1/2-x,1/2+y,-z
1/2-x,1/2-y,-z
1/2+x,1/2+y,-z
1/2-x,1/2+y,z
1/2+x,1/2-y,z
loop_
_atom_site_type_symbol
_atom_site_label
_atom_site_fract_x
_atom_site_fract_y
_atom_site_fract_z
Si Si1 0.500000 0.327077 0.557109
Si Si2 0.303443 0.176967 0.054631
Si Si3 0.598134 0.177975 0.598749
Si Si4 0.645223 0.322899 0.857421
Si Si5 0.390226 0.175367 0.290827
Si Si6 0.556195 0.823434 0.805534
Si Si7 0.197706 0.824194 0.557537
Si Si8 0.301216 0.676282 0.760302
O O1 0.500000 0.500000 0.572318
O O2 0.500000 0.322911 0.500000
O O3 0.549831 0.248179 0.574856
O O4 0.250000 0.250000 0.061152
O O5 0.338855 0.244675 0.094141
O O6 0.299501 0.000000 0.060539
O O7 0.319033 0.207461 0.000000
O O8 0.594262 0.206446 0.655440
O O9 0.649357 0.247894 0.579925
O O10 0.599072 0.000000 0.590800
O O11 0.646269 0.500000 0.862906
O O12 0.592890 0.267713 0.838517
O O13 0.682076 0.281324 0.814042
O O14 0.430334 0.205497 0.249852
O O15 0.342873 0.267390 0.275333
O O16 0.378279 0.000000 0.287944
O O17 0.500000 0.787309 0.814725
O O18 0.563814 0.000000 0.813438
O O19 0.194016 0.809075 0.500000
O O20 0.250000 0.750000 0.571893
O O21 0.198392 0.000000 0.568891
O O22 0.297586 0.500000 0.758445
O O23 0.250000 0.750000 0.748687
#
# Coordination Sequence:
#
# PCOD9488734 Si02
#       8
#     8  16  16  16  16  16  16  16
#     4  11  25  43  61  83 113 149 185 223 272 329
#     4  10  20  33  51  77 109 144 181 220 265 318
#     4  11  23  38  60  87 114 144 182 227 276 330
#     4  10  20  33  51  77 107 140 180 223 268 318
#     4   9  20  36  54  78 107 138 174 214 262 316
#     4   9  18  34  57  78 101 136 176 219 266 317
#     4  10  21  38  60  84 111 144 183 226 272 326
#     4  10  20  33  51  75 106 143 182 220 262 313
#
# _framework density 17.439534999999999
#
# number of rings (size 3 to 8) (size 9 to 14) (size 15 to 20)
#    0.000    2.067    0.000    3.000    0.933    8.267 
#    0.000    0.000    0.000    0.400    0.000    2.800 
#    0.000    0.000    0.000    0.000    0.000    0.000 
#
# Total GULP energy -334952.326763 kJ/mol
# GULP energy per Si atom -5582.538779 kJ/mol
# Density = 1.739984 g / cm^3
# Si number density = 17.439535 Si / 1000 Ang^3
#
#
#
# Elastic Constant Matrix: (Units=GPa)
#
#
# Indices 1 2 3 4 5 6 
#
# 1 99.1913 52.9679 46.5495 0.0000 0.0000 0.0000
# 2 52.9679 74.0731 59.3605 0.0000 0.0000 0.0000
# 3 46.5495 59.3605 89.6302 0.0000 0.0000 0.0000
# 4 0.0000 0.0000 0.0000 25.9890 0.0000 0.0000
# 5 0.0000 0.0000 0.0000 0.0000 -1.5291 0.0000
# 6 0.0000 0.0000 0.0000 0.0000 0.0000 32.4717
#
#
#
# Elastic Compliance Matrix: (Units=1/GPa)
#
#
# Indices 1 2 3 4 5 6 
#
# 1 0.016416 -0.010456 -0.001601 0.000000 0.000000 0.000000
# 2 -0.010456 0.035428 -0.018033 0.000000 0.000000 0.000000
# 3 -0.001601 -0.018033 0.023932 0.000000 0.000000 0.000000
# 4 0.000000 0.000000 0.000000 0.038478 0.000000 0.000000
# 5 0.000000 0.000000 0.000000 0.000000 -0.653995 0.000000
# 6 0.000000 0.000000 0.000000 0.000000 0.000000 0.030796
#
#
# Mechanical properties :
#
#
# Convention : Reuss Voigt Hill
#
# Bulk Modulus (GPa) = 64.11989 64.51671 64.31830
# Shear Modulus (GPa) = -11.27229 18.32078 3.52424
#
# Velocity S-wave (km/s) = -2.54513 3.24471 1.42310
# Velocity P-wave (km/s) = 5.31130 7.14929 6.29771
#
# Compressibility (1/GPa) = 0.01559579
#
# Stress axis : x y z
#
# Youngs Moduli (GPa) = 60.91516 28.22596 41.78557
#
# Poissons Ratio (x) = 0.29512 0.06691
# Poissons Ratio (y) = 0.63691 0.75353
# Poissons Ratio (z) = 0.09753 0.50901
#
# Static dielectric constant tensor:
#      x y z
#    x 1.561550 0.000000 0.000000 
#    y 0.000000 1.586880 0.000000 
#    z 0.000000 0.000000 1.586050 
# 
# From -- ./inp_files/76138.got.cif
#   From: 2010.05.17/outbox.cif.g08.bks.cpg/sg65_39_cif.got.tgz:76138.got - 2010.06.03 17:01:31.
