data_PCOD9488502
_publ_section_title
;
Structure prediction by ZEFSAII (Michael W. Deem and Ramdas Pophale) SiO2 
 PCOD9488502
Probable space group: C M M M
;
_chemical_formula_sum "Si O2"
_cell_formula_units_Z 72
_cell_length_a 9.561775
_cell_length_b 27.242852
_cell_length_c 15.178448
_cell_angle_alpha 90.000000
_cell_angle_beta 90.000000
_cell_angle_gamma 90.000000
_cell_volume 3953.834241
_symmetry_space_group_name_H-M "C M M M"
_symmetry_group_IT_number 65
_symmetry_cell_setting 'orthorhombic'
loop_
_space_group_symop_operation_xyz
x,y,z
-x,-y,z
x,-y,-z
-x,y,-z
-x,-y,-z
x,y,-z
-x,y,z
x,-y,z
1/2+x,1/2+y,z
1/2-x,1/2-y,z
1/2+x,1/2-y,-z
1/2-x,1/2+y,-z
1/2-x,1/2-y,-z
1/2+x,1/2+y,-z
1/2-x,1/2+y,z
1/2+x,1/2-y,z
loop_
_atom_site_type_symbol
_atom_site_label
_atom_site_fract_x
_atom_site_fract_y
_atom_site_fract_z
Si Si1 0.331313 0.557429 0.500000
Si Si2 0.342463 0.440478 0.000000
Si Si3 0.333416 0.300775 0.801327
Si Si4 0.333621 0.699404 0.000000
Si Si5 0.332354 0.395496 0.686321
Si Si6 0.843299 0.558322 0.164584
O O1 0.280395 0.500000 0.500000
O O2 0.500000 0.553748 0.500000
O O3 0.295325 0.589008 0.413139
O O4 0.253871 0.425882 0.084231
O O5 0.353388 0.500000 0.000000
O O6 0.500000 0.420114 0.000000
O O7 0.500000 0.291169 0.797793
O O8 0.250000 0.250000 0.789046
O O9 0.302269 0.320675 0.901112
O O10 0.302502 0.341213 0.725904
O O11 0.250000 0.750000 0.000000
O O12 0.500000 0.707333 0.000000
O O13 0.500000 0.403417 0.697921
O O14 0.240765 0.430277 0.747739
O O15 0.856606 0.500000 0.155464
O O16 0.000000 0.579632 0.163008
#
# Coordination Sequence:
#
# PCOD9488502 Si02
#       6
#     8   8  16   8  16  16
#     4   9  18  34  56  79 103 133 175 229 280 327
#     4   9  17  30  49  72 101 140 180 214 253 310
#     4   9  18  32  51  75 104 137 173 216 264 319
#     4   8  14  27  46  69  98 131 165 202 248 302
#     4  10  20  34  54  78 101 133 180 227 271 322
#     4  10  20  33  49  73 106 139 171 214 268 322
#
# _framework density 18.210170999999999
#
# number of rings (size 3 to 8) (size 9 to 14) (size 15 to 20)
#    0.000    2.667    0.000    1.667    0.000    5.333 
#    0.000    3.333    0.000    4.667    0.000    0.000 
#    0.000    0.000    0.000    0.000    0.000    0.000 
#
# Total GULP energy -200419.237564 kJ/mol
# GULP energy per Si atom -5567.201043 kJ/mol
# Density = 1.816872 g / cm^3
# Si number density = 18.210171 Si / 1000 Ang^3
#
#
#
# Elastic Constant Matrix: (Units=GPa)
#
#
# Indices 1 2 3 4 5 6 
#
# 1 72.4050 37.7262 62.8490 0.0000 0.0000 0.0000
# 2 37.7262 108.9478 55.4567 0.0000 0.0000 0.0000
# 3 62.8490 55.4567 191.9598 0.0000 0.0000 0.0000
# 4 0.0000 0.0000 0.0000 24.1489 0.0000 0.0000
# 5 0.0000 0.0000 0.0000 0.0000 20.0839 0.0000
# 6 0.0000 0.0000 0.0000 0.0000 0.0000 17.2692
#
#
#
# Elastic Compliance Matrix: (Units=1/GPa)
#
#
# Indices 1 2 3 4 5 6 
#
# 1 0.020961 -0.004414 -0.005588 0.000000 0.000000 0.000000
# 2 -0.004414 0.011691 -0.001932 0.000000 0.000000 0.000000
# 3 -0.005588 -0.001932 0.007597 0.000000 0.000000 0.000000
# 4 0.000000 0.000000 0.000000 0.041410 0.000000 0.000000
# 5 0.000000 0.000000 0.000000 0.000000 0.049791 0.000000
# 6 0.000000 0.000000 0.000000 0.000000 0.000000 0.057906
#
#
# Mechanical properties :
#
#
# Convention : Reuss Voigt Hill
#
# Bulk Modulus (GPa) = 61.04597 76.15294 68.59945
# Shear Modulus (GPa) = 22.86392 26.78578 24.82485
#
# Velocity S-wave (km/s) = 3.54723 3.83942 3.69621
# Velocity P-wave (km/s) = 7.09739 7.84631 7.48123
#
# Compressibility (1/GPa) = 0.01638110
#
# Stress axis : x y z
#
# Youngs Moduli (GPa) = 47.70673 85.53746 131.62983
#
# Poissons Ratio (x) = 0.37758 0.73550
# Poissons Ratio (y) = 0.21059 0.25433
# Poissons Ratio (z) = 0.26657 0.16527
#
# Static dielectric constant tensor:
#      x y z
#    x 1.606720 0.000000 0.000000 
#    y 0.000000 1.665380 0.000000 
#    z 0.000000 0.000000 1.739820 
# 
# From -- ./inp_files/36660.got.cif
#   From: 2010.05.17/outbox.cif.g08.bks.cpg/sg65_19_cif.got.tgz:36660.got - 2010.06.03 17:01:31.
