data_PCOD9488650
_publ_section_title
;
Structure prediction by ZEFSAII (Michael W. Deem and Ramdas Pophale) SiO2 
 PCOD9488650
Probable space group: C M M M
;
_chemical_formula_sum "Si O2"
_cell_formula_units_Z 104
_cell_length_a 27.411306
_cell_length_b 17.807262
_cell_length_c 13.283606
_cell_angle_alpha 90.000000
_cell_angle_beta 90.000000
_cell_angle_gamma 90.000000
_cell_volume 6483.997848
_symmetry_space_group_name_H-M "C M M M"
_symmetry_group_IT_number 65
_symmetry_cell_setting 'orthorhombic'
loop_
_space_group_symop_operation_xyz
x,y,z
-x,-y,z
x,-y,-z
-x,y,-z
-x,-y,-z
x,y,-z
-x,y,z
x,-y,z
1/2+x,1/2+y,z
1/2-x,1/2-y,z
1/2+x,1/2-y,-z
1/2-x,1/2+y,-z
1/2-x,1/2-y,-z
1/2+x,1/2+y,-z
1/2-x,1/2+y,z
1/2+x,1/2-y,z
loop_
_atom_site_type_symbol
_atom_site_label
_atom_site_fract_x
_atom_site_fract_y
_atom_site_fract_z
Si Si1 0.000000 0.413841 0.877826
Si Si2 0.557822 0.589050 0.616524
Si Si3 0.297749 0.589215 0.882209
Si Si4 0.692074 0.089111 0.787307
Si Si5 0.098878 0.328295 0.120482
Si Si6 0.302485 0.790263 0.382569
Si Si7 0.371833 0.687906 0.249125
O O1 0.049182 0.370518 0.848164
O O2 0.000000 0.500000 0.842127
O O3 0.000000 0.415984 0.000000
O O4 0.570102 0.607408 0.500000
O O5 0.500000 0.602086 0.629617
O O6 0.566493 0.500000 0.629970
O O7 0.589355 0.636487 0.693794
O O8 0.306856 0.500000 0.868685
O O9 0.241915 0.603381 0.849046
O O10 0.334042 0.637571 0.814339
O O11 0.303800 0.607341 0.000000
O O12 0.645673 0.122923 0.845674
O O13 0.696953 0.133722 0.682555
O O14 0.686765 0.000000 0.774051
O O15 0.103583 0.248329 0.174952
O O16 0.098962 0.320007 0.000000
O O17 0.312415 0.803208 0.500000
O O18 0.250000 0.750000 0.373341
O O19 0.341698 0.735269 0.331620
#
# Coordination Sequence:
#
# PCOD9488650 Si02
#       7
#     8  16  16  16  16  16  16
#     4   9  18  34  52  72 100 131 168 214 258 299
#     4   9  19  36  57  80 104 132 172 222 267 306
#     4  10  20  33  50  74 106 141 175 211 250 300
#     4  10  20  35  54  77 102 137 179 214 255 310
#     4  10  21  33  52  79 105 137 174 215 262 306
#     4  10  20  35  51  74 106 136 168 212 260 307
#     4  11  20  33  54  76 106 138 174 210 256 315
#
# _framework density 16.039487000000001
#
# number of rings (size 3 to 8) (size 9 to 14) (size 15 to 20)
#    0.000    2.077    1.538    2.769    1.077    1.846 
#    0.000    2.308    0.000    0.000    0.000    3.231 
#    0.000    6.462    0.000    0.000    0.000    0.000 
#
# Total GULP energy -290157.737054 kJ/mol
# GULP energy per Si atom -5579.956482 kJ/mol
# Density = 1.600298 g / cm^3
# Si number density = 16.039487 Si / 1000 Ang^3
#
#
#
# Elastic Constant Matrix: (Units=GPa)
#
#
# Indices 1 2 3 4 5 6 
#
# 1 116.9381 82.5141 66.0190 0.0000 0.0000 0.0000
# 2 82.5141 106.9346 71.8956 0.0000 0.0000 0.0000
# 3 66.0190 71.8956 115.1129 0.0000 0.0000 0.0000
# 4 0.0000 0.0000 0.0000 20.7314 0.0000 0.0000
# 5 0.0000 0.0000 0.0000 0.0000 24.3129 0.0000
# 6 0.0000 0.0000 0.0000 0.0000 0.0000 28.6016
#
#
#
# Elastic Compliance Matrix: (Units=1/GPa)
#
#
# Indices 1 2 3 4 5 6 
#
# 1 0.019379 -0.012896 -0.003059 0.000000 0.000000 0.000000
# 2 -0.012896 0.024703 -0.008033 0.000000 0.000000 0.000000
# 3 -0.003059 -0.008033 0.015459 0.000000 0.000000 0.000000
# 4 0.000000 0.000000 0.000000 0.048236 0.000000 0.000000
# 5 0.000000 0.000000 0.000000 0.000000 0.041130 0.000000
# 6 0.000000 0.000000 0.000000 0.000000 0.000000 0.034963
#
#
# Mechanical properties :
#
#
# Convention : Reuss Voigt Hill
#
# Bulk Modulus (GPa) = 86.47514 86.64922 86.56218
# Shear Modulus (GPa) = 21.21331 22.63297 21.92314
#
# Velocity S-wave (km/s) = 3.64066 3.76051 3.70107
# Velocity P-wave (km/s) = 8.46779 8.54371 8.50583
#
# Compressibility (1/GPa) = 0.01156402
#
# Stress axis : x y z
#
# Youngs Moduli (GPa) = 51.60332 40.48056 64.68880
#
# Poissons Ratio (x) = 0.52205 0.19791
# Poissons Ratio (y) = 0.66549 0.51962
# Poissons Ratio (z) = 0.15787 0.32516
#
# Static dielectric constant tensor:
#      x y z
#    x 1.517410 0.000000 0.000000 
#    y 0.000000 1.521140 0.000000 
#    z 0.000000 0.000000 1.511050 
# 
# From -- ./inp_files/27498.got.cif
#   From: 2010.05.17/outbox.cif.g08.bks.cpg/sg65_14_cif.got.tgz:27498.got - 2010.06.03 17:01:31.
