data_PCOD9488857
_publ_section_title
;
Structure prediction by ZEFSAII (Michael W. Deem and Ramdas Pophale) SiO2 
 PCOD9488857
Probable space group: C M M M
;
_chemical_formula_sum "Si O2"
_cell_formula_units_Z 72
_cell_length_a 30.171309
_cell_length_b 15.129713
_cell_length_c 7.660003
_cell_angle_alpha 90.000000
_cell_angle_beta 90.000000
_cell_angle_gamma 90.000000
_cell_volume 3496.663034
_symmetry_space_group_name_H-M "C M M M"
_symmetry_group_IT_number 65
_symmetry_cell_setting 'orthorhombic'
loop_
_space_group_symop_operation_xyz
x,y,z
-x,-y,z
x,-y,-z
-x,y,-z
-x,-y,-z
x,y,-z
-x,y,z
x,-y,z
1/2+x,1/2+y,z
1/2-x,1/2-y,z
1/2+x,1/2-y,-z
1/2-x,1/2+y,-z
1/2-x,1/2-y,-z
1/2+x,1/2+y,-z
1/2-x,1/2+y,z
1/2+x,1/2-y,z
loop_
_atom_site_type_symbol
_atom_site_label
_atom_site_fract_x
_atom_site_fract_y
_atom_site_fract_z
Si Si1 0.275929 0.397010 0.707118
Si Si2 0.142305 0.788531 0.699714
Si Si3 0.448916 0.761708 0.290225
Si Si4 0.552763 0.903409 0.000000
Si Si5 0.325462 0.100494 0.797850
O O1 0.269771 0.377359 0.500000
O O2 0.287954 0.500000 0.724613
O O3 0.315646 0.337760 0.781586
O O4 0.227594 0.385077 0.788639
O O5 0.141906 0.819700 0.500000
O O6 0.091944 0.801541 0.763437
O O7 0.152518 0.683785 0.704563
O O8 0.446019 0.776434 0.500000
O O9 0.500000 0.734471 0.253182
O O10 0.439044 0.848344 0.175262
O O11 0.500000 0.913142 0.000000
O O12 0.573326 0.000000 0.000000
O O13 0.333687 0.000000 0.731567
O O14 0.339172 0.104605 0.000000
#
# Coordination Sequence:
#
# PCOD9488857 Si02
#       5
#    16  16  16   8  16
#     4   9  18  34  54  74 100 132 167 210 257 307
#     4  10  20  33  52  76  99 132 174 210 254 310
#     4   9  19  35  52  73 103 137 174 216 260 308
#     4   9  18  32  50  72  98 131 173 217 260 306
#     4  10  21  34  48  72 105 136 167 206 252 304
#
# _framework density 20.591059000000001
#
# number of rings (size 3 to 8) (size 9 to 14) (size 15 to 20)
#    0.000    2.556    0.000    1.333    1.556    6.222 
#    0.000    4.444    0.000    0.667    0.000    4.667 
#    0.000    2.667    0.000    0.222    0.000    0.000 
#
# Total GULP energy -200611.577885 kJ/mol
# GULP energy per Si atom -5572.543830 kJ/mol
# Density = 2.054419 g / cm^3
# Si number density = 20.591059 Si / 1000 Ang^3
#
#
#
# Elastic Constant Matrix: (Units=GPa)
#
#
# Indices 1 2 3 4 5 6 
#
# 1 118.0400 27.2564 6.0071 0.0000 0.0000 0.0000
# 2 27.2564 18.3489 1.3914 0.0000 0.0000 0.0000
# 3 6.0071 1.3914 49.7885 0.0000 0.0000 0.0000
# 4 0.0000 0.0000 0.0000 -0.1472 0.0000 0.0000
# 5 0.0000 0.0000 0.0000 0.0000 13.7680 0.0000
# 6 0.0000 0.0000 0.0000 0.0000 0.0000 21.0905
#
#
#
# Elastic Compliance Matrix: (Units=1/GPa)
#
#
# Indices 1 2 3 4 5 6 
#
# 1 0.012947 -0.019154 -0.001027 0.000000 0.000000 0.000000
# 2 -0.019154 0.082952 -0.000007 0.000000 0.000000 0.000000
# 3 -0.001027 -0.000007 0.020209 0.000000 0.000000 0.000000
# 4 0.000000 0.000000 0.000000 -6.794851 0.000000 0.000000
# 5 0.000000 0.000000 0.000000 0.000000 0.072632 0.000000
# 6 0.000000 0.000000 0.000000 0.000000 0.000000 0.047415
#
#
# Mechanical properties :
#
#
# Convention : Reuss Voigt Hill
#
# Bulk Modulus (GPa) = 13.20450 28.38747 20.79599
# Shear Modulus (GPa) = -0.77005 17.04376 8.13686
#
# Velocity S-wave (km/s) = -0.61220 2.88014 1.99003
# Velocity P-wave (km/s) = 2.43453 4.98764 3.92451
#
# Compressibility (1/GPa) = 0.07573176
#
# Stress axis : x y z
#
# Youngs Moduli (GPa) = 77.23950 12.05519 49.48275
#
# Poissons Ratio (x) = 0.23090 0.05081
# Poissons Ratio (y) = 1.47944 0.00036
# Poissons Ratio (z) = 0.07931 0.00009
#
# Static dielectric constant tensor:
#      x y z
#    x 1.800660 0.000000 0.000000 
#    y 0.000000 1.725170 0.000000 
#    z 0.000000 0.000000 2.165860 
# 
# From -- ./inp_files/7302.got.cif
#   From: 2010.05.17/outbox.cif.g08.bks.cpg/sg65_4_cif.got.tgz:7302.got - 2010.06.03 17:01:31.
