data_PCOD9488116
_publ_section_title
;
Structure prediction by ZEFSAII (Michael W. Deem and Ramdas Pophale) SiO2 
 PCOD9488116
Probable space group: C M M M
;
_chemical_formula_sum "Si O2"
_cell_formula_units_Z 104
_cell_length_a 32.958230
_cell_length_b 20.869922
_cell_length_c 9.009328
_cell_angle_alpha 90.000000
_cell_angle_beta 90.000000
_cell_angle_gamma 90.000000
_cell_volume 6196.937336
_symmetry_space_group_name_H-M "C M M M"
_symmetry_group_IT_number 65
_symmetry_cell_setting 'orthorhombic'
loop_
_space_group_symop_operation_xyz
x,y,z
-x,-y,z
x,-y,-z
-x,y,-z
-x,-y,-z
x,y,-z
-x,y,z
x,-y,z
1/2+x,1/2+y,z
1/2-x,1/2-y,z
1/2+x,1/2-y,-z
1/2-x,1/2+y,-z
1/2-x,1/2-y,-z
1/2+x,1/2+y,-z
1/2-x,1/2+y,z
1/2+x,1/2-y,z
loop_
_atom_site_type_symbol
_atom_site_label
_atom_site_fract_x
_atom_site_fract_y
_atom_site_fract_z
Si Si1 0.571832 0.130683 0.172312
Si Si2 0.184132 0.072676 0.321209
Si Si3 0.048634 0.500000 0.669864
Si Si4 0.632210 0.306067 0.678929
Si Si5 0.044552 0.759741 0.320974
Si Si6 0.227694 0.573004 0.179415
Si Si7 0.336480 0.179664 0.826702
O O1 0.562962 0.063343 0.246945
O O2 0.549671 0.188370 0.257085
O O3 0.619721 0.145611 0.180645
O O4 0.559696 0.130278 0.000000
O O5 0.188679 0.076276 0.500000
O O6 0.152588 0.127324 0.274554
O O7 0.227851 0.083314 0.246970
O O8 0.171035 0.000000 0.284524
O O9 0.063148 0.500000 0.500000
O O10 0.000000 0.500000 0.668930
O O11 0.632584 0.303448 0.500000
O O12 0.585217 0.297334 0.727662
O O13 0.658013 0.246034 0.739768
O O14 0.045493 0.756907 0.500000
O O15 0.000000 0.785199 0.276938
O O16 0.214632 0.500000 0.220010
O O17 0.197033 0.629016 0.227739
O O18 0.229653 0.575038 0.000000
O O19 0.328069 0.194073 0.000000
#
# Coordination Sequence:
#
# PCOD9488116 Si02
#       7
#    16  16   8  16  16  16  16
#     4  10  20  32  48  68  91 121 158 200 243 283
#     4   9  18  33  51  71  96 125 157 193 235 282
#     4  11  23  35  45  61  89 125 163 201 243 287
#     4   9  18  32  50  71  96 125 157 194 236 284
#     4   9  17  31  50  69  92 122 155 191 234 286
#     4   9  18  32  50  69  93 127 163 196 233 279
#     4   9  19  33  49  70  96 125 157 198 241 280
#
# _framework density 16.782484
#
# number of rings (size 3 to 8) (size 9 to 14) (size 15 to 20)
#    0.000    2.692    0.000    1.154    1.077    5.231 
#    0.000    3.077    0.000    0.462    0.000    3.231 
#    0.000    0.000    0.000   11.538    0.000   12.000 
#
# Total GULP energy -289814.033421 kJ/mol
# GULP energy per Si atom -5573.346797 kJ/mol
# Density = 1.674429 g / cm^3
# Si number density = 16.782484 Si / 1000 Ang^3
#
#
#
# Elastic Constant Matrix: (Units=GPa)
#
#
# Indices 1 2 3 4 5 6 
#
# 1 98.5045 83.4762 20.6456 0.0000 0.0000 0.0000
# 2 83.4762 123.2141 26.4920 0.0000 0.0000 0.0000
# 3 20.6456 26.4920 11.9475 0.0000 0.0000 0.0000
# 4 0.0000 0.0000 0.0000 13.9472 0.0000 0.0000
# 5 0.0000 0.0000 0.0000 0.0000 21.0868 0.0000
# 6 0.0000 0.0000 0.0000 0.0000 0.0000 13.5567
#
#
#
# Elastic Compliance Matrix: (Units=1/GPa)
#
#
# Indices 1 2 3 4 5 6 
#
# 1 0.024518 -0.014336 -0.010580 0.000000 0.000000 0.000000
# 2 -0.014336 0.023893 -0.028207 0.000000 0.000000 0.000000
# 3 -0.010580 -0.028207 0.164526 0.000000 0.000000 0.000000
# 4 0.000000 0.000000 0.000000 0.071699 0.000000 0.000000
# 5 0.000000 0.000000 0.000000 0.000000 0.047423 0.000000
# 6 0.000000 0.000000 0.000000 0.000000 0.000000 0.073765
#
#
# Mechanical properties :
#
#
# Convention : Reuss Voigt Hill
#
# Bulk Modulus (GPa) = 9.37272 54.98818 32.18045
# Shear Modulus (GPa) = 9.13020 16.58829 12.85924
#
# Velocity S-wave (km/s) = 2.33498 3.14734 2.77109
# Velocity P-wave (km/s) = 3.58698 6.78557 5.42727
#
# Compressibility (1/GPa) = 0.10669265
#
# Stress axis : x y z
#
# Youngs Moduli (GPa) = 40.78620 41.85300 6.07805
#
# Poissons Ratio (x) = 0.60001 0.06430
# Poissons Ratio (y) = 0.58471 0.17144
# Poissons Ratio (z) = 0.43151 1.18054
#
# Static dielectric constant tensor:
#      x y z
#    x 1.572730 0.000000 0.000000 
#    y 0.000000 1.552060 0.000000 
#    z 0.000000 0.000000 1.568820 
# 
# From -- ./inp_files/18670.got.cif
#   From: 2010.05.17/outbox.cif.g08.bks.cpg/sg65_10_cif.got.tgz:18670.got - 2010.06.03 17:01:31.
