data_PCOD9488924
_publ_section_title
;
Structure prediction by ZEFSAII (Michael W. Deem and Ramdas Pophale) SiO2 
 PCOD9488924
Probable space group: C M M M
;
_chemical_formula_sum "Si O2"
_cell_formula_units_Z 96
_cell_length_a 23.858679
_cell_length_b 26.123358
_cell_length_c 8.645333
_cell_angle_alpha 90.000000
_cell_angle_beta 90.000000
_cell_angle_gamma 90.000000
_cell_volume 5388.366436
_symmetry_space_group_name_H-M "C M M M"
_symmetry_group_IT_number 65
_symmetry_cell_setting 'orthorhombic'
loop_
_space_group_symop_operation_xyz
x,y,z
-x,-y,z
x,-y,-z
-x,y,-z
-x,-y,-z
x,y,-z
-x,y,z
x,-y,z
1/2+x,1/2+y,z
1/2-x,1/2-y,z
1/2+x,1/2-y,-z
1/2-x,1/2+y,-z
1/2-x,1/2-y,-z
1/2+x,1/2+y,-z
1/2-x,1/2+y,z
1/2+x,1/2-y,z
loop_
_atom_site_type_symbol
_atom_site_label
_atom_site_fract_x
_atom_site_fract_y
_atom_site_fract_z
Si Si1 0.694704 0.558894 0.686931
Si Si2 0.636182 0.156521 0.316394
Si Si3 0.433866 0.249167 0.182880
Si Si4 0.820273 0.559650 0.814985
Si Si5 0.253015 0.689600 0.172226
Si Si6 0.635945 0.657364 0.679714
O O1 0.699811 0.562912 0.500000
O O2 0.681876 0.500000 0.726610
O O3 0.756321 0.570860 0.756884
O O4 0.645893 0.598709 0.734830
O O5 0.642548 0.158755 0.500000
O O6 0.590538 0.198477 0.265501
O O7 0.634332 0.097346 0.262517
O O8 0.692761 0.172995 0.229715
O O9 0.500000 0.253530 0.211984
O O10 0.403122 0.301488 0.235481
O O11 0.423986 0.242897 0.000000
O O12 0.830407 0.500000 0.777329
O O13 0.821820 0.565825 0.000000
O O14 0.250000 0.750000 0.158947
O O15 0.300888 0.677314 0.294778
O O16 0.266619 0.668785 0.000000
O O17 0.620109 0.657077 0.500000
#
# Coordination Sequence:
#
# PCOD9488924 Si02
#       6
#    16  16  16  16  16  16
#     4   9  18  32  50  77 115 152 183 219 267 323
#     4  12  23  35  56  82 112 146 181 226 277 328
#     4  11  25  43  60  78 104 142 186 233 284 334
#     4  10  20  33  52  80 115 153 187 219 262 322
#     4  11  21  32  50  77 112 149 182 219 268 330
#     4  11  21  33  55  83 112 145 182 226 276 330
#
# _framework density 17.816158999999999
#
# number of rings (size 3 to 8) (size 9 to 14) (size 15 to 20)
#    0.000    1.333    3.333    3.500    0.000    3.667 
#    0.000    0.000    0.000    1.000    0.000    7.000 
#    0.000    0.000    0.000    0.000    0.000    0.000 
#
# Total GULP energy -267638.166018 kJ/mol
# GULP energy per Si atom -5575.795125 kJ/mol
# Density = 1.777561 g / cm^3
# Si number density = 17.816159 Si / 1000 Ang^3
#
#
#
# Elastic Constant Matrix: (Units=GPa)
#
#
# Indices 1 2 3 4 5 6 
#
# 1 40.7432 33.3563 14.6081 0.0000 0.0000 0.0000
# 2 33.3563 132.9487 28.5720 0.0000 0.0000 0.0000
# 3 14.6081 28.5720 39.8648 0.0000 0.0000 0.0000
# 4 0.0000 0.0000 0.0000 35.9966 0.0000 0.0000
# 5 0.0000 0.0000 0.0000 0.0000 -22.2989 0.0000
# 6 0.0000 0.0000 0.0000 0.0000 0.0000 10.2630
#
#
#
# Elastic Compliance Matrix: (Units=1/GPa)
#
#
# Indices 1 2 3 4 5 6 
#
# 1 0.032538 -0.006621 -0.007178 0.000000 0.000000 0.000000
# 2 -0.006621 0.010239 -0.004912 0.000000 0.000000 0.000000
# 3 -0.007178 -0.004912 0.031236 0.000000 0.000000 0.000000
# 4 0.000000 0.000000 0.000000 0.027780 0.000000 0.000000
# 5 0.000000 0.000000 0.000000 0.000000 -0.044845 0.000000
# 6 0.000000 0.000000 0.000000 0.000000 0.000000 0.097437
#
#
# Mechanical properties :
#
#
# Convention : Reuss Voigt Hill
#
# Bulk Modulus (GPa) = 27.32946 40.73660 34.03303
# Shear Modulus (GPa) = 24.50941 13.92682 19.21812
#
# Velocity S-wave (km/s) = 3.71305 2.79892 3.28791
# Velocity P-wave (km/s) = 5.80993 5.77580 5.79289
#
# Compressibility (1/GPa) = 0.03659056
#
# Stress axis : x y z
#
# Youngs Moduli (GPa) = 30.73312 97.67019 32.01478
#
# Poissons Ratio (x) = 0.64669 0.22980
# Poissons Ratio (y) = 0.20349 0.15726
# Poissons Ratio (z) = 0.22060 0.47975
#
# Static dielectric constant tensor:
#      x y z
#    x 1.566360 0.000000 0.000000 
#    y 0.000000 1.718570 0.000000 
#    z 0.000000 0.000000 1.611450 
# 
# From -- ./inp_files/12253.got.cif
#   From: 2010.05.17/outbox.cif.g08.bks.cpg/sg65_7_cif.got.tgz:12253.got - 2010.06.03 17:01:31.
