data_PCOD9488113
_publ_section_title
;
Structure prediction by ZEFSAII (Michael W. Deem and Ramdas Pophale) SiO2 
 PCOD9488113
Probable space group: C M M M
;
_chemical_formula_sum "Si O2"
_cell_formula_units_Z 88
_cell_length_a 23.145287
_cell_length_b 22.079842
_cell_length_c 7.328356
_cell_angle_alpha 90.000000
_cell_angle_beta 90.000000
_cell_angle_gamma 90.000000
_cell_volume 3745.114416
_symmetry_space_group_name_H-M "C M M M"
_symmetry_group_IT_number 65
_symmetry_cell_setting 'orthorhombic'
loop_
_space_group_symop_operation_xyz
x,y,z
-x,-y,z
x,-y,-z
-x,y,-z
-x,-y,-z
x,y,-z
-x,y,z
x,-y,z
1/2+x,1/2+y,z
1/2-x,1/2-y,z
1/2+x,1/2-y,-z
1/2-x,1/2+y,-z
1/2-x,1/2-y,-z
1/2+x,1/2+y,-z
1/2-x,1/2+y,z
1/2+x,1/2-y,z
loop_
_atom_site_type_symbol
_atom_site_label
_atom_site_fract_x
_atom_site_fract_y
_atom_site_fract_z
Si Si1 0.066879 0.567843 0.721985
Si Si2 0.647443 0.178018 0.277057
Si Si3 0.283561 0.500000 0.781910
Si Si4 0.416769 0.500000 0.222032
Si Si5 0.000000 0.112300 0.246443
Si Si6 0.111350 0.812460 0.722237
Si Si7 0.268558 0.364999 0.710945
O O1 0.067691 0.568231 0.500000
O O2 0.084766 0.500000 0.779028
O O3 0.108300 0.621674 0.783020
O O4 0.000000 0.577148 0.775738
O O5 0.648738 0.176397 0.500000
O O6 0.622095 0.242910 0.227160
O O7 0.713237 0.169439 0.212391
O O8 0.350558 0.500000 0.720882
O O9 0.256825 0.436794 0.719571
O O10 0.283175 0.500000 0.000000
O O11 0.450155 0.559837 0.281419
O O12 0.421200 0.500000 0.000000
O O13 0.948618 0.161147 0.210464
O O14 0.106724 0.816297 0.500000
O O15 0.168028 0.849758 0.785838
O O16 0.272493 0.346281 0.500000
#
# Coordination Sequence:
#
# PCOD9488113 Si02
#       7
#    16  16   8   8   8  16  16
#     4   8  14  24  38  62  97 132 167 209 260 314
#     4   9  18  30  50  73 106 146 180 221 269 328
#     4  11  22  39  59  82 111 145 187 239 290 333
#     4  10  22  40  59  77 103 142 192 236 287 331
#     4  11  19  34  53  78 107 141 189 228 268 330
#     4  10  20  32  47  75 112 149 179 219 276 331
#     4  10  20  36  55  79 109 145 187 227 273 338
#
# _framework density 23.49728
#
# number of rings (size 3 to 8) (size 9 to 14) (size 15 to 20)
#    0.000    2.364    1.818    2.182    2.545    2.182 
#    0.000    3.636    0.000    4.364    0.000    0.000 
#    0.000    0.727    0.000    0.000    0.000    0.000 
#
# Total GULP energy -244995.656650 kJ/mol
# GULP energy per Si atom -5568.083106 kJ/mol
# Density = 2.344380 g / cm^3
# Si number density = 23.497280 Si / 1000 Ang^3
#
#
#
# Elastic Constant Matrix: (Units=GPa)
#
#
# Indices 1 2 3 4 5 6 
#
# 1 163.3656 108.0450 6.0659 0.0000 0.0000 0.0000
# 2 108.0450 176.0032 -4.3110 0.0000 0.0000 0.0000
# 3 6.0659 -4.3110 92.1343 0.0000 0.0000 0.0000
# 4 0.0000 0.0000 0.0000 -12.0405 0.0000 0.0000
# 5 0.0000 0.0000 0.0000 0.0000 -9.8517 0.0000
# 6 0.0000 0.0000 0.0000 0.0000 0.0000 65.0893
#
#
#
# Elastic Compliance Matrix: (Units=1/GPa)
#
#
# Indices 1 2 3 4 5 6 
#
# 1 0.010393 -0.006404 -0.000984 0.000000 0.000000 0.000000
# 2 -0.006404 0.009635 0.000872 0.000000 0.000000 0.000000
# 3 -0.000984 0.000872 0.010959 0.000000 0.000000 0.000000
# 4 0.000000 0.000000 0.000000 -0.083053 0.000000 0.000000
# 5 0.000000 0.000000 0.000000 0.000000 -0.101506 0.000000
# 6 0.000000 0.000000 0.000000 0.000000 0.000000 0.015364
#
#
# Mechanical properties :
#
#
# Convention : Reuss Voigt Hill
#
# Bulk Modulus (GPa) = 55.69300 72.34476 64.01888
# Shear Modulus (GPa) = -41.94967 30.08631 -5.93168
#
# Velocity S-wave (km/s) = -4.22986 3.58217 -1.59056
# Velocity P-wave (km/s) = 0.31987 6.92565 4.89195
#
# Compressibility (1/GPa) = 0.01795558
#
# Stress axis : x y z
#
# Youngs Moduli (GPa) = 96.21402 103.79190 91.24649
#
# Poissons Ratio (x) = 0.66473 0.08978
# Poissons Ratio (y) = 0.61620 -0.07961
# Poissons Ratio (z) = 0.09467 -0.09056
#
# Static dielectric constant tensor:
#      x y z
#    x 1.837990 0.000000 0.000000 
#    y 0.000000 1.833270 0.000000 
#    z 0.000000 0.000000 1.958670 
# 
# From -- ./inp_files/14042.got.cif
#   From: 2010.05.17/outbox.cif.g08.bks.cpg/sg65_8_cif.got.tgz:14042.got - 2010.06.03 17:01:31.
