data_PCOD9488851
_publ_section_title
;
Structure prediction by ZEFSAII (Michael W. Deem and Ramdas Pophale) SiO2 
 PCOD9488851
Probable space group: C M M M
;
_chemical_formula_sum "Si O2"
_cell_formula_units_Z 72
_cell_length_a 14.666161
_cell_length_b 8.629490
_cell_length_c 31.793214
_cell_angle_alpha 90.000000
_cell_angle_beta 90.000000
_cell_angle_gamma 90.000000
_cell_volume 4023.796526
_symmetry_space_group_name_H-M "C M M M"
_symmetry_group_IT_number 65
_symmetry_cell_setting 'orthorhombic'
loop_
_space_group_symop_operation_xyz
x,y,z
-x,-y,z
x,-y,-z
-x,y,-z
-x,-y,-z
x,y,-z
-x,y,z
x,-y,z
1/2+x,1/2+y,z
1/2-x,1/2-y,z
1/2+x,1/2-y,-z
1/2-x,1/2+y,-z
1/2-x,1/2-y,-z
1/2+x,1/2+y,-z
1/2-x,1/2+y,z
1/2+x,1/2-y,z
loop_
_atom_site_type_symbol
_atom_site_label
_atom_site_fract_x
_atom_site_fract_y
_atom_site_fract_z
Si Si1 0.500000 0.313618 0.936576
Si Si2 0.352646 0.814317 0.000000
Si Si3 0.500000 0.312623 0.386952
Si Si4 0.000000 0.313666 0.293221
Si Si5 0.647849 0.813851 0.775230
Si Si6 0.000000 0.185748 0.161793
Si Si7 0.148590 0.813071 0.546779
O O1 0.500000 0.500000 0.941202
O O2 0.588633 0.246300 0.960236
O O3 0.500000 0.274334 0.887397
O O4 0.250000 0.750000 0.000000
O O5 0.351303 0.000000 0.000000
O O6 0.500000 0.500000 0.385707
O O7 0.500000 0.252204 0.339824
O O8 0.413854 0.260786 0.414824
O O9 0.088787 0.266892 0.265940
O O10 0.000000 0.500000 0.295355
O O11 0.750000 0.750000 0.774612
O O12 0.588570 0.752301 0.814419
O O13 0.649898 0.000000 0.776819
O O14 0.000000 0.000000 0.165778
O O15 0.114608 0.767318 0.500000
O O16 0.250000 0.750000 0.551133
O O17 0.149905 0.000000 0.547434
#
# Coordination Sequence:
#
# PCOD9488851 Si02
#       7
#     8   8   8   8  16   8  16
#     4  10  21  38  58  83 115 147 184 231 277 323
#     4  11  22  37  58  82 112 153 194 231 274 322
#     4  10  20  33  52  75  99 133 170 206 253 308
#     4   9  21  38  53  75 106 137 171 215 262 312
#     4  10  21  38  59  81 108 142 179 221 270 322
#     4  10  21  37  59  86 114 144 180 225 275 325
#     4   9  18  33  51  72  99 130 166 207 251 301
#
# _framework density 17.893549
#
# number of rings (size 3 to 8) (size 9 to 14) (size 15 to 20)
#    0.000    2.222    0.000    4.000    0.000    8.444 
#    0.000    4.444    0.000    3.333    0.000    0.000 
#    0.000    0.000    0.000    0.000    0.000    0.000 
#
# Total GULP energy -200909.395922 kJ/mol
# GULP energy per Si atom -5580.816553 kJ/mol
# Density = 1.785282 g / cm^3
# Si number density = 17.893549 Si / 1000 Ang^3
#
#
#
# Elastic Constant Matrix: (Units=GPa)
#
#
# Indices 1 2 3 4 5 6 
#
# 1 180.8774 51.5373 111.1197 0.0000 0.0000 0.0000
# 2 51.5373 57.4082 59.7807 0.0000 0.0000 0.0000
# 3 111.1197 59.7807 202.8574 0.0000 0.0000 0.0000
# 4 0.0000 0.0000 0.0000 32.1850 0.0000 0.0000
# 5 0.0000 0.0000 0.0000 0.0000 9.7632 0.0000
# 6 0.0000 0.0000 0.0000 0.0000 0.0000 29.9529
#
#
#
# Elastic Compliance Matrix: (Units=1/GPa)
#
#
# Indices 1 2 3 4 5 6 
#
# 1 0.008998 -0.004249 -0.003677 0.000000 0.000000 0.000000
# 2 -0.004249 0.027138 -0.005670 0.000000 0.000000 0.000000
# 3 -0.003677 -0.005670 0.008614 0.000000 0.000000 0.000000
# 4 0.000000 0.000000 0.000000 0.031070 0.000000 0.000000
# 5 0.000000 0.000000 0.000000 0.000000 0.102426 0.000000
# 6 0.000000 0.000000 0.000000 0.000000 0.000000 0.033386
#
#
# Mechanical properties :
#
#
# Convention : Reuss Voigt Hill
#
# Bulk Modulus (GPa) = 56.95083 98.44648 77.69866
# Shear Modulus (GPa) = 20.43517 28.96059 24.69788
#
# Velocity S-wave (km/s) = 3.38308 4.02741 3.71923
# Velocity P-wave (km/s) = 6.86709 8.76151 7.87150
#
# Compressibility (1/GPa) = 0.01755901
#
# Stress axis : x y z
#
# Youngs Moduli (GPa) = 111.13518 36.84896 116.08512
#
# Poissons Ratio (x) = 0.15658 0.42681
# Poissons Ratio (y) = 0.47224 0.65817
# Poissons Ratio (z) = 0.40861 0.20892
#
# Static dielectric constant tensor:
#      x y z
#    x 1.590190 0.000000 0.000000 
#    y 0.000000 1.606580 0.000000 
#    z 0.000000 0.000000 1.599920 
# 
# From -- ./inp_files/77580.got.cif
#   From: 2010.05.17/outbox.cif.g08.bks.cpg/sg65_39_cif.got.tgz:77580.got - 2010.06.03 17:01:31.
