data_PCOD9488110
_publ_section_title
;
Structure prediction by ZEFSAII (Michael W. Deem and Ramdas Pophale) SiO2 
 PCOD9488110
Probable space group: C M M M
;
_chemical_formula_sum "Si O2"
_cell_formula_units_Z 104
_cell_length_a 24.786409
_cell_length_b 25.704792
_cell_length_c 7.586017
_cell_angle_alpha 90.000000
_cell_angle_beta 90.000000
_cell_angle_gamma 90.000000
_cell_volume 4833.275125
_symmetry_space_group_name_H-M "C M M M"
_symmetry_group_IT_number 65
_symmetry_cell_setting 'orthorhombic'
loop_
_space_group_symop_operation_xyz
x,y,z
-x,-y,z
x,-y,-z
-x,y,-z
-x,-y,-z
x,y,-z
-x,y,z
x,-y,z
1/2+x,1/2+y,z
1/2-x,1/2-y,z
1/2+x,1/2-y,-z
1/2-x,1/2+y,-z
1/2-x,1/2-y,-z
1/2+x,1/2+y,-z
1/2-x,1/2+y,z
1/2+x,1/2-y,z
loop_
_atom_site_type_symbol
_atom_site_label
_atom_site_fract_x
_atom_site_fract_y
_atom_site_fract_z
Si Si1 0.333234 0.785750 0.292687
Si Si2 0.832094 0.167770 0.786876
Si Si3 0.439109 0.159529 0.284821
Si Si4 0.876904 0.557658 0.294042
Si Si5 0.065403 0.000000 0.799765
Si Si6 0.561357 0.385880 0.783778
Si Si7 0.770163 0.613913 0.199102
O O1 0.328829 0.798210 0.500000
O O2 0.317962 0.726338 0.265327
O O3 0.395114 0.796881 0.236486
O O4 0.296981 0.828574 0.198065
O O5 0.892510 0.153855 0.728979
O O6 0.788441 0.125646 0.721245
O O7 0.830406 0.165499 0.000000
O O8 0.440473 0.158392 0.500000
O O9 0.500000 0.167780 0.223259
O O10 0.414019 0.104386 0.222282
O O11 0.890881 0.554327 0.500000
O O12 0.883403 0.500000 0.216758
O O13 0.814947 0.576953 0.283708
O O14 0.078154 0.943844 0.721544
O O15 0.000000 0.000000 0.810176
O O16 0.087104 0.000000 0.000000
O O17 0.500000 0.374430 0.727863
O O18 0.560452 0.387642 0.000000
O O19 0.763277 0.594793 0.000000
#
# Coordination Sequence:
#
# PCOD9488110 Si02
#       7
#    16  16  16  16   8  16  16
#     4  10  20  33  51  72  95 129 166 201 242 293
#     4  10  20  32  47  73 100 125 160 204 248 292
#     4   8  15  29  49  74 101 127 161 203 243 287
#     4   9  18  33  53  76 102 133 168 205 245 292
#     4   7  10  20  40  62  85 117 151 181 218 267
#     4   8  14  26  44  67  95 124 154 192 239 288
#     4  10  20  34  50  70  98 131 165 204 247 290
#
# _framework density 21.517499999999998
#
# number of rings (size 3 to 8) (size 9 to 14) (size 15 to 20)
#    0.000    3.000    0.000    3.231    0.000    4.308 
#    1.385    1.538    0.000   11.077    0.000    4.308 
#    0.000    1.846    0.000    0.000    0.000    0.000 
#
# Total GULP energy -289882.596355 kJ/mol
# GULP energy per Si atom -5574.665315 kJ/mol
# Density = 2.146853 g / cm^3
# Si number density = 21.517500 Si / 1000 Ang^3
#
#
#
# Elastic Constant Matrix: (Units=GPa)
#
#
# Indices 1 2 3 4 5 6 
#
# 1 88.0071 -15.6982 -2.7793 0.0000 0.0000 0.0000
# 2 -15.6982 21.7915 -8.6024 0.0000 0.0000 0.0000
# 3 -2.7793 -8.6024 49.0679 0.0000 0.0000 0.0000
# 4 0.0000 0.0000 0.0000 208.3350 0.0000 0.0000
# 5 0.0000 0.0000 0.0000 0.0000 9.8327 0.0000
# 6 0.0000 0.0000 0.0000 0.0000 0.0000 13.2241
#
#
#
# Elastic Compliance Matrix: (Units=1/GPa)
#
#
# Indices 1 2 3 4 5 6 
#
# 1 0.013345 0.010649 0.002623 0.000000 0.000000 0.000000
# 2 0.010649 0.057799 0.010736 0.000000 0.000000 0.000000
# 3 0.002623 0.010736 0.022411 0.000000 0.000000 0.000000
# 4 0.000000 0.000000 0.000000 0.004800 0.000000 0.000000
# 5 0.000000 0.000000 0.000000 0.000000 0.101701 0.000000
# 6 0.000000 0.000000 0.000000 0.000000 0.000000 0.075619
#
#
# Mechanical properties :
#
#
# Convention : Reuss Voigt Hill
#
# Bulk Modulus (GPa) = 7.06360 11.63406 9.34883
# Shear Modulus (GPa) = 18.19177 58.67480 38.43328
#
# Velocity S-wave (km/s) = 2.91080 5.22758 4.23086
# Velocity P-wave (km/s) = 3.81927 6.46957 5.31235
#
# Compressibility (1/GPa) = 0.14157095
#
# Stress axis : x y z
#
# Youngs Moduli (GPa) = 74.93419 17.30133 44.62145
#
# Poissons Ratio (x) = -0.18424 -0.11703
# Poissons Ratio (y) = -0.79797 -0.47907
# Poissons Ratio (z) = -0.19654 -0.18575
#
# Static dielectric constant tensor:
#      x y z
#    x 1.791280 0.000000 0.000000 
#    y 0.000000 1.764140 0.000000 
#    z 0.000000 0.000000 1.840380 
# 
# From -- ./inp_files/14777.got.cif
#   From: 2010.05.17/outbox.cif.g08.bks.cpg/sg65_8_cif.got.tgz:14777.got - 2010.06.03 17:01:31.
