data_PCOD9488277
_publ_section_title
;
Structure prediction by ZEFSAII (Michael W. Deem and Ramdas Pophale) SiO2 
 PCOD9488277
Probable space group: C M M M
;
_chemical_formula_sum "Si O2"
_cell_formula_units_Z 80
_cell_length_a 21.037252
_cell_length_b 21.531494
_cell_length_c 7.865948
_cell_angle_alpha 90.000000
_cell_angle_beta 90.000000
_cell_angle_gamma 90.000000
_cell_volume 3562.987063
_symmetry_space_group_name_H-M "C M M M"
_symmetry_group_IT_number 65
_symmetry_cell_setting 'orthorhombic'
loop_
_space_group_symop_operation_xyz
x,y,z
-x,-y,z
x,-y,-z
-x,y,-z
-x,-y,-z
x,y,-z
-x,y,z
x,-y,z
1/2+x,1/2+y,z
1/2-x,1/2-y,z
1/2+x,1/2-y,-z
1/2-x,1/2+y,-z
1/2-x,1/2-y,-z
1/2+x,1/2+y,-z
1/2-x,1/2+y,z
1/2+x,1/2-y,z
loop_
_atom_site_type_symbol
_atom_site_label
_atom_site_fract_x
_atom_site_fract_y
_atom_site_fract_z
Si Si1 0.408672 0.571997 0.000000
Si Si2 0.378292 0.204876 0.299298
Si Si3 0.424772 0.067738 0.203681
Si Si4 0.249283 0.654171 0.695188
Si Si5 0.254961 0.567965 0.000000
Si Si6 0.902502 0.835348 0.699556
O O1 0.425198 0.611840 0.830813
O O2 0.430238 0.500000 0.000000
O O3 0.331679 0.568328 0.000000
O O4 0.383298 0.214595 0.500000
O O5 0.400385 0.135073 0.262522
O O6 0.302941 0.206038 0.257150
O O7 0.415717 0.265268 0.232082
O O8 0.500000 0.067771 0.241804
O O9 0.399907 0.000000 0.267651
O O10 0.417136 0.067561 0.000000
O O11 0.235055 0.637605 0.500000
O O12 0.324959 0.663649 0.701759
O O13 0.234565 0.601344 0.829855
O O14 0.229206 0.500000 0.000000
O O15 0.921619 0.844655 0.500000
#
# Coordination Sequence:
#
# PCOD9488277 Si02
#       6
#     8  16  16  16   8  16
#     4   9  18  31  47  69  96 133 175 201 236 297
#     4  10  20  32  50  75  97 127 172 213 258 313
#     4   9  20  38  55  72  99 136 175 217 268 317
#     4   9  18  31  45  66  99 132 165 209 256 305
#     4   9  18  29  41  61  89 126 171 207 243 293
#     4   9  18  32  49  72 104 136 169 213 256 300
#
# _framework density 22.453071999999999
#
# number of rings (size 3 to 8) (size 9 to 14) (size 15 to 20)
#    0.000    2.800    0.000    1.200    2.800    4.800 
#    0.000   10.000    0.000    0.000    0.000    0.000 
#    0.000    1.600    0.000    4.400    0.000    0.200 
#
# Total GULP energy -222837.370259 kJ/mol
# GULP energy per Si atom -5570.934256 kJ/mol
# Density = 2.240197 g / cm^3
# Si number density = 22.453072 Si / 1000 Ang^3
#
#
#
# Elastic Constant Matrix: (Units=GPa)
#
#
# Indices 1 2 3 4 5 6 
#
# 1 66.0810 32.4486 16.2515 0.0000 0.0000 0.0000
# 2 32.4486 198.2029 61.8895 0.0000 0.0000 0.0000
# 3 16.2515 61.8895 62.0877 0.0000 0.0000 0.0000
# 4 0.0000 0.0000 0.0000 27.6871 0.0000 0.0000
# 5 0.0000 0.0000 0.0000 0.0000 -50.6058 0.0000
# 6 0.0000 0.0000 0.0000 0.0000 0.0000 9.2389
#
#
#
# Elastic Compliance Matrix: (Units=1/GPa)
#
#
# Indices 1 2 3 4 5 6 
#
# 1 0.016696 -0.001987 -0.002389 0.000000 0.000000 0.000000
# 2 -0.001987 0.007562 -0.007018 0.000000 0.000000 0.000000
# 3 -0.002389 -0.007018 0.023727 0.000000 0.000000 0.000000
# 4 0.000000 0.000000 0.000000 0.036118 0.000000 0.000000
# 5 0.000000 0.000000 0.000000 0.000000 -0.019761 0.000000
# 6 0.000000 0.000000 0.000000 0.000000 0.000000 0.108238
#
#
# Mechanical properties :
#
#
# Convention : Reuss Voigt Hill
#
# Bulk Modulus (GPa) = 39.68769 60.83897 50.26333
# Shear Modulus (GPa) = 24.53775 11.64952 18.09364
#
# Velocity S-wave (km/s) = 3.30941 2.28027 2.84182
# Velocity P-wave (km/s) = 5.68482 5.83847 5.76216
#
# Compressibility (1/GPa) = 0.02519673
#
# Stress axis : x y z
#
# Youngs Moduli (GPa) = 59.89304 132.24044 42.14629
#
# Poissons Ratio (x) = 0.26281 0.10070
# Poissons Ratio (y) = 0.11903 0.29577
# Poissons Ratio (z) = 0.14310 0.92802
#
# Static dielectric constant tensor:
#      x y z
#    x 1.860360 0.000000 0.000000 
#    y 0.000000 1.884220 0.000000 
#    z 0.000000 0.000000 1.741530 
# 
# From -- ./inp_files/16091.got.cif
#   From: 2010.05.17/outbox.cif.g08.bks.cpg/sg65_9_cif.got.tgz:16091.got - 2010.06.03 17:01:31.
