data_PCOD9488446
_publ_section_title
;
Structure prediction by ZEFSAII (Michael W. Deem and Ramdas Pophale) SiO2 
 PCOD9488446
Probable space group: C M M M
;
_chemical_formula_sum "Si O2"
_cell_formula_units_Z 104
_cell_length_a 28.060485
_cell_length_b 8.432015
_cell_length_c 27.755641
_cell_angle_alpha 90.000000
_cell_angle_beta 90.000000
_cell_angle_gamma 90.000000
_cell_volume 6567.163141
_symmetry_space_group_name_H-M "C M M M"
_symmetry_group_IT_number 65
_symmetry_cell_setting 'orthorhombic'
loop_
_space_group_symop_operation_xyz
x,y,z
-x,-y,z
x,-y,-z
-x,y,-z
-x,-y,-z
x,y,-z
-x,y,z
x,-y,z
1/2+x,1/2+y,z
1/2-x,1/2-y,z
1/2+x,1/2-y,-z
1/2-x,1/2+y,-z
1/2-x,1/2-y,-z
1/2+x,1/2+y,-z
1/2-x,1/2+y,z
1/2+x,1/2-y,z
loop_
_atom_site_type_symbol
_atom_site_label
_atom_site_fract_x
_atom_site_fract_y
_atom_site_fract_z
Si Si1 0.647460 0.309961 0.097075
Si Si2 0.697724 0.690611 0.195071
Si Si3 0.804247 0.688183 0.000000
Si Si4 0.945917 0.690136 0.146991
Si Si5 0.944406 0.193832 0.656640
Si Si6 0.898227 0.807713 0.244137
Si Si7 0.442375 0.689163 0.448137
O O1 0.648260 0.500000 0.095922
O O2 0.680797 0.256064 0.141822
O O3 0.594169 0.255803 0.110821
O O4 0.668039 0.245817 0.047437
O O5 0.698397 0.500000 0.194654
O O6 0.750000 0.750000 0.206793
O O7 0.655691 0.740959 0.231229
O O8 0.750000 0.750000 0.000000
O O9 0.802597 0.500000 0.000000
O O10 0.944251 0.500000 0.145612
O O11 0.930993 0.746448 0.200521
O O12 0.000000 0.742009 0.136290
O O13 0.915800 0.246231 0.703616
O O14 0.926241 0.250375 0.604134
O O15 0.000000 0.238133 0.661974
O O16 0.943154 0.000000 0.655602
O O17 0.900388 0.000000 0.242934
O O18 0.425726 0.755205 0.500000
O O19 0.500000 0.704315 0.447399
O O20 0.432547 0.500000 0.448858
#
# Coordination Sequence:
#
# PCOD9488446 Si02
#       7
#    16  16   8  16  16  16  16
#     4  10  21  37  55  75  96 120 153 187 222 265
#     4   9  18  30  45  64  85 110 139 174 215 258
#     4  12  24  38  57  80 105 128 152 187 229 269
#     4  10  20  33  49  70  96 124 152 183 221 263
#     4   8  12  18  31  51  76 108 141 172 209 253
#     4   9  17  28  42  62  86 113 148 183 215 260
#     4   7   9  13  22  40  69 103 135 166 205 254
#
# _framework density 15.836366
#
# number of rings (size 3 to 8) (size 9 to 14) (size 15 to 20)
#    0.000    2.923    0.000    4.846    0.000    6.154 
#    0.000    0.385    0.000    2.308    0.000    0.000 
#    0.000    1.231    0.000    6.154    0.000    5.538 
#
# Total GULP energy -289588.258511 kJ/mol
# GULP energy per Si atom -5569.004971 kJ/mol
# Density = 1.580032 g / cm^3
# Si number density = 15.836366 Si / 1000 Ang^3
#
#
#
# Elastic Constant Matrix: (Units=GPa)
#
#
# Indices 1 2 3 4 5 6 
#
# 1 107.2332 21.2071 75.5399 0.0000 0.0000 0.0000
# 2 21.2071 23.8220 24.3855 0.0000 0.0000 0.0000
# 3 75.5399 24.3855 169.6599 0.0000 0.0000 0.0000
# 4 0.0000 0.0000 0.0000 4.0682 0.0000 0.0000
# 5 0.0000 0.0000 0.0000 0.0000 13.8144 0.0000
# 6 0.0000 0.0000 0.0000 0.0000 0.0000 21.2728
#
#
#
# Elastic Compliance Matrix: (Units=1/GPa)
#
#
# Indices 1 2 3 4 5 6 
#
# 1 0.014635 -0.007455 -0.005445 0.000000 0.000000 0.000000
# 2 -0.007455 0.053018 -0.004301 0.000000 0.000000 0.000000
# 3 -0.005445 -0.004301 0.008937 0.000000 0.000000 0.000000
# 4 0.000000 0.000000 0.000000 0.245808 0.000000 0.000000
# 5 0.000000 0.000000 0.000000 0.000000 0.072388 0.000000
# 6 0.000000 0.000000 0.000000 0.000000 0.000000 0.047008
#
#
# Mechanical properties :
#
#
# Convention : Reuss Voigt Hill
#
# Bulk Modulus (GPa) = 23.70364 60.33114 42.01739
# Shear Modulus (GPa) = 10.19869 19.80325 15.00097
#
# Velocity S-wave (km/s) = 2.54048 3.54007 3.08108
# Velocity P-wave (km/s) = 4.85857 7.40869 6.26476
#
# Compressibility (1/GPa) = 0.04218761
#
# Stress axis : x y z
#
# Youngs Moduli (GPa) = 68.32735 18.86166 111.90001
#
# Poissons Ratio (x) = 0.14062 0.60927
# Poissons Ratio (y) = 0.50941 0.48126
# Poissons Ratio (z) = 0.37203 0.08112
#
# Static dielectric constant tensor:
#      x y z
#    x 1.518820 0.000000 0.000000 
#    y 0.000000 1.538870 0.000000 
#    z 0.000000 0.000000 1.559930 
# 
# From -- ./inp_files/76011.got.cif
#   From: 2010.05.17/outbox.cif.g08.bks.cpg/sg65_39_cif.got.tgz:76011.got - 2010.06.03 17:01:31.
