data_PCOD9488231
_publ_section_title
;
Structure prediction by ZEFSAII (Michael W. Deem and Ramdas Pophale) SiO2 
 PCOD9488231
Probable space group: C M M M
;
_chemical_formula_sum "Si O2"
_cell_formula_units_Z 128
_cell_length_a 10.767980
_cell_length_b 26.697908
_cell_length_c 25.515518
_cell_angle_alpha 90.000000
_cell_angle_beta 90.000000
_cell_angle_gamma 90.000000
_cell_volume 7335.265908
_symmetry_space_group_name_H-M "C M M M"
_symmetry_group_IT_number 65
_symmetry_cell_setting 'orthorhombic'
loop_
_space_group_symop_operation_xyz
x,y,z
-x,-y,z
x,-y,-z
-x,y,-z
-x,-y,-z
x,y,-z
-x,y,z
x,-y,z
1/2+x,1/2+y,z
1/2-x,1/2-y,z
1/2+x,1/2-y,-z
1/2-x,1/2+y,-z
1/2-x,1/2-y,-z
1/2+x,1/2+y,-z
1/2-x,1/2+y,z
1/2+x,1/2-y,z
loop_
_atom_site_type_symbol
_atom_site_label
_atom_site_fract_x
_atom_site_fract_y
_atom_site_fract_z
Si Si1 0.641481 0.124593 0.645243
Si Si2 0.355588 0.601246 0.196057
Si Si3 0.363539 0.868020 0.942201
Si Si4 0.356194 0.557552 0.915064
Si Si5 0.299067 0.804669 0.842383
Si Si6 0.142020 0.711081 0.562438
Si Si7 0.867229 0.285154 0.726169
Si Si8 0.353087 0.440021 0.690481
O O1 0.500000 0.103422 0.644860
O O2 0.656690 0.159796 0.594416
O O3 0.646969 0.163801 0.693815
O O4 0.753864 0.085957 0.652144
O O5 0.500000 0.610415 0.202683
O O6 0.340262 0.562987 0.147821
O O7 0.298219 0.653547 0.177517
O O8 0.313754 0.578620 0.251213
O O9 0.500000 0.893163 0.938825
O O10 0.249094 0.906428 0.937853
O O11 0.356991 0.829750 0.893797
O O12 0.356012 0.843947 0.000000
O O13 0.500000 0.572414 0.926986
O O14 0.340624 0.500000 0.931082
O O15 0.250000 0.750000 0.857439
O O16 0.371460 0.795388 0.788263
O O17 0.152422 0.703174 0.500000
O O18 0.250000 0.750000 0.578112
O O19 0.000000 0.729222 0.572974
O O20 0.750000 0.250000 0.715985
O O21 0.000000 0.262102 0.710252
O O22 0.500000 0.426837 0.681817
O O23 0.345055 0.500000 0.688244
#
# Coordination Sequence:
#
# PCOD9488231 Si02
#       8
#    16  16  16  16  16  16  16  16
#     4  10  20  34  51  77 111 143 177 217 261 310
#     4   9  17  32  53  77 104 134 167 206 256 312
#     4  10  22  38  53  72 102 137 171 211 258 307
#     4   9  18  34  57  81 102 127 165 213 261 309
#     4  10  20  34  54  76 101 133 170 211 250 307
#     4   9  18  33  54  80 112 149 187 225 265 310
#     4  10  20  32  49  75 105 136 167 206 253 305
#     4  10  20  34  53  77 106 140 178 218 263 316
#
# _framework density 17.449946000000001
#
# number of rings (size 3 to 8) (size 9 to 14) (size 15 to 20)
#    0.000    2.375    1.250    1.125    0.000    6.250 
#    0.000    1.250    0.000    1.875    0.000    2.625 
#    0.000    0.000    0.000    0.000    0.000    0.000 
#
# Total GULP energy -356302.930213 kJ/mol
# GULP energy per Si atom -5567.233285 kJ/mol
# Density = 1.741023 g / cm^3
# Si number density = 17.449946 Si / 1000 Ang^3
#
#
#
# Elastic Constant Matrix: (Units=GPa)
#
#
# Indices 1 2 3 4 5 6 
#
# 1 94.4124 55.7074 45.9971 0.0000 0.0000 0.0000
# 2 55.7074 76.2260 25.1282 0.0000 0.0000 0.0000
# 3 45.9971 25.1282 66.7476 0.0000 0.0000 0.0000
# 4 0.0000 0.0000 0.0000 9.6616 0.0000 0.0000
# 5 0.0000 0.0000 0.0000 0.0000 22.3165 0.0000
# 6 0.0000 0.0000 0.0000 0.0000 0.0000 -1.3997
#
#
#
# Elastic Compliance Matrix: (Units=1/GPa)
#
#
# Indices 1 2 3 4 5 6 
#
# 1 0.024606 -0.014149 -0.011630 0.000000 0.000000 0.000000
# 2 -0.014149 0.023113 0.001049 0.000000 0.000000 0.000000
# 3 -0.011630 0.001049 0.022602 0.000000 0.000000 0.000000
# 4 0.000000 0.000000 0.000000 0.103503 0.000000 0.000000
# 5 0.000000 0.000000 0.000000 0.000000 0.044810 0.000000
# 6 0.000000 0.000000 0.000000 0.000000 0.000000 -0.714439
#
#
# Mechanical properties :
#
#
# Convention : Reuss Voigt Hill
#
# Bulk Modulus (GPa) = 47.93646 54.56125 51.24886
# Shear Modulus (GPa) = -11.37940 13.48589 1.05324
#
# Velocity S-wave (km/s) = -2.55643 2.78300 0.77775
# Velocity P-wave (km/s) = 4.33782 6.45461 5.49903
#
# Compressibility (1/GPa) = 0.02086095
#
# Stress axis : x y z
#
# Youngs Moduli (GPa) = 40.63972 43.26489 44.24477
#
# Poissons Ratio (x) = 0.61215 0.51458
# Poissons Ratio (y) = 0.57501 -0.04641
# Poissons Ratio (z) = 0.47265 -0.04538
#
# Static dielectric constant tensor:
#      x y z
#    x 1.621800 0.000000 0.000000 
#    y 0.000000 1.565310 0.000000 
#    z 0.000000 0.000000 1.611750 
# 
# From -- ./inp_files/69283.got.cif
#   From: 2010.05.17/outbox.cif.g08.bks.cpg/sg65_35_cif.got.tgz:69283.got - 2010.06.03 17:01:31.
