data_PCOD9488090
_publ_section_title
;
Structure prediction by ZEFSAII (Michael W. Deem and Ramdas Pophale) SiO2 
 PCOD9488090
Probable space group: C M M M
;
_chemical_formula_sum "Si O2"
_cell_formula_units_Z 104
_cell_length_a 8.912719
_cell_length_b 31.781516
_cell_length_c 22.754251
_cell_angle_alpha 90.000000
_cell_angle_beta 90.000000
_cell_angle_gamma 90.000000
_cell_volume 6445.362801
_symmetry_space_group_name_H-M "C M M M"
_symmetry_group_IT_number 65
_symmetry_cell_setting 'orthorhombic'
loop_
_space_group_symop_operation_xyz
x,y,z
-x,-y,z
x,-y,-z
-x,y,-z
-x,-y,-z
x,y,-z
-x,y,z
x,-y,z
1/2+x,1/2+y,z
1/2-x,1/2-y,z
1/2+x,1/2-y,-z
1/2-x,1/2+y,-z
1/2-x,1/2-y,-z
1/2+x,1/2+y,-z
1/2-x,1/2+y,z
1/2+x,1/2-y,z
loop_
_atom_site_type_symbol
_atom_site_label
_atom_site_fract_x
_atom_site_fract_y
_atom_site_fract_z
Si Si1 0.819946 0.048837 0.931778
Si Si2 0.821141 0.291308 0.154747
Si Si3 0.678868 0.115255 0.155845
Si Si4 0.179388 0.208250 0.714518
Si Si5 0.672056 0.550995 0.500000
Si Si6 0.320466 0.614074 0.714305
Si Si7 0.320421 0.950511 0.376756
O O1 0.738356 0.080025 0.887865
O O2 0.000000 0.053281 0.925781
O O3 0.782906 0.000000 0.919526
O O4 0.781912 0.057307 0.000000
O O5 0.750000 0.250000 0.125242
O O6 0.788938 0.337830 0.130451
O O7 0.750040 0.292942 0.220068
O O8 0.000000 0.285949 0.158901
O O9 0.500000 0.112192 0.163784
O O10 0.755923 0.111134 0.219635
O O11 0.250000 0.250000 0.685471
O O12 0.212243 0.161517 0.690480
O O13 0.000000 0.213129 0.718299
O O14 0.670478 0.500000 0.500000
O O15 0.500000 0.565709 0.500000
O O16 0.755761 0.563019 0.559844
O O17 0.500000 0.609402 0.716406
O O18 0.248862 0.578769 0.673285
O O19 0.500000 0.947267 0.376901
O O20 0.281592 0.000000 0.367700
#
# Coordination Sequence:
#
# PCOD9488090 Si02
#       7
#    16  16  16  16   8  16  16
#     4   9  19  36  55  72  90 117 156 197 235 280
#     4   9  16  26  42  65  92 121 152 185 224 273
#     4  10  20  32  48  72  99 125 154 192 238 283
#     4   9  16  26  42  64  90 121 156 192 230 274
#     4   9  17  31  51  71  92 123 162 199 235 279
#     4  10  20  32  47  70  99 130 162 194 234 284
#     4  10  20  33  49  70  97 128 162 200 239 278
#
# _framework density 16.135631
#
# number of rings (size 3 to 8) (size 9 to 14) (size 15 to 20)
#    0.000    2.538    0.000    3.923    0.000    6.769 
#    0.000    0.769    0.000    0.462    0.000    0.538 
#    0.000    0.000    0.000    0.000    0.000    0.000 
#
# Total GULP energy -289652.429376 kJ/mol
# GULP energy per Si atom -5570.239026 kJ/mol
# Density = 1.609891 g / cm^3
# Si number density = 16.135631 Si / 1000 Ang^3
#
#
#
# Elastic Constant Matrix: (Units=GPa)
#
#
# Indices 1 2 3 4 5 6 
#
# 1 78.1598 68.6925 40.9510 0.0000 0.0000 0.0000
# 2 68.6925 136.5085 71.7769 0.0000 0.0000 0.0000
# 3 40.9510 71.7769 65.5242 0.0000 0.0000 0.0000
# 4 0.0000 0.0000 0.0000 -4.1297 0.0000 0.0000
# 5 0.0000 0.0000 0.0000 0.0000 18.2891 0.0000
# 6 0.0000 0.0000 0.0000 0.0000 0.0000 30.9843
#
#
#
# Elastic Compliance Matrix: (Units=1/GPa)
#
#
# Indices 1 2 3 4 5 6 
#
# 1 0.023390 -0.009631 -0.004068 0.000000 0.000000 0.000000
# 2 -0.009631 0.021242 -0.017250 0.000000 0.000000 0.000000
# 3 -0.004068 -0.017250 0.036700 0.000000 0.000000 0.000000
# 4 0.000000 0.000000 0.000000 -0.242147 0.000000 0.000000
# 5 0.000000 0.000000 0.000000 0.000000 0.054677 0.000000
# 6 0.000000 0.000000 0.000000 0.000000 0.000000 0.032274
#
#
# Mechanical properties :
#
#
# Convention : Reuss Voigt Hill
#
# Bulk Modulus (GPa) = 51.45609 71.44816 61.45212
# Shear Modulus (GPa) = -911.55087 15.61354 -447.96866
#
# Velocity S-wave (km/s) = -23.79405 3.11407 -16.68022
# Velocity P-wave (km/s) = 26.88711 7.57006 18.24296
#
# Compressibility (1/GPa) = 0.01943405
#
# Stress axis : x y z
#
# Youngs Moduli (GPa) = 42.75263 47.07583 27.24786
#
# Poissons Ratio (x) = 0.45340 0.11084
# Poissons Ratio (y) = 0.41176 0.47003
# Poissons Ratio (z) = 0.17392 0.81206
#
# Static dielectric constant tensor:
#      x y z
#    x 1.537980 0.000000 0.000000 
#    y 0.000000 1.584920 0.000000 
#    z 0.000000 0.000000 1.501140 
# 
# From -- ./inp_files/68479.got.cif
#   From: 2010.05.17/outbox.cif.g08.bks.cpg/sg65_35_cif.got.tgz:68479.got - 2010.06.03 17:01:31.
