data_PCOD9488550
_publ_section_title
;
Structure prediction by ZEFSAII (Michael W. Deem and Ramdas Pophale) SiO2 
 PCOD9488550
Probable space group: C M M M
;
_chemical_formula_sum "Si O2"
_cell_formula_units_Z 88
_cell_length_a 19.479291
_cell_length_b 9.415651
_cell_length_c 29.134187
_cell_angle_alpha 90.000000
_cell_angle_beta 90.000000
_cell_angle_gamma 90.000000
_cell_volume 5343.507233
_symmetry_space_group_name_H-M "C M M M"
_symmetry_group_IT_number 65
_symmetry_cell_setting 'orthorhombic'
loop_
_space_group_symop_operation_xyz
x,y,z
-x,-y,z
x,-y,-z
-x,y,-z
-x,-y,-z
x,y,-z
-x,y,z
x,-y,z
1/2+x,1/2+y,z
1/2-x,1/2-y,z
1/2+x,1/2-y,-z
1/2-x,1/2+y,-z
1/2-x,1/2-y,-z
1/2+x,1/2+y,-z
1/2-x,1/2+y,z
1/2+x,1/2-y,z
loop_
_atom_site_type_symbol
_atom_site_label
_atom_site_fract_x
_atom_site_fract_y
_atom_site_fract_z
Si Si1 0.577992 0.172818 0.500000
Si Si2 0.417914 0.330416 0.757848
Si Si3 0.678058 0.169449 0.687564
Si Si4 0.583469 0.833943 0.050402
Si Si5 0.083530 0.835962 0.138886
Si Si6 0.320850 0.168984 0.580610
O O1 0.500000 0.224898 0.500000
O O2 0.620630 0.214853 0.454899
O O3 0.575484 0.000000 0.500000
O O4 0.500000 0.310485 0.753876
O O5 0.404828 0.500000 0.752593
O O6 0.377755 0.239088 0.720730
O O7 0.396396 0.288885 0.809884
O O8 0.750000 0.250000 0.695509
O O9 0.659951 0.192316 0.633838
O O10 0.684768 0.000000 0.694950
O O11 0.500000 0.825144 0.050751
O O12 0.608573 0.752619 0.095355
O O13 0.600857 0.000000 0.053407
O O14 0.605714 0.779829 0.000000
O O15 0.000000 0.831239 0.138645
O O16 0.103288 0.000000 0.133440
O O17 0.250000 0.250000 0.571274
O O18 0.309678 0.000000 0.574673
#
# Coordination Sequence:
#
# PCOD9488550 Si02
#       6
#     8  16  16  16  16  16
#     4   9  17  30  49  73 100 127 154 188 230 271
#     4   9  18  32  48  67  94 126 157 193 240 288
#     4  10  20  33  50  72  96 123 159 200 238 280
#     4   8  13  20  30  47  74 108 144 182 224 268
#     4   8  14  24  37  54  78 110 147 184 224 273
#     4   9  18  32  51  72  93 122 157 192 230 274
#
# _framework density 16.468584
#
# number of rings (size 3 to 8) (size 9 to 14) (size 15 to 20)
#    0.000    3.182    0.000    2.455    0.000    2.909 
#    0.000    5.455    0.000    1.091    0.000    0.000 
#    0.000    0.727    0.000    2.364    0.000    5.273 
#
# Total GULP energy -244949.579832 kJ/mol
# GULP energy per Si atom -5567.035905 kJ/mol
# Density = 1.643110 g / cm^3
# Si number density = 16.468584 Si / 1000 Ang^3
#
#
#
# Elastic Constant Matrix: (Units=GPa)
#
#
# Indices 1 2 3 4 5 6 
#
# 1 57.3133 41.1966 79.1671 0.0000 0.0000 0.0000
# 2 41.1966 54.5134 75.0019 0.0000 0.0000 0.0000
# 3 79.1671 75.0019 154.1155 0.0000 0.0000 0.0000
# 4 0.0000 0.0000 0.0000 17.8223 0.0000 0.0000
# 5 0.0000 0.0000 0.0000 0.0000 -13.6767 0.0000
# 6 0.0000 0.0000 0.0000 0.0000 0.0000 19.7914
#
#
#
# Elastic Compliance Matrix: (Units=1/GPa)
#
#
# Indices 1 2 3 4 5 6 
#
# 1 0.061536 -0.009118 -0.027173 0.000000 0.000000 0.000000
# 2 -0.009118 0.056867 -0.022991 0.000000 0.000000 0.000000
# 3 -0.027173 -0.022991 0.031636 0.000000 0.000000 0.000000
# 4 0.000000 0.000000 0.000000 0.056110 0.000000 0.000000
# 5 0.000000 0.000000 0.000000 0.000000 -0.073117 0.000000
# 6 0.000000 0.000000 0.000000 0.000000 0.000000 0.050527
#
#
# Mechanical properties :
#
#
# Convention : Reuss Voigt Hill
#
# Bulk Modulus (GPa) = 31.77162 72.96372 52.36767
# Shear Modulus (GPa) = 15.99425 9.49250 12.74338
#
# Velocity S-wave (km/s) = 3.11979 2.40344 2.78474
# Velocity P-wave (km/s) = 5.68433 7.21824 6.49671
#
# Compressibility (1/GPa) = 0.03147463
#
# Stress axis : x y z
#
# Youngs Moduli (GPa) = 16.25077 17.58497 31.60996
#
# Poissons Ratio (x) = 0.16034 0.85892
# Poissons Ratio (y) = 0.14818 0.72674
# Poissons Ratio (z) = 0.44157 0.40430
#
# Static dielectric constant tensor:
#      x y z
#    x 1.531790 0.000000 0.000000 
#    y 0.000000 1.545580 0.000000 
#    z 0.000000 0.000000 1.574300 
# 
# From -- ./inp_files/77868.got.cif
#   From: 2010.05.17/outbox.cif.g08.bks.cpg/sg65_39_cif.got.tgz:77868.got - 2010.06.03 17:01:31.
