data_PCOD9488006
_publ_section_title
;
Structure prediction by ZEFSAII (Michael W. Deem and Ramdas Pophale) SiO2 
 PCOD9488006
Probable space group: C M M M
;
_chemical_formula_sum "Si O2"
_cell_formula_units_Z 72
_cell_length_a 28.666962
_cell_length_b 8.934636
_cell_length_c 18.567540
_cell_angle_alpha 90.000000
_cell_angle_beta 90.000000
_cell_angle_gamma 90.000000
_cell_volume 4755.683052
_symmetry_space_group_name_H-M "C M M M"
_symmetry_group_IT_number 65
_symmetry_cell_setting 'orthorhombic'
loop_
_space_group_symop_operation_xyz
x,y,z
-x,-y,z
x,-y,-z
-x,y,-z
-x,-y,-z
x,y,-z
-x,y,z
x,-y,z
1/2+x,1/2+y,z
1/2-x,1/2-y,z
1/2+x,1/2-y,-z
1/2-x,1/2+y,-z
1/2-x,1/2-y,-z
1/2+x,1/2+y,-z
1/2-x,1/2+y,z
1/2+x,1/2-y,z
loop_
_atom_site_type_symbol
_atom_site_label
_atom_site_fract_x
_atom_site_fract_y
_atom_site_fract_z
Si Si1 0.443444 0.325348 0.079802
Si Si2 0.444183 0.823165 0.771798
Si Si3 0.799996 0.677833 0.414157
Si Si4 0.944088 0.324365 0.500000
Si Si5 0.106184 0.821399 0.363173
O O1 0.500000 0.319824 0.078532
O O2 0.430681 0.500000 0.089383
O O3 0.428987 0.229390 0.148551
O O4 0.427513 0.276068 0.000000
O O5 0.500000 0.795414 0.765167
O O6 0.417338 0.733150 0.710500
O O7 0.436638 0.000000 0.762493
O O8 0.808244 0.701419 0.500000
O O9 0.799448 0.500000 0.401375
O O10 0.750000 0.750000 0.397043
O O11 0.841913 0.755968 0.372098
O O12 0.930711 0.500000 0.500000
O O13 0.923379 0.246643 0.429361
O O14 0.000000 0.314645 0.500000
O O15 0.106743 0.000000 0.367707
#
# Coordination Sequence:
#
# PCOD9488006 Si02
#       5
#    16  16  16   8  16
#     4   8  14  26  44  65  90 121 157 196 237 281
#     4  10  20  32  46  66  95 130 165 201 240 281
#     4  10  20  35  55  74  95 119 150 194 243 290
#     4  11  23  37  50  65  90 125 163 201 239 279
#     4  12  23  34  50  70  94 124 161 199 239 285
#
# _framework density 15.139782
#
# number of rings (size 3 to 8) (size 9 to 14) (size 15 to 20)
#    0.000    1.889    1.111    5.000    0.000    6.222 
#    0.000    2.222    0.000    0.000    0.000    0.000 
#    0.000    0.889    0.000    3.333    0.000    5.111 
#
# Total GULP energy -200913.883756 kJ/mol
# GULP energy per Si atom -5580.941215 kJ/mol
# Density = 1.510532 g / cm^3
# Si number density = 15.139782 Si / 1000 Ang^3
#
#
#
# Elastic Constant Matrix: (Units=GPa)
#
#
# Indices 1 2 3 4 5 6 
#
# 1 66.3795 56.2033 43.4111 0.0000 0.0000 0.0000
# 2 56.2033 117.5913 64.8684 0.0000 0.0000 0.0000
# 3 43.4111 64.8684 107.3735 0.0000 0.0000 0.0000
# 4 0.0000 0.0000 0.0000 23.8415 0.0000 0.0000
# 5 0.0000 0.0000 0.0000 0.0000 0.7653 0.0000
# 6 0.0000 0.0000 0.0000 0.0000 0.0000 23.7439
#
#
#
# Elastic Compliance Matrix: (Units=1/GPa)
#
#
# Indices 1 2 3 4 5 6 
#
# 1 0.026762 -0.010232 -0.004638 0.000000 0.000000 0.000000
# 2 -0.010232 0.016667 -0.005932 0.000000 0.000000 0.000000
# 3 -0.004638 -0.005932 0.014772 0.000000 0.000000 0.000000
# 4 0.000000 0.000000 0.000000 0.041944 0.000000 0.000000
# 5 0.000000 0.000000 0.000000 0.000000 1.306700 0.000000
# 6 0.000000 0.000000 0.000000 0.000000 0.000000 0.042116
#
#
# Mechanical properties :
#
#
# Convention : Reuss Voigt Hill
#
# Bulk Modulus (GPa) = 60.25584 68.92331 64.58957
# Shear Modulus (GPa) = 3.34203 18.12758 10.73480
#
# Velocity S-wave (km/s) = 1.48736 3.46402 2.66568
# Velocity P-wave (km/s) = 6.54490 7.85002 7.22698
#
# Compressibility (1/GPa) = 0.01659590
#
# Stress axis : x y z
#
# Youngs Moduli (GPa) = 37.36668 59.99820 67.69398
#
# Poissons Ratio (x) = 0.61393 0.31397
# Poissons Ratio (y) = 0.38235 0.40158
# Poissons Ratio (z) = 0.17331 0.35593
#
# Static dielectric constant tensor:
#      x y z
#    x 1.482330 0.000000 0.000000 
#    y 0.000000 1.501560 0.000000 
#    z 0.000000 0.000000 1.499810 
# 
# From -- ./inp_files/49758.got.cif
#   From: 2010.05.17/outbox.cif.g08.bks.cpg/sg65_25_cif.got.tgz:49758.got - 2010.06.03 17:01:31.
