data_PCOD9488480
_publ_section_title
;
Structure prediction by ZEFSAII (Michael W. Deem and Ramdas Pophale) SiO2 
 PCOD9488480
Probable space group: C M M M
;
_chemical_formula_sum "Si O2"
_cell_formula_units_Z 96
_cell_length_a 19.893121
_cell_length_b 8.958510
_cell_length_c 32.038511
_cell_angle_alpha 90.000000
_cell_angle_beta 90.000000
_cell_angle_gamma 90.000000
_cell_volume 5709.670299
_symmetry_space_group_name_H-M "C M M M"
_symmetry_group_IT_number 65
_symmetry_cell_setting 'orthorhombic'
loop_
_space_group_symop_operation_xyz
x,y,z
-x,-y,z
x,-y,-z
-x,y,-z
-x,-y,-z
x,y,-z
-x,y,z
x,-y,z
1/2+x,1/2+y,z
1/2-x,1/2-y,z
1/2+x,1/2-y,-z
1/2-x,1/2+y,-z
1/2-x,1/2-y,-z
1/2+x,1/2+y,-z
1/2-x,1/2+y,z
1/2+x,1/2-y,z
loop_
_atom_site_type_symbol
_atom_site_label
_atom_site_fract_x
_atom_site_fract_y
_atom_site_fract_z
Si Si1 0.420456 0.822019 0.672528
Si Si2 0.322637 0.320444 0.163876
Si Si3 0.577643 0.682709 0.908982
Si Si4 0.081831 0.827143 0.000000
Si Si5 0.418249 0.671518 0.414496
Si Si6 0.082044 0.672559 0.500000
Si Si7 0.823379 0.820992 0.259643
O O1 0.500000 0.788223 0.677817
O O2 0.399336 0.761305 0.627002
O O3 0.376717 0.744452 0.708094
O O4 0.412244 0.000000 0.674054
O O5 0.317344 0.500000 0.161446
O O6 0.250000 0.250000 0.156035
O O7 0.375642 0.270098 0.129098
O O8 0.342439 0.284027 0.211591
O O9 0.500000 0.726821 0.902822
O O10 0.578180 0.500000 0.910375
O O11 0.601342 0.736984 0.954890
O O12 0.000000 0.828202 0.000000
O O13 0.104024 0.000000 0.000000
O O14 0.500000 0.672185 0.415658
O O15 0.396329 0.500000 0.411763
O O16 0.395555 0.746355 0.457665
O O17 0.102120 0.500000 0.500000
O O18 0.000000 0.676226 0.500000
O O19 0.750000 0.750000 0.267175
O O20 0.819523 0.000000 0.263522
#
# Coordination Sequence:
#
# PCOD9488480 Si02
#       7
#    16  16  16   8  16   8  16
#     4  10  20  33  49  71  99 127 156 196 244 289
#     4   9  18  31  47  66  90 119 149 187 232 278
#     4   8  13  23  41  65  90 117 152 191 228 267
#     4   7  10  18  35  60  89 117 146 185 228 266
#     4   9  16  26  41  63  92 125 160 197 237 282
#     4   9  15  23  37  59  90 127 162 195 236 285
#     4  10  20  34  51  69  91 123 161 198 239 289
#
# _framework density 16.813579000000001
#
# number of rings (size 3 to 8) (size 9 to 14) (size 15 to 20)
#    0.000    3.000    0.000    2.750    0.000    5.333 
#    0.000    2.083    0.000    0.500    0.000    0.583 
#    0.000    2.000    0.000    0.000    0.000    0.000 
#
# Total GULP energy -267330.024033 kJ/mol
# GULP energy per Si atom -5569.375501 kJ/mol
# Density = 1.677531 g / cm^3
# Si number density = 16.813579 Si / 1000 Ang^3
#
#
#
# Elastic Constant Matrix: (Units=GPa)
#
#
# Indices 1 2 3 4 5 6 
#
# 1 53.2299 34.6854 86.2917 0.0000 0.0000 0.0000
# 2 34.6854 57.1946 62.1112 0.0000 0.0000 0.0000
# 3 86.2917 62.1112 191.5689 0.0000 0.0000 0.0000
# 4 0.0000 0.0000 0.0000 13.6363 0.0000 0.0000
# 5 0.0000 0.0000 0.0000 0.0000 -8.8671 0.0000
# 6 0.0000 0.0000 0.0000 0.0000 0.0000 18.9732
#
#
#
# Elastic Compliance Matrix: (Units=1/GPa)
#
#
# Indices 1 2 3 4 5 6 
#
# 1 0.076069 -0.013769 -0.029801 0.000000 0.000000 0.000000
# 2 -0.013769 0.029478 -0.003355 0.000000 0.000000 0.000000
# 3 -0.029801 -0.003355 0.019732 0.000000 0.000000 0.000000
# 4 0.000000 0.000000 0.000000 0.073334 0.000000 0.000000
# 5 0.000000 0.000000 0.000000 0.000000 -0.112777 0.000000
# 6 0.000000 0.000000 0.000000 0.000000 0.000000 0.052706
#
#
# Mechanical properties :
#
#
# Convention : Reuss Voigt Hill
#
# Bulk Modulus (GPa) = 31.81839 74.24113 53.02976
# Shear Modulus (GPa) = 20.58727 12.67549 16.63138
#
# Velocity S-wave (km/s) = 3.50300 2.74867 3.14851
# Velocity P-wave (km/s) = 5.94362 7.37054 6.69521
#
# Compressibility (1/GPa) = 0.03142836
#
# Stress axis : x y z
#
# Youngs Moduli (GPa) = 13.14590 33.92355 50.68006
#
# Poissons Ratio (x) = 0.46710 1.51031
# Poissons Ratio (y) = 0.18101 0.17004
# Poissons Ratio (z) = 0.39176 0.11382
#
# Static dielectric constant tensor:
#      x y z
#    x 1.537990 0.000000 0.000000 
#    y 0.000000 1.559710 0.000000 
#    z 0.000000 0.000000 1.583550 
# 
# From -- ./inp_files/75742.got.cif
#   From: 2010.05.17/outbox.cif.g08.bks.cpg/sg65_38_cif.got.tgz:75742.got - 2010.06.03 17:01:31.
