data_PCOD9488791
_publ_section_title
;
Structure prediction by ZEFSAII (Michael W. Deem and Ramdas Pophale) SiO2 
 PCOD9488791
Probable space group: C M M M
;
_chemical_formula_sum "Si O2"
_cell_formula_units_Z 116
_cell_length_a 29.252054
_cell_length_b 7.804557
_cell_length_c 28.144370
_cell_angle_alpha 90.000000
_cell_angle_beta 90.000000
_cell_angle_gamma 90.000000
_cell_volume 6425.340612
_symmetry_space_group_name_H-M "C M M M"
_symmetry_group_IT_number 65
_symmetry_cell_setting 'orthorhombic'
loop_
_space_group_symop_operation_xyz
x,y,z
-x,-y,z
x,-y,-z
-x,y,-z
-x,-y,-z
x,y,-z
-x,y,z
x,-y,z
1/2+x,1/2+y,z
1/2-x,1/2-y,z
1/2+x,1/2-y,-z
1/2-x,1/2+y,-z
1/2-x,1/2-y,-z
1/2+x,1/2+y,-z
1/2-x,1/2+y,z
1/2+x,1/2-y,z
loop_
_atom_site_type_symbol
_atom_site_label
_atom_site_fract_x
_atom_site_fract_y
_atom_site_fract_z
Si Si1 0.802478 0.303817 0.257655
Si Si2 0.949024 0.703275 0.321512
Si Si3 0.696878 0.706417 0.447186
Si Si4 0.824245 0.000000 0.000000
Si Si5 0.697087 0.198122 0.075659
Si Si6 0.356262 0.697966 0.166845
Si Si7 0.852099 0.799913 0.646836
Si Si8 0.051041 0.207553 0.210822
O O1 0.803787 0.500000 0.242338
O O2 0.750000 0.250000 0.263600
O O3 0.827954 0.202790 0.215972
O O4 0.828873 0.285197 0.307390
O O5 0.948132 0.500000 0.329314
O O6 0.906512 0.782493 0.348898
O O7 0.942274 0.735776 0.265270
O O8 0.000000 0.768214 0.333548
O O9 0.684307 0.771024 0.500000
O O10 0.692617 0.500000 0.448307
O O11 0.750000 0.750000 0.439192
O O12 0.667297 0.769778 0.402825
O O13 0.822002 0.845601 0.040941
O O14 0.750000 0.250000 0.083183
O O15 0.670247 0.206858 0.125297
O O16 0.695768 0.000000 0.057874
O O17 0.360877 0.500000 0.152149
O O18 0.406742 0.767955 0.179103
O O19 0.839671 0.000000 0.649979
O O20 0.000000 0.262093 0.195925
O O21 0.052239 0.000000 0.210860
#
# Coordination Sequence:
#
# PCOD9488791 Si02
#       8
#    16  16  16   4  16  16  16  16
#     4  12  24  36  51  73 110 151 186 222 267 334
#     4  10  20  33  51  77 107 140 180 226 273 324
#     4   9  19  35  54  76 103 134 178 232 279 328
#     4  12  24  44  62  90 117 156 199 248 284 332
#     4  12  24  39  62  88 118 156 195 242 291 335
#     4  11  21  37  55  83 119 150 188 230 283 339
#     4  11  21  34  53  78 104 142 182 223 277 334
#     4   9  18  33  56  81 110 148 186 226 273 331
#
# _framework density 18.053516999999999
#
# number of rings (size 3 to 8) (size 9 to 14) (size 15 to 20)
#    0.000    1.379    2.759    3.724    0.000    3.586 
#    0.000    0.000    0.000    0.414    0.000    3.862 
#    0.000    1.103    0.000    0.000    0.000    0.000 
#
# Total GULP energy -323269.807465 kJ/mol
# GULP energy per Si atom -5573.617370 kJ/mol
# Density = 1.801243 g / cm^3
# Si number density = 18.053517 Si / 1000 Ang^3
#
#
#
# Elastic Constant Matrix: (Units=GPa)
#
#
# Indices 1 2 3 4 5 6 
#
# 1 59.2332 14.3170 48.8877 0.0000 0.0000 0.0000
# 2 14.3170 75.7825 16.9243 0.0000 0.0000 0.0000
# 3 48.8877 16.9243 115.4170 0.0000 0.0000 0.0000
# 4 0.0000 0.0000 0.0000 -4.3827 0.0000 0.0000
# 5 0.0000 0.0000 0.0000 0.0000 29.0571 0.0000
# 6 0.0000 0.0000 0.0000 0.0000 0.0000 11.4860
#
#
#
# Elastic Compliance Matrix: (Units=1/GPa)
#
#
# Indices 1 2 3 4 5 6 
#
# 1 0.026435 -0.002578 -0.010819 0.000000 0.000000 0.000000
# 2 -0.002578 0.013894 -0.000945 0.000000 0.000000 0.000000
# 3 -0.010819 -0.000945 0.013386 0.000000 0.000000 0.000000
# 4 0.000000 0.000000 0.000000 -0.228169 0.000000 0.000000
# 5 0.000000 0.000000 0.000000 0.000000 0.034415 0.000000
# 6 0.000000 0.000000 0.000000 0.000000 0.000000 0.087062
#
#
# Mechanical properties :
#
#
# Convention : Reuss Voigt Hill
#
# Bulk Modulus (GPa) = 39.95299 45.63231 42.79265
# Shear Modulus (GPa) = -313.51251 18.58566 -147.46342
#
# Velocity S-wave (km/s) = -13.19221 3.21203 -9.04757
# Velocity P-wave (km/s) = 14.48680 6.25197 9.24068
#
# Compressibility (1/GPa) = 0.02502942
#
# Stress axis : x y z
#
# Youngs Moduli (GPa) = 37.82845 71.97445 74.70710
#
# Poissons Ratio (x) = 0.18555 0.80827
# Poissons Ratio (y) = 0.09752 0.07063
# Poissons Ratio (z) = 0.40927 0.06804
#
# Static dielectric constant tensor:
#      x y z
#    x 1.629380 0.000000 0.000000 
#    y 0.000000 1.647070 0.000000 
#    z 0.000000 0.000000 1.602600 
# 
# From -- ./inp_files/72282.got.cif
#   From: 2010.05.17/outbox.cif.g08.bks.cpg/sg65_37_cif.got.tgz:72282.got - 2010.06.03 17:01:31.
