data_PCOD9488066
_publ_section_title
;
Structure prediction by ZEFSAII (Michael W. Deem and Ramdas Pophale) SiO2 
 PCOD9488066
Probable space group: C M M M
;
_chemical_formula_sum "Si O2"
_cell_formula_units_Z 96
_cell_length_a 9.863957
_cell_length_b 30.349218
_cell_length_c 18.282651
_cell_angle_alpha 90.000000
_cell_angle_beta 90.000000
_cell_angle_gamma 90.000000
_cell_volume 5473.156223
_symmetry_space_group_name_H-M "C M M M"
_symmetry_group_IT_number 65
_symmetry_cell_setting 'orthorhombic'
loop_
_space_group_symop_operation_xyz
x,y,z
-x,-y,z
x,-y,-z
-x,y,-z
-x,-y,-z
x,y,-z
-x,y,z
x,-y,z
1/2+x,1/2+y,z
1/2-x,1/2-y,z
1/2+x,1/2-y,-z
1/2-x,1/2+y,-z
1/2-x,1/2-y,-z
1/2+x,1/2+y,-z
1/2-x,1/2+y,z
1/2+x,1/2-y,z
loop_
_atom_site_type_symbol
_atom_site_label
_atom_site_fract_x
_atom_site_fract_y
_atom_site_fract_z
Si Si1 0.161481 0.708211 0.756338
Si Si2 0.647782 0.047804 0.190359
Si Si3 0.340734 0.449314 0.587917
Si Si4 0.340593 0.827278 0.081981
Si Si5 0.154479 0.913863 0.916688
Si Si6 0.656103 0.883633 0.321068
O O1 0.250000 0.750000 0.734121
O O2 0.185653 0.699356 0.843367
O O3 0.195808 0.664978 0.707727
O O4 0.000000 0.715794 0.748268
O O5 0.500000 0.051246 0.152817
O O6 0.769820 0.052500 0.135065
O O7 0.655442 0.086422 0.248456
O O8 0.652600 0.000000 0.226982
O O9 0.330215 0.446458 0.500000
O O10 0.500000 0.444384 0.607474
O O11 0.300550 0.500000 0.608015
O O12 0.252590 0.410712 0.624451
O O13 0.500000 0.840028 0.085435
O O14 0.243525 0.869466 0.085654
O O15 0.320299 0.806990 0.000000
O O16 0.000000 0.905192 0.894194
O O17 0.154135 0.929556 0.000000
O O18 0.500000 0.881688 0.348387
#
# Coordination Sequence:
#
# PCOD9488066 Si02
#       6
#    16  16  16  16  16  16
#     4  10  21  36  54  79 108 139 180 228 276 326
#     4  10  20  34  52  73  99 135 177 217 261 318
#     4   9  19  36  58  87 121 151 178 210 254 312
#     4   9  17  33  55  73  96 135 179 225 278 331
#     4  10  20  32  47  69  98 132 172 222 272 316
#     4  10  20  36  56  80 110 142 178 221 264 311
#
# _framework density 17.540151999999999
#
# number of rings (size 3 to 8) (size 9 to 14) (size 15 to 20)
#    0.000    2.333    1.667    1.500    0.000    5.333 
#    0.000    2.500    0.000    0.500    0.000    0.000 
#    0.000    0.000    0.000    0.000    0.000    0.000 
#
# Total GULP energy -267347.662197 kJ/mol
# GULP energy per Si atom -5569.742962 kJ/mol
# Density = 1.750023 g / cm^3
# Si number density = 17.540152 Si / 1000 Ang^3
#
#
#
# Elastic Constant Matrix: (Units=GPa)
#
#
# Indices 1 2 3 4 5 6 
#
# 1 81.3594 58.4022 47.8437 0.0000 0.0000 0.0000
# 2 58.4022 135.1201 43.5476 0.0000 0.0000 0.0000
# 3 47.8437 43.5476 51.9996 0.0000 0.0000 0.0000
# 4 0.0000 0.0000 0.0000 34.1507 0.0000 0.0000
# 5 0.0000 0.0000 0.0000 0.0000 25.7104 0.0000
# 6 0.0000 0.0000 0.0000 0.0000 0.0000 28.3081
#
#
#
# Elastic Compliance Matrix: (Units=1/GPa)
#
#
# Indices 1 2 3 4 5 6 
#
# 1 0.029471 -0.005477 -0.022528 0.000000 0.000000 0.000000
# 2 -0.005477 0.011155 -0.004302 0.000000 0.000000 0.000000
# 3 -0.022528 -0.004302 0.043562 0.000000 0.000000 0.000000
# 4 0.000000 0.000000 0.000000 0.029282 0.000000 0.000000
# 5 0.000000 0.000000 0.000000 0.000000 0.038895 0.000000
# 6 0.000000 0.000000 0.000000 0.000000 0.000000 0.035326
#
#
# Mechanical properties :
#
#
# Convention : Reuss Voigt Hill
#
# Bulk Modulus (GPa) = 51.09460 63.11845 57.10652
# Shear Modulus (GPa) = 19.31773 25.54620 22.43197
#
# Velocity S-wave (km/s) = 3.32225 3.82048 3.58004
# Velocity P-wave (km/s) = 6.62644 7.45148 7.05104
#
# Compressibility (1/GPa) = 0.01957154
#
# Stress axis : x y z
#
# Youngs Moduli (GPa) = 33.93170 89.64761 22.95596
#
# Poissons Ratio (x) = 0.49104 0.51716
# Poissons Ratio (y) = 0.18586 0.09876
# Poissons Ratio (z) = 0.76443 0.38567
#
# Static dielectric constant tensor:
#      x y z
#    x 1.606910 0.000000 0.000000 
#    y 0.000000 1.596820 0.000000 
#    z 0.000000 0.000000 1.603620 
# 
# From -- ./inp_files/60292.got.cif
#   From: 2010.05.17/outbox.cif.g08.bks.cpg/sg65_31_cif.got.tgz:60292.got - 2010.06.03 17:01:31.
