data_PCOD9488954
_publ_section_title
;
Structure prediction by ZEFSAII (Michael W. Deem and Ramdas Pophale) SiO2 
 PCOD9488954
Probable space group: C M M M
;
_chemical_formula_sum "Si O2"
_cell_formula_units_Z 88
_cell_length_a 18.353800
_cell_length_b 31.955515
_cell_length_c 8.200392
_cell_angle_alpha 90.000000
_cell_angle_beta 90.000000
_cell_angle_gamma 90.000000
_cell_volume 4809.571986
_symmetry_space_group_name_H-M "C M M M"
_symmetry_group_IT_number 65
_symmetry_cell_setting 'orthorhombic'
loop_
_space_group_symop_operation_xyz
x,y,z
-x,-y,z
x,-y,-z
-x,y,-z
-x,-y,-z
x,y,-z
-x,y,z
x,-y,z
1/2+x,1/2+y,z
1/2-x,1/2-y,z
1/2+x,1/2-y,-z
1/2-x,1/2+y,-z
1/2-x,1/2-y,-z
1/2+x,1/2+y,-z
1/2-x,1/2+y,z
1/2+x,1/2-y,z
loop_
_atom_site_type_symbol
_atom_site_label
_atom_site_fract_x
_atom_site_fract_y
_atom_site_fract_z
Si Si1 0.079697 0.171716 0.802983
Si Si2 0.762887 0.203156 0.694258
Si Si3 0.197004 0.381711 0.194839
Si Si4 0.915367 0.547282 0.696524
Si Si5 0.416334 0.500000 0.199860
Si Si6 0.353340 0.413642 0.198495
O O1 0.153517 0.192214 0.738046
O O2 0.090191 0.122862 0.759884
O O3 0.000000 0.186841 0.746997
O O4 0.081455 0.175109 0.000000
O O5 0.755494 0.203533 0.500000
O O6 0.750000 0.250000 0.758712
O O7 0.707175 0.167121 0.756122
O O8 0.132941 0.412930 0.250817
O O9 0.273119 0.401497 0.256157
O O10 0.196128 0.382397 0.000000
O O11 0.914356 0.546561 0.500000
O O12 0.891077 0.500000 0.751244
O O13 0.000000 0.552187 0.748223
O O14 0.500000 0.500000 0.247332
O O15 0.377550 0.458389 0.258152
O O16 0.414284 0.500000 0.000000
O O17 0.350739 0.414702 0.000000
#
# Coordination Sequence:
#
# PCOD9488954 Si02
#       6
#    16  16  16  16   8  16
#     4   9  17  31  51  75 103 133 168 212 260 309
#     4  10  21  37  56  77 103 137 178 223 271 328
#     4  10  20  33  53  79 106 136 173 222 271 319
#     4   9  19  36  56  78 108 147 186 224 271 329
#     4   9  14  20  34  58  92 131 162 188 223 271
#     4   8  15  25  39  65  99 132 163 198 240 286
#
# _framework density 18.296847
#
# number of rings (size 3 to 8) (size 9 to 14) (size 15 to 20)
#    0.000    2.818    0.000    3.273    1.273    4.727 
#    0.000    1.818    0.000    1.091    0.000    0.000 
#    0.000    7.636    0.000    0.000    0.000    0.000 
#
# Total GULP energy -244967.221514 kJ/mol
# GULP energy per Si atom -5567.436853 kJ/mol
# Density = 1.825520 g / cm^3
# Si number density = 18.296847 Si / 1000 Ang^3
#
#
#
# Elastic Constant Matrix: (Units=GPa)
#
#
# Indices 1 2 3 4 5 6 
#
# 1 91.5418 70.8677 14.7858 0.0000 0.0000 0.0000
# 2 70.8677 168.3376 20.0124 0.0000 0.0000 0.0000
# 3 14.7858 20.0124 22.7011 0.0000 0.0000 0.0000
# 4 0.0000 0.0000 0.0000 15.4051 0.0000 0.0000
# 5 0.0000 0.0000 0.0000 0.0000 19.3096 0.0000
# 6 0.0000 0.0000 0.0000 0.0000 0.0000 19.0034
#
#
#
# Elastic Compliance Matrix: (Units=1/GPa)
#
#
# Indices 1 2 3 4 5 6 
#
# 1 0.016746 -0.006427 -0.005241 0.000000 0.000000 0.000000
# 2 -0.006427 0.009102 -0.003838 0.000000 0.000000 0.000000
# 3 -0.005241 -0.003838 0.050848 0.000000 0.000000 0.000000
# 4 0.000000 0.000000 0.000000 0.064914 0.000000 0.000000
# 5 0.000000 0.000000 0.000000 0.000000 0.051788 0.000000
# 6 0.000000 0.000000 0.000000 0.000000 0.000000 0.052622
#
#
# Mechanical properties :
#
#
# Convention : Reuss Voigt Hill
#
# Bulk Modulus (GPa) = 21.88974 54.87913 38.38443
# Shear Modulus (GPa) = 17.10801 22.53793 19.82297
#
# Velocity S-wave (km/s) = 3.06113 3.51350 3.29509
# Velocity P-wave (km/s) = 4.94810 6.82044 5.95828
#
# Compressibility (1/GPa) = 0.04568351
#
# Stress axis : x y z
#
# Youngs Moduli (GPa) = 59.71655 109.86271 19.66628
#
# Poissons Ratio (x) = 0.70604 0.10308
# Poissons Ratio (y) = 0.38377 0.07549
# Poissons Ratio (z) = 0.31300 0.42170
#
# Static dielectric constant tensor:
#      x y z
#    x 1.623880 0.000000 0.000000 
#    y 0.000000 1.649100 0.000000 
#    z 0.000000 0.000000 1.647340 
# 
# From -- ./inp_files/10145.got.cif
#   From: 2010.05.17/outbox.cif.g08.bks.cpg/sg65_6_cif.got.tgz:10145.got - 2010.06.03 17:01:31.
