data_PCOD9488004
_publ_section_title
;
Structure prediction by ZEFSAII (Michael W. Deem and Ramdas Pophale) SiO2 
 PCOD9488004
Probable space group: C M M M
;
_chemical_formula_sum "Si O2"
_cell_formula_units_Z 80
_cell_length_a 7.549072
_cell_length_b 19.068067
_cell_length_c 27.056206
_cell_angle_alpha 90.000000
_cell_angle_beta 90.000000
_cell_angle_gamma 90.000000
_cell_volume 3894.638329
_symmetry_space_group_name_H-M "C M M M"
_symmetry_group_IT_number 65
_symmetry_cell_setting 'orthorhombic'
loop_
_space_group_symop_operation_xyz
x,y,z
-x,-y,z
x,-y,-z
-x,y,-z
-x,-y,-z
x,y,-z
-x,y,z
x,-y,z
1/2+x,1/2+y,z
1/2-x,1/2-y,z
1/2+x,1/2-y,-z
1/2-x,1/2+y,-z
1/2-x,1/2-y,-z
1/2+x,1/2+y,-z
1/2-x,1/2+y,z
1/2+x,1/2-y,z
loop_
_atom_site_type_symbol
_atom_site_label
_atom_site_fract_x
_atom_site_fract_y
_atom_site_fract_z
Si Si1 0.782858 0.918488 0.392171
Si Si2 0.712374 0.919896 0.093245
Si Si3 0.212741 0.332074 0.000000
Si Si4 0.287567 0.419881 0.204197
Si Si5 0.787509 0.832114 0.297441
Si Si6 0.206012 0.914720 0.500000
O O1 0.722494 0.870717 0.346964
O O2 0.719432 0.894235 0.446546
O O3 0.000000 0.917558 0.393603
O O4 0.733077 0.000000 0.384516
O O5 0.500000 0.923300 0.088573
O O6 0.749869 0.894369 0.148723
O O7 0.780136 0.000000 0.088899
O O8 0.779878 0.870850 0.049343
O O9 0.250000 0.250000 0.000000
O O10 0.000000 0.339647 0.000000
O O11 0.500000 0.423196 0.208802
O O12 0.219971 0.500000 0.208534
O O13 0.220063 0.370815 0.248102
O O14 0.750000 0.750000 0.297285
O O15 0.000000 0.840376 0.297682
O O16 0.000000 0.892915 0.500000
O O17 0.208840 0.000000 0.500000
#
# Coordination Sequence:
#
# PCOD9488004 Si02
#       6
#    16  16   8  16  16   8
#     4   8  13  24  44  67  89 116 153 195 234 271
#     4   9  18  34  55  75  95 122 156 193 232 274
#     4  10  21  35  51  73 101 130 158 188 226 274
#     4   9  18  33  52  72  92 118 156 198 235 271
#     4  10  20  32  46  66  95 127 155 187 230 279
#     4   7  10  18  37  66  91 109 142 195 240 268
#
# _framework density 20.541060999999999
#
# number of rings (size 3 to 8) (size 9 to 14) (size 15 to 20)
#    0.000    3.100    0.000    2.100    0.000    6.000 
#    0.000    4.500    0.000    4.800    0.000    0.000 
#    0.000    2.400    0.000    0.000    0.000    0.000 
#
# Total GULP energy -223085.870279 kJ/mol
# GULP energy per Si atom -5577.146757 kJ/mol
# Density = 2.049431 g / cm^3
# Si number density = 20.541061 Si / 1000 Ang^3
#
#
#
# Elastic Constant Matrix: (Units=GPa)
#
#
# Indices 1 2 3 4 5 6 
#
# 1 49.8329 0.7620 7.7301 0.0000 0.0000 0.0000
# 2 0.7620 109.9014 132.6237 0.0000 0.0000 0.0000
# 3 7.7301 132.6237 265.4247 0.0000 0.0000 0.0000
# 4 0.0000 0.0000 0.0000 -11.4037 0.0000 0.0000
# 5 0.0000 0.0000 0.0000 0.0000 41.3040 0.0000
# 6 0.0000 0.0000 0.0000 0.0000 0.0000 18.4887
#
#
#
# Elastic Compliance Matrix: (Units=1/GPa)
#
#
# Indices 1 2 3 4 5 6 
#
# 1 0.020248 0.001439 -0.001309 0.000000 0.000000 0.000000
# 2 0.001439 0.023020 -0.011544 0.000000 0.000000 0.000000
# 3 -0.001309 -0.011544 0.009574 0.000000 0.000000 0.000000
# 4 0.000000 0.000000 0.000000 -0.087691 0.000000 0.000000
# 5 0.000000 0.000000 0.000000 0.000000 0.024211 0.000000
# 6 0.000000 0.000000 0.000000 0.000000 0.000000 0.054087
#
#
# Mechanical properties :
#
#
# Convention : Reuss Voigt Hill
#
# Bulk Modulus (GPa) = 33.31783 78.59894 55.95839
# Shear Modulus (GPa) = 65.54599 28.61400 47.07999
#
# Velocity S-wave (km/s) = 5.65500 3.73636 4.79267
# Velocity P-wave (km/s) = 7.67424 7.54727 7.61102
#
# Compressibility (1/GPa) = 0.03001396
#
# Stress axis : x y z
#
# Youngs Moduli (GPa) = 49.38743 43.44002 104.44988
#
# Poissons Ratio (x) = -0.06250 0.13668
# Poissons Ratio (y) = -0.07106 1.20580
# Poissons Ratio (z) = 0.06463 0.50149
#
# Static dielectric constant tensor:
#      x y z
#    x 1.796760 0.000000 0.000000 
#    y 0.000000 1.681920 0.000000 
#    z 0.000000 0.000000 1.749390 
# 
# From -- ./inp_files/72915.got.cif
#   From: 2010.05.17/outbox.cif.g08.bks.cpg/sg65_37_cif.got.tgz:72915.got - 2010.06.03 17:01:31.
