data_PCOD9488971
_publ_section_title
;
Structure prediction by ZEFSAII (Michael W. Deem and Ramdas Pophale) SiO2 
 PCOD9488971
Probable space group: C M M M
;
_chemical_formula_sum "Si O2"
_cell_formula_units_Z 64
_cell_length_a 23.938459
_cell_length_b 14.627006
_cell_length_c 8.208039
_cell_angle_alpha 90.000000
_cell_angle_beta 90.000000
_cell_angle_gamma 90.000000
_cell_volume 2874.028304
_symmetry_space_group_name_H-M "C M M M"
_symmetry_group_IT_number 65
_symmetry_cell_setting 'orthorhombic'
loop_
_space_group_symop_operation_xyz
x,y,z
-x,-y,z
x,-y,-z
-x,y,-z
-x,-y,-z
x,y,-z
-x,y,z
x,-y,z
1/2+x,1/2+y,z
1/2-x,1/2-y,z
1/2+x,1/2-y,-z
1/2-x,1/2+y,-z
1/2-x,1/2-y,-z
1/2+x,1/2+y,-z
1/2-x,1/2+y,z
1/2+x,1/2-y,z
loop_
_atom_site_type_symbol
_atom_site_label
_atom_site_fract_x
_atom_site_fract_y
_atom_site_fract_z
Si Si1 0.934989 0.112328 0.000000
Si Si2 0.064948 0.612046 0.500000
Si Si3 0.755783 0.358882 0.314336
Si Si4 0.128655 0.105747 0.316458
Si Si5 0.125825 0.392408 0.176262
O O1 0.905359 0.145793 0.834400
O O2 0.000000 0.135256 0.000000
O O3 0.930215 0.000000 0.000000
O O4 0.068238 0.500000 0.500000
O O5 0.095621 0.645348 0.663548
O O6 0.000000 0.636957 0.500000
O O7 0.768485 0.389079 0.500000
O O8 0.750000 0.250000 0.313325
O O9 0.694320 0.393809 0.272252
O O10 0.807678 0.385409 0.203811
O O11 0.123341 0.146029 0.500000
O O12 0.111020 0.000000 0.329928
O O13 0.111696 0.500000 0.171491
O O14 0.110580 0.352733 0.000000
#
# Coordination Sequence:
#
# PCOD9488971 Si02
#       5
#     8   8  16  16  16
#     4   9  18  32  51  76 102 130 169 212 254 303
#     4   9  18  34  55  78 106 138 173 218 264 307
#     4  10  20  34  53  79 107 143 174 213 264 316
#     4   9  18  32  51  76 104 134 167 210 257 304
#     4  10  20  33  53  81 108 138 174 216 265 317
#
# _framework density 22.268395999999999
#
# number of rings (size 3 to 8) (size 9 to 14) (size 15 to 20)
#    0.000    2.500    1.250    0.750    1.750    2.500 
#    0.000    5.000    0.000    1.500    0.000    0.000 
#    0.000    0.000    0.000    0.000    0.000    0.000 
#
# Total GULP energy -178690.057212 kJ/mol
# GULP energy per Si atom -5584.064288 kJ/mol
# Density = 2.221771 g / cm^3
# Si number density = 22.268396 Si / 1000 Ang^3
#
#
#
# Elastic Constant Matrix: (Units=GPa)
#
#
# Indices 1 2 3 4 5 6 
#
# 1 118.6315 -8.9242 125.6434 0.0000 0.0000 0.0000
# 2 -8.9242 51.9979 16.8403 0.0000 0.0000 0.0000
# 3 125.6434 16.8403 224.0003 0.0000 0.0000 0.0000
# 4 0.0000 0.0000 0.0000 16.0748 0.0000 0.0000
# 5 0.0000 0.0000 0.0000 0.0000 22.5080 0.0000
# 6 0.0000 0.0000 0.0000 0.0000 0.0000 -225.9907
#
#
#
# Elastic Compliance Matrix: (Units=1/GPa)
#
#
# Indices 1 2 3 4 5 6 
#
# 1 0.024093 0.008724 -0.014170 0.000000 0.000000 0.000000
# 2 0.008724 0.022871 -0.006613 0.000000 0.000000 0.000000
# 3 -0.014170 -0.006613 0.012909 0.000000 0.000000 0.000000
# 4 0.000000 0.000000 0.000000 0.062209 0.000000 0.000000
# 5 0.000000 0.000000 0.000000 0.000000 0.044429 0.000000
# 6 0.000000 0.000000 0.000000 0.000000 0.000000 -0.004425
#
#
# Mechanical properties :
#
#
# Convention : Reuss Voigt Hill
#
# Bulk Modulus (GPa) = 27.96735 73.52764 50.74749
# Shear Modulus (GPa) = 25.23694 -20.07692 2.58001
#
# Velocity S-wave (km/s) = 3.37012 -3.00590 1.07755
# Velocity P-wave (km/s) = 5.26593 4.58729 4.93828
#
# Compressibility (1/GPa) = 0.03575598
#
# Stress axis : x y z
#
# Youngs Moduli (GPa) = 41.50541 43.72439 77.46254
#
# Poissons Ratio (x) = -0.38146 1.09764
# Poissons Ratio (y) = -0.36210 0.51225
# Poissons Ratio (z) = 0.58813 0.28914
#
# Static dielectric constant tensor:
#      x y z
#    x 1.755230 0.000000 0.000000 
#    y 0.000000 1.862140 0.000000 
#    z 0.000000 0.000000 1.844490 
# 
# From -- ./inp_files/10848.got.cif
#   From: 2010.05.17/outbox.cif.g08.bks.cpg/sg65_6_cif.got.tgz:10848.got - 2010.06.03 17:01:31.
