data_PCOD9488843
_publ_section_title
;
Structure prediction by ZEFSAII (Michael W. Deem and Ramdas Pophale) SiO2 
 PCOD9488843
Probable space group: C M M M
;
_chemical_formula_sum "Si O2"
_cell_formula_units_Z 100
_cell_length_a 23.947866
_cell_length_b 27.449018
_cell_length_c 7.376981
_cell_angle_alpha 90.000000
_cell_angle_beta 90.000000
_cell_angle_gamma 90.000000
_cell_volume 4849.224562
_symmetry_space_group_name_H-M "C M M M"
_symmetry_group_IT_number 65
_symmetry_cell_setting 'orthorhombic'
loop_
_space_group_symop_operation_xyz
x,y,z
-x,-y,z
x,-y,-z
-x,y,-z
-x,-y,-z
x,y,-z
-x,y,z
x,-y,z
1/2+x,1/2+y,z
1/2-x,1/2-y,z
1/2+x,1/2-y,-z
1/2-x,1/2+y,-z
1/2-x,1/2-y,-z
1/2+x,1/2+y,-z
1/2-x,1/2+y,z
1/2+x,1/2-y,z
loop_
_atom_site_type_symbol
_atom_site_label
_atom_site_fract_x
_atom_site_fract_y
_atom_site_fract_z
Si Si1 0.500000 0.301975 0.212663
Si Si2 0.000000 0.313638 0.719184
Si Si3 0.688089 0.944670 0.216823
Si Si4 0.804664 0.273924 0.706513
Si Si5 0.882985 0.644821 0.286236
Si Si6 0.813115 0.916787 0.780515
Si Si7 0.153752 0.000000 0.500000
Si Si8 0.377383 0.317645 0.219051
O O1 0.500000 0.243328 0.231545
O O2 0.441236 0.321901 0.284455
O O3 0.500000 0.313941 0.000000
O O4 0.056492 0.339884 0.785161
O O5 0.000000 0.316117 0.500000
O O6 0.636648 0.910452 0.267871
O O7 0.747458 0.921099 0.269529
O O8 0.685605 0.000000 0.286921
O O9 0.688511 0.947186 0.000000
O O10 0.788270 0.287272 0.500000
O O11 0.750000 0.250000 0.793459
O O12 0.833861 0.320919 0.791430
O O13 0.850788 0.231644 0.705817
O O14 0.884864 0.656203 0.500000
O O15 0.842852 0.957511 0.659941
O O16 0.839333 0.864159 0.739238
O O17 0.818010 0.924919 0.000000
O O18 0.378042 0.312543 0.000000
#
# Coordination Sequence:
#
# PCOD9488843 Si02
#       8
#     8   8  16  16  16  16   4  16
#     4  10  20  36  60  85 112 156 205 236 292 366
#     4  10  20  38  55  79 112 156 195 243 295 346
#     4  10  21  38  58  83 114 150 193 245 300 355
#     4  10  20  33  51  82 118 149 187 235 290 359
#     4  10  21  34  54  80 114 152 194 242 296 353
#     4  10  22  39  59  92 127 154 200 254 299 361
#     4  12  22  36  68  91 116 169 204 234 310 366
#     4  10  21  36  57  85 118 153 193 245 296 353
#
# _framework density 20.621852000000001
#
# number of rings (size 3 to 8) (size 9 to 14) (size 15 to 20)
#    0.000    1.920    2.400    1.200    2.240    1.920 
#    0.000    0.400    0.000    3.360    0.000    2.800 
#    0.000    0.000    0.000    0.000    0.000    0.000 
#
# Total GULP energy -278644.059055 kJ/mol
# GULP energy per Si atom -5572.881181 kJ/mol
# Density = 2.057492 g / cm^3
# Si number density = 20.621852 Si / 1000 Ang^3
#
#
#
# Elastic Constant Matrix: (Units=GPa)
#
#
# Indices 1 2 3 4 5 6 
#
# 1 94.8469 32.0432 -1.0757 0.0000 0.0000 0.0000
# 2 32.0432 101.9000 -0.1373 0.0000 0.0000 0.0000
# 3 -1.0757 -0.1373 80.3899 0.0000 0.0000 0.0000
# 4 0.0000 0.0000 0.0000 41.0072 0.0000 0.0000
# 5 0.0000 0.0000 0.0000 0.0000 -0.1314 0.0000
# 6 0.0000 0.0000 0.0000 0.0000 0.0000 -86.6608
#
#
#
# Elastic Compliance Matrix: (Units=1/GPa)
#
#
# Indices 1 2 3 4 5 6 
#
# 1 0.011798 -0.003710 0.000152 0.000000 0.000000 0.000000
# 2 -0.003710 0.010980 -0.000031 0.000000 0.000000 0.000000
# 3 0.000152 -0.000031 0.012441 0.000000 0.000000 0.000000
# 4 0.000000 0.000000 0.000000 0.024386 0.000000 0.000000
# 5 0.000000 0.000000 0.000000 0.000000 -7.607933 0.000000
# 6 0.000000 0.000000 0.000000 0.000000 0.000000 -0.011539
#
#
# Mechanical properties :
#
#
# Convention : Reuss Voigt Hill
#
# Bulk Modulus (GPa) = 35.66161 37.64413 36.65287
# Shear Modulus (GPa) = -0.66284 7.26342 3.30029
#
# Velocity S-wave (km/s) = -0.56756 1.87879 1.26644
# Velocity P-wave (km/s) = 4.11110 4.79589 4.46664
#
# Compressibility (1/GPa) = 0.02804135
#
# Stress axis : x y z
#
# Youngs Moduli (GPa) = 84.75747 91.07387 80.37718
#
# Poissons Ratio (x) = 0.33787 -0.01218
# Poissons Ratio (y) = 0.31444 0.00248
# Poissons Ratio (z) = -0.01284 0.00281
#
# Static dielectric constant tensor:
#      x y z
#    x 1.758870 0.000000 0.000000 
#    y 0.000000 1.709760 0.000000 
#    z 0.000000 0.000000 -0.729200 
# 
# From -- ./inp_files/12485.got.cif
#   From: 2010.05.17/outbox.cif.g08.bks.cpg/sg65_7_cif.got.tgz:12485.got - 2010.06.03 17:01:31.
