data_PCOD9488740
_publ_section_title
;
Structure prediction by ZEFSAII (Michael W. Deem and Ramdas Pophale) SiO2 
 PCOD9488740
Probable space group: C M M M
;
_chemical_formula_sum "Si O2"
_cell_formula_units_Z 104
_cell_length_a 25.652764
_cell_length_b 20.978544
_cell_length_c 10.054991
_cell_angle_alpha 90.000000
_cell_angle_beta 90.000000
_cell_angle_gamma 90.000000
_cell_volume 5411.170210
_symmetry_space_group_name_H-M "C M M M"
_symmetry_group_IT_number 65
_symmetry_cell_setting 'orthorhombic'
loop_
_space_group_symop_operation_xyz
x,y,z
-x,-y,z
x,-y,-z
-x,y,-z
-x,-y,-z
x,y,-z
-x,y,z
x,-y,z
1/2+x,1/2+y,z
1/2-x,1/2-y,z
1/2+x,1/2-y,-z
1/2-x,1/2+y,-z
1/2-x,1/2-y,-z
1/2+x,1/2+y,-z
1/2-x,1/2+y,z
1/2+x,1/2-y,z
loop_
_atom_site_type_symbol
_atom_site_label
_atom_site_fract_x
_atom_site_fract_y
_atom_site_fract_z
Si Si1 0.396484 0.744997 0.346888
Si Si2 0.062419 0.896153 0.353891
Si Si3 0.304832 0.713305 0.843999
Si Si4 0.332164 0.075669 0.348583
Si Si5 0.734734 0.574573 0.158619
Si Si6 0.563913 0.500000 0.850754
Si Si7 0.943827 0.377354 0.659127
O O1 0.378607 0.751823 0.500000
O O2 0.423878 0.676985 0.334584
O O3 0.348088 0.745269 0.248126
O O4 0.436712 0.801848 0.322029
O O5 0.082304 0.916518 0.500000
O O6 0.000000 0.903439 0.357148
O O7 0.081325 0.939280 0.233579
O O8 0.250000 0.750000 0.823099
O O9 0.301113 0.636905 0.814931
O O10 0.317868 0.719954 0.000000
O O11 0.324865 0.102228 0.500000
O O12 0.285643 0.089626 0.247386
O O13 0.388968 0.094640 0.294001
O O14 0.332490 0.000000 0.361459
O O15 0.718344 0.500000 0.187539
O O16 0.745955 0.576466 0.000000
O O17 0.500000 0.500000 0.856730
O O18 0.584045 0.500000 0.000000
O O19 0.944474 0.390341 0.500000
O O20 0.000000 0.399110 0.712612
#
# Coordination Sequence:
#
# PCOD9488740 Si02
#       7
#    16  16  16  16  16   8  16
#     4  10  20  33  51  75  98 127 169 211 251 295
#     4   9  17  31  50  70  96 129 163 200 244 295
#     4  10  21  36  53  73  99 131 167 209 258 310
#     4   9  17  29  49  78 106 132 166 207 249 292
#     4   9  18  34  54  73  97 132 170 204 248 310
#     4   9  17  29  47  71  95 123 161 199 237 283
#     4   9  17  30  49  74 105 138 170 205 246 297
#
# _framework density 19.219501999999999
#
# number of rings (size 3 to 8) (size 9 to 14) (size 15 to 20)
#    0.000    2.692    0.000    1.615    0.000    4.615 
#    1.385    1.538    0.000    2.769    0.000    2.154 
#    0.000    0.000    0.000    0.000    0.000    0.000 
#
# Total GULP energy -289699.463417 kJ/mol
# GULP energy per Si atom -5571.143527 kJ/mol
# Density = 1.917576 g / cm^3
# Si number density = 19.219502 Si / 1000 Ang^3
#
#
#
# Elastic Constant Matrix: (Units=GPa)
#
#
# Indices 1 2 3 4 5 6 
#
# 1 36.9040 -9.4813 11.5818 0.0000 0.0000 0.0000
# 2 -9.4813 22.9085 3.1030 0.0000 0.0000 0.0000
# 3 11.5818 3.1030 43.9055 0.0000 0.0000 0.0000
# 4 0.0000 0.0000 0.0000 9.0435 0.0000 0.0000
# 5 0.0000 0.0000 0.0000 0.0000 14.3064 0.0000
# 6 0.0000 0.0000 0.0000 0.0000 0.0000 13.6465
#
#
#
# Elastic Compliance Matrix: (Units=1/GPa)
#
#
# Indices 1 2 3 4 5 6 
#
# 1 0.034278 0.015561 -0.010142 0.000000 0.000000 0.000000
# 2 0.015561 0.051138 -0.007719 0.000000 0.000000 0.000000
# 3 -0.010142 -0.007719 0.025997 0.000000 0.000000 0.000000
# 4 0.000000 0.000000 0.000000 0.110577 0.000000 0.000000
# 5 0.000000 0.000000 0.000000 0.000000 0.069899 0.000000
# 6 0.000000 0.000000 0.000000 0.000000 0.000000 0.073279
#
#
# Mechanical properties :
#
#
# Convention : Reuss Voigt Hill
#
# Bulk Modulus (GPa) = 9.36223 12.68057 11.02140
# Shear Modulus (GPa) = 12.33437 13.96691 13.15064
#
# Velocity S-wave (km/s) = 2.53605 2.69867 2.61863
# Velocity P-wave (km/s) = 3.66841 4.04011 3.85874
#
# Compressibility (1/GPa) = 0.10681219
#
# Stress axis : x y z
#
# Youngs Moduli (GPa) = 29.17327 19.55511 38.46597
#
# Poissons Ratio (x) = -0.30429 0.39012
# Poissons Ratio (y) = -0.45395 0.29691
# Poissons Ratio (z) = 0.29587 0.15094
#
# Static dielectric constant tensor:
#      x y z
#    x 1.684230 0.000000 0.000000 
#    y 0.000000 1.701200 0.000000 
#    z 0.000000 0.000000 1.666160 
# 
# From -- ./inp_files/18707.got.cif
#   From: 2010.05.17/outbox.cif.g08.bks.cpg/sg65_10_cif.got.tgz:18707.got - 2010.06.03 17:01:31.
