data_PCOD9488128
_publ_section_title
;
Structure prediction by ZEFSAII (Michael W. Deem and Ramdas Pophale) SiO2 
 PCOD9488128
Probable space group: C M M M
;
_chemical_formula_sum "Si O2"
_cell_formula_units_Z 96
_cell_length_a 17.170443
_cell_length_b 18.907398
_cell_length_c 14.760996
_cell_angle_alpha 90.000000
_cell_angle_beta 90.000000
_cell_angle_gamma 90.000000
_cell_volume 4792.133728
_symmetry_space_group_name_H-M "C M M M"
_symmetry_group_IT_number 65
_symmetry_cell_setting 'orthorhombic'
loop_
_space_group_symop_operation_xyz
x,y,z
-x,-y,z
x,-y,-z
-x,y,-z
-x,-y,-z
x,y,-z
-x,y,z
x,-y,z
1/2+x,1/2+y,z
1/2-x,1/2-y,z
1/2+x,1/2-y,-z
1/2-x,1/2+y,-z
1/2-x,1/2-y,-z
1/2+x,1/2+y,-z
1/2-x,1/2+y,z
1/2+x,1/2-y,z
loop_
_atom_site_type_symbol
_atom_site_label
_atom_site_fract_x
_atom_site_fract_y
_atom_site_fract_z
Si Si1 0.333399 0.789168 0.100556
Si Si2 0.411850 0.826736 0.605668
Si Si3 0.588904 0.333548 0.805157
Si Si4 0.135100 0.168844 0.399402
Si Si5 0.221441 0.421389 0.350862
Si Si6 0.765404 0.079646 0.858006
O O1 0.250000 0.750000 0.106576
O O2 0.385751 0.748221 0.174212
O O3 0.305438 0.870265 0.109529
O O4 0.366763 0.777852 0.000000
O O5 0.416131 0.846279 0.500000
O O6 0.500000 0.814939 0.638650
O O7 0.364766 0.753460 0.608799
O O8 0.363807 0.888089 0.652180
O O9 0.500000 0.344495 0.832407
O O10 0.596213 0.351692 0.697277
O O11 0.651110 0.380280 0.862262
O O12 0.099117 0.153654 0.500000
O O13 0.219050 0.131962 0.398942
O O14 0.222504 0.500000 0.390583
O O15 0.251334 0.425518 0.248982
O O16 0.766735 0.000000 0.895089
#
# Coordination Sequence:
#
# PCOD9488128 Si02
#       6
#    16  16  16  16  16  16
#     4   9  18  34  57  82 107 138 176 217 264 324
#     4  10  20  32  48  71  97 128 172 228 282 324
#     4  10  20  34  55  82 111 143 180 228 282 328
#     4  10  20  34  52  75 105 145 192 232 268 320
#     4  10  20  34  52  74 104 142 182 225 271 321
#     4   9  19  35  54  78 108 142 181 221 263 320
#
# _framework density 20.032830000000001
#
# number of rings (size 3 to 8) (size 9 to 14) (size 15 to 20)
#    0.000    2.333    0.000    2.500    0.000    7.667 
#    0.000    0.833    0.000    3.000    0.000   15.167 
#    0.000    0.000    0.000    0.000    0.000    0.000 
#
# Total GULP energy -267240.090995 kJ/mol
# GULP energy per Si atom -5567.501896 kJ/mol
# Density = 1.998723 g / cm^3
# Si number density = 20.032830 Si / 1000 Ang^3
#
#
#
# Elastic Constant Matrix: (Units=GPa)
#
#
# Indices 1 2 3 4 5 6 
#
# 1 65.7452 74.6041 9.4045 0.0000 0.0000 0.0000
# 2 74.6041 122.0718 8.9584 0.0000 0.0000 0.0000
# 3 9.4045 8.9584 74.1356 0.0000 0.0000 0.0000
# 4 0.0000 0.0000 0.0000 1.3754 0.0000 0.0000
# 5 0.0000 0.0000 0.0000 0.0000 6.9377 0.0000
# 6 0.0000 0.0000 0.0000 0.0000 0.0000 4.9801
#
#
#
# Elastic Compliance Matrix: (Units=1/GPa)
#
#
# Indices 1 2 3 4 5 6 
#
# 1 0.050149 -0.030451 -0.002682 0.000000 0.000000 0.000000
# 2 -0.030451 0.026756 0.000630 0.000000 0.000000 0.000000
# 3 -0.002682 0.000630 0.013753 0.000000 0.000000 0.000000
# 4 0.000000 0.000000 0.000000 0.727066 0.000000 0.000000
# 5 0.000000 0.000000 0.000000 0.000000 0.144140 0.000000
# 6 0.000000 0.000000 0.000000 0.000000 0.000000 0.200798
#
#
# Mechanical properties :
#
#
# Convention : Reuss Voigt Hill
#
# Bulk Modulus (GPa) = 38.98583 49.76519 44.37551
# Shear Modulus (GPa) = 4.04459 13.92435 8.98447
#
# Velocity S-wave (km/s) = 1.42245 2.63929 2.12005
# Velocity P-wave (km/s) = 4.71180 5.84667 5.30964
#
# Compressibility (1/GPa) = 0.02565035
#
# Stress axis : x y z
#
# Youngs Moduli (GPa) = 19.94077 37.37475 72.71189
#
# Poissons Ratio (x) = 1.13811 0.19501
# Poissons Ratio (y) = 0.60722 -0.04579
# Poissons Ratio (z) = 0.05348 -0.02354
#
# Static dielectric constant tensor:
#      x y z
#    x 1.691090 0.000000 0.000000 
#    y 0.000000 1.745550 0.000000 
#    z 0.000000 0.000000 1.765320 
# 
# From -- ./inp_files/54493.got.cif
#   From: 2010.05.17/outbox.cif.g08.bks.cpg/sg65_28_cif.got.tgz:54493.got - 2010.06.03 17:01:31.
