data_PCOD9488389
_publ_section_title
;
Structure prediction by ZEFSAII (Michael W. Deem and Ramdas Pophale) SiO2 
 PCOD9488389
Probable space group: C M M M
;
_chemical_formula_sum "Si O2"
_cell_formula_units_Z 88
_cell_length_a 26.353665
_cell_length_b 20.533474
_cell_length_c 9.192330
_cell_angle_alpha 90.000000
_cell_angle_beta 90.000000
_cell_angle_gamma 90.000000
_cell_volume 4974.266630
_symmetry_space_group_name_H-M "C M M M"
_symmetry_group_IT_number 65
_symmetry_cell_setting 'orthorhombic'
loop_
_space_group_symop_operation_xyz
x,y,z
-x,-y,z
x,-y,-z
-x,y,-z
-x,-y,-z
x,y,-z
-x,y,z
x,-y,z
1/2+x,1/2+y,z
1/2-x,1/2-y,z
1/2+x,1/2-y,-z
1/2-x,1/2+y,-z
1/2-x,1/2-y,-z
1/2+x,1/2+y,-z
1/2-x,1/2+y,z
1/2+x,1/2-y,z
loop_
_atom_site_type_symbol
_atom_site_label
_atom_site_fract_x
_atom_site_fract_y
_atom_site_fract_z
Si Si1 0.855311 0.765196 0.826306
Si Si2 0.836176 0.500000 0.832687
Si Si3 0.785899 0.867313 0.669686
Si Si4 0.287329 0.500000 0.167306
Si Si5 0.438113 0.500000 0.665219
Si Si6 0.558797 0.630896 0.172575
Si Si7 0.836744 0.632228 0.330303
O O1 0.810197 0.806847 0.753802
O O2 0.905523 0.807942 0.797099
O O3 0.857613 0.694750 0.753654
O O4 0.848007 0.760113 0.000000
O O5 0.774393 0.500000 0.835396
O O6 0.851769 0.434894 0.747948
O O7 0.853297 0.500000 0.000000
O O8 0.800832 0.866990 0.500000
O O9 0.801887 0.934451 0.748030
O O10 0.724793 0.863703 0.676185
O O11 0.305325 0.500000 0.000000
O O12 0.500000 0.500000 0.665776
O O13 0.420166 0.500000 0.500000
O O14 0.423222 0.566072 0.745800
O O15 0.500000 0.643377 0.211630
O O16 0.560880 0.617988 0.000000
O O17 0.850996 0.632248 0.500000
#
# Coordination Sequence:
#
# PCOD9488389 Si02
#       7
#    16   8  16   8   8  16  16
#     4  11  22  33  49  73  98 127 164 204 245 289
#     4   9  17  31  52  74  96 125 163 203 237 277
#     4  10  20  33  48  68  98 134 167 200 240 287
#     4   9  17  30  48  69  94 128 169 208 241 276
#     4   9  17  30  51  76  97 122 161 206 247 286
#     4   9  19  36  54  71  95 128 164 202 245 291
#     4  10  20  34  51  72 100 132 163 196 239 290
#
# _framework density 17.691050000000001
#
# number of rings (size 3 to 8) (size 9 to 14) (size 15 to 20)
#    0.000    2.273    0.000    3.000    0.000    9.818 
#    0.000    0.909    0.000    0.000    0.000    0.636 
#    0.000    5.091    0.000    0.000    0.000    0.000 
#
# Total GULP energy -245740.158553 kJ/mol
# GULP energy per Si atom -5585.003603 kJ/mol
# Density = 1.765078 g / cm^3
# Si number density = 17.691050 Si / 1000 Ang^3
#
#
#
# Elastic Constant Matrix: (Units=GPa)
#
#
# Indices 1 2 3 4 5 6 
#
# 1 32.6514 30.4808 36.8128 0.0000 0.0000 0.0000
# 2 30.4808 194.7354 110.2549 0.0000 0.0000 0.0000
# 3 36.8128 110.2549 142.5566 0.0000 0.0000 0.0000
# 4 0.0000 0.0000 0.0000 16.8457 0.0000 0.0000
# 5 0.0000 0.0000 0.0000 0.0000 13.1206 0.0000
# 6 0.0000 0.0000 0.0000 0.0000 0.0000 35.8907
#
#
#
# Elastic Compliance Matrix: (Units=1/GPa)
#
#
# Indices 1 2 3 4 5 6 
#
# 1 0.043275 -0.000794 -0.010561 0.000000 0.000000 0.000000
# 2 -0.000794 0.009150 -0.006872 0.000000 0.000000 0.000000
# 3 -0.010561 -0.006872 0.015056 0.000000 0.000000 0.000000
# 4 0.000000 0.000000 0.000000 0.059362 0.000000 0.000000
# 5 0.000000 0.000000 0.000000 0.000000 0.076216 0.000000
# 6 0.000000 0.000000 0.000000 0.000000 0.000000 0.027862
#
#
# Mechanical properties :
#
#
# Convention : Reuss Voigt Hill
#
# Bulk Modulus (GPa) = 32.22896 80.56004 56.39450
# Shear Modulus (GPa) = 18.00392 25.99774 22.00083
#
# Velocity S-wave (km/s) = 3.19358 3.83762 3.53032
# Velocity P-wave (km/s) = 5.64410 8.07914 6.96880
#
# Compressibility (1/GPa) = 0.03102799
#
# Stress axis : x y z
#
# Youngs Moduli (GPa) = 23.10826 109.28849 66.41670
#
# Poissons Ratio (x) = 0.08682 0.70140
# Poissons Ratio (y) = 0.01836 0.45639
# Poissons Ratio (z) = 0.24404 0.75099
#
# Static dielectric constant tensor:
#      x y z
#    x 1.612630 0.000000 0.000000 
#    y 0.000000 1.578070 0.000000 
#    z 0.000000 0.000000 1.594740 
# 
# From -- ./inp_files/18377.got.cif
#   From: 2010.05.17/outbox.cif.g08.bks.cpg/sg65_10_cif.got.tgz:18377.got - 2010.06.03 17:01:31.
