data_PCOD9488104
_publ_section_title
;
Structure prediction by ZEFSAII (Michael W. Deem and Ramdas Pophale) SiO2 
 PCOD9488104
Probable space group: C M M M
;
_chemical_formula_sum "Si O2"
_cell_formula_units_Z 88
_cell_length_a 22.638175
_cell_length_b 24.759185
_cell_length_c 9.233700
_cell_angle_alpha 90.000000
_cell_angle_beta 90.000000
_cell_angle_gamma 90.000000
_cell_volume 5175.514362
_symmetry_space_group_name_H-M "C M M M"
_symmetry_group_IT_number 65
_symmetry_cell_setting 'orthorhombic'
loop_
_space_group_symop_operation_xyz
x,y,z
-x,-y,z
x,-y,-z
-x,y,-z
-x,-y,-z
x,y,-z
-x,y,z
x,-y,z
1/2+x,1/2+y,z
1/2-x,1/2-y,z
1/2+x,1/2-y,-z
1/2-x,1/2+y,-z
1/2-x,1/2-y,-z
1/2+x,1/2+y,-z
1/2-x,1/2+y,z
1/2+x,1/2-y,z
loop_
_atom_site_type_symbol
_atom_site_label
_atom_site_fract_x
_atom_site_fract_y
_atom_site_fract_z
Si Si1 0.847503 0.151266 0.673302
Si Si2 0.678792 0.759254 0.833352
Si Si3 0.291176 0.864445 0.329729
Si Si4 0.500000 0.938066 0.823621
Si Si5 0.872748 0.435360 0.834838
Si Si6 0.570139 0.437153 0.826481
O O1 0.856182 0.155185 0.500000
O O2 0.852151 0.209971 0.749319
O O3 0.778809 0.135639 0.700549
O O4 0.890447 0.106461 0.742270
O O5 0.750000 0.750000 0.833004
O O6 0.674965 0.816057 0.752004
O O7 0.659305 0.761512 0.000000
O O8 0.298269 0.857224 0.500000
O O9 0.321223 0.917919 0.270256
O O10 0.436865 0.913592 0.784101
O O11 0.500000 0.000000 0.770118
O O12 0.500000 0.940152 0.000000
O O13 0.877681 0.500000 0.839951
O O14 0.861112 0.416868 0.000000
O O15 0.500000 0.429387 0.798186
O O16 0.584354 0.500000 0.789493
O O17 0.579022 0.431127 0.000000
#
# Coordination Sequence:
#
# PCOD9488104 Si02
#       6
#    16  16  16   8  16  16
#     4  10  20  33  51  75 103 134 165 202 252 305
#     4   9  17  31  52  74  95 125 166 205 243 293
#     4  10  20  32  47  72 106 136 163 203 254 304
#     4   7  12  26  47  67  87 117 159 201 236 275
#     4   9  17  30  49  71  95 127 167 207 247 293
#     4   9  19  36  56  77 102 134 173 215 256 301
#
# _framework density 17.003139999999998
#
# number of rings (size 3 to 8) (size 9 to 14) (size 15 to 20)
#    0.000    2.818    0.000    3.273    0.000    6.182 
#    0.000    5.000    2.000    1.636    0.000    0.000 
#    0.000    0.000    0.000    0.000    0.000    0.000 
#
# Total GULP energy -244969.888581 kJ/mol
# GULP energy per Si atom -5567.497468 kJ/mol
# Density = 1.696444 g / cm^3
# Si number density = 17.003140 Si / 1000 Ang^3
#
#
#
# Elastic Constant Matrix: (Units=GPa)
#
#
# Indices 1 2 3 4 5 6 
#
# 1 59.6193 44.1893 51.5913 0.0000 0.0000 0.0000
# 2 44.1893 80.5457 50.1253 0.0000 0.0000 0.0000
# 3 51.5913 50.1253 71.5211 0.0000 0.0000 0.0000
# 4 0.0000 0.0000 0.0000 14.1877 0.0000 0.0000
# 5 0.0000 0.0000 0.0000 0.0000 19.5307 0.0000
# 6 0.0000 0.0000 0.0000 0.0000 0.0000 22.9025
#
#
#
# Elastic Compliance Matrix: (Units=1/GPa)
#
#
# Indices 1 2 3 4 5 6 
#
# 1 0.047656 -0.008428 -0.028469 0.000000 0.000000 0.000000
# 2 -0.008428 0.023509 -0.010397 0.000000 0.000000 0.000000
# 3 -0.028469 -0.010397 0.041805 0.000000 0.000000 0.000000
# 4 0.000000 0.000000 0.000000 0.070483 0.000000 0.000000
# 5 0.000000 0.000000 0.000000 0.000000 0.051201 0.000000
# 6 0.000000 0.000000 0.000000 0.000000 0.000000 0.043663
#
#
# Mechanical properties :
#
#
# Convention : Reuss Voigt Hill
#
# Bulk Modulus (GPa) = 54.40364 55.94421 55.17392
# Shear Modulus (GPa) = 13.19145 15.70954 14.45050
#
# Velocity S-wave (km/s) = 2.78838 3.04290 2.91842
# Velocity P-wave (km/s) = 6.51402 6.73197 6.62389
#
# Compressibility (1/GPa) = 0.01838112
#
# Stress axis : x y z
#
# Youngs Moduli (GPa) = 20.98389 42.53630 23.92076
#
# Poissons Ratio (x) = 0.35849 0.68101
# Poissons Ratio (y) = 0.17685 0.24870
# Poissons Ratio (z) = 0.59740 0.44225
#
# Static dielectric constant tensor:
#      x y z
#    x 1.579860 0.000000 0.000000 
#    y 0.000000 1.598650 0.000000 
#    z 0.000000 0.000000 1.570970 
# 
# From -- ./inp_files/11817.got.cif
#   From: 2010.05.17/outbox.cif.g08.bks.cpg/sg65_6_cif.got.tgz:11817.got - 2010.06.03 17:01:31.
