data_PCOD9488834
_publ_section_title
;
Structure prediction by ZEFSAII (Michael W. Deem and Ramdas Pophale) SiO2 
 PCOD9488834
Probable space group: C M M M
;
_chemical_formula_sum "Si O2"
_cell_formula_units_Z 120
_cell_length_a 23.611519
_cell_length_b 22.370647
_cell_length_c 11.649108
_cell_angle_alpha 90.000000
_cell_angle_beta 90.000000
_cell_angle_gamma 90.000000
_cell_volume 6153.116587
_symmetry_space_group_name_H-M "C M M M"
_symmetry_group_IT_number 65
_symmetry_cell_setting 'orthorhombic'
loop_
_space_group_symop_operation_xyz
x,y,z
-x,-y,z
x,-y,-z
-x,y,-z
-x,-y,-z
x,y,-z
-x,y,z
x,-y,z
1/2+x,1/2+y,z
1/2-x,1/2-y,z
1/2+x,1/2-y,-z
1/2-x,1/2+y,-z
1/2-x,1/2-y,-z
1/2+x,1/2+y,-z
1/2-x,1/2+y,z
1/2+x,1/2-y,z
loop_
_atom_site_type_symbol
_atom_site_label
_atom_site_fract_x
_atom_site_fract_y
_atom_site_fract_z
Si Si1 0.322279 0.431862 0.637730
Si Si2 0.616812 0.144402 0.311882
Si Si3 0.063399 0.569738 0.500000
Si Si4 0.255729 0.180412 0.638798
Si Si5 0.933228 0.189788 0.875862
Si Si6 0.067314 0.768917 0.373331
Si Si7 0.436647 0.432926 0.225522
Si Si8 0.934868 0.567164 0.862849
O O1 0.321462 0.431147 0.500000
O O2 0.302550 0.500000 0.672544
O O3 0.286683 0.373274 0.677251
O O4 0.386468 0.426397 0.683115
O O5 0.598734 0.089610 0.390729
O O6 0.681641 0.160618 0.326055
O O7 0.580214 0.199075 0.360774
O O8 0.600021 0.122256 0.186534
O O9 0.057659 0.500000 0.500000
O O10 0.000000 0.596319 0.500000
O O11 0.251957 0.181808 0.500000
O O12 0.250000 0.250000 0.677401
O O13 0.909716 0.207959 0.750019
O O14 0.930575 0.118149 0.868663
O O15 0.000000 0.207471 0.874663
O O16 0.909814 0.210317 0.000000
O O17 0.090261 0.788756 0.500000
O O18 0.000000 0.780717 0.375236
O O19 0.500000 0.425015 0.276966
O O20 0.433532 0.500000 0.178701
O O21 0.914956 0.500000 0.830961
O O22 0.000000 0.572751 0.821419
O O23 0.935654 0.569338 0.000000
#
# Coordination Sequence:
#
# PCOD9488834 Si02
#       8
#    16  16   8  16  16  16  16  16
#     4   9  19  35  56  82 115 153 193 244 299 361
#     4  12  21  35  57  84 112 155 201 240 291 355
#     4  11  22  34  53  88 128 154 179 234 304 359
#     4  10  22  39  56  80 114 158 206 253 302 360
#     4   9  19  34  52  79 114 151 188 228 283 353
#     4  10  20  33  51  78 116 153 191 239 288 344
#     4   9  18  33  55  84 112 140 182 239 302 363
#     4   9  19  36  58  87 124 163 201 244 299 364
#
# _framework density 19.502312
#
# number of rings (size 3 to 8) (size 9 to 14) (size 15 to 20)
#    0.000    2.200    1.333    2.000    1.867    3.733 
#    0.000    5.333    0.000    1.200    0.000    0.000 
#    0.000    0.000    0.000    0.000    0.000    0.000 
#
# Total GULP energy -334081.700664 kJ/mol
# GULP energy per Si atom -5568.028344 kJ/mol
# Density = 1.945792 g / cm^3
# Si number density = 19.502312 Si / 1000 Ang^3
#
#
#
# Elastic Constant Matrix: (Units=GPa)
#
#
# Indices 1 2 3 4 5 6 
#
# 1 67.6482 44.9085 12.2007 0.0000 0.0000 0.0000
# 2 44.9085 101.7755 41.0178 0.0000 0.0000 0.0000
# 3 12.2007 41.0178 92.4876 0.0000 0.0000 0.0000
# 4 0.0000 0.0000 0.0000 12.5408 0.0000 0.0000
# 5 0.0000 0.0000 0.0000 0.0000 15.1384 0.0000
# 6 0.0000 0.0000 0.0000 0.0000 0.0000 13.2866
#
#
#
# Elastic Compliance Matrix: (Units=1/GPa)
#
#
# Indices 1 2 3 4 5 6 
#
# 1 0.021109 -0.009975 0.001639 0.000000 0.000000 0.000000
# 2 -0.009975 0.016678 -0.006081 0.000000 0.000000 0.000000
# 3 0.001639 -0.006081 0.013293 0.000000 0.000000 0.000000
# 4 0.000000 0.000000 0.000000 0.079740 0.000000 0.000000
# 5 0.000000 0.000000 0.000000 0.000000 0.066057 0.000000
# 6 0.000000 0.000000 0.000000 0.000000 0.000000 0.075264
#
#
# Mechanical properties :
#
#
# Convention : Reuss Voigt Hill
#
# Bulk Modulus (GPa) = 44.95095 50.90724 47.92910
# Shear Modulus (GPa) = 16.21337 19.11210 17.66274
#
# Velocity S-wave (km/s) = 2.88645 3.13388 3.01271
# Velocity P-wave (km/s) = 5.84875 6.26536 6.06064
#
# Compressibility (1/GPa) = 0.02224647
#
# Stress axis : x y z
#
# Youngs Moduli (GPa) = 47.37424 59.96101 75.22924
#
# Poissons Ratio (x) = 0.59810 -0.12331
# Poissons Ratio (y) = 0.47255 0.45743
# Poissons Ratio (z) = -0.07765 0.36460
#
# Static dielectric constant tensor:
#      x y z
#    x 1.656360 0.000000 0.000000 
#    y 0.000000 1.745550 0.000000 
#    z 0.000000 0.000000 1.756280 
# 
# From -- ./inp_files/31121.got.cif
#   From: 2010.05.17/outbox.cif.g08.bks.cpg/sg65_16_cif.got.tgz:31121.got - 2010.06.03 17:01:31.
