data_PCOD9488341
_publ_section_title
;
Structure prediction by ZEFSAII (Michael W. Deem and Ramdas Pophale) SiO2 
 PCOD9488341
Probable space group: C M M M
;
_chemical_formula_sum "Si O2"
_cell_formula_units_Z 100
_cell_length_a 29.738363
_cell_length_b 21.885737
_cell_length_c 7.323388
_cell_angle_alpha 90.000000
_cell_angle_beta 90.000000
_cell_angle_gamma 90.000000
_cell_volume 4766.397723
_symmetry_space_group_name_H-M "C M M M"
_symmetry_group_IT_number 65
_symmetry_cell_setting 'orthorhombic'
loop_
_space_group_symop_operation_xyz
x,y,z
-x,-y,z
x,-y,-z
-x,y,-z
-x,-y,-z
x,y,-z
-x,y,z
x,-y,z
1/2+x,1/2+y,z
1/2-x,1/2-y,z
1/2+x,1/2-y,-z
1/2-x,1/2+y,-z
1/2-x,1/2-y,-z
1/2+x,1/2+y,-z
1/2-x,1/2+y,z
1/2+x,1/2-y,z
loop_
_atom_site_type_symbol
_atom_site_label
_atom_site_fract_x
_atom_site_fract_y
_atom_site_fract_z
Si Si1 0.693822 0.814990 0.779352
Si Si2 0.355080 0.934597 0.209441
Si Si3 0.259543 0.500000 0.500000
Si Si4 0.721306 0.609961 0.219421
Si Si5 0.643635 0.693364 0.222612
Si Si6 0.050104 0.242638 0.218935
Si Si7 0.949905 0.612926 0.715344
O O1 0.666232 0.873831 0.709711
O O2 0.745314 0.832451 0.745897
O O3 0.671733 0.752686 0.714217
O O4 0.688859 0.812516 0.000000
O O5 0.408549 0.924699 0.207231
O O6 0.343655 0.000000 0.295352
O O7 0.339308 0.936758 0.000000
O O8 0.262731 0.446265 0.339834
O O9 0.671386 0.632980 0.270939
O O10 0.723233 0.597603 0.000000
O O11 0.592352 0.703120 0.284136
O O12 0.643276 0.694293 0.000000
O O13 0.058237 0.314614 0.256334
O O14 0.000000 0.227700 0.288227
O O15 0.048919 0.236738 0.000000
O O16 0.950107 0.601198 0.500000
O O17 0.000000 0.599300 0.786524
#
# Coordination Sequence:
#
# PCOD9488341 Si02
#       7
#    16  16   4  16  16  16  16
#     4   9  17  33  57  82 110 146 188 235 283 332
#     4  10  20  33  50  72  97 137 189 232 275 326
#     4  12  26  44  58  90 117 150 201 230 276 360
#     4  10  22  40  62  85 118 155 188 237 286 336
#     4   9  16  32  59  88 114 147 186 228 291 342
#     4   9  16  29  53  82 110 139 179 229 276 333
#     4  10  20  33  46  66  99 142 185 229 284 332
#
# _framework density 20.980204000000001
#
# number of rings (size 3 to 8) (size 9 to 14) (size 15 to 20)
#    0.000    2.400    1.600    1.200    1.120    3.520 
#    2.880    3.200    0.000    0.000    0.000    1.120 
#    0.000    3.840    0.000    0.000    0.000    0.000 
#
# Total GULP energy -278658.997138 kJ/mol
# GULP energy per Si atom -5573.179943 kJ/mol
# Density = 2.093245 g / cm^3
# Si number density = 20.980204 Si / 1000 Ang^3
#
#
#
# Elastic Constant Matrix: (Units=GPa)
#
#
# Indices 1 2 3 4 5 6 
#
# 1 94.9350 25.5550 5.2558 0.0000 0.0000 0.0000
# 2 25.5550 37.0356 8.0986 0.0000 0.0000 0.0000
# 3 5.2558 8.0986 101.0738 0.0000 0.0000 0.0000
# 4 0.0000 0.0000 0.0000 35.9579 0.0000 0.0000
# 5 0.0000 0.0000 0.0000 0.0000 126.8442 0.0000
# 6 0.0000 0.0000 0.0000 0.0000 0.0000 15.9608
#
#
#
# Elastic Compliance Matrix: (Units=1/GPa)
#
#
# Indices 1 2 3 4 5 6 
#
# 1 0.012937 -0.008936 0.000043 0.000000 0.000000 0.000000
# 2 -0.008936 0.033655 -0.002232 0.000000 0.000000 0.000000
# 3 0.000043 -0.002232 0.010070 0.000000 0.000000 0.000000
# 4 0.000000 0.000000 0.000000 0.027810 0.000000 0.000000
# 5 0.000000 0.000000 0.000000 0.000000 0.007884 0.000000
# 6 0.000000 0.000000 0.000000 0.000000 0.000000 0.062654
#
#
# Mechanical properties :
#
#
# Convention : Reuss Voigt Hill
#
# Bulk Modulus (GPa) = 29.05893 34.54035 31.79964
# Shear Modulus (GPa) = 26.49298 48.69492 37.59395
#
# Velocity S-wave (km/s) = 3.55739 4.82290 4.23765
# Velocity P-wave (km/s) = 5.54564 6.89295 6.25567
#
# Compressibility (1/GPa) = 0.03441283
#
# Stress axis : x y z
#
# Youngs Moduli (GPa) = 77.30063 29.71336 99.30150
#
# Poissons Ratio (x) = 0.26551 -0.00430
# Poissons Ratio (y) = 0.69074 0.22164
# Poissons Ratio (z) = -0.00335 0.06632
#
# Static dielectric constant tensor:
#      x y z
#    x 1.788370 0.000000 0.000000 
#    y 0.000000 1.721790 0.000000 
#    z 0.000000 0.000000 1.728220 
# 
# From -- ./inp_files/12839.got.cif
#   From: 2010.05.17/outbox.cif.g08.bks.cpg/sg65_7_cif.got.tgz:12839.got - 2010.06.03 17:01:31.
