data_PCOD9488849
_publ_section_title
;
Structure prediction by ZEFSAII (Michael W. Deem and Ramdas Pophale) SiO2 
 PCOD9488849
Probable space group: C M M M
;
_chemical_formula_sum "Si O2"
_cell_formula_units_Z 72
_cell_length_a 24.063240
_cell_length_b 7.589701
_cell_length_c 18.489562
_cell_angle_alpha 90.000000
_cell_angle_beta 90.000000
_cell_angle_gamma 90.000000
_cell_volume 3376.800418
_symmetry_space_group_name_H-M "C M M M"
_symmetry_group_IT_number 65
_symmetry_cell_setting 'orthorhombic'
loop_
_space_group_symop_operation_xyz
x,y,z
-x,-y,z
x,-y,-z
-x,y,-z
-x,-y,-z
x,y,-z
-x,y,z
x,-y,z
1/2+x,1/2+y,z
1/2-x,1/2-y,z
1/2+x,1/2-y,-z
1/2-x,1/2+y,-z
1/2-x,1/2-y,-z
1/2+x,1/2+y,-z
1/2-x,1/2+y,z
1/2+x,1/2-y,z
loop_
_atom_site_type_symbol
_atom_site_label
_atom_site_fract_x
_atom_site_fract_y
_atom_site_fract_z
Si Si1 0.815005 0.711685 0.500000
Si Si2 0.878001 0.716400 0.082638
Si Si3 0.620458 0.210219 0.359414
Si Si4 0.185881 0.288714 0.220824
Si Si5 0.500000 0.799085 0.087811
Si Si6 0.500000 0.290490 0.416956
O O1 0.821819 0.500000 0.500000
O O2 0.750000 0.750000 0.500000
O O3 0.845217 0.780643 0.571809
O O4 0.879903 0.500000 0.081208
O O5 0.833934 0.775059 0.142131
O O6 0.939930 0.777678 0.106204
O O7 0.867019 0.771883 0.000000
O O8 0.646000 0.279337 0.284673
O O9 0.555746 0.238832 0.374953
O O10 0.629110 0.000000 0.357723
O O11 0.180069 0.500000 0.218599
O O12 0.250000 0.250000 0.236011
O O13 0.500000 0.000000 0.115850
O O14 0.500000 0.806370 0.000000
O O15 0.500000 0.500000 0.422470
O O16 0.500000 0.219122 0.500000
#
# Coordination Sequence:
#
# PCOD9488849 Si02
#       6
#     8  16  16  16   8   8
#     4  10  20  33  52  75 101 138 178 214 257 306
#     4   8  14  26  46  73 104 137 175 221 272 321
#     4  10  21  37  56  78 107 143 178 216 265 318
#     4  10  21  35  52  76 106 142 184 227 270 317
#     4   7  10  19  38  64  93 122 156 205 257 303
#     4  11  23  38  59  87 112 137 172 216 266 321
#
# _framework density 21.321959
#
# number of rings (size 3 to 8) (size 9 to 14) (size 15 to 20)
#    0.000    2.667    1.111    2.333    0.000    3.556 
#    0.000    3.333    0.000    0.000    0.000    0.000 
#    0.000    3.556    0.000    0.000    0.000    0.000 
#
# Total GULP energy -200869.146890 kJ/mol
# GULP energy per Si atom -5579.698525 kJ/mol
# Density = 2.127343 g / cm^3
# Si number density = 21.321959 Si / 1000 Ang^3
#
#
#
# Elastic Constant Matrix: (Units=GPa)
#
#
# Indices 1 2 3 4 5 6 
#
# 1 165.3266 -13.7437 98.6395 0.0000 0.0000 0.0000
# 2 -13.7437 43.8760 9.7758 0.0000 0.0000 0.0000
# 3 98.6395 9.7758 161.9178 0.0000 0.0000 0.0000
# 4 0.0000 0.0000 0.0000 -19.1855 0.0000 0.0000
# 5 0.0000 0.0000 0.0000 0.0000 41.3040 0.0000
# 6 0.0000 0.0000 0.0000 0.0000 0.0000 16.6000
#
#
#
# Elastic Compliance Matrix: (Units=1/GPa)
#
#
# Indices 1 2 3 4 5 6 
#
# 1 0.010387 0.004727 -0.006613 0.000000 0.000000 0.000000
# 2 0.004727 0.025254 -0.004404 0.000000 0.000000 0.000000
# 3 -0.006613 -0.004404 0.010471 0.000000 0.000000 0.000000
# 4 0.000000 0.000000 0.000000 -0.052123 0.000000 0.000000
# 5 0.000000 0.000000 0.000000 0.000000 0.024211 0.000000
# 6 0.000000 0.000000 0.000000 0.000000 0.000000 0.060241
#
#
# Mechanical properties :
#
#
# Convention : Reuss Voigt Hill
#
# Bulk Modulus (GPa) = 29.82365 62.27373 46.04869
# Shear Modulus (GPa) = 48.92429 26.17363 37.54896
#
# Velocity S-wave (km/s) = 4.79534 3.50743 4.20103
# Velocity P-wave (km/s) = 6.68417 6.75815 6.72126
#
# Compressibility (1/GPa) = 0.03353044
#
# Stress axis : x y z
#
# Youngs Moduli (GPa) = 96.27106 39.59834 95.50464
#
# Poissons Ratio (x) = -0.18719 0.63160
# Poissons Ratio (y) = -0.45509 0.42065
# Poissons Ratio (z) = 0.63667 0.17441
#
# Static dielectric constant tensor:
#      x y z
#    x 1.759520 0.000000 0.000000 
#    y 0.000000 1.804380 0.000000 
#    z 0.000000 0.000000 1.772530 
# 
# From -- ./inp_files/64457.got.cif
#   From: 2010.05.17/outbox.cif.g08.bks.cpg/sg65_33_cif.got.tgz:64457.got - 2010.06.03 17:01:31.
