data_PCOD9488457
_publ_section_title
;
Structure prediction by ZEFSAII (Michael W. Deem and Ramdas Pophale) SiO2 
 PCOD9488457
Probable space group: C M M M
;
_chemical_formula_sum "Si O2"
_cell_formula_units_Z 104
_cell_length_a 8.347213
_cell_length_b 20.699014
_cell_length_c 33.875857
_cell_angle_alpha 90.000000
_cell_angle_beta 90.000000
_cell_angle_gamma 90.000000
_cell_volume 5853.039364
_symmetry_space_group_name_H-M "C M M M"
_symmetry_group_IT_number 65
_symmetry_cell_setting 'orthorhombic'
loop_
_space_group_symop_operation_xyz
x,y,z
-x,-y,z
x,-y,-z
-x,y,-z
-x,-y,-z
x,y,-z
-x,y,z
x,-y,z
1/2+x,1/2+y,z
1/2-x,1/2-y,z
1/2+x,1/2-y,-z
1/2-x,1/2+y,-z
1/2-x,1/2-y,-z
1/2+x,1/2+y,-z
1/2-x,1/2+y,z
1/2+x,1/2-y,z
loop_
_atom_site_type_symbol
_atom_site_label
_atom_site_fract_x
_atom_site_fract_y
_atom_site_fract_z
Si Si1 0.808147 0.821849 0.350654
Si Si2 0.806731 0.073746 0.107106
Si Si3 0.694091 0.925549 0.586266
Si Si4 0.684306 0.921561 0.500000
Si Si5 0.193627 0.821627 0.739765
Si Si6 0.195485 0.926212 0.196911
Si Si7 0.808667 0.678658 0.044975
O O1 0.750000 0.750000 0.361786
O O2 0.746817 0.876370 0.380216
O O3 0.753328 0.833994 0.305401
O O4 0.000000 0.822240 0.350982
O O5 0.755179 0.089686 0.152014
O O6 0.747705 0.124506 0.075237
O O7 0.000000 0.074173 0.106874
O O8 0.754805 0.000000 0.098518
O O9 0.500000 0.926197 0.584311
O O10 0.755322 0.904306 0.542628
O O11 0.745075 0.000000 0.593608
O O12 0.500000 0.898226 0.500000
O O13 0.679132 0.000000 0.500000
O O14 0.250000 0.750000 0.750901
O O15 0.251334 0.875219 0.770648
O O16 0.000000 0.822447 0.739910
O O17 0.000000 0.925521 0.197315
O O18 0.244373 0.000000 0.205570
O O19 0.750000 0.750000 0.056655
O O20 0.000000 0.679163 0.044274
O O21 0.750118 0.666471 0.000000
#
# Coordination Sequence:
#
# PCOD9488457 Si02
#       7
#    16  16  16   8  16  16  16
#     4  10  20  33  49  70  98 131 165 201 242 287
#     4   9  18  33  53  76 102 132 164 198 239 289
#     4   9  17  31  52  75  98 125 158 197 241 290
#     4   7  12  26  48  71  94 123 157 191 234 289
#     4   9  18  32  50  70  94 126 161 198 238 283
#     4   8  15  30  51  73  97 126 160 196 235 281
#     4  10  21  36  53  73  99 131 166 205 247 290
#
# _framework density 17.768547000000002
#
# number of rings (size 3 to 8) (size 9 to 14) (size 15 to 20)
#    0.000    3.000    0.000    2.769    0.000    3.692 
#    0.000    6.154    0.000    2.769    0.000    0.000 
#    0.000    0.000    0.000    0.000    0.000    0.000 
#
# Total GULP energy -289758.808820 kJ/mol
# GULP energy per Si atom -5572.284785 kJ/mol
# Density = 1.772810 g / cm^3
# Si number density = 17.768547 Si / 1000 Ang^3
#
#
#
# Elastic Constant Matrix: (Units=GPa)
#
#
# Indices 1 2 3 4 5 6 
#
# 1 12.7059 20.7323 20.5411 0.0000 0.0000 0.0000
# 2 20.7323 148.0248 130.5724 0.0000 0.0000 0.0000
# 3 20.5411 130.5724 146.4381 0.0000 0.0000 0.0000
# 4 0.0000 0.0000 0.0000 74.8361 0.0000 0.0000
# 5 0.0000 0.0000 0.0000 0.0000 15.7184 0.0000
# 6 0.0000 0.0000 0.0000 0.0000 0.0000 25.5973
#
#
#
# Elastic Compliance Matrix: (Units=1/GPa)
#
#
# Indices 1 2 3 4 5 6 
#
# 1 0.103737 -0.007934 -0.007477 0.000000 0.000000 0.000000
# 2 -0.007934 0.032253 -0.027646 0.000000 0.000000 0.000000
# 3 -0.007477 -0.027646 0.032528 0.000000 0.000000 0.000000
# 4 0.000000 0.000000 0.000000 0.013363 0.000000 0.000000
# 5 0.000000 0.000000 0.000000 0.000000 0.063620 0.000000
# 6 0.000000 0.000000 0.000000 0.000000 0.000000 0.039067
#
#
# Mechanical properties :
#
#
# Convention : Reuss Voigt Hill
#
# Bulk Modulus (GPa) = 12.13516 72.31780 42.22648
# Shear Modulus (GPa) = 12.55808 32.25189 22.40499
#
# Velocity S-wave (km/s) = 2.66138 4.26503 3.55482
# Velocity P-wave (km/s) = 4.03588 8.06488 6.37693
#
# Compressibility (1/GPa) = 0.08240518
#
# Stress axis : x y z
#
# Youngs Moduli (GPa) = 9.63972 31.00465 30.74248
#
# Poissons Ratio (x) = 0.24599 0.22987
# Poissons Ratio (y) = 0.07648 0.84990
# Poissons Ratio (z) = 0.07208 0.85715
#
# Static dielectric constant tensor:
#      x y z
#    x 1.622020 0.000000 0.000000 
#    y 0.000000 1.572690 0.000000 
#    z 0.000000 0.000000 1.623980 
# 
# From -- ./inp_files/76928.got.cif
#   From: 2010.05.17/outbox.cif.g08.bks.cpg/sg65_39_cif.got.tgz:76928.got - 2010.06.03 17:01:31.
