data_PCOD9488979
_publ_section_title
;
Structure prediction by ZEFSAII (Michael W. Deem and Ramdas Pophale) SiO2 
 PCOD9488979
Probable space group: C M M M
;
_chemical_formula_sum "Si O2"
_cell_formula_units_Z 104
_cell_length_a 8.765182
_cell_length_b 20.456036
_cell_length_c 30.373957
_cell_angle_alpha 90.000000
_cell_angle_beta 90.000000
_cell_angle_gamma 90.000000
_cell_volume 5446.077175
_symmetry_space_group_name_H-M "C M M M"
_symmetry_group_IT_number 65
_symmetry_cell_setting 'orthorhombic'
loop_
_space_group_symop_operation_xyz
x,y,z
-x,-y,z
x,-y,-z
-x,y,-z
-x,-y,-z
x,y,-z
-x,y,z
x,-y,z
1/2+x,1/2+y,z
1/2-x,1/2-y,z
1/2+x,1/2-y,-z
1/2-x,1/2+y,-z
1/2-x,1/2-y,-z
1/2+x,1/2+y,-z
1/2-x,1/2+y,z
1/2+x,1/2-y,z
loop_
_atom_site_type_symbol
_atom_site_label
_atom_site_fract_x
_atom_site_fract_y
_atom_site_fract_z
Si Si1 0.818337 0.816199 0.138456
Si Si2 0.671655 0.500000 0.947314
Si Si3 0.818114 0.638594 0.949164
Si Si4 0.683905 0.321051 0.280323
Si Si5 0.682395 0.320597 0.617748
Si Si6 0.683819 0.924331 0.449489
Si Si7 0.185874 0.075277 0.206906
O O1 0.750000 0.750000 0.158474
O O2 0.763981 0.820365 0.088201
O O3 0.768352 0.881018 0.164814
O O4 0.000000 0.812788 0.140345
O O5 0.500000 0.500000 0.927492
O O6 0.765496 0.564909 0.938023
O O7 0.653712 0.500000 0.000000
O O8 0.000000 0.645120 0.946203
O O9 0.772980 0.652735 0.000000
O O10 0.500000 0.316801 0.277583
O O11 0.750000 0.250000 0.267894
O O12 0.726578 0.333520 0.331261
O O13 0.732480 0.380591 0.248831
O O14 0.500000 0.317762 0.615734
O O15 0.750000 0.250000 0.605563
O O16 0.743229 0.375803 0.585308
O O17 0.727519 0.908467 0.500000
O O18 0.500000 0.919997 0.446891
O O19 0.726023 0.000000 0.441191
O O20 0.000000 0.072791 0.206990
O O21 0.239476 0.000000 0.206730
#
# Coordination Sequence:
#
# PCOD9488979 Si02
#       7
#    16   8  16  16  16  16  16
#     4  11  23  38  59  83 111 147 185 227 275 330
#     4   9  17  31  53  81 111 143 179 217 261 315
#     4  10  21  37  57  82 113 147 183 226 275 323
#     4   9  18  34  57  82 111 145 179 221 272 330
#     4  10  20  33  53  82 112 146 187 231 279 331
#     4   9  19  36  55  75 105 147 190 234 287 340
#     4   9  19  36  58  84 111 141 180 224 271 326
#
# _framework density 19.096315000000001
#
# number of rings (size 3 to 8) (size 9 to 14) (size 15 to 20)
#    0.000    2.385    0.000    2.538    1.077    4.308 
#    0.000    3.077    0.000    2.308    0.000    0.000 
#    0.000    0.000    0.000    0.000    0.000    0.000 
#
# Total GULP energy -290151.571480 kJ/mol
# GULP energy per Si atom -5579.837913 kJ/mol
# Density = 1.905285 g / cm^3
# Si number density = 19.096315 Si / 1000 Ang^3
#
#
#
# Elastic Constant Matrix: (Units=GPa)
#
#
# Indices 1 2 3 4 5 6 
#
# 1 33.3331 34.0227 35.0744 0.0000 0.0000 0.0000
# 2 34.0227 169.7141 98.6224 0.0000 0.0000 0.0000
# 3 35.0744 98.6224 127.6431 0.0000 0.0000 0.0000
# 4 0.0000 0.0000 0.0000 -0.9045 0.0000 0.0000
# 5 0.0000 0.0000 0.0000 0.0000 12.3816 0.0000
# 6 0.0000 0.0000 0.0000 0.0000 0.0000 31.8594
#
#
#
# Elastic Compliance Matrix: (Units=1/GPa)
#
#
# Indices 1 2 3 4 5 6 
#
# 1 0.043136 -0.003193 -0.009386 0.000000 0.000000 0.000000
# 2 -0.003193 0.010930 -0.007567 0.000000 0.000000 0.000000
# 3 -0.009386 -0.007567 0.016260 0.000000 0.000000 0.000000
# 4 0.000000 0.000000 0.000000 -1.105586 0.000000 0.000000
# 5 0.000000 0.000000 0.000000 0.000000 0.080765 0.000000
# 6 0.000000 0.000000 0.000000 0.000000 0.000000 0.031388
#
#
# Mechanical properties :
#
#
# Convention : Reuss Voigt Hill
#
# Bulk Modulus (GPa) = 33.29684 74.01435 53.65560
# Shear Modulus (GPa) = -5.72867 19.53204 6.90169
#
# Velocity S-wave (km/s) = -1.73390 3.20162 1.90315
# Velocity P-wave (km/s) = 3.66955 7.24636 5.74349
#
# Compressibility (1/GPa) = 0.03003288
#
# Stress axis : x y z
#
# Youngs Moduli (GPa) = 23.18275 91.49179 61.49932
#
# Poissons Ratio (x) = 0.29216 0.57722
# Poissons Ratio (y) = 0.07403 0.46539
# Poissons Ratio (z) = 0.21759 0.69236
#
# Static dielectric constant tensor:
#      x y z
#    x 1.644120 0.000000 0.000000 
#    y 0.000000 1.621890 0.000000 
#    z 0.000000 0.000000 1.675960 
# 
# From -- ./inp_files/73334.got.cif
#   From: 2010.05.17/outbox.cif.g08.bks.cpg/sg65_37_cif.got.tgz:73334.got - 2010.06.03 17:01:31.
