data_PCOD9488490
_publ_section_title
;
Structure prediction by ZEFSAII (Michael W. Deem and Ramdas Pophale) SiO2 
 PCOD9488490
Probable space group: C M M M
;
_chemical_formula_sum "Si O2"
_cell_formula_units_Z 96
_cell_length_a 15.456188
_cell_length_b 14.185736
_cell_length_c 23.655258
_cell_angle_alpha 90.000000
_cell_angle_beta 90.000000
_cell_angle_gamma 90.000000
_cell_volume 5186.590425
_symmetry_space_group_name_H-M "C M M M"
_symmetry_group_IT_number 65
_symmetry_cell_setting 'orthorhombic'
loop_
_space_group_symop_operation_xyz
x,y,z
-x,-y,z
x,-y,-z
-x,y,-z
-x,-y,-z
x,y,-z
-x,y,z
x,-y,z
1/2+x,1/2+y,z
1/2-x,1/2-y,z
1/2+x,1/2-y,-z
1/2-x,1/2+y,-z
1/2-x,1/2-y,-z
1/2+x,1/2+y,-z
1/2-x,1/2+y,z
1/2+x,1/2-y,z
loop_
_atom_site_type_symbol
_atom_site_label
_atom_site_fract_x
_atom_site_fract_y
_atom_site_fract_z
Si Si1 0.903449 0.892090 0.235958
Si Si2 0.150680 0.723244 0.173421
Si Si3 0.895546 0.608879 0.063876
Si Si4 0.724873 0.385530 0.337549
Si Si5 0.097988 0.114918 0.434837
Si Si6 0.597643 0.885995 0.714511
O O1 0.898736 0.821021 0.184073
O O2 0.833839 0.862925 0.282931
O O3 0.000000 0.888601 0.261034
O O4 0.885771 0.000000 0.219598
O O5 0.250000 0.750000 0.181180
O O6 0.137398 0.675488 0.113231
O O7 0.118310 0.654191 0.223291
O O8 0.869360 0.500000 0.074074
O O9 0.000000 0.610946 0.065333
O O10 0.868564 0.634876 0.000000
O O11 0.726826 0.500000 0.340506
O O12 0.672943 0.352401 0.392605
O O13 0.823362 0.354865 0.326051
O O14 0.112195 0.142992 0.500000
O O15 0.000000 0.143633 0.418105
O O16 0.098241 0.000000 0.433545
O O17 0.500000 0.856772 0.698130
O O18 0.599159 0.000000 0.716780
#
# Coordination Sequence:
#
# PCOD9488490 Si02
#       6
#    16  16  16  16  16  16
#     4  10  20  33  49  72 105 142 175 211 261 323
#     4  12  22  33  53  78 109 139 172 219 270 318
#     4   9  19  37  60  83 106 136 178 226 269 309
#     4   9  16  28  45  69 101 135 175 221 270 319
#     4   8  13  22  40  68 101 138 179 223 271 320
#     4  10  20  34  52  74 102 138 181 227 272 319
#
# _framework density 18.509270000000001
#
# number of rings (size 3 to 8) (size 9 to 14) (size 15 to 20)
#    0.000    2.333    1.667    3.500    0.000    4.333 
#    0.000    0.000    0.000    1.000    0.000    8.167 
#    0.000    2.667    0.000    0.333    0.000    0.167 
#
# Total GULP energy -267727.794228 kJ/mol
# GULP energy per Si atom -5577.662380 kJ/mol
# Density = 1.846714 g / cm^3
# Si number density = 18.509270 Si / 1000 Ang^3
#
#
#
# Elastic Constant Matrix: (Units=GPa)
#
#
# Indices 1 2 3 4 5 6 
#
# 1 147.4156 30.1674 72.1827 0.0000 0.0000 0.0000
# 2 30.1674 61.3546 45.5098 0.0000 0.0000 0.0000
# 3 72.1827 45.5098 121.0230 0.0000 0.0000 0.0000
# 4 0.0000 0.0000 0.0000 15.9575 0.0000 0.0000
# 5 0.0000 0.0000 0.0000 0.0000 12.5668 0.0000
# 6 0.0000 0.0000 0.0000 0.0000 0.0000 15.5639
#
#
#
# Elastic Compliance Matrix: (Units=1/GPa)
#
#
# Indices 1 2 3 4 5 6 
#
# 1 0.009601 -0.000656 -0.005480 0.000000 0.000000 0.000000
# 2 -0.000656 0.022648 -0.008125 0.000000 0.000000 0.000000
# 3 -0.005480 -0.008125 0.014587 0.000000 0.000000 0.000000
# 4 0.000000 0.000000 0.000000 0.062666 0.000000 0.000000
# 5 0.000000 0.000000 0.000000 0.000000 0.079575 0.000000
# 6 0.000000 0.000000 0.000000 0.000000 0.000000 0.064251
#
#
# Mechanical properties :
#
#
# Convention : Reuss Voigt Hill
#
# Bulk Modulus (GPa) = 54.60426 69.50144 62.05285
# Shear Modulus (GPa) = 17.36381 20.94652 19.15516
#
# Velocity S-wave (km/s) = 3.06619 3.36769 3.22047
# Velocity P-wave (km/s) = 6.48848 7.26311 6.88670
#
# Compressibility (1/GPa) = 0.01831359
#
# Stress axis : x y z
#
# Youngs Moduli (GPa) = 104.15638 44.15333 68.55589
#
# Poissons Ratio (x) = 0.02897 0.37566
# Poissons Ratio (y) = 0.06834 0.55704
# Poissons Ratio (z) = 0.57074 0.35876
#
# Static dielectric constant tensor:
#      x y z
#    x 1.700600 0.000000 0.000000 
#    y 0.000000 1.657680 0.000000 
#    z 0.000000 0.000000 1.617090 
# 
# From -- ./inp_files/62620.got.cif
#   From: 2010.05.17/outbox.cif.g08.bks.cpg/sg65_32_cif.got.tgz:62620.got - 2010.06.03 17:01:31.
