data_PCOD9488575
_publ_section_title
;
Structure prediction by ZEFSAII (Michael W. Deem and Ramdas Pophale) SiO2 
 PCOD9488575
Probable space group: C M M M
;
_chemical_formula_sum "Si O2"
_cell_formula_units_Z 80
_cell_length_a 14.515090
_cell_length_b 9.320624
_cell_length_c 26.776055
_cell_angle_alpha 90.000000
_cell_angle_beta 90.000000
_cell_angle_gamma 90.000000
_cell_volume 3622.524347
_symmetry_space_group_name_H-M "C M M M"
_symmetry_group_IT_number 65
_symmetry_cell_setting 'orthorhombic'
loop_
_space_group_symop_operation_xyz
x,y,z
-x,-y,z
x,-y,-z
-x,y,-z
-x,-y,-z
x,y,-z
-x,y,z
x,-y,z
1/2+x,1/2+y,z
1/2-x,1/2-y,z
1/2+x,1/2-y,-z
1/2-x,1/2+y,-z
1/2-x,1/2-y,-z
1/2+x,1/2+y,-z
1/2-x,1/2+y,z
1/2+x,1/2-y,z
loop_
_atom_site_type_symbol
_atom_site_label
_atom_site_fract_x
_atom_site_fract_y
_atom_site_fract_z
Si Si1 0.387659 0.665462 0.444131
Si Si2 0.392850 0.159990 0.153362
Si Si3 0.112927 0.163658 0.751496
Si Si4 0.112614 0.663164 0.653018
Si Si5 0.348203 0.671638 0.054953
O O1 0.359911 0.711117 0.500000
O O2 0.500000 0.665411 0.443599
O O3 0.359278 0.500000 0.436272
O O4 0.357858 0.766205 0.399059
O O5 0.500000 0.141074 0.165287
O O6 0.354954 0.247390 0.200319
O O7 0.390753 0.253356 0.103090
O O8 0.351936 0.000000 0.146482
O O9 0.139697 0.241788 0.700413
O O10 0.000000 0.159654 0.752185
O O11 0.145170 0.000000 0.753349
O O12 0.144598 0.500000 0.657971
O O13 0.000000 0.660852 0.652816
O O14 0.341123 0.500000 0.061768
O O15 0.250000 0.750000 0.052414
O O16 0.392035 0.695041 0.000000
#
# Coordination Sequence:
#
# PCOD9488575 Si02
#       5
#    16  16  16  16  16
#     4   8  13  20  28  38  55  83 122 167 212 258
#     4  10  20  33  50  73 100 127 157 196 239 281
#     4   9  16  26  40  57  79 108 142 180 223 271
#     4   9  15  21  30  45  66  93 127 169 217 266
#     4  10  21  37  56  76  99 128 161 195 232 278
#
# _framework density 22.084047999999999
#
# number of rings (size 3 to 8) (size 9 to 14) (size 15 to 20)
#    0.000    2.800    0.000    3.000    0.000    8.000 
#    0.000    4.000    0.000    0.000    0.000    0.000 
#    0.000    0.000    0.000    0.000    0.000    1.000 
#
# Total GULP energy -223332.168114 kJ/mol
# GULP energy per Si atom -5583.304203 kJ/mol
# Density = 2.203378 g / cm^3
# Si number density = 22.084048 Si / 1000 Ang^3
#
#
#
# Elastic Constant Matrix: (Units=GPa)
#
#
# Indices 1 2 3 4 5 6 
#
# 1 53.4412 11.5945 4.9377 0.0000 0.0000 0.0000
# 2 11.5945 209.5432 144.1217 0.0000 0.0000 0.0000
# 3 4.9377 144.1217 217.9199 0.0000 0.0000 0.0000
# 4 0.0000 0.0000 0.0000 39.8684 0.0000 0.0000
# 5 0.0000 0.0000 0.0000 0.0000 -15.2177 0.0000
# 6 0.0000 0.0000 0.0000 0.0000 0.0000 8.0464
#
#
#
# Elastic Compliance Matrix: (Units=1/GPa)
#
#
# Indices 1 2 3 4 5 6 
#
# 1 0.018967 -0.001383 0.000485 0.000000 0.000000 0.000000
# 2 -0.001383 0.008855 -0.005825 0.000000 0.000000 0.000000
# 3 0.000485 -0.005825 0.008430 0.000000 0.000000 0.000000
# 4 0.000000 0.000000 0.000000 0.025083 0.000000 0.000000
# 5 0.000000 0.000000 0.000000 0.000000 -0.065713 0.000000
# 6 0.000000 0.000000 0.000000 0.000000 0.000000 0.124280
#
#
# Mechanical properties :
#
#
# Convention : Reuss Voigt Hill
#
# Bulk Modulus (GPa) = 43.84713 89.13468 66.49091
# Shear Modulus (GPa) = 35.47340 27.88945 31.68143
#
# Velocity S-wave (km/s) = 4.01220 3.55755 3.79170
# Velocity P-wave (km/s) = 6.43129 7.57127 7.02444
#
# Compressibility (1/GPa) = 0.02280651
#
# Stress axis : x y z
#
# Youngs Moduli (GPa) = 52.72202 112.92728 118.61983
#
# Poissons Ratio (x) = 0.15618 -0.05752
# Poissons Ratio (y) = 0.07291 0.69097
# Poissons Ratio (z) = -0.02556 0.65781
#
# Static dielectric constant tensor:
#      x y z
#    x 2.000050 0.000000 0.000000 
#    y 0.000000 1.779920 0.000000 
#    z 0.000000 0.000000 1.786020 
# 
# From -- ./inp_files/72746.got.cif
#   From: 2010.05.17/outbox.cif.g08.bks.cpg/sg65_37_cif.got.tgz:72746.got - 2010.06.03 17:01:31.
