data_PCOD9488483
_publ_section_title
;
Structure prediction by ZEFSAII (Michael W. Deem and Ramdas Pophale) SiO2 
 PCOD9488483
Probable space group: C M M M
;
_chemical_formula_sum "Si O2"
_cell_formula_units_Z 104
_cell_length_a 28.912415
_cell_length_b 24.683387
_cell_length_c 8.990919
_cell_angle_alpha 90.000000
_cell_angle_beta 90.000000
_cell_angle_gamma 90.000000
_cell_volume 6416.426244
_symmetry_space_group_name_H-M "C M M M"
_symmetry_group_IT_number 65
_symmetry_cell_setting 'orthorhombic'
loop_
_space_group_symop_operation_xyz
x,y,z
-x,-y,z
x,-y,-z
-x,y,-z
-x,-y,-z
x,y,-z
-x,y,z
x,-y,z
1/2+x,1/2+y,z
1/2-x,1/2-y,z
1/2+x,1/2-y,-z
1/2-x,1/2+y,-z
1/2-x,1/2-y,-z
1/2+x,1/2+y,-z
1/2-x,1/2+y,z
1/2+x,1/2-y,z
loop_
_atom_site_type_symbol
_atom_site_label
_atom_site_fract_x
_atom_site_fract_y
_atom_site_fract_z
Si Si1 0.727200 0.065773 0.171060
Si Si2 0.446839 0.147927 0.679255
Si Si3 0.500000 0.435223 0.676375
Si Si4 0.323088 0.564728 0.323135
Si Si5 0.631119 0.936800 0.320751
Si Si6 0.088973 0.878661 0.821127
Si Si7 0.054270 0.761887 0.822491
O O1 0.773184 0.081954 0.259606
O O2 0.679218 0.081939 0.248001
O O3 0.727018 0.000000 0.172317
O O4 0.729315 0.083633 0.000000
O O5 0.446651 0.149897 0.500000
O O6 0.500000 0.137656 0.727287
O O7 0.411399 0.101135 0.725553
O O8 0.432601 0.206462 0.741664
O O9 0.500000 0.500000 0.694879
O O10 0.500000 0.423361 0.500000
O O11 0.545402 0.410147 0.751736
O O12 0.325071 0.573054 0.500000
O O13 0.328387 0.500000 0.295736
O O14 0.364265 0.596065 0.242566
O O15 0.635554 0.934303 0.500000
O O16 0.623177 0.000000 0.281406
O O17 0.082844 0.815270 0.781742
O O18 0.087503 0.883315 0.000000
O O19 0.000000 0.772780 0.788359
O O20 0.057781 0.754112 0.000000
#
# Coordination Sequence:
#
# PCOD9488483 Si02
#       7
#    16  16   8  16  16  16  16
#     4   9  17  30  49  72  97 128 167 204 239 289
#     4   9  18  31  49  75 102 131 168 203 238 287
#     4  11  23  35  47  69 101 133 164 203 254 303
#     4  10  20  33  49  72 101 130 162 202 251 301
#     4   9  17  30  49  74 105 136 162 195 242 291
#     4  11  21  34  51  71  96 129 169 209 250 297
#     4   9  18  34  51  68  93 127 168 208 247 289
#
# _framework density 16.208400000000001
#
# number of rings (size 3 to 8) (size 9 to 14) (size 15 to 20)
#    0.000    2.385    0.769    2.077    0.000    7.385 
#    0.000    1.538    0.000    0.923    0.000   10.769 
#    0.000    0.000    0.000    0.000    0.000    0.000 
#
# Total GULP energy -289994.251905 kJ/mol
# GULP energy per Si atom -5576.812537 kJ/mol
# Density = 1.617151 g / cm^3
# Si number density = 16.208400 Si / 1000 Ang^3
#
#
#
# Elastic Constant Matrix: (Units=GPa)
#
#
# Indices 1 2 3 4 5 6 
#
# 1 143.9533 83.3822 58.6642 0.0000 0.0000 0.0000
# 2 83.3822 93.2927 51.5508 0.0000 0.0000 0.0000
# 3 58.6642 51.5508 54.7556 0.0000 0.0000 0.0000
# 4 0.0000 0.0000 0.0000 23.5199 0.0000 0.0000
# 5 0.0000 0.0000 0.0000 0.0000 24.5640 0.0000
# 6 0.0000 0.0000 0.0000 0.0000 0.0000 2.2255
#
#
#
# Elastic Compliance Matrix: (Units=1/GPa)
#
#
# Indices 1 2 3 4 5 6 
#
# 1 0.015774 -0.009921 -0.007560 0.000000 0.000000 0.000000
# 2 -0.009921 0.028582 -0.016280 0.000000 0.000000 0.000000
# 3 -0.007560 -0.016280 0.041689 0.000000 0.000000 0.000000
# 4 0.000000 0.000000 0.000000 0.042517 0.000000 0.000000
# 5 0.000000 0.000000 0.000000 0.000000 0.040710 0.000000
# 6 0.000000 0.000000 0.000000 0.000000 0.000000 0.449345
#
#
# Mechanical properties :
#
#
# Convention : Reuss Voigt Hill
#
# Bulk Modulus (GPa) = 53.98351 75.46622 64.72487
# Shear Modulus (GPa) = 7.22217 16.62216 11.92216
#
# Velocity S-wave (km/s) = 2.11317 3.20586 2.71505
# Velocity P-wave (km/s) = 6.27154 7.76945 7.06033
#
# Compressibility (1/GPa) = 0.01852417
#
# Stress axis : x y z
#
# Youngs Moduli (GPa) = 63.39540 34.98725 23.98716
#
# Poissons Ratio (x) = 0.34711 0.18133
# Poissons Ratio (y) = 0.62896 0.39050
# Poissons Ratio (z) = 0.47924 0.56958
#
# Static dielectric constant tensor:
#      x y z
#    x 1.527200 0.000000 0.000000 
#    y 0.000000 1.525060 0.000000 
#    z 0.000000 0.000000 1.542810 
# 
# From -- ./inp_files/14703.got.cif
#   From: 2010.05.17/outbox.cif.g08.bks.cpg/sg65_8_cif.got.tgz:14703.got - 2010.06.03 17:01:31.
