data_PCOD9488868
_publ_section_title
;
Structure prediction by ZEFSAII (Michael W. Deem and Ramdas Pophale) SiO2 
 PCOD9488868
Probable space group: C M M M
;
_chemical_formula_sum "Si O2"
_cell_formula_units_Z 120
_cell_length_a 27.992794
_cell_length_b 25.913012
_cell_length_c 9.151598
_cell_angle_alpha 90.000000
_cell_angle_beta 90.000000
_cell_angle_gamma 90.000000
_cell_volume 6638.364256
_symmetry_space_group_name_H-M "C M M M"
_symmetry_group_IT_number 65
_symmetry_cell_setting 'orthorhombic'
loop_
_space_group_symop_operation_xyz
x,y,z
-x,-y,z
x,-y,-z
-x,y,-z
-x,-y,-z
x,y,-z
-x,y,z
x,-y,z
1/2+x,1/2+y,z
1/2-x,1/2-y,z
1/2+x,1/2-y,-z
1/2-x,1/2+y,-z
1/2-x,1/2-y,-z
1/2+x,1/2+y,-z
1/2-x,1/2+y,z
1/2+x,1/2-y,z
loop_
_atom_site_type_symbol
_atom_site_label
_atom_site_fract_x
_atom_site_fract_y
_atom_site_fract_z
Si Si1 0.277621 0.128289 0.173645
Si Si2 0.947899 0.250890 0.175966
Si Si3 0.553185 0.937069 0.831084
Si Si4 0.000000 0.058474 0.677504
Si Si5 0.316444 0.334627 0.673373
Si Si6 0.147984 0.562071 0.666374
Si Si7 0.924204 0.857270 0.325735
Si Si8 0.342667 0.227822 0.825119
O O1 0.227026 0.136411 0.250326
O O2 0.308026 0.081475 0.238133
O O3 0.310207 0.178614 0.205138
O O4 0.271917 0.123896 0.000000
O O5 0.942201 0.193506 0.241854
O O6 0.898541 0.279493 0.216563
O O7 0.000000 0.272036 0.221580
O O8 0.948128 0.248010 0.000000
O O9 0.500000 0.920869 0.782917
O O10 0.597783 0.919778 0.735591
O O11 0.553240 0.000000 0.830296
O O12 0.559657 0.920871 0.000000
O O13 0.954087 0.092638 0.719267
O O14 0.000000 0.055884 0.500000
O O15 0.000000 0.000000 0.732809
O O16 0.308476 0.330802 0.500000
O O17 0.367622 0.361802 0.698462
O O18 0.322583 0.277706 0.742142
O O19 0.152816 0.580260 0.500000
O O20 0.146859 0.500000 0.666113
O O21 0.931710 0.849032 0.500000
O O22 0.340744 0.237618 0.000000
#
# Coordination Sequence:
#
# PCOD9488868 Si02
#       8
#    16  16  16   8  16  16  16  16
#     4  11  22  36  54  74 101 138 176 218 263 314
#     4   9  16  28  49  74 100 131 165 204 251 305
#     4   8  14  27  49  75 100 127 163 205 247 296
#     4   9  16  28  49  75 103 135 169 205 246 297
#     4  10  20  33  52  78 104 132 169 215 264 311
#     4  10  21  36  54  76 102 133 171 216 263 310
#     4   9  17  30  49  73 100 130 168 209 249 302
#     4   9  19  34  51  75 104 134 171 210 256 313
#
# _framework density 18.076741999999999
#
# number of rings (size 3 to 8) (size 9 to 14) (size 15 to 20)
#    0.000    2.600    0.667    2.000    0.000    4.267 
#    0.000    2.667    0.000    5.600    0.000    0.000 
#    0.000    0.000    0.000    0.000    0.000    0.000 
#
# Total GULP energy -334595.125150 kJ/mol
# GULP energy per Si atom -5576.585419 kJ/mol
# Density = 1.803560 g / cm^3
# Si number density = 18.076742 Si / 1000 Ang^3
#
#
#
# Elastic Constant Matrix: (Units=GPa)
#
#
# Indices 1 2 3 4 5 6 
#
# 1 121.7347 16.8180 45.3864 0.0000 0.0000 0.0000
# 2 16.8180 29.5279 18.5989 0.0000 0.0000 0.0000
# 3 45.3864 18.5989 37.3333 0.0000 0.0000 0.0000
# 4 0.0000 0.0000 0.0000 19.4128 0.0000 0.0000
# 5 0.0000 0.0000 0.0000 0.0000 19.3590 0.0000
# 6 0.0000 0.0000 0.0000 0.0000 0.0000 6.1349
#
#
#
# Elastic Compliance Matrix: (Units=1/GPa)
#
#
# Indices 1 2 3 4 5 6 
#
# 1 0.015408 0.004405 -0.020926 0.000000 0.000000 0.000000
# 2 0.004405 0.050612 -0.030570 0.000000 0.000000 0.000000
# 3 -0.020926 -0.030570 0.067455 0.000000 0.000000 0.000000
# 4 0.000000 0.000000 0.000000 0.051512 0.000000 0.000000
# 5 0.000000 0.000000 0.000000 0.000000 0.051656 0.000000
# 6 0.000000 0.000000 0.000000 0.000000 0.000000 0.163003
#
#
# Mechanical properties :
#
#
# Convention : Reuss Voigt Hill
#
# Bulk Modulus (GPa) = 25.44908 38.91139 32.18024
# Shear Modulus (GPa) = 9.86339 16.16749 13.01544
#
# Velocity S-wave (km/s) = 2.33843 2.99386 2.68621
# Velocity P-wave (km/s) = 4.62600 5.78994 5.24039
#
# Compressibility (1/GPa) = 0.03929415
#
# Stress axis : x y z
#
# Youngs Moduli (GPa) = 64.90182 19.75803 14.82470
#
# Poissons Ratio (x) = -0.08703 0.31022
# Poissons Ratio (y) = -0.28589 0.45318
# Poissons Ratio (z) = 1.35814 0.60399
#
# Static dielectric constant tensor:
#      x y z
#    x 1.638090 0.000000 0.000000 
#    y 0.000000 1.611020 0.000000 
#    z 0.000000 0.000000 1.607650 
# 
# From -- ./inp_files/17075.got.cif
#   From: 2010.05.17/outbox.cif.g08.bks.cpg/sg65_9_cif.got.tgz:17075.got - 2010.06.03 17:01:31.
