data_PCOD9488095
_publ_section_title
;
Structure prediction by ZEFSAII (Michael W. Deem and Ramdas Pophale) SiO2 
 PCOD9488095
Probable space group: C M M M
;
_chemical_formula_sum "Si O2"
_cell_formula_units_Z 96
_cell_length_a 15.003321
_cell_length_b 28.823398
_cell_length_c 14.519741
_cell_angle_alpha 90.000000
_cell_angle_beta 90.000000
_cell_angle_gamma 90.000000
_cell_volume 6279.013971
_symmetry_space_group_name_H-M "C M M M"
_symmetry_group_IT_number 65
_symmetry_cell_setting 'orthorhombic'
loop_
_space_group_symop_operation_xyz
x,y,z
-x,-y,z
x,-y,-z
-x,y,-z
-x,-y,-z
x,y,-z
-x,y,z
x,-y,z
1/2+x,1/2+y,z
1/2-x,1/2-y,z
1/2+x,1/2-y,-z
1/2-x,1/2+y,-z
1/2-x,1/2-y,-z
1/2+x,1/2+y,-z
1/2-x,1/2+y,z
1/2+x,1/2-y,z
loop_
_atom_site_type_symbol
_atom_site_label
_atom_site_fract_x
_atom_site_fract_y
_atom_site_fract_z
Si Si1 0.500000 0.278136 0.605528
Si Si2 0.733714 0.304915 0.101210
Si Si3 0.811269 0.202417 0.698333
Si Si4 0.684615 0.126286 0.610788
Si Si5 0.500000 0.167680 0.394230
Si Si6 0.399001 0.127132 0.893259
Si Si7 0.605086 0.945768 0.730979
O O1 0.500000 0.294907 0.500000
O O2 0.592123 0.291449 0.654019
O O3 0.500000 0.222477 0.604645
O O4 0.750000 0.250000 0.095745
O O5 0.678127 0.310485 0.194111
O O6 0.825777 0.332754 0.117902
O O7 0.698864 0.319673 0.000000
O O8 0.750000 0.250000 0.690192
O O9 0.760544 0.160109 0.648547
O O10 0.688826 0.124981 0.500000
O O11 0.592096 0.149904 0.645715
O O12 0.672320 0.075800 0.655678
O O13 0.500000 0.150665 0.500000
O O14 0.500000 0.144777 0.877540
O O15 0.383736 0.085014 0.823054
O O16 0.393906 0.111639 0.000000
O O17 0.500000 0.941474 0.702096
O O18 0.621289 0.000000 0.747047
#
# Coordination Sequence:
#
# PCOD9488095 Si02
#       7
#     8  16  16  16   8  16  16
#     4  11  22  34  49  76 106 134 173 214 253 298
#     4   9  18  33  49  71 102 133 169 207 244 300
#     4  11  21  34  52  75 101 138 171 210 254 301
#     4  11  20  32  49  71 100 137 173 207 251 302
#     4   9  18  30  47  69  96 131 174 211 242 291
#     4   9  17  31  52  74 100 137 174 208 251 302
#     4  10  20  32  47  71 102 134 172 216 258 304
#
# _framework density 15.289025000000001
#
# number of rings (size 3 to 8) (size 9 to 14) (size 15 to 20)
#    0.000    2.000    4.167    0.500    0.000    1.333 
#    6.000    2.917    0.000    0.000    0.000    0.583 
#    0.000    2.000    0.000    3.667    0.000    0.000 
#
# Total GULP energy -267239.977551 kJ/mol
# GULP energy per Si atom -5567.499532 kJ/mol
# Density = 1.525423 g / cm^3
# Si number density = 15.289025 Si / 1000 Ang^3
#
#
#
# Elastic Constant Matrix: (Units=GPa)
#
#
# Indices 1 2 3 4 5 6 
#
# 1 82.9116 33.0365 48.0233 0.0000 0.0000 0.0000
# 2 33.0365 85.0279 37.5492 0.0000 0.0000 0.0000
# 3 48.0233 37.5492 118.9842 0.0000 0.0000 0.0000
# 4 0.0000 0.0000 0.0000 -65.2154 0.0000 0.0000
# 5 0.0000 0.0000 0.0000 0.0000 13.3644 0.0000
# 6 0.0000 0.0000 0.0000 0.0000 0.0000 19.8487
#
#
#
# Elastic Compliance Matrix: (Units=1/GPa)
#
#
# Indices 1 2 3 4 5 6 
#
# 1 0.016903 -0.004130 -0.005519 0.000000 0.000000 0.000000
# 2 -0.004130 0.014675 -0.002964 0.000000 0.000000 0.000000
# 3 -0.005519 -0.002964 0.011567 0.000000 0.000000 0.000000
# 4 0.000000 0.000000 0.000000 -0.015334 0.000000 0.000000
# 5 0.000000 0.000000 0.000000 0.000000 0.074826 0.000000
# 6 0.000000 0.000000 0.000000 0.000000 0.000000 0.050381
#
#
# Mechanical properties :
#
#
# Convention : Reuss Voigt Hill
#
# Bulk Modulus (GPa) = 55.80730 58.23795 57.02262
# Shear Modulus (GPa) = 27.14179 4.82052 15.98116
#
# Velocity S-wave (km/s) = 4.21794 1.77758 3.23657
# Velocity P-wave (km/s) = 7.76544 6.51054 7.16551
#
# Compressibility (1/GPa) = 0.01791880
#
# Stress axis : x y z
#
# Youngs Moduli (GPa) = 59.15959 68.14510 86.45022
#
# Poissons Ratio (x) = 0.28147 0.47711
# Poissons Ratio (y) = 0.24435 0.25623
# Poissons Ratio (z) = 0.32650 0.20198
#
# Static dielectric constant tensor:
#      x y z
#    x 1.499010 0.000000 0.000000 
#    y 0.000000 1.503580 0.000000 
#    z 0.000000 0.000000 1.567550 
# 
# From -- ./inp_files/38944.got.cif
#   From: 2010.05.17/outbox.cif.g08.bks.cpg/sg65_20_cif.got.tgz:38944.got - 2010.06.03 17:01:31.
