data_PCOD9488078
_publ_section_title
;
Structure prediction by ZEFSAII (Michael W. Deem and Ramdas Pophale) SiO2 
 PCOD9488078
Probable space group: C M M M
;
_chemical_formula_sum "Si O2"
_cell_formula_units_Z 72
_cell_length_a 27.758399
_cell_length_b 7.707050
_cell_length_c 16.657914
_cell_angle_alpha 90.000000
_cell_angle_beta 90.000000
_cell_angle_gamma 90.000000
_cell_volume 3563.716979
_symmetry_space_group_name_H-M "C M M M"
_symmetry_group_IT_number 65
_symmetry_cell_setting 'orthorhombic'
loop_
_space_group_symop_operation_xyz
x,y,z
-x,-y,z
x,-y,-z
-x,y,-z
-x,-y,-z
x,y,-z
-x,y,z
x,-y,z
1/2+x,1/2+y,z
1/2-x,1/2-y,z
1/2+x,1/2-y,-z
1/2-x,1/2+y,-z
1/2-x,1/2-y,-z
1/2+x,1/2+y,-z
1/2-x,1/2+y,z
1/2+x,1/2-y,z
loop_
_atom_site_type_symbol
_atom_site_label
_atom_site_fract_x
_atom_site_fract_y
_atom_site_fract_z
Si Si1 0.553544 0.794672 0.662860
Si Si2 0.803853 0.208278 0.247372
Si Si3 0.098782 0.789704 0.831597
Si Si4 0.154257 0.204076 0.411838
Si Si5 0.055656 0.787715 0.000000
O O1 0.500000 0.726910 0.644312
O O2 0.565508 0.764937 0.756825
O O3 0.598123 0.718040 0.613265
O O4 0.553843 0.000000 0.647689
O O5 0.750000 0.250000 0.222079
O O6 0.847121 0.269139 0.190269
O O7 0.815539 0.277725 0.337014
O O8 0.808099 0.000000 0.250721
O O9 0.098117 0.000000 0.832492
O O10 0.080684 0.728947 0.917866
O O11 0.162476 0.280740 0.500000
O O12 0.165778 0.000000 0.416219
O O13 0.000000 0.736039 0.000000
O O14 0.057026 0.000000 0.000000
#
# Coordination Sequence:
#
# PCOD9488078 Si02
#       5
#    16  16  16  16   8
#     4  10  20  32  47  70 101 134 164 196 240 293
#     4   9  18  32  50  71  96 127 161 199 243 290
#     4   9  18  33  52  74  99 127 164 206 242 283
#     4   9  19  35  52  71  95 124 163 207 246 288
#     4   9  16  28  52  81 101 123 161 205 242 277
#
# _framework density 20.203624999999999
#
# number of rings (size 3 to 8) (size 9 to 14) (size 15 to 20)
#    0.000    2.778    0.000    2.667    0.000    7.556 
#    0.000    3.333    0.000    2.000    0.000    0.000 
#    0.000    0.000    0.000    0.000    0.000    0.000 
#
# Total GULP energy -200833.787128 kJ/mol
# GULP energy per Si atom -5578.716309 kJ/mol
# Density = 2.015764 g / cm^3
# Si number density = 20.203625 Si / 1000 Ang^3
#
#
#
# Elastic Constant Matrix: (Units=GPa)
#
#
# Indices 1 2 3 4 5 6 
#
# 1 98.5088 -4.5105 21.9372 0.0000 0.0000 0.0000
# 2 -4.5105 32.4727 4.2991 0.0000 0.0000 0.0000
# 3 21.9372 4.2991 103.6135 0.0000 0.0000 0.0000
# 4 0.0000 0.0000 0.0000 23.7150 0.0000 0.0000
# 5 0.0000 0.0000 0.0000 0.0000 4.6270 0.0000
# 6 0.0000 0.0000 0.0000 0.0000 0.0000 21.1234
#
#
#
# Elastic Compliance Matrix: (Units=1/GPa)
#
#
# Indices 1 2 3 4 5 6 
#
# 1 0.010758 0.001806 -0.002353 0.000000 0.000000 0.000000
# 2 0.001806 0.031268 -0.001680 0.000000 0.000000 0.000000
# 3 -0.002353 -0.001680 0.010219 0.000000 0.000000 0.000000
# 4 0.000000 0.000000 0.000000 0.042167 0.000000 0.000000
# 5 0.000000 0.000000 0.000000 0.000000 0.216122 0.000000
# 6 0.000000 0.000000 0.000000 0.000000 0.000000 0.047341
#
#
# Mechanical properties :
#
#
# Convention : Reuss Voigt Hill
#
# Bulk Modulus (GPa) = 20.92392 30.89406 25.90899
# Shear Modulus (GPa) = 13.21846 24.08435 18.65141
#
# Velocity S-wave (km/s) = 2.56063 3.45640 3.04167
# Velocity P-wave (km/s) = 4.37281 5.59048 5.01871
#
# Compressibility (1/GPa) = 0.04779219
#
# Stress axis : x y z
#
# Youngs Moduli (GPa) = 92.95433 31.98131 97.85647
#
# Poissons Ratio (x) = -0.05775 0.23022
# Poissons Ratio (y) = -0.16785 0.16437
# Poissons Ratio (z) = 0.21869 0.05372
#
# Static dielectric constant tensor:
#      x y z
#    x 1.705890 0.000000 0.000000 
#    y 0.000000 1.732810 0.000000 
#    z 0.000000 0.000000 1.712830 
# 
# From -- ./inp_files/49698.got.cif
#   From: 2010.05.17/outbox.cif.g08.bks.cpg/sg65_25_cif.got.tgz:49698.got - 2010.06.03 17:01:31.
