data_PCOD9488408
_publ_section_title
;
Structure prediction by ZEFSAII (Michael W. Deem and Ramdas Pophale) SiO2 
 PCOD9488408
Probable space group: C M M M
;
_chemical_formula_sum "Si O2"
_cell_formula_units_Z 88
_cell_length_a 23.615959
_cell_length_b 14.618106
_cell_length_c 15.274619
_cell_angle_alpha 90.000000
_cell_angle_beta 90.000000
_cell_angle_gamma 90.000000
_cell_volume 5273.113013
_symmetry_space_group_name_H-M "C M M M"
_symmetry_group_IT_number 65
_symmetry_cell_setting 'orthorhombic'
loop_
_space_group_symop_operation_xyz
x,y,z
-x,-y,z
x,-y,-z
-x,y,-z
-x,-y,-z
x,y,-z
-x,y,z
x,-y,z
1/2+x,1/2+y,z
1/2-x,1/2-y,z
1/2+x,1/2-y,-z
1/2-x,1/2+y,-z
1/2-x,1/2-y,-z
1/2+x,1/2+y,-z
1/2-x,1/2+y,z
1/2+x,1/2-y,z
loop_
_atom_site_type_symbol
_atom_site_label
_atom_site_fract_x
_atom_site_fract_y
_atom_site_fract_z
Si Si1 0.750000 0.250000 0.294439
Si Si2 0.154381 0.106979 0.754119
Si Si3 0.682476 0.098240 0.394823
Si Si4 0.436564 0.389105 0.899501
Si Si5 0.064727 0.139639 0.397923
Si Si6 0.939827 0.360141 0.397081
O O1 0.793978 0.179422 0.248341
O O2 0.713476 0.183256 0.354507
O O3 0.111691 0.136799 0.831612
O O4 0.114832 0.109197 0.666472
O O5 0.171546 0.000000 0.767080
O O6 0.681681 0.106406 0.500000
O O7 0.617981 0.100402 0.361404
O O8 0.709028 0.000000 0.372964
O O9 0.500000 0.358212 0.873752
O O10 0.437727 0.500000 0.898999
O O11 0.426068 0.360752 0.000000
O O12 0.074178 0.114095 0.500000
O O13 0.064174 0.250167 0.394163
O O14 0.000000 0.109868 0.373919
O O15 0.941280 0.385325 0.500000
O O16 0.000000 0.387940 0.357634
#
# Coordination Sequence:
#
# PCOD9488408 Si02
#       6
#     8  16  16  16  16  16
#     4  12  23  36  45  62  98 134 168 214 244 280
#     4  11  22  34  51  73  98 134 172 203 243 293
#     4  10  20  33  49  65  85 125 177 220 255 288
#     4   8  15  31  56  83 106 124 148 192 249 304
#     4   9  17  30  48  71 100 130 158 197 252 306
#     4   8  14  27  46  65  86 114 151 202 256 292
#
# _framework density 16.688434000000001
#
# number of rings (size 3 to 8) (size 9 to 14) (size 15 to 20)
#    0.000    2.545    1.818    3.000    0.000    2.545 
#    0.000    3.182    0.000    0.000    0.000    0.000 
#    0.000    0.000    0.000    8.000    0.000    0.727 
#
# Total GULP energy -244983.734949 kJ/mol
# GULP energy per Si atom -5567.812158 kJ/mol
# Density = 1.665045 g / cm^3
# Si number density = 16.688434 Si / 1000 Ang^3
#
#
#
# Elastic Constant Matrix: (Units=GPa)
#
#
# Indices 1 2 3 4 5 6 
#
# 1 117.4868 50.9116 46.1951 0.0000 0.0000 0.0000
# 2 50.9116 96.3111 21.7533 0.0000 0.0000 0.0000
# 3 46.1951 21.7533 50.7424 0.0000 0.0000 0.0000
# 4 0.0000 0.0000 0.0000 5.3232 0.0000 0.0000
# 5 0.0000 0.0000 0.0000 0.0000 19.0741 0.0000
# 6 0.0000 0.0000 0.0000 0.0000 0.0000 3.7801
#
#
#
# Elastic Compliance Matrix: (Units=1/GPa)
#
#
# Indices 1 2 3 4 5 6 
#
# 1 0.015550 -0.005561 -0.011773 0.000000 0.000000 0.000000
# 2 -0.005561 0.013485 -0.000718 0.000000 0.000000 0.000000
# 3 -0.011773 -0.000718 0.030733 0.000000 0.000000 0.000000
# 4 0.000000 0.000000 0.000000 0.187856 0.000000 0.000000
# 5 0.000000 0.000000 0.000000 0.000000 0.052427 0.000000
# 6 0.000000 0.000000 0.000000 0.000000 0.000000 0.264542
#
#
# Mechanical properties :
#
#
# Convention : Reuss Voigt Hill
#
# Bulk Modulus (GPa) = 42.25808 55.80670 49.03239
# Shear Modulus (GPa) = 8.21577 15.34750 11.78163
#
# Velocity S-wave (km/s) = 2.22120 3.03586 2.65990
# Velocity P-wave (km/s) = 5.65288 6.76768 6.23525
#
# Compressibility (1/GPa) = 0.02366411
#
# Stress axis : x y z
#
# Youngs Moduli (GPa) = 64.30668 74.15670 32.53819
#
# Poissons Ratio (x) = 0.41240 0.38307
# Poissons Ratio (y) = 0.35762 0.02337
# Poissons Ratio (z) = 0.75707 0.05326
#
# Static dielectric constant tensor:
#      x y z
#    x 1.615990 0.000000 0.000000 
#    y 0.000000 1.604670 0.000000 
#    z 0.000000 0.000000 1.543340 
# 
# From -- ./inp_files/43965.got.cif
#   From: 2010.05.17/outbox.cif.g08.bks.cpg/sg65_22_cif.got.tgz:43965.got - 2010.06.03 17:01:31.
