data_PCOD9488335
_publ_section_title
;
Structure prediction by ZEFSAII (Michael W. Deem and Ramdas Pophale) SiO2 
 PCOD9488335
Probable space group: C M M M
;
_chemical_formula_sum "Si O2"
_cell_formula_units_Z 72
_cell_length_a 9.361027
_cell_length_b 23.679462
_cell_length_c 18.153330
_cell_angle_alpha 90.000000
_cell_angle_beta 90.000000
_cell_angle_gamma 90.000000
_cell_volume 4023.941250
_symmetry_space_group_name_H-M "C M M M"
_symmetry_group_IT_number 65
_symmetry_cell_setting 'orthorhombic'
loop_
_space_group_symop_operation_xyz
x,y,z
-x,-y,z
x,-y,-z
-x,y,-z
-x,-y,-z
x,y,-z
-x,y,z
x,-y,z
1/2+x,1/2+y,z
1/2-x,1/2-y,z
1/2+x,1/2-y,-z
1/2-x,1/2+y,-z
1/2-x,1/2-y,-z
1/2+x,1/2+y,-z
1/2-x,1/2+y,z
1/2+x,1/2-y,z
loop_
_atom_site_type_symbol
_atom_site_label
_atom_site_fract_x
_atom_site_fract_y
_atom_site_fract_z
Si Si1 0.164918 0.066545 0.261071
Si Si2 0.671421 0.689845 0.500000
Si Si3 0.836517 0.651573 0.641678
Si Si4 0.331379 0.809466 0.000000
Si Si5 0.658073 0.655516 0.136020
Si Si6 0.250000 0.250000 0.750251
O O1 0.276399 0.098567 0.312961
O O2 0.173679 0.098638 0.183110
O O3 0.000000 0.075441 0.287018
O O4 0.190094 0.000000 0.255982
O O5 0.500000 0.694950 0.500000
O O6 0.750000 0.750000 0.500000
O O7 0.730561 0.660427 0.573393
O O8 0.829958 0.706589 0.695481
O O9 0.000000 0.644309 0.617561
O O10 0.250000 0.750000 0.000000
O O11 0.277308 0.839446 0.074051
O O12 0.500000 0.802010 0.000000
O O13 0.500000 0.657639 0.102061
O O14 0.668403 0.707426 0.194459
#
# Coordination Sequence:
#
# PCOD9488335 Si02
#       6
#    16   8  16   8  16   8
#     4   9  20  40  63  86 114 150 194 241 287 338
#     4  12  24  38  57  84 121 158 192 232 284 346
#     4  11  22  36  58  87 119 152 191 237 287 342
#     4  12  24  36  53  80 117 153 186 230 286 343
#     4  10  20  35  57  83 113 149 190 231 280 340
#     4  10  20  32  56  82 118 146 188 228 290 338
#
# _framework density 17.892904999999999
#
# number of rings (size 3 to 8) (size 9 to 14) (size 15 to 20)
#    0.000    1.556    2.222    3.333    0.000    5.778 
#    0.000    1.111    0.000    6.667    0.000    0.000 
#    0.000    0.000    0.000    0.000    0.000    0.000 
#
# Total GULP energy -200860.542091 kJ/mol
# GULP energy per Si atom -5579.459503 kJ/mol
# Density = 1.785218 g / cm^3
# Si number density = 17.892905 Si / 1000 Ang^3
#
#
#
# Elastic Constant Matrix: (Units=GPa)
#
#
# Indices 1 2 3 4 5 6 
#
# 1 166.0551 46.9648 58.7517 0.0000 0.0000 0.0000
# 2 46.9648 112.0489 30.8771 0.0000 0.0000 0.0000
# 3 58.7517 30.8771 87.0120 0.0000 0.0000 0.0000
# 4 0.0000 0.0000 0.0000 11.9891 0.0000 0.0000
# 5 0.0000 0.0000 0.0000 0.0000 21.9704 0.0000
# 6 0.0000 0.0000 0.0000 0.0000 0.0000 16.3713
#
#
#
# Elastic Compliance Matrix: (Units=1/GPa)
#
#
# Indices 1 2 3 4 5 6 
#
# 1 0.008359 -0.002159 -0.004878 0.000000 0.000000 0.000000
# 2 -0.002159 0.010450 -0.002250 0.000000 0.000000 0.000000
# 3 -0.004878 -0.002250 0.015585 0.000000 0.000000 0.000000
# 4 0.000000 0.000000 0.000000 0.083409 0.000000 0.000000
# 5 0.000000 0.000000 0.000000 0.000000 0.045516 0.000000
# 6 0.000000 0.000000 0.000000 0.000000 0.000000 0.061082
#
#
# Mechanical properties :
#
#
# Convention : Reuss Voigt Hill
#
# Bulk Modulus (GPa) = 63.21614 70.92257 67.06935
# Shear Modulus (GPa) = 20.14121 25.30098 22.72110
#
# Velocity S-wave (km/s) = 3.35872 3.76443 3.56734
# Velocity P-wave (km/s) = 7.10269 7.65623 7.38465
#
# Compressibility (1/GPa) = 0.01581875
#
# Stress axis : x y z
#
# Youngs Moduli (GPa) = 119.63830 95.69515 64.16613
#
# Poissons Ratio (x) = 0.20664 0.31297
# Poissons Ratio (y) = 0.25834 0.14439
# Poissons Ratio (z) = 0.58354 0.21534
#
# Static dielectric constant tensor:
#      x y z
#    x 1.619370 0.000000 0.000000 
#    y 0.000000 1.590890 0.000000 
#    z 0.000000 0.000000 1.554050 
# 
# From -- ./inp_files/49567.got.cif
#   From: 2010.05.17/outbox.cif.g08.bks.cpg/sg65_25_cif.got.tgz:49567.got - 2010.06.03 17:01:31.
