data_PCOD9488699
_publ_section_title
;
Structure prediction by ZEFSAII (Michael W. Deem and Ramdas Pophale) SiO2 
 PCOD9488699
Probable space group: C M M M
;
_chemical_formula_sum "Si O2"
_cell_formula_units_Z 104
_cell_length_a 8.622951
_cell_length_b 27.522923
_cell_length_c 22.162526
_cell_angle_alpha 90.000000
_cell_angle_beta 90.000000
_cell_angle_gamma 90.000000
_cell_volume 5259.806064
_symmetry_space_group_name_H-M "C M M M"
_symmetry_group_IT_number 65
_symmetry_cell_setting 'orthorhombic'
loop_
_space_group_symop_operation_xyz
x,y,z
-x,-y,z
x,-y,-z
-x,y,-z
-x,-y,-z
x,y,-z
-x,y,z
x,-y,z
1/2+x,1/2+y,z
1/2-x,1/2-y,z
1/2+x,1/2-y,-z
1/2-x,1/2+y,-z
1/2-x,1/2-y,-z
1/2+x,1/2+y,-z
1/2-x,1/2+y,z
1/2+x,1/2-y,z
loop_
_atom_site_type_symbol
_atom_site_label
_atom_site_fract_x
_atom_site_fract_y
_atom_site_fract_z
Si Si1 0.826052 0.798777 0.428242
Si Si2 0.312920 0.054864 0.177106
Si Si3 0.185730 0.196777 0.248871
Si Si4 0.687589 0.900556 0.695371
Si Si5 0.684051 0.096560 0.566328
Si Si6 0.684926 0.349637 0.878520
Si Si7 0.183859 0.695858 0.000000
O O1 0.843904 0.790405 0.500000
O O2 0.750000 0.750000 0.402541
O O3 0.718291 0.846006 0.425773
O O4 0.000000 0.807611 0.403975
O O5 0.500000 0.058945 0.172593
O O6 0.270549 0.067571 0.246426
O O7 0.235936 0.095543 0.135881
O O8 0.268004 0.000000 0.162299
O O9 0.250000 0.250000 0.262453
O O10 0.247539 0.153447 0.291416
O O11 0.234014 0.181510 0.180535
O O12 0.000000 0.197258 0.251282
O O13 0.500000 0.897274 0.693277
O O14 0.741293 0.922606 0.631104
O O15 0.748949 0.082173 0.500000
O O16 0.500000 0.087814 0.563560
O O17 0.500000 0.346427 0.883075
O O18 0.758891 0.330521 0.939620
O O19 0.250000 0.750000 0.000000
O O20 0.000000 0.697742 0.000000
#
# Coordination Sequence:
#
# PCOD9488699 Si02
#       7
#    16  16  16  16  16  16   8
#     4   9  16  25  37  53  75 107 148 191 235 287
#     4   9  18  35  59  83 107 138 178 226 280 333
#     4  10  20  33  51  74 102 137 176 220 266 312
#     4   9  18  32  50  72  98 130 170 216 266 324
#     4   9  17  29  44  62  87 121 160 203 255 315
#     4  10  21  37  57  84 116 149 188 230 271 317
#     4  12  24  38  59  88 125 166 200 227 259 303
#
# _framework density 19.772590999999998
#
# number of rings (size 3 to 8) (size 9 to 14) (size 15 to 20)
#    0.000    2.462    0.000    2.538    0.000    6.462 
#    0.000    0.385    0.000    2.769    0.000    3.231 
#    0.000    0.000    0.000   11.538    0.000   12.000 
#
# Total GULP energy -290076.685441 kJ/mol
# GULP energy per Si atom -5578.397797 kJ/mol
# Density = 1.972759 g / cm^3
# Si number density = 19.772591 Si / 1000 Ang^3
#
#
#
# Elastic Constant Matrix: (Units=GPa)
#
#
# Indices 1 2 3 4 5 6 
#
# 1 31.0528 16.5853 33.7543 0.0000 0.0000 0.0000
# 2 16.5853 66.9753 41.4138 0.0000 0.0000 0.0000
# 3 33.7543 41.4138 172.7291 0.0000 0.0000 0.0000
# 4 0.0000 0.0000 0.0000 -3.3082 0.0000 0.0000
# 5 0.0000 0.0000 0.0000 0.0000 16.1400 0.0000
# 6 0.0000 0.0000 0.0000 0.0000 0.0000 20.6757
#
#
#
# Elastic Compliance Matrix: (Units=1/GPa)
#
#
# Indices 1 2 3 4 5 6 
#
# 1 0.043118 -0.006419 -0.006887 0.000000 0.000000 0.000000
# 2 -0.006419 0.018485 -0.003178 0.000000 0.000000 0.000000
# 3 -0.006887 -0.003178 0.007897 0.000000 0.000000 0.000000
# 4 0.000000 0.000000 0.000000 -0.302282 0.000000 0.000000
# 5 0.000000 0.000000 0.000000 0.000000 0.061958 0.000000
# 6 0.000000 0.000000 0.000000 0.000000 0.000000 0.048366
#
#
# Mechanical properties :
#
#
# Convention : Reuss Voigt Hill
#
# Bulk Modulus (GPa) = 27.37251 50.47379 38.92315
# Shear Modulus (GPa) = -64.67164 18.63510 -23.01827
#
# Velocity S-wave (km/s) = -5.72527 3.07330 -3.41567
# Velocity P-wave (km/s) = 5.46180 6.17868 2.04266
#
# Compressibility (1/GPa) = 0.03653300
#
# Stress axis : x y z
#
# Youngs Moduli (GPa) = 23.19239 54.09698 126.62819
#
# Poissons Ratio (x) = 0.34724 0.87208
# Poissons Ratio (y) = 0.14887 0.40239
# Poissons Ratio (z) = 0.15972 0.17190
#
# Static dielectric constant tensor:
#      x y z
#    x 1.718450 0.000000 0.000000 
#    y 0.000000 1.664210 0.000000 
#    z 0.000000 0.000000 1.752670 
# 
# From -- ./inp_files/60402.got.cif
#   From: 2010.05.17/outbox.cif.g08.bks.cpg/sg65_31_cif.got.tgz:60402.got - 2010.06.03 17:01:31.
