data_PCOD9488630
_publ_section_title
;
Structure prediction by ZEFSAII (Michael W. Deem and Ramdas Pophale) SiO2 
 PCOD9488630
Probable space group: C M M M
;
_chemical_formula_sum "Si O2"
_cell_formula_units_Z 96
_cell_length_a 7.633494
_cell_length_b 18.732999
_cell_length_c 32.059753
_cell_angle_alpha 90.000000
_cell_angle_beta 90.000000
_cell_angle_gamma 90.000000
_cell_volume 4584.488109
_symmetry_space_group_name_H-M "C M M M"
_symmetry_group_IT_number 65
_symmetry_cell_setting 'orthorhombic'
loop_
_space_group_symop_operation_xyz
x,y,z
-x,-y,z
x,-y,-z
-x,y,-z
-x,-y,-z
x,y,-z
-x,y,z
x,-y,z
1/2+x,1/2+y,z
1/2-x,1/2-y,z
1/2+x,1/2-y,-z
1/2-x,1/2+y,-z
1/2-x,1/2-y,-z
1/2+x,1/2+y,-z
1/2-x,1/2+y,z
1/2+x,1/2-y,z
loop_
_atom_site_type_symbol
_atom_site_label
_atom_site_fract_x
_atom_site_fract_y
_atom_site_fract_z
Si Si1 0.289578 0.666952 0.453378
Si Si2 0.213654 0.582719 0.953294
Si Si3 0.708654 0.919340 0.792292
Si Si4 0.785233 0.917675 0.627470
Si Si5 0.710735 0.166678 0.127469
Si Si6 0.792138 0.166433 0.708853
O O1 0.222598 0.649959 0.500000
O O2 0.500000 0.659529 0.454588
O O3 0.250000 0.750000 0.444880
O O4 0.225254 0.617914 0.415761
O O5 0.263224 0.500000 0.946137
O O6 0.275748 0.632459 0.915800
O O7 0.000000 0.584316 0.953414
O O8 0.270747 0.603591 0.000000
O O9 0.500000 0.925124 0.798269
O O10 0.778516 0.876901 0.832489
O O11 0.734431 0.874528 0.750324
O O12 0.779061 0.000000 0.788774
O O13 0.723346 0.871755 0.667056
O O14 0.000000 0.916252 0.627259
O O15 0.732522 0.000000 0.631071
O O16 0.500000 0.159505 0.127128
O O17 0.750000 0.250000 0.130868
O O18 0.750000 0.250000 0.710160
O O19 0.000000 0.159898 0.707370
#
# Coordination Sequence:
#
# PCOD9488630 Si02
#       6
#    16  16  16  16  16  16
#     4   9  17  30  50  74  99 129 164 202 245 294
#     4   8  14  27  49  74  97 125 165 208 246 289
#     4  10  21  37  56  77 102 132 168 211 256 302
#     4   9  18  32  50  74 102 130 164 207 251 294
#     4  10  20  33  50  74 103 133 165 203 248 296
#     4  11  22  36  55  77 103 135 170 209 253 301
#
# _framework density 20.940180000000002
#
# number of rings (size 3 to 8) (size 9 to 14) (size 15 to 20)
#    0.000    2.500    0.000    3.000    0.000    5.667 
#    0.000    2.500    0.000    4.000    0.000    3.500 
#    0.000    0.000    0.000    0.000    0.000    0.000 
#
# Total GULP energy -268068.827573 kJ/mol
# GULP energy per Si atom -5584.767241 kJ/mol
# Density = 2.089252 g / cm^3
# Si number density = 20.940180 Si / 1000 Ang^3
#
#
#
# Elastic Constant Matrix: (Units=GPa)
#
#
# Indices 1 2 3 4 5 6 
#
# 1 41.6959 0.4071 6.3674 0.0000 0.0000 0.0000
# 2 0.4071 199.2099 151.0202 0.0000 0.0000 0.0000
# 3 6.3674 151.0202 217.8493 0.0000 0.0000 0.0000
# 4 0.0000 0.0000 0.0000 -34.9312 0.0000 0.0000
# 5 0.0000 0.0000 0.0000 0.0000 11.3551 0.0000
# 6 0.0000 0.0000 0.0000 0.0000 0.0000 17.7866
#
#
#
# Elastic Compliance Matrix: (Units=1/GPa)
#
#
# Indices 1 2 3 4 5 6 
#
# 1 0.024190 0.001026 -0.001418 0.000000 0.000000 0.000000
# 2 0.001026 0.010624 -0.007395 0.000000 0.000000 0.000000
# 3 -0.001418 -0.007395 0.009758 0.000000 0.000000 0.000000
# 4 0.000000 0.000000 0.000000 -0.028628 0.000000 0.000000
# 5 0.000000 0.000000 0.000000 0.000000 0.088066 0.000000
# 6 0.000000 0.000000 0.000000 0.000000 0.000000 0.056222
#
#
# Mechanical properties :
#
#
# Convention : Reuss Voigt Hill
#
# Bulk Modulus (GPa) = 34.48613 86.03829 60.26221
# Shear Modulus (GPa) = 26.95838 18.90613 22.93225
#
# Velocity S-wave (km/s) = 3.59193 3.00803 3.31287
# Velocity P-wave (km/s) = 5.80579 7.29665 6.59350
#
# Compressibility (1/GPa) = 0.02899717
#
# Stress axis : x y z
#
# Youngs Moduli (GPa) = 41.33991 94.13091 102.48103
#
# Poissons Ratio (x) = -0.09653 0.14531
# Poissons Ratio (y) = -0.04239 0.75780
# Poissons Ratio (z) = 0.05862 0.69605
#
# Static dielectric constant tensor:
#      x y z
#    x 1.805870 0.000000 0.000000 
#    y 0.000000 1.698020 0.000000 
#    z 0.000000 0.000000 1.747560 
# 
# From -- ./inp_files/73138.got.cif
#   From: 2010.05.17/outbox.cif.g08.bks.cpg/sg65_37_cif.got.tgz:73138.got - 2010.06.03 17:01:31.
