data_PCOD9488707
_publ_section_title
;
Structure prediction by ZEFSAII (Michael W. Deem and Ramdas Pophale) SiO2 
 PCOD9488707
Probable space group: C M M M
;
_chemical_formula_sum "Si O2"
_cell_formula_units_Z 88
_cell_length_a 7.862795
_cell_length_b 19.526249
_cell_length_c 29.653071
_cell_angle_alpha 90.000000
_cell_angle_beta 90.000000
_cell_angle_gamma 90.000000
_cell_volume 4552.662471
_symmetry_space_group_name_H-M "C M M M"
_symmetry_group_IT_number 65
_symmetry_cell_setting 'orthorhombic'
loop_
_space_group_symop_operation_xyz
x,y,z
-x,-y,z
x,-y,-z
-x,y,-z
-x,-y,-z
x,y,-z
-x,y,z
x,-y,z
1/2+x,1/2+y,z
1/2-x,1/2-y,z
1/2+x,1/2-y,-z
1/2-x,1/2+y,-z
1/2-x,1/2-y,-z
1/2+x,1/2+y,-z
1/2-x,1/2+y,z
1/2+x,1/2-y,z
loop_
_atom_site_type_symbol
_atom_site_label
_atom_site_fract_x
_atom_site_fract_y
_atom_site_fract_z
Si Si1 0.205318 0.330235 0.901447
Si Si2 0.708540 0.079143 0.817017
Si Si3 0.798504 0.328095 0.367015
Si Si4 0.204186 0.077961 0.450462
Si Si5 0.295520 0.830320 0.000000
Si Si6 0.294794 0.171018 0.733696
O O1 0.250000 0.250000 0.895142
O O2 0.265416 0.377650 0.860631
O O3 0.266947 0.354879 0.951033
O O4 0.000000 0.333576 0.901886
O O5 0.500000 0.079477 0.817109
O O6 0.765534 0.119296 0.772166
O O7 0.761848 0.000000 0.817967
O O8 0.750000 0.250000 0.376959
O O9 0.747295 0.376224 0.407902
O O10 0.729279 0.344952 0.316876
O O11 0.000000 0.331843 0.363453
O O12 0.264201 0.102916 0.500000
O O13 0.000000 0.075378 0.452466
O O14 0.266605 0.000000 0.444619
O O15 0.250000 0.750000 0.000000
O O16 0.500000 0.838147 0.000000
O O17 0.500000 0.166694 0.733153
O O18 0.250000 0.250000 0.744021
#
# Coordination Sequence:
#
# PCOD9488707 Si02
#       6
#    16  16  16  16   8  16
#     4   9  16  27  45  66  88 117 151 188 228 270
#     4   9  17  29  45  66  92 121 152 186 228 276
#     4  10  20  33  51  75 100 126 158 198 241 283
#     4   9  19  36  55  74  99 131 163 195 234 280
#     4   8  14  24  39  63  89 111 145 188 226 266
#     4   9  18  32  50  70  92 120 154 192 231 274
#
# _framework density 19.329348
#
# number of rings (size 3 to 8) (size 9 to 14) (size 15 to 20)
#    0.000    2.909    0.000    1.636    0.000    2.545 
#    0.000    3.182    0.000    4.909    0.000    0.000 
#    0.000    7.273    0.000    0.000    0.000    0.000 
#
# Total GULP energy -245213.835395 kJ/mol
# GULP energy per Si atom -5573.041714 kJ/mol
# Density = 1.928535 g / cm^3
# Si number density = 19.329348 Si / 1000 Ang^3
#
#
#
# Elastic Constant Matrix: (Units=GPa)
#
#
# Indices 1 2 3 4 5 6 
#
# 1 20.1552 5.1267 14.3473 0.0000 0.0000 0.0000
# 2 5.1267 121.6765 138.1544 0.0000 0.0000 0.0000
# 3 14.3473 138.1544 227.3206 0.0000 0.0000 0.0000
# 4 0.0000 0.0000 0.0000 -18.4571 0.0000 0.0000
# 5 0.0000 0.0000 0.0000 0.0000 15.5036 0.0000
# 6 0.0000 0.0000 0.0000 0.0000 0.0000 17.0072
#
#
#
# Elastic Compliance Matrix: (Units=1/GPa)
#
#
# Indices 1 2 3 4 5 6 
#
# 1 0.052889 0.005039 -0.006400 0.000000 0.000000 0.000000
# 2 0.005039 0.026996 -0.016725 0.000000 0.000000 0.000000
# 3 -0.006400 -0.016725 0.014968 0.000000 0.000000 0.000000
# 4 0.000000 0.000000 0.000000 -0.054180 0.000000 0.000000
# 5 0.000000 0.000000 0.000000 0.000000 0.064501 0.000000
# 6 0.000000 0.000000 0.000000 0.000000 0.000000 0.058799
#
#
# Mechanical properties :
#
#
# Convention : Reuss Voigt Hill
#
# Bulk Modulus (GPa) = 17.04158 76.04545 46.54352
# Shear Modulus (GPa) = 22.75764 16.91234 19.83499
#
# Velocity S-wave (km/s) = 3.43499 2.96118 3.20685
# Velocity P-wave (km/s) = 4.95659 7.14974 6.15169
#
# Compressibility (1/GPa) = 0.05868000
#
# Stress axis : x y z
#
# Youngs Moduli (GPa) = 18.90737 37.04230 66.81067
#
# Poissons Ratio (x) = -0.18665 0.42762
# Poissons Ratio (y) = -0.09527 1.11741
# Poissons Ratio (z) = 0.12102 0.61953
#
# Static dielectric constant tensor:
#      x y z
#    x 1.703420 0.000000 0.000000 
#    y 0.000000 1.618610 0.000000 
#    z 0.000000 0.000000 1.728040 
# 
# From -- ./inp_files/76491.got.cif
#   From: 2010.05.17/outbox.cif.g08.bks.cpg/sg65_39_cif.got.tgz:76491.got - 2010.06.03 17:01:31.
