data_PCOD9488179
_publ_section_title
;
Structure prediction by ZEFSAII (Michael W. Deem and Ramdas Pophale) SiO2 
 PCOD9488179
Probable space group: C M M M
;
_chemical_formula_sum "Si O2"
_cell_formula_units_Z 88
_cell_length_a 27.249090
_cell_length_b 9.878661
_cell_length_c 17.649969
_cell_angle_alpha 90.000000
_cell_angle_beta 90.000000
_cell_angle_gamma 90.000000
_cell_volume 4751.098480
_symmetry_space_group_name_H-M "C M M M"
_symmetry_group_IT_number 65
_symmetry_cell_setting 'orthorhombic'
loop_
_space_group_symop_operation_xyz
x,y,z
-x,-y,z
x,-y,-z
-x,y,-z
-x,-y,-z
x,y,-z
-x,y,z
x,-y,z
1/2+x,1/2+y,z
1/2-x,1/2-y,z
1/2+x,1/2-y,-z
1/2-x,1/2+y,-z
1/2-x,1/2-y,-z
1/2+x,1/2+y,-z
1/2-x,1/2+y,z
1/2+x,1/2-y,z
loop_
_atom_site_type_symbol
_atom_site_label
_atom_site_fract_x
_atom_site_fract_y
_atom_site_fract_z
Si Si1 0.103455 0.338346 0.160165
Si Si2 0.558821 0.651345 0.286398
Si Si3 0.059132 0.352437 0.411250
Si Si4 0.701458 0.840220 0.247480
Si Si5 0.799028 0.660388 0.582502
Si Si6 0.556893 0.163686 0.000000
O O1 0.094548 0.500000 0.169883
O O2 0.072077 0.250361 0.218259
O O3 0.159714 0.313354 0.184960
O O4 0.086597 0.299367 0.075777
O O5 0.500000 0.641129 0.289920
O O6 0.579126 0.500000 0.277799
O O7 0.575886 0.726017 0.362690
O O8 0.067834 0.338433 0.500000
O O9 0.079418 0.500000 0.386493
O O10 0.000000 0.359168 0.402003
O O11 0.750000 0.750000 0.237815
O O12 0.680233 0.814472 0.332877
O O13 0.713900 0.000000 0.243554
O O14 0.824021 0.687563 0.500000
O O15 0.787828 0.500000 0.581835
O O16 0.750000 0.750000 0.581554
O O17 0.500000 0.212486 0.000000
O O18 0.554312 0.000000 0.000000
#
# Coordination Sequence:
#
# PCOD9488179 Si02
#       6
#    16  16  16  16  16   8
#     4  10  20  35  55  78 102 131 173 219 264 319
#     4  10  20  32  48  73 104 136 169 210 265 322
#     4   8  14  26  45  68  95 132 177 218 255 300
#     4   9  18  32  51  75 103 136 172 213 260 309
#     4   8  13  23  41  65  93 126 164 203 244 290
#     4   9  18  34  58  83 103 129 169 219 270 319
#
# _framework density 18.522031999999999
#
# number of rings (size 3 to 8) (size 9 to 14) (size 15 to 20)
#    0.000    3.000    0.000    1.636    0.000    2.909 
#    0.000    3.636    0.000    4.909    0.000    2.545 
#    0.000    0.000    0.000    0.000    0.000    0.000 
#
# Total GULP energy -245000.776164 kJ/mol
# GULP energy per Si atom -5568.199458 kJ/mol
# Density = 1.847987 g / cm^3
# Si number density = 18.522032 Si / 1000 Ang^3
#
#
#
# Elastic Constant Matrix: (Units=GPa)
#
#
# Indices 1 2 3 4 5 6 
#
# 1 86.0963 42.0967 40.3554 0.0000 0.0000 0.0000
# 2 42.0967 73.1856 51.5895 0.0000 0.0000 0.0000
# 3 40.3554 51.5895 139.6618 0.0000 0.0000 0.0000
# 4 0.0000 0.0000 0.0000 -2.6683 0.0000 0.0000
# 5 0.0000 0.0000 0.0000 0.0000 41.9269 0.0000
# 6 0.0000 0.0000 0.0000 0.0000 0.0000 16.7826
#
#
#
# Elastic Compliance Matrix: (Units=1/GPa)
#
#
# Indices 1 2 3 4 5 6 
#
# 1 0.016453 -0.008265 -0.001701 0.000000 0.000000 0.000000
# 2 -0.008265 0.022626 -0.005970 0.000000 0.000000 0.000000
# 3 -0.001701 -0.005970 0.009857 0.000000 0.000000 0.000000
# 4 0.000000 0.000000 0.000000 -0.374769 0.000000 0.000000
# 5 0.000000 0.000000 0.000000 0.000000 0.023851 0.000000
# 6 0.000000 0.000000 0.000000 0.000000 0.000000 0.059585
#
#
# Mechanical properties :
#
#
# Convention : Reuss Voigt Hill
#
# Bulk Modulus (GPa) = 58.60048 63.00297 60.80172
# Shear Modulus (GPa) = -24.40965 22.20172 -1.10397
#
# Velocity S-wave (km/s) = -3.63419 3.46593 -0.77287
# Velocity P-wave (km/s) = 3.75462 7.07855 5.66582
#
# Compressibility (1/GPa) = 0.01706471
#
# Stress axis : x y z
#
# Youngs Moduli (GPa) = 60.77769 44.19717 101.45215
#
# Poissons Ratio (x) = 0.36528 0.17260
# Poissons Ratio (y) = 0.50231 0.60563
# Poissons Ratio (z) = 0.10340 0.26384
#
# Static dielectric constant tensor:
#      x y z
#    x 1.696560 0.000000 0.000000 
#    y 0.000000 1.632500 0.000000 
#    z 0.000000 0.000000 1.657690 
# 
# From -- ./inp_files/58034.got.cif
#   From: 2010.05.17/outbox.cif.g08.bks.cpg/sg65_30_cif.got.tgz:58034.got - 2010.06.03 17:01:31.
