data_PCOD9488333
_publ_section_title
;
Structure prediction by ZEFSAII (Michael W. Deem and Ramdas Pophale) SiO2 
 PCOD9488333
Probable space group: C M M M
;
_chemical_formula_sum "Si O2"
_cell_formula_units_Z 88
_cell_length_a 9.782572
_cell_length_b 24.170326
_cell_length_c 21.775537
_cell_angle_alpha 90.000000
_cell_angle_beta 90.000000
_cell_angle_gamma 90.000000
_cell_volume 5148.781179
_symmetry_space_group_name_H-M "C M M M"
_symmetry_group_IT_number 65
_symmetry_cell_setting 'orthorhombic'
loop_
_space_group_symop_operation_xyz
x,y,z
-x,-y,z
x,-y,-z
-x,y,-z
-x,-y,-z
x,y,-z
-x,y,z
x,-y,z
1/2+x,1/2+y,z
1/2-x,1/2-y,z
1/2+x,1/2-y,-z
1/2-x,1/2+y,-z
1/2-x,1/2-y,-z
1/2+x,1/2+y,-z
1/2-x,1/2+y,z
1/2+x,1/2-y,z
loop_
_atom_site_type_symbol
_atom_site_label
_atom_site_fract_x
_atom_site_fract_y
_atom_site_fract_z
Si Si1 0.338943 0.396755 0.736023
Si Si2 0.161237 0.805562 0.500000
Si Si3 0.285986 0.620807 0.880310
Si Si4 0.000000 0.208556 0.927120
Si Si5 0.500000 0.837001 0.074549
Si Si6 0.161402 0.194634 0.365619
Si Si7 0.155163 0.000000 0.873184
Si Si8 0.664272 0.000000 0.248352
O O1 0.500000 0.412207 0.729673
O O2 0.314007 0.381027 0.807246
O O3 0.310966 0.346794 0.689842
O O4 0.234536 0.446256 0.722296
O O5 0.250000 0.750000 0.500000
O O6 0.188224 0.832114 0.566718
O O7 0.000000 0.791985 0.500000
O O8 0.372050 0.671929 0.906226
O O9 0.131614 0.632809 0.898295
O O10 0.329120 0.559771 0.905164
O O11 0.000000 0.272176 0.905741
O O12 0.000000 0.211379 0.000000
O O13 0.500000 0.839365 0.000000
O O14 0.250000 0.250000 0.360443
O O15 0.000000 0.208562 0.363124
O O16 0.272495 0.000000 0.820964
O O17 0.000000 0.000000 0.846750
O O18 0.500000 0.000000 0.248732
#
# Coordination Sequence:
#
# PCOD9488333 Si02
#       8
#    16   8  16   8   8  16   8   8
#     4  10  20  36  54  80 108 140 176 218 268 315
#     4   8  14  28  48  71 104 147 185 216 256 310
#     4  11  21  39  60  82 107 139 181 225 277 319
#     4  11  22  41  61  77 105 147 186 213 256 337
#     4  11  26  41  57  81 111 145 178 221 270 327
#     4   9  18  31  50  78 112 146 181 220 264 313
#     4  10  20  38  61  83 108 139 176 223 275 329
#     4  10  20  32  56  80 104 138 176 217 266 325
#
# _framework density 17.091425000000001
#
# number of rings (size 3 to 8) (size 9 to 14) (size 15 to 20)
#    0.000    2.000    1.818    3.000    5.091    3.636 
#    0.000    2.727    0.000    0.545    0.000    3.818 
#    0.000    0.000    0.000    0.000    0.000    0.000 
#
# Total GULP energy -245069.739895 kJ/mol
# GULP energy per Si atom -5569.766816 kJ/mol
# Density = 1.705252 g / cm^3
# Si number density = 17.091425 Si / 1000 Ang^3
#
#
#
# Elastic Constant Matrix: (Units=GPa)
#
#
# Indices 1 2 3 4 5 6 
#
# 1 127.4378 50.9201 28.8458 0.0000 0.0000 0.0000
# 2 50.9201 105.1995 33.2624 0.0000 0.0000 0.0000
# 3 28.8458 33.2624 53.3826 0.0000 0.0000 0.0000
# 4 0.0000 0.0000 0.0000 -24.6028 0.0000 0.0000
# 5 0.0000 0.0000 0.0000 0.0000 36.6735 0.0000
# 6 0.0000 0.0000 0.0000 0.0000 0.0000 35.9622
#
#
#
# Elastic Compliance Matrix: (Units=1/GPa)
#
#
# Indices 1 2 3 4 5 6 
#
# 1 0.010101 -0.003940 -0.003003 0.000000 0.000000 0.000000
# 2 -0.003940 0.013374 -0.006205 0.000000 0.000000 0.000000
# 3 -0.003003 -0.006205 0.024222 0.000000 0.000000 0.000000
# 4 0.000000 0.000000 0.000000 -0.040646 0.000000 0.000000
# 5 0.000000 0.000000 0.000000 0.000000 0.027268 0.000000
# 6 0.000000 0.000000 0.000000 0.000000 0.000000 0.027807
#
#
# Mechanical properties :
#
#
# Convention : Reuss Voigt Hill
#
# Bulk Modulus (GPa) = 46.72530 56.89737 51.81134
# Shear Modulus (GPa) = 52.32563 21.13935 36.73249
#
# Velocity S-wave (km/s) = 5.53910 3.52069 4.64095
# Velocity P-wave (km/s) = 8.26478 7.06323 7.68752
#
# Compressibility (1/GPa) = 0.02140168
#
# Stress axis : x y z
#
# Youngs Moduli (GPa) = 99.00094 74.76928 41.28510
#
# Poissons Ratio (x) = 0.29456 0.12400
# Poissons Ratio (y) = 0.39002 0.25617
# Poissons Ratio (z) = 0.29734 0.46393
#
# Static dielectric constant tensor:
#      x y z
#    x 1.628330 0.000000 0.000000 
#    y 0.000000 1.592060 0.000000 
#    z 0.000000 0.000000 1.594310 
# 
# From -- ./inp_files/59961.got.cif
#   From: 2010.05.17/outbox.cif.g08.bks.cpg/sg65_30_cif.got.tgz:59961.got - 2010.06.03 17:01:31.
