data_PCOD9488482
_publ_section_title
;
Structure prediction by ZEFSAII (Michael W. Deem and Ramdas Pophale) SiO2 
 PCOD9488482
Probable space group: C M M M
;
_chemical_formula_sum "Si O2"
_cell_formula_units_Z 120
_cell_length_a 30.114187
_cell_length_b 8.779372
_cell_length_c 26.374560
_cell_angle_alpha 90.000000
_cell_angle_beta 90.000000
_cell_angle_gamma 90.000000
_cell_volume 6973.002444
_symmetry_space_group_name_H-M "C M M M"
_symmetry_group_IT_number 65
_symmetry_cell_setting 'orthorhombic'
loop_
_space_group_symop_operation_xyz
x,y,z
-x,-y,z
x,-y,-z
-x,y,-z
-x,-y,-z
x,y,-z
-x,y,z
x,-y,z
1/2+x,1/2+y,z
1/2-x,1/2-y,z
1/2+x,1/2-y,-z
1/2-x,1/2+y,-z
1/2-x,1/2-y,-z
1/2+x,1/2+y,-z
1/2-x,1/2+y,z
1/2+x,1/2-y,z
loop_
_atom_site_type_symbol
_atom_site_label
_atom_site_fract_x
_atom_site_fract_y
_atom_site_fract_z
Si Si1 0.799504 0.316706 0.500000
Si Si2 0.050873 0.181798 0.259741
Si Si3 0.202629 0.181438 0.092050
Si Si4 0.552046 0.819278 0.850558
Si Si5 0.200296 0.684096 0.388647
Si Si6 0.638612 0.817532 0.704830
Si Si7 0.297741 0.318183 0.211875
Si Si8 0.887903 0.316230 0.944292
O O1 0.797809 0.500000 0.500000
O O2 0.750000 0.250000 0.500000
O O3 0.817744 0.271336 0.444748
O O4 0.060401 0.232829 0.201870
O O5 0.088636 0.255803 0.294202
O O6 0.000000 0.229495 0.271075
O O7 0.053382 0.000000 0.263044
O O8 0.250000 0.250000 0.076646
O O9 0.196341 0.215924 0.152174
O O10 0.161476 0.253666 0.063077
O O11 0.203251 0.000000 0.085837
O O12 0.500000 0.801847 0.863210
O O13 0.581968 0.764860 0.897211
O O14 0.560293 0.000000 0.842192
O O15 0.203783 0.500000 0.386948
O O16 0.250000 0.750000 0.382093
O O17 0.167381 0.732028 0.343921
O O18 0.664162 0.754417 0.754070
O O19 0.638047 0.000000 0.706627
O O20 0.297305 0.500000 0.218235
O O21 0.250000 0.250000 0.227377
O O22 0.886915 0.500000 0.942535
O O23 0.904983 0.271157 0.000000
#
# Coordination Sequence:
#
# PCOD9488482 Si02
#       8
#     8  16  16  16  16  16  16  16
#     4   8  14  28  46  64  93 132 171 207 240 275
#     4  10  21  36  53  73  97 126 160 198 242 291
#     4  10  21  36  53  70  90 121 160 197 234 279
#     4   9  18  34  56  78  99 125 155 188 230 283
#     4   9  18  30  46  70 100 135 171 205 240 280
#     4  11  21  31  47  73 102 131 163 200 244 290
#     4  10  20  33  49  71  99 130 162 196 237 286
#     4  10  21  35  51  73  99 124 152 189 232 278
#
# _framework density 17.209229000000001
#
# number of rings (size 3 to 8) (size 9 to 14) (size 15 to 20)
#    0.000    2.267    0.000    2.800    0.000    8.000 
#    0.000    1.333    0.000    0.000    0.000    3.267 
#    0.000    3.733    0.000    0.000    0.000    0.000 
#
# Total GULP energy -334799.442789 kJ/mol
# GULP energy per Si atom -5579.990713 kJ/mol
# Density = 1.717006 g / cm^3
# Si number density = 17.209229 Si / 1000 Ang^3
#
#
#
# Elastic Constant Matrix: (Units=GPa)
#
#
# Indices 1 2 3 4 5 6 
#
# 1 88.1158 20.6565 50.5555 0.0000 0.0000 0.0000
# 2 20.6565 19.8187 22.7677 0.0000 0.0000 0.0000
# 3 50.5555 22.7677 64.6465 0.0000 0.0000 0.0000
# 4 0.0000 0.0000 0.0000 14.2345 0.0000 0.0000
# 5 0.0000 0.0000 0.0000 0.0000 14.9843 0.0000
# 6 0.0000 0.0000 0.0000 0.0000 0.0000 26.9224
#
#
#
# Elastic Compliance Matrix: (Units=1/GPa)
#
#
# Indices 1 2 3 4 5 6 
#
# 1 0.020881 -0.005046 -0.014552 0.000000 0.000000 0.000000
# 2 -0.005046 0.085963 -0.026329 0.000000 0.000000 0.000000
# 3 -0.014552 -0.026329 0.036122 0.000000 0.000000 0.000000
# 4 0.000000 0.000000 0.000000 0.070252 0.000000 0.000000
# 5 0.000000 0.000000 0.000000 0.000000 0.066737 0.000000
# 6 0.000000 0.000000 0.000000 0.000000 0.000000 0.037144
#
#
# Mechanical properties :
#
#
# Convention : Reuss Voigt Hill
#
# Bulk Modulus (GPa) = 19.56514 40.06004 29.81259
# Shear Modulus (GPa) = 11.73736 16.46832 14.10284
#
# Velocity S-wave (km/s) = 2.61442 3.09681 2.86578
# Velocity P-wave (km/s) = 4.52849 6.00964 5.32086
#
# Compressibility (1/GPa) = 0.05111132
#
# Stress axis : x y z
#
# Youngs Moduli (GPa) = 47.89079 11.63286 27.68405
#
# Poissons Ratio (x) = 0.05870 0.40287
# Poissons Ratio (y) = 0.24165 0.72890
# Poissons Ratio (z) = 0.69692 0.30628
#
# Static dielectric constant tensor:
#      x y z
#    x 1.569470 0.000000 0.000000 
#    y 0.000000 1.578000 0.000000 
#    z 0.000000 0.000000 1.606100 
# 
# From -- ./inp_files/76188.got.cif
#   From: 2010.05.17/outbox.cif.g08.bks.cpg/sg65_39_cif.got.tgz:76188.got - 2010.06.03 17:01:31.
