data_PCOD9488776
_publ_section_title
;
Structure prediction by ZEFSAII (Michael W. Deem and Ramdas Pophale) SiO2 
 PCOD9488776
Probable space group: C M M M
;
_chemical_formula_sum "Si O2"
_cell_formula_units_Z 104
_cell_length_a 17.833283
_cell_length_b 28.281979
_cell_length_c 11.862309
_cell_angle_alpha 90.000000
_cell_angle_beta 90.000000
_cell_angle_gamma 90.000000
_cell_volume 5982.880517
_symmetry_space_group_name_H-M "C M M M"
_symmetry_group_IT_number 65
_symmetry_cell_setting 'orthorhombic'
loop_
_space_group_symop_operation_xyz
x,y,z
-x,-y,z
x,-y,-z
-x,y,-z
-x,-y,-z
x,y,-z
-x,y,z
x,-y,z
1/2+x,1/2+y,z
1/2-x,1/2-y,z
1/2+x,1/2-y,-z
1/2-x,1/2+y,-z
1/2-x,1/2-y,-z
1/2+x,1/2+y,-z
1/2-x,1/2+y,z
1/2+x,1/2-y,z
loop_
_atom_site_type_symbol
_atom_site_label
_atom_site_fract_x
_atom_site_fract_y
_atom_site_fract_z
Si Si1 0.908787 0.386562 0.000000
Si Si2 0.177672 0.683139 0.630121
Si Si3 0.851615 0.844990 0.628922
Si Si4 0.090327 0.725253 0.000000
Si Si5 0.911794 0.237868 0.756076
Si Si6 0.500000 0.055581 0.623787
Si Si7 0.287871 0.553726 0.367644
Si Si8 0.856640 0.589056 0.757380
O O1 0.873764 0.409903 0.110880
O O2 0.889919 0.330349 0.000000
O O3 0.000000 0.390697 0.000000
O O4 0.156467 0.674382 0.500000
O O5 0.267749 0.677694 0.634469
O O6 0.139762 0.730968 0.673025
O O7 0.149206 0.642650 0.713339
O O8 0.878791 0.838641 0.500000
O O9 0.900364 0.816106 0.717857
O O10 0.842175 0.901233 0.650202
O O11 0.113736 0.750570 0.883862
O O12 0.000000 0.727081 0.000000
O O13 0.000000 0.250837 0.745529
O O14 0.500000 0.078477 0.500000
O O15 0.427066 0.068465 0.692669
O O16 0.500000 0.000000 0.610608
O O17 0.263143 0.558045 0.500000
O O18 0.316779 0.500000 0.353488
O O19 0.217483 0.562460 0.285825
#
# Coordination Sequence:
#
# PCOD9488776 Si02
#       8
#     8  16  16   8  16   8  16  16
#     4  11  20  36  49  66 103 150 182 218 263 311
#     4  10  20  33  51  76 107 139 171 213 266 319
#     4   9  19  35  53  78 111 138 166 214 269 318
#     4   9  20  36  50  69 103 146 185 214 250 301
#     4  11  21  34  53  77 105 141 180 216 259 312
#     4  11  22  33  47  71 101 128 167 229 276 303
#     4   9  18  36  60  79  99 133 174 215 266 323
#     4  11  20  33  51  72  98 136 181 219 258 308
#
# _framework density 17.382930000000002
#
# number of rings (size 3 to 8) (size 9 to 14) (size 15 to 20)
#    0.000    1.923    2.308    3.692    1.077    3.692 
#    0.000    6.538    0.000    0.462    0.000    2.154 
#    0.000    1.846    0.000    0.000    0.000    0.000 
#
# Total GULP energy -289915.003739 kJ/mol
# GULP energy per Si atom -5575.288533 kJ/mol
# Density = 1.734337 g / cm^3
# Si number density = 17.382930 Si / 1000 Ang^3
#
#
#
# Elastic Constant Matrix: (Units=GPa)
#
#
# Indices 1 2 3 4 5 6 
#
# 1 6.6340 10.9863 9.0086 0.0000 0.0000 0.0000
# 2 10.9863 79.9161 15.8734 0.0000 0.0000 0.0000
# 3 9.0086 15.8734 104.6939 0.0000 0.0000 0.0000
# 4 0.0000 0.0000 0.0000 28.8532 0.0000 0.0000
# 5 0.0000 0.0000 0.0000 0.0000 27.5299 0.0000
# 6 0.0000 0.0000 0.0000 0.0000 0.0000 -59.3272
#
#
#
# Elastic Compliance Matrix: (Units=1/GPa)
#
#
# Indices 1 2 3 4 5 6 
#
# 1 0.214376 -0.026608 -0.014412 0.000000 0.000000 0.000000
# 2 -0.026608 0.016204 -0.000167 0.000000 0.000000 0.000000
# 3 -0.014412 -0.000167 0.010817 0.000000 0.000000 0.000000
# 4 0.000000 0.000000 0.000000 0.034658 0.000000 0.000000
# 5 0.000000 0.000000 0.000000 0.000000 0.036324 0.000000
# 6 0.000000 0.000000 0.000000 0.000000 0.000000 -0.016856
#
#
# Mechanical properties :
#
#
# Convention : Reuss Voigt Hill
#
# Bulk Modulus (GPa) = 6.28844 29.22007 17.75425
# Shear Modulus (GPa) = 11.60343 9.76955 10.68649
#
# Velocity S-wave (km/s) = 2.58644 2.37327 2.48214
# Velocity P-wave (km/s) = 3.54190 4.93518 4.29541
#
# Compressibility (1/GPa) = 0.15902197
#
# Stress axis : x y z
#
# Youngs Moduli (GPa) = 4.66470 61.71214 92.44583
#
# Poissons Ratio (x) = 1.64205 1.33235
# Poissons Ratio (y) = 0.12412 0.01546
# Poissons Ratio (z) = 0.06723 0.01032
#
# Static dielectric constant tensor:
#      x y z
#    x 1.584690 0.000000 0.000000 
#    y 0.000000 1.626510 0.000000 
#    z 0.000000 0.000000 1.596030 
# 
# From -- ./inp_files/27564.got.cif
#   From: 2010.05.17/outbox.cif.g08.bks.cpg/sg65_14_cif.got.tgz:27564.got - 2010.06.03 17:01:31.
