data_PCOD9488909
_publ_section_title
;
Structure prediction by ZEFSAII (Michael W. Deem and Ramdas Pophale) SiO2 
 PCOD9488909
Probable space group: C M M M
;
_chemical_formula_sum "Si O2"
_cell_formula_units_Z 64
_cell_length_a 26.262010
_cell_length_b 18.088813
_cell_length_c 7.830888
_cell_angle_alpha 90.000000
_cell_angle_beta 90.000000
_cell_angle_gamma 90.000000
_cell_volume 3720.052286
_symmetry_space_group_name_H-M "C M M M"
_symmetry_group_IT_number 65
_symmetry_cell_setting 'orthorhombic'
loop_
_space_group_symop_operation_xyz
x,y,z
-x,-y,z
x,-y,-z
-x,y,-z
-x,-y,-z
x,y,-z
-x,y,z
x,-y,z
1/2+x,1/2+y,z
1/2-x,1/2-y,z
1/2+x,1/2-y,-z
1/2-x,1/2+y,-z
1/2-x,1/2-y,-z
1/2+x,1/2+y,-z
1/2-x,1/2+y,z
1/2+x,1/2-y,z
loop_
_atom_site_type_symbol
_atom_site_label
_atom_site_fract_x
_atom_site_fract_y
_atom_site_fract_z
Si Si1 0.940223 0.760509 0.000000
Si Si2 0.391168 0.581051 0.000000
Si Si3 0.205333 0.414797 0.794361
Si Si4 0.180623 0.872114 0.305562
Si Si5 0.368861 0.214727 0.306155
O O1 0.912311 0.726759 0.165776
O O2 0.928299 0.848571 0.000000
O O3 0.000000 0.746993 0.000000
O O4 0.354728 0.589184 0.165211
O O5 0.415401 0.500000 0.000000
O O6 0.196106 0.500000 0.746582
O O7 0.260814 0.390833 0.728364
O O8 0.162791 0.359462 0.725260
O O9 0.205953 0.409588 0.000000
O O10 0.167420 0.892997 0.500000
O O11 0.169509 0.784570 0.286333
O O12 0.388521 0.216777 0.500000
#
# Coordination Sequence:
#
# PCOD9488909 Si02
#       5
#     8   8  16  16  16
#     4  10  22  40  60  79 101 132 175 231 279 313
#     4  10  20  34  53  80 112 143 176 213 257 311
#     4  11  21  32  51  81 115 147 177 212 256 309
#     4  10  20  33  52  79 112 150 184 209 243 302
#     4  10  21  37  57  79 105 141 181 219 262 314
#
# _framework density 17.204059000000001
#
# number of rings (size 3 to 8) (size 9 to 14) (size 15 to 20)
#    0.000    1.750    2.500    2.250    0.000    7.250 
#    0.000    0.000    0.000    1.500    0.000    8.750 
#    0.000    0.000    0.000    0.000    0.000    0.000 
#
# Total GULP energy -178703.498449 kJ/mol
# GULP energy per Si atom -5584.484327 kJ/mol
# Density = 1.716490 g / cm^3
# Si number density = 17.204059 Si / 1000 Ang^3
#
#
#
# Elastic Constant Matrix: (Units=GPa)
#
#
# Indices 1 2 3 4 5 6 
#
# 1 59.1698 42.2836 33.2505 0.0000 0.0000 0.0000
# 2 42.2836 99.2869 51.4004 0.0000 0.0000 0.0000
# 3 33.2505 51.4004 121.6956 0.0000 0.0000 0.0000
# 4 0.0000 0.0000 0.0000 6.2375 0.0000 0.0000
# 5 0.0000 0.0000 0.0000 0.0000 5.8310 0.0000
# 6 0.0000 0.0000 0.0000 0.0000 0.0000 2.1669
#
#
#
# Elastic Compliance Matrix: (Units=1/GPa)
#
#
# Indices 1 2 3 4 5 6 
#
# 1 0.025122 -0.009145 -0.003002 0.000000 0.000000 0.000000
# 2 -0.009145 0.016219 -0.004352 0.000000 0.000000 0.000000
# 3 -0.003002 -0.004352 0.010875 0.000000 0.000000 0.000000
# 4 0.000000 0.000000 0.000000 0.160320 0.000000 0.000000
# 5 0.000000 0.000000 0.000000 0.000000 0.171498 0.000000
# 6 0.000000 0.000000 0.000000 0.000000 0.000000 0.461482
#
#
# Mechanical properties :
#
#
# Convention : Reuss Voigt Hill
#
# Bulk Modulus (GPa) = 52.02839 59.33569 55.68204
# Shear Modulus (GPa) = 5.65022 13.06160 9.35591
#
# Velocity S-wave (km/s) = 1.81421 2.75838 2.33452
# Velocity P-wave (km/s) = 5.89034 6.68649 6.30100
#
# Compressibility (1/GPa) = 0.01922027
#
# Stress axis : x y z
#
# Youngs Moduli (GPa) = 39.80506 61.65446 91.95042
#
# Poissons Ratio (x) = 0.56384 0.27599
# Poissons Ratio (y) = 0.36402 0.40016
# Poissons Ratio (z) = 0.11948 0.26831
#
# Static dielectric constant tensor:
#      x y z
#    x 1.517560 0.000000 0.000000 
#    y 0.000000 1.596880 0.000000 
#    z 0.000000 0.000000 1.604070 
# 
# From -- ./inp_files/13355.got.cif
#   From: 2010.05.17/outbox.cif.g08.bks.cpg/sg65_7_cif.got.tgz:13355.got - 2010.06.03 17:01:31.
