data_PCOD9488748
_publ_section_title
;
Structure prediction by ZEFSAII (Michael W. Deem and Ramdas Pophale) SiO2 
 PCOD9488748
Probable space group: C M M M
;
_chemical_formula_sum "Si O2"
_cell_formula_units_Z 80
_cell_length_a 18.751097
_cell_length_b 8.508406
_cell_length_c 26.973316
_cell_angle_alpha 90.000000
_cell_angle_beta 90.000000
_cell_angle_gamma 90.000000
_cell_volume 4303.375331
_symmetry_space_group_name_H-M "C M M M"
_symmetry_group_IT_number 65
_symmetry_cell_setting 'orthorhombic'
loop_
_space_group_symop_operation_xyz
x,y,z
-x,-y,z
x,-y,-z
-x,y,-z
-x,-y,-z
x,y,-z
-x,y,z
x,-y,z
1/2+x,1/2+y,z
1/2-x,1/2-y,z
1/2+x,1/2-y,-z
1/2-x,1/2+y,-z
1/2-x,1/2-y,-z
1/2+x,1/2+y,-z
1/2-x,1/2+y,z
1/2+x,1/2-y,z
loop_
_atom_site_type_symbol
_atom_site_label
_atom_site_fract_x
_atom_site_fract_y
_atom_site_fract_z
Si Si1 0.669832 0.690231 0.848978
Si Si2 0.582567 0.691494 0.055566
Si Si3 0.831540 0.188462 0.553903
Si Si4 0.668865 0.813288 0.657775
Si Si5 0.082347 0.190151 0.248317
O O1 0.670320 0.500000 0.849499
O O2 0.750000 0.750000 0.844991
O O3 0.632634 0.745267 0.899895
O O4 0.623668 0.740297 0.801398
O O5 0.500000 0.737042 0.063871
O O6 0.583692 0.500000 0.055776
O O7 0.603754 0.742142 0.000000
O O8 0.863313 0.232634 0.500000
O O9 0.750000 0.250000 0.553106
O O10 0.862147 0.256036 0.604819
O O11 0.830649 0.000000 0.557118
O O12 0.750000 0.750000 0.662424
O O13 0.622574 0.752564 0.703427
O O14 0.671991 0.000000 0.657829
O O15 0.000000 0.240418 0.247106
O O16 0.083689 0.000000 0.249650
#
# Coordination Sequence:
#
# PCOD9488748 Si02
#       5
#    16  16  16  16  16
#     4  10  20  33  51  76 103 132 167 208 256 306
#     4   8  14  27  49  75 101 131 170 212 249 292
#     4   9  16  27  46  73 104 136 170 208 251 299
#     4  11  21  33  52  77 106 137 171 212 256 304
#     4  10  21  37  55  73  97 131 171 215 262 313
#
# _framework density 18.590059
#
# number of rings (size 3 to 8) (size 9 to 14) (size 15 to 20)
#    0.000    2.400    0.000    5.400    0.000    6.800 
#    0.000    0.000    0.000    2.400    0.000    5.600 
#    0.000    0.000    0.000    0.000    0.000    0.000 
#
# Total GULP energy -223111.748550 kJ/mol
# GULP energy per Si atom -5577.793714 kJ/mol
# Density = 1.854775 g / cm^3
# Si number density = 18.590059 Si / 1000 Ang^3
#
#
#
# Elastic Constant Matrix: (Units=GPa)
#
#
# Indices 1 2 3 4 5 6 
#
# 1 111.6451 26.4300 108.2038 0.0000 0.0000 0.0000
# 2 26.4300 31.0316 38.7603 0.0000 0.0000 0.0000
# 3 108.2038 38.7603 223.5439 0.0000 0.0000 0.0000
# 4 0.0000 0.0000 0.0000 -19.8391 0.0000 0.0000
# 5 0.0000 0.0000 0.0000 0.0000 -24.8367 0.0000
# 6 0.0000 0.0000 0.0000 0.0000 0.0000 21.4340
#
#
#
# Elastic Compliance Matrix: (Units=1/GPa)
#
#
# Indices 1 2 3 4 5 6 
#
# 1 0.017590 -0.005548 -0.007552 0.000000 0.000000 0.000000
# 2 -0.005548 0.042884 -0.004750 0.000000 0.000000 0.000000
# 3 -0.007552 -0.004750 0.008952 0.000000 0.000000 0.000000
# 4 0.000000 0.000000 0.000000 -0.050405 0.000000 0.000000
# 5 0.000000 0.000000 0.000000 0.000000 -0.040263 0.000000
# 6 0.000000 0.000000 0.000000 0.000000 0.000000 0.046655
#
#
# Mechanical properties :
#
#
# Convention : Reuss Voigt Hill
#
# Bulk Modulus (GPa) = 29.65142 79.22322 54.43732
# Shear Modulus (GPa) = 69.10328 8.20672 38.65500
#
# Velocity S-wave (km/s) = 6.10351 2.10337 4.56492
# Velocity P-wave (km/s) = 8.10279 6.97189 7.55852
#
# Compressibility (1/GPa) = 0.03372520
#
# Stress axis : x y z
#
# Youngs Moduli (GPa) = 56.85140 23.31872 111.70093
#
# Poissons Ratio (x) = 0.12938 0.84357
# Poissons Ratio (y) = 0.31544 0.53058
# Poissons Ratio (z) = 0.42934 0.11076
#
# Static dielectric constant tensor:
#      x y z
#    x 1.617940 0.000000 0.000000 
#    y 0.000000 1.633980 0.000000 
#    z 0.000000 0.000000 1.670830 
# 
# From -- ./inp_files/72853.got.cif
#   From: 2010.05.17/outbox.cif.g08.bks.cpg/sg65_37_cif.got.tgz:72853.got - 2010.06.03 17:01:31.
