data_PCOD9488670
_publ_section_title
;
Structure prediction by ZEFSAII (Michael W. Deem and Ramdas Pophale) SiO2 
 PCOD9488670
Probable space group: C M M M
;
_chemical_formula_sum "Si O2"
_cell_formula_units_Z 104
_cell_length_a 8.751578
_cell_length_b 29.522471
_cell_length_c 23.882242
_cell_angle_alpha 90.000000
_cell_angle_beta 90.000000
_cell_angle_gamma 90.000000
_cell_volume 6170.412062
_symmetry_space_group_name_H-M "C M M M"
_symmetry_group_IT_number 65
_symmetry_cell_setting 'orthorhombic'
loop_
_space_group_symop_operation_xyz
x,y,z
-x,-y,z
x,-y,-z
-x,y,-z
-x,-y,-z
x,y,-z
-x,y,z
x,-y,z
1/2+x,1/2+y,z
1/2-x,1/2-y,z
1/2+x,1/2-y,-z
1/2-x,1/2+y,-z
1/2-x,1/2-y,-z
1/2+x,1/2+y,-z
1/2-x,1/2+y,z
1/2+x,1/2-y,z
loop_
_atom_site_type_symbol
_atom_site_label
_atom_site_fract_x
_atom_site_fract_y
_atom_site_fract_z
Si Si1 0.824302 0.554910 0.500000
Si Si2 0.315527 0.109401 0.062233
Si Si3 0.683537 0.891023 0.278487
Si Si4 0.317350 0.701508 0.238175
Si Si5 0.682416 0.298303 0.105920
Si Si6 0.813774 0.448096 0.169148
Si Si7 0.182854 0.946823 0.381444
O O1 0.823284 0.500000 0.500000
O O2 0.741205 0.568161 0.557354
O O3 0.000000 0.570027 0.500000
O O4 0.500000 0.111430 0.064713
O O5 0.251474 0.159395 0.073306
O O6 0.263301 0.076712 0.112340
O O7 0.271970 0.093710 0.000000
O O8 0.500000 0.889723 0.279494
O O9 0.748007 0.840579 0.271434
O O10 0.732967 0.919511 0.223477
O O11 0.744543 0.916655 0.332962
O O12 0.500000 0.701952 0.243050
O O13 0.250000 0.750000 0.255634
O O14 0.278415 0.695675 0.172010
O O15 0.500000 0.297571 0.100566
O O16 0.750000 0.250000 0.087894
O O17 0.761985 0.500000 0.172244
O O18 0.000000 0.448555 0.168748
O O19 0.000000 0.944092 0.379436
O O20 0.226182 0.000000 0.373574
#
# Coordination Sequence:
#
# PCOD9488670 Si02
#       7
#     8  16  16  16  16  16  16
#     4   9  17  31  51  75 106 145 188 227 263 307
#     4  10  20  34  52  73  98 129 168 212 259 313
#     4  11  20  32  53  78 107 139 174 217 262 311
#     4  10  20  34  53  77 103 132 167 208 261 318
#     4  10  20  34  54  75  99 127 160 203 256 316
#     4   9  18  32  50  73 100 130 167 213 260 304
#     4  10  20  33  50  76 112 150 185 222 264 309
#
# _framework density 16.854628999999999
#
# number of rings (size 3 to 8) (size 9 to 14) (size 15 to 20)
#    0.000    2.077    1.538    2.538    0.000    4.615 
#    0.000    1.538    0.000    1.385    0.000    1.615 
#    0.000    0.000    0.000    0.000    0.000    0.000 
#
# Total GULP energy -290267.512061 kJ/mol
# GULP energy per Si atom -5582.067540 kJ/mol
# Density = 1.681627 g / cm^3
# Si number density = 16.854629 Si / 1000 Ang^3
#
#
#
# Elastic Constant Matrix: (Units=GPa)
#
#
# Indices 1 2 3 4 5 6 
#
# 1 37.9283 31.0183 39.4306 0.0000 0.0000 0.0000
# 2 31.0183 120.2184 74.1083 0.0000 0.0000 0.0000
# 3 39.4306 74.1083 136.3744 0.0000 0.0000 0.0000
# 4 0.0000 0.0000 0.0000 21.8542 0.0000 0.0000
# 5 0.0000 0.0000 0.0000 0.0000 19.6489 0.0000
# 6 0.0000 0.0000 0.0000 0.0000 0.0000 22.8913
#
#
#
# Elastic Compliance Matrix: (Units=1/GPa)
#
#
# Indices 1 2 3 4 5 6 
#
# 1 0.039406 -0.004727 -0.008825 0.000000 0.000000 0.000000
# 2 -0.004727 0.013075 -0.005739 0.000000 0.000000 0.000000
# 3 -0.008825 -0.005739 0.013003 0.000000 0.000000 0.000000
# 4 0.000000 0.000000 0.000000 0.045758 0.000000 0.000000
# 5 0.000000 0.000000 0.000000 0.000000 0.050893 0.000000
# 6 0.000000 0.000000 0.000000 0.000000 0.000000 0.043685
#
#
# Mechanical properties :
#
#
# Convention : Reuss Voigt Hill
#
# Bulk Modulus (GPa) = 37.17091 64.84840 51.00965
# Shear Modulus (GPa) = 19.73407 22.87648 21.30528
#
# Velocity S-wave (km/s) = 3.42547 3.68813 3.55922
# Velocity P-wave (km/s) = 6.14384 7.52961 6.87175
#
# Compressibility (1/GPa) = 0.02690276
#
# Stress axis : x y z
#
# Youngs Moduli (GPa) = 25.37691 76.47900 76.90701
#
# Poissons Ratio (x) = 0.36155 0.67868
# Poissons Ratio (y) = 0.11997 0.44134
# Poissons Ratio (z) = 0.22394 0.43888
#
# Static dielectric constant tensor:
#      x y z
#    x 1.560420 0.000000 0.000000 
#    y 0.000000 1.544400 0.000000 
#    z 0.000000 0.000000 1.563380 
# 
# From -- ./inp_files/60430.got.cif
#   From: 2010.05.17/outbox.cif.g08.bks.cpg/sg65_31_cif.got.tgz:60430.got - 2010.06.03 17:01:31.
