data_PCOD9488848
_publ_section_title
;
Structure prediction by ZEFSAII (Michael W. Deem and Ramdas Pophale) SiO2 
 PCOD9488848
Probable space group: C M M M
;
_chemical_formula_sum "Si O2"
_cell_formula_units_Z 72
_cell_length_a 14.694322
_cell_length_b 8.666921
_cell_length_c 31.777651
_cell_angle_alpha 90.000000
_cell_angle_beta 90.000000
_cell_angle_gamma 90.000000
_cell_volume 4047.027742
_symmetry_space_group_name_H-M "C M M M"
_symmetry_group_IT_number 65
_symmetry_cell_setting 'orthorhombic'
loop_
_space_group_symop_operation_xyz
x,y,z
-x,-y,z
x,-y,-z
-x,y,-z
-x,-y,-z
x,y,-z
-x,y,z
x,-y,z
1/2+x,1/2+y,z
1/2-x,1/2-y,z
1/2+x,1/2-y,-z
1/2-x,1/2+y,-z
1/2-x,1/2-y,-z
1/2+x,1/2+y,-z
1/2-x,1/2+y,z
1/2+x,1/2-y,z
loop_
_atom_site_type_symbol
_atom_site_label
_atom_site_fract_x
_atom_site_fract_y
_atom_site_fract_z
Si Si1 0.500000 0.313249 0.931544
Si Si2 0.351373 0.685585 0.000000
Si Si3 0.500000 0.186542 0.387095
Si Si4 0.000000 0.814685 0.293565
Si Si5 0.648006 0.685661 0.775074
Si Si6 0.000000 0.315927 0.162027
Si Si7 0.149026 0.686099 0.546855
O O1 0.500000 0.500000 0.927421
O O2 0.411596 0.269371 0.959316
O O3 0.500000 0.237418 0.886117
O O4 0.250000 0.750000 0.000000
O O5 0.347090 0.500000 0.000000
O O6 0.500000 0.246928 0.339963
O O7 0.413903 0.238012 0.414922
O O8 0.500000 0.000000 0.385870
O O9 0.088866 0.769517 0.266236
O O10 0.000000 0.000000 0.296212
O O11 0.650171 0.500000 0.777330
O O12 0.750000 0.750000 0.774287
O O13 0.588460 0.749151 0.813917
O O14 0.000000 0.500000 0.165225
O O15 0.115123 0.730975 0.500000
O O16 0.150959 0.500000 0.547615
O O17 0.250000 0.750000 0.551300
#
# Coordination Sequence:
#
# PCOD9488848 Si02
#       7
#     8   8   8   8  16   8  16
#     4   9  19  37  55  76 111 150 183 224 274 321
#     4   9  19  35  56  78 106 147 189 227 271 318
#     4  10  20  33  52  75 100 134 171 207 252 307
#     4   9  21  38  54  76 107 137 169 213 262 313
#     4  10  21  39  60  81 107 141 178 221 271 322
#     4  11  22  36  57  86 114 144 182 225 273 325
#     4   9  18  33  51  72  99 131 168 209 252 300
#
# _framework density 17.790835999999999
#
# number of rings (size 3 to 8) (size 9 to 14) (size 15 to 20)
#    0.000    2.444    0.000    3.333    0.000    7.556 
#    0.000    7.778    0.000    3.333    0.000    0.000 
#    0.000    0.000    0.000    0.000    0.000    0.000 
#
# Total GULP energy -200842.555206 kJ/mol
# GULP energy per Si atom -5578.959867 kJ/mol
# Density = 1.775034 g / cm^3
# Si number density = 17.790836 Si / 1000 Ang^3
#
#
#
# Elastic Constant Matrix: (Units=GPa)
#
#
# Indices 1 2 3 4 5 6 
#
# 1 178.2014 47.6957 108.3450 0.0000 0.0000 0.0000
# 2 47.6957 43.9630 51.2204 0.0000 0.0000 0.0000
# 3 108.3450 51.2204 197.5611 0.0000 0.0000 0.0000
# 4 0.0000 0.0000 0.0000 32.5476 0.0000 0.0000
# 5 0.0000 0.0000 0.0000 0.0000 11.3918 0.0000
# 6 0.0000 0.0000 0.0000 0.0000 0.0000 30.2547
#
#
#
# Elastic Compliance Matrix: (Units=1/GPa)
#
#
# Indices 1 2 3 4 5 6 
#
# 1 0.009411 -0.006013 -0.003602 0.000000 0.000000 0.000000
# 2 -0.006013 0.036433 -0.006148 0.000000 0.000000 0.000000
# 3 -0.003602 -0.006148 0.008631 0.000000 0.000000 0.000000
# 4 0.000000 0.000000 0.000000 0.030724 0.000000 0.000000
# 5 0.000000 0.000000 0.000000 0.000000 0.087782 0.000000
# 6 0.000000 0.000000 0.000000 0.000000 0.000000 0.033053
#
#
# Mechanical properties :
#
#
# Convention : Reuss Voigt Hill
#
# Bulk Modulus (GPa) = 43.57587 92.69420 68.13504
# Shear Modulus (GPa) = 20.39054 29.00310 24.69682
#
# Velocity S-wave (km/s) = 3.38912 4.04199 3.72987
# Velocity P-wave (km/s) = 6.31359 8.60226 7.54521
#
# Compressibility (1/GPa) = 0.02294848
#
# Stress axis : x y z
#
# Youngs Moduli (GPa) = 106.25607 27.44737 115.85950
#
# Poissons Ratio (x) = 0.16505 0.41734
# Poissons Ratio (y) = 0.63897 0.71230
# Poissons Ratio (z) = 0.38275 0.16875
#
# Static dielectric constant tensor:
#      x y z
#    x 1.591110 0.000000 0.000000 
#    y 0.000000 1.604030 0.000000 
#    z 0.000000 0.000000 1.592350 
# 
# From -- ./inp_files/77581.got.cif
#   From: 2010.05.17/outbox.cif.g08.bks.cpg/sg65_39_cif.got.tgz:77581.got - 2010.06.03 17:01:31.
