data_PCOD9488615
_publ_section_title
;
Structure prediction by ZEFSAII (Michael W. Deem and Ramdas Pophale) SiO2 
 PCOD9488615
Probable space group: C M M M
;
_chemical_formula_sum "Si O2"
_cell_formula_units_Z 88
_cell_length_a 7.834808
_cell_length_b 20.266077
_cell_length_c 28.844586
_cell_angle_alpha 90.000000
_cell_angle_beta 90.000000
_cell_angle_gamma 90.000000
_cell_volume 4579.967081
_symmetry_space_group_name_H-M "C M M M"
_symmetry_group_IT_number 65
_symmetry_cell_setting 'orthorhombic'
loop_
_space_group_symop_operation_xyz
x,y,z
-x,-y,z
x,-y,-z
-x,y,-z
-x,-y,-z
x,y,-z
-x,y,z
x,-y,z
1/2+x,1/2+y,z
1/2-x,1/2-y,z
1/2+x,1/2-y,-z
1/2-x,1/2+y,-z
1/2-x,1/2-y,-z
1/2+x,1/2+y,-z
1/2-x,1/2+y,z
1/2+x,1/2-y,z
loop_
_atom_site_type_symbol
_atom_site_label
_atom_site_fract_x
_atom_site_fract_y
_atom_site_fract_z
Si Si1 0.202204 0.824019 0.315067
Si Si2 0.795331 0.574432 0.235503
Si Si3 0.705781 0.325004 0.419790
Si Si4 0.294263 0.174273 0.947705
Si Si5 0.209165 0.076401 0.500000
Si Si6 0.791505 0.423685 0.868115
O O1 0.250000 0.750000 0.300684
O O2 0.254343 0.876416 0.276745
O O3 0.272352 0.834912 0.367235
O O4 0.000000 0.827175 0.319057
O O5 0.731411 0.500000 0.244469
O O6 0.735496 0.595234 0.184020
O O7 0.000000 0.570941 0.232611
O O8 0.500000 0.328696 0.419051
O O9 0.750000 0.250000 0.434225
O O10 0.765069 0.381034 0.455330
O O11 0.500000 0.169011 0.948654
O O12 0.250000 0.250000 0.937076
O O13 0.229896 0.124729 0.908337
O O14 0.231743 0.159609 0.000000
O O15 0.000000 0.075634 0.500000
O O16 0.264338 0.000000 0.500000
O O17 0.743153 0.500000 0.875963
O O18 0.000000 0.421722 0.868682
#
# Coordination Sequence:
#
# PCOD9488615 Si02
#       6
#    16  16  16  16   8  16
#     4  10  20  33  50  73  99 126 161 202 239 280
#     4   9  18  33  51  70  96 129 160 194 240 288
#     4   9  18  32  51  72  94 124 157 192 233 276
#     4   9  17  29  46  68  93 120 150 187 231 276
#     4   9  17  30  49  73  98 123 154 190 230 277
#     4   8  15  29  48  69  92 119 154 193 230 272
#
# _framework density 19.214112
#
# number of rings (size 3 to 8) (size 9 to 14) (size 15 to 20)
#    0.000    3.000    0.000    1.909    0.000    2.909 
#    0.000    6.364    0.000    2.727    0.000    2.545 
#    0.000    0.000    0.000    0.000    0.000    0.000 
#
# Total GULP energy -245306.622981 kJ/mol
# GULP energy per Si atom -5575.150522 kJ/mol
# Density = 1.917038 g / cm^3
# Si number density = 19.214112 Si / 1000 Ang^3
#
#
#
# Elastic Constant Matrix: (Units=GPa)
#
#
# Indices 1 2 3 4 5 6 
#
# 1 20.4172 4.6736 9.7810 0.0000 0.0000 0.0000
# 2 4.6736 161.8144 142.9244 0.0000 0.0000 0.0000
# 3 9.7810 142.9244 167.5302 0.0000 0.0000 0.0000
# 4 0.0000 0.0000 0.0000 63.6481 0.0000 0.0000
# 5 0.0000 0.0000 0.0000 0.0000 1.6884 0.0000
# 6 0.0000 0.0000 0.0000 0.0000 0.0000 22.3235
#
#
#
# Elastic Compliance Matrix: (Units=1/GPa)
#
#
# Indices 1 2 3 4 5 6 
#
# 1 0.051260 0.004718 -0.007018 0.000000 0.000000 0.000000
# 2 0.004718 0.025508 -0.022037 0.000000 0.000000 0.000000
# 3 -0.007018 -0.022037 0.025179 0.000000 0.000000 0.000000
# 4 0.000000 0.000000 0.000000 0.015711 0.000000 0.000000
# 5 0.000000 0.000000 0.000000 0.000000 0.592289 0.000000
# 6 0.000000 0.000000 0.000000 0.000000 0.000000 0.044796
#
#
# Mechanical properties :
#
#
# Convention : Reuss Voigt Hill
#
# Bulk Modulus (GPa) = 18.77094 73.83553 46.30324
# Shear Modulus (GPa) = 6.08882 30.35752 18.22317
#
# Velocity S-wave (km/s) = 1.78208 3.97918 3.08299
# Velocity P-wave (km/s) = 3.74499 7.72160 6.06828
#
# Compressibility (1/GPa) = 0.05327383
#
# Stress axis : x y z
#
# Youngs Moduli (GPa) = 19.50830 39.20296 39.71511
#
# Poissons Ratio (x) = -0.18496 0.27871
# Poissons Ratio (y) = -0.09204 0.87521
# Poissons Ratio (z) = 0.13691 0.86392
#
# Static dielectric constant tensor:
#      x y z
#    x 1.706680 0.000000 0.000000 
#    y 0.000000 1.622680 0.000000 
#    z 0.000000 0.000000 1.693910 
# 
# From -- ./inp_files/75317.got.cif
#   From: 2010.05.17/outbox.cif.g08.bks.cpg/sg65_38_cif.got.tgz:75317.got - 2010.06.03 17:01:31.
