data_PCOD9488562
_publ_section_title
;
Structure prediction by ZEFSAII (Michael W. Deem and Ramdas Pophale) SiO2 
 PCOD9488562
Probable space group: C M M M
;
_chemical_formula_sum "Si O2"
_cell_formula_units_Z 96
_cell_length_a 20.938529
_cell_length_b 7.777236
_cell_length_c 30.920249
_cell_angle_alpha 90.000000
_cell_angle_beta 90.000000
_cell_angle_gamma 90.000000
_cell_volume 5035.173365
_symmetry_space_group_name_H-M "C M M M"
_symmetry_group_IT_number 65
_symmetry_cell_setting 'orthorhombic'
loop_
_space_group_symop_operation_xyz
x,y,z
-x,-y,z
x,-y,-z
-x,y,-z
-x,-y,-z
x,y,-z
-x,y,z
x,-y,z
1/2+x,1/2+y,z
1/2-x,1/2-y,z
1/2+x,1/2-y,-z
1/2-x,1/2+y,-z
1/2-x,1/2-y,-z
1/2+x,1/2+y,-z
1/2-x,1/2+y,z
1/2+x,1/2-y,z
loop_
_atom_site_type_symbol
_atom_site_label
_atom_site_fract_x
_atom_site_fract_y
_atom_site_fract_z
Si Si1 0.571765 0.293638 0.548702
Si Si2 0.677599 0.207028 0.049220
Si Si3 0.427228 0.789986 0.216097
Si Si4 0.927205 0.289957 0.117298
Si Si5 0.322418 0.792686 0.715817
Si Si6 0.321627 0.203349 0.381888
O O1 0.587465 0.231373 0.500000
O O2 0.500000 0.231424 0.559727
O O3 0.568759 0.500000 0.546587
O O4 0.624571 0.252039 0.584001
O O5 0.750000 0.250000 0.062324
O O6 0.624861 0.271076 0.082913
O O7 0.672435 0.000000 0.047970
O O8 0.668038 0.271050 0.000000
O O9 0.500000 0.738081 0.226598
O O10 0.413100 0.737161 0.166701
O O11 0.375242 0.728801 0.250520
O O12 0.426433 0.000000 0.216420
O O13 0.926338 0.500000 0.116922
O O14 0.000000 0.238252 0.106828
O O15 0.250000 0.750000 0.728949
O O16 0.331701 0.725035 0.666747
O O17 0.327775 0.000000 0.714797
O O18 0.250000 0.250000 0.396246
O O19 0.323535 0.000000 0.377764
#
# Coordination Sequence:
#
# PCOD9488562 Si02
#       6
#    16  16  16  16  16  16
#     4   9  19  36  55  74  98 127 157 191 233 279
#     4   9  17  28  42  62  88 115 144 181 223 266
#     4   8  14  26  44  65  89 116 147 184 224 266
#     4   8  14  25  42  64  87 112 146 186 224 262
#     4   9  18  31  47  68  93 120 150 186 226 267
#     4  10  20  33  50  72  98 127 159 195 233 275
#
# _framework density 19.065878000000001
#
# number of rings (size 3 to 8) (size 9 to 14) (size 15 to 20)
#    0.000    3.167    0.000    2.000    0.000    3.333 
#    0.000    4.167    0.000    1.000    0.000    4.667 
#    0.000    0.000    0.000    0.000    0.000    0.000 
#
# Total GULP energy -267560.176197 kJ/mol
# GULP energy per Si atom -5574.170337 kJ/mol
# Density = 1.902248 g / cm^3
# Si number density = 19.065878 Si / 1000 Ang^3
#
#
#
# Elastic Constant Matrix: (Units=GPa)
#
#
# Indices 1 2 3 4 5 6 
#
# 1 197.4105 6.5372 152.8835 0.0000 0.0000 0.0000
# 2 6.5372 25.1910 8.4275 0.0000 0.0000 0.0000
# 3 152.8835 8.4275 142.9735 0.0000 0.0000 0.0000
# 4 0.0000 0.0000 0.0000 4.8552 0.0000 0.0000
# 5 0.0000 0.0000 0.0000 0.0000 47.0376 0.0000
# 6 0.0000 0.0000 0.0000 0.0000 0.0000 20.5724
#
#
#
# Elastic Compliance Matrix: (Units=1/GPa)
#
#
# Indices 1 2 3 4 5 6 
#
# 1 0.029689 0.002975 -0.031923 0.000000 0.000000 0.000000
# 2 0.002975 0.040793 -0.005586 0.000000 0.000000 0.000000
# 3 -0.031923 -0.005586 0.041459 0.000000 0.000000 0.000000
# 4 0.000000 0.000000 0.000000 0.205964 0.000000 0.000000
# 5 0.000000 0.000000 0.000000 0.000000 0.021260 0.000000
# 6 0.000000 0.000000 0.000000 0.000000 0.000000 0.048609
#
#
# Mechanical properties :
#
#
# Convention : Reuss Voigt Hill
#
# Bulk Modulus (GPa) = 23.32370 77.91905 50.62137
# Shear Modulus (GPa) = 10.61272 27.67482 19.14377
#
# Velocity S-wave (km/s) = 2.36187 3.81404 3.17217
# Velocity P-wave (km/s) = 4.43821 7.76871 6.32655
#
# Compressibility (1/GPa) = 0.04287484
#
# Stress axis : x y z
#
# Youngs Moduli (GPa) = 33.68206 24.51377 24.12027
#
# Poissons Ratio (x) = -0.07293 0.76998
# Poissons Ratio (y) = -0.10021 0.13473
# Poissons Ratio (z) = 1.07522 0.13693
#
# Static dielectric constant tensor:
#      x y z
#    x 1.618110 0.000000 0.000000 
#    y 0.000000 1.703000 0.000000 
#    z 0.000000 0.000000 1.673020 
# 
# From -- ./inp_files/73200.got.cif
#   From: 2010.05.17/outbox.cif.g08.bks.cpg/sg65_37_cif.got.tgz:73200.got - 2010.06.03 17:01:31.
