data_PCOD9488649
_publ_section_title
;
Structure prediction by ZEFSAII (Michael W. Deem and Ramdas Pophale) SiO2 
 PCOD9488649
Probable space group: C M M M
;
_chemical_formula_sum "Si O2"
_cell_formula_units_Z 96
_cell_length_a 29.283977
_cell_length_b 8.267769
_cell_length_c 19.259632
_cell_angle_alpha 90.000000
_cell_angle_beta 90.000000
_cell_angle_gamma 90.000000
_cell_volume 4663.010311
_symmetry_space_group_name_H-M "C M M M"
_symmetry_group_IT_number 65
_symmetry_cell_setting 'orthorhombic'
loop_
_space_group_symop_operation_xyz
x,y,z
-x,-y,z
x,-y,-z
-x,y,-z
-x,-y,-z
x,y,-z
-x,y,z
x,-y,z
1/2+x,1/2+y,z
1/2-x,1/2-y,z
1/2+x,1/2-y,-z
1/2-x,1/2+y,-z
1/2-x,1/2-y,-z
1/2+x,1/2+y,-z
1/2-x,1/2+y,z
1/2+x,1/2-y,z
loop_
_atom_site_type_symbol
_atom_site_label
_atom_site_fract_x
_atom_site_fract_y
_atom_site_fract_z
Si Si1 0.148165 0.806260 0.578800
Si Si2 0.628599 0.184347 0.821713
Si Si3 0.446699 0.197313 0.922100
Si Si4 0.800324 0.808192 0.709542
Si Si5 0.549560 0.808217 0.583739
Si Si6 0.200570 0.814644 0.082868
O O1 0.152667 0.741572 0.500000
O O2 0.184894 0.742673 0.633726
O O3 0.096957 0.770027 0.606309
O O4 0.152588 0.000000 0.575043
O O5 0.582921 0.256579 0.856613
O O6 0.658311 0.264609 0.761251
O O7 0.663091 0.196546 0.886571
O O8 0.619556 0.000000 0.800658
O O9 0.500000 0.238591 0.915358
O O10 0.443355 0.000000 0.921682
O O11 0.431423 0.250378 0.000000
O O12 0.750000 0.750000 0.730527
O O13 0.797797 0.000000 0.705767
O O14 0.548735 0.787324 0.500000
O O15 0.500000 0.747911 0.609881
O O16 0.551770 0.000000 0.597562
O O17 0.250000 0.750000 0.103893
O O18 0.193668 0.000000 0.107316
O O19 0.198711 0.815517 0.000000
#
# Coordination Sequence:
#
# PCOD9488649 Si02
#       6
#    16  16  16  16  16  16
#     4   9  19  36  57  80 105 136 178 229 284 341
#     4  11  21  34  55  80 108 142 179 218 264 318
#     4   8  15  30  54  84 114 143 179 222 262 302
#     4  11  24  41  58  77 105 139 178 226 280 339
#     4   8  14  26  47  77 110 139 167 204 252 307
#     4  10  20  33  50  74 105 139 176 218 262 308
#
# _framework density 20.587558000000001
#
# number of rings (size 3 to 8) (size 9 to 14) (size 15 to 20)
#    0.000    2.500    0.000    3.500    0.000    3.667 
#    0.000    2.500    0.000    5.000    0.000    5.833 
#    0.000    0.000    0.000    0.000    0.000    0.000 
#
# Total GULP energy -267492.680970 kJ/mol
# GULP energy per Si atom -5572.764187 kJ/mol
# Density = 2.054070 g / cm^3
# Si number density = 20.587558 Si / 1000 Ang^3
#
#
#
# Elastic Constant Matrix: (Units=GPa)
#
#
# Indices 1 2 3 4 5 6 
#
# 1 85.6685 1.4254 56.9504 0.0000 0.0000 0.0000
# 2 1.4254 20.5686 12.4810 0.0000 0.0000 0.0000
# 3 56.9504 12.4810 88.3766 0.0000 0.0000 0.0000
# 4 0.0000 0.0000 0.0000 2.0034 0.0000 0.0000
# 5 0.0000 0.0000 0.0000 0.0000 50.0696 0.0000
# 6 0.0000 0.0000 0.0000 0.0000 0.0000 -3.1776
#
#
#
# Elastic Compliance Matrix: (Units=1/GPa)
#
#
# Indices 1 2 3 4 5 6 
#
# 1 0.021440 0.007545 -0.014882 0.000000 0.000000 0.000000
# 2 0.007545 0.055829 -0.012746 0.000000 0.000000 0.000000
# 3 -0.014882 -0.012746 0.022705 0.000000 0.000000 0.000000
# 4 0.000000 0.000000 0.000000 0.499154 0.000000 0.000000
# 5 0.000000 0.000000 0.000000 0.000000 0.019972 0.000000
# 6 0.000000 0.000000 0.000000 0.000000 0.000000 -0.314700
#
#
# Mechanical properties :
#
#
# Convention : Reuss Voigt Hill
#
# Bulk Modulus (GPa) = 16.72019 37.36972 27.04496
# Shear Modulus (GPa) = 13.71725 18.02953 15.87339
#
# Velocity S-wave (km/s) = 2.58406 2.96252 2.77973
# Velocity P-wave (km/s) = 4.12823 5.46745 4.84434
#
# Compressibility (1/GPa) = 0.05980792
#
# Stress axis : x y z
#
# Youngs Moduli (GPa) = 46.64075 17.91171 44.04264
#
# Poissons Ratio (x) = -0.13514 0.65544
# Poissons Ratio (y) = -0.35188 0.56138
# Poissons Ratio (z) = 0.69410 0.22831
#
# Static dielectric constant tensor:
#      x y z
#    x 1.752300 0.000000 0.000000 
#    y 0.000000 1.738000 0.000000 
#    z 0.000000 0.000000 1.776330 
# 
# From -- ./inp_files/60239.got.cif
#   From: 2010.05.17/outbox.cif.g08.bks.cpg/sg65_31_cif.got.tgz:60239.got - 2010.06.03 17:01:31.
