data_PCOD9488461
_publ_section_title
;
Structure prediction by ZEFSAII (Michael W. Deem and Ramdas Pophale) SiO2 
 PCOD9488461
Probable space group: C M M M
;
_chemical_formula_sum "Si O2"
_cell_formula_units_Z 88
_cell_length_a 9.003077
_cell_length_b 28.118333
_cell_length_c 21.429135
_cell_angle_alpha 90.000000
_cell_angle_beta 90.000000
_cell_angle_gamma 90.000000
_cell_volume 5424.818036
_symmetry_space_group_name_H-M "C M M M"
_symmetry_group_IT_number 65
_symmetry_cell_setting 'orthorhombic'
loop_
_space_group_symop_operation_xyz
x,y,z
-x,-y,z
x,-y,-z
-x,y,-z
-x,-y,-z
x,y,-z
-x,y,z
x,-y,z
1/2+x,1/2+y,z
1/2-x,1/2-y,z
1/2+x,1/2-y,-z
1/2-x,1/2+y,-z
1/2-x,1/2-y,-z
1/2+x,1/2+y,-z
1/2-x,1/2+y,z
1/2+x,1/2-y,z
loop_
_atom_site_type_symbol
_atom_site_label
_atom_site_fract_x
_atom_site_fract_y
_atom_site_fract_z
Si Si1 0.326103 0.942530 0.570946
Si Si2 0.823659 0.892012 0.312349
Si Si3 0.673266 0.557705 0.069293
Si Si4 0.826676 0.557306 0.196520
Si Si5 0.822651 0.698149 0.500000
Si Si6 0.321640 0.197692 0.362157
O O1 0.282364 0.928816 0.500000
O O2 0.500000 0.928736 0.578949
O O3 0.231979 0.920704 0.626660
O O4 0.319409 0.000000 0.574139
O O5 0.768085 0.919408 0.251243
O O6 0.747479 0.840293 0.315594
O O7 0.000000 0.887673 0.313151
O O8 0.500000 0.570692 0.077690
O O9 0.678724 0.500000 0.068594
O O10 0.769354 0.573048 0.128360
O O11 0.721764 0.573652 0.000000
O O12 0.811220 0.500000 0.200042
O O13 0.000000 0.568705 0.204834
O O14 0.750000 0.750000 0.500000
O O15 0.783780 0.677935 0.432256
O O16 0.000000 0.702788 0.500000
O O17 0.500000 0.200707 0.356708
O O18 0.250000 0.250000 0.356295
#
# Coordination Sequence:
#
# PCOD9488461 Si02
#       6
#    16  16  16  16   8  16
#     4   9  19  36  54  69  89 121 161 204 248 292
#     4  12  24  34  48  71  97 128 163 201 246 296
#     4   8  14  26  45  69  98 131 163 196 237 284
#     4  10  20  33  49  70  98 133 171 208 244 284
#     4   8  16  30  50  70  87 110 139 180 234 289
#     4  10  20  36  54  73  95 121 154 196 247 301
#
# _framework density 16.221743
#
# number of rings (size 3 to 8) (size 9 to 14) (size 15 to 20)
#    0.000    2.364    0.000    4.364    1.273    5.091 
#    0.000    2.727    0.000    0.000    0.000    0.000 
#    0.000    0.727    0.000    2.727    0.000    4.182 
#
# Total GULP energy -245381.856976 kJ/mol
# GULP energy per Si atom -5576.860386 kJ/mol
# Density = 1.618482 g / cm^3
# Si number density = 16.221743 Si / 1000 Ang^3
#
#
#
# Elastic Constant Matrix: (Units=GPa)
#
#
# Indices 1 2 3 4 5 6 
#
# 1 87.1754 34.0033 56.1882 0.0000 0.0000 0.0000
# 2 34.0033 41.9352 31.0577 0.0000 0.0000 0.0000
# 3 56.1882 31.0577 100.5619 0.0000 0.0000 0.0000
# 4 0.0000 0.0000 0.0000 9.3073 0.0000 0.0000
# 5 0.0000 0.0000 0.0000 0.0000 27.7911 0.0000
# 6 0.0000 0.0000 0.0000 0.0000 0.0000 21.6775
#
#
#
# Elastic Compliance Matrix: (Units=1/GPa)
#
#
# Indices 1 2 3 4 5 6 
#
# 1 0.021182 -0.010904 -0.008468 0.000000 0.000000 0.000000
# 2 -0.010904 0.036532 -0.005190 0.000000 0.000000 0.000000
# 3 -0.008468 -0.005190 0.016278 0.000000 0.000000 0.000000
# 4 0.000000 0.000000 0.000000 0.107443 0.000000 0.000000
# 5 0.000000 0.000000 0.000000 0.000000 0.035983 0.000000
# 6 0.000000 0.000000 0.000000 0.000000 0.000000 0.046131
#
#
# Mechanical properties :
#
#
# Convention : Reuss Voigt Hill
#
# Bulk Modulus (GPa) = 40.21153 52.46345 46.33749
# Shear Modulus (GPa) = 15.57818 18.98341 17.28080
#
# Velocity S-wave (km/s) = 3.10228 3.42460 3.26741
# Velocity P-wave (km/s) = 6.13797 6.93172 6.54689
#
# Compressibility (1/GPa) = 0.02486849
#
# Stress axis : x y z
#
# Youngs Moduli (GPa) = 47.20938 27.37339 61.43189
#
# Poissons Ratio (x) = 0.29849 0.52019
# Poissons Ratio (y) = 0.51479 0.31882
# Poissons Ratio (z) = 0.39975 0.14206
#
# Static dielectric constant tensor:
#      x y z
#    x 1.539550 0.000000 0.000000 
#    y 0.000000 1.543450 0.000000 
#    z 0.000000 0.000000 1.555870 
# 
# From -- ./inp_files/60646.got.cif
#   From: 2010.05.17/outbox.cif.g08.bks.cpg/sg65_31_cif.got.tgz:60646.got - 2010.06.03 17:01:31.
