data_PCOD9488757
_publ_section_title
;
Structure prediction by ZEFSAII (Michael W. Deem and Ramdas Pophale) SiO2 
 PCOD9488757
Probable space group: C M M M
;
_chemical_formula_sum "Si O2"
_cell_formula_units_Z 104
_cell_length_a 29.467823
_cell_length_b 8.606341
_cell_length_c 24.165815
_cell_angle_alpha 90.000000
_cell_angle_beta 90.000000
_cell_angle_gamma 90.000000
_cell_volume 6128.695563
_symmetry_space_group_name_H-M "C M M M"
_symmetry_group_IT_number 65
_symmetry_cell_setting 'orthorhombic'
loop_
_space_group_symop_operation_xyz
x,y,z
-x,-y,z
x,-y,-z
-x,y,-z
-x,-y,-z
x,y,-z
-x,y,z
x,-y,z
1/2+x,1/2+y,z
1/2-x,1/2-y,z
1/2+x,1/2-y,-z
1/2-x,1/2+y,-z
1/2-x,1/2-y,-z
1/2+x,1/2+y,-z
1/2-x,1/2+y,z
1/2+x,1/2-y,z
loop_
_atom_site_type_symbol
_atom_site_label
_atom_site_fract_x
_atom_site_fract_y
_atom_site_fract_z
Si Si1 0.198672 0.687331 0.500000
Si Si2 0.449648 0.812460 0.892708
Si Si3 0.800796 0.814838 0.167719
Si Si4 0.857117 0.313671 0.728239
Si Si5 0.146789 0.687983 0.061780
Si Si6 0.198683 0.312026 0.379039
Si Si7 0.551140 0.685896 0.231977
O O1 0.199191 0.500000 0.500000
O O2 0.250000 0.750000 0.500000
O O3 0.180088 0.736095 0.560130
O O4 0.500000 0.765348 0.912955
O O5 0.405951 0.767437 0.928298
O O6 0.443682 0.745992 0.831015
O O7 0.449388 0.000000 0.889264
O O8 0.750000 0.750000 0.172255
O O9 0.830643 0.752153 0.218641
O O10 0.823402 0.759166 0.110512
O O11 0.799964 0.000000 0.169628
O O12 0.855648 0.500000 0.730881
O O13 0.832080 0.261145 0.672221
O O14 0.908823 0.258137 0.732234
O O15 0.149487 0.500000 0.065609
O O16 0.161054 0.734163 0.000000
O O17 0.200717 0.500000 0.377910
O O18 0.250000 0.250000 0.372949
O O19 0.500000 0.728063 0.249891
O O20 0.555144 0.500000 0.231773
#
# Coordination Sequence:
#
# PCOD9488757 Si02
#       7
#     8  16  16  16  16  16  16
#     4   8  14  28  46  68 101 138 173 207 246 289
#     4   9  17  31  53  78 104 133 162 198 246 302
#     4  12  25  40  57  75  99 133 170 213 260 304
#     4  11  21  34  53  79 107 135 170 209 254 304
#     4  10  21  37  56  78 104 133 168 209 253 307
#     4   9  18  30  48  74 105 140 174 209 247 295
#     4  10  20  33  51  76 104 134 167 206 254 304
#
# _framework density 16.969353999999999
#
# number of rings (size 3 to 8) (size 9 to 14) (size 15 to 20)
#    0.000    2.000    1.538    2.769    0.000    4.308 
#    0.000    1.538    0.000    0.000    0.000    3.769 
#    0.000    4.308    0.000    0.000    0.000    0.000 
#
# Total GULP energy -290104.789130 kJ/mol
# GULP energy per Si atom -5578.938253 kJ/mol
# Density = 1.693073 g / cm^3
# Si number density = 16.969354 Si / 1000 Ang^3
#
#
#
# Elastic Constant Matrix: (Units=GPa)
#
#
# Indices 1 2 3 4 5 6 
#
# 1 105.9306 28.7473 66.3865 0.0000 0.0000 0.0000
# 2 28.7473 27.7976 27.4352 0.0000 0.0000 0.0000
# 3 66.3865 27.4352 138.1129 0.0000 0.0000 0.0000
# 4 0.0000 0.0000 0.0000 9.3843 0.0000 0.0000
# 5 0.0000 0.0000 0.0000 0.0000 10.5944 0.0000
# 6 0.0000 0.0000 0.0000 0.0000 0.0000 21.6180
#
#
#
# Elastic Compliance Matrix: (Units=1/GPa)
#
#
# Indices 1 2 3 4 5 6 
#
# 1 0.015826 -0.011019 -0.005418 0.000000 0.000000 0.000000
# 2 -0.011019 0.052419 -0.005116 0.000000 0.000000 0.000000
# 3 -0.005418 -0.005116 0.010861 0.000000 0.000000 0.000000
# 4 0.000000 0.000000 0.000000 0.106562 0.000000 0.000000
# 5 0.000000 0.000000 0.000000 0.000000 0.094390 0.000000
# 6 0.000000 0.000000 0.000000 0.000000 0.000000 0.046258
#
#
# Mechanical properties :
#
#
# Convention : Reuss Voigt Hill
#
# Bulk Modulus (GPa) = 27.77822 57.44214 42.61018
# Shear Modulus (GPa) = 13.10881 18.27079 15.68980
#
# Velocity S-wave (km/s) = 2.78240 3.28486 3.04402
# Velocity P-wave (km/s) = 5.16987 6.95062 6.12530
#
# Compressibility (1/GPa) = 0.03599942
#
# Stress axis : x y z
#
# Youngs Moduli (GPa) = 63.18667 19.07688 92.07154
#
# Poissons Ratio (x) = 0.21021 0.49886
# Poissons Ratio (y) = 0.69627 0.47106
# Poissons Ratio (z) = 0.34236 0.09760
#
# Static dielectric constant tensor:
#      x y z
#    x 1.569270 0.000000 0.000000 
#    y 0.000000 1.576460 0.000000 
#    z 0.000000 0.000000 1.580410 
# 
# From -- ./inp_files/68239.got.cif
#   From: 2010.05.17/outbox.cif.g08.bks.cpg/sg65_35_cif.got.tgz:68239.got - 2010.06.03 17:01:31.
