data_PCOD9488147
_publ_section_title
;
Structure prediction by ZEFSAII (Michael W. Deem and Ramdas Pophale) SiO2 
 PCOD9488147
Probable space group: C M M M
;
_chemical_formula_sum "Si O2"
_cell_formula_units_Z 112
_cell_length_a 28.869345
_cell_length_b 15.932604
_cell_length_c 14.295206
_cell_angle_alpha 90.000000
_cell_angle_beta 90.000000
_cell_angle_gamma 90.000000
_cell_volume 6575.277869
_symmetry_space_group_name_H-M "C M M M"
_symmetry_group_IT_number 65
_symmetry_cell_setting 'orthorhombic'
loop_
_space_group_symop_operation_xyz
x,y,z
-x,-y,z
x,-y,-z
-x,y,-z
-x,-y,-z
x,y,-z
-x,y,z
x,-y,z
1/2+x,1/2+y,z
1/2-x,1/2-y,z
1/2+x,1/2-y,-z
1/2-x,1/2+y,-z
1/2-x,1/2-y,-z
1/2+x,1/2+y,-z
1/2-x,1/2+y,z
1/2+x,1/2-y,z
loop_
_atom_site_type_symbol
_atom_site_label
_atom_site_fract_x
_atom_site_fract_y
_atom_site_fract_z
Si Si1 0.208853 0.683622 0.892635
Si Si2 0.444499 0.188759 0.298268
Si Si3 0.582993 0.000000 0.101327
Si Si4 0.394336 0.812187 0.104729
Si Si5 0.857920 0.256019 0.388805
Si Si6 0.551335 0.000000 0.695343
Si Si7 0.200047 0.404991 0.704040
Si Si8 0.300617 0.593004 0.387456
O O1 0.250000 0.750000 0.877479
O O2 0.157272 0.723688 0.883234
O O3 0.210745 0.614499 0.812113
O O4 0.212192 0.653115 0.000000
O O5 0.500000 0.196470 0.306700
O O6 0.428289 0.205030 0.191008
O O7 0.411995 0.245760 0.362248
O O8 0.430177 0.092476 0.325987
O O9 0.611489 0.086015 0.106261
O O10 0.550594 0.000000 0.191212
O O11 0.558988 0.000000 0.000000
O O12 0.411595 0.790941 0.000000
O O13 0.851946 0.266754 0.500000
O O14 0.833953 0.333842 0.335450
O O15 0.832300 0.170741 0.358161
O O16 0.500000 0.000000 0.655122
O O17 0.181894 0.500000 0.692600
O O18 0.248541 0.397030 0.649600
O O19 0.299190 0.594319 0.500000
O O20 0.317145 0.500000 0.357995
#
# Coordination Sequence:
#
# PCOD9488147 Si02
#       8
#    16  16   8  16  16   8  16  16
#     4  10  20  32  48  72 104 141 178 215 257 308
#     4  10  20  33  49  71 101 136 177 221 261 308
#     4   8  14  23  40  63  87 118 162 209 246 283
#     4   9  17  29  47  68  94 131 172 215 258 304
#     4  11  22  35  55  77 104 140 175 215 263 316
#     4   8  16  29  43  60  92 131 165 206 251 292
#     4  11  22  33  53  80 110 143 177 213 249 307
#     4   9  19  37  58  81 105 131 169 218 267 312
#
# _framework density 17.033501000000001
#
# number of rings (size 3 to 8) (size 9 to 14) (size 15 to 20)
#    0.000    2.286    1.429    1.714    2.000    3.000 
#    0.000    2.857    0.000    1.714    0.000    2.000 
#    0.000    0.000    0.000    1.286    0.000    0.143 
#
# Total GULP energy -311845.291205 kJ/mol
# GULP energy per Si atom -5568.665914 kJ/mol
# Density = 1.699473 g / cm^3
# Si number density = 17.033501 Si / 1000 Ang^3
#
#
#
# Elastic Constant Matrix: (Units=GPa)
#
#
# Indices 1 2 3 4 5 6 
#
# 1 94.6201 55.0214 17.6850 0.0000 0.0000 0.0000
# 2 55.0214 77.3322 31.7543 0.0000 0.0000 0.0000
# 3 17.6850 31.7543 37.8096 0.0000 0.0000 0.0000
# 4 0.0000 0.0000 0.0000 18.4077 0.0000 0.0000
# 5 0.0000 0.0000 0.0000 0.0000 2.9056 0.0000
# 6 0.0000 0.0000 0.0000 0.0000 0.0000 18.2781
#
#
#
# Elastic Compliance Matrix: (Units=1/GPa)
#
#
# Indices 1 2 3 4 5 6 
#
# 1 0.018349 -0.014548 0.003636 0.000000 0.000000 0.000000
# 2 -0.014548 0.031272 -0.019460 0.000000 0.000000 0.000000
# 3 0.003636 -0.019460 0.041091 0.000000 0.000000 0.000000
# 4 0.000000 0.000000 0.000000 0.054325 0.000000 0.000000
# 5 0.000000 0.000000 0.000000 0.000000 0.344158 0.000000
# 6 0.000000 0.000000 0.000000 0.000000 0.000000 0.054710
#
#
# Mechanical properties :
#
#
# Convention : Reuss Voigt Hill
#
# Bulk Modulus (GPa) = 33.36846 46.52036 39.94441
# Shear Modulus (GPa) = 8.13487 14.93838 11.53662
#
# Velocity S-wave (km/s) = 2.18773 2.96463 2.60530
# Velocity P-wave (km/s) = 5.10039 6.25213 5.70540
#
# Compressibility (1/GPa) = 0.02996842
#
# Stress axis : x y z
#
# Youngs Moduli (GPa) = 54.50025 31.97712 24.33630
#
# Poissons Ratio (x) = 0.46519 -0.08848
# Poissons Ratio (y) = 0.79285 0.47357
# Poissons Ratio (z) = -0.19814 0.62226
#
# Static dielectric constant tensor:
#      x y z
#    x 1.592870 0.000000 0.000000 
#    y 0.000000 1.585530 0.000000 
#    z 0.000000 0.000000 1.613020 
# 
# From -- ./inp_files/47112.got.cif
#   From: 2010.05.17/outbox.cif.g08.bks.cpg/sg65_24_cif.got.tgz:47112.got - 2010.06.03 17:01:31.
