data_PCOD9488631
_publ_section_title
;
Structure prediction by ZEFSAII (Michael W. Deem and Ramdas Pophale) SiO2 
 PCOD9488631
Probable space group: C M M M
;
_chemical_formula_sum "Si O2"
_cell_formula_units_Z 80
_cell_length_a 18.836829
_cell_length_b 7.661592
_cell_length_c 26.683860
_cell_angle_alpha 90.000000
_cell_angle_beta 90.000000
_cell_angle_gamma 90.000000
_cell_volume 3851.017300
_symmetry_space_group_name_H-M "C M M M"
_symmetry_group_IT_number 65
_symmetry_cell_setting 'orthorhombic'
loop_
_space_group_symop_operation_xyz
x,y,z
-x,-y,z
x,-y,-z
-x,y,-z
-x,-y,-z
x,y,-z
-x,y,z
x,-y,z
1/2+x,1/2+y,z
1/2-x,1/2-y,z
1/2+x,1/2-y,-z
1/2-x,1/2+y,-z
1/2-x,1/2-y,-z
1/2+x,1/2+y,-z
1/2-x,1/2+y,z
1/2+x,1/2-y,z
loop_
_atom_site_type_symbol
_atom_site_label
_atom_site_fract_x
_atom_site_fract_y
_atom_site_fract_z
Si Si1 0.667276 0.292670 0.152076
Si Si2 0.667172 0.789948 0.347354
Si Si3 0.417833 0.287004 0.056261
Si Si4 0.580241 0.208061 0.251476
Si Si5 0.917836 0.287101 0.443781
O O1 0.660853 0.500000 0.150138
O O2 0.750000 0.250000 0.156304
O O3 0.632267 0.222880 0.100782
O O4 0.623420 0.234835 0.200520
O O5 0.750000 0.750000 0.343613
O O6 0.623882 0.722678 0.299184
O O7 0.632352 0.725390 0.399117
O O8 0.660392 0.000000 0.347705
O O9 0.500000 0.237350 0.065293
O O10 0.416194 0.500000 0.056072
O O11 0.397683 0.230436 0.000000
O O12 0.500000 0.278347 0.248369
O O13 0.574712 0.000000 0.258583
O O14 0.897610 0.230311 0.500000
O O15 0.916347 0.500000 0.443913
O O16 0.000000 0.237492 0.434772
#
# Coordination Sequence:
#
# PCOD9488631 Si02
#       5
#    16  16  16  16  16
#     4  11  22  35  53  78 107 138 172 210 253 302
#     4  10  20  33  50  74 103 133 165 203 250 302
#     4   8  15  30  52  76 101 131 169 211 253 298
#     4  10  21  37  56  76 100 132 170 213 259 306
#     4   8  14  27  49  74  97 125 166 211 248 288
#
# _framework density 20.773733
#
# number of rings (size 3 to 8) (size 9 to 14) (size 15 to 20)
#    0.000    2.600    0.000    3.600    0.000    6.800 
#    0.000    0.000    0.000    3.600    0.000    8.400 
#    0.000    0.000    0.000    0.000    0.000    0.000 
#
# Total GULP energy -223340.390227 kJ/mol
# GULP energy per Si atom -5583.509756 kJ/mol
# Density = 2.072645 g / cm^3
# Si number density = 20.773733 Si / 1000 Ang^3
#
#
#
# Elastic Constant Matrix: (Units=GPa)
#
#
# Indices 1 2 3 4 5 6 
#
# 1 192.1175 1.7482 152.3918 0.0000 0.0000 0.0000
# 2 1.7482 38.5939 5.6709 0.0000 0.0000 0.0000
# 3 152.3918 5.6709 220.8263 0.0000 0.0000 0.0000
# 4 0.0000 0.0000 0.0000 12.1503 0.0000 0.0000
# 5 0.0000 0.0000 0.0000 0.0000 15.6040 0.0000
# 6 0.0000 0.0000 0.0000 0.0000 0.0000 12.2365
#
#
#
# Elastic Compliance Matrix: (Units=1/GPa)
#
#
# Indices 1 2 3 4 5 6 
#
# 1 0.011517 0.000649 -0.007964 0.000000 0.000000 0.000000
# 2 0.000649 0.026045 -0.001116 0.000000 0.000000 0.000000
# 3 -0.007964 -0.001116 0.010053 0.000000 0.000000 0.000000
# 4 0.000000 0.000000 0.000000 0.082303 0.000000 0.000000
# 5 0.000000 0.000000 0.000000 0.000000 0.064086 0.000000
# 6 0.000000 0.000000 0.000000 0.000000 0.000000 0.081722
#
#
# Mechanical properties :
#
#
# Convention : Reuss Voigt Hill
#
# Bulk Modulus (GPa) = 32.51914 85.68440 59.10177
# Shear Modulus (GPa) = 16.51029 27.44661 21.97845
#
# Velocity S-wave (km/s) = 2.82222 3.63880 3.25621
# Velocity P-wave (km/s) = 5.12912 7.68053 6.53064
#
# Compressibility (1/GPa) = 0.03075112
#
# Stress axis : x y z
#
# Youngs Moduli (GPa) = 86.83034 38.39436 99.47010
#
# Poissons Ratio (x) = -0.02490 0.79221
# Poissons Ratio (y) = -0.05632 0.11105
# Poissons Ratio (z) = 0.69154 0.04286
#
# Static dielectric constant tensor:
#      x y z
#    x 1.693790 0.000000 0.000000 
#    y 0.000000 1.796530 0.000000 
#    z 0.000000 0.000000 1.741100 
# 
# From -- ./inp_files/72714.got.cif
#   From: 2010.05.17/outbox.cif.g08.bks.cpg/sg65_37_cif.got.tgz:72714.got - 2010.06.03 17:01:31.
