data_PCOD9488323
_publ_section_title
;
Structure prediction by ZEFSAII (Michael W. Deem and Ramdas Pophale) SiO2 
 PCOD9488323
Probable space group: C M M M
;
_chemical_formula_sum "Si O2"
_cell_formula_units_Z 80
_cell_length_a 10.073606
_cell_length_b 26.020191
_cell_length_c 17.244685
_cell_angle_alpha 90.000000
_cell_angle_beta 90.000000
_cell_angle_gamma 90.000000
_cell_volume 4520.127722
_symmetry_space_group_name_H-M "C M M M"
_symmetry_group_IT_number 65
_symmetry_cell_setting 'orthorhombic'
loop_
_space_group_symop_operation_xyz
x,y,z
-x,-y,z
x,-y,-z
-x,y,-z
-x,-y,-z
x,y,-z
-x,y,z
x,-y,z
1/2+x,1/2+y,z
1/2-x,1/2-y,z
1/2+x,1/2-y,-z
1/2-x,1/2+y,-z
1/2-x,1/2-y,-z
1/2+x,1/2+y,-z
1/2-x,1/2+y,z
1/2+x,1/2-y,z
loop_
_atom_site_type_symbol
_atom_site_label
_atom_site_fract_x
_atom_site_fract_y
_atom_site_fract_z
Si Si1 0.740083 0.156145 0.316138
Si Si2 0.000000 0.832529 0.590242
Si Si3 0.153902 0.908043 0.089101
Si Si4 0.844560 0.795355 0.843491
Si Si5 0.653325 0.057556 0.223142
Si Si6 0.500000 0.791184 0.408019
O O1 0.868704 0.147398 0.368387
O O2 0.789102 0.188271 0.241087
O O3 0.684803 0.102461 0.283828
O O4 0.628769 0.186166 0.364778
O O5 0.000000 0.770450 0.598416
O O6 0.000000 0.844910 0.500000
O O7 0.163415 0.846701 0.104704
O O8 0.250756 0.934477 0.149945
O O9 0.000000 0.922248 0.103927
O O10 0.185326 0.919691 0.000000
O O11 0.750000 0.750000 0.872804
O O12 0.000000 0.780236 0.837710
O O13 0.500000 0.062950 0.198814
O O14 0.671772 0.000000 0.254749
O O15 0.500000 0.803918 0.500000
#
# Coordination Sequence:
#
# PCOD9488323 Si02
#       6
#    16   8  16  16  16   8
#     4  11  21  37  56  82 116 149 186 232 275 325
#     4  11  22  36  57  87 120 149 181 225 275 329
#     4   9  20  38  56  81 115 145 181 230 282 334
#     4  10  20  32  52  78 110 152 191 225 268 325
#     4  10  22  40  61  83 107 144 191 235 280 327
#     4  11  22  36  57  85 116 153 185 217 271 333
#
# _framework density 17.698616000000001
#
# number of rings (size 3 to 8) (size 9 to 14) (size 15 to 20)
#    0.000    1.800    2.000    2.400    2.800    4.000 
#    0.000    2.000    0.000    3.600    0.000    0.000 
#    0.000    0.000    0.000    0.000    0.000    0.000 
#
# Total GULP energy -223390.553650 kJ/mol
# GULP energy per Si atom -5584.763841 kJ/mol
# Density = 1.765833 g / cm^3
# Si number density = 17.698616 Si / 1000 Ang^3
#
#
#
# Elastic Constant Matrix: (Units=GPa)
#
#
# Indices 1 2 3 4 5 6 
#
# 1 105.1304 32.0923 29.2142 0.0000 0.0000 0.0000
# 2 32.0923 65.7077 11.7729 0.0000 0.0000 0.0000
# 3 29.2142 11.7729 72.1726 0.0000 0.0000 0.0000
# 4 0.0000 0.0000 0.0000 1.2437 0.0000 0.0000
# 5 0.0000 0.0000 0.0000 0.0000 14.6758 0.0000
# 6 0.0000 0.0000 0.0000 0.0000 0.0000 49.1724
#
#
#
# Elastic Compliance Matrix: (Units=1/GPa)
#
#
# Indices 1 2 3 4 5 6 
#
# 1 0.012255 -0.005250 -0.004104 0.000000 0.000000 0.000000
# 2 -0.005250 0.017926 -0.000799 0.000000 0.000000 0.000000
# 3 -0.004104 -0.000799 0.015647 0.000000 0.000000 0.000000
# 4 0.000000 0.000000 0.000000 0.804082 0.000000 0.000000
# 5 0.000000 0.000000 0.000000 0.000000 0.068140 0.000000
# 6 0.000000 0.000000 0.000000 0.000000 0.000000 0.020337
#
#
# Mechanical properties :
#
#
# Convention : Reuss Voigt Hill
#
# Bulk Modulus (GPa) = 39.18196 43.24106 41.21151
# Shear Modulus (GPa) = 5.16956 24.34711 14.75833
#
# Velocity S-wave (km/s) = 1.71091 3.71300 2.89081
# Velocity P-wave (km/s) = 5.10778 6.54727 5.87181
#
# Compressibility (1/GPa) = 0.02552195
#
# Stress axis : x y z
#
# Youngs Moduli (GPa) = 81.59805 55.78390 63.90865
#
# Poissons Ratio (x) = 0.29288 0.26230
# Poissons Ratio (y) = 0.42841 0.05106
# Poissons Ratio (z) = 0.33490 0.04457
#
# Static dielectric constant tensor:
#      x y z
#    x 1.591510 0.000000 0.000000 
#    y 0.000000 1.600460 0.000000 
#    z 0.000000 0.000000 1.579240 
# 
# From -- ./inp_files/50231.got.cif
#   From: 2010.05.17/outbox.cif.g08.bks.cpg/sg65_26_cif.got.tgz:50231.got - 2010.06.03 17:01:31.
