data_PCOD9488214
_publ_section_title
;
Structure prediction by ZEFSAII (Michael W. Deem and Ramdas Pophale) SiO2 
 PCOD9488214
Probable space group: C M M M
;
_chemical_formula_sum "Si O2"
_cell_formula_units_Z 128
_cell_length_a 16.603142
_cell_length_b 18.473553
_cell_length_c 23.913847
_cell_angle_alpha 90.000000
_cell_angle_beta 90.000000
_cell_angle_gamma 90.000000
_cell_volume 7334.831805
_symmetry_space_group_name_H-M "C M M M"
_symmetry_group_IT_number 65
_symmetry_cell_setting 'orthorhombic'
loop_
_space_group_symop_operation_xyz
x,y,z
-x,-y,z
x,-y,-z
-x,y,-z
-x,-y,-z
x,y,-z
-x,y,z
x,-y,z
1/2+x,1/2+y,z
1/2-x,1/2-y,z
1/2+x,1/2-y,-z
1/2-x,1/2+y,-z
1/2-x,1/2-y,-z
1/2+x,1/2+y,-z
1/2-x,1/2+y,z
1/2+x,1/2-y,z
loop_
_atom_site_type_symbol
_atom_site_label
_atom_site_fract_x
_atom_site_fract_y
_atom_site_fract_z
Si Si1 0.595896 0.716660 0.437073
Si Si2 0.598253 0.919946 0.123997
Si Si3 0.312871 0.186790 0.347242
Si Si4 0.905759 0.195878 0.829115
Si Si5 0.677352 0.584996 0.380727
Si Si6 0.401182 0.773113 0.063343
Si Si7 0.593589 0.848505 0.763761
Si Si8 0.904943 0.084108 0.740252
O O1 0.622849 0.735151 0.500000
O O2 0.500000 0.717900 0.434852
O O3 0.630552 0.772280 0.391551
O O4 0.626446 0.636346 0.421454
O O5 0.500000 0.918650 0.124390
O O6 0.622790 0.853210 0.084698
O O7 0.623025 0.902949 0.187931
O O8 0.623999 0.000000 0.106321
O O9 0.250000 0.250000 0.329664
O O10 0.264552 0.122000 0.376628
O O11 0.357557 0.156701 0.293036
O O12 0.872112 0.215766 0.890069
O O13 0.903739 0.270073 0.793815
O O14 0.870442 0.134112 0.789499
O O15 0.000000 0.176427 0.837607
O O16 0.677458 0.500000 0.394532
O O17 0.639123 0.593864 0.318661
O O18 0.500000 0.771830 0.064661
O O19 0.375753 0.759382 0.000000
O O20 0.500000 0.864720 0.751535
O O21 0.000000 0.102342 0.731851
O O22 0.900025 0.000000 0.755819
#
# Coordination Sequence:
#
# PCOD9488214 Si02
#       8
#    16  16  16  16  16  16  16  16
#     4  10  21  37  57  77  96 125 167 206 234 270
#     4   8  14  23  35  55  82 111 147 188 225 267
#     4  10  20  32  49  72 100 129 157 193 239 287
#     4   8  13  22  37  57  81 110 148 191 231 274
#     4  10  21  34  49  75 107 131 154 192 245 298
#     4   8  13  20  31  50  79 116 151 182 225 278
#     4   9  16  27  44  63  85 119 158 191 226 271
#     4   9  16  27  45  66  89 119 152 188 233 285
#
# _framework density 17.450979
#
# number of rings (size 3 to 8) (size 9 to 14) (size 15 to 20)
#    0.000    3.000    0.000    3.750    0.000    5.000 
#    0.000    1.875    0.000    1.500    0.000    3.500 
#    0.000   32.000    0.000    5.250    0.000    5.750 
#
# Total GULP energy -356525.873686 kJ/mol
# GULP energy per Si atom -5570.716776 kJ/mol
# Density = 1.741126 g / cm^3
# Si number density = 17.450979 Si / 1000 Ang^3
#
#
#
# Elastic Constant Matrix: (Units=GPa)
#
#
# Indices 1 2 3 4 5 6 
#
# 1 24.3852 8.0108 13.4677 0.0000 0.0000 0.0000
# 2 8.0108 40.8902 6.4642 0.0000 0.0000 0.0000
# 3 13.4677 6.4642 60.2527 0.0000 0.0000 0.0000
# 4 0.0000 0.0000 0.0000 16.9143 0.0000 0.0000
# 5 0.0000 0.0000 0.0000 0.0000 -16.4405 0.0000
# 6 0.0000 0.0000 0.0000 0.0000 0.0000 9.3854
#
#
#
# Elastic Compliance Matrix: (Units=1/GPa)
#
#
# Indices 1 2 3 4 5 6 
#
# 1 0.049255 -0.008046 -0.010146 0.000000 0.000000 0.000000
# 2 -0.008046 0.026192 -0.001012 0.000000 0.000000 0.000000
# 3 -0.010146 -0.001012 0.018973 0.000000 0.000000 0.000000
# 4 0.000000 0.000000 0.000000 0.059122 0.000000 0.000000
# 5 0.000000 0.000000 0.000000 0.000000 -0.060825 0.000000
# 6 0.000000 0.000000 0.000000 0.000000 0.000000 0.106548
#
#
# Mechanical properties :
#
#
# Convention : Reuss Voigt Hill
#
# Bulk Modulus (GPa) = 17.85293 20.15704 19.00498
# Shear Modulus (GPa) = 19.50509 8.47753 13.99131
#
# Velocity S-wave (km/s) = 3.34684 2.20646 2.83459
# Velocity P-wave (km/s) = 5.01873 4.25053 4.65052
#
# Compressibility (1/GPa) = 0.05601322
#
# Stress axis : x y z
#
# Youngs Moduli (GPa) = 20.30236 38.17982 52.70592
#
# Poissons Ratio (x) = 0.30718 0.53477
# Poissons Ratio (y) = 0.16335 0.05332
# Poissons Ratio (z) = 0.20600 0.03862
#
# Static dielectric constant tensor:
#      x y z
#    x 1.612920 0.000000 0.000000 
#    y 0.000000 1.592920 0.000000 
#    z 0.000000 0.000000 1.601140 
# 
# From -- ./inp_files/70692.got.cif
#   From: 2010.05.17/outbox.cif.g08.bks.cpg/sg65_36_cif.got.tgz:70692.got - 2010.06.03 17:01:31.
