data_PCOD9488105
_publ_section_title
;
Structure prediction by ZEFSAII (Michael W. Deem and Ramdas Pophale) SiO2 
 PCOD9488105
Probable space group: C M M M
;
_chemical_formula_sum "Si O2"
_cell_formula_units_Z 96
_cell_length_a 17.745515
_cell_length_b 24.436476
_cell_length_c 13.217728
_cell_angle_alpha 90.000000
_cell_angle_beta 90.000000
_cell_angle_gamma 90.000000
_cell_volume 5731.707170
_symmetry_space_group_name_H-M "C M M M"
_symmetry_group_IT_number 65
_symmetry_cell_setting 'orthorhombic'
loop_
_space_group_symop_operation_xyz
x,y,z
-x,-y,z
x,-y,-z
-x,y,-z
-x,-y,-z
x,y,-z
-x,y,z
x,-y,z
1/2+x,1/2+y,z
1/2-x,1/2-y,z
1/2+x,1/2-y,-z
1/2-x,1/2+y,-z
1/2-x,1/2-y,-z
1/2+x,1/2+y,-z
1/2-x,1/2+y,z
1/2+x,1/2-y,z
loop_
_atom_site_type_symbol
_atom_site_label
_atom_site_fract_x
_atom_site_fract_y
_atom_site_fract_z
Si Si1 0.581675 0.062027 0.379164
Si Si2 0.088175 0.725095 0.618171
Si Si3 0.257626 0.436389 0.880683
Si Si4 0.083851 0.063039 0.222839
Si Si5 0.301926 0.142425 0.287322
Si Si6 0.637583 0.349582 0.382070
O O1 0.579148 0.060950 0.500000
O O2 0.500000 0.083703 0.343660
O O3 0.652098 0.096619 0.347364
O O4 0.588348 0.000000 0.342559
O O5 0.107130 0.709870 0.500000
O O6 0.143212 0.694492 0.696860
O O7 0.099703 0.790117 0.626811
O O8 0.000000 0.712184 0.633285
O O9 0.237526 0.500000 0.851334
O O10 0.346406 0.430100 0.853723
O O11 0.215584 0.388240 0.818731
O O12 0.245245 0.431297 0.000000
O O13 0.096941 0.105033 0.314135
O O14 0.000000 0.071339 0.179224
O O15 0.087933 0.000000 0.258949
O O16 0.222594 0.154955 0.340084
O O17 0.638197 0.364896 0.500000
#
# Coordination Sequence:
#
# PCOD9488105 Si02
#       6
#    16  16  16  16  16  16
#     4   9  17  28  43  67  99 130 159 195 239 286
#     4  10  20  33  50  72  99 134 172 203 235 284
#     4   9  19  35  53  74  99 126 160 207 259 301
#     4   9  18  32  51  75 100 130 169 205 240 289
#     4  11  19  30  50  72  94 126 167 208 245 289
#     4  10  20  32  47  72 107 138 162 196 243 293
#
# _framework density 16.748937000000002
#
# number of rings (size 3 to 8) (size 9 to 14) (size 15 to 20)
#    0.000    2.333    0.000    4.000    0.000    5.000 
#    0.000    2.500    0.000   10.000    0.000    5.833 
#    0.000    0.000    0.000    0.000    0.000    0.000 
#
# Total GULP energy -267336.328502 kJ/mol
# GULP energy per Si atom -5569.506844 kJ/mol
# Density = 1.671082 g / cm^3
# Si number density = 16.748937 Si / 1000 Ang^3
#
#
#
# Elastic Constant Matrix: (Units=GPa)
#
#
# Indices 1 2 3 4 5 6 
#
# 1 76.8138 28.6693 16.4682 0.0000 0.0000 0.0000
# 2 28.6693 66.3411 24.4014 0.0000 0.0000 0.0000
# 3 16.4682 24.4014 55.2366 0.0000 0.0000 0.0000
# 4 0.0000 0.0000 0.0000 25.3495 0.0000 0.0000
# 5 0.0000 0.0000 0.0000 0.0000 -1.6815 0.0000
# 6 0.0000 0.0000 0.0000 0.0000 0.0000 35.9812
#
#
#
# Elastic Compliance Matrix: (Units=1/GPa)
#
#
# Indices 1 2 3 4 5 6 
#
# 1 0.015707 -0.006048 -0.002011 0.000000 0.000000 0.000000
# 2 -0.006048 0.020327 -0.007176 0.000000 0.000000 0.000000
# 3 -0.002011 -0.007176 0.021874 0.000000 0.000000 0.000000
# 4 0.000000 0.000000 0.000000 0.039449 0.000000 0.000000
# 5 0.000000 0.000000 0.000000 0.000000 -0.594710 0.000000
# 6 0.000000 0.000000 0.000000 0.000000 0.000000 0.027792
#
#
# Mechanical properties :
#
#
# Convention : Reuss Voigt Hill
#
# Bulk Modulus (GPa) = 36.44785 37.49660 36.97223
# Shear Modulus (GPa) = -11.62940 20.52001 4.44530
#
# Velocity S-wave (km/s) = -2.63789 3.50402 1.63090
# Velocity P-wave (km/s) = 3.53986 6.22952 5.06643
#
# Compressibility (1/GPa) = 0.02743646
#
# Stress axis : x y z
#
# Youngs Moduli (GPa) = 63.66599 49.19581 45.71679
#
# Poissons Ratio (x) = 0.29754 0.09194
# Poissons Ratio (y) = 0.38506 0.32809
# Poissons Ratio (z) = 0.12804 0.35305
#
# Static dielectric constant tensor:
#      x y z
#    x 1.592020 0.000000 0.000000 
#    y 0.000000 1.590780 0.000000 
#    z 0.000000 0.000000 1.534150 
# 
# From -- ./inp_files/27080.got.cif
#   From: 2010.05.17/outbox.cif.g08.bks.cpg/sg65_14_cif.got.tgz:27080.got - 2010.06.03 17:01:31.
