data_PCOD9488307
_publ_section_title
;
Structure prediction by ZEFSAII (Michael W. Deem and Ramdas Pophale) SiO2 
 PCOD9488307
Probable space group: C M M M
;
_chemical_formula_sum "Si O2"
_cell_formula_units_Z 88
_cell_length_a 18.404671
_cell_length_b 31.904219
_cell_length_c 7.936652
_cell_angle_alpha 90.000000
_cell_angle_beta 90.000000
_cell_angle_gamma 90.000000
_cell_volume 4660.296133
_symmetry_space_group_name_H-M "C M M M"
_symmetry_group_IT_number 65
_symmetry_cell_setting 'orthorhombic'
loop_
_space_group_symop_operation_xyz
x,y,z
-x,-y,z
x,-y,-z
-x,y,-z
-x,-y,-z
x,y,-z
-x,y,z
x,-y,z
1/2+x,1/2+y,z
1/2-x,1/2-y,z
1/2+x,1/2-y,-z
1/2-x,1/2+y,-z
1/2-x,1/2-y,-z
1/2+x,1/2+y,-z
1/2-x,1/2+y,z
1/2+x,1/2-y,z
loop_
_atom_site_type_symbol
_atom_site_label
_atom_site_fract_x
_atom_site_fract_y
_atom_site_fract_z
Si Si1 0.078671 0.171582 0.700281
Si Si2 0.765207 0.202912 0.703346
Si Si3 0.198454 0.381731 0.200546
Si Si4 0.916282 0.547175 0.702631
Si Si5 0.583081 0.500000 0.205948
Si Si6 0.355435 0.412404 0.204570
O O1 0.078091 0.179771 0.500000
O O2 0.154338 0.190249 0.768724
O O3 0.088798 0.122214 0.730428
O O4 0.000000 0.185439 0.768661
O O5 0.768203 0.203334 0.500000
O O6 0.750000 0.250000 0.761887
O O7 0.705804 0.167234 0.748046
O O8 0.134107 0.413270 0.251916
O O9 0.274789 0.400815 0.264431
O O10 0.199446 0.382174 0.000000
O O11 0.917465 0.545597 0.500000
O O12 0.892139 0.500000 0.760729
O O13 0.000000 0.552951 0.760341
O O14 0.500000 0.500000 0.260317
O O15 0.622724 0.541788 0.261353
O O16 0.583403 0.500000 0.000000
O O17 0.356372 0.410922 0.000000
#
# Coordination Sequence:
#
# PCOD9488307 Si02
#       6
#    16  16  16  16   8  16
#     4   9  17  30  48  69  93 120 156 204 250 291
#     4   9  18  34  54  73  98 134 174 215 261 315
#     4  10  20  32  51  77 104 133 166 211 261 312
#     4   9  19  36  56  77 103 138 179 219 259 311
#     4   9  16  26  41  61  88 123 160 194 223 261
#     4   9  18  30  45  66  93 128 164 195 231 283
#
# _framework density 18.882921
#
# number of rings (size 3 to 8) (size 9 to 14) (size 15 to 20)
#    0.000    2.818    0.000    1.636    1.273    2.909 
#    0.000    2.273    0.000    4.909    0.000    0.000 
#    0.000    0.000    0.000    0.000    0.000    0.000 
#
# Total GULP energy -245050.914871 kJ/mol
# GULP energy per Si atom -5569.338974 kJ/mol
# Density = 1.883994 g / cm^3
# Si number density = 18.882921 Si / 1000 Ang^3
#
#
#
# Elastic Constant Matrix: (Units=GPa)
#
#
# Indices 1 2 3 4 5 6 
#
# 1 100.0085 74.4578 8.4468 0.0000 0.0000 0.0000
# 2 74.4578 167.4734 9.3289 0.0000 0.0000 0.0000
# 3 8.4468 9.3289 20.2313 0.0000 0.0000 0.0000
# 4 0.0000 0.0000 0.0000 26.9230 0.0000 0.0000
# 5 0.0000 0.0000 0.0000 0.0000 7.2644 0.0000
# 6 0.0000 0.0000 0.0000 0.0000 0.0000 13.0015
#
#
#
# Elastic Compliance Matrix: (Units=1/GPa)
#
#
# Indices 1 2 3 4 5 6 
#
# 1 0.015159 -0.006555 -0.003306 0.000000 0.000000 0.000000
# 2 -0.006555 0.008963 -0.001396 0.000000 0.000000 0.000000
# 3 -0.003306 -0.001396 0.051452 0.000000 0.000000 0.000000
# 4 0.000000 0.000000 0.000000 0.037143 0.000000 0.000000
# 5 0.000000 0.000000 0.000000 0.000000 0.137658 0.000000
# 6 0.000000 0.000000 0.000000 0.000000 0.000000 0.076914
#
#
# Mechanical properties :
#
#
# Convention : Reuss Voigt Hill
#
# Bulk Modulus (GPa) = 18.84690 52.46450 35.65570
# Shear Modulus (GPa) = 13.60574 22.46975 18.03774
#
# Velocity S-wave (km/s) = 2.68718 3.45331 3.09405
# Velocity P-wave (km/s) = 4.43064 6.61399 5.62918
#
# Compressibility (1/GPa) = 0.05305912
#
# Stress axis : x y z
#
# Youngs Moduli (GPa) = 65.96722 111.56487 19.43541
#
# Poissons Ratio (x) = 0.73136 0.06426
# Poissons Ratio (y) = 0.43245 0.02713
# Poissons Ratio (z) = 0.21811 0.15576
#
# Static dielectric constant tensor:
#      x y z
#    x 1.672210 0.000000 0.000000 
#    y 0.000000 1.660560 0.000000 
#    z 0.000000 0.000000 1.670380 
# 
# From -- ./inp_files/10146.got.cif
#   From: 2010.05.17/outbox.cif.g08.bks.cpg/sg65_6_cif.got.tgz:10146.got - 2010.06.03 17:01:31.
