data_PCOD9488896
_publ_section_title
;
Structure prediction by ZEFSAII (Michael W. Deem and Ramdas Pophale) SiO2 
 PCOD9488896
Probable space group: C M M M
;
_chemical_formula_sum "Si O2"
_cell_formula_units_Z 88
_cell_length_a 18.647482
_cell_length_b 9.042634
_cell_length_c 29.302743
_cell_angle_alpha 90.000000
_cell_angle_beta 90.000000
_cell_angle_gamma 90.000000
_cell_volume 4941.097525
_symmetry_space_group_name_H-M "C M M M"
_symmetry_group_IT_number 65
_symmetry_cell_setting 'orthorhombic'
loop_
_space_group_symop_operation_xyz
x,y,z
-x,-y,z
x,-y,-z
-x,y,-z
-x,-y,-z
x,y,-z
-x,y,z
x,-y,z
1/2+x,1/2+y,z
1/2-x,1/2-y,z
1/2+x,1/2-y,-z
1/2-x,1/2+y,-z
1/2-x,1/2-y,-z
1/2+x,1/2+y,-z
1/2-x,1/2+y,z
1/2+x,1/2-y,z
loop_
_atom_site_type_symbol
_atom_site_label
_atom_site_fract_x
_atom_site_fract_y
_atom_site_fract_z
Si Si1 0.172245 0.821129 0.000000
Si Si2 0.171938 0.322326 0.725499
Si Si3 0.413952 0.325719 0.356346
Si Si4 0.916244 0.822356 0.089541
Si Si5 0.087088 0.672330 0.550631
Si Si6 0.416489 0.177536 0.184365
O O1 0.250000 0.750000 0.000000
O O2 0.129216 0.777085 0.954437
O O3 0.177136 0.000000 0.000000
O O4 0.177007 0.500000 0.723707
O O5 0.250000 0.250000 0.724528
O O6 0.126052 0.263657 0.682939
O O7 0.131020 0.280178 0.772266
O O8 0.500000 0.302340 0.352656
O O9 0.400053 0.500000 0.351734
O O10 0.390142 0.268618 0.406261
O O11 0.892203 0.749920 0.136959
O O12 0.000000 0.783244 0.082635
O O13 0.912069 0.000000 0.093661
O O14 0.111390 0.720443 0.500000
O O15 0.106876 0.500000 0.556967
O O16 0.000000 0.677438 0.549969
O O17 0.500000 0.220012 0.191940
O O18 0.414011 0.000000 0.179910
#
# Coordination Sequence:
#
# PCOD9488896 Si02
#       6
#     8  16  16  16  16  16
#     4  10  21  35  51  75 107 140 174 210 252 302
#     4  11  23  38  55  75 104 140 176 216 263 315
#     4  10  20  33  52  79 108 138 175 218 261 309
#     4   9  18  34  56  78 101 133 172 213 254 299
#     4   8  14  26  46  73 104 137 173 213 258 307
#     4   9  19  36  57  80 104 132 169 213 261 312
#
# _framework density 17.809806999999999
#
# number of rings (size 3 to 8) (size 9 to 14) (size 15 to 20)
#    0.000    2.545    0.000    2.455    0.000    6.182 
#    0.000    7.273    0.000    3.273    0.000    0.000 
#    0.000    0.000    0.000    0.000    0.000    0.000 
#
# Total GULP energy -245449.772733 kJ/mol
# GULP energy per Si atom -5578.403926 kJ/mol
# Density = 1.776927 g / cm^3
# Si number density = 17.809807 Si / 1000 Ang^3
#
#
#
# Elastic Constant Matrix: (Units=GPa)
#
#
# Indices 1 2 3 4 5 6 
#
# 1 57.6615 41.3171 73.0854 0.0000 0.0000 0.0000
# 2 41.3171 48.7145 67.9700 0.0000 0.0000 0.0000
# 3 73.0854 67.9700 188.9145 0.0000 0.0000 0.0000
# 4 0.0000 0.0000 0.0000 34.3273 0.0000 0.0000
# 5 0.0000 0.0000 0.0000 0.0000 -6.7343 0.0000
# 6 0.0000 0.0000 0.0000 0.0000 0.0000 24.3166
#
#
#
# Elastic Compliance Matrix: (Units=1/GPa)
#
#
# Indices 1 2 3 4 5 6 
#
# 1 0.049787 -0.030828 -0.008169 0.000000 0.000000 0.000000
# 2 -0.030828 0.060310 -0.009773 0.000000 0.000000 0.000000
# 3 -0.008169 -0.009773 0.011970 0.000000 0.000000 0.000000
# 4 0.000000 0.000000 0.000000 0.029131 0.000000 0.000000
# 5 0.000000 0.000000 0.000000 0.000000 -0.148493 0.000000
# 6 0.000000 0.000000 0.000000 0.000000 0.000000 0.041124
#
#
# Mechanical properties :
#
#
# Convention : Reuss Voigt Hill
#
# Bulk Modulus (GPa) = 40.77194 73.33728 57.05461
# Shear Modulus (GPa) = 33.43466 17.90979 25.67222
#
# Velocity S-wave (km/s) = 4.33750 3.17458 3.80078
# Velocity P-wave (km/s) = 6.93022 7.39626 7.16703
#
# Compressibility (1/GPa) = 0.02452667
#
# Stress axis : x y z
#
# Youngs Moduli (GPa) = 20.08559 16.58097 83.54259
#
# Poissons Ratio (x) = 0.51116 0.68248
# Poissons Ratio (y) = 0.61920 0.81643
# Poissons Ratio (z) = 0.16408 0.16204
#
# Static dielectric constant tensor:
#      x y z
#    x 1.589180 0.000000 0.000000 
#    y 0.000000 1.594670 0.000000 
#    z 0.000000 0.000000 1.599080 
# 
# From -- ./inp_files/77941.got.cif
#   From: 2010.05.17/outbox.cif.g08.bks.cpg/sg65_39_cif.got.tgz:77941.got - 2010.06.03 17:01:31.
