data_PCOD9488711
_publ_section_title
;
Structure prediction by ZEFSAII (Michael W. Deem and Ramdas Pophale) SiO2 
 PCOD9488711
Probable space group: C M M M
;
_chemical_formula_sum "Si O2"
_cell_formula_units_Z 104
_cell_length_a 25.064689
_cell_length_b 23.968133
_cell_length_c 7.838516
_cell_angle_alpha 90.000000
_cell_angle_beta 90.000000
_cell_angle_gamma 90.000000
_cell_volume 4709.018270
_symmetry_space_group_name_H-M "C M M M"
_symmetry_group_IT_number 65
_symmetry_cell_setting 'orthorhombic'
loop_
_space_group_symop_operation_xyz
x,y,z
-x,-y,z
x,-y,-z
-x,y,-z
-x,-y,-z
x,y,-z
-x,y,z
x,-y,z
1/2+x,1/2+y,z
1/2-x,1/2-y,z
1/2+x,1/2-y,-z
1/2-x,1/2+y,-z
1/2-x,1/2-y,-z
1/2+x,1/2+y,-z
1/2-x,1/2+y,z
1/2+x,1/2-y,z
loop_
_atom_site_type_symbol
_atom_site_label
_atom_site_fract_x
_atom_site_fract_y
_atom_site_fract_z
Si Si1 0.281670 0.306085 0.697369
Si Si2 0.630154 0.561302 0.205620
Si Si3 0.365966 0.102125 0.208738
Si Si4 0.903794 0.817318 0.299269
Si Si5 0.749702 0.917807 0.808944
Si Si6 0.559734 0.000000 0.792443
Si Si7 0.941596 0.301024 0.798444
O O1 0.279056 0.325752 0.500000
O O2 0.250000 0.250000 0.709758
O O3 0.343096 0.300219 0.741761
O O4 0.255854 0.351514 0.815716
O O5 0.609390 0.500000 0.258051
O O6 0.596402 0.616522 0.253728
O O7 0.692418 0.565169 0.267461
O O8 0.632995 0.562506 0.000000
O O9 0.308694 0.078571 0.273647
O O10 0.409049 0.055668 0.255047
O O11 0.391236 0.161787 0.266573
O O12 0.359962 0.104178 0.000000
O O13 0.913464 0.814305 0.500000
O O14 0.936359 0.765978 0.221287
O O15 0.747718 0.941295 0.000000
O O16 0.500000 0.000000 0.727451
O O17 0.558260 0.000000 0.000000
O O18 0.000000 0.317788 0.727582
O O19 0.942764 0.312942 0.000000
#
# Coordination Sequence:
#
# PCOD9488711 Si02
#       7
#    16  16  16  16  16   8  16
#     4   9  17  29  44  64  94 129 161 197 243 297
#     4   9  18  32  51  75 106 140 170 202 249 310
#     4   9  17  28  45  71 103 137 173 215 260 302
#     4  10  20  33  51  75 100 131 171 213 258 306
#     4   9  17  27  43  70  99 129 164 202 242 289
#     4   9  16  26  42  66  99 137 175 217 264 305
#     4  10  20  34  52  74 102 135 173 217 263 309
#
# _framework density 22.085281999999999
#
# number of rings (size 3 to 8) (size 9 to 14) (size 15 to 20)
#    0.000    2.692    0.000    1.846    1.077    3.385 
#    0.000    0.000    0.000    0.462    0.000    4.846 
#    0.000    3.692    0.000    0.000    0.000    0.000 
#
# Total GULP energy -289514.792002 kJ/mol
# GULP energy per Si atom -5567.592154 kJ/mol
# Density = 2.203501 g / cm^3
# Si number density = 22.085282 Si / 1000 Ang^3
#
#
#
# Elastic Constant Matrix: (Units=GPa)
#
#
# Indices 1 2 3 4 5 6 
#
# 1 15.3122 17.9540 31.2315 0.0000 0.0000 0.0000
# 2 17.9540 109.1847 -4.2210 0.0000 0.0000 0.0000
# 3 31.2315 -4.2210 -30.5628 0.0000 0.0000 0.0000
# 4 0.0000 0.0000 0.0000 -11.6064 0.0000 0.0000
# 5 0.0000 0.0000 0.0000 0.0000 0.0622 0.0000
# 6 0.0000 0.0000 0.0000 0.0000 0.0000 5.3931
#
#
#
# Elastic Compliance Matrix: (Units=1/GPa)
#
#
# Indices 1 2 3 4 5 6 
#
# 1 0.021963 -0.002729 0.022820 0.000000 0.000000 0.000000
# 2 -0.002729 0.009449 -0.004094 0.000000 0.000000 0.000000
# 3 0.022820 -0.004094 -0.008835 0.000000 0.000000 0.000000
# 4 0.000000 0.000000 0.000000 -0.086159 0.000000 0.000000
# 5 0.000000 0.000000 0.000000 0.000000 16.083231 0.000000
# 6 0.000000 0.000000 0.000000 0.000000 0.000000 0.185423
#
#
# Mechanical properties :
#
#
# Convention : Reuss Voigt Hill
#
# Bulk Modulus (GPa) = 18.32483 20.42924 19.37703
# Shear Modulus (GPa) = 0.30881 2.03441 1.17161
#
# Velocity S-wave (km/s) = 0.37434 0.96081 0.72914
# Velocity P-wave (km/s) = 2.91585 3.24054 3.08247
#
# Compressibility (1/GPa) = 0.05457078
#
# Stress axis : x y z
#
# Youngs Moduli (GPa) = 45.53192 105.82784 -113.18940
#
# Poissons Ratio (x) = 0.28883 2.58299
# Poissons Ratio (y) = 0.12427 -0.46340
# Poissons Ratio (z) = -1.03904 0.43326
#
# Static dielectric constant tensor:
#      x y z
#    x 1.990970 0.000000 0.000000 
#    y 0.000000 1.813680 0.000000 
#    z 0.000000 0.000000 1.867700 
# 
# From -- ./inp_files/16749.got.cif
#   From: 2010.05.17/outbox.cif.g08.bks.cpg/sg65_9_cif.got.tgz:16749.got - 2010.06.03 17:01:31.
