data_PCOD9488070
_publ_section_title
;
Structure prediction by ZEFSAII (Michael W. Deem and Ramdas Pophale) SiO2 
 PCOD9488070
Probable space group: C M M M
;
_chemical_formula_sum "Si O2"
_cell_formula_units_Z 88
_cell_length_a 21.307604
_cell_length_b 22.724597
_cell_length_c 8.495610
_cell_angle_alpha 90.000000
_cell_angle_beta 90.000000
_cell_angle_gamma 90.000000
_cell_volume 4113.631401
_symmetry_space_group_name_H-M "C M M M"
_symmetry_group_IT_number 65
_symmetry_cell_setting 'orthorhombic'
loop_
_space_group_symop_operation_xyz
x,y,z
-x,-y,z
x,-y,-z
-x,y,-z
-x,-y,-z
x,y,-z
-x,y,z
x,-y,z
1/2+x,1/2+y,z
1/2-x,1/2-y,z
1/2+x,1/2-y,-z
1/2-x,1/2+y,-z
1/2-x,1/2-y,-z
1/2+x,1/2+y,-z
1/2-x,1/2+y,z
1/2+x,1/2-y,z
loop_
_atom_site_type_symbol
_atom_site_label
_atom_site_fract_x
_atom_site_fract_y
_atom_site_fract_z
Si Si1 0.680041 0.722537 0.666157
Si Si2 0.886035 0.347158 0.675707
Si Si3 0.568444 0.181957 0.000000
Si Si4 0.679743 0.277827 0.000000
Si Si5 0.364245 0.570473 0.824866
Si Si6 0.770036 0.565769 0.317433
Si Si7 0.425999 0.570920 0.500000
O O1 0.673490 0.690600 0.500000
O O2 0.750000 0.750000 0.666388
O O3 0.633911 0.778570 0.666413
O O4 0.672238 0.690904 0.832424
O O5 0.911257 0.362704 0.500000
O O6 0.822804 0.385003 0.700270
O O7 0.925523 0.353392 0.835503
O O8 0.500000 0.211647 0.000000
O O9 0.627566 0.226328 0.000000
O O10 0.750000 0.250000 0.000000
O O11 0.378261 0.500000 0.827366
O O12 0.289404 0.573331 0.793531
O O13 0.398395 0.593260 0.666733
O O14 0.382211 0.592014 0.000000
O O15 0.748307 0.567970 0.500000
O O16 0.796560 0.500000 0.292327
O O17 0.414819 0.500000 0.500000
O O18 0.500000 0.581845 0.500000
#
# Coordination Sequence:
#
# PCOD9488070 Si02
#       7
#    16  16   8   8  16  16   8
#     4   8  13  23  40  62  89 117 137 175 226 272
#     4   9  18  30  45  67  92 123 155 195 237 292
#     4  10  20  32  47  70 100 129 157 193 241 293
#     4   8  14  26  44  65  91 122 148 179 221 272
#     4   9  16  25  38  57  80 109 141 181 232 278
#     4   9  16  28  45  63  87 118 154 203 252 290
#     4   9  16  26  38  54  82 114 142 177 225 287
#
# _framework density 21.392291
#
# number of rings (size 3 to 8) (size 9 to 14) (size 15 to 20)
#    0.000    3.182    0.909    0.000    1.273    0.727 
#    0.000    1.818    0.000    1.091    0.000    2.545 
#    0.000   23.273    2.182    0.000    0.000    0.000 
#
# Total GULP energy -245156.593515 kJ/mol
# GULP energy per Si atom -5571.740762 kJ/mol
# Density = 2.134360 g / cm^3
# Si number density = 21.392291 Si / 1000 Ang^3
#
#
#
# Elastic Constant Matrix: (Units=GPa)
#
#
# Indices 1 2 3 4 5 6 
#
# 1 58.0296 0.2152 57.6651 0.0000 0.0000 0.0000
# 2 0.2152 52.9934 27.4344 0.0000 0.0000 0.0000
# 3 57.6651 27.4344 258.0518 0.0000 0.0000 0.0000
# 4 0.0000 0.0000 0.0000 28.5497 0.0000 0.0000
# 5 0.0000 0.0000 0.0000 0.0000 -11.7688 0.0000
# 6 0.0000 0.0000 0.0000 0.0000 0.0000 12.9049
#
#
#
# Elastic Compliance Matrix: (Units=1/GPa)
#
#
# Indices 1 2 3 4 5 6 
#
# 1 0.022500 0.002658 -0.005310 0.000000 0.000000 0.000000
# 2 0.002658 0.020283 -0.002750 0.000000 0.000000 0.000000
# 3 -0.005310 -0.002750 0.005354 0.000000 0.000000 0.000000
# 4 0.000000 0.000000 0.000000 0.035027 0.000000 0.000000
# 5 0.000000 0.000000 0.000000 0.000000 -0.084970 0.000000
# 6 0.000000 0.000000 0.000000 0.000000 0.000000 0.077490
#
#
# Mechanical properties :
#
#
# Convention : Reuss Voigt Hill
#
# Bulk Modulus (GPa) = 26.78704 59.96714 43.37709
# Shear Modulus (GPa) = 50.53899 24.85449 37.69674
#
# Velocity S-wave (km/s) = 4.86581 3.41228 4.20237
# Velocity P-wave (km/s) = 6.64208 6.60438 6.62326
#
# Compressibility (1/GPa) = 0.03733148
#
# Stress axis : x y z
#
# Youngs Moduli (GPa) = 44.44484 49.30168 186.76664
#
# Poissons Ratio (x) = -0.13103 0.99181
# Poissons Ratio (y) = -0.11813 0.51367
# Poissons Ratio (z) = 0.23602 0.13559
#
# Static dielectric constant tensor:
#      x y z
#    x 1.721610 0.000000 0.000000 
#    y 0.000000 1.865890 0.000000 
#    z 0.000000 0.000000 1.872300 
# 
# From -- ./inp_files/11863.got.cif
#   From: 2010.05.17/outbox.cif.g08.bks.cpg/sg65_6_cif.got.tgz:11863.got - 2010.06.03 17:01:31.
