data_PCOD9488696
_publ_section_title
;
Structure prediction by ZEFSAII (Michael W. Deem and Ramdas Pophale) SiO2 
 PCOD9488696
Probable space group: C M M M
;
_chemical_formula_sum "Si O2"
_cell_formula_units_Z 120
_cell_length_a 27.105772
_cell_length_b 28.654775
_cell_length_c 9.067254
_cell_angle_alpha 90.000000
_cell_angle_beta 90.000000
_cell_angle_gamma 90.000000
_cell_volume 7042.625021
_symmetry_space_group_name_H-M "C M M M"
_symmetry_group_IT_number 65
_symmetry_cell_setting 'orthorhombic'
loop_
_space_group_symop_operation_xyz
x,y,z
-x,-y,z
x,-y,-z
-x,y,-z
-x,-y,-z
x,y,-z
-x,y,z
x,-y,z
1/2+x,1/2+y,z
1/2-x,1/2-y,z
1/2+x,1/2-y,-z
1/2-x,1/2+y,-z
1/2-x,1/2-y,-z
1/2+x,1/2+y,-z
1/2-x,1/2+y,z
1/2+x,1/2-y,z
loop_
_atom_site_type_symbol
_atom_site_label
_atom_site_fract_x
_atom_site_fract_y
_atom_site_fract_z
Si Si1 0.237987 0.196810 0.677084
Si Si2 0.556691 0.305535 0.176543
Si Si3 0.196412 0.391365 0.675353
Si Si4 0.500000 0.053481 0.820448
Si Si5 0.405625 0.885628 0.823406
Si Si6 0.704044 0.446151 0.677052
Si Si7 0.559366 0.207569 0.671252
Si Si8 0.848252 0.861589 0.176219
O O1 0.229794 0.195037 0.500000
O O2 0.250000 0.250000 0.718090
O O3 0.282415 0.160519 0.709000
O O4 0.190233 0.175980 0.757563
O O5 0.500000 0.317299 0.215010
O O6 0.570462 0.257653 0.258193
O O7 0.596599 0.344827 0.212720
O O8 0.558532 0.297492 0.000000
O O9 0.186865 0.393581 0.500000
O O10 0.146927 0.401888 0.762732
O O11 0.241168 0.426538 0.710286
O O12 0.549131 0.081209 0.774858
O O13 0.500000 0.000000 0.769899
O O14 0.500000 0.053074 0.000000
O O15 0.415855 0.834393 0.758807
O O16 0.405351 0.884073 0.000000
O O17 0.698060 0.442338 0.500000
O O18 0.698817 0.500000 0.719707
O O19 0.666427 0.411141 0.755169
O O20 0.574019 0.206292 0.500000
O O21 0.500000 0.201508 0.680312
O O22 0.842846 0.863037 0.000000
#
# Coordination Sequence:
#
# PCOD9488696 Si02
#       8
#    16  16  16   8  16  16  16  16
#     4   9  19  35  52  72 104 147 181 212 262 319
#     4   9  19  35  53  77 112 148 179 211 256 313
#     4   9  19  34  51  76 105 133 172 219 262 313
#     4   9  20  38  55  71  95 133 177 217 264 321
#     4  11  21  34  53  74 102 137 172 218 270 321
#     4   9  19  38  61  80 103 139 177 216 268 325
#     4  10  20  33  51  74 101 136 179 221 257 302
#     4  10  20  33  53  83 111 138 175 222 264 307
#
# _framework density 17.039100999999999
#
# number of rings (size 3 to 8) (size 9 to 14) (size 15 to 20)
#    0.000    2.467    0.667    2.000    1.867    4.800 
#    0.000    0.000    0.000    3.200    0.000    2.800 
#    0.000    0.000    0.000    0.000    0.000    0.000 
#
# Total GULP energy -334760.303012 kJ/mol
# GULP energy per Si atom -5579.338384 kJ/mol
# Density = 1.700032 g / cm^3
# Si number density = 17.039101 Si / 1000 Ang^3
#
#
#
# Elastic Constant Matrix: (Units=GPa)
#
#
# Indices 1 2 3 4 5 6 
#
# 1 112.7519 77.8806 49.3657 0.0000 0.0000 0.0000
# 2 77.8806 146.3802 46.2603 0.0000 0.0000 0.0000
# 3 49.3657 46.2603 39.0079 0.0000 0.0000 0.0000
# 4 0.0000 0.0000 0.0000 18.6208 0.0000 0.0000
# 5 0.0000 0.0000 0.0000 0.0000 25.1794 0.0000
# 6 0.0000 0.0000 0.0000 0.0000 0.0000 11.6130
#
#
#
# Elastic Compliance Matrix: (Units=1/GPa)
#
#
# Indices 1 2 3 4 5 6 
#
# 1 0.021648 -0.004574 -0.021972 0.000000 0.000000 0.000000
# 2 -0.004574 0.011893 -0.008316 0.000000 0.000000 0.000000
# 3 -0.021972 -0.008316 0.063304 0.000000 0.000000 0.000000
# 4 0.000000 0.000000 0.000000 0.053704 0.000000 0.000000
# 5 0.000000 0.000000 0.000000 0.000000 0.039715 0.000000
# 6 0.000000 0.000000 0.000000 0.000000 0.000000 0.086110
#
#
# Mechanical properties :
#
#
# Convention : Reuss Voigt Hill
#
# Bulk Modulus (GPa) = 36.87089 71.68368 54.27728
# Shear Modulus (GPa) = 14.07898 19.39153 16.73526
#
# Velocity S-wave (km/s) = 2.87762 3.37718 3.13736
# Velocity P-wave (km/s) = 5.72074 7.57420 6.71176
#
# Compressibility (1/GPa) = 0.02712167
#
# Stress axis : x y z
#
# Youngs Moduli (GPa) = 46.19260 84.08225 15.79672
#
# Poissons Ratio (x) = 0.38460 0.34709
# Poissons Ratio (y) = 0.21129 0.13136
# Poissons Ratio (z) = 1.01496 0.69920
#
# Static dielectric constant tensor:
#      x y z
#    x 1.575070 0.000000 0.000000 
#    y 0.000000 1.557620 0.000000 
#    z 0.000000 0.000000 1.568690 
# 
# From -- ./inp_files/17086.got.cif
#   From: 2010.05.17/outbox.cif.g08.bks.cpg/sg65_9_cif.got.tgz:17086.got - 2010.06.03 17:01:31.
