data_PCOD9488329
_publ_section_title
;
Structure prediction by ZEFSAII (Michael W. Deem and Ramdas Pophale) SiO2 
 PCOD9488329
Probable space group: C M M M
;
_chemical_formula_sum "Si O2"
_cell_formula_units_Z 90
_cell_length_a 28.771152
_cell_length_b 8.071892
_cell_length_c 21.567937
_cell_angle_alpha 90.000000
_cell_angle_beta 90.000000
_cell_angle_gamma 90.000000
_cell_volume 5008.886609
_symmetry_space_group_name_H-M "C M M M"
_symmetry_group_IT_number 65
_symmetry_cell_setting 'orthorhombic'
loop_
_space_group_symop_operation_xyz
x,y,z
-x,-y,z
x,-y,-z
-x,y,-z
-x,-y,-z
x,y,-z
-x,y,z
x,-y,z
1/2+x,1/2+y,z
1/2-x,1/2-y,z
1/2+x,1/2-y,-z
1/2-x,1/2+y,-z
1/2-x,1/2-y,-z
1/2+x,1/2+y,-z
1/2-x,1/2+y,z
1/2+x,1/2-y,z
loop_
_atom_site_type_symbol
_atom_site_label
_atom_site_fract_x
_atom_site_fract_y
_atom_site_fract_z
Si Si1 0.199372 0.803270 0.247387
Si Si2 0.896824 0.810140 0.812019
Si Si3 0.500000 0.000000 0.000000
Si Si4 0.945438 0.691673 0.692252
Si Si5 0.601611 0.306864 0.568355
Si Si6 0.802027 0.307975 0.611825
Si Si7 0.948259 0.500000 0.871714
O O1 0.250000 0.750000 0.223961
O O2 0.157228 0.769541 0.200847
O O3 0.192115 0.715938 0.313846
O O4 0.199559 0.000000 0.259936
O O5 0.920253 0.800702 0.743966
O O6 0.921446 0.666887 0.851815
O O7 0.901334 0.000000 0.835445
O O8 0.539729 0.000000 0.055585
O O9 0.938621 0.500000 0.710536
O O10 0.923285 0.717370 0.625025
O O11 0.000000 0.728315 0.690352
O O12 0.589578 0.242353 0.500000
O O13 0.588961 0.500000 0.571413
O O14 0.656850 0.289857 0.578842
O O15 0.807230 0.500000 0.596392
O O16 0.750000 0.250000 0.596464
O O17 0.000000 0.500000 0.840511
#
# Coordination Sequence:
#
# PCOD9488329 Si02
#       7
#    16  16   2  16  16  16   8
#     4  10  20  32  52  85 123 157 197 250 314 369
#     4  11  22  36  61  95 128 165 207 256 308 363
#     4   8  24  48  66 104 140 174 222 248 282 356
#     4  11  23  38  57  82 111 147 194 255 309 367
#     4  11  24  40  55  73 102 143 195 253 314 380
#     4  11  21  34  54  75 103 143 186 240 308 369
#     4  10  22  42  66  94 135 170 210 247 293 354
#
# _framework density 17.968064999999999
#
# number of rings (size 3 to 8) (size 9 to 14) (size 15 to 20)
#    0.267    1.067    2.667    4.800    2.489    4.622 
#    0.000    2.667    0.000    0.000    0.000    0.622 
#    0.000    0.000    0.000    0.000    0.000    0.000 
#
# Total GULP energy -251072.485108 kJ/mol
# GULP energy per Si atom -5579.388558 kJ/mol
# Density = 1.792717 g / cm^3
# Si number density = 17.968065 Si / 1000 Ang^3
#
#
#
# Elastic Constant Matrix: (Units=GPa)
#
#
# Indices 1 2 3 4 5 6 
#
# 1 86.9415 30.2237 30.2885 0.0000 0.0000 0.0000
# 2 30.2237 66.4969 27.7805 0.0000 0.0000 0.0000
# 3 30.2885 27.7805 85.1794 0.0000 0.0000 0.0000
# 4 0.0000 0.0000 0.0000 4.0962 0.0000 0.0000
# 5 0.0000 0.0000 0.0000 0.0000 13.9922 0.0000
# 6 0.0000 0.0000 0.0000 0.0000 0.0000 20.5281
#
#
#
# Elastic Compliance Matrix: (Units=1/GPa)
#
#
# Indices 1 2 3 4 5 6 
#
# 1 0.014500 -0.005136 -0.003481 0.000000 0.000000 0.000000
# 2 -0.005136 0.019230 -0.004445 0.000000 0.000000 0.000000
# 3 -0.003481 -0.004445 0.014427 0.000000 0.000000 0.000000
# 4 0.000000 0.000000 0.000000 0.244127 0.000000 0.000000
# 5 0.000000 0.000000 0.000000 0.000000 0.071468 0.000000
# 6 0.000000 0.000000 0.000000 0.000000 0.000000 0.048714
#
#
# Mechanical properties :
#
#
# Convention : Reuss Voigt Hill
#
# Bulk Modulus (GPa) = 45.38719 46.13367 45.76043
# Shear Modulus (GPa) = 11.21238 17.74500 14.47869
#
# Velocity S-wave (km/s) = 2.50074 3.14600 2.84174
# Velocity P-wave (km/s) = 5.80113 6.23919 6.02414
#
# Compressibility (1/GPa) = 0.02203265
#
# Stress axis : x y z
#
# Youngs Moduli (GPa) = 68.96464 52.00232 69.31224
#
# Poissons Ratio (x) = 0.26710 0.24127
# Poissons Ratio (y) = 0.35422 0.30811
# Poissons Ratio (z) = 0.24006 0.23116
#
# Static dielectric constant tensor:
#      x y z
#    x 1.635040 0.000000 0.000000 
#    y 0.000000 1.625200 0.000000 
#    z 0.000000 0.000000 1.588610 
# 
# From -- ./inp_files/66293.got.cif
#   From: 2010.05.17/outbox.cif.g08.bks.cpg/sg65_34_cif.got.tgz:66293.got - 2010.06.03 17:01:31.
