data_PCOD9488965
_publ_section_title
;
Structure prediction by ZEFSAII (Michael W. Deem and Ramdas Pophale) SiO2 
 PCOD9488965
Probable space group: C M M M
;
_chemical_formula_sum "Si O2"
_cell_formula_units_Z 72
_cell_length_a 8.739946
_cell_length_b 15.410716
_cell_length_c 26.490912
_cell_angle_alpha 90.000000
_cell_angle_beta 90.000000
_cell_angle_gamma 90.000000
_cell_volume 3568.029828
_symmetry_space_group_name_H-M "C M M M"
_symmetry_group_IT_number 65
_symmetry_cell_setting 'orthorhombic'
loop_
_space_group_symop_operation_xyz
x,y,z
-x,-y,z
x,-y,-z
-x,y,-z
-x,-y,-z
x,y,-z
-x,y,z
x,-y,z
1/2+x,1/2+y,z
1/2-x,1/2-y,z
1/2+x,1/2-y,-z
1/2-x,1/2+y,-z
1/2-x,1/2-y,-z
1/2+x,1/2+y,-z
1/2-x,1/2+y,z
1/2+x,1/2-y,z
loop_
_atom_site_type_symbol
_atom_site_label
_atom_site_fract_x
_atom_site_fract_y
_atom_site_fract_z
Si Si1 0.184715 0.848349 0.731902
Si Si2 0.183226 0.652047 0.626652
Si Si3 0.317962 0.500000 0.439962
Si Si4 0.173352 0.603434 0.945406
Si Si5 0.318138 0.654237 0.840838
O O1 0.250000 0.750000 0.733529
O O2 0.258089 0.884072 0.680897
O O3 0.225226 0.888471 0.786749
O O4 0.000000 0.847268 0.726973
O O5 0.250000 0.750000 0.620319
O O6 0.243854 0.585593 0.584806
O O7 0.000000 0.656862 0.626608
O O8 0.500000 0.500000 0.429631
O O9 0.294965 0.500000 0.500000
O O10 0.162706 0.500000 0.949194
O O11 0.263195 0.618851 0.894209
O O12 0.000000 0.638526 0.940120
O O13 0.235976 0.634795 0.000000
O O14 0.500000 0.657209 0.841128
O O15 0.250000 0.750000 0.839049
#
# Coordination Sequence:
#
# PCOD9488965 Si02
#       5
#    16  16   8  16  16
#     4   9  17  32  54  81 113 149 187 232 284 342
#     4  11  22  39  65  94 126 166 208 251 305 364
#     4  11  25  45  67  93 127 165 208 259 306 351
#     4   9  19  36  54  71  97 136 179 226 280 337
#     4  10  20  33  53  80 108 140 178 226 280 333
#
# _framework density 20.179203000000001
#
# number of rings (size 3 to 8) (size 9 to 14) (size 15 to 20)
#    0.000    2.111    0.000    5.667    0.000    5.333 
#    2.000    1.111    0.000    0.000    0.000    0.000 
#    0.000    0.000    0.000    0.000    0.000    0.000 
#
# Total GULP energy -200674.147835 kJ/mol
# GULP energy per Si atom -5574.281884 kJ/mol
# Density = 2.013327 g / cm^3
# Si number density = 20.179203 Si / 1000 Ang^3
#
#
#
# Elastic Constant Matrix: (Units=GPa)
#
#
# Indices 1 2 3 4 5 6 
#
# 1 124.9479 33.6436 93.5066 0.0000 0.0000 0.0000
# 2 33.6436 63.8466 56.1643 0.0000 0.0000 0.0000
# 3 93.5066 56.1643 191.5842 0.0000 0.0000 0.0000
# 4 0.0000 0.0000 0.0000 40.2691 0.0000 0.0000
# 5 0.0000 0.0000 0.0000 0.0000 34.0745 0.0000
# 6 0.0000 0.0000 0.0000 0.0000 0.0000 22.1053
#
#
#
# Elastic Compliance Matrix: (Units=1/GPa)
#
#
# Indices 1 2 3 4 5 6 
#
# 1 0.012740 -0.001676 -0.005727 0.000000 0.000000 0.000000
# 2 -0.001676 0.021326 -0.005434 0.000000 0.000000 0.000000
# 3 -0.005727 -0.005434 0.009608 0.000000 0.000000 0.000000
# 4 0.000000 0.000000 0.000000 0.024833 0.000000 0.000000
# 5 0.000000 0.000000 0.000000 0.000000 0.029347 0.000000
# 6 0.000000 0.000000 0.000000 0.000000 0.000000 0.045238
#
#
# Mechanical properties :
#
#
# Convention : Reuss Voigt Hill
#
# Bulk Modulus (GPa) = 55.55327 83.00085 69.27706
# Shear Modulus (GPa) = 28.60978 32.42740 30.51859
#
# Velocity S-wave (km/s) = 3.76943 4.01305 3.89315
# Velocity P-wave (km/s) = 6.82163 7.91795 7.39015
#
# Compressibility (1/GPa) = 0.01800074
#
# Stress axis : x y z
#
# Youngs Moduli (GPa) = 78.49059 46.89204 104.08192
#
# Poissons Ratio (x) = 0.07857 0.59608
# Poissons Ratio (y) = 0.13152 0.56558
# Poissons Ratio (z) = 0.44952 0.25481
#
# Static dielectric constant tensor:
#      x y z
#    x 1.696460 0.000000 0.000000 
#    y 0.000000 1.738990 0.000000 
#    z 0.000000 0.000000 1.791280 
# 
# From -- ./inp_files/70341.got.cif
#   From: 2010.05.17/outbox.cif.g08.bks.cpg/sg65_36_cif.got.tgz:70341.got - 2010.06.03 17:01:31.
