data_PCOD9488355
_publ_section_title
;
Structure prediction by ZEFSAII (Michael W. Deem and Ramdas Pophale) SiO2 
 PCOD9488355
Probable space group: C M M M
;
_chemical_formula_sum "Si O2"
_cell_formula_units_Z 80
_cell_length_a 20.129126
_cell_length_b 25.664776
_cell_length_c 8.402380
_cell_angle_alpha 90.000000
_cell_angle_beta 90.000000
_cell_angle_gamma 90.000000
_cell_volume 4340.749414
_symmetry_space_group_name_H-M "C M M M"
_symmetry_group_IT_number 65
_symmetry_cell_setting 'orthorhombic'
loop_
_space_group_symop_operation_xyz
x,y,z
-x,-y,z
x,-y,-z
-x,y,-z
-x,-y,-z
x,y,-z
-x,y,z
x,-y,z
1/2+x,1/2+y,z
1/2-x,1/2-y,z
1/2+x,1/2-y,-z
1/2-x,1/2+y,-z
1/2-x,1/2-y,-z
1/2+x,1/2+y,-z
1/2-x,1/2+y,z
1/2+x,1/2-y,z
loop_
_atom_site_type_symbol
_atom_site_label
_atom_site_fract_x
_atom_site_fract_y
_atom_site_fract_z
Si Si1 0.642808 0.740684 0.688909
Si Si2 0.742335 0.171693 0.188522
Si Si3 0.378961 0.558336 0.820385
Si Si4 0.500000 0.382802 0.318537
Si Si5 0.500000 0.727698 0.813007
Si Si6 0.262448 0.058278 0.315391
O O1 0.633770 0.734891 0.500000
O O2 0.691700 0.788815 0.726536
O O3 0.683800 0.689798 0.752776
O O4 0.572043 0.751971 0.772843
O O5 0.721076 0.112405 0.228240
O O6 0.740222 0.180008 0.000000
O O7 0.407599 0.500000 0.819871
O O8 0.435530 0.596999 0.770732
O O9 0.317308 0.558569 0.702456
O O10 0.353980 0.569002 0.000000
O O11 0.500000 0.400954 0.500000
O O12 0.500000 0.321533 0.303476
O O13 0.500000 0.713736 0.000000
O O14 0.281732 0.061847 0.500000
O O15 0.283398 0.000000 0.255336
#
# Coordination Sequence:
#
# PCOD9488355 Si02
#       6
#    16  16  16   8   8  16
#     4  11  22  38  58  81 109 142 181 223 269 320
#     4  11  21  36  57  82 111 144 181 221 269 320
#     4  10  20  33  47  65  92 128 170 214 258 303
#     4  12  23  33  46  65  92 129 171 212 255 304
#     4  12  24  39  55  76 105 136 174 218 267 318
#     4  10  20  34  52  75 103 135 172 215 262 311
#
# _framework density 18.429997
#
# number of rings (size 3 to 8) (size 9 to 14) (size 15 to 20)
#    0.000    1.200    0.000    9.300    0.000    3.600 
#    0.000    0.000    0.000    0.000    0.000    0.700 
#    0.000    5.600    0.000    0.000    0.000    0.000 
#
# Total GULP energy -223149.694899 kJ/mol
# GULP energy per Si atom -5578.742372 kJ/mol
# Density = 1.838805 g / cm^3
# Si number density = 18.429997 Si / 1000 Ang^3
#
#
#
# Elastic Constant Matrix: (Units=GPa)
#
#
# Indices 1 2 3 4 5 6 
#
# 1 69.0845 10.7927 5.4657 0.0000 0.0000 0.0000
# 2 10.7927 86.4958 4.7605 0.0000 0.0000 0.0000
# 3 5.4657 4.7605 90.4863 0.0000 0.0000 0.0000
# 4 0.0000 0.0000 0.0000 25.9493 0.0000 0.0000
# 5 0.0000 0.0000 0.0000 0.0000 20.0064 0.0000
# 6 0.0000 0.0000 0.0000 0.0000 0.0000 31.1288
#
#
#
# Elastic Compliance Matrix: (Units=1/GPa)
#
#
# Indices 1 2 3 4 5 6 
#
# 1 0.014820 -0.001805 -0.000800 0.000000 0.000000 0.000000
# 2 -0.001805 0.011815 -0.000513 0.000000 0.000000 0.000000
# 3 -0.000800 -0.000513 0.011127 0.000000 0.000000 0.000000
# 4 0.000000 0.000000 0.000000 0.038537 0.000000 0.000000
# 5 0.000000 0.000000 0.000000 0.000000 0.049984 0.000000
# 6 0.000000 0.000000 0.000000 0.000000 0.000000 0.032125
#
#
# Mechanical properties :
#
#
# Convention : Reuss Voigt Hill
#
# Bulk Modulus (GPa) = 31.72001 32.01160 31.86580
# Shear Modulus (GPa) = 28.54670 30.42009 29.48340
#
# Velocity S-wave (km/s) = 3.93991 4.06713 4.00403
# Velocity P-wave (km/s) = 6.16000 6.28191 6.22126
#
# Compressibility (1/GPa) = 0.03152584
#
# Stress axis : x y z
#
# Youngs Moduli (GPa) = 67.47482 84.64030 89.87396
#
# Poissons Ratio (x) = 0.15279 0.07192
# Poissons Ratio (y) = 0.12180 0.04606
# Poissons Ratio (z) = 0.05400 0.04338
#
# Static dielectric constant tensor:
#      x y z
#    x 1.622250 0.000000 0.000000 
#    y 0.000000 1.694730 0.000000 
#    z 0.000000 0.000000 1.615740 
# 
# From -- ./inp_files/12122.got.cif
#   From: 2010.05.17/outbox.cif.g08.bks.cpg/sg65_7_cif.got.tgz:12122.got - 2010.06.03 17:01:31.
