data_PCOD9488175
_publ_section_title
;
Structure prediction by ZEFSAII (Michael W. Deem and Ramdas Pophale) SiO2 
 PCOD9488175
Probable space group: C M M M
;
_chemical_formula_sum "Si O2"
_cell_formula_units_Z 104
_cell_length_a 9.323115
_cell_length_b 28.042375
_cell_length_c 23.516362
_cell_angle_alpha 90.000000
_cell_angle_beta 90.000000
_cell_angle_gamma 90.000000
_cell_volume 6148.171463
_symmetry_space_group_name_H-M "C M M M"
_symmetry_group_IT_number 65
_symmetry_cell_setting 'orthorhombic'
loop_
_space_group_symop_operation_xyz
x,y,z
-x,-y,z
x,-y,-z
-x,y,-z
-x,-y,-z
x,y,-z
-x,y,z
x,-y,z
1/2+x,1/2+y,z
1/2-x,1/2-y,z
1/2+x,1/2-y,-z
1/2-x,1/2+y,-z
1/2-x,1/2-y,-z
1/2+x,1/2+y,-z
1/2-x,1/2+y,z
1/2+x,1/2-y,z
loop_
_atom_site_type_symbol
_atom_site_label
_atom_site_fract_x
_atom_site_fract_y
_atom_site_fract_z
Si Si1 0.159095 0.000000 0.431411
Si Si2 0.837784 0.127770 0.859650
Si Si3 0.834202 0.298849 0.068464
Si Si4 0.162366 0.204364 0.241740
Si Si5 0.827285 0.943512 0.236371
Si Si6 0.329216 0.132637 0.316003
Si Si7 0.669379 0.094520 0.435331
O O1 0.245385 0.952723 0.417885
O O2 0.148003 0.000000 0.500000
O O3 0.000000 0.000000 0.406304
O O4 0.736461 0.153718 0.904960
O O5 0.843885 0.166399 0.808914
O O6 0.792939 0.079836 0.825671
O O7 0.000000 0.121407 0.882251
O O8 0.750000 0.250000 0.083939
O O9 0.000000 0.294538 0.086734
O O10 0.829674 0.302137 0.000000
O O11 0.250000 0.250000 0.222732
O O12 0.250423 0.178532 0.291173
O O13 0.000000 0.216358 0.258465
O O14 0.741899 0.912787 0.283484
O O15 0.000000 0.936614 0.244384
O O16 0.797326 0.000000 0.239141
O O17 0.500000 0.133011 0.304613
O O18 0.306815 0.130338 0.383745
O O19 0.710447 0.108566 0.500000
O O20 0.500000 0.083397 0.436472
#
# Coordination Sequence:
#
# PCOD9488175 Si02
#       7
#     8  16  16  16  16  16  16
#     4   9  17  27  41  63  87 115 153 191 228 275
#     4   9  18  32  51  74  98 128 164 198 239 288
#     4  10  20  32  48  73 104 135 165 199 241 286
#     4  10  20  34  52  74 100 127 158 199 246 291
#     4   9  19  35  52  71  98 131 164 204 250 290
#     4  10  20  32  49  73  97 125 163 200 241 294
#     4   9  18  32  47  64  92 127 159 195 240 290
#
# _framework density 16.915597999999999
#
# number of rings (size 3 to 8) (size 9 to 14) (size 15 to 20)
#    0.000    2.538    0.000    3.000    1.077    7.692 
#    0.000    0.000    0.000    0.923    0.000    3.231 
#    0.000    0.000    0.000    0.000    0.000    0.000 
#
# Total GULP energy -289699.019457 kJ/mol
# GULP energy per Si atom -5571.134990 kJ/mol
# Density = 1.687710 g / cm^3
# Si number density = 16.915598 Si / 1000 Ang^3
#
#
#
# Elastic Constant Matrix: (Units=GPa)
#
#
# Indices 1 2 3 4 5 6 
#
# 1 63.3077 16.3115 33.1551 0.0000 0.0000 0.0000
# 2 16.3115 43.2645 8.9103 0.0000 0.0000 0.0000
# 3 33.1551 8.9103 52.7569 0.0000 0.0000 0.0000
# 4 0.0000 0.0000 0.0000 20.3714 0.0000 0.0000
# 5 0.0000 0.0000 0.0000 0.0000 19.9526 0.0000
# 6 0.0000 0.0000 0.0000 0.0000 0.0000 24.7829
#
#
#
# Elastic Compliance Matrix: (Units=1/GPa)
#
#
# Indices 1 2 3 4 5 6 
#
# 1 0.025174 -0.006457 -0.014730 0.000000 0.000000 0.000000
# 2 -0.006457 0.025603 -0.000266 0.000000 0.000000 0.000000
# 3 -0.014730 -0.000266 0.028257 0.000000 0.000000 0.000000
# 4 0.000000 0.000000 0.000000 0.049088 0.000000 0.000000
# 5 0.000000 0.000000 0.000000 0.000000 0.050119 0.000000
# 6 0.000000 0.000000 0.000000 0.000000 0.000000 0.040350
#
#
# Mechanical properties :
#
#
# Convention : Reuss Voigt Hill
#
# Bulk Modulus (GPa) = 27.68012 30.67586 29.17799
# Shear Modulus (GPa) = 18.27884 19.75153 19.01519
#
# Velocity S-wave (km/s) = 3.29080 3.42080 3.35643
# Velocity P-wave (km/s) = 5.55323 5.81176 5.68396
#
# Compressibility (1/GPa) = 0.03612701
#
# Stress axis : x y z
#
# Youngs Moduli (GPa) = 39.72367 39.05793 35.38963
#
# Poissons Ratio (x) = 0.25221 0.52129
# Poissons Ratio (y) = 0.25651 0.00942
# Poissons Ratio (z) = 0.58513 0.01039
#
# Static dielectric constant tensor:
#      x y z
#    x 1.590450 0.000000 0.000000 
#    y 0.000000 1.573390 0.000000 
#    z 0.000000 0.000000 1.588920 
# 
# From -- ./inp_files/68253.got.cif
#   From: 2010.05.17/outbox.cif.g08.bks.cpg/sg65_35_cif.got.tgz:68253.got - 2010.06.03 17:01:31.
