data_PCOD9488577
_publ_section_title
;
Structure prediction by ZEFSAII (Michael W. Deem and Ramdas Pophale) SiO2 
 PCOD9488577
Probable space group: C M M M
;
_chemical_formula_sum "Si O2"
_cell_formula_units_Z 88
_cell_length_a 14.405527
_cell_length_b 9.249541
_cell_length_c 29.425018
_cell_angle_alpha 90.000000
_cell_angle_beta 90.000000
_cell_angle_gamma 90.000000
_cell_volume 3920.722182
_symmetry_space_group_name_H-M "C M M M"
_symmetry_group_IT_number 65
_symmetry_cell_setting 'orthorhombic'
loop_
_space_group_symop_operation_xyz
x,y,z
-x,-y,z
x,-y,-z
-x,y,-z
-x,-y,-z
x,y,-z
-x,y,z
x,-y,z
1/2+x,1/2+y,z
1/2-x,1/2-y,z
1/2+x,1/2-y,-z
1/2-x,1/2+y,-z
1/2-x,1/2-y,-z
1/2+x,1/2+y,-z
1/2-x,1/2+y,z
1/2+x,1/2-y,z
loop_
_atom_site_type_symbol
_atom_site_label
_atom_site_fract_x
_atom_site_fract_y
_atom_site_fract_z
Si Si1 0.113414 0.165290 0.090675
Si Si2 0.849497 0.173055 0.450021
Si Si3 0.386678 0.165110 0.818728
Si Si4 0.613701 0.334986 0.727960
Si Si5 0.113404 0.665292 0.000000
Si Si6 0.892265 0.338786 0.640565
O O1 0.141255 0.249363 0.136116
O O2 0.000000 0.161587 0.090684
O O3 0.146072 0.000000 0.090523
O O4 0.141156 0.250201 0.045374
O O5 0.893402 0.197914 0.500000
O O6 0.750000 0.250000 0.452374
O O7 0.891185 0.248353 0.405900
O O8 0.843495 0.000000 0.443978
O O9 0.500000 0.161087 0.818915
O O10 0.359534 0.248652 0.773114
O O11 0.353675 0.000000 0.818965
O O12 0.500000 0.340050 0.727548
O O13 0.646598 0.500000 0.728757
O O14 0.645632 0.252405 0.682689
O O15 0.146084 0.500000 0.000000
O O16 0.000000 0.661554 0.000000
O O17 0.850523 0.500000 0.635063
O O18 0.000000 0.358151 0.651895
#
# Coordination Sequence:
#
# PCOD9488577 Si02
#       6
#    16  16  16  16   8  16
#     4   9  15  21  28  38  53  76 109 150 197 248
#     4  10  21  37  56  76  99 128 161 196 234 278
#     4   9  15  22  32  46  65  90 121 158 203 255
#     4   9  16  26  40  58  81 108 138 174 217 264
#     4   9  15  21  27  35  49  71 103 147 198 247
#     4  10  20  33  50  73 100 128 158 194 236 280
#
# _framework density 22.444844
#
# number of rings (size 3 to 8) (size 9 to 14) (size 15 to 20)
#    0.000    2.636    0.000    3.000    0.000   10.182 
#    0.000    1.818    0.000    0.000    0.000    0.000 
#    0.000    0.000    0.000    0.000    0.000    0.000 
#
# Total GULP energy -245864.151608 kJ/mol
# GULP energy per Si atom -5587.821627 kJ/mol
# Density = 2.239376 g / cm^3
# Si number density = 22.444844 Si / 1000 Ang^3
#
#
#
# Elastic Constant Matrix: (Units=GPa)
#
#
# Indices 1 2 3 4 5 6 
#
# 1 59.9741 11.7854 5.5136 0.0000 0.0000 0.0000
# 2 11.7854 263.4995 164.4376 0.0000 0.0000 0.0000
# 3 5.5136 164.4376 254.2889 0.0000 0.0000 0.0000
# 4 0.0000 0.0000 0.0000 42.7880 0.0000 0.0000
# 5 0.0000 0.0000 0.0000 0.0000 -49.0706 0.0000
# 6 0.0000 0.0000 0.0000 0.0000 0.0000 6.1592
#
#
#
# Elastic Compliance Matrix: (Units=1/GPa)
#
#
# Indices 1 2 3 4 5 6 
#
# 1 0.016828 -0.000880 0.000204 0.000000 0.000000 0.000000
# 2 -0.000880 0.006409 -0.004125 0.000000 0.000000 0.000000
# 3 0.000204 -0.004125 0.006596 0.000000 0.000000 0.000000
# 4 0.000000 0.000000 0.000000 0.023371 0.000000 0.000000
# 5 0.000000 0.000000 0.000000 0.000000 -0.020379 0.000000
# 6 0.000000 0.000000 0.000000 0.000000 0.000000 0.162358
#
#
# Mechanical properties :
#
#
# Convention : Reuss Voigt Hill
#
# Bulk Modulus (GPa) = 49.43058 104.58175 77.00616
# Shear Modulus (GPa) = 23.63751 26.37704 25.00728
#
# Velocity S-wave (km/s) = 3.24873 3.43183 3.34153
# Velocity P-wave (km/s) = 6.01193 7.89933 7.01935
#
# Compressibility (1/GPa) = 0.02023039
#
# Stress axis : x y z
#
# Youngs Moduli (GPa) = 59.42463 156.03590 151.61404
#
# Poissons Ratio (x) = 0.13733 -0.03097
# Poissons Ratio (y) = 0.05230 0.62544
# Poissons Ratio (z) = -0.01214 0.64368
#
# Static dielectric constant tensor:
#      x y z
#    x 2.172050 0.000000 0.000000 
#    y 0.000000 1.785620 0.000000 
#    z 0.000000 0.000000 1.783990 
# 
# From -- ./inp_files/73073.got.cif
#   From: 2010.05.17/outbox.cif.g08.bks.cpg/sg65_37_cif.got.tgz:73073.got - 2010.06.03 17:01:31.
