data_PCOD9488026
_publ_section_title
;
Structure prediction by ZEFSAII (Michael W. Deem and Ramdas Pophale) SiO2 
 PCOD9488026
Probable space group: C M M M
;
_chemical_formula_sum "Si O2"
_cell_formula_units_Z 80
_cell_length_a 29.122397
_cell_length_b 13.779988
_cell_length_c 12.063204
_cell_angle_alpha 90.000000
_cell_angle_beta 90.000000
_cell_angle_gamma 90.000000
_cell_volume 4841.039536
_symmetry_space_group_name_H-M "C M M M"
_symmetry_group_IT_number 65
_symmetry_cell_setting 'orthorhombic'
loop_
_space_group_symop_operation_xyz
x,y,z
-x,-y,z
x,-y,-z
-x,y,-z
-x,-y,-z
x,y,-z
-x,y,z
x,-y,z
1/2+x,1/2+y,z
1/2-x,1/2-y,z
1/2+x,1/2-y,-z
1/2-x,1/2+y,-z
1/2-x,1/2-y,-z
1/2+x,1/2+y,-z
1/2-x,1/2+y,z
1/2+x,1/2-y,z
loop_
_atom_site_type_symbol
_atom_site_label
_atom_site_fract_x
_atom_site_fract_y
_atom_site_fract_z
Si Si1 0.807286 0.616011 0.271117
Si Si2 0.758854 0.616644 0.500000
Si Si3 0.946589 0.113790 0.867849
Si Si4 0.348716 0.382364 0.500000
Si Si5 0.280986 0.616936 0.127245
Si Si6 0.365456 0.706508 0.735822
O O1 0.814956 0.500000 0.270317
O O2 0.784126 0.646007 0.387845
O O3 0.769089 0.639504 0.177869
O O4 0.852620 0.680101 0.260583
O O5 0.759813 0.500000 0.500000
O O6 0.705580 0.642446 0.500000
O O7 0.910836 0.178640 0.802225
O O8 0.000000 0.133341 0.841927
O O9 0.937495 0.000000 0.842886
O O10 0.940540 0.125755 0.000000
O O11 0.353494 0.500000 0.500000
O O12 0.368589 0.336052 0.388086
O O13 0.284725 0.500000 0.129226
O O14 0.321515 0.656723 0.204202
O O15 0.285617 0.649422 0.000000
#
# Coordination Sequence:
#
# PCOD9488026 Si02
#       6
#    16   8  16   8  16  16
#     4  10  21  34  47  69 102 139 176 211 242 283
#     4   9  17  33  49  64 100 143 175 205 239 283
#     4   9  19  37  59  80 101 126 161 208 260 315
#     4  11  21  31  49  79 108 133 168 211 252 299
#     4  10  20  32  46  69 101 132 165 207 253 301
#     4  12  21  31  53  75  99 135 172 206 250 303
#
# _framework density 16.525376000000001
#
# number of rings (size 3 to 8) (size 9 to 14) (size 15 to 20)
#    0.000    1.800    2.000    4.200    0.000    4.800 
#    0.000    0.500    0.000    2.400    0.000    1.400 
#    0.000    4.000    0.000    0.000    0.000    0.000 
#
# Total GULP energy -223401.384474 kJ/mol
# GULP energy per Si atom -5585.034612 kJ/mol
# Density = 1.648776 g / cm^3
# Si number density = 16.525376 Si / 1000 Ang^3
#
#
#
# Elastic Constant Matrix: (Units=GPa)
#
#
# Indices 1 2 3 4 5 6 
#
# 1 74.4172 38.8664 31.1343 0.0000 0.0000 0.0000
# 2 38.8664 78.9054 29.7553 0.0000 0.0000 0.0000
# 3 31.1343 29.7553 91.1081 0.0000 0.0000 0.0000
# 4 0.0000 0.0000 0.0000 14.7245 0.0000 0.0000
# 5 0.0000 0.0000 0.0000 0.0000 22.1610 0.0000
# 6 0.0000 0.0000 0.0000 0.0000 0.0000 28.5453
#
#
#
# Elastic Compliance Matrix: (Units=1/GPa)
#
#
# Indices 1 2 3 4 5 6 
#
# 1 0.019277 -0.007996 -0.003976 0.000000 0.000000 0.000000
# 2 -0.007996 0.017770 -0.003071 0.000000 0.000000 0.000000
# 3 -0.003976 -0.003071 0.013338 0.000000 0.000000 0.000000
# 4 0.000000 0.000000 0.000000 0.067914 0.000000 0.000000
# 5 0.000000 0.000000 0.000000 0.000000 0.045124 0.000000
# 6 0.000000 0.000000 0.000000 0.000000 0.000000 0.035032
#
#
# Mechanical properties :
#
#
# Convention : Reuss Voigt Hill
#
# Bulk Modulus (GPa) = 49.26453 49.32698 49.29575
# Shear Modulus (GPa) = 21.24865 22.73111 21.98988
#
# Velocity S-wave (km/s) = 3.58972 3.71283 3.65180
# Velocity P-wave (km/s) = 6.85986 6.94940 6.90478
#
# Compressibility (1/GPa) = 0.02029858
#
# Stress axis : x y z
#
# Youngs Moduli (GPa) = 51.87399 56.27407 74.97500
#
# Poissons Ratio (x) = 0.44997 0.29812
# Poissons Ratio (y) = 0.41479 0.23026
# Poissons Ratio (z) = 0.20626 0.17283
#
# Static dielectric constant tensor:
#      x y z
#    x 1.513700 0.000000 0.000000 
#    y 0.000000 1.596580 0.000000 
#    z 0.000000 0.000000 1.564090 
# 
# From -- ./inp_files/24661.got.cif
#   From: 2010.05.17/outbox.cif.g08.bks.cpg/sg65_13_cif.got.tgz:24661.got - 2010.06.03 17:01:31.
