data_PCOD9488181
_publ_section_title
;
Structure prediction by ZEFSAII (Michael W. Deem and Ramdas Pophale) SiO2 
 PCOD9488181
Probable space group: C M M M
;
_chemical_formula_sum "Si O2"
_cell_formula_units_Z 96
_cell_length_a 29.348057
_cell_length_b 7.967319
_cell_length_c 19.139250
_cell_angle_alpha 90.000000
_cell_angle_beta 90.000000
_cell_angle_gamma 90.000000
_cell_volume 4475.241488
_symmetry_space_group_name_H-M "C M M M"
_symmetry_group_IT_number 65
_symmetry_cell_setting 'orthorhombic'
loop_
_space_group_symop_operation_xyz
x,y,z
-x,-y,z
x,-y,-z
-x,y,-z
-x,-y,-z
x,y,-z
-x,y,z
x,-y,z
1/2+x,1/2+y,z
1/2-x,1/2-y,z
1/2+x,1/2-y,-z
1/2-x,1/2+y,-z
1/2-x,1/2-y,-z
1/2+x,1/2+y,-z
1/2-x,1/2+y,z
1/2+x,1/2-y,z
loop_
_atom_site_type_symbol
_atom_site_label
_atom_site_fract_x
_atom_site_fract_y
_atom_site_fract_z
Si Si1 0.148924 0.802329 0.580224
Si Si2 0.626249 0.190184 0.817624
Si Si3 0.446800 0.204966 0.921901
Si Si4 0.801528 0.693986 0.711939
Si Si5 0.549300 0.799195 0.583576
Si Si6 0.199717 0.804503 0.083167
O O1 0.151016 0.739655 0.500000
O O2 0.184514 0.717111 0.631628
O O3 0.097235 0.774151 0.607706
O O4 0.158039 0.000000 0.579644
O O5 0.582419 0.268127 0.856019
O O6 0.656791 0.273492 0.756703
O O7 0.662523 0.190416 0.880611
O O8 0.613410 0.000000 0.795518
O O9 0.500000 0.247697 0.915675
O O10 0.443524 0.000000 0.921370
O O11 0.431064 0.259638 0.000000
O O12 0.802355 0.500000 0.731394
O O13 0.750000 0.750000 0.724538
O O14 0.548312 0.766912 0.500000
O O15 0.500000 0.739691 0.611633
O O16 0.551189 0.000000 0.593315
O O17 0.250000 0.750000 0.106050
O O18 0.192044 0.000000 0.100713
O O19 0.197561 0.786828 0.000000
#
# Coordination Sequence:
#
# PCOD9488181 Si02
#       6
#    16  16  16  16  16  16
#     4  10  21  37  58  83 109 140 181 230 285 344
#     4  10  20  34  54  79 107 141 180 221 268 320
#     4   8  14  27  51  83 115 146 182 223 262 302
#     4  11  24  40  57  78 105 140 181 227 284 346
#     4   8  14  27  50  80 112 143 173 209 257 312
#     4  10  20  32  48  73 104 138 176 217 262 311
#
# _framework density 21.451357000000002
#
# number of rings (size 3 to 8) (size 9 to 14) (size 15 to 20)
#    0.000    2.500    0.000    3.500    0.000    6.000 
#    0.000    2.500    0.000    3.500    0.000    2.333 
#    0.000    0.000    0.000    0.000    0.000    0.000 
#
# Total GULP energy -267570.606476 kJ/mol
# GULP energy per Si atom -5574.387635 kJ/mol
# Density = 2.140253 g / cm^3
# Si number density = 21.451357 Si / 1000 Ang^3
#
#
#
# Elastic Constant Matrix: (Units=GPa)
#
#
# Indices 1 2 3 4 5 6 
#
# 1 94.4187 0.9021 56.6924 0.0000 0.0000 0.0000
# 2 0.9021 18.7135 4.0240 0.0000 0.0000 0.0000
# 3 56.6924 4.0240 79.2564 0.0000 0.0000 0.0000
# 4 0.0000 0.0000 0.0000 -0.6203 0.0000 0.0000
# 5 0.0000 0.0000 0.0000 0.0000 78.2696 0.0000
# 6 0.0000 0.0000 0.0000 0.0000 0.0000 21.7168
#
#
#
# Elastic Compliance Matrix: (Units=1/GPa)
#
#
# Indices 1 2 3 4 5 6 
#
# 1 0.018637 0.001990 -0.013432 0.000000 0.000000 0.000000
# 2 0.001990 0.054240 -0.004177 0.000000 0.000000 0.000000
# 3 -0.013432 -0.004177 0.022438 0.000000 0.000000 0.000000
# 4 0.000000 0.000000 0.000000 -1.612142 0.000000 0.000000
# 5 0.000000 0.000000 0.000000 0.000000 0.012776 0.000000
# 6 0.000000 0.000000 0.000000 0.000000 0.000000 0.046047
#
#
# Mechanical properties :
#
#
# Convention : Reuss Voigt Hill
#
# Bulk Modulus (GPa) = 15.60664 35.06951 25.33808
# Shear Modulus (GPa) = -3.55769 28.59123 12.51677
#
# Velocity S-wave (km/s) = -1.28922 3.65477 2.41819
# Velocity P-wave (km/s) = 2.25278 5.84753 4.43107
#
# Compressibility (1/GPa) = 0.06407528
#
# Stress axis : x y z
#
# Youngs Moduli (GPa) = 53.65542 18.43667 44.56794
#
# Poissons Ratio (x) = -0.03669 0.59866
# Poissons Ratio (y) = -0.10677 0.18617
# Poissons Ratio (z) = 0.72072 0.07701
#
# Static dielectric constant tensor:
#      x y z
#    x 1.798360 0.000000 0.000000 
#    y 0.000000 1.810390 0.000000 
#    z 0.000000 0.000000 1.801630 
# 
# From -- ./inp_files/60240.got.cif
#   From: 2010.05.17/outbox.cif.g08.bks.cpg/sg65_31_cif.got.tgz:60240.got - 2010.06.03 17:01:31.
