data_PCOD9488061
_publ_section_title
;
Structure prediction by ZEFSAII (Michael W. Deem and Ramdas Pophale) SiO2 
 PCOD9488061
Probable space group: C M M M
;
_chemical_formula_sum "Si O2"
_cell_formula_units_Z 88
_cell_length_a 19.337655
_cell_length_b 8.305605
_cell_length_c 29.571227
_cell_angle_alpha 90.000000
_cell_angle_beta 90.000000
_cell_angle_gamma 90.000000
_cell_volume 4749.462094
_symmetry_space_group_name_H-M "C M M M"
_symmetry_group_IT_number 65
_symmetry_cell_setting 'orthorhombic'
loop_
_space_group_symop_operation_xyz
x,y,z
-x,-y,z
x,-y,-z
-x,y,-z
-x,-y,-z
x,y,-z
-x,y,z
x,-y,z
1/2+x,1/2+y,z
1/2-x,1/2-y,z
1/2+x,1/2-y,-z
1/2-x,1/2+y,-z
1/2-x,1/2-y,-z
1/2+x,1/2+y,-z
1/2-x,1/2+y,z
1/2+x,1/2-y,z
loop_
_atom_site_type_symbol
_atom_site_label
_atom_site_fract_x
_atom_site_fract_y
_atom_site_fract_z
Si Si1 0.419763 0.302713 0.401243
Si Si2 0.079645 0.806038 0.768541
Si Si3 0.915944 0.814006 0.500000
Si Si4 0.420911 0.192184 0.866908
Si Si5 0.828896 0.805160 0.684020
Si Si6 0.171377 0.807335 0.050429
O O1 0.500000 0.256614 0.393287
O O2 0.419438 0.500000 0.402706
O O3 0.396832 0.243700 0.451140
O O4 0.370176 0.251343 0.360790
O O5 0.104202 0.755767 0.818340
O O6 0.129106 0.748998 0.728349
O O7 0.000000 0.748864 0.762789
O O8 0.077998 0.000000 0.766700
O O9 0.000000 0.817020 0.500000
O O10 0.892165 0.000000 0.500000
O O11 0.500000 0.251117 0.872430
O O12 0.375578 0.245039 0.909161
O O13 0.421649 0.000000 0.864881
O O14 0.750000 0.750000 0.684254
O O15 0.830051 0.000000 0.684142
O O16 0.250000 0.750000 0.056627
O O17 0.170234 0.000000 0.050995
O O18 0.148793 0.752665 0.000000
#
# Coordination Sequence:
#
# PCOD9488061 Si02
#       6
#    16  16   8  16  16  16
#     4   8  13  24  44  68  92 120 158 201 241 282
#     4   9  18  34  54  72  92 124 167 210 249 290
#     4   7  10  18  37  66  93 115 148 199 246 278
#     4  10  21  36  55  80 108 136 167 207 254 302
#     4  10  20  32  47  69  97 127 159 198 244 294
#     4  10  21  37  57  80 107 140 176 212 250 295
#
# _framework density 18.528414999999999
#
# number of rings (size 3 to 8) (size 9 to 14) (size 15 to 20)
#    0.000    2.818    0.000    2.727    0.000    6.182 
#    0.000    4.091    0.000    1.636    0.000    0.000 
#    0.000    2.182    0.000    0.000    0.000    0.000 
#
# Total GULP energy -245295.118747 kJ/mol
# GULP energy per Si atom -5574.889062 kJ/mol
# Density = 1.848624 g / cm^3
# Si number density = 18.528415 Si / 1000 Ang^3
#
#
#
# Elastic Constant Matrix: (Units=GPa)
#
#
# Indices 1 2 3 4 5 6 
#
# 1 93.3598 10.4771 112.1087 0.0000 0.0000 0.0000
# 2 10.4771 10.4585 20.3341 0.0000 0.0000 0.0000
# 3 112.1087 20.3341 228.3204 0.0000 0.0000 0.0000
# 4 0.0000 0.0000 0.0000 6.9703 0.0000 0.0000
# 5 0.0000 0.0000 0.0000 0.0000 -17.1593 0.0000
# 6 0.0000 0.0000 0.0000 0.0000 0.0000 23.6342
#
#
#
# Elastic Compliance Matrix: (Units=1/GPa)
#
#
# Indices 1 2 3 4 5 6 
#
# 1 0.026120 -0.001488 -0.012693 0.000000 0.000000 0.000000
# 2 -0.001488 0.115724 -0.009575 0.000000 0.000000 0.000000
# 3 -0.012693 -0.009575 0.011465 0.000000 0.000000 0.000000
# 4 0.000000 0.000000 0.000000 0.143465 0.000000 0.000000
# 5 0.000000 0.000000 0.000000 0.000000 -0.058277 0.000000
# 6 0.000000 0.000000 0.000000 0.000000 0.000000 0.042312
#
#
# Mechanical properties :
#
#
# Convention : Reuss Voigt Hill
#
# Bulk Modulus (GPa) = 9.45217 68.66426 39.05822
# Shear Modulus (GPa) = 13.75186 15.30362 14.52774
#
# Velocity S-wave (km/s) = 2.72730 2.87706 2.80318
# Velocity P-wave (km/s) = 3.87686 6.94089 5.62166
#
# Compressibility (1/GPa) = 0.10579579
#
# Stress axis : x y z
#
# Youngs Moduli (GPa) = 38.28467 8.64124 87.22239
#
# Poissons Ratio (x) = 0.01286 1.10710
# Poissons Ratio (y) = 0.05698 0.83520
# Poissons Ratio (z) = 0.48594 0.08274
#
# Static dielectric constant tensor:
#      x y z
#    x 1.607270 0.000000 0.000000 
#    y 0.000000 1.648160 0.000000 
#    z 0.000000 0.000000 1.655740 
# 
# From -- ./inp_files/77821.got.cif
#   From: 2010.05.17/outbox.cif.g08.bks.cpg/sg65_39_cif.got.tgz:77821.got - 2010.06.03 17:01:31.
