data_PCOD9488533
_publ_section_title
;
Structure prediction by ZEFSAII (Michael W. Deem and Ramdas Pophale) SiO2 
 PCOD9488533
Probable space group: C M M M
;
_chemical_formula_sum "Si O2"
_cell_formula_units_Z 96
_cell_length_a 8.978337
_cell_length_b 27.792592
_cell_length_c 24.295584
_cell_angle_alpha 90.000000
_cell_angle_beta 90.000000
_cell_angle_gamma 90.000000
_cell_volume 6062.507617
_symmetry_space_group_name_H-M "C M M M"
_symmetry_group_IT_number 65
_symmetry_cell_setting 'orthorhombic'
loop_
_space_group_symop_operation_xyz
x,y,z
-x,-y,z
x,-y,-z
-x,y,-z
-x,-y,-z
x,y,-z
-x,y,z
x,-y,z
1/2+x,1/2+y,z
1/2-x,1/2-y,z
1/2+x,1/2-y,-z
1/2-x,1/2+y,-z
1/2-x,1/2-y,-z
1/2+x,1/2+y,-z
1/2-x,1/2+y,z
1/2+x,1/2-y,z
loop_
_atom_site_type_symbol
_atom_site_label
_atom_site_fract_x
_atom_site_fract_y
_atom_site_fract_z
Si Si1 0.678941 0.392225 0.274357
Si Si2 0.322894 0.145665 0.104474
Si Si3 0.679198 0.443626 0.386516
Si Si4 0.323554 0.801693 0.220444
Si Si5 0.821539 0.196865 0.000000
Si Si6 0.178882 0.944298 0.160376
Si Si7 0.327361 0.058447 0.500000
O O1 0.500000 0.386424 0.275350
O O2 0.726288 0.414642 0.332396
O O3 0.754325 0.341696 0.260439
O O4 0.712642 0.427796 0.223111
O O5 0.500000 0.144401 0.093810
O O6 0.296459 0.178605 0.158498
O O7 0.262301 0.092971 0.120713
O O8 0.236427 0.168422 0.053457
O O9 0.500000 0.441179 0.390705
O O10 0.718712 0.500000 0.379274
O O11 0.749244 0.425749 0.443580
O O12 0.500000 0.798639 0.228425
O O13 0.250000 0.750000 0.227489
O O14 0.750000 0.250000 0.000000
O O15 0.000000 0.200446 0.000000
O O16 0.000000 0.939409 0.152978
O O17 0.218781 0.000000 0.152053
O O18 0.500000 0.071762 0.500000
O O19 0.316880 0.000000 0.500000
#
# Coordination Sequence:
#
# PCOD9488533 Si02
#       7
#    16  16  16  16   8  16   8
#     4   9  17  29  47  71  97 125 159 197 236 280
#     4  10  21  36  53  75 101 128 160 196 236 283
#     4   9  16  27  44  66  93 126 162 196 230 273
#     4  10  20  33  50  71  96 125 155 191 236 283
#     4  12  24  38  57  78  99 124 156 197 243 289
#     4   9  17  31  51  74 101 132 163 196 236 282
#     4   9  17  27  39  59  90 127 162 197 237 275
#
# _framework density 15.835032
#
# number of rings (size 3 to 8) (size 9 to 14) (size 15 to 20)
#    0.000    2.417    0.000    3.000    0.000    7.333 
#    0.000    0.417    0.000    5.500    0.000    0.583 
#    0.000    0.000    0.000    0.000    0.000    0.000 
#
# Total GULP energy -267757.927173 kJ/mol
# GULP energy per Si atom -5578.290149 kJ/mol
# Density = 1.579899 g / cm^3
# Si number density = 15.835032 Si / 1000 Ang^3
#
#
#
# Elastic Constant Matrix: (Units=GPa)
#
#
# Indices 1 2 3 4 5 6 
#
# 1 61.5099 59.7640 69.1448 0.0000 0.0000 0.0000
# 2 59.7640 132.4971 76.3188 0.0000 0.0000 0.0000
# 3 69.1448 76.3188 136.2305 0.0000 0.0000 0.0000
# 4 0.0000 0.0000 0.0000 17.0670 0.0000 0.0000
# 5 0.0000 0.0000 0.0000 0.0000 20.6577 0.0000
# 6 0.0000 0.0000 0.0000 0.0000 0.0000 26.2002
#
#
#
# Elastic Compliance Matrix: (Units=1/GPa)
#
#
# Indices 1 2 3 4 5 6 
#
# 1 0.046538 -0.010905 -0.017512 0.000000 0.000000 0.000000
# 2 -0.010905 0.013698 -0.002139 0.000000 0.000000 0.000000
# 3 -0.017512 -0.002139 0.017427 0.000000 0.000000 0.000000
# 4 0.000000 0.000000 0.000000 0.058593 0.000000 0.000000
# 5 0.000000 0.000000 0.000000 0.000000 0.048408 0.000000
# 6 0.000000 0.000000 0.000000 0.000000 0.000000 0.038168
#
#
# Mechanical properties :
#
#
# Convention : Reuss Voigt Hill
#
# Bulk Modulus (GPa) = 60.41507 82.29918 71.35712
# Shear Modulus (GPa) = 17.27353 21.11897 19.19625
#
# Velocity S-wave (km/s) = 3.30637 3.65593 3.48554
# Velocity P-wave (km/s) = 7.26717 8.36103 7.83322
#
# Compressibility (1/GPa) = 0.01655216
#
# Stress axis : x y z
#
# Youngs Moduli (GPa) = 21.48782 73.00249 57.38155
#
# Poissons Ratio (x) = 0.79606 1.00485
# Poissons Ratio (y) = 0.23431 0.12276
# Poissons Ratio (z) = 0.37629 0.15617
#
# Static dielectric constant tensor:
#      x y z
#    x 1.527200 0.000000 0.000000 
#    y 0.000000 1.502610 0.000000 
#    z 0.000000 0.000000 1.517730 
# 
# From -- ./inp_files/67901.got.cif
#   From: 2010.05.17/outbox.cif.g08.bks.cpg/sg65_34_cif.got.tgz:67901.got - 2010.06.03 17:01:31.
