data_PCOD9488057
_publ_section_title
;
Structure prediction by ZEFSAII (Michael W. Deem and Ramdas Pophale) SiO2 
 PCOD9488057
Probable space group: C M M M
;
_chemical_formula_sum "Si O2"
_cell_formula_units_Z 72
_cell_length_a 9.273011
_cell_length_b 18.869874
_cell_length_c 24.000320
_cell_angle_alpha 90.000000
_cell_angle_beta 90.000000
_cell_angle_gamma 90.000000
_cell_volume 4199.589174
_symmetry_space_group_name_H-M "C M M M"
_symmetry_group_IT_number 65
_symmetry_cell_setting 'orthorhombic'
loop_
_space_group_symop_operation_xyz
x,y,z
-x,-y,z
x,-y,-z
-x,y,-z
-x,-y,-z
x,y,-z
-x,y,z
x,-y,z
1/2+x,1/2+y,z
1/2-x,1/2-y,z
1/2+x,1/2-y,-z
1/2-x,1/2+y,-z
1/2-x,1/2-y,-z
1/2+x,1/2+y,-z
1/2-x,1/2+y,z
1/2+x,1/2-y,z
loop_
_atom_site_type_symbol
_atom_site_label
_atom_site_fract_x
_atom_site_fract_y
_atom_site_fract_z
Si Si1 0.174036 0.325312 0.167676
Si Si2 0.671623 0.083522 0.722984
Si Si3 0.165998 0.913639 0.389140
Si Si4 0.175375 0.581658 0.937374
Si Si5 0.666280 0.913462 0.500000
O O1 0.250000 0.250000 0.170877
O O2 0.207670 0.372006 0.222201
O O3 0.221798 0.367213 0.112123
O O4 0.000000 0.317294 0.165539
O O5 0.500000 0.089737 0.712577
O O6 0.757171 0.107585 0.668216
O O7 0.701694 0.000000 0.732608
O O8 0.252016 0.890384 0.444045
O O9 0.000000 0.890998 0.391046
O O10 0.167870 0.000000 0.389691
O O11 0.219467 0.500000 0.927588
O O12 0.000000 0.581758 0.937010
O O13 0.221039 0.602438 0.000000
O O14 0.500000 0.891274 0.500000
O O15 0.667693 0.000000 0.500000
#
# Coordination Sequence:
#
# PCOD9488057 Si02
#       5
#    16  16  16  16   8
#     4  10  20  32  47  69  96 125 157 195 239 284
#     4   9  17  30  47  65  87 119 160 200 235 276
#     4   9  16  25  39  62  91 120 151 191 239 284
#     4   8  14  27  49  74  96 121 158 200 236 274
#     4   9  15  23  37  59  90 125 156 187 228 279
#
# _framework density 17.144534
#
# number of rings (size 3 to 8) (size 9 to 14) (size 15 to 20)
#    0.000    3.000    0.000    2.333    0.000    8.000 
#    0.000    0.000    0.000    2.000    0.000    2.333 
#    0.000    0.000    0.000    0.000    0.000    0.000 
#
# Total GULP energy -200602.584749 kJ/mol
# GULP energy per Si atom -5572.294021 kJ/mol
# Density = 1.710551 g / cm^3
# Si number density = 17.144534 Si / 1000 Ang^3
#
#
#
# Elastic Constant Matrix: (Units=GPa)
#
#
# Indices 1 2 3 4 5 6 
#
# 1 62.4780 41.0923 84.3377 0.0000 0.0000 0.0000
# 2 41.0923 60.1276 80.8823 0.0000 0.0000 0.0000
# 3 84.3377 80.8823 202.3201 0.0000 0.0000 0.0000
# 4 0.0000 0.0000 0.0000 -3.1307 0.0000 0.0000
# 5 0.0000 0.0000 0.0000 0.0000 11.5788 0.0000
# 6 0.0000 0.0000 0.0000 0.0000 0.0000 20.1996
#
#
#
# Elastic Compliance Matrix: (Units=1/GPa)
#
#
# Indices 1 2 3 4 5 6 
#
# 1 0.039426 -0.010464 -0.012252 0.000000 0.000000 0.000000
# 2 -0.010464 0.038757 -0.011132 0.000000 0.000000 0.000000
# 3 -0.012252 -0.011132 0.014500 0.000000 0.000000 0.000000
# 4 0.000000 0.000000 0.000000 -0.319413 0.000000 0.000000
# 5 0.000000 0.000000 0.000000 0.000000 0.086365 0.000000
# 6 0.000000 0.000000 0.000000 0.000000 0.000000 0.049506
#
#
# Mechanical properties :
#
#
# Convention : Reuss Voigt Hill
#
# Bulk Modulus (GPa) = 40.01912 81.95003 60.98458
# Shear Modulus (GPa) = -337.07881 13.63708 -161.72087
#
# Velocity S-wave (km/s) = -14.03698 2.82338 -9.72279
# Velocity P-wave (km/s) = 15.47007 7.65061 9.50766
#
# Compressibility (1/GPa) = 0.02498806
#
# Stress axis : x y z
#
# Youngs Moduli (GPa) = 25.36387 25.80149 68.96430
#
# Poissons Ratio (x) = 0.26998 0.84493
# Poissons Ratio (y) = 0.26540 0.76773
# Poissons Ratio (z) = 0.31075 0.28723
#
# Static dielectric constant tensor:
#      x y z
#    x 1.573220 0.000000 0.000000 
#    y 0.000000 1.549740 0.000000 
#    z 0.000000 0.000000 1.577240 
# 
# From -- ./inp_files/59196.got.cif
#   From: 2010.05.17/outbox.cif.g08.bks.cpg/sg65_30_cif.got.tgz:59196.got - 2010.06.03 17:01:31.
