data_PCOD9488195
_publ_section_title
;
Structure prediction by ZEFSAII (Michael W. Deem and Ramdas Pophale) SiO2 
 PCOD9488195
Probable space group: C M M M
;
_chemical_formula_sum "Si O2"
_cell_formula_units_Z 104
_cell_length_a 9.199444
_cell_length_b 29.747537
_cell_length_c 23.121115
_cell_angle_alpha 90.000000
_cell_angle_beta 90.000000
_cell_angle_gamma 90.000000
_cell_volume 6327.342846
_symmetry_space_group_name_H-M "C M M M"
_symmetry_group_IT_number 65
_symmetry_cell_setting 'orthorhombic'
loop_
_space_group_symop_operation_xyz
x,y,z
-x,-y,z
x,-y,-z
-x,y,-z
-x,-y,-z
x,y,-z
-x,y,z
x,-y,z
1/2+x,1/2+y,z
1/2-x,1/2-y,z
1/2+x,1/2-y,-z
1/2-x,1/2+y,-z
1/2-x,1/2-y,-z
1/2+x,1/2+y,-z
1/2-x,1/2+y,z
1/2+x,1/2-y,z
loop_
_atom_site_type_symbol
_atom_site_label
_atom_site_fract_x
_atom_site_fract_y
_atom_site_fract_z
Si Si1 0.674285 0.446170 0.000000
Si Si2 0.167169 0.053745 0.343278
Si Si3 0.326494 0.446755 0.209193
Si Si4 0.175063 0.604609 0.893073
Si Si5 0.334260 0.705913 0.570262
Si Si6 0.172885 0.385963 0.432924
Si Si7 0.673669 0.795905 0.068261
O O1 0.747812 0.423178 0.055628
O O2 0.698623 0.500000 0.000000
O O3 0.500000 0.438765 0.000000
O O4 0.202709 0.064197 0.276439
O O5 0.270636 0.076627 0.389377
O O6 0.000000 0.067912 0.354112
O O7 0.172869 0.000000 0.348571
O O8 0.500000 0.440799 0.199198
O O9 0.295855 0.500000 0.200150
O O10 0.234052 0.416522 0.166097
O O11 0.212572 0.657484 0.900293
O O12 0.000000 0.600557 0.897905
O O13 0.337862 0.708235 0.500000
O O14 0.500000 0.704724 0.590727
O O15 0.250000 0.750000 0.590926
O O16 0.248589 0.660729 0.584316
O O17 0.212549 0.395834 0.500000
O O18 0.000000 0.381167 0.430365
O O19 0.500000 0.790224 0.072490
O O20 0.750000 0.750000 0.088424
O O21 0.709761 0.801860 0.000000
#
# Coordination Sequence:
#
# PCOD9488195 Si02
#       7
#     8  16  16  16  16  16  16
#     4  11  23  35  48  71 104 139 172 205 244 295
#     4   9  19  36  55  73  97 132 173 215 256 303
#     4   9  19  36  55  75 100 132 172 212 250 302
#     4  11  21  34  52  77 106 133 165 209 258 302
#     4   9  16  27  45  69  98 131 165 200 242 296
#     4  10  20  32  48  74 106 135 166 209 259 309
#     4   9  18  33  50  72 102 133 168 208 248 296
#
# _framework density 16.436599999999999
#
# number of rings (size 3 to 8) (size 9 to 14) (size 15 to 20)
#    0.000    2.385    0.769    3.000    0.000    8.000 
#    0.000    3.077    0.000    0.923    0.000    2.154 
#    0.000    0.000    0.000    0.000    0.000    0.000 
#
# Total GULP energy -289992.680105 kJ/mol
# GULP energy per Si atom -5576.782310 kJ/mol
# Density = 1.639919 g / cm^3
# Si number density = 16.436600 Si / 1000 Ang^3
#
#
#
# Elastic Constant Matrix: (Units=GPa)
#
#
# Indices 1 2 3 4 5 6 
#
# 1 81.6631 61.2650 54.1915 0.0000 0.0000 0.0000
# 2 61.2650 103.8725 57.4824 0.0000 0.0000 0.0000
# 3 54.1915 57.4824 65.5465 0.0000 0.0000 0.0000
# 4 0.0000 0.0000 0.0000 -4.9152 0.0000 0.0000
# 5 0.0000 0.0000 0.0000 0.0000 24.5484 0.0000
# 6 0.0000 0.0000 0.0000 0.0000 0.0000 34.9918
#
#
#
# Elastic Compliance Matrix: (Units=1/GPa)
#
#
# Indices 1 2 3 4 5 6 
#
# 1 0.030005 -0.007712 -0.018044 0.000000 0.000000 0.000000
# 2 -0.007712 0.020687 -0.011766 0.000000 0.000000 0.000000
# 3 -0.018044 -0.011766 0.040493 0.000000 0.000000 0.000000
# 4 0.000000 0.000000 0.000000 -0.203451 0.000000 0.000000
# 5 0.000000 0.000000 0.000000 0.000000 0.040736 0.000000
# 6 0.000000 0.000000 0.000000 0.000000 0.000000 0.028578
#
#
# Mechanical properties :
#
#
# Convention : Reuss Voigt Hill
#
# Bulk Modulus (GPa) = 61.95324 66.32889 64.14107
# Shear Modulus (GPa) = 133.43457 16.13455 74.78456
#
# Velocity S-wave (km/s) = 9.01985 3.13649 6.75260
# Velocity P-wave (km/s) = 12.09342 7.31838 9.99524
#
# Compressibility (1/GPa) = 0.01614120
#
# Stress axis : x y z
#
# Youngs Moduli (GPa) = 33.32800 48.33975 24.69574
#
# Poissons Ratio (x) = 0.37278 0.44561
# Poissons Ratio (y) = 0.25702 0.29057
# Poissons Ratio (z) = 0.60137 0.56877
#
# Static dielectric constant tensor:
#      x y z
#    x 1.549740 0.000000 0.000000 
#    y 0.000000 1.542250 0.000000 
#    z 0.000000 0.000000 1.535690 
# 
# From -- ./inp_files/68201.got.cif
#   From: 2010.05.17/outbox.cif.g08.bks.cpg/sg65_35_cif.got.tgz:68201.got - 2010.06.03 17:01:31.
