data_PCOD9488438
_publ_section_title
;
Structure prediction by ZEFSAII (Michael W. Deem and Ramdas Pophale) SiO2 
 PCOD9488438
Probable space group: C M M M
;
_chemical_formula_sum "Si O2"
_cell_formula_units_Z 120
_cell_length_a 27.083120
_cell_length_b 27.877707
_cell_length_c 9.350855
_cell_angle_alpha 90.000000
_cell_angle_beta 90.000000
_cell_angle_gamma 90.000000
_cell_volume 7060.038444
_symmetry_space_group_name_H-M "C M M M"
_symmetry_group_IT_number 65
_symmetry_cell_setting 'orthorhombic'
loop_
_space_group_symop_operation_xyz
x,y,z
-x,-y,z
x,-y,-z
-x,y,-z
-x,-y,-z
x,y,-z
-x,y,z
x,-y,z
1/2+x,1/2+y,z
1/2-x,1/2-y,z
1/2+x,1/2-y,-z
1/2-x,1/2+y,-z
1/2-x,1/2-y,-z
1/2+x,1/2+y,-z
1/2-x,1/2+y,z
1/2+x,1/2-y,z
loop_
_atom_site_type_symbol
_atom_site_label
_atom_site_fract_x
_atom_site_fract_y
_atom_site_fract_z
Si Si1 0.248831 0.134152 0.328359
Si Si2 0.151721 0.806245 0.328726
Si Si3 0.847095 0.694060 0.329462
Si Si4 0.444824 0.187684 0.833148
Si Si5 0.554363 0.304294 0.167040
Si Si6 0.198043 0.442769 0.166680
Si Si7 0.402329 0.058353 0.663966
Si Si8 0.000000 0.441393 0.165423
O O1 0.248696 0.125963 0.500000
O O2 0.199104 0.162239 0.289193
O O3 0.296792 0.166616 0.294326
O O4 0.257835 0.085586 0.242003
O O5 0.146626 0.808253 0.500000
O O6 0.159510 0.750179 0.290355
O O7 0.100974 0.822193 0.255415
O O8 0.854080 0.691720 0.500000
O O9 0.896415 0.673855 0.255298
O O10 0.500000 0.172274 0.785782
O O11 0.445430 0.246057 0.824986
O O12 0.439046 0.174819 0.000000
O O13 0.500000 0.320089 0.217590
O O14 0.559351 0.316610 0.000000
O O15 0.204635 0.500000 0.175296
O O16 0.148062 0.430622 0.253323
O O17 0.192802 0.429729 0.000000
O O18 0.401933 0.075787 0.500000
O O19 0.450538 0.073730 0.752064
O O20 0.404824 0.000000 0.657867
O O21 0.000000 0.500000 0.165034
O O22 0.000000 0.426451 0.000000
#
# Coordination Sequence:
#
# PCOD9488438 Si02
#       8
#    16  16  16  16  16  16  16   8
#     4  10  20  33  49  69  95 125 157 193 235 283
#     4   9  17  29  46  70  99 129 159 191 227 270
#     4   9  17  29  46  68  95 126 158 192 231 275
#     4   8  14  25  41  61  87 121 159 197 234 272
#     4   8  14  25  41  63  93 127 160 192 226 263
#     4  10  21  36  52  69  89 115 151 197 245 289
#     4   9  16  27  45  67  88 111 141 179 228 285
#     4   9  15  23  39  65  93 115 137 173 225 283
#
# _framework density 16.997074999999999
#
# number of rings (size 3 to 8) (size 9 to 14) (size 15 to 20)
#    0.000    3.000    0.000    2.200    0.000    6.400 
#    0.000    2.667    1.467    4.000    0.000    0.000 
#    0.000    0.533    0.000    5.867    0.000    4.533 
#
# Total GULP energy -334758.201877 kJ/mol
# GULP energy per Si atom -5579.303365 kJ/mol
# Density = 1.695839 g / cm^3
# Si number density = 16.997075 Si / 1000 Ang^3
#
#
#
# Elastic Constant Matrix: (Units=GPa)
#
#
# Indices 1 2 3 4 5 6 
#
# 1 148.2784 48.3008 61.5158 0.0000 0.0000 0.0000
# 2 48.3008 48.1263 33.1572 0.0000 0.0000 0.0000
# 3 61.5158 33.1572 65.4152 0.0000 0.0000 0.0000
# 4 0.0000 0.0000 0.0000 13.5039 0.0000 0.0000
# 5 0.0000 0.0000 0.0000 0.0000 70.1691 0.0000
# 6 0.0000 0.0000 0.0000 0.0000 0.0000 27.2750
#
#
#
# Elastic Compliance Matrix: (Units=1/GPa)
#
#
# Indices 1 2 3 4 5 6 
#
# 1 0.012335 -0.006742 -0.008182 0.000000 0.000000 0.000000
# 2 -0.006742 0.035614 -0.011711 0.000000 0.000000 0.000000
# 3 -0.008182 -0.011711 0.028917 0.000000 0.000000 0.000000
# 4 0.000000 0.000000 0.000000 0.074053 0.000000 0.000000
# 5 0.000000 0.000000 0.000000 0.000000 0.014251 0.000000
# 6 0.000000 0.000000 0.000000 0.000000 0.000000 0.036664
#
#
# Mechanical properties :
#
#
# Convention : Reuss Voigt Hill
#
# Bulk Modulus (GPa) = 42.38209 60.86304 51.62257
# Shear Modulus (GPa) = 19.01351 30.11267 24.56309
#
# Velocity S-wave (km/s) = 3.34823 4.21365 3.80562
# Velocity P-wave (km/s) = 6.31954 7.71744 7.05320
#
# Compressibility (1/GPa) = 0.02359487
#
# Stress axis : x y z
#
# Youngs Moduli (GPa) = 81.07136 28.07861 34.58130
#
# Poissons Ratio (x) = 0.18932 0.28294
# Poissons Ratio (y) = 0.54662 0.40499
# Poissons Ratio (z) = 0.66332 0.32884
#
# Static dielectric constant tensor:
#      x y z
#    x 1.562370 0.000000 0.000000 
#    y 0.000000 1.600550 0.000000 
#    z 0.000000 0.000000 1.567830 
# 
# From -- ./inp_files/17084.got.cif
#   From: 2010.05.17/outbox.cif.g08.bks.cpg/sg65_9_cif.got.tgz:17084.got - 2010.06.03 17:01:31.
