data_PCOD9488055
_publ_section_title
;
Structure prediction by ZEFSAII (Michael W. Deem and Ramdas Pophale) SiO2 
 PCOD9488055
Probable space group: C M M M
;
_chemical_formula_sum "Si O2"
_cell_formula_units_Z 96
_cell_length_a 8.652097
_cell_length_b 28.390181
_cell_length_c 24.501170
_cell_angle_alpha 90.000000
_cell_angle_beta 90.000000
_cell_angle_gamma 90.000000
_cell_volume 6018.335089
_symmetry_space_group_name_H-M "C M M M"
_symmetry_group_IT_number 65
_symmetry_cell_setting 'orthorhombic'
loop_
_space_group_symop_operation_xyz
x,y,z
-x,-y,z
x,-y,-z
-x,y,-z
-x,-y,-z
x,y,-z
-x,y,z
x,-y,z
1/2+x,1/2+y,z
1/2-x,1/2-y,z
1/2+x,1/2-y,-z
1/2-x,1/2+y,-z
1/2-x,1/2-y,-z
1/2+x,1/2+y,-z
1/2-x,1/2+y,z
1/2+x,1/2-y,z
loop_
_atom_site_type_symbol
_atom_site_label
_atom_site_fract_x
_atom_site_fract_y
_atom_site_fract_z
Si Si1 0.685281 0.641065 0.661872
Si Si2 0.188196 0.945475 0.938753
Si Si3 0.685378 0.945879 0.724342
Si Si4 0.185031 0.698201 0.563069
Si Si5 0.685674 0.698242 0.769590
Si Si6 0.187392 0.105587 0.169816
O O1 0.500000 0.639477 0.660967
O O2 0.749180 0.590373 0.679755
O O3 0.748706 0.660624 0.605254
O O4 0.732725 0.677068 0.710604
O O5 0.239662 0.912501 0.889256
O O6 0.000000 0.944596 0.938918
O O7 0.232948 0.000000 0.928932
O O8 0.238814 0.932128 0.000000
O O9 0.500000 0.942892 0.724946
O O10 0.749562 0.928124 0.782572
O O11 0.730643 0.000000 0.714780
O O12 0.228123 0.688375 0.500000
O O13 0.250000 0.750000 0.576893
O O14 0.000000 0.699359 0.566848
O O15 0.500000 0.700620 0.770003
O O16 0.750000 0.750000 0.778648
O O17 0.733485 0.658671 0.813694
O O18 0.000000 0.103550 0.171748
#
# Coordination Sequence:
#
# PCOD9488055 Si02
#       6
#    16  16  16  16  16  16
#     4  10  20  33  50  71  94 122 157 195 235 278
#     4   8  13  22  40  66  90 112 143 186 233 275
#     4  10  20  32  47  69  96 124 153 186 229 282
#     4  10  20  33  50  73 101 131 161 194 233 276
#     4   9  18  29  42  63  88 116 149 184 225 269
#     4   9  17  29  45  66  91 118 151 190 230 274
#
# _framework density 15.951254
#
# number of rings (size 3 to 8) (size 9 to 14) (size 15 to 20)
#    0.000    2.667    0.000    4.000    0.000    7.667 
#    0.000    0.000    0.000    1.500    0.000    5.833 
#    0.000    0.000    0.000    0.000    0.000    0.333 
#
# Total GULP energy -267596.107443 kJ/mol
# GULP energy per Si atom -5574.918905 kJ/mol
# Density = 1.591495 g / cm^3
# Si number density = 15.951254 Si / 1000 Ang^3
#
#
#
# Elastic Constant Matrix: (Units=GPa)
#
#
# Indices 1 2 3 4 5 6 
#
# 1 22.3234 34.2931 28.1644 0.0000 0.0000 0.0000
# 2 34.2931 150.4329 90.5362 0.0000 0.0000 0.0000
# 3 28.1644 90.5362 118.4190 0.0000 0.0000 0.0000
# 4 0.0000 0.0000 0.0000 24.2372 0.0000 0.0000
# 5 0.0000 0.0000 0.0000 0.0000 14.3793 0.0000
# 6 0.0000 0.0000 0.0000 0.0000 0.0000 25.6143
#
#
#
# Elastic Compliance Matrix: (Units=1/GPa)
#
#
# Indices 1 2 3 4 5 6 
#
# 1 0.073422 -0.011536 -0.008643 0.000000 0.000000 0.000000
# 2 -0.011536 0.014126 -0.008056 0.000000 0.000000 0.000000
# 3 -0.008643 -0.008056 0.016659 0.000000 0.000000 0.000000
# 4 0.000000 0.000000 0.000000 0.041259 0.000000 0.000000
# 5 0.000000 0.000000 0.000000 0.000000 0.069544 0.000000
# 6 0.000000 0.000000 0.000000 0.000000 0.000000 0.039041
#
#
# Mechanical properties :
#
#
# Convention : Reuss Voigt Hill
#
# Bulk Modulus (GPa) = 20.94796 66.35141 43.64968
# Shear Modulus (GPa) = 15.31713 22.05825 18.68769
#
# Velocity S-wave (km/s) = 3.10215 3.72271 3.42650
# Velocity P-wave (km/s) = 5.09824 7.75659 6.56341
#
# Compressibility (1/GPa) = 0.04773734
#
# Stress axis : x y z
#
# Youngs Moduli (GPa) = 13.61999 70.79335 60.02679
#
# Poissons Ratio (x) = 0.81667 0.51879
# Poissons Ratio (y) = 0.15712 0.48357
# Poissons Ratio (z) = 0.11771 0.57031
#
# Static dielectric constant tensor:
#      x y z
#    x 1.538340 0.000000 0.000000 
#    y 0.000000 1.517860 0.000000 
#    z 0.000000 0.000000 1.531770 
# 
# From -- ./inp_files/68011.got.cif
#   From: 2010.05.17/outbox.cif.g08.bks.cpg/sg65_35_cif.got.tgz:68011.got - 2010.06.03 17:01:31.
