data_PCOD9488543
_publ_section_title
;
Structure prediction by ZEFSAII (Michael W. Deem and Ramdas Pophale) SiO2 
 PCOD9488543
Probable space group: C M M M
;
_chemical_formula_sum "Si O2"
_cell_formula_units_Z 80
_cell_length_a 8.645202
_cell_length_b 27.717387
_cell_length_c 19.068850
_cell_angle_alpha 90.000000
_cell_angle_beta 90.000000
_cell_angle_gamma 90.000000
_cell_volume 4569.323784
_symmetry_space_group_name_H-M "C M M M"
_symmetry_group_IT_number 65
_symmetry_cell_setting 'orthorhombic'
loop_
_space_group_symop_operation_xyz
x,y,z
-x,-y,z
x,-y,-z
-x,y,-z
-x,-y,-z
x,y,-z
-x,y,z
x,-y,z
1/2+x,1/2+y,z
1/2-x,1/2-y,z
1/2+x,1/2-y,-z
1/2-x,1/2+y,-z
1/2-x,1/2-y,-z
1/2+x,1/2+y,-z
1/2-x,1/2+y,z
1/2+x,1/2-y,z
loop_
_atom_site_type_symbol
_atom_site_label
_atom_site_fract_x
_atom_site_fract_y
_atom_site_fract_z
Si Si1 0.816035 0.802413 0.283251
Si Si2 0.316741 0.897919 0.217829
Si Si3 0.815419 0.650363 0.580034
Si Si4 0.185134 0.055096 0.354782
Si Si5 0.814620 0.057135 0.079701
O O1 0.750000 0.750000 0.266445
O O2 0.741735 0.844298 0.235815
O O3 0.768821 0.816705 0.362695
O O4 0.000000 0.803442 0.276398
O O5 0.500000 0.900729 0.228292
O O6 0.234666 0.932325 0.275217
O O7 0.270367 0.914021 0.140328
O O8 0.775282 0.662108 0.500000
O O9 0.766375 0.595449 0.597726
O O10 0.000000 0.655058 0.589196
O O11 0.000000 0.060402 0.360810
O O12 0.226714 0.000000 0.371877
O O13 0.000000 0.063387 0.086913
O O14 0.782763 0.000000 0.087709
O O15 0.771845 0.070886 0.000000
#
# Coordination Sequence:
#
# PCOD9488543 Si02
#       5
#    16  16  16  16  16
#     4  11  22  38  59  79 101 130 168 213 260 310
#     4  11  21  33  52  78 107 137 172 214 258 305
#     4  10  21  36  53  75 103 133 168 211 259 310
#     4  10  20  33  50  72 100 137 178 215 254 304
#     4   9  18  33  53  78 110 147 182 213 249 296
#
# _framework density 17.508061999999999
#
# number of rings (size 3 to 8) (size 9 to 14) (size 15 to 20)
#    0.000    1.800    0.000    8.400    0.000    7.200 
#    0.000    3.000    0.000    0.600    0.000    0.000 
#    0.000    0.000    0.000    0.000    0.000    0.000 
#
# Total GULP energy -223449.528875 kJ/mol
# GULP energy per Si atom -5586.238222 kJ/mol
# Density = 1.746821 g / cm^3
# Si number density = 17.508062 Si / 1000 Ang^3
#
#
#
# Elastic Constant Matrix: (Units=GPa)
#
#
# Indices 1 2 3 4 5 6 
#
# 1 44.9944 1.4197 8.6757 0.0000 0.0000 0.0000
# 2 1.4197 42.2084 -0.5551 0.0000 0.0000 0.0000
# 3 8.6757 -0.5551 72.0808 0.0000 0.0000 0.0000
# 4 0.0000 0.0000 0.0000 3.5018 0.0000 0.0000
# 5 0.0000 0.0000 0.0000 0.0000 16.3785 0.0000
# 6 0.0000 0.0000 0.0000 0.0000 0.0000 28.8985
#
#
#
# Elastic Compliance Matrix: (Units=1/GPa)
#
#
# Indices 1 2 3 4 5 6 
#
# 1 0.022780 -0.000802 -0.002748 0.000000 0.000000 0.000000
# 2 -0.000802 0.023723 0.000279 0.000000 0.000000 0.000000
# 3 -0.002748 0.000279 0.014206 0.000000 0.000000 0.000000
# 4 0.000000 0.000000 0.000000 0.285564 0.000000 0.000000
# 5 0.000000 0.000000 0.000000 0.000000 0.061056 0.000000
# 6 0.000000 0.000000 0.000000 0.000000 0.000000 0.034604
#
#
# Mechanical properties :
#
#
# Convention : Reuss Voigt Hill
#
# Bulk Modulus (GPa) = 18.46151 19.81825 19.13988
# Shear Modulus (GPa) = 10.71742 19.73864 15.22803
#
# Velocity S-wave (km/s) = 2.47683 3.36132 2.95239
# Velocity P-wave (km/s) = 4.32979 5.13894 4.75162
#
# Compressibility (1/GPa) = 0.05416676
#
# Stress axis : x y z
#
# Youngs Moduli (GPa) = 43.89781 42.15387 70.39165
#
# Poissons Ratio (x) = 0.03382 0.19344
# Poissons Ratio (y) = 0.03522 -0.01966
# Poissons Ratio (z) = 0.12063 -0.01177
#
# Static dielectric constant tensor:
#      x y z
#    x 1.585150 0.000000 0.000000 
#    y 0.000000 1.580960 0.000000 
#    z 0.000000 0.000000 1.587200 
# 
# From -- ./inp_files/49884.got.cif
#   From: 2010.05.17/outbox.cif.g08.bks.cpg/sg65_25_cif.got.tgz:49884.got - 2010.06.03 17:01:31.
