data_PCOD9488751
_publ_section_title
;
Structure prediction by ZEFSAII (Michael W. Deem and Ramdas Pophale) SiO2 
 PCOD9488751
Probable space group: C M M M
;
_chemical_formula_sum "Si O2"
_cell_formula_units_Z 80
_cell_length_a 26.298364
_cell_length_b 8.964066
_cell_length_c 19.921556
_cell_angle_alpha 90.000000
_cell_angle_beta 90.000000
_cell_angle_gamma 90.000000
_cell_volume 4696.313002
_symmetry_space_group_name_H-M "C M M M"
_symmetry_group_IT_number 65
_symmetry_cell_setting 'orthorhombic'
loop_
_space_group_symop_operation_xyz
x,y,z
-x,-y,z
x,-y,-z
-x,y,-z
-x,-y,-z
x,y,-z
-x,y,z
x,-y,z
1/2+x,1/2+y,z
1/2-x,1/2-y,z
1/2+x,1/2-y,-z
1/2-x,1/2+y,-z
1/2-x,1/2-y,-z
1/2+x,1/2+y,-z
1/2-x,1/2+y,z
1/2+x,1/2-y,z
loop_
_atom_site_type_symbol
_atom_site_label
_atom_site_fract_x
_atom_site_fract_y
_atom_site_fract_z
Si Si1 0.405222 0.674300 0.666832
Si Si2 0.804411 0.679038 0.280079
Si Si3 0.058854 0.830334 0.180481
Si Si4 0.500000 0.318140 0.578048
Si Si5 0.653819 0.825466 0.132768
Si Si6 0.195131 0.176564 0.000000
O O1 0.394165 0.500000 0.651845
O O2 0.351908 0.760209 0.676112
O O3 0.432289 0.679307 0.739615
O O4 0.447850 0.731159 0.614709
O O5 0.802286 0.500000 0.284649
O O6 0.750000 0.750000 0.297861
O O7 0.817278 0.718507 0.201921
O O8 0.095119 0.710193 0.147193
O O9 0.000000 0.809715 0.165074
O O10 0.073937 0.000000 0.160718
O O11 0.500000 0.500000 0.583630
O O12 0.500000 0.278003 0.500000
O O13 0.663054 0.000000 0.121183
O O14 0.669258 0.733061 0.068031
O O15 0.250000 0.250000 0.000000
O O16 0.198317 0.000000 0.000000
#
# Coordination Sequence:
#
# PCOD9488751 Si02
#       6
#    16  16  16   8  16   8
#     4   9  16  29  50  76 106 139 172 209 252 300
#     4  10  20  33  51  76 103 133 170 215 262 307
#     4   9  16  29  50  74 101 133 169 207 251 301
#     4   9  16  28  51  83 113 140 173 208 245 297
#     4  10  21  35  51  74 101 130 167 209 257 307
#     4  12  24  38  55  72  95 128 164 205 253 307
#
# _framework density 17.03464
#
# number of rings (size 3 to 8) (size 9 to 14) (size 15 to 20)
#    0.000    2.300    1.000    2.700    0.000    4.400 
#    0.000    1.000    0.000    4.800    0.000    0.000 
#    0.000    0.000    0.000    0.000    0.000    0.000 
#
# Total GULP energy -223010.757952 kJ/mol
# GULP energy per Si atom -5575.268949 kJ/mol
# Density = 1.699587 g / cm^3
# Si number density = 17.034640 Si / 1000 Ang^3
#
#
#
# Elastic Constant Matrix: (Units=GPa)
#
#
# Indices 1 2 3 4 5 6 
#
# 1 125.6005 44.8553 55.0147 0.0000 0.0000 0.0000
# 2 44.8553 57.6050 39.5919 0.0000 0.0000 0.0000
# 3 55.0147 39.5919 82.1536 0.0000 0.0000 0.0000
# 4 0.0000 0.0000 0.0000 13.9928 0.0000 0.0000
# 5 0.0000 0.0000 0.0000 0.0000 19.5101 0.0000
# 6 0.0000 0.0000 0.0000 0.0000 0.0000 28.3663
#
#
#
# Elastic Compliance Matrix: (Units=1/GPa)
#
#
# Indices 1 2 3 4 5 6 
#
# 1 0.012496 -0.005950 -0.005501 0.000000 0.000000 0.000000
# 2 -0.005950 0.028790 -0.009891 0.000000 0.000000 0.000000
# 3 -0.005501 -0.009891 0.020622 0.000000 0.000000 0.000000
# 4 0.000000 0.000000 0.000000 0.071465 0.000000 0.000000
# 5 0.000000 0.000000 0.000000 0.000000 0.051255 0.000000
# 6 0.000000 0.000000 0.000000 0.000000 0.000000 0.035253
#
#
# Mechanical properties :
#
#
# Convention : Reuss Voigt Hill
#
# Bulk Modulus (GPa) = 52.01068 60.47588 56.24328
# Shear Modulus (GPa) = 18.58926 20.76701 19.67813
#
# Velocity S-wave (km/s) = 3.30701 3.49536 3.40249
# Velocity P-wave (km/s) = 6.72163 7.20200 6.96596
#
# Compressibility (1/GPa) = 0.01922682
#
# Stress axis : x y z
#
# Youngs Moduli (GPa) = 80.02643 34.73418 48.49097
#
# Poissons Ratio (x) = 0.20665 0.26673
# Poissons Ratio (y) = 0.47612 0.47960
# Poissons Ratio (z) = 0.44020 0.34354
#
# Static dielectric constant tensor:
#      x y z
#    x 1.125310 0.000000 0.000000 
#    y 0.000000 1.584730 0.000000 
#    z 0.000000 0.000000 1.514530 
# 
# From -- ./inp_files/57250.got.cif
#   From: 2010.05.17/outbox.cif.g08.bks.cpg/sg65_29_cif.got.tgz:57250.got - 2010.06.03 17:01:31.
