data_PCOD9488532
_publ_section_title
;
Structure prediction by ZEFSAII (Michael W. Deem and Ramdas Pophale) SiO2 
 PCOD9488532
Probable space group: C M M M
;
_chemical_formula_sum "Si O2"
_cell_formula_units_Z 104
_cell_length_a 20.695065
_cell_length_b 8.607981
_cell_length_c 33.701847
_cell_angle_alpha 90.000000
_cell_angle_beta 90.000000
_cell_angle_gamma 90.000000
_cell_volume 6003.738906
_symmetry_space_group_name_H-M "C M M M"
_symmetry_group_IT_number 65
_symmetry_cell_setting 'orthorhombic'
loop_
_space_group_symop_operation_xyz
x,y,z
-x,-y,z
x,-y,-z
-x,y,-z
-x,-y,-z
x,y,-z
-x,y,z
x,-y,z
1/2+x,1/2+y,z
1/2-x,1/2-y,z
1/2+x,1/2-y,-z
1/2-x,1/2+y,-z
1/2-x,1/2-y,-z
1/2+x,1/2+y,-z
1/2-x,1/2+y,z
1/2+x,1/2-y,z
loop_
_atom_site_type_symbol
_atom_site_label
_atom_site_fract_x
_atom_site_fract_y
_atom_site_fract_z
Si Si1 0.320448 0.314200 0.954356
Si Si2 0.679378 0.685866 0.257431
Si Si3 0.820708 0.812374 0.348655
Si Si4 0.925357 0.809588 0.413127
Si Si5 0.074103 0.312566 0.197042
Si Si6 0.574111 0.812561 0.105887
Si Si7 0.421523 0.678687 0.500000
O O1 0.318410 0.500000 0.953532
O O2 0.250000 0.250000 0.942960
O O3 0.375294 0.255079 0.924914
O O4 0.332980 0.263979 0.000000
O O5 0.681354 0.500000 0.256570
O O6 0.750000 0.750000 0.246386
O O7 0.666320 0.735737 0.303067
O O8 0.624802 0.744976 0.227799
O O9 0.750000 0.750000 0.359768
O O10 0.876274 0.760387 0.378924
O O11 0.818982 0.000000 0.349493
O O12 0.904134 0.753268 0.457090
O O13 0.000000 0.763749 0.405971
O O14 0.925249 0.000000 0.414431
O O15 0.076654 0.500000 0.198560
O O16 0.088408 0.266295 0.151462
O O17 0.000000 0.265910 0.205889
O O18 0.500000 0.766144 0.097049
O O19 0.576729 0.000000 0.104327
O O20 0.398326 0.500000 0.500000
O O21 0.500000 0.673993 0.500000
#
# Coordination Sequence:
#
# PCOD9488532 Si02
#       7
#    16  16  16  16  16  16   8
#     4  10  21  36  54  77 105 136 170 208 247 286
#     4  10  20  33  50  71  95 127 165 201 241 290
#     4   9  18  31  46  65  92 123 152 189 234 279
#     4   8  13  23  41  64  88 115 150 191 231 271
#     4   9  19  36  55  75 101 130 160 199 245 290
#     4   9  19  36  56  77 102 133 166 199 241 293
#     4   7  10  18  35  60  87 113 144 185 230 272
#
# _framework density 17.322538000000002
#
# number of rings (size 3 to 8) (size 9 to 14) (size 15 to 20)
#    0.000    3.000    0.000    2.769    0.000    4.308 
#    0.000    5.000    0.000    0.462    0.000    0.000 
#    0.000    1.846    0.000    0.000    0.000    0.000 
#
# Total GULP energy -289764.255894 kJ/mol
# GULP energy per Si atom -5572.389536 kJ/mol
# Density = 1.728311 g / cm^3
# Si number density = 17.322538 Si / 1000 Ang^3
#
#
#
# Elastic Constant Matrix: (Units=GPa)
#
#
# Indices 1 2 3 4 5 6 
#
# 1 149.0517 30.0958 127.2078 0.0000 0.0000 0.0000
# 2 30.0958 13.9717 29.9474 0.0000 0.0000 0.0000
# 3 127.2078 29.9474 136.9511 0.0000 0.0000 0.0000
# 4 0.0000 0.0000 0.0000 11.2626 0.0000 0.0000
# 5 0.0000 0.0000 0.0000 0.0000 77.6106 0.0000
# 6 0.0000 0.0000 0.0000 0.0000 0.0000 27.3546
#
#
#
# Elastic Compliance Matrix: (Units=1/GPa)
#
#
# Indices 1 2 3 4 5 6 
#
# 1 0.033119 -0.010168 -0.028539 0.000000 0.000000 0.000000
# 2 -0.010168 0.137838 -0.020697 0.000000 0.000000 0.000000
# 3 -0.028539 -0.020697 0.038336 0.000000 0.000000 0.000000
# 4 0.000000 0.000000 0.000000 0.088789 0.000000 0.000000
# 5 0.000000 0.000000 0.000000 0.000000 0.012885 0.000000
# 6 0.000000 0.000000 0.000000 0.000000 0.000000 0.036557
#
#
# Mechanical properties :
#
#
# Convention : Reuss Voigt Hill
#
# Bulk Modulus (GPa) = 11.05150 74.94184 42.99667
# Shear Modulus (GPa) = 10.07061 30.76046 20.41554
#
# Velocity S-wave (km/s) = 2.41375 4.21853 3.43673
# Velocity P-wave (km/s) = 3.76324 8.19052 6.37364
#
# Compressibility (1/GPa) = 0.09048548
#
# Stress axis : x y z
#
# Youngs Moduli (GPa) = 30.19429 7.25490 26.08484
#
# Poissons Ratio (x) = 0.07377 0.74444
# Poissons Ratio (y) = 0.30702 0.53987
# Poissons Ratio (z) = 0.86172 0.15015
#
# Static dielectric constant tensor:
#      x y z
#    x 1.554350 0.000000 0.000000 
#    y 0.000000 1.587390 0.000000 
#    z 0.000000 0.000000 1.600570 
# 
# From -- ./inp_files/78178.got.cif
#   From: 2010.05.17/outbox.cif.g08.bks.cpg/sg65_40_cif.got.tgz:78178.got - 2010.06.03 17:01:31.
