data_PCOD9488207
_publ_section_title
;
Structure prediction by ZEFSAII (Michael W. Deem and Ramdas Pophale) SiO2 
 PCOD9488207
Probable space group: C M M M
;
_chemical_formula_sum "Si O2"
_cell_formula_units_Z 100
_cell_length_a 7.434374
_cell_length_b 28.763534
_cell_length_c 21.455722
_cell_angle_alpha 90.000000
_cell_angle_beta 90.000000
_cell_angle_gamma 90.000000
_cell_volume 4588.067333
_symmetry_space_group_name_H-M "C M M M"
_symmetry_group_IT_number 65
_symmetry_cell_setting 'orthorhombic'
loop_
_space_group_symop_operation_xyz
x,y,z
-x,-y,z
x,-y,-z
-x,y,-z
-x,-y,-z
x,y,-z
-x,y,z
x,-y,z
1/2+x,1/2+y,z
1/2-x,1/2-y,z
1/2+x,1/2-y,-z
1/2-x,1/2+y,-z
1/2-x,1/2-y,-z
1/2+x,1/2+y,-z
1/2-x,1/2+y,z
1/2+x,1/2-y,z
loop_
_atom_site_type_symbol
_atom_site_label
_atom_site_fract_x
_atom_site_fract_y
_atom_site_fract_z
Si Si1 0.000000 0.338009 0.000000
Si Si2 0.207917 0.604054 0.567522
Si Si3 0.791525 0.145544 0.891545
Si Si4 0.786066 0.804533 0.766144
Si Si5 0.282035 0.053768 0.829370
Si Si6 0.213757 0.804151 0.627273
Si Si7 0.217763 0.554550 0.690361
O O1 0.158122 0.339900 0.054293
O O2 0.287894 0.592524 0.500000
O O3 0.211073 0.659281 0.578550
O O4 0.287528 0.581869 0.630326
O O5 0.000000 0.588625 0.565760
O O6 0.723736 0.167157 0.825891
O O7 0.785365 0.090092 0.879988
O O8 0.000000 0.159770 0.902084
O O9 0.750000 0.750000 0.776086
O O10 0.714445 0.815863 0.697034
O O11 0.000000 0.811435 0.763133
O O12 0.500000 0.054924 0.830310
O O13 0.220219 0.068513 0.759623
O O14 0.229247 0.000000 0.839008
O O15 0.250000 0.750000 0.615096
O O16 0.000000 0.810092 0.627378
O O17 0.257841 0.500000 0.683227
O O18 0.000000 0.559284 0.691877
#
# Coordination Sequence:
#
# PCOD9488207 Si02
#       7
#     4  16  16  16  16  16  16
#     4  12  26  44  63  88 122 170 192 228 289 344
#     4  10  20  32  48  75 112 153 195 232 281 346
#     4  11  23  41  63  88 121 156 198 241 282 347
#     4   9  20  36  61  90 114 141 188 242 291 345
#     4   9  17  33  59  89 115 147 193 243 298 351
#     4  10  20  36  56  82 109 139 183 239 293 340
#     4   8  15  29  52  82 113 145 189 239 285 336
#
# _framework density 21.795670999999999
#
# number of rings (size 3 to 8) (size 9 to 14) (size 15 to 20)
#    0.000    2.400    0.800    2.640    1.120    1.920 
#    0.000    2.800    0.000    2.400    0.000    1.120 
#    0.000    0.000    0.000    0.000    0.000    0.000 
#
# Total GULP energy -278675.130470 kJ/mol
# GULP energy per Si atom -5573.502609 kJ/mol
# Density = 2.174606 g / cm^3
# Si number density = 21.795671 Si / 1000 Ang^3
#
#
#
# Elastic Constant Matrix: (Units=GPa)
#
#
# Indices 1 2 3 4 5 6 
#
# 1 96.0723 -9.1669 9.5772 0.0000 0.0000 0.0000
# 2 -9.1669 18.7721 4.3917 0.0000 0.0000 0.0000
# 3 9.5772 4.3917 43.8109 0.0000 0.0000 0.0000
# 4 0.0000 0.0000 0.0000 -9.8238 0.0000 0.0000
# 5 0.0000 0.0000 0.0000 0.0000 9.9729 0.0000
# 6 0.0000 0.0000 0.0000 0.0000 0.0000 11.3217
#
#
#
# Elastic Compliance Matrix: (Units=1/GPa)
#
#
# Indices 1 2 3 4 5 6 
#
# 1 0.011314 0.006250 -0.003100 0.000000 0.000000 0.000000
# 2 0.006250 0.058003 -0.007181 0.000000 0.000000 0.000000
# 3 -0.003100 -0.007181 0.024223 0.000000 0.000000 0.000000
# 4 0.000000 0.000000 0.000000 -0.101793 0.000000 0.000000
# 5 0.000000 0.000000 0.000000 0.000000 0.100272 0.000000
# 6 0.000000 0.000000 0.000000 0.000000 0.000000 0.088326
#
#
# Mechanical properties :
#
#
# Convention : Reuss Voigt Hill
#
# Bulk Modulus (GPa) = 11.69877 18.69549 15.19713
# Shear Modulus (GPa) = 23.05230 12.55103 17.80167
#
# Velocity S-wave (km/s) = 3.25569 2.40229 2.86099
# Velocity P-wave (km/s) = 4.41722 4.03620 4.23100
#
# Compressibility (1/GPa) = 0.08547907
#
# Stress axis : x y z
#
# Youngs Moduli (GPa) = 88.38437 17.24059 41.28336
#
# Poissons Ratio (x) = -0.10776 0.12797
# Poissons Ratio (y) = -0.55242 0.29644
# Poissons Ratio (z) = 0.27398 0.12380
#
# Static dielectric constant tensor:
#      x y z
#    x 1.846260 0.000000 0.000000 
#    y 0.000000 1.792900 0.000000 
#    z 0.000000 0.000000 1.794450 
# 
# From -- ./inp_files/60390.got.cif
#   From: 2010.05.17/outbox.cif.g08.bks.cpg/sg65_31_cif.got.tgz:60390.got - 2010.06.03 17:01:31.
