data_PCOD9488958
_publ_section_title
;
Structure prediction by ZEFSAII (Michael W. Deem and Ramdas Pophale) SiO2 
 PCOD9488958
Probable space group: C M M M
;
_chemical_formula_sum "Si O2"
_cell_formula_units_Z 120
_cell_length_a 32.603962
_cell_length_b 15.461305
_cell_length_c 13.953231
_cell_angle_alpha 90.000000
_cell_angle_beta 90.000000
_cell_angle_gamma 90.000000
_cell_volume 7033.820966
_symmetry_space_group_name_H-M "C M M M"
_symmetry_group_IT_number 65
_symmetry_cell_setting 'orthorhombic'
loop_
_space_group_symop_operation_xyz
x,y,z
-x,-y,z
x,-y,-z
-x,y,-z
-x,-y,-z
x,y,-z
-x,y,z
x,-y,z
1/2+x,1/2+y,z
1/2-x,1/2-y,z
1/2+x,1/2-y,-z
1/2-x,1/2+y,-z
1/2-x,1/2-y,-z
1/2+x,1/2+y,-z
1/2-x,1/2+y,z
1/2+x,1/2-y,z
loop_
_atom_site_type_symbol
_atom_site_label
_atom_site_fract_x
_atom_site_fract_y
_atom_site_fract_z
Si Si1 0.111541 0.401105 0.386514
Si Si2 0.500000 0.604368 0.108529
Si Si3 0.808794 0.596591 0.743411
Si Si4 0.332119 0.602111 0.242533
Si Si5 0.765147 0.849652 0.611135
Si Si6 0.700733 0.749800 0.890881
Si Si7 0.070048 0.898500 0.258904
Si Si8 0.046113 0.741521 0.385126
O O1 0.119306 0.389153 0.500000
O O2 0.096761 0.500000 0.373528
O O3 0.153504 0.391215 0.329151
O O4 0.078584 0.330763 0.353893
O O5 0.500000 0.500000 0.102340
O O6 0.459077 0.626366 0.168953
O O7 0.500000 0.638653 0.000000
O O8 0.810827 0.500000 0.784937
O O9 0.767576 0.604031 0.680068
O O10 0.811139 0.670149 0.823347
O O11 0.322917 0.500000 0.231912
O O12 0.309274 0.636340 0.338833
O O13 0.314441 0.661415 0.157883
O O14 0.381288 0.611729 0.243493
O O15 0.764932 0.878271 0.500000
O O16 0.750000 0.750000 0.612803
O O17 0.750000 0.750000 0.891521
O O18 0.685998 0.757957 0.000000
O O19 0.057214 0.834603 0.343280
O O20 0.062278 0.000000 0.279629
O O21 0.047210 0.744122 0.500000
O O22 0.000000 0.718440 0.355023
#
# Coordination Sequence:
#
# PCOD9488958 Si02
#       8
#    16   8  16  16  16  16  16  16
#     4   9  19  34  54  82 112 141 177 224 273 321
#     4   9  18  36  59  79 102 133 173 223 273 318
#     4  11  20  36  59  80 107 143 185 229 277 326
#     4  11  22  38  58  81 111 147 185 226 276 330
#     4  11  22  36  56  81 112 149 187 229 276 324
#     4  11  23  39  55  77 109 142 183 231 279 325
#     4  10  21  36  55  79 110 142 176 221 268 319
#     4  10  20  33  53  79 109 147 182 213 258 321
#
# _framework density 17.060428000000002
#
# number of rings (size 3 to 8) (size 9 to 14) (size 15 to 20)
#    0.000    1.667    3.333    1.600    0.000    3.733 
#    0.000    6.000    0.000    0.000    0.000    0.000 
#    0.000    0.533    0.000    0.000    0.000    0.000 
#
# Total GULP energy -334722.772933 kJ/mol
# GULP energy per Si atom -5578.712882 kJ/mol
# Density = 1.702160 g / cm^3
# Si number density = 17.060428 Si / 1000 Ang^3
#
#
#
# Elastic Constant Matrix: (Units=GPa)
#
#
# Indices 1 2 3 4 5 6 
#
# 1 96.6041 36.3276 32.8195 0.0000 0.0000 0.0000
# 2 36.3276 79.5277 41.9297 0.0000 0.0000 0.0000
# 3 32.8195 41.9297 79.4023 0.0000 0.0000 0.0000
# 4 0.0000 0.0000 0.0000 2.9835 0.0000 0.0000
# 5 0.0000 0.0000 0.0000 0.0000 16.3722 0.0000
# 6 0.0000 0.0000 0.0000 0.0000 0.0000 25.1942
#
#
#
# Elastic Compliance Matrix: (Units=1/GPa)
#
#
# Indices 1 2 3 4 5 6 
#
# 1 0.013029 -0.004313 -0.003108 0.000000 0.000000 0.000000
# 2 -0.004313 0.018854 -0.008173 0.000000 0.000000 0.000000
# 3 -0.003108 -0.008173 0.018195 0.000000 0.000000 0.000000
# 4 0.000000 0.000000 0.000000 0.335182 0.000000 0.000000
# 5 0.000000 0.000000 0.000000 0.000000 0.061079 0.000000
# 6 0.000000 0.000000 0.000000 0.000000 0.000000 0.039692
#
#
# Mechanical properties :
#
#
# Convention : Reuss Voigt Hill
#
# Bulk Modulus (GPa) = 52.94011 53.07641 53.00826
# Shear Modulus (GPa) = 9.55082 18.54046 14.04564
#
# Velocity S-wave (km/s) = 2.36862 3.30017 2.87241
# Velocity P-wave (km/s) = 6.21118 6.76017 6.49148
#
# Compressibility (1/GPa) = 0.01888927
#
# Stress axis : x y z
#
# Youngs Moduli (GPa) = 76.75023 53.04013 54.96116
#
# Poissons Ratio (x) = 0.22877 0.17081
# Poissons Ratio (y) = 0.33103 0.44921
# Poissons Ratio (z) = 0.23852 0.43351
#
# Static dielectric constant tensor:
#      x y z
#    x 1.581560 0.000000 0.000000 
#    y 0.000000 1.585450 0.000000 
#    z 0.000000 0.000000 1.565300 
# 
# From -- ./inp_files/48064.got.cif
#   From: 2010.05.17/outbox.cif.g08.bks.cpg/sg65_25_cif.got.tgz:48064.got - 2010.06.03 17:01:31.
