data_PCOD9488716
_publ_section_title
;
Structure prediction by ZEFSAII (Michael W. Deem and Ramdas Pophale) SiO2 
 PCOD9488716
Probable space group: C M M M
;
_chemical_formula_sum "Si O2"
_cell_formula_units_Z 100
_cell_length_a 14.090801
_cell_length_b 9.522829
_cell_length_c 31.773654
_cell_angle_alpha 90.000000
_cell_angle_beta 90.000000
_cell_angle_gamma 90.000000
_cell_volume 4263.525152
_symmetry_space_group_name_H-M "C M M M"
_symmetry_group_IT_number 65
_symmetry_cell_setting 'orthorhombic'
loop_
_space_group_symop_operation_xyz
x,y,z
-x,-y,z
x,-y,-z
-x,y,-z
-x,-y,-z
x,y,-z
-x,y,z
x,-y,z
1/2+x,1/2+y,z
1/2-x,1/2-y,z
1/2+x,1/2-y,-z
1/2-x,1/2+y,-z
1/2-x,1/2-y,-z
1/2+x,1/2+y,-z
1/2-x,1/2+y,z
1/2+x,1/2-y,z
loop_
_atom_site_type_symbol
_atom_site_label
_atom_site_fract_x
_atom_site_fract_y
_atom_site_fract_z
Si Si1 0.615540 0.847642 0.362360
Si Si2 0.384295 0.658054 0.712786
Si Si3 0.315649 0.500000 0.500000
Si Si4 0.614953 0.230627 0.544373
Si Si5 0.849273 0.331827 0.046596
Si Si6 0.616022 0.159764 0.206684
Si Si7 0.390696 0.657369 0.128356
O O1 0.500000 0.847311 0.361791
O O2 0.645096 0.722402 0.331959
O O3 0.642003 0.832753 0.411203
O O4 0.646276 0.000000 0.346062
O O5 0.500000 0.653489 0.712866
O O6 0.350284 0.500000 0.719552
O O7 0.357757 0.762276 0.750334
O O8 0.333133 0.623563 0.535889
O O9 0.633816 0.148561 0.500000
O O10 0.500000 0.252967 0.545494
O O11 0.841382 0.500000 0.053699
O O12 0.750000 0.250000 0.043727
O O13 0.891962 0.252037 0.086431
O O14 0.893886 0.314792 0.000000
O O15 0.500000 0.153377 0.205889
O O16 0.647996 0.252177 0.166961
O O17 0.650715 0.000000 0.204475
O O18 0.500000 0.636466 0.139601
O O19 0.348661 0.500000 0.122215
#
# Coordination Sequence:
#
# PCOD9488716 Si02
#       7
#    16  16   4  16  16  16  16
#     4   9  16  22  27  37  53  73 100 136 182 237
#     4   9  16  23  33  47  64  88 118 153 196 249
#     4   8  13  20  26  34  44  60  86 126 176 228
#     4   8  13  19  27  33  44  63  90 127 174 229
#     4  10  21  37  56  77 103 135 169 204 244 289
#     4   9  16  27  42  59  82 109 138 175 220 267
#     4  10  20  33  51  75 102 131 165 203 242 287
#
# _framework density 23.454771999999998
#
# number of rings (size 3 to 8) (size 9 to 14) (size 15 to 20)
#    0.480    2.400    0.000    2.400    1.120    6.400 
#    0.000    3.200    0.000    0.000    0.000    0.000 
#    0.000    0.000    0.000    0.000    0.000    0.000 
#
# Total GULP energy -278532.338793 kJ/mol
# GULP energy per Si atom -5570.646776 kJ/mol
# Density = 2.340139 g / cm^3
# Si number density = 23.454772 Si / 1000 Ang^3
#
#
#
# Elastic Constant Matrix: (Units=GPa)
#
#
# Indices 1 2 3 4 5 6 
#
# 1 78.6888 5.1223 5.8302 0.0000 0.0000 0.0000
# 2 5.1223 222.1438 101.5396 0.0000 0.0000 0.0000
# 3 5.8302 101.5396 180.0380 0.0000 0.0000 0.0000
# 4 0.0000 0.0000 0.0000 42.7477 0.0000 0.0000
# 5 0.0000 0.0000 0.0000 0.0000 -18.2548 0.0000
# 6 0.0000 0.0000 0.0000 0.0000 0.0000 2.1456
#
#
#
# Elastic Compliance Matrix: (Units=1/GPa)
#
#
# Indices 1 2 3 4 5 6 
#
# 1 0.012742 -0.000142 -0.000333 0.000000 0.000000 0.000000
# 2 -0.000142 0.006067 -0.003417 0.000000 0.000000 0.000000
# 3 -0.000333 -0.003417 0.007492 0.000000 0.000000 0.000000
# 4 0.000000 0.000000 0.000000 0.023393 0.000000 0.000000
# 5 0.000000 0.000000 0.000000 0.000000 -0.054780 0.000000
# 6 0.000000 0.000000 0.000000 0.000000 0.000000 0.466061
#
#
# Mechanical properties :
#
#
# Convention : Reuss Voigt Hill
#
# Bulk Modulus (GPa) = 54.00046 78.42831 66.21439
# Shear Modulus (GPa) = 10.52784 29.88627 20.20706
#
# Velocity S-wave (km/s) = 2.12092 3.57348 2.93837
# Velocity P-wave (km/s) = 5.39175 7.10894 6.30904
#
# Compressibility (1/GPa) = 0.01851836
#
# Stress axis : x y z
#
# Youngs Moduli (GPa) = 78.47958 164.83359 133.47037
#
# Poissons Ratio (x) = 0.02336 0.04440
# Poissons Ratio (y) = 0.01112 0.45607
# Poissons Ratio (z) = 0.02611 0.56323
#
# Static dielectric constant tensor:
#      x y z
#    x 1.466890 0.000000 0.000000 
#    y 0.000000 1.854350 0.000000 
#    z 0.000000 0.000000 1.868980 
# 
# From -- ./inp_files/78263.got.cif
#   From: 2010.05.17/outbox.cif.g08.bks.cpg/sg65_40_cif.got.tgz:78263.got - 2010.06.03 17:01:31.
