data_PCOD9488597
_publ_section_title
;
Structure prediction by ZEFSAII (Michael W. Deem and Ramdas Pophale) SiO2 
 PCOD9488597
Probable space group: C M M M
;
_chemical_formula_sum "Si O2"
_cell_formula_units_Z 88
_cell_length_a 28.478291
_cell_length_b 9.031166
_cell_length_c 19.446523
_cell_angle_alpha 90.000000
_cell_angle_beta 90.000000
_cell_angle_gamma 90.000000
_cell_volume 5001.493516
_symmetry_space_group_name_H-M "C M M M"
_symmetry_group_IT_number 65
_symmetry_cell_setting 'orthorhombic'
loop_
_space_group_symop_operation_xyz
x,y,z
-x,-y,z
x,-y,-z
-x,y,-z
-x,-y,-z
x,y,-z
-x,y,z
x,-y,z
1/2+x,1/2+y,z
1/2-x,1/2-y,z
1/2+x,1/2-y,-z
1/2-x,1/2+y,-z
1/2-x,1/2-y,-z
1/2+x,1/2+y,-z
1/2-x,1/2+y,z
1/2+x,1/2-y,z
loop_
_atom_site_type_symbol
_atom_site_label
_atom_site_fract_x
_atom_site_fract_y
_atom_site_fract_z
Si Si1 0.117788 0.323390 0.920965
Si Si2 0.199581 0.176820 0.166718
Si Si3 0.901960 0.323496 0.580421
Si Si4 0.445847 0.823164 0.794185
Si Si5 0.635669 0.676108 0.294047
Si Si6 0.000000 0.168222 0.583171
O O1 0.127163 0.500000 0.918517
O O2 0.161837 0.239963 0.887344
O O3 0.073165 0.297044 0.871560
O O4 0.110150 0.280906 0.000000
O O5 0.250000 0.250000 0.157192
O O6 0.178412 0.211325 0.242474
O O7 0.202547 0.000000 0.160060
O O8 0.893561 0.287871 0.500000
O O9 0.903960 0.500000 0.587333
O O10 0.864342 0.254814 0.632309
O O11 0.952583 0.254938 0.600719
O O12 0.500000 0.780956 0.785817
O O13 0.410493 0.735753 0.745290
O O14 0.441626 0.000000 0.780481
O O15 0.632960 0.500000 0.302574
O O16 0.000000 0.160294 0.500000
O O17 0.000000 0.000000 0.610039
#
# Coordination Sequence:
#
# PCOD9488597 Si02
#       6
#    16  16  16  16  16   8
#     4   9  18  33  53  78 107 137 171 211 254 303
#     4  10  21  37  57  79 102 131 168 211 262 315
#     4  10  20  33  50  73 102 136 173 213 257 304
#     4   9  18  32  50  73 103 140 178 214 252 296
#     4  10  21  35  52  75 102 134 172 214 259 309
#     4   9  17  29  45  67  97 133 170 207 248 293
#
# _framework density 17.594743999999999
#
# number of rings (size 3 to 8) (size 9 to 14) (size 15 to 20)
#    0.000    2.455    0.000    1.909    1.273    5.818 
#    0.000    1.818    0.000    0.545    0.000    5.091 
#    0.000    0.000    0.000    0.000    0.000    0.000 
#
# Total GULP energy -245500.366652 kJ/mol
# GULP energy per Si atom -5579.553788 kJ/mol
# Density = 1.755470 g / cm^3
# Si number density = 17.594744 Si / 1000 Ang^3
#
#
#
# Elastic Constant Matrix: (Units=GPa)
#
#
# Indices 1 2 3 4 5 6 
#
# 1 38.5925 3.0088 -12.0649 0.0000 0.0000 0.0000
# 2 3.0088 34.1526 18.4400 0.0000 0.0000 0.0000
# 3 -12.0649 18.4400 74.2823 0.0000 0.0000 0.0000
# 4 0.0000 0.0000 0.0000 24.5814 0.0000 0.0000
# 5 0.0000 0.0000 0.0000 0.0000 14.2400 0.0000
# 6 0.0000 0.0000 0.0000 0.0000 0.0000 20.6978
#
#
#
# Elastic Compliance Matrix: (Units=1/GPa)
#
#
# Indices 1 2 3 4 5 6 
#
# 1 0.028237 -0.005732 0.006009 0.000000 0.000000 0.000000
# 2 -0.005732 0.034976 -0.009614 0.000000 0.000000 0.000000
# 3 0.006009 -0.009614 0.016825 0.000000 0.000000 0.000000
# 4 0.000000 0.000000 0.000000 0.040681 0.000000 0.000000
# 5 0.000000 0.000000 0.000000 0.000000 0.070225 0.000000
# 6 0.000000 0.000000 0.000000 0.000000 0.000000 0.048314
#
#
# Mechanical properties :
#
#
# Convention : Reuss Voigt Hill
#
# Bulk Modulus (GPa) = 16.29595 18.42168 17.35882
# Shear Modulus (GPa) = 17.96065 21.08007 19.52036
#
# Velocity S-wave (km/s) = 3.19846 3.46510 3.33444
# Velocity P-wave (km/s) = 4.78770 5.14800 4.97112
#
# Compressibility (1/GPa) = 0.06136494
#
# Stress axis : x y z
#
# Youngs Moduli (GPa) = 35.41409 28.59099 59.43645
#
# Poissons Ratio (x) = 0.16389 -0.35717
# Poissons Ratio (y) = 0.20300 0.57140
# Poissons Ratio (z) = -0.21281 0.27486
#
# Static dielectric constant tensor:
#      x y z
#    x 1.564450 0.000000 0.000000 
#    y 0.000000 1.589870 0.000000 
#    z 0.000000 0.000000 1.627080 
# 
# From -- ./inp_files/50430.got.cif
#   From: 2010.05.17/outbox.cif.g08.bks.cpg/sg65_26_cif.got.tgz:50430.got - 2010.06.03 17:01:31.
