data_PCOD9488544
_publ_section_title
;
Structure prediction by ZEFSAII (Michael W. Deem and Ramdas Pophale) SiO2 
 PCOD9488544
Probable space group: C M M M
;
_chemical_formula_sum "Si O2"
_cell_formula_units_Z 88
_cell_length_a 11.701524
_cell_length_b 28.659594
_cell_length_c 13.729157
_cell_angle_alpha 90.000000
_cell_angle_beta 90.000000
_cell_angle_gamma 90.000000
_cell_volume 4604.222819
_symmetry_space_group_name_H-M "C M M M"
_symmetry_group_IT_number 65
_symmetry_cell_setting 'orthorhombic'
loop_
_space_group_symop_operation_xyz
x,y,z
-x,-y,z
x,-y,-z
-x,y,-z
-x,-y,-z
x,y,-z
-x,y,z
x,-y,z
1/2+x,1/2+y,z
1/2-x,1/2-y,z
1/2+x,1/2-y,-z
1/2-x,1/2+y,-z
1/2-x,1/2-y,-z
1/2+x,1/2+y,-z
1/2-x,1/2+y,z
1/2+x,1/2-y,z
loop_
_atom_site_type_symbol
_atom_site_label
_atom_site_fract_x
_atom_site_fract_y
_atom_site_fract_z
Si Si1 0.255400 0.947193 0.291899
Si Si2 0.500000 0.551415 0.652212
Si Si3 0.242127 0.194153 0.386077
Si Si4 0.370948 0.861106 0.224463
Si Si5 0.500000 0.658262 0.390839
Si Si6 0.868290 0.443608 0.500000
Si Si7 0.128467 0.729791 0.114868
O O1 0.118969 0.948349 0.291418
O O2 0.296877 0.907439 0.219980
O O3 0.299700 0.932306 0.400724
O O4 0.297987 0.000000 0.274519
O O5 0.500000 0.500000 0.601363
O O6 0.500000 0.602194 0.602575
O O7 0.254801 0.180028 0.500000
O O8 0.250000 0.250000 0.382664
O O9 0.334181 0.169908 0.317505
O O10 0.118617 0.176425 0.347684
O O11 0.500000 0.876795 0.237670
O O12 0.363341 0.825359 0.135397
O O13 0.500000 0.678566 0.500000
O O14 0.873883 0.500000 0.500000
O O15 0.000000 0.426178 0.500000
O O16 0.250000 0.750000 0.153810
O O17 0.000000 0.743849 0.153716
O O18 0.126244 0.740035 0.000000
#
# Coordination Sequence:
#
# PCOD9488544 Si02
#       7
#    16   8  16  16   8   8  16
#     4  10  21  35  50  73 105 143 184 228 275 323
#     4  10  20  33  50  72 100 137 182 231 279 320
#     4  10  22  37  51  71 104 145 184 223 266 321
#     4  11  22  34  54  82 106 140 182 220 274 326
#     4  10  20  35  52  70  98 142 189 228 274 319
#     4   9  18  31  47  67  96 138 184 227 272 317
#     4   9  19  39  63  88 117 144 178 226 278 335
#
# _framework density 19.11289
#
# number of rings (size 3 to 8) (size 9 to 14) (size 15 to 20)
#    0.000    2.091    1.818    1.091    3.818    1.636 
#    3.273    0.000    0.000    0.545    0.000    2.545 
#    0.000    2.182    0.000    0.000    0.000    0.000 
#
# Total GULP energy -245088.793554 kJ/mol
# GULP energy per Si atom -5570.199854 kJ/mol
# Density = 1.906939 g / cm^3
# Si number density = 19.112890 Si / 1000 Ang^3
#
#
#
# Elastic Constant Matrix: (Units=GPa)
#
#
# Indices 1 2 3 4 5 6 
#
# 1 140.2551 35.1391 6.2858 0.0000 0.0000 0.0000
# 2 35.1391 94.1616 -5.9014 0.0000 0.0000 0.0000
# 3 6.2858 -5.9014 8.9770 0.0000 0.0000 0.0000
# 4 0.0000 0.0000 0.0000 19.2183 0.0000 0.0000
# 5 0.0000 0.0000 0.0000 0.0000 27.1181 0.0000
# 6 0.0000 0.0000 0.0000 0.0000 0.0000 34.9536
#
#
#
# Elastic Compliance Matrix: (Units=1/GPa)
#
#
# Indices 1 2 3 4 5 6 
#
# 1 0.008420 -0.003662 -0.008303 0.000000 0.000000 0.000000
# 2 -0.003662 0.012669 0.010893 0.000000 0.000000 0.000000
# 3 -0.008303 0.010893 0.124371 0.000000 0.000000 0.000000
# 4 0.000000 0.000000 0.000000 0.052034 0.000000 0.000000
# 5 0.000000 0.000000 0.000000 0.000000 0.036876 0.000000
# 6 0.000000 0.000000 0.000000 0.000000 0.000000 0.028609
#
#
# Mechanical properties :
#
#
# Convention : Reuss Voigt Hill
#
# Bulk Modulus (GPa) = 6.97762 34.93784 20.95773
# Shear Modulus (GPa) = 15.97981 30.11601 23.04791
#
# Velocity S-wave (km/s) = 2.89463 3.97380 3.47635
# Velocity P-wave (km/s) = 3.85104 6.27489 5.20600
#
# Compressibility (1/GPa) = 0.14331537
#
# Stress axis : x y z
#
# Youngs Moduli (GPa) = 118.77139 78.92995 8.04047
#
# Poissons Ratio (x) = 0.28907 0.06676
# Poissons Ratio (y) = 0.43498 -0.08759
# Poissons Ratio (z) = 0.98616 -0.85980
#
# Static dielectric constant tensor:
#      x y z
#    x 1.690670 0.000000 0.000000 
#    y 0.000000 1.676780 0.000000 
#    z 0.000000 0.000000 1.668770 
# 
# From -- ./inp_files/38726.got.cif
#   From: 2010.05.17/outbox.cif.g08.bks.cpg/sg65_20_cif.got.tgz:38726.got - 2010.06.03 17:01:31.
