data_PCOD9488139
_publ_section_title
;
Structure prediction by ZEFSAII (Michael W. Deem and Ramdas Pophale) SiO2 
 PCOD9488139
Probable space group: C M M M
;
_chemical_formula_sum "Si O2"
_cell_formula_units_Z 64
_cell_length_a 14.702486
_cell_length_b 28.632795
_cell_length_c 9.007069
_cell_angle_alpha 90.000000
_cell_angle_beta 90.000000
_cell_angle_gamma 90.000000
_cell_volume 3791.735269
_symmetry_space_group_name_H-M "C M M M"
_symmetry_group_IT_number 65
_symmetry_cell_setting 'orthorhombic'
loop_
_space_group_symop_operation_xyz
x,y,z
-x,-y,z
x,-y,-z
-x,y,-z
-x,-y,-z
x,y,-z
-x,y,z
x,-y,z
1/2+x,1/2+y,z
1/2-x,1/2-y,z
1/2+x,1/2-y,-z
1/2-x,1/2+y,-z
1/2-x,1/2-y,-z
1/2+x,1/2+y,-z
1/2-x,1/2+y,z
1/2+x,1/2-y,z
loop_
_atom_site_type_symbol
_atom_site_label
_atom_site_fract_x
_atom_site_fract_y
_atom_site_fract_z
Si Si1 0.600398 0.828041 0.323387
Si Si2 0.855732 0.234935 0.168383
Si Si3 0.393716 0.445817 0.678020
Si Si4 0.714420 0.362586 0.178344
O O1 0.612689 0.830878 0.500000
O O2 0.500000 0.847142 0.285040
O O3 0.601596 0.773821 0.272838
O O4 0.685354 0.852756 0.243888
O O5 0.750000 0.250000 0.159662
O O6 0.850653 0.181477 0.220761
O O7 0.892308 0.237432 0.000000
O O8 0.383942 0.440444 0.500000
O O9 0.500000 0.437182 0.714538
O O10 0.373919 0.500000 0.714095
O O11 0.329273 0.409687 0.760854
O O12 0.719878 0.362213 0.000000
#
# Coordination Sequence:
#
# PCOD9488139 Si02
#       4
#    16  16  16  16
#     4  10  20  32  48  72 101 135 174 211 247 290
#     4   8  16  30  45  65  95 129 164 201 242 287
#     4   9  19  36  56  77 101 129 161 200 249 301
#     4  10  20  33  51  75 102 134 169 205 249 298
#
# _framework density 16.878814999999999
#
# number of rings (size 3 to 8) (size 9 to 14) (size 15 to 20)
#    0.000    2.750    0.000    3.750    0.000    9.500 
#    0.000    6.250    0.000    0.750    0.000    5.250 
#    0.000    0.000    0.000    0.000    0.000    0.000 
#
# Total GULP energy -178324.886831 kJ/mol
# GULP energy per Si atom -5572.652713 kJ/mol
# Density = 1.684040 g / cm^3
# Si number density = 16.878815 Si / 1000 Ang^3
#
#
#
# Elastic Constant Matrix: (Units=GPa)
#
#
# Indices 1 2 3 4 5 6 
#
# 1 105.1722 70.7039 49.6784 0.0000 0.0000 0.0000
# 2 70.7039 114.7959 48.8313 0.0000 0.0000 0.0000
# 3 49.6784 48.8313 51.8788 0.0000 0.0000 0.0000
# 4 0.0000 0.0000 0.0000 29.5872 0.0000 0.0000
# 5 0.0000 0.0000 0.0000 0.0000 124.7455 0.0000
# 6 0.0000 0.0000 0.0000 0.0000 0.0000 20.5686
#
#
#
# Elastic Compliance Matrix: (Units=1/GPa)
#
#
# Indices 1 2 3 4 5 6 
#
# 1 0.020296 -0.007060 -0.012790 0.000000 0.000000 0.000000
# 2 -0.007060 0.016984 -0.009226 0.000000 0.000000 0.000000
# 3 -0.012790 -0.009226 0.040206 0.000000 0.000000 0.000000
# 4 0.000000 0.000000 0.000000 0.033798 0.000000 0.000000
# 5 0.000000 0.000000 0.000000 0.000000 0.008016 0.000000
# 6 0.000000 0.000000 0.000000 0.000000 0.000000 0.048618
#
#
# Mechanical properties :
#
#
# Convention : Reuss Voigt Hill
#
# Bulk Modulus (GPa) = 51.71803 67.80826 59.76314
# Shear Modulus (GPa) = 21.50414 41.82248 31.66331
#
# Velocity S-wave (km/s) = 3.57323 4.98316 4.33589
# Velocity P-wave (km/s) = 6.90878 8.56563 7.78143
#
# Compressibility (1/GPa) = 0.01933562
#
# Stress axis : x y z
#
# Youngs Moduli (GPa) = 49.27192 58.88004 24.87162
#
# Poissons Ratio (x) = 0.41568 0.31810
# Poissons Ratio (y) = 0.34785 0.22946
# Poissons Ratio (z) = 0.63017 0.54320
#
# Static dielectric constant tensor:
#      x y z
#    x 1.584820 0.000000 0.000000 
#    y 0.000000 1.567100 0.000000 
#    z 0.000000 0.000000 1.562990 
# 
# From -- ./inp_files/6696.got.cif
#   From: 2010.05.17/outbox.cif.g08.bks.cpg/sg65_4_cif.got.tgz:6696.got - 2010.06.03 17:01:31.
