data_PCOD9488393
_publ_section_title
;
Structure prediction by ZEFSAII (Michael W. Deem and Ramdas Pophale) SiO2 
 PCOD9488393
Probable space group: C M M M
;
_chemical_formula_sum "Si O2"
_cell_formula_units_Z 88
_cell_length_a 29.888379
_cell_length_b 7.558487
_cell_length_c 19.834137
_cell_angle_alpha 90.000000
_cell_angle_beta 90.000000
_cell_angle_gamma 90.000000
_cell_volume 4480.748219
_symmetry_space_group_name_H-M "C M M M"
_symmetry_group_IT_number 65
_symmetry_cell_setting 'orthorhombic'
loop_
_space_group_symop_operation_xyz
x,y,z
-x,-y,z
x,-y,-z
-x,y,-z
-x,-y,-z
x,y,-z
-x,y,z
x,-y,z
1/2+x,1/2+y,z
1/2-x,1/2-y,z
1/2+x,1/2-y,-z
1/2-x,1/2+y,-z
1/2-x,1/2-y,-z
1/2+x,1/2+y,-z
1/2-x,1/2+y,z
1/2+x,1/2-y,z
loop_
_atom_site_type_symbol
_atom_site_label
_atom_site_fract_x
_atom_site_fract_y
_atom_site_fract_z
Si Si1 0.663875 0.293810 0.857886
Si Si2 0.799394 0.290476 0.280660
Si Si3 0.698272 0.711331 0.000000
Si Si4 0.930979 0.698519 0.187567
Si Si5 0.446959 0.500000 0.580681
Si Si6 0.500000 0.783085 0.922175
Si Si7 0.101212 0.716528 0.669938
O O1 0.652039 0.500000 0.865496
O O2 0.698070 0.282213 0.795751
O O3 0.679320 0.221630 0.929515
O O4 0.620057 0.193660 0.834993
O O5 0.802725 0.500000 0.275785
O O6 0.750000 0.250000 0.309909
O O7 0.845943 0.235013 0.317762
O O8 0.750000 0.750000 0.000000
O O9 0.691801 0.500000 0.000000
O O10 0.948475 0.500000 0.196610
O O11 0.926700 0.773940 0.262742
O O12 0.958576 0.775468 0.125011
O O13 0.500000 0.500000 0.599149
O O14 0.444258 0.500000 0.500000
O O15 0.421347 0.672002 0.610631
O O16 0.500000 0.000000 0.926739
O O17 0.500000 0.721465 0.000000
O O18 0.098715 0.500000 0.663385
#
# Coordination Sequence:
#
# PCOD9488393 Si02
#       7
#    16  16   8  16   8   8  16
#     4  10  20  33  48  69 104 142 187 244 298 351
#     4  10  20  34  57  90 118 153 200 248 299 361
#     4  10  22  34  44  63  92 135 181 228 291 352
#     4   9  19  34  53  79 107 145 197 243 297 359
#     4  11  26  44  68 102 130 162 208 250 307 377
#     4   9  18  32  51  77 109 146 196 255 312 366
#     4   9  21  40  63  94 130 166 206 256 307 366
#
# _framework density 19.639576000000002
#
# number of rings (size 3 to 8) (size 9 to 14) (size 15 to 20)
#    0.000    2.364    0.000    2.727    8.909    3.636 
#    0.000    1.364    0.000    1.091    0.000    0.000 
#    0.000    0.000    0.000    0.000    0.000    0.000 
#
# Total GULP energy -245038.904439 kJ/mol
# GULP energy per Si atom -5569.066010 kJ/mol
# Density = 1.959488 g / cm^3
# Si number density = 19.639576 Si / 1000 Ang^3
#
#
#
# Elastic Constant Matrix: (Units=GPa)
#
#
# Indices 1 2 3 4 5 6 
#
# 1 113.0266 24.0453 57.3440 0.0000 0.0000 0.0000
# 2 24.0453 74.9055 27.5962 0.0000 0.0000 0.0000
# 3 57.3440 27.5962 115.0365 0.0000 0.0000 0.0000
# 4 0.0000 0.0000 0.0000 15.3437 0.0000 0.0000
# 5 0.0000 0.0000 0.0000 0.0000 20.1424 0.0000
# 6 0.0000 0.0000 0.0000 0.0000 0.0000 62.5547
#
#
#
# Elastic Compliance Matrix: (Units=1/GPa)
#
#
# Indices 1 2 3 4 5 6 
#
# 1 0.012064 -0.001818 -0.005578 0.000000 0.000000 0.000000
# 2 -0.001818 0.014918 -0.002673 0.000000 0.000000 0.000000
# 3 -0.005578 -0.002673 0.012114 0.000000 0.000000 0.000000
# 4 0.000000 0.000000 0.000000 0.065173 0.000000 0.000000
# 5 0.000000 0.000000 0.000000 0.000000 0.049646 0.000000
# 6 0.000000 0.000000 0.000000 0.000000 0.000000 0.015986
#
#
# Mechanical properties :
#
#
# Convention : Reuss Voigt Hill
#
# Bulk Modulus (GPa) = 52.74091 57.88216 55.31154
# Shear Modulus (GPa) = 25.46356 32.54036 29.00196
#
# Velocity S-wave (km/s) = 3.60466 4.07489 3.84697
# Velocity P-wave (km/s) = 6.65113 7.18859 6.92507
#
# Compressibility (1/GPa) = 0.01896061
#
# Stress axis : x y z
#
# Youngs Moduli (GPa) = 82.89109 67.03172 82.54621
#
# Poissons Ratio (x) = 0.12185 0.46042
# Poissons Ratio (y) = 0.15068 0.22062
# Poissons Ratio (z) = 0.46234 0.17915
#
# Static dielectric constant tensor:
#      x y z
#    x 1.723070 0.000000 0.000000 
#    y 0.000000 1.743220 0.000000 
#    z 0.000000 0.000000 1.291140 
# 
# From -- ./inp_files/58073.got.cif
#   From: 2010.05.17/outbox.cif.g08.bks.cpg/sg65_30_cif.got.tgz:58073.got - 2010.06.03 17:01:31.
