data_PCOD9488448
_publ_section_title
;
Structure prediction by ZEFSAII (Michael W. Deem and Ramdas Pophale) SiO2 
 PCOD9488448
Probable space group: C M M M
;
_chemical_formula_sum "Si O2"
_cell_formula_units_Z 80
_cell_length_a 19.995556
_cell_length_b 27.099542
_cell_length_c 7.973430
_cell_angle_alpha 90.000000
_cell_angle_beta 90.000000
_cell_angle_gamma 90.000000
_cell_volume 4320.565780
_symmetry_space_group_name_H-M "C M M M"
_symmetry_group_IT_number 65
_symmetry_cell_setting 'orthorhombic'
loop_
_space_group_symop_operation_xyz
x,y,z
-x,-y,z
x,-y,-z
-x,y,-z
-x,-y,-z
x,y,-z
-x,y,z
x,-y,z
1/2+x,1/2+y,z
1/2-x,1/2-y,z
1/2+x,1/2-y,-z
1/2-x,1/2+y,-z
1/2-x,1/2-y,-z
1/2+x,1/2+y,-z
1/2-x,1/2+y,z
1/2+x,1/2-y,z
loop_
_atom_site_type_symbol
_atom_site_label
_atom_site_fract_x
_atom_site_fract_y
_atom_site_fract_z
Si Si1 0.423703 0.500000 0.800640
Si Si2 0.077356 0.392543 0.205919
Si Si3 0.674052 0.805497 0.794883
Si Si4 0.581360 0.000000 0.805654
Si Si5 0.423847 0.393724 0.698903
Si Si6 0.172896 0.805397 0.201558
O O1 0.500000 0.500000 0.730235
O O2 0.394463 0.447326 0.748054
O O3 0.426776 0.500000 0.000000
O O4 0.124305 0.348161 0.262021
O O5 0.100576 0.446808 0.266519
O O6 0.000000 0.385030 0.254168
O O7 0.078317 0.393974 0.000000
O O8 0.750713 0.814751 0.742046
O O9 0.654286 0.750057 0.741381
O O10 0.673125 0.805980 0.000000
O O11 0.500000 0.000000 0.806773
O O12 0.603519 0.000000 0.000000
O O13 0.428836 0.393038 0.500000
O O14 0.500000 0.389900 0.769783
O O15 0.377904 0.348191 0.750488
O O16 0.174821 0.803776 0.000000
#
# Coordination Sequence:
#
# PCOD9488448 Si02
#       6
#     8  16  16   8  16  16
#     4   9  17  31  52  75  96 120 152 189 232 283
#     4   8  12  19  33  53  77 107 143 181 224 274
#     4   8  15  27  41  59  87 121 154 192 236 277
#     4   7  10  16  27  46  73 103 134 169 208 252
#     4  10  20  33  49  70  96 124 155 194 238 283
#     4   9  17  30  46  64  90 122 155 193 234 274
#
# _framework density 18.516093000000001
#
# number of rings (size 3 to 8) (size 9 to 14) (size 15 to 20)
#    0.000    3.400    0.000    3.300    0.000    3.200 
#    0.000    5.000    0.000    3.600    0.000    0.000 
#    0.000    0.000    0.000    0.000    0.000   19.400 
#
# Total GULP energy -222676.093514 kJ/mol
# GULP energy per Si atom -5566.902338 kJ/mol
# Density = 1.847395 g / cm^3
# Si number density = 18.516093 Si / 1000 Ang^3
#
#
#
# Elastic Constant Matrix: (Units=GPa)
#
#
# Indices 1 2 3 4 5 6 
#
# 1 75.6334 109.4836 8.7808 0.0000 0.0000 0.0000
# 2 109.4836 233.7931 15.0388 0.0000 0.0000 0.0000
# 3 8.7808 15.0388 16.0734 0.0000 0.0000 0.0000
# 4 0.0000 0.0000 0.0000 -41.3706 0.0000 0.0000
# 5 0.0000 0.0000 0.0000 0.0000 5.3601 0.0000
# 6 0.0000 0.0000 0.0000 0.0000 0.0000 -13.0161
#
#
#
# Elastic Compliance Matrix: (Units=1/GPa)
#
#
# Indices 1 2 3 4 5 6 
#
# 1 0.041386 -0.019074 -0.004762 0.000000 0.000000 0.000000
# 2 -0.019074 0.013342 -0.002063 0.000000 0.000000 0.000000
# 3 -0.004762 -0.002063 0.066747 0.000000 0.000000 0.000000
# 4 0.000000 0.000000 0.000000 -0.024172 0.000000 0.000000
# 5 0.000000 0.000000 0.000000 0.000000 0.186563 0.000000
# 6 0.000000 0.000000 0.000000 0.000000 0.000000 -0.076828
#
#
# Mechanical properties :
#
#
# Convention : Reuss Voigt Hill
#
# Bulk Modulus (GPa) = 14.35234 65.78957 40.07096
# Shear Modulus (GPa) = 17.72656 3.00780 10.36718
#
# Velocity S-wave (km/s) = 3.09748 1.27591 2.36879
# Velocity P-wave (km/s) = 4.53438 6.14644 5.40090
#
# Compressibility (1/GPa) = 0.06967505
#
# Stress axis : x y z
#
# Youngs Moduli (GPa) = 24.16299 74.94928 14.98202
#
# Poissons Ratio (x) = 1.42960 0.07135
# Poissons Ratio (y) = 0.46089 0.03091
# Poissons Ratio (z) = 0.11507 0.15465
#
# Static dielectric constant tensor:
#      x y z
#    x 1.630920 0.000000 0.000000 
#    y 0.000000 1.667600 0.000000 
#    z 0.000000 0.000000 1.646890 
# 
# From -- ./inp_files/12115.got.cif
#   From: 2010.05.17/outbox.cif.g08.bks.cpg/sg65_7_cif.got.tgz:12115.got - 2010.06.03 17:01:31.
