data_PCOD9488826
_publ_section_title
;
Structure prediction by ZEFSAII (Michael W. Deem and Ramdas Pophale) SiO2 
 PCOD9488826
Probable space group: C M M M
;
_chemical_formula_sum "Si O2"
_cell_formula_units_Z 80
_cell_length_a 18.133189
_cell_length_b 19.748531
_cell_length_c 13.369595
_cell_angle_alpha 90.000000
_cell_angle_beta 90.000000
_cell_angle_gamma 90.000000
_cell_volume 4787.703377
_symmetry_space_group_name_H-M "C M M M"
_symmetry_group_IT_number 65
_symmetry_cell_setting 'orthorhombic'
loop_
_space_group_symop_operation_xyz
x,y,z
-x,-y,z
x,-y,-z
-x,y,-z
-x,-y,-z
x,y,-z
-x,y,z
x,-y,z
1/2+x,1/2+y,z
1/2-x,1/2-y,z
1/2+x,1/2-y,-z
1/2-x,1/2+y,-z
1/2-x,1/2-y,-z
1/2+x,1/2+y,-z
1/2-x,1/2+y,z
1/2+x,1/2-y,z
loop_
_atom_site_type_symbol
_atom_site_label
_atom_site_fract_x
_atom_site_fract_y
_atom_site_fract_z
Si Si1 0.779108 0.326848 0.384690
Si Si2 0.912192 0.828971 0.881688
Si Si3 0.290952 0.420524 0.218224
Si Si4 0.367712 0.923699 0.881946
Si Si5 0.082772 0.303969 0.750561
O O1 0.780167 0.348684 0.500000
O O2 0.750000 0.250000 0.379864
O O3 0.730104 0.376694 0.316232
O O4 0.859945 0.321498 0.336159
O O5 0.860618 0.887860 0.837877
O O6 0.895567 0.761892 0.816090
O O7 0.000000 0.842990 0.871754
O O8 0.897389 0.818110 0.000000
O O9 0.302153 0.500000 0.240146
O O10 0.218213 0.414818 0.148248
O O11 0.413373 0.867286 0.825226
O O12 0.388982 0.000000 0.852134
O O13 0.376064 0.916964 0.000000
O O14 0.000000 0.293324 0.713117
#
# Coordination Sequence:
#
# PCOD9488826 Si02
#       5
#    16  16  16  16  16
#     4  10  20  37  59  80 100 131 177 221 265 316
#     4  10  20  33  51  78 111 147 183 216 257 312
#     4  10  20  35  54  78 107 139 177 222 269 313
#     4   9  18  31  49  75 106 142 180 216 258 311
#     4  10  20  34  52  78 110 141 174 216 265 315
#
# _framework density 16.709472999999999
#
# number of rings (size 3 to 8) (size 9 to 14) (size 15 to 20)
#    0.000    2.200    2.000    1.200    0.000    4.000 
#    0.000    5.000    0.000    0.600    0.000    7.000 
#    0.000    0.000    0.000    0.000    0.000    0.000 
#
# Total GULP energy -223051.084740 kJ/mol
# GULP energy per Si atom -5576.277119 kJ/mol
# Density = 1.667144 g / cm^3
# Si number density = 16.709473 Si / 1000 Ang^3
#
#
#
# Elastic Constant Matrix: (Units=GPa)
#
#
# Indices 1 2 3 4 5 6 
#
# 1 48.8401 19.5274 23.9304 0.0000 0.0000 0.0000
# 2 19.5274 64.6145 12.2962 0.0000 0.0000 0.0000
# 3 23.9304 12.2962 65.5863 0.0000 0.0000 0.0000
# 4 0.0000 0.0000 0.0000 22.8735 0.0000 0.0000
# 5 0.0000 0.0000 0.0000 0.0000 14.0378 0.0000
# 6 0.0000 0.0000 0.0000 0.0000 0.0000 22.1686
#
#
#
# Elastic Compliance Matrix: (Units=1/GPa)
#
#
# Indices 1 2 3 4 5 6 
#
# 1 0.027414 -0.006617 -0.008762 0.000000 0.000000 0.000000
# 2 -0.006617 0.017646 -0.000894 0.000000 0.000000 0.000000
# 3 -0.008762 -0.000894 0.018612 0.000000 0.000000 0.000000
# 4 0.000000 0.000000 0.000000 0.043719 0.000000 0.000000
# 5 0.000000 0.000000 0.000000 0.000000 0.071236 0.000000
# 6 0.000000 0.000000 0.000000 0.000000 0.000000 0.045109
#
#
# Mechanical properties :
#
#
# Convention : Reuss Voigt Hill
#
# Bulk Modulus (GPa) = 32.12795 32.28322 32.20559
# Shear Modulus (GPa) = 18.75064 20.03508 19.39286
#
# Velocity S-wave (km/s) = 3.35349 3.46645 3.41044
# Velocity P-wave (km/s) = 5.85352 5.94844 5.90117
#
# Compressibility (1/GPa) = 0.03112554
#
# Stress axis : x y z
#
# Youngs Moduli (GPa) = 36.47781 56.66878 53.72992
#
# Poissons Ratio (x) = 0.37501 0.47077
# Poissons Ratio (y) = 0.24139 0.04803
# Poissons Ratio (z) = 0.31961 0.05065
#
# Static dielectric constant tensor:
#      x y z
#    x 1.568190 0.000000 0.000000 
#    y 0.000000 1.554300 0.000000 
#    z 0.000000 0.000000 1.535870 
# 
# From -- ./inp_files/40023.got.cif
#   From: 2010.05.17/outbox.cif.g08.bks.cpg/sg65_21_cif.got.tgz:40023.got - 2010.06.03 17:01:31.
