data_PCOD9488008
_publ_section_title
;
Structure prediction by ZEFSAII (Michael W. Deem and Ramdas Pophale) SiO2 
 PCOD9488008
Probable space group: C M M M
;
_chemical_formula_sum "Si O2"
_cell_formula_units_Z 120
_cell_length_a 8.739216
_cell_length_b 28.808246
_cell_length_c 29.020937
_cell_angle_alpha 90.000000
_cell_angle_beta 90.000000
_cell_angle_gamma 90.000000
_cell_volume 7306.354177
_symmetry_space_group_name_H-M "C M M M"
_symmetry_group_IT_number 65
_symmetry_cell_setting 'orthorhombic'
loop_
_space_group_symop_operation_xyz
x,y,z
-x,-y,z
x,-y,-z
-x,y,-z
-x,-y,-z
x,y,-z
-x,y,z
x,-y,z
1/2+x,1/2+y,z
1/2-x,1/2-y,z
1/2+x,1/2-y,-z
1/2-x,1/2+y,-z
1/2-x,1/2-y,-z
1/2+x,1/2+y,-z
1/2-x,1/2+y,z
1/2+x,1/2-y,z
loop_
_atom_site_type_symbol
_atom_site_label
_atom_site_fract_x
_atom_site_fract_y
_atom_site_fract_z
Si Si1 0.680503 0.610274 0.768040
Si Si2 0.683296 0.892516 0.412049
Si Si3 0.318274 0.054830 0.147292
Si Si4 0.683203 0.299966 0.624545
Si Si5 0.820751 0.056220 0.050752
Si Si6 0.181956 0.554838 0.683401
Si Si7 0.316258 0.445511 0.500000
Si Si8 0.182545 0.700500 0.727119
O O1 0.500000 0.618391 0.768305
O O2 0.733336 0.584472 0.814179
O O3 0.726181 0.577894 0.724864
O O4 0.767177 0.658707 0.759798
O O5 0.500000 0.888372 0.415873
O O6 0.757757 0.841891 0.406801
O O7 0.717684 0.920488 0.364920
O O8 0.749186 0.920481 0.455069
O O9 0.500000 0.058661 0.153648
O O10 0.271876 0.070499 0.095831
O O11 0.277466 0.000000 0.152029
O O12 0.500000 0.298363 0.625930
O O13 0.750000 0.250000 0.610203
O O14 0.747364 0.308663 0.676253
O O15 0.000000 0.068341 0.055942
O O16 0.812757 0.000000 0.049764
O O17 0.768074 0.072455 0.000000
O O18 0.210942 0.500000 0.680454
O O19 0.000000 0.561586 0.692364
O O20 0.274712 0.500000 0.500000
O O21 0.500000 0.441940 0.500000
O O22 0.500000 0.797026 0.722999
O O23 0.250000 0.750000 0.742257
#
# Coordination Sequence:
#
# PCOD9488008 Si02
#       8
#    16  16  16  16  16  16   8  16
#     4  12  23  34  50  74 104 140 177 215 262 314
#     4  11  22  39  62  85 109 142 179 218 263 313
#     4  10  20  32  46  67 100 141 181 222 267 314
#     4  11  21  36  59  87 114 141 173 212 259 311
#     4   8  14  26  44  65  91 127 173 222 268 314
#     4  10  21  36  54  76 104 138 176 217 258 306
#     4  11  25  43  62  85 114 145 179 221 263 309
#     4  11  21  36  56  79 106 137 173 214 259 310
#
# _framework density 16.424060999999998
#
# number of rings (size 3 to 8) (size 9 to 14) (size 15 to 20)
#    0.000    1.533    1.333    6.600    0.000    4.533 
#    0.000    1.667    0.000    0.000    0.000    0.000 
#    0.000    0.533    0.000    2.000    0.000    3.067 
#
# Total GULP energy -335147.426299 kJ/mol
# GULP energy per Si atom -5585.790438 kJ/mol
# Density = 1.638668 g / cm^3
# Si number density = 16.424061 Si / 1000 Ang^3
#
#
#
# Elastic Constant Matrix: (Units=GPa)
#
#
# Indices 1 2 3 4 5 6 
#
# 1 103.5541 53.4493 52.7901 0.0000 0.0000 0.0000
# 2 53.4493 102.2562 52.5689 0.0000 0.0000 0.0000
# 3 52.7901 52.5689 102.1309 0.0000 0.0000 0.0000
# 4 0.0000 0.0000 0.0000 6.2638 0.0000 0.0000
# 5 0.0000 0.0000 0.0000 0.0000 29.2694 0.0000
# 6 0.0000 0.0000 0.0000 0.0000 0.0000 23.5646
#
#
#
# Elastic Compliance Matrix: (Units=1/GPa)
#
#
# Indices 1 2 3 4 5 6 
#
# 1 0.014906 -0.005209 -0.005024 0.000000 0.000000 0.000000
# 2 -0.005209 0.015118 -0.005089 0.000000 0.000000 0.000000
# 3 -0.005024 -0.005089 0.015008 0.000000 0.000000 0.000000
# 4 0.000000 0.000000 0.000000 0.159646 0.000000 0.000000
# 5 0.000000 0.000000 0.000000 0.000000 0.034165 0.000000
# 6 0.000000 0.000000 0.000000 0.000000 0.000000 0.042437
#
#
# Mechanical properties :
#
#
# Convention : Reuss Voigt Hill
#
# Bulk Modulus (GPa) = 69.50032 69.50642 69.50337
# Shear Modulus (GPa) = 15.78676 21.76176 18.77426
#
# Velocity S-wave (km/s) = 3.10368 3.64399 3.38464
# Velocity P-wave (km/s) = 7.43316 7.75349 7.59501
#
# Compressibility (1/GPa) = 0.01438842
#
# Stress axis : x y z
#
# Youngs Moduli (GPa) = 67.08533 66.14436 66.63260
#
# Poissons Ratio (x) = 0.34454 0.33475
# Poissons Ratio (y) = 0.34944 0.33912
# Poissons Ratio (z) = 0.33702 0.33663
#
# Static dielectric constant tensor:
#      x y z
#    x 1.552230 0.000000 0.000000 
#    y 0.000000 1.543940 0.000000 
#    z 0.000000 0.000000 1.541030 
# 
# From -- ./inp_files/73870.got.cif
#   From: 2010.05.17/outbox.cif.g08.bks.cpg/sg65_37_cif.got.tgz:73870.got - 2010.06.03 17:01:31.
