data_PCOD9488515
_publ_section_title
;
Structure prediction by ZEFSAII (Michael W. Deem and Ramdas Pophale) SiO2 
 PCOD9488515
Probable space group: C M M M
;
_chemical_formula_sum "Si O2"
_cell_formula_units_Z 72
_cell_length_a 7.759190
_cell_length_b 26.383129
_cell_length_c 17.362548
_cell_angle_alpha 90.000000
_cell_angle_beta 90.000000
_cell_angle_gamma 90.000000
_cell_volume 3554.316903
_symmetry_space_group_name_H-M "C M M M"
_symmetry_group_IT_number 65
_symmetry_cell_setting 'orthorhombic'
loop_
_space_group_symop_operation_xyz
x,y,z
-x,-y,z
x,-y,-z
-x,y,-z
-x,-y,-z
x,y,-z
-x,y,z
x,-y,z
1/2+x,1/2+y,z
1/2-x,1/2-y,z
1/2+x,1/2-y,-z
1/2-x,1/2+y,-z
1/2-x,1/2-y,-z
1/2+x,1/2+y,-z
1/2-x,1/2+y,z
1/2+x,1/2-y,z
loop_
_atom_site_type_symbol
_atom_site_label
_atom_site_fract_x
_atom_site_fract_y
_atom_site_fract_z
Si Si1 0.798691 0.694551 0.253508
Si Si2 0.710695 0.000000 0.412000
Si Si3 0.795681 0.054547 0.121190
Si Si4 0.291343 0.665927 0.917517
Si Si5 0.209826 0.584786 0.293070
O O1 0.750000 0.750000 0.282699
O O2 0.763924 0.691600 0.161713
O O3 0.724550 0.642993 0.290822
O O4 0.000000 0.690402 0.264637
O O5 0.764639 0.950290 0.363923
O O6 0.500000 0.000000 0.412782
O O7 0.769458 0.000000 0.500000
O O8 0.729285 0.107371 0.087414
O O9 0.769632 0.060147 0.212850
O O10 0.000000 0.053904 0.104483
O O11 0.723906 0.000000 0.096309
O O12 0.500000 0.665965 0.916535
O O13 0.233789 0.687429 0.000000
O O14 0.000000 0.584603 0.291887
#
# Coordination Sequence:
#
# PCOD9488515 Si02
#       5
#    16   8  16  16  16
#     4  10  20  33  50  70  91 122 163 202 239 279
#     4   9  16  28  51  81 106 125 148 184 229 275
#     4   9  16  26  43  66  92 125 160 192 232 280
#     4   9  18  31  45  64  92 124 159 201 245 285
#     4   9  17  30  49  72  97 124 156 192 229 274
#
# _framework density 20.257058000000001
#
# number of rings (size 3 to 8) (size 9 to 14) (size 15 to 20)
#    0.000    2.778    1.111    0.667    0.000    2.222 
#    0.000    2.222    0.000    2.000    0.000    6.222 
#    0.000    0.000    0.000    0.000    0.000    0.667 
#
# Total GULP energy -200698.389649 kJ/mol
# GULP energy per Si atom -5574.955268 kJ/mol
# Density = 2.021095 g / cm^3
# Si number density = 20.257058 Si / 1000 Ang^3
#
#
#
# Elastic Constant Matrix: (Units=GPa)
#
#
# Indices 1 2 3 4 5 6 
#
# 1 26.0002 7.3448 -7.0079 0.0000 0.0000 0.0000
# 2 7.3448 166.7813 44.6956 0.0000 0.0000 0.0000
# 3 -7.0079 44.6956 102.2729 0.0000 0.0000 0.0000
# 4 0.0000 0.0000 0.0000 -1.5761 0.0000 0.0000
# 5 0.0000 0.0000 0.0000 0.0000 9.8487 0.0000
# 6 0.0000 0.0000 0.0000 0.0000 0.0000 11.7687
#
#
#
# Elastic Compliance Matrix: (Units=1/GPa)
#
#
# Indices 1 2 3 4 5 6 
#
# 1 0.040348 -0.002852 0.004011 0.000000 0.000000 0.000000
# 2 -0.002852 0.006993 -0.003251 0.000000 0.000000 0.000000
# 3 0.004011 -0.003251 0.011474 0.000000 0.000000 0.000000
# 4 0.000000 0.000000 0.000000 -0.634462 0.000000 0.000000
# 5 0.000000 0.000000 0.000000 0.000000 0.101536 0.000000
# 6 0.000000 0.000000 0.000000 0.000000 0.000000 0.084971
#
#
# Mechanical properties :
#
#
# Convention : Reuss Voigt Hill
#
# Bulk Modulus (GPa) = 18.30498 42.79106 30.54802
# Shear Modulus (GPa) = -13.63340 20.67639 3.52149
#
# Velocity S-wave (km/s) = -2.59708 3.19831 1.31992
# Velocity P-wave (km/s) = 0.25078 5.89990 4.17562
#
# Compressibility (1/GPa) = 0.05462993
#
# Stress axis : x y z
#
# Youngs Moduli (GPa) = 24.78438 143.00402 87.15700
#
# Poissons Ratio (x) = 0.40782 -0.34959
# Poissons Ratio (y) = 0.07068 0.28338
# Poissons Ratio (z) = -0.09941 0.46497
#
# Static dielectric constant tensor:
#      x y z
#    x 1.735460 0.000000 0.000000 
#    y 0.000000 1.811070 0.000000 
#    z 0.000000 0.000000 1.689800 
# 
# From -- ./inp_files/49697.got.cif
#   From: 2010.05.17/outbox.cif.g08.bks.cpg/sg65_25_cif.got.tgz:49697.got - 2010.06.03 17:01:31.
