data_PCOD9488432
_publ_section_title
;
Structure prediction by ZEFSAII (Michael W. Deem and Ramdas Pophale) SiO2 
 PCOD9488432
Probable space group: C M M M
;
_chemical_formula_sum "Si O2"
_cell_formula_units_Z 88
_cell_length_a 7.603166
_cell_length_b 18.875801
_cell_length_c 30.023453
_cell_angle_alpha 90.000000
_cell_angle_beta 90.000000
_cell_angle_gamma 90.000000
_cell_volume 4308.841329
_symmetry_space_group_name_H-M "C M M M"
_symmetry_group_IT_number 65
_symmetry_cell_setting 'orthorhombic'
loop_
_space_group_symop_operation_xyz
x,y,z
-x,-y,z
x,-y,-z
-x,y,-z
-x,-y,-z
x,y,-z
-x,y,z
x,-y,z
1/2+x,1/2+y,z
1/2-x,1/2-y,z
1/2+x,1/2-y,-z
1/2-x,1/2+y,-z
1/2-x,1/2-y,-z
1/2+x,1/2+y,-z
1/2-x,1/2+y,z
1/2+x,1/2-y,z
loop_
_atom_site_type_symbol
_atom_site_label
_atom_site_fract_x
_atom_site_fract_y
_atom_site_fract_z
Si Si1 0.288634 0.667168 0.220668
Si Si2 0.786036 0.915607 0.500000
Si Si3 0.215281 0.917343 0.692914
Si Si4 0.789373 0.085371 0.404253
Si Si5 0.208953 0.667984 0.049752
Si Si6 0.208567 0.079527 0.863711
O O1 0.500000 0.660021 0.221046
O O2 0.250000 0.750000 0.219511
O O3 0.223972 0.629354 0.265687
O O4 0.220160 0.627397 0.176594
O O5 0.721707 0.887348 0.547900
O O6 0.000000 0.909906 0.500000
O O7 0.747822 0.000000 0.500000
O O8 0.276315 0.890720 0.644142
O O9 0.000000 0.916384 0.692197
O O10 0.265021 0.000000 0.698586
O O11 0.000000 0.097102 0.404561
O O12 0.764305 0.000000 0.404183
O O13 0.250000 0.750000 0.060018
O O14 0.270772 0.617597 0.088999
O O15 0.000000 0.661006 0.047832
O O16 0.280331 0.652665 0.000000
O O17 0.000000 0.073827 0.855978
O O18 0.281996 0.000000 0.863811
#
# Coordination Sequence:
#
# PCOD9488432 Si02
#       6
#    16   8  16  16  16  16
#     4  10  20  33  49  69  93 121 155 193 232 278
#     4   7   8  10  18  38  71 104 131 165 214 267
#     4   8  13  23  40  60  82 111 148 187 226 270
#     4   7   9  13  24  45  73 104 136 172 217 266
#     4  10  21  37  57  80 106 136 168 200 234 275
#     4  10  21  36  54  76 101 129 161 199 243 288
#
# _framework density 20.423124000000001
#
# number of rings (size 3 to 8) (size 9 to 14) (size 15 to 20)
#    0.000    3.182    0.000    3.818    0.000    6.182 
#    0.000    1.818    0.000    1.636    0.000    0.636 
#    0.000    0.000    0.000    0.000    0.000   10.545 
#
# Total GULP energy -245176.220459 kJ/mol
# GULP energy per Si atom -5572.186829 kJ/mol
# Density = 2.037664 g / cm^3
# Si number density = 20.423124 Si / 1000 Ang^3
#
#
#
# Elastic Constant Matrix: (Units=GPa)
#
#
# Indices 1 2 3 4 5 6 
#
# 1 42.3098 0.9640 7.2020 0.0000 0.0000 0.0000
# 2 0.9640 109.1651 119.6118 0.0000 0.0000 0.0000
# 3 7.2020 119.6118 227.9652 0.0000 0.0000 0.0000
# 4 0.0000 0.0000 0.0000 -22.9868 0.0000 0.0000
# 5 0.0000 0.0000 0.0000 0.0000 -88.6289 0.0000
# 6 0.0000 0.0000 0.0000 0.0000 0.0000 12.7326
#
#
#
# Elastic Compliance Matrix: (Units=1/GPa)
#
#
# Indices 1 2 3 4 5 6 
#
# 1 0.023860 0.001447 -0.001513 0.000000 0.000000 0.000000
# 2 0.001447 0.021637 -0.011398 0.000000 0.000000 0.000000
# 3 -0.001513 -0.011398 0.010415 0.000000 0.000000 0.000000
# 4 0.000000 0.000000 0.000000 -0.043503 0.000000 0.000000
# 5 0.000000 0.000000 0.000000 0.000000 -0.011283 0.000000
# 6 0.000000 0.000000 0.000000 0.000000 0.000000 0.078539
#
#
# Mechanical properties :
#
#
# Convention : Reuss Voigt Hill
#
# Bulk Modulus (GPa) = 30.31852 70.55507 50.43679
# Shear Modulus (GPa) = 44.01899 -2.99913 20.50993
#
# Velocity S-wave (km/s) = 4.64761 -1.21313 3.17243
# Velocity P-wave (km/s) = 6.60892 5.71484 6.17807
#
# Compressibility (1/GPa) = 0.03298314
#
# Stress axis : x y z
#
# Youngs Moduli (GPa) = 41.91151 46.21732 96.01414
#
# Poissons Ratio (x) = -0.06689 0.14529
# Poissons Ratio (y) = -0.06066 1.09441
# Poissons Ratio (z) = 0.06342 0.52681
#
# Static dielectric constant tensor:
#      x y z
#    x 1.789020 0.000000 0.000000 
#    y 0.000000 1.670370 0.000000 
#    z 0.000000 0.000000 1.786090 
# 
# From -- ./inp_files/76477.got.cif
#   From: 2010.05.17/outbox.cif.g08.bks.cpg/sg65_39_cif.got.tgz:76477.got - 2010.06.03 17:01:31.
