data_PCOD9488420
_publ_section_title
;
Structure prediction by ZEFSAII (Michael W. Deem and Ramdas Pophale) SiO2 
 PCOD9488420
Probable space group: C M M M
;
_chemical_formula_sum "Si O2"
_cell_formula_units_Z 80
_cell_length_a 27.911108
_cell_length_b 18.600711
_cell_length_c 7.623542
_cell_angle_alpha 90.000000
_cell_angle_beta 90.000000
_cell_angle_gamma 90.000000
_cell_volume 3957.887264
_symmetry_space_group_name_H-M "C M M M"
_symmetry_group_IT_number 65
_symmetry_cell_setting 'orthorhombic'
loop_
_space_group_symop_operation_xyz
x,y,z
-x,-y,z
x,-y,-z
-x,y,-z
-x,-y,-z
x,y,-z
-x,y,z
x,-y,z
1/2+x,1/2+y,z
1/2-x,1/2-y,z
1/2+x,1/2-y,-z
1/2-x,1/2+y,-z
1/2-x,1/2-y,-z
1/2+x,1/2+y,-z
1/2-x,1/2+y,z
1/2+x,1/2-y,z
loop_
_atom_site_type_symbol
_atom_site_label
_atom_site_fract_x
_atom_site_fract_y
_atom_site_fract_z
Si Si1 0.448021 0.265490 0.285584
Si Si2 0.422001 0.422340 0.296615
Si Si3 0.844475 0.718653 0.286833
Si Si4 0.682946 0.621051 0.204159
Si Si5 0.789588 0.421376 0.292883
O O1 0.446898 0.267096 0.500000
O O2 0.500000 0.237059 0.232370
O O3 0.442628 0.348154 0.222548
O O4 0.400135 0.223896 0.231680
O O5 0.437038 0.424204 0.500000
O O6 0.434274 0.500000 0.217920
O O7 0.364519 0.411540 0.291422
O O8 0.842781 0.719573 0.500000
O O9 0.819767 0.792779 0.228109
O O10 0.817917 0.647516 0.221289
O O11 0.732982 0.592231 0.274400
O O12 0.679881 0.603329 0.000000
O O13 0.800535 0.423521 0.500000
O O14 0.801407 0.500000 0.218192
#
# Coordination Sequence:
#
# PCOD9488420 Si02
#       5
#    16  16  16  16  16
#     4   8  14  26  46  70  91 114 150 193 230 265
#     4   9  17  29  45  66  94 127 159 188 221 265
#     4   9  18  33  51  69  91 121 155 188 224 270
#     4  11  21  31  46  69  96 125 156 188 224 266
#     4  10  20  33  49  68  92 123 156 188 224 270
#
# _framework density 20.212803999999998
#
# number of rings (size 3 to 8) (size 9 to 14) (size 15 to 20)
#    0.000    2.600    0.000    4.200    0.000    6.800 
#    0.000    2.000    0.000   10.200    0.000    9.800 
#    0.000    0.000    0.000    9.000    0.000   10.000 
#
# Total GULP energy -223223.727809 kJ/mol
# GULP energy per Si atom -5580.593195 kJ/mol
# Density = 2.016680 g / cm^3
# Si number density = 20.212804 Si / 1000 Ang^3
#
#
#
# Elastic Constant Matrix: (Units=GPa)
#
#
# Indices 1 2 3 4 5 6 
#
# 1 74.9383 27.6622 -12.0244 0.0000 0.0000 0.0000
# 2 27.6622 86.6078 -3.8841 0.0000 0.0000 0.0000
# 3 -12.0244 -3.8841 46.5775 0.0000 0.0000 0.0000
# 4 0.0000 0.0000 0.0000 -17.7612 0.0000 0.0000
# 5 0.0000 0.0000 0.0000 0.0000 -33.7212 0.0000
# 6 0.0000 0.0000 0.0000 0.0000 0.0000 9.4869
#
#
#
# Elastic Compliance Matrix: (Units=1/GPa)
#
#
# Indices 1 2 3 4 5 6 
#
# 1 0.015724 -0.004858 0.003654 0.000000 0.000000 0.000000
# 2 -0.004858 0.013091 -0.000163 0.000000 0.000000 0.000000
# 3 0.003654 -0.000163 0.022399 0.000000 0.000000 0.000000
# 4 0.000000 0.000000 0.000000 -0.056303 0.000000 0.000000
# 5 0.000000 0.000000 0.000000 0.000000 -0.029655 0.000000
# 6 0.000000 0.000000 0.000000 0.000000 0.000000 0.105409
#
#
# Mechanical properties :
#
#
# Convention : Reuss Voigt Hill
#
# Bulk Modulus (GPa) = 20.62677 25.73677 23.18177
# Shear Modulus (GPa) = 55.82914 4.69223 30.26068
#
# Velocity S-wave (km/s) = 5.26124 1.52527 3.87344
# Velocity P-wave (km/s) = 6.86546 3.98277 5.61235
#
# Compressibility (1/GPa) = 0.04848069
#
# Stress axis : x y z
#
# Youngs Moduli (GPa) = 63.59703 76.38988 44.64406
#
# Poissons Ratio (x) = 0.37113 -0.16314
# Poissons Ratio (y) = 0.30897 0.00726
# Poissons Ratio (z) = -0.23239 0.01242
#
# Static dielectric constant tensor:
#      x y z
#    x 1.709310 0.000000 0.000000 
#    y 0.000000 1.729180 0.000000 
#    z 0.000000 0.000000 1.762870 
# 
# From -- ./inp_files/9639.got.cif
#   From: 2010.05.17/outbox.cif.g08.bks.cpg/sg65_5_cif.got.tgz:9639.got - 2010.06.03 17:01:31.
