data_PCOD9488239
_publ_section_title
;
Structure prediction by ZEFSAII (Michael W. Deem and Ramdas Pophale) SiO2 
 PCOD9488239
Probable space group: C M M M
;
_chemical_formula_sum "Si O2"
_cell_formula_units_Z 112
_cell_length_a 18.059805
_cell_length_b 14.951391
_cell_length_c 24.010069
_cell_angle_alpha 90.000000
_cell_angle_beta 90.000000
_cell_angle_gamma 90.000000
_cell_volume 6483.179766
_symmetry_space_group_name_H-M "C M M M"
_symmetry_group_IT_number 65
_symmetry_cell_setting 'orthorhombic'
loop_
_space_group_symop_operation_xyz
x,y,z
-x,-y,z
x,-y,-z
-x,y,-z
-x,-y,-z
x,y,-z
-x,y,z
x,-y,z
1/2+x,1/2+y,z
1/2-x,1/2-y,z
1/2+x,1/2-y,-z
1/2-x,1/2+y,-z
1/2-x,1/2-y,-z
1/2+x,1/2+y,-z
1/2-x,1/2+y,z
1/2+x,1/2-y,z
loop_
_atom_site_type_symbol
_atom_site_label
_atom_site_fract_x
_atom_site_fract_y
_atom_site_fract_z
Si Si1 0.087846 0.269968 0.644674
Si Si2 0.295848 0.157470 0.437635
Si Si3 0.082213 0.753196 0.064438
Si Si4 0.834458 0.606298 0.267517
Si Si5 0.645215 0.896204 0.862762
Si Si6 0.792015 0.102640 0.064555
Si Si7 0.693647 0.600804 0.660622
O O1 0.126435 0.317375 0.591274
O O2 0.110362 0.333586 0.696252
O O3 0.130781 0.175642 0.653517
O O4 0.000000 0.259656 0.639379
O O5 0.303105 0.120723 0.500000
O O6 0.250000 0.250000 0.441211
O O7 0.246709 0.101962 0.393990
O O8 0.091123 0.671055 0.106134
O O9 0.143861 0.827152 0.076595
O O10 0.000000 0.791987 0.068925
O O11 0.092337 0.723686 0.000000
O O12 0.846901 0.500000 0.277354
O O13 0.844116 0.623707 0.202286
O O14 0.751093 0.625089 0.289810
O O15 0.723113 0.885164 0.894827
O O16 0.622608 0.000000 0.868240
O O17 0.818052 0.000000 0.069715
O O18 0.768422 0.115613 0.000000
O O19 0.665249 0.500000 0.669028
#
# Coordination Sequence:
#
# PCOD9488239 Si02
#       7
#    16  16  16  16  16  16  16
#     4  10  20  32  49  76 107 135 163 202 251 297
#     4   8  15  30  51  72  96 131 172 206 236 276
#     4  10  21  34  48  71 103 134 160 191 239 298
#     4   9  19  36  55  72  93 126 168 210 249 292
#     4  10  20  34  54  76  95 122 163 208 251 293
#     4   9  18  33  53  75  97 124 162 205 243 283
#     4   9  18  33  52  74 101 133 169 206 244 292
#
# _framework density 17.275473999999999
#
# number of rings (size 3 to 8) (size 9 to 14) (size 15 to 20)
#    0.000    2.714    0.000    2.143    0.000    6.571 
#    0.000    3.571    0.000    0.000    0.000   14.000 
#    0.000    0.000    0.000    0.000    0.000    0.000 
#
# Total GULP energy -312149.105714 kJ/mol
# GULP energy per Si atom -5574.091173 kJ/mol
# Density = 1.723615 g / cm^3
# Si number density = 17.275474 Si / 1000 Ang^3
#
#
#
# Elastic Constant Matrix: (Units=GPa)
#
#
# Indices 1 2 3 4 5 6 
#
# 1 93.4859 42.7908 26.7741 0.0000 0.0000 0.0000
# 2 42.7908 56.8791 35.5003 0.0000 0.0000 0.0000
# 3 26.7741 35.5003 75.5795 0.0000 0.0000 0.0000
# 4 0.0000 0.0000 0.0000 16.2820 0.0000 0.0000
# 5 0.0000 0.0000 0.0000 0.0000 36.3384 0.0000
# 6 0.0000 0.0000 0.0000 0.0000 0.0000 -11.2431
#
#
#
# Elastic Compliance Matrix: (Units=1/GPa)
#
#
# Indices 1 2 3 4 5 6 
#
# 1 0.016315 -0.012261 -0.000020 0.000000 0.000000 0.000000
# 2 -0.012261 0.034088 -0.011668 0.000000 0.000000 0.000000
# 3 -0.000020 -0.011668 0.018719 0.000000 0.000000 0.000000
# 4 0.000000 0.000000 0.000000 0.061417 0.000000 0.000000
# 5 0.000000 0.000000 0.000000 0.000000 0.027519 0.000000
# 6 0.000000 0.000000 0.000000 0.000000 0.000000 -0.088943
#
#
# Mechanical properties :
#
#
# Convention : Reuss Voigt Hill
#
# Bulk Modulus (GPa) = 47.11930 48.45278 47.78604
# Shear Modulus (GPa) = 40.29434 16.33408 28.31421
#
# Velocity S-wave (km/s) = 4.83479 3.07825 4.05283
# Velocity P-wave (km/s) = 7.64862 6.38296 7.04427
#
# Compressibility (1/GPa) = 0.02122272
#
# Stress axis : x y z
#
# Youngs Moduli (GPa) = 61.29377 29.33625 53.42246
#
# Poissons Ratio (x) = 0.35970 0.00109
# Poissons Ratio (y) = 0.75153 0.62331
# Poissons Ratio (z) = 0.00125 0.34228
#
# Static dielectric constant tensor:
#      x y z
#    x 1.561140 0.000000 0.000000 
#    y 0.000000 1.596260 0.000000 
#    z 0.000000 0.000000 1.592950 
# 
# From -- ./inp_files/69947.got.cif
#   From: 2010.05.17/outbox.cif.g08.bks.cpg/sg65_35_cif.got.tgz:69947.got - 2010.06.03 17:01:31.
