data_PCOD9488639
_publ_section_title
;
Structure prediction by ZEFSAII (Michael W. Deem and Ramdas Pophale) SiO2 
 PCOD9488639
Probable space group: C M M M
;
_chemical_formula_sum "Si O2"
_cell_formula_units_Z 72
_cell_length_a 9.178518
_cell_length_b 31.947084
_cell_length_c 13.676035
_cell_angle_alpha 90.000000
_cell_angle_beta 90.000000
_cell_angle_gamma 90.000000
_cell_volume 4010.181150
_symmetry_space_group_name_H-M "C M M M"
_symmetry_group_IT_number 65
_symmetry_cell_setting 'orthorhombic'
loop_
_space_group_symop_operation_xyz
x,y,z
-x,-y,z
x,-y,-z
-x,y,-z
-x,-y,-z
x,y,-z
-x,y,z
x,-y,z
1/2+x,1/2+y,z
1/2-x,1/2-y,z
1/2+x,1/2-y,-z
1/2-x,1/2+y,-z
1/2-x,1/2-y,-z
1/2+x,1/2+y,-z
1/2-x,1/2+y,z
1/2+x,1/2-y,z
loop_
_atom_site_type_symbol
_atom_site_label
_atom_site_fract_x
_atom_site_fract_y
_atom_site_fract_z
Si Si1 0.827442 0.208534 0.201121
Si Si2 0.826512 0.328058 0.387724
Si Si3 0.673449 0.618300 0.112279
Si Si4 0.329245 0.500000 0.383019
Si Si5 0.327154 0.081206 0.702788
O O1 0.750000 0.250000 0.162539
O O2 0.762103 0.198111 0.308095
O O3 0.799432 0.167248 0.136399
O O4 0.000000 0.214894 0.207280
O O5 0.786989 0.319401 0.500000
O O6 0.801137 0.377048 0.362299
O O7 0.000000 0.320430 0.375494
O O8 0.500000 0.611287 0.126906
O O9 0.763716 0.591951 0.190527
O O10 0.709426 0.609184 0.000000
O O11 0.500000 0.500000 0.357359
O O12 0.315900 0.500000 0.500000
O O13 0.252828 0.541289 0.341238
O O14 0.500000 0.074235 0.706638
#
# Coordination Sequence:
#
# PCOD9488639 Si02
#       5
#    16  16  16   8  16
#     4  10  20  33  50  74 103 135 173 217 263 311
#     4   9  18  33  52  73 100 136 174 212 259 313
#     4   9  19  37  58  78 104 139 176 216 265 318
#     4  11  23  37  56  83 114 147 179 210 250 305
#     4  10  20  35  56  82 110 138 173 219 265 310
#
# _framework density 17.954301000000001
#
# number of rings (size 3 to 8) (size 9 to 14) (size 15 to 20)
#    0.000    2.333    0.000    2.333    0.000    5.333 
#    0.000    0.556    0.000    3.333    0.000    0.000 
#    0.000    0.000    0.000    0.000    0.000    0.000 
#
# Total GULP energy -201007.360039 kJ/mol
# GULP energy per Si atom -5583.537779 kJ/mol
# Density = 1.791344 g / cm^3
# Si number density = 17.954301 Si / 1000 Ang^3
#
#
#
# Elastic Constant Matrix: (Units=GPa)
#
#
# Indices 1 2 3 4 5 6 
#
# 1 67.2879 47.8220 27.8237 0.0000 0.0000 0.0000
# 2 47.8220 73.3217 2.3455 0.0000 0.0000 0.0000
# 3 27.8237 2.3455 61.0205 0.0000 0.0000 0.0000
# 4 0.0000 0.0000 0.0000 5.3222 0.0000 0.0000
# 5 0.0000 0.0000 0.0000 0.0000 24.3468 0.0000
# 6 0.0000 0.0000 0.0000 0.0000 0.0000 35.0876
#
#
#
# Elastic Compliance Matrix: (Units=1/GPa)
#
#
# Indices 1 2 3 4 5 6 
#
# 1 0.040399 -0.025791 -0.017429 0.000000 0.000000 0.000000
# 2 -0.025791 0.030121 0.010602 0.000000 0.000000 0.000000
# 3 -0.017429 0.010602 0.023928 0.000000 0.000000 0.000000
# 4 0.000000 0.000000 0.000000 0.187892 0.000000 0.000000
# 5 0.000000 0.000000 0.000000 0.000000 0.041073 0.000000
# 6 0.000000 0.000000 0.000000 0.000000 0.000000 0.028500
#
#
# Mechanical properties :
#
#
# Convention : Reuss Voigt Hill
#
# Bulk Modulus (GPa) = 34.23397 39.73474 36.98436
# Shear Modulus (GPa) = 11.71273 21.19392 16.45332
#
# Velocity S-wave (km/s) = 2.55691 3.43948 3.03049
# Velocity P-wave (km/s) = 5.27501 6.16055 5.73490
#
# Compressibility (1/GPa) = 0.02921075
#
# Stress axis : x y z
#
# Youngs Moduli (GPa) = 24.75331 33.19946 41.79259
#
# Poissons Ratio (x) = 0.85626 0.72842
# Poissons Ratio (y) = 0.63842 -0.44310
# Poissons Ratio (z) = 0.43143 -0.35199
#
# Static dielectric constant tensor:
#      x y z
#    x 1.593860 0.000000 0.000000 
#    y 0.000000 1.603100 0.000000 
#    z 0.000000 0.000000 1.588600 
# 
# From -- ./inp_files/36960.got.cif
#   From: 2010.05.17/outbox.cif.g08.bks.cpg/sg65_19_cif.got.tgz:36960.got - 2010.06.03 17:01:31.
