data_PCOD9488308
_publ_section_title
;
Structure prediction by ZEFSAII (Michael W. Deem and Ramdas Pophale) SiO2 
 PCOD9488308
Probable space group: C M M M
;
_chemical_formula_sum "Si O2"
_cell_formula_units_Z 104
_cell_length_a 18.075814
_cell_length_b 14.356447
_cell_length_c 22.886066
_cell_angle_alpha 90.000000
_cell_angle_beta 90.000000
_cell_angle_gamma 90.000000
_cell_volume 5939.036329
_symmetry_space_group_name_H-M "C M M M"
_symmetry_group_IT_number 65
_symmetry_cell_setting 'orthorhombic'
loop_
_space_group_symop_operation_xyz
x,y,z
-x,-y,z
x,-y,-z
-x,y,-z
-x,-y,-z
x,y,-z
-x,y,z
x,-y,z
1/2+x,1/2+y,z
1/2-x,1/2-y,z
1/2+x,1/2-y,-z
1/2-x,1/2+y,-z
1/2-x,1/2-y,-z
1/2+x,1/2+y,-z
1/2-x,1/2+y,z
1/2+x,1/2-y,z
loop_
_atom_site_type_symbol
_atom_site_label
_atom_site_fract_x
_atom_site_fract_y
_atom_site_fract_z
Si Si1 0.323700 0.896400 0.336151
Si Si2 0.500000 0.106150 0.071014
Si Si3 0.088112 0.789031 0.347388
Si Si4 0.288816 0.350998 0.565700
Si Si5 0.704572 0.610024 0.881943
Si Si6 0.188167 0.889850 0.743769
Si Si7 0.850709 0.706184 0.930299
O O1 0.385516 0.818755 0.346649
O O2 0.268892 0.901770 0.391934
O O3 0.267505 0.864340 0.284827
O O4 0.352330 0.000000 0.323415
O O5 0.572743 0.161045 0.088672
O O6 0.500000 0.000000 0.091906
O O7 0.500000 0.103514 0.000000
O O8 0.133542 0.837748 0.400527
O O9 0.123594 0.834861 0.289287
O O10 0.000000 0.798686 0.351100
O O11 0.296966 0.387403 0.500000
O O12 0.250000 0.250000 0.561806
O O13 0.696882 0.500000 0.896195
O O14 0.691001 0.622622 0.812979
O O15 0.785551 0.648529 0.899080
O O16 0.653112 0.684491 0.915114
O O17 0.178501 0.000000 0.731644
O O18 0.840850 0.695333 0.000000
#
# Coordination Sequence:
#
# PCOD9488308 Si02
#       7
#    16   8  16  16  16  16  16
#     4   9  18  32  52  75 102 137 177 214 255 311
#     4   9  18  36  57  77 109 145 172 204 258 325
#     4  10  20  32  51  77 107 141 170 214 270 316
#     4   8  15  30  51  73  99 135 179 218 253 301
#     4  10  20  34  55  80 105 137 180 227 265 308
#     4   9  19  36  55  73  95 133 179 219 259 304
#     4  10  21  34  55  84 110 140 175 215 266 322
#
# _framework density 17.511258999999999
#
# number of rings (size 3 to 8) (size 9 to 14) (size 15 to 20)
#    0.000    2.692    0.000    2.769    4.308    3.077 
#    1.385    0.385    0.000    1.385    0.000    8.615 
#    0.000    0.000    0.000    0.000    0.000    0.000 
#
# Total GULP energy -289720.234075 kJ/mol
# GULP energy per Si atom -5571.542963 kJ/mol
# Density = 1.747140 g / cm^3
# Si number density = 17.511259 Si / 1000 Ang^3
#
#
#
# Elastic Constant Matrix: (Units=GPa)
#
#
# Indices 1 2 3 4 5 6 
#
# 1 113.5901 46.9388 40.2021 0.0000 0.0000 0.0000
# 2 46.9388 105.2624 31.1481 0.0000 0.0000 0.0000
# 3 40.2021 31.1481 71.7431 0.0000 0.0000 0.0000
# 4 0.0000 0.0000 0.0000 46.1345 0.0000 0.0000
# 5 0.0000 0.0000 0.0000 0.0000 16.5947 0.0000
# 6 0.0000 0.0000 0.0000 0.0000 0.0000 15.5788
#
#
#
# Elastic Compliance Matrix: (Units=1/GPa)
#
#
# Indices 1 2 3 4 5 6 
#
# 1 0.012257 -0.003939 -0.005158 0.000000 0.000000 0.000000
# 2 -0.003939 0.012167 -0.003075 0.000000 0.000000 0.000000
# 3 -0.005158 -0.003075 0.018164 0.000000 0.000000 0.000000
# 4 0.000000 0.000000 0.000000 0.021676 0.000000 0.000000
# 5 0.000000 0.000000 0.000000 0.000000 0.060260 0.000000
# 6 0.000000 0.000000 0.000000 0.000000 0.000000 0.064190
#
#
# Mechanical properties :
#
#
# Convention : Reuss Voigt Hill
#
# Bulk Modulus (GPa) = 54.81510 58.57484 56.69497
# Shear Modulus (GPa) = 22.81659 27.14871 24.98265
#
# Velocity S-wave (km/s) = 3.61358 3.94173 3.78122
# Velocity P-wave (km/s) = 6.98436 7.36470 7.17705
#
# Compressibility (1/GPa) = 0.01824315
#
# Stress axis : x y z
#
# Youngs Moduli (GPa) = 81.58617 82.19249 55.05406
#
# Poissons Ratio (x) = 0.32378 0.28397
# Poissons Ratio (y) = 0.32140 0.16928
# Poissons Ratio (z) = 0.42082 0.25273
#
# Static dielectric constant tensor:
#      x y z
#    x 1.565420 0.000000 0.000000 
#    y 0.000000 1.628040 0.000000 
#    z 0.000000 0.000000 1.609780 
# 
# From -- ./inp_files/63813.got.cif
#   From: 2010.05.17/outbox.cif.g08.bks.cpg/sg65_32_cif.got.tgz:63813.got - 2010.06.03 17:01:31.
