data_PCOD9488044
_publ_section_title
;
Structure prediction by ZEFSAII (Michael W. Deem and Ramdas Pophale) SiO2 
 PCOD9488044
Probable space group: C M M M
;
_chemical_formula_sum "Si O2"
_cell_formula_units_Z 80
_cell_length_a 9.008220
_cell_length_b 28.250901
_cell_length_c 18.991667
_cell_angle_alpha 90.000000
_cell_angle_beta 90.000000
_cell_angle_gamma 90.000000
_cell_volume 4833.195629
_symmetry_space_group_name_H-M "C M M M"
_symmetry_group_IT_number 65
_symmetry_cell_setting 'orthorhombic'
loop_
_space_group_symop_operation_xyz
x,y,z
-x,-y,z
x,-y,-z
-x,y,-z
-x,-y,-z
x,y,-z
-x,y,z
x,-y,z
1/2+x,1/2+y,z
1/2-x,1/2-y,z
1/2+x,1/2-y,-z
1/2-x,1/2+y,-z
1/2-x,1/2-y,-z
1/2+x,1/2+y,-z
1/2-x,1/2+y,z
1/2+x,1/2-y,z
loop_
_atom_site_type_symbol
_atom_site_label
_atom_site_fract_x
_atom_site_fract_y
_atom_site_fract_z
Si Si1 0.821259 0.945386 0.782435
Si Si2 0.823400 0.698886 0.844110
Si Si3 0.176464 0.800824 0.582701
Si Si4 0.821826 0.887700 0.920535
Si Si5 0.676678 0.139851 0.702678
O O1 0.783485 0.926060 0.860677
O O2 0.743743 0.909933 0.728063
O O3 0.000000 0.941845 0.774733
O O4 0.778528 0.000000 0.774083
O O5 0.750000 0.750000 0.850741
O O6 0.755727 0.661188 0.898580
O O7 0.793284 0.676606 0.766808
O O8 0.000000 0.702252 0.853047
O O9 0.203065 0.810746 0.500000
O O10 0.250000 0.750000 0.598694
O O11 0.247328 0.839777 0.633177
O O12 0.000000 0.797849 0.594107
O O13 0.000000 0.881087 0.917655
O O14 0.782024 0.901705 0.000000
O O15 0.500000 0.136450 0.693909
#
# Coordination Sequence:
#
# PCOD9488044 Si02
#       5
#    16  16  16  16  16
#     4   9  18  33  53  75  98 126 161 203 251 299
#     4  10  20  32  47  68  94 127 165 201 240 287
#     4  10  20  33  51  77 108 139 168 198 236 284
#     4   9  18  32  49  70  96 125 159 200 245 294
#     4  10  20  33  51  74 100 131 166 205 245 288
#
# _framework density 16.552195000000001
#
# number of rings (size 3 to 8) (size 9 to 14) (size 15 to 20)
#    0.000    2.400    0.000    2.400    0.000    6.800 
#    0.000    2.000    0.000    0.600    0.000    9.800 
#    0.000    0.000    0.000    0.000    0.000    0.000 
#
# Total GULP energy -223201.601457 kJ/mol
# GULP energy per Si atom -5580.040036 kJ/mol
# Density = 1.651452 g / cm^3
# Si number density = 16.552195 Si / 1000 Ang^3
#
#
#
# Elastic Constant Matrix: (Units=GPa)
#
#
# Indices 1 2 3 4 5 6 
#
# 1 44.9729 53.6162 55.5027 0.0000 0.0000 0.0000
# 2 53.6162 141.3079 76.9112 0.0000 0.0000 0.0000
# 3 55.5027 76.9112 103.7874 0.0000 0.0000 0.0000
# 4 0.0000 0.0000 0.0000 12.5134 0.0000 0.0000
# 5 0.0000 0.0000 0.0000 0.0000 22.2044 0.0000
# 6 0.0000 0.0000 0.0000 0.0000 0.0000 26.8756
#
#
#
# Elastic Compliance Matrix: (Units=1/GPa)
#
#
# Indices 1 2 3 4 5 6 
#
# 1 0.074391 -0.011017 -0.031618 0.000000 0.000000 0.000000
# 2 -0.011017 0.013492 -0.004107 0.000000 0.000000 0.000000
# 3 -0.031618 -0.004107 0.029587 0.000000 0.000000 0.000000
# 4 0.000000 0.000000 0.000000 0.079914 0.000000 0.000000
# 5 0.000000 0.000000 0.000000 0.000000 0.045036 0.000000
# 6 0.000000 0.000000 0.000000 0.000000 0.000000 0.037208
#
#
# Mechanical properties :
#
#
# Convention : Reuss Voigt Hill
#
# Bulk Modulus (GPa) = 41.69046 73.56982 57.63014
# Shear Modulus (GPa) = 13.11965 19.25456 16.18710
#
# Velocity S-wave (km/s) = 2.81841 3.41436 3.13060
# Velocity P-wave (km/s) = 5.98608 7.75161 6.92534
#
# Compressibility (1/GPa) = 0.02398630
#
# Stress axis : x y z
#
# Youngs Moduli (GPa) = 13.44250 74.11765 33.79866
#
# Poissons Ratio (x) = 0.81654 1.06866
# Poissons Ratio (y) = 0.14809 0.13880
# Poissons Ratio (z) = 0.42503 0.30438
#
# Static dielectric constant tensor:
#      x y z
#    x 1.550120 0.000000 0.000000 
#    y 0.000000 1.522610 0.000000 
#    z 0.000000 0.000000 1.555280 
# 
# From -- ./inp_files/49843.got.cif
#   From: 2010.05.17/outbox.cif.g08.bks.cpg/sg65_25_cif.got.tgz:49843.got - 2010.06.03 17:01:31.
