data_PCOD9488289
_publ_section_title
;
Structure prediction by ZEFSAII (Michael W. Deem and Ramdas Pophale) SiO2 
 PCOD9488289
Probable space group: C M M M
;
_chemical_formula_sum "Si O2"
_cell_formula_units_Z 88
_cell_length_a 27.531252
_cell_length_b 9.290406
_cell_length_c 18.581747
_cell_angle_alpha 90.000000
_cell_angle_beta 90.000000
_cell_angle_gamma 90.000000
_cell_volume 4752.774374
_symmetry_space_group_name_H-M "C M M M"
_symmetry_group_IT_number 65
_symmetry_cell_setting 'orthorhombic'
loop_
_space_group_symop_operation_xyz
x,y,z
-x,-y,z
x,-y,-z
-x,y,-z
-x,-y,-z
x,y,-z
-x,y,z
x,-y,z
1/2+x,1/2+y,z
1/2-x,1/2-y,z
1/2+x,1/2-y,-z
1/2-x,1/2+y,-z
1/2-x,1/2-y,-z
1/2+x,1/2+y,-z
1/2-x,1/2+y,z
1/2+x,1/2-y,z
loop_
_atom_site_type_symbol
_atom_site_label
_atom_site_fract_x
_atom_site_fract_y
_atom_site_fract_z
Si Si1 0.608305 0.833056 0.198070
Si Si2 0.599003 0.828829 0.629785
Si Si3 0.799924 0.168062 0.382602
Si Si4 0.296491 0.663169 0.792434
Si Si5 0.000000 0.835001 0.414448
Si Si6 0.557802 0.337268 0.079685
O O1 0.598324 0.817214 0.283170
O O2 0.656130 0.743158 0.181994
O O3 0.569234 0.768291 0.144574
O O4 0.616028 0.000000 0.184492
O O5 0.649088 0.751951 0.601993
O O6 0.549536 0.749873 0.605510
O O7 0.599388 0.000000 0.611313
O O8 0.750000 0.250000 0.406434
O O9 0.797292 0.164845 0.295248
O O10 0.801082 0.000000 0.406613
O O11 0.294835 0.500000 0.816058
O O12 0.250000 0.750000 0.816338
O O13 0.000000 0.845682 0.500000
O O14 0.000000 0.000000 0.384726
O O15 0.500000 0.345760 0.074877
O O16 0.575880 0.500000 0.094606
O O17 0.575953 0.292766 0.000000
#
# Coordination Sequence:
#
# PCOD9488289 Si02
#       6
#    16  16  16  16   8  16
#     4  10  20  32  50  78 108 136 173 218 261 308
#     4  10  21  36  55  82 113 145 183 225 271 323
#     4   9  16  28  49  78 111 144 179 222 271 319
#     4   9  16  27  45  70 102 137 172 211 260 310
#     4  11  25  43  61  81 108 145 186 225 267 322
#     4   9  19  35  52  71  98 135 176 216 263 317
#
# _framework density 18.515501
#
# number of rings (size 3 to 8) (size 9 to 14) (size 15 to 20)
#    0.000    2.455    0.000    3.000    1.273    8.000 
#    0.000    0.909    0.000    1.091    0.000    0.000 
#    0.000    0.000    0.000    0.000    0.000    0.000 
#
# Total GULP energy -245179.204894 kJ/mol
# GULP energy per Si atom -5572.254657 kJ/mol
# Density = 1.847336 g / cm^3
# Si number density = 18.515501 Si / 1000 Ang^3
#
#
#
# Elastic Constant Matrix: (Units=GPa)
#
#
# Indices 1 2 3 4 5 6 
#
# 1 146.3540 97.7954 20.6242 0.0000 0.0000 0.0000
# 2 97.7954 173.3343 39.1884 0.0000 0.0000 0.0000
# 3 20.6242 39.1884 24.6080 0.0000 0.0000 0.0000
# 4 0.0000 0.0000 0.0000 36.5644 0.0000 0.0000
# 5 0.0000 0.0000 0.0000 0.0000 -55.3820 0.0000
# 6 0.0000 0.0000 0.0000 0.0000 0.0000 36.8497
#
#
#
# Elastic Compliance Matrix: (Units=1/GPa)
#
#
# Indices 1 2 3 4 5 6 
#
# 1 0.010984 -0.006432 0.001036 0.000000 0.000000 0.000000
# 2 -0.006432 0.012781 -0.014963 0.000000 0.000000 0.000000
# 3 0.001036 -0.014963 0.063598 0.000000 0.000000 0.000000
# 4 0.000000 0.000000 0.000000 0.027349 0.000000 0.000000
# 5 0.000000 0.000000 0.000000 0.000000 -0.018056 0.000000
# 6 0.000000 0.000000 0.000000 0.000000 0.000000 0.027137
#
#
# Mechanical properties :
#
#
# Convention : Reuss Voigt Hill
#
# Bulk Modulus (GPa) = 21.43811 73.27915 47.35863
# Shear Modulus (GPa) = 27.76869 16.05230 21.91050
#
# Velocity S-wave (km/s) = 3.87687 2.94762 3.44373
# Velocity P-wave (km/s) = 5.62528 7.15875 6.43784
#
# Compressibility (1/GPa) = 0.04664591
#
# Stress axis : x y z
#
# Youngs Moduli (GPa) = 91.03758 78.24114 15.72384
#
# Poissons Ratio (x) = 0.50323 -0.01630
# Poissons Ratio (y) = 0.58553 0.23528
# Poissons Ratio (z) = -0.09435 1.17074
#
# Static dielectric constant tensor:
#      x y z
#    x 1.629270 0.000000 0.000000 
#    y 0.000000 1.669250 0.000000 
#    z 0.000000 0.000000 1.632230 
# 
# From -- ./inp_files/59814.got.cif
#   From: 2010.05.17/outbox.cif.g08.bks.cpg/sg65_30_cif.got.tgz:59814.got - 2010.06.03 17:01:31.
