data_PCOD9488907
_publ_section_title
;
Structure prediction by ZEFSAII (Michael W. Deem and Ramdas Pophale) SiO2 
 PCOD9488907
Probable space group: C M M M
;
_chemical_formula_sum "Si O2"
_cell_formula_units_Z 96
_cell_length_a 25.890884
_cell_length_b 24.158406
_cell_length_c 8.761090
_cell_angle_alpha 90.000000
_cell_angle_beta 90.000000
_cell_angle_gamma 90.000000
_cell_volume 5479.908365
_symmetry_space_group_name_H-M "C M M M"
_symmetry_group_IT_number 65
_symmetry_cell_setting 'orthorhombic'
loop_
_space_group_symop_operation_xyz
x,y,z
-x,-y,z
x,-y,-z
-x,y,-z
-x,-y,-z
x,y,-z
-x,y,z
x,-y,z
1/2+x,1/2+y,z
1/2-x,1/2-y,z
1/2+x,1/2-y,-z
1/2-x,1/2+y,-z
1/2-x,1/2-y,-z
1/2+x,1/2+y,-z
1/2-x,1/2+y,z
1/2+x,1/2-y,z
loop_
_atom_site_type_symbol
_atom_site_label
_atom_site_fract_x
_atom_site_fract_y
_atom_site_fract_z
Si Si1 0.653844 0.113664 0.682540
Si Si2 0.940669 0.808922 0.184112
Si Si3 0.440829 0.188779 0.683967
Si Si4 0.307011 0.000000 0.181747
Si Si5 0.808570 0.000000 0.681289
Si Si6 0.754171 0.685514 0.817230
Si Si7 0.347793 0.613218 0.816765
O O1 0.653880 0.106692 0.500000
O O2 0.600183 0.142398 0.730338
O O3 0.699846 0.154792 0.730973
O O4 0.664714 0.054991 0.759854
O O5 0.926502 0.748713 0.249126
O O6 0.899839 0.855339 0.232094
O O7 0.000000 0.820758 0.229382
O O8 0.938765 0.805742 0.000000
O O9 0.439537 0.192520 0.500000
O O10 0.500000 0.176774 0.730471
O O11 0.248703 0.000000 0.246422
O O12 0.304121 0.000000 0.000000
O O13 0.837586 0.055033 0.736963
O O14 0.803511 0.000000 0.500000
O O15 0.750000 0.750000 0.776032
O O16 0.700814 0.653476 0.786122
O O17 0.763779 0.682165 0.000000
O O18 0.349797 0.604513 0.000000
#
# Coordination Sequence:
#
# PCOD9488907 Si02
#       7
#    16  16  16   8   8  16  16
#     4  11  22  36  56  82 110 143 186 231 271 324
#     4   9  18  34  58  86 113 145 187 229 269 320
#     4   9  19  36  57  82 114 150 183 221 275 328
#     4  12  24  40  59  78 107 147 184 226 282 337
#     4  12  24  38  57  80 107 143 188 232 272 327
#     4  10  20  33  52  79 111 146 180 220 274 333
#     4  10  20  35  55  79 111 148 183 224 276 327
#
# _framework density 17.518540999999999
#
# number of rings (size 3 to 8) (size 9 to 14) (size 15 to 20)
#    0.000    1.833    1.667    3.000    0.000    3.667 
#    0.000    0.833    0.000    5.000    0.000    0.000 
#    0.000    0.000    0.000    0.000    0.000    0.000 
#
# Total GULP energy -268084.574722 kJ/mol
# GULP energy per Si atom -5585.095307 kJ/mol
# Density = 1.747867 g / cm^3
# Si number density = 17.518541 Si / 1000 Ang^3
#
#
#
# Elastic Constant Matrix: (Units=GPa)
#
#
# Indices 1 2 3 4 5 6 
#
# 1 121.1440 100.7419 49.5326 0.0000 0.0000 0.0000
# 2 100.7419 182.9651 62.1755 0.0000 0.0000 0.0000
# 3 49.5326 62.1755 47.8983 0.0000 0.0000 0.0000
# 4 0.0000 0.0000 0.0000 32.2953 0.0000 0.0000
# 5 0.0000 0.0000 0.0000 0.0000 22.4916 0.0000
# 6 0.0000 0.0000 0.0000 0.0000 0.0000 22.7985
#
#
#
# Elastic Compliance Matrix: (Units=1/GPa)
#
#
# Indices 1 2 3 4 5 6 
#
# 1 0.017565 -0.006260 -0.010038 0.000000 0.000000 0.000000
# 2 -0.006260 0.012010 -0.009117 0.000000 0.000000 0.000000
# 3 -0.010038 -0.009117 0.043092 0.000000 0.000000 0.000000
# 4 0.000000 0.000000 0.000000 0.030964 0.000000 0.000000
# 5 0.000000 0.000000 0.000000 0.000000 0.044461 0.000000
# 6 0.000000 0.000000 0.000000 0.000000 0.000000 0.043863
#
#
# Mechanical properties :
#
#
# Convention : Reuss Voigt Hill
#
# Bulk Modulus (GPa) = 45.79218 86.32304 66.05761
# Shear Modulus (GPa) = 19.99487 24.82088 22.40788
#
# Velocity S-wave (km/s) = 3.38206 3.76817 3.58032
# Velocity P-wave (km/s) = 6.43794 8.26525 7.40815
#
# Compressibility (1/GPa) = 0.02183779
#
# Stress axis : x y z
#
# Youngs Moduli (GPa) = 56.93206 83.26063 23.20613
#
# Poissons Ratio (x) = 0.52123 0.23294
# Poissons Ratio (y) = 0.35641 0.21156
# Poissons Ratio (z) = 0.57148 0.75906
#
# Static dielectric constant tensor:
#      x y z
#    x 1.593930 0.000000 0.000000 
#    y 0.000000 1.563720 0.000000 
#    z 0.000000 0.000000 1.591600 
# 
# From -- ./inp_files/14351.got.cif
#   From: 2010.05.17/outbox.cif.g08.bks.cpg/sg65_8_cif.got.tgz:14351.got - 2010.06.03 17:01:31.
