data_PCOD9488262
_publ_section_title
;
Structure prediction by ZEFSAII (Michael W. Deem and Ramdas Pophale) SiO2 
 PCOD9488262
Probable space group: C M M M
;
_chemical_formula_sum "Si O2"
_cell_formula_units_Z 112
_cell_length_a 12.084992
_cell_length_b 28.755352
_cell_length_c 17.693903
_cell_angle_alpha 90.000000
_cell_angle_beta 90.000000
_cell_angle_gamma 90.000000
_cell_volume 6148.776363
_symmetry_space_group_name_H-M "C M M M"
_symmetry_group_IT_number 65
_symmetry_cell_setting 'orthorhombic'
loop_
_space_group_symop_operation_xyz
x,y,z
-x,-y,z
x,-y,-z
-x,y,-z
-x,-y,-z
x,y,-z
-x,y,z
x,-y,z
1/2+x,1/2+y,z
1/2-x,1/2-y,z
1/2+x,1/2-y,-z
1/2-x,1/2+y,-z
1/2-x,1/2-y,-z
1/2+x,1/2+y,-z
1/2-x,1/2+y,z
1/2+x,1/2-y,z
loop_
_atom_site_type_symbol
_atom_site_label
_atom_site_fract_x
_atom_site_fract_y
_atom_site_fract_z
Si Si1 0.703380 0.202238 0.175457
Si Si2 0.740861 0.946023 0.784139
Si Si3 0.625331 0.226820 0.662131
Si Si4 0.238031 0.646120 0.415690
Si Si5 0.629636 0.947894 0.374680
Si Si6 0.872792 0.139266 0.732572
Si Si7 0.870075 0.613976 0.913370
O O1 0.750000 0.250000 0.141273
O O2 0.629574 0.216228 0.248165
O O3 0.802840 0.173288 0.214162
O O4 0.647502 0.166028 0.119045
O O5 0.652238 0.943039 0.715419
O O6 0.839989 0.913267 0.755058
O O7 0.692371 0.921821 0.858527
O O8 0.768699 0.000000 0.795190
O O9 0.500000 0.246286 0.645675
O O10 0.750000 0.250000 0.647407
O O11 0.640375 0.179211 0.615342
O O12 0.270800 0.659909 0.500000
O O13 0.195037 0.593374 0.413736
O O14 0.333746 0.648623 0.352988
O O15 0.500000 0.943845 0.390155
O O16 0.666291 0.000000 0.396090
O O17 0.000000 0.148019 0.742062
O O18 0.000000 0.603275 0.910723
O O19 0.831901 0.611139 0.000000
#
# Coordination Sequence:
#
# PCOD9488262 Si02
#       7
#    16  16  16  16  16  16  16
#     4   9  19  34  55  76 101 137 177 221 268 316
#     4   9  18  33  52  73 100 134 171 213 258 306
#     4  10  21  36  55  78 105 140 186 235 277 322
#     4  10  21  34  49  73 106 139 166 205 267 327
#     4   9  17  30  50  73  95 125 167 209 248 299
#     4   9  19  35  54  77 100 128 176 226 262 306
#     4  10  20  32  49  78 112 139 166 207 262 325
#
# _framework density 18.215005999999999
#
# number of rings (size 3 to 8) (size 9 to 14) (size 15 to 20)
#    0.000    2.571    0.000    2.143    0.000    9.429 
#    0.000    1.429    0.000    6.857    0.000    8.000 
#    0.000    0.000    0.000    0.000    0.000    0.000 
#
# Total GULP energy -311974.022187 kJ/mol
# GULP energy per Si atom -5570.964682 kJ/mol
# Density = 1.817355 g / cm^3
# Si number density = 18.215006 Si / 1000 Ang^3
#
#
#
# Elastic Constant Matrix: (Units=GPa)
#
#
# Indices 1 2 3 4 5 6 
#
# 1 88.9785 9.8627 5.3915 0.0000 0.0000 0.0000
# 2 9.8627 85.4813 10.0389 0.0000 0.0000 0.0000
# 3 5.3915 10.0389 80.7757 0.0000 0.0000 0.0000
# 4 0.0000 0.0000 0.0000 6.2664 0.0000 0.0000
# 5 0.0000 0.0000 0.0000 0.0000 -7.7028 0.0000
# 6 0.0000 0.0000 0.0000 0.0000 0.0000 15.2356
#
#
#
# Elastic Compliance Matrix: (Units=1/GPa)
#
#
# Indices 1 2 3 4 5 6 
#
# 1 0.011414 -0.001246 -0.000607 0.000000 0.000000 0.000000
# 2 -0.001246 0.012008 -0.001409 0.000000 0.000000 0.000000
# 3 -0.000607 -0.001409 0.012596 0.000000 0.000000 0.000000
# 4 0.000000 0.000000 0.000000 0.159581 0.000000 0.000000
# 5 0.000000 0.000000 0.000000 0.000000 -0.129823 0.000000
# 6 0.000000 0.000000 0.000000 0.000000 0.000000 0.065636
#
#
# Mechanical properties :
#
#
# Convention : Reuss Voigt Hill
#
# Bulk Modulus (GPa) = 33.90611 33.98021 33.94316
# Shear Modulus (GPa) = 33.83735 18.08933 25.96334
#
# Velocity S-wave (km/s) = 4.31474 3.15477 3.77952
# Velocity P-wave (km/s) = 6.59374 5.65382 6.14179
#
# Compressibility (1/GPa) = 0.02949321
#
# Stress axis : x y z
#
# Youngs Moduli (GPa) = 87.61537 83.28010 79.39271
#
# Poissons Ratio (x) = 0.10373 0.04819
# Poissons Ratio (y) = 0.10913 0.11188
# Poissons Ratio (z) = 0.05318 0.11736
#
# Static dielectric constant tensor:
#      x y z
#    x 1.612950 0.000000 0.000000 
#    y 0.000000 1.674610 0.000000 
#    z 0.000000 0.000000 1.616630 
# 
# From -- ./inp_files/39001.got.cif
#   From: 2010.05.17/outbox.cif.g08.bks.cpg/sg65_20_cif.got.tgz:39001.got - 2010.06.03 17:01:31.
