data_PCOD9488721
_publ_section_title
;
Structure prediction by ZEFSAII (Michael W. Deem and Ramdas Pophale) SiO2 
 PCOD9488721
Probable space group: C M M M
;
_chemical_formula_sum "Si O2"
_cell_formula_units_Z 80
_cell_length_a 9.402875
_cell_length_b 18.440777
_cell_length_c 26.548354
_cell_angle_alpha 90.000000
_cell_angle_beta 90.000000
_cell_angle_gamma 90.000000
_cell_volume 4603.386913
_symmetry_space_group_name_H-M "C M M M"
_symmetry_group_IT_number 65
_symmetry_cell_setting 'orthorhombic'
loop_
_space_group_symop_operation_xyz
x,y,z
-x,-y,z
x,-y,-z
-x,y,-z
-x,-y,-z
x,y,-z
-x,y,z
x,-y,z
1/2+x,1/2+y,z
1/2-x,1/2-y,z
1/2+x,1/2-y,-z
1/2-x,1/2+y,-z
1/2-x,1/2-y,-z
1/2+x,1/2+y,-z
1/2-x,1/2+y,z
1/2+x,1/2-y,z
loop_
_atom_site_type_symbol
_atom_site_label
_atom_site_fract_x
_atom_site_fract_y
_atom_site_fract_z
Si Si1 0.170833 0.673929 0.000000
Si Si2 0.668764 0.085794 0.299930
Si Si3 0.327153 0.082932 0.500000
Si Si4 0.168898 0.586005 0.899295
Si Si5 0.836408 0.088323 0.799729
Si Si6 0.828720 0.326421 0.401353
O O1 0.250000 0.750000 0.000000
O O2 0.207233 0.628791 0.949807
O O3 0.000000 0.684093 0.000000
O O4 0.500000 0.092989 0.289942
O O5 0.755975 0.110683 0.251120
O O6 0.703565 0.130336 0.350023
O O7 0.696527 0.000000 0.308372
O O8 0.500000 0.080410 0.500000
O O9 0.285389 0.125920 0.550238
O O10 0.276310 0.000000 0.500000
O O11 0.194751 0.500000 0.906776
O O12 0.255379 0.611147 0.850367
O O13 0.000000 0.594640 0.890107
O O14 0.000000 0.111637 0.799803
O O15 0.833400 0.000000 0.799826
O O16 0.750000 0.250000 0.402188
O O17 0.000000 0.316352 0.403548
#
# Coordination Sequence:
#
# PCOD9488721 Si02
#       6
#     8  16   8  16  16  16
#     4  10  21  35  51  73 101 132 164 200 246 296
#     4   9  17  31  51  73  97 129 169 206 240 286
#     4   9  17  32  55  79 100 127 168 212 248 289
#     4   9  17  32  54  76  98 128 167 206 242 288
#     4   9  17  29  48  76 104 127 157 203 255 296
#     4  10  20  33  51  75 103 134 166 203 248 296
#
# _framework density 17.378509000000001
#
# number of rings (size 3 to 8) (size 9 to 14) (size 15 to 20)
#    0.000    2.700    0.000    1.800    0.000    7.600 
#    0.000    1.000    0.000    5.400    0.000    0.000 
#    0.000    0.000    0.000    0.000    0.000    0.000 
#
# Total GULP energy -223088.473704 kJ/mol
# GULP energy per Si atom -5577.211843 kJ/mol
# Density = 1.733895 g / cm^3
# Si number density = 17.378509 Si / 1000 Ang^3
#
#
#
# Elastic Constant Matrix: (Units=GPa)
#
#
# Indices 1 2 3 4 5 6 
#
# 1 51.7860 54.2914 88.8698 0.0000 0.0000 0.0000
# 2 54.2914 92.6671 93.2667 0.0000 0.0000 0.0000
# 3 88.8698 93.2667 218.8557 0.0000 0.0000 0.0000
# 4 0.0000 0.0000 0.0000 -5.9836 0.0000 0.0000
# 5 0.0000 0.0000 0.0000 0.0000 10.5690 0.0000
# 6 0.0000 0.0000 0.0000 0.0000 0.0000 27.2013
#
#
#
# Elastic Compliance Matrix: (Units=1/GPa)
#
#
# Indices 1 2 3 4 5 6 
#
# 1 0.094296 -0.029256 -0.025823 0.000000 0.000000 0.000000
# 2 -0.029256 0.027973 -0.000041 0.000000 0.000000 0.000000
# 3 -0.025823 -0.000041 0.015072 0.000000 0.000000 0.000000
# 4 0.000000 0.000000 0.000000 -0.167123 0.000000 0.000000
# 5 0.000000 0.000000 0.000000 0.000000 0.094616 0.000000
# 6 0.000000 0.000000 0.000000 0.000000 0.000000 0.036763
#
#
# Mechanical properties :
#
#
# Convention : Reuss Voigt Hill
#
# Bulk Modulus (GPa) = 36.89774 92.90719 64.90246
# Shear Modulus (GPa) = 22.63782 14.81607 18.72694
#
# Velocity S-wave (km/s) = 3.61312 2.92302 3.28623
# Velocity P-wave (km/s) = 6.21965 8.06034 7.19907
#
# Compressibility (1/GPa) = 0.02710193
#
# Stress axis : x y z
#
# Youngs Moduli (GPa) = 10.60495 35.74895 66.34623
#
# Poissons Ratio (x) = 1.04586 1.71324
# Poissons Ratio (y) = 0.31026 0.00272
# Poissons Ratio (z) = 0.27385 0.00147
#
# Static dielectric constant tensor:
#      x y z
#    x 1.580030 0.000000 0.000000 
#    y 0.000000 1.564340 0.000000 
#    z 0.000000 0.000000 1.572830 
# 
# From -- ./inp_files/72867.got.cif
#   From: 2010.05.17/outbox.cif.g08.bks.cpg/sg65_37_cif.got.tgz:72867.got - 2010.06.03 17:01:31.
