data_PCOD9488312
_publ_section_title
;
Structure prediction by ZEFSAII (Michael W. Deem and Ramdas Pophale) SiO2 
 PCOD9488312
Probable space group: C M M M
;
_chemical_formula_sum "Si O2"
_cell_formula_units_Z 56
_cell_length_a 14.041666
_cell_length_b 11.561939
_cell_length_c 13.269981
_cell_angle_alpha 90.000000
_cell_angle_beta 90.000000
_cell_angle_gamma 90.000000
_cell_volume 2154.366629
_symmetry_space_group_name_H-M "C M M M"
_symmetry_group_IT_number 65
_symmetry_cell_setting 'orthorhombic'
loop_
_space_group_symop_operation_xyz
x,y,z
-x,-y,z
x,-y,-z
-x,y,-z
-x,-y,-z
x,y,-z
-x,y,z
x,-y,z
1/2+x,1/2+y,z
1/2-x,1/2-y,z
1/2+x,1/2-y,-z
1/2-x,1/2+y,-z
1/2-x,1/2-y,-z
1/2+x,1/2+y,-z
1/2-x,1/2+y,z
1/2+x,1/2-y,z
loop_
_atom_site_type_symbol
_atom_site_label
_atom_site_fract_x
_atom_site_fract_y
_atom_site_fract_z
Si Si1 0.891198 0.746033 0.832656
Si Si2 0.891089 0.000000 0.880338
Si Si3 0.893712 0.803884 0.609615
Si Si4 0.384087 0.000000 0.183722
Si Si5 0.734141 0.000000 0.611330
O O1 0.890097 0.731802 0.711443
O O2 0.858030 0.621096 0.870972
O O3 0.000000 0.757382 0.869103
O O4 0.849271 0.874418 0.850120
O O5 0.000000 0.000000 0.837994
O O6 0.894835 0.000000 0.000000
O O7 0.887232 0.744912 0.500000
O O8 0.807335 0.892478 0.614951
O O9 0.000000 0.858998 0.611850
O O10 0.332611 0.000000 0.292150
O O11 0.500000 0.000000 0.194516
O O12 0.688569 0.000000 0.500000
#
# Coordination Sequence:
#
# PCOD9488312 Si02
#       5
#    16   8  16   8   8
#     4   9  18  34  55  80 113 150 186 227 278 335
#     4   9  17  32  58  89 112 135 182 244 292 334
#     4   9  17  31  53  82 114 146 185 237 289 333
#     4  10  22  37  50  72 114 161 195 225 269 331
#     4  10  20  32  51  80 113 152 197 238 280 330
#
# _framework density 25.993717
#
# number of rings (size 3 to 8) (size 9 to 14) (size 15 to 20)
#    0.000    2.714    0.000    1.286    0.000    6.571 
#    0.000    6.429    0.000    4.286    0.000   16.000 
#    0.000    0.000    0.000    0.000    0.000    2.286 
#
# Total GULP energy -156200.259697 kJ/mol
# GULP energy per Si atom -5578.580703 kJ/mol
# Density = 2.593455 g / cm^3
# Si number density = 25.993717 Si / 1000 Ang^3
#
#
#
# Elastic Constant Matrix: (Units=GPa)
#
#
# Indices 1 2 3 4 5 6 
#
# 1 135.7863 36.8993 -2.9999 0.0000 0.0000 0.0000
# 2 36.8993 261.0263 27.3311 0.0000 0.0000 0.0000
# 3 -2.9999 27.3311 98.9186 0.0000 0.0000 0.0000
# 4 0.0000 0.0000 0.0000 -35.0718 0.0000 0.0000
# 5 0.0000 0.0000 0.0000 0.0000 3.0928 0.0000
# 6 0.0000 0.0000 0.0000 0.0000 0.0000 68.2532
#
#
#
# Elastic Compliance Matrix: (Units=1/GPa)
#
#
# Indices 1 2 3 4 5 6 
#
# 1 0.007688 -0.001144 0.000549 0.000000 0.000000 0.000000
# 2 -0.001144 0.004115 -0.001172 0.000000 0.000000 0.000000
# 3 0.000549 -0.001172 0.010450 0.000000 0.000000 0.000000
# 4 0.000000 0.000000 0.000000 -0.028513 0.000000 0.000000
# 5 0.000000 0.000000 0.000000 0.000000 0.323331 0.000000
# 6 0.000000 0.000000 0.000000 0.000000 0.000000 0.014651
#
#
# Mechanical properties :
#
#
# Convention : Reuss Voigt Hill
#
# Bulk Modulus (GPa) = 53.42078 68.68803 61.05441
# Shear Modulus (GPa) = 14.64150 36.22155 25.43153
#
# Velocity S-wave (km/s) = 2.37591 3.73698 3.13129
# Velocity P-wave (km/s) = 5.30308 6.71582 6.05082
#
# Compressibility (1/GPa) = 0.01871931
#
# Stress axis : x y z
#
# Youngs Moduli (GPa) = 130.07976 242.98499 95.69604
#
# Poissons Ratio (x) = 0.27804 -0.05257
# Poissons Ratio (y) = 0.14884 0.11214
# Poissons Ratio (z) = -0.07145 0.28473
#
# Static dielectric constant tensor:
#      x y z
#    x 2.011870 0.000000 0.000000 
#    y 0.000000 2.135770 0.000000 
#    z 0.000000 0.000000 1.989490 
# 
# From -- ./inp_files/39309.got.cif
#   From: 2010.05.17/outbox.cif.g08.bks.cpg/sg65_20_cif.got.tgz:39309.got - 2010.06.03 17:01:31.
