data_PCOD9488182
_publ_section_title
;
Structure prediction by ZEFSAII (Michael W. Deem and Ramdas Pophale) SiO2 
 PCOD9488182
Probable space group: C M M M
;
_chemical_formula_sum "Si O2"
_cell_formula_units_Z 104
_cell_length_a 8.429083
_cell_length_b 30.287411
_cell_length_c 20.645453
_cell_angle_alpha 90.000000
_cell_angle_beta 90.000000
_cell_angle_gamma 90.000000
_cell_volume 5270.683012
_symmetry_space_group_name_H-M "C M M M"
_symmetry_group_IT_number 65
_symmetry_cell_setting 'orthorhombic'
loop_
_space_group_symop_operation_xyz
x,y,z
-x,-y,z
x,-y,-z
-x,y,-z
-x,-y,-z
x,y,-z
-x,y,z
x,-y,z
1/2+x,1/2+y,z
1/2-x,1/2-y,z
1/2+x,1/2-y,-z
1/2-x,1/2+y,-z
1/2-x,1/2-y,-z
1/2+x,1/2+y,-z
1/2-x,1/2+y,z
1/2+x,1/2-y,z
loop_
_atom_site_type_symbol
_atom_site_label
_atom_site_fract_x
_atom_site_fract_y
_atom_site_fract_z
Si Si1 0.187057 0.700014 0.000000
Si Si2 0.807089 0.050478 0.687452
Si Si3 0.689404 0.797881 0.383642
Si Si4 0.809959 0.701584 0.231942
Si Si5 0.309095 0.389442 0.429489
Si Si6 0.693766 0.450154 0.163923
Si Si7 0.188979 0.857740 0.118816
O O1 0.250000 0.750000 0.000000
O O2 0.241155 0.672520 0.062623
O O3 0.000000 0.702946 0.000000
O O4 0.747170 0.083512 0.632477
O O5 0.756071 0.058669 0.761479
O O6 0.000000 0.053134 0.688354
O O7 0.765704 0.000000 0.671084
O O8 0.500000 0.799051 0.388415
O O9 0.750000 0.750000 0.404906
O O10 0.733951 0.803393 0.307518
O O11 0.762623 0.838614 0.421458
O O12 0.750000 0.750000 0.210891
O O13 0.732816 0.664767 0.187008
O O14 0.000000 0.699816 0.226270
O O15 0.253922 0.405851 0.500000
O O16 0.500000 0.392938 0.428473
O O17 0.500000 0.450410 0.163559
O O18 0.744265 0.500000 0.146009
O O19 0.745406 0.408690 0.120797
O O20 0.000000 0.857977 0.111277
#
# Coordination Sequence:
#
# PCOD9488182 Si02
#       7
#     8  16  16  16  16  16  16
#     4  12  26  44  61  80 113 151 188 225 261 308
#     4   8  14  27  49  78 110 140 172 215 266 315
#     4  10  21  36  54  74  99 133 174 221 271 324
#     4  10  20  34  53  79 107 135 172 218 270 324
#     4  10  20  32  48  73 104 138 177 221 270 323
#     4   8  15  29  52  82 111 139 175 220 266 312
#     4  11  21  35  58  85 113 146 182 219 263 312
#
# _framework density 19.731788999999999
#
# number of rings (size 3 to 8) (size 9 to 14) (size 15 to 20)
#    0.000    2.308    0.000    4.385    0.000    4.000 
#    0.000    1.923    0.000    4.615    0.000    7.538 
#    0.000    0.000    0.000    0.000    0.000    0.000 
#
# Total GULP energy -290267.416696 kJ/mol
# GULP energy per Si atom -5582.065706 kJ/mol
# Density = 1.968688 g / cm^3
# Si number density = 19.731789 Si / 1000 Ang^3
#
#
#
# Elastic Constant Matrix: (Units=GPa)
#
#
# Indices 1 2 3 4 5 6 
#
# 1 28.6384 19.9125 19.8101 0.0000 0.0000 0.0000
# 2 19.9125 149.1612 61.6980 0.0000 0.0000 0.0000
# 3 19.8101 61.6980 55.3618 0.0000 0.0000 0.0000
# 4 0.0000 0.0000 0.0000 -3.3063 0.0000 0.0000
# 5 0.0000 0.0000 0.0000 0.0000 14.2284 0.0000
# 6 0.0000 0.0000 0.0000 0.0000 0.0000 16.6993
#
#
#
# Elastic Compliance Matrix: (Units=1/GPa)
#
#
# Indices 1 2 3 4 5 6 
#
# 1 0.046530 0.001253 -0.018046 0.000000 0.000000 0.000000
# 2 0.001253 0.012471 -0.014347 0.000000 0.000000 0.000000
# 3 -0.018046 -0.014347 0.040509 0.000000 0.000000 0.000000
# 4 0.000000 0.000000 0.000000 -0.302455 0.000000 0.000000
# 5 0.000000 0.000000 0.000000 0.000000 0.070282 0.000000
# 6 0.000000 0.000000 0.000000 0.000000 0.000000 0.059883
#
#
# Mechanical properties :
#
#
# Convention : Reuss Voigt Hill
#
# Bulk Modulus (GPa) = 26.85979 48.44474 37.65226
# Shear Modulus (GPa) = 2617.95774 14.30702 1316.13238
#
# Velocity S-wave (km/s) = 36.46439 2.69564 25.85458
# Velocity P-wave (km/s) = 42.26714 5.85607 30.17288
#
# Compressibility (1/GPa) = 0.03723038
#
# Stress axis : x y z
#
# Youngs Moduli (GPa) = 21.49152 80.18446 24.68575
#
# Poissons Ratio (x) = -0.10046 0.44548
# Poissons Ratio (y) = -0.02692 0.35416
# Poissons Ratio (z) = 0.38784 1.15040
#
# Static dielectric constant tensor:
#      x y z
#    x 1.678280 0.000000 0.000000 
#    y 0.000000 1.659540 0.000000 
#    z 0.000000 0.000000 1.708640 
# 
# From -- ./inp_files/60421.got.cif
#   From: 2010.05.17/outbox.cif.g08.bks.cpg/sg65_31_cif.got.tgz:60421.got - 2010.06.03 17:01:31.
