data_PCOD9488088
_publ_section_title
;
Structure prediction by ZEFSAII (Michael W. Deem and Ramdas Pophale) SiO2 
 PCOD9488088
Probable space group: C M M M
;
_chemical_formula_sum "Si O2"
_cell_formula_units_Z 88
_cell_length_a 18.906126
_cell_length_b 7.546437
_cell_length_c 29.541689
_cell_angle_alpha 90.000000
_cell_angle_beta 90.000000
_cell_angle_gamma 90.000000
_cell_volume 4214.827651
_symmetry_space_group_name_H-M "C M M M"
_symmetry_group_IT_number 65
_symmetry_cell_setting 'orthorhombic'
loop_
_space_group_symop_operation_xyz
x,y,z
-x,-y,z
x,-y,-z
-x,y,-z
-x,-y,-z
x,y,-z
-x,y,z
x,-y,z
1/2+x,1/2+y,z
1/2-x,1/2-y,z
1/2+x,1/2-y,-z
1/2-x,1/2+y,-z
1/2-x,1/2-y,-z
1/2+x,1/2+y,-z
1/2-x,1/2+y,z
1/2+x,1/2-y,z
loop_
_atom_site_type_symbol
_atom_site_label
_atom_site_fract_x
_atom_site_fract_y
_atom_site_fract_z
Si Si1 0.917987 0.717007 0.500000
Si Si2 0.580734 0.712593 0.776328
Si Si3 0.166935 0.287422 0.411431
Si Si4 0.167346 0.212624 0.137486
Si Si5 0.419023 0.787666 0.674858
Si Si6 0.918001 0.216100 0.949450
O O1 0.917804 0.500000 0.500000
O O2 0.876223 0.776530 0.455253
O O3 0.000000 0.771493 0.500000
O O4 0.500000 0.780128 0.779843
O O5 0.577594 0.500000 0.780319
O O6 0.628692 0.780162 0.817251
O O7 0.606957 0.750846 0.725666
O O8 0.159704 0.500000 0.411297
O O9 0.250000 0.250000 0.414210
O O10 0.130988 0.220128 0.365156
O O11 0.250000 0.250000 0.138046
O O12 0.130107 0.279456 0.091710
O O13 0.158545 0.000000 0.137238
O O14 0.500000 0.719963 0.670901
O O15 0.422631 0.000000 0.670416
O O16 0.000000 0.266289 0.942412
O O17 0.916343 0.000000 0.949526
O O18 0.896245 0.273355 0.000000
#
# Coordination Sequence:
#
# PCOD9488088 Si02
#       6
#     8  16  16  16  16  16
#     4   9  17  32  55  77  96 125 166 204 236 277
#     4   9  18  33  52  71  92 123 163 203 239 276
#     4  10  20  33  51  75 102 130 159 195 239 286
#     4  10  20  32  47  70  99 127 156 193 237 285
#     4   9  18  33  52  73  96 124 161 201 238 279
#     4   8  14  27  49  73  93 118 157 200 236 274
#
# _framework density 20.87867
#
# number of rings (size 3 to 8) (size 9 to 14) (size 15 to 20)
#    0.000    2.818    0.000    1.909    0.000    6.909 
#    0.000    3.636    0.000    3.818    0.000    1.273 
#    0.000    0.000    0.000    0.000    0.000    0.000 
#
# Total GULP energy -245618.480936 kJ/mol
# GULP energy per Si atom -5582.238203 kJ/mol
# Density = 2.083115 g / cm^3
# Si number density = 20.878670 Si / 1000 Ang^3
#
#
#
# Elastic Constant Matrix: (Units=GPa)
#
#
# Indices 1 2 3 4 5 6 
#
# 1 150.4585 -0.0403 152.0179 0.0000 0.0000 0.0000
# 2 -0.0403 50.6182 7.4110 0.0000 0.0000 0.0000
# 3 152.0179 7.4110 260.1805 0.0000 0.0000 0.0000
# 4 0.0000 0.0000 0.0000 12.6817 0.0000 0.0000
# 5 0.0000 0.0000 0.0000 0.0000 -19.2307 0.0000
# 6 0.0000 0.0000 0.0000 0.0000 0.0000 21.9316
#
#
#
# Elastic Compliance Matrix: (Units=1/GPa)
#
#
# Indices 1 2 3 4 5 6 
#
# 1 0.016324 0.001415 -0.009578 0.000000 0.000000 0.000000
# 2 0.001415 0.019961 -0.001396 0.000000 0.000000 0.000000
# 3 -0.009578 -0.001396 0.009480 0.000000 0.000000 0.000000
# 4 0.000000 0.000000 0.000000 0.078854 0.000000 0.000000
# 5 0.000000 0.000000 0.000000 0.000000 -0.052000 0.000000
# 6 0.000000 0.000000 0.000000 0.000000 0.000000 0.045596
#
#
# Mechanical properties :
#
#
# Convention : Reuss Voigt Hill
#
# Bulk Modulus (GPa) = 37.52600 86.67048 62.09824
# Shear Modulus (GPa) = 34.19641 23.20110 28.69875
#
# Velocity S-wave (km/s) = 4.05144 3.33713 3.71151
# Velocity P-wave (km/s) = 6.31648 7.51334 6.94076
#
# Compressibility (1/GPa) = 0.02664819
#
# Stress axis : x y z
#
# Youngs Moduli (GPa) = 61.25882 50.09719 105.49012
#
# Poissons Ratio (x) = -0.07090 1.01040
# Poissons Ratio (y) = -0.08670 0.14721
# Poissons Ratio (z) = 0.58675 0.06991
#
# Static dielectric constant tensor:
#      x y z
#    x 1.698370 0.000000 0.000000 
#    y 0.000000 1.811920 0.000000 
#    z 0.000000 0.000000 1.743600 
# 
# From -- ./inp_files/74267.got.cif
#   From: 2010.05.17/outbox.cif.g08.bks.cpg/sg65_38_cif.got.tgz:74267.got - 2010.06.03 17:01:31.
