data_PCOD9488644
_publ_section_title
;
Structure prediction by ZEFSAII (Michael W. Deem and Ramdas Pophale) SiO2 
 PCOD9488644
Probable space group: C M M M
;
_chemical_formula_sum "Si O2"
_cell_formula_units_Z 72
_cell_length_a 7.739352
_cell_length_b 18.587016
_cell_length_c 24.056383
_cell_angle_alpha 90.000000
_cell_angle_beta 90.000000
_cell_angle_gamma 90.000000
_cell_volume 3460.545804
_symmetry_space_group_name_H-M "C M M M"
_symmetry_group_IT_number 65
_symmetry_cell_setting 'orthorhombic'
loop_
_space_group_symop_operation_xyz
x,y,z
-x,-y,z
x,-y,-z
-x,y,-z
-x,-y,-z
x,y,-z
-x,y,z
x,-y,z
1/2+x,1/2+y,z
1/2-x,1/2-y,z
1/2+x,1/2-y,-z
1/2-x,1/2+y,-z
1/2-x,1/2-y,-z
1/2+x,1/2+y,-z
1/2-x,1/2+y,z
1/2+x,1/2-y,z
loop_
_atom_site_type_symbol
_atom_site_label
_atom_site_fract_x
_atom_site_fract_y
_atom_site_fract_z
Si Si1 0.206517 0.081358 0.721467
Si Si2 0.294582 0.834032 0.390089
Si Si3 0.291826 0.333635 0.829403
Si Si4 0.788161 0.583413 0.500000
Si Si5 0.210755 0.916472 0.062055
O O1 0.236701 0.127263 0.666188
O O2 0.274249 0.122215 0.776072
O O3 0.000000 0.076165 0.728293
O O4 0.275000 0.000000 0.716266
O O5 0.500000 0.839755 0.391649
O O6 0.250000 0.750000 0.390740
O O7 0.227622 0.875232 0.444774
O O8 0.500000 0.340296 0.829835
O O9 0.250000 0.250000 0.824563
O O10 0.227816 0.367564 0.887290
O O11 0.735772 0.500000 0.500000
O O12 0.000000 0.584394 0.500000
O O13 0.000000 0.914676 0.061951
O O14 0.259292 0.000000 0.070794
O O15 0.267305 0.894513 0.000000
#
# Coordination Sequence:
#
# PCOD9488644 Si02
#       5
#    16  16  16   8  16
#     4  10  21  37  56  78 105 137 175 219 265 313
#     4  11  22  37  58  82 110 142 176 215 260 310
#     4  10  20  33  50  74 104 136 169 209 258 308
#     4   9  19  36  57  81 108 139 176 217 260 306
#     4   8  14  27  49  74  97 126 169 215 254 298
#
# _framework density 20.805968
#
# number of rings (size 3 to 8) (size 9 to 14) (size 15 to 20)
#    0.000    2.333    0.000    3.667    0.000    7.111 
#    0.000    1.667    0.000    6.000    0.000    1.556 
#    0.000    0.000    0.000    0.000    0.000    0.000 
#
# Total GULP energy -201094.422984 kJ/mol
# GULP energy per Si atom -5585.956194 kJ/mol
# Density = 2.075861 g / cm^3
# Si number density = 20.805968 Si / 1000 Ang^3
#
#
#
# Elastic Constant Matrix: (Units=GPa)
#
#
# Indices 1 2 3 4 5 6 
#
# 1 31.9734 1.5936 6.7021 0.0000 0.0000 0.0000
# 2 1.5936 205.1260 143.0262 0.0000 0.0000 0.0000
# 3 6.7021 143.0262 227.7247 0.0000 0.0000 0.0000
# 4 0.0000 0.0000 0.0000 28.5019 0.0000 0.0000
# 5 0.0000 0.0000 0.0000 0.0000 6.4142 0.0000
# 6 0.0000 0.0000 0.0000 0.0000 0.0000 17.3492
#
#
#
# Elastic Compliance Matrix: (Units=1/GPa)
#
#
# Indices 1 2 3 4 5 6 
#
# 1 0.031529 0.000715 -0.001377 0.000000 0.000000 0.000000
# 2 0.000715 0.008690 -0.005479 0.000000 0.000000 0.000000
# 3 -0.001377 -0.005479 0.007873 0.000000 0.000000 0.000000
# 4 0.000000 0.000000 0.000000 0.035085 0.000000 0.000000
# 5 0.000000 0.000000 0.000000 0.000000 0.155904 0.000000
# 6 0.000000 0.000000 0.000000 0.000000 0.000000 0.057640
#
#
# Mechanical properties :
#
#
# Convention : Reuss Voigt Hill
#
# Bulk Modulus (GPa) = 27.92494 85.27421 56.59957
# Shear Modulus (GPa) = 15.57934 31.35320 23.46627
#
# Velocity S-wave (km/s) = 2.73937 3.88613 3.36201
# Velocity P-wave (km/s) = 4.84317 7.82371 6.50641
#
# Compressibility (1/GPa) = 0.03581028
#
# Stress axis : x y z
#
# Youngs Moduli (GPa) = 31.71679 115.08075 127.02023
#
# Poissons Ratio (x) = -0.08232 0.17493
# Poissons Ratio (y) = -0.02269 0.69590
# Poissons Ratio (z) = 0.04368 0.63049
#
# Static dielectric constant tensor:
#      x y z
#    x 1.783760 0.000000 0.000000 
#    y 0.000000 1.692150 0.000000 
#    z 0.000000 0.000000 1.735570 
# 
# From -- ./inp_files/67077.got.cif
#   From: 2010.05.17/outbox.cif.g08.bks.cpg/sg65_34_cif.got.tgz:67077.got - 2010.06.03 17:01:31.
