data_PCOD9488930
_publ_section_title
;
Structure prediction by ZEFSAII (Michael W. Deem and Ramdas Pophale) SiO2 
 PCOD9488930
Probable space group: C M M M
;
_chemical_formula_sum "Si O2"
_cell_formula_units_Z 96
_cell_length_a 11.346191
_cell_length_b 19.470282
_cell_length_c 21.925436
_cell_angle_alpha 90.000000
_cell_angle_beta 90.000000
_cell_angle_gamma 90.000000
_cell_volume 4843.625648
_symmetry_space_group_name_H-M "C M M M"
_symmetry_group_IT_number 65
_symmetry_cell_setting 'orthorhombic'
loop_
_space_group_symop_operation_xyz
x,y,z
-x,-y,z
x,-y,-z
-x,y,-z
-x,-y,-z
x,y,-z
-x,y,z
x,-y,z
1/2+x,1/2+y,z
1/2-x,1/2-y,z
1/2+x,1/2-y,-z
1/2-x,1/2+y,-z
1/2-x,1/2-y,-z
1/2+x,1/2+y,-z
1/2-x,1/2+y,z
1/2+x,1/2-y,z
loop_
_atom_site_type_symbol
_atom_site_label
_atom_site_fract_x
_atom_site_fract_y
_atom_site_fract_z
Si Si1 0.129934 0.918194 0.642028
Si Si2 0.625980 0.713952 0.119160
Si Si3 0.861417 0.575472 0.188898
Si Si4 0.699801 0.680599 0.254235
Si Si5 0.369434 0.083210 0.571082
Si Si6 0.213118 0.077040 0.069659
O O1 0.131325 0.869395 0.700923
O O2 0.248553 0.897684 0.605249
O O3 0.000000 0.909991 0.611687
O O4 0.140052 0.000000 0.656319
O O5 0.500000 0.748493 0.104677
O O6 0.750000 0.750000 0.101871
O O7 0.633265 0.702707 0.192207
O O8 0.629602 0.639707 0.087276
O O9 0.821386 0.500000 0.211086
O O10 0.806865 0.634754 0.229065
O O11 0.816110 0.582115 0.119719
O O12 0.000000 0.578040 0.190824
O O13 0.750000 0.750000 0.283766
O O14 0.362230 0.103513 0.500000
O O15 0.500000 0.105774 0.594834
O O16 0.371420 0.000000 0.572745
O O17 0.161474 0.000000 0.076053
O O18 0.252974 0.084218 0.000000
#
# Coordination Sequence:
#
# PCOD9488930 Si02
#       6
#    16  16  16  16  16  16
#     4  10  20  33  52  81 114 144 177 220 268 316
#     4  10  22  39  58  78 104 140 180 222 267 317
#     4   9  18  33  53  77 105 138 177 221 269 319
#     4  10  21  35  53  75 105 142 183 222 263 315
#     4   8  15  30  52  78 109 144 181 220 262 310
#     4   9  19  35  54  78 106 135 171 216 266 322
#
# _framework density 19.819863000000002
#
# number of rings (size 3 to 8) (size 9 to 14) (size 15 to 20)
#    0.000    2.667    0.000    1.500    0.000    9.667 
#    0.000    5.833    0.000    0.500    0.000    0.000 
#    0.000    0.000    0.000    0.000    0.000    0.000 
#
# Total GULP energy -267302.753997 kJ/mol
# GULP energy per Si atom -5568.807375 kJ/mol
# Density = 1.977475 g / cm^3
# Si number density = 19.819863 Si / 1000 Ang^3
#
#
#
# Elastic Constant Matrix: (Units=GPa)
#
#
# Indices 1 2 3 4 5 6 
#
# 1 162.8817 49.3002 38.5044 0.0000 0.0000 0.0000
# 2 49.3002 82.0854 22.3662 0.0000 0.0000 0.0000
# 3 38.5044 22.3662 39.0320 0.0000 0.0000 0.0000
# 4 0.0000 0.0000 0.0000 6.1587 0.0000 0.0000
# 5 0.0000 0.0000 0.0000 0.0000 -55.1726 0.0000
# 6 0.0000 0.0000 0.0000 0.0000 0.0000 7.6490
#
#
#
# Elastic Compliance Matrix: (Units=1/GPa)
#
#
# Indices 1 2 3 4 5 6 
#
# 1 0.008757 -0.003443 -0.006666 0.000000 0.000000 0.000000
# 2 -0.003443 0.015790 -0.005651 0.000000 0.000000 0.000000
# 3 -0.006666 -0.005651 0.035434 0.000000 0.000000 0.000000
# 4 0.000000 0.000000 0.000000 0.162373 0.000000 0.000000
# 5 0.000000 0.000000 0.000000 0.000000 -0.018125 0.000000
# 6 0.000000 0.000000 0.000000 0.000000 0.000000 0.130735
#
#
# Mechanical properties :
#
#
# Convention : Reuss Voigt Hill
#
# Bulk Modulus (GPa) = 35.13631 56.03785 45.58708
# Shear Modulus (GPa) = 13.29880 3.31557 8.30718
#
# Velocity S-wave (km/s) = 2.59314 1.29479 2.04950
# Velocity P-wave (km/s) = 5.17032 5.52904 5.35268
#
# Compressibility (1/GPa) = 0.02846059
#
# Stress axis : x y z
#
# Youngs Moduli (GPa) = 114.18854 63.32969 28.22136
#
# Poissons Ratio (x) = 0.21807 0.18812
# Poissons Ratio (y) = 0.39320 0.15949
# Poissons Ratio (z) = 0.76117 0.35790
#
# Static dielectric constant tensor:
#      x y z
#    x 1.734530 0.000000 0.000000 
#    y 0.000000 1.727480 0.000000 
#    z 0.000000 0.000000 1.687480 
# 
# From -- ./inp_files/61632.got.cif
#   From: 2010.05.17/outbox.cif.g08.bks.cpg/sg65_31_cif.got.tgz:61632.got - 2010.06.03 17:01:31.
