data_PCOD9488285
_publ_section_title
;
Structure prediction by ZEFSAII (Michael W. Deem and Ramdas Pophale) SiO2 
 PCOD9488285
Probable space group: C M M M
;
_chemical_formula_sum "Si O2"
_cell_formula_units_Z 80
_cell_length_a 14.238613
_cell_length_b 34.498311
_cell_length_c 9.563951
_cell_angle_alpha 90.000000
_cell_angle_beta 90.000000
_cell_angle_gamma 90.000000
_cell_volume 4697.890194
_symmetry_space_group_name_H-M "C M M M"
_symmetry_group_IT_number 65
_symmetry_cell_setting 'orthorhombic'
loop_
_space_group_symop_operation_xyz
x,y,z
-x,-y,z
x,-y,-z
-x,y,-z
-x,-y,-z
x,y,-z
-x,y,z
x,-y,z
1/2+x,1/2+y,z
1/2-x,1/2-y,z
1/2+x,1/2-y,-z
1/2-x,1/2+y,-z
1/2-x,1/2-y,-z
1/2+x,1/2+y,-z
1/2-x,1/2+y,z
1/2+x,1/2-y,z
loop_
_atom_site_type_symbol
_atom_site_label
_atom_site_fract_x
_atom_site_fract_y
_atom_site_fract_z
Si Si1 0.386684 0.307559 0.838101
Si Si2 0.787150 0.888788 0.166042
Si Si3 0.614465 0.233619 0.339645
Si Si4 0.889745 0.044790 0.667211
Si Si5 0.890782 0.342507 0.834409
O O1 0.500000 0.309894 0.830778
O O2 0.344194 0.349260 0.801325
O O3 0.354722 0.272703 0.738511
O O4 0.361465 0.299045 0.000000
O O5 0.826976 0.924489 0.251995
O O6 0.679165 0.877739 0.195689
O O7 0.797701 0.895924 0.000000
O O8 0.645574 0.231725 0.500000
O O9 0.500000 0.234784 0.339915
O O10 0.638624 0.195208 0.252952
O O11 0.879093 0.049057 0.500000
O O12 0.000000 0.051461 0.699915
O O13 0.868102 0.000000 0.702728
O O14 0.000000 0.351002 0.805380
O O15 0.882238 0.333544 0.000000
#
# Coordination Sequence:
#
# PCOD9488285 Si02
#       5
#    16  16  16  16  16
#     4   9  17  29  44  64  94 127 156 194 246 296
#     4  10  20  32  50  76  99 124 164 207 242 283
#     4   9  17  29  45  65  90 124 167 208 244 287
#     4   9  19  36  56  78 105 133 155 180 227 292
#     4   9  18  33  50  67  93 130 168 207 251 290
#
# _framework density 17.028921
#
# number of rings (size 3 to 8) (size 9 to 14) (size 15 to 20)
#    0.000    2.800    0.000    1.800    0.000    6.400 
#    0.000    7.000    0.000    0.600    0.000    4.200 
#    0.000    0.000    0.000    0.000    0.000    0.000 
#
# Total GULP energy -223209.584867 kJ/mol
# GULP energy per Si atom -5580.239622 kJ/mol
# Density = 1.699016 g / cm^3
# Si number density = 17.028921 Si / 1000 Ang^3
#
#
#
# Elastic Constant Matrix: (Units=GPa)
#
#
# Indices 1 2 3 4 5 6 
#
# 1 85.4013 77.3535 51.6523 0.0000 0.0000 0.0000
# 2 77.3535 142.5240 83.6803 0.0000 0.0000 0.0000
# 3 51.6523 83.6803 71.7915 0.0000 0.0000 0.0000
# 4 0.0000 0.0000 0.0000 54.3998 0.0000 0.0000
# 5 0.0000 0.0000 0.0000 0.0000 16.1060 0.0000
# 6 0.0000 0.0000 0.0000 0.0000 0.0000 31.4919
#
#
#
# Elastic Compliance Matrix: (Units=1/GPa)
#
#
# Indices 1 2 3 4 5 6 
#
# 1 0.023979 -0.009140 -0.006599 0.000000 0.000000 0.000000
# 2 -0.009140 0.025713 -0.023395 0.000000 0.000000 0.000000
# 3 -0.006599 -0.023395 0.045946 0.000000 0.000000 0.000000
# 4 0.000000 0.000000 0.000000 0.018382 0.000000 0.000000
# 5 0.000000 0.000000 0.000000 0.000000 0.062089 0.000000
# 6 0.000000 0.000000 0.000000 0.000000 0.000000 0.031754
#
#
# Mechanical properties :
#
#
# Convention : Reuss Voigt Hill
#
# Bulk Modulus (GPa) = 57.56853 80.56544 69.06699
# Shear Modulus (GPa) = 17.12790 26.20160 21.66475
#
# Velocity S-wave (km/s) = 3.17489 3.92682 3.57071
# Velocity P-wave (km/s) = 6.87893 8.24461 7.59254
#
# Compressibility (1/GPa) = 0.01737060
#
# Stress axis : x y z
#
# Youngs Moduli (GPa) = 41.70249 38.89080 21.76471
#
# Poissons Ratio (x) = 0.35547 0.14362
# Poissons Ratio (y) = 0.38117 0.50918
# Poissons Ratio (z) = 0.27518 0.90985
#
# Static dielectric constant tensor:
#      x y z
#    x 1.615780 0.000000 0.000000 
#    y 0.000000 1.529990 0.000000 
#    z 0.000000 0.000000 1.570240 
# 
# From -- ./inp_files/9866.got.cif
#   From: 2010.05.17/outbox.cif.g08.bks.cpg/sg65_5_cif.got.tgz:9866.got - 2010.06.03 17:01:31.
