data_PCOD9488201
_publ_section_title
;
Structure prediction by ZEFSAII (Michael W. Deem and Ramdas Pophale) SiO2 
 PCOD9488201
Probable space group: C M M M
;
_chemical_formula_sum "Si O2"
_cell_formula_units_Z 120
_cell_length_a 9.042016
_cell_length_b 28.268136
_cell_length_c 26.183611
_cell_angle_alpha 90.000000
_cell_angle_beta 90.000000
_cell_angle_gamma 90.000000
_cell_volume 6692.555532
_symmetry_space_group_name_H-M "C M M M"
_symmetry_group_IT_number 65
_symmetry_cell_setting 'orthorhombic'
loop_
_space_group_symop_operation_xyz
x,y,z
-x,-y,z
x,-y,-z
-x,y,-z
-x,-y,-z
x,y,-z
-x,y,z
x,-y,z
1/2+x,1/2+y,z
1/2-x,1/2-y,z
1/2+x,1/2-y,-z
1/2-x,1/2+y,-z
1/2-x,1/2-y,-z
1/2+x,1/2+y,-z
1/2-x,1/2+y,z
1/2+x,1/2-y,z
loop_
_atom_site_type_symbol
_atom_site_label
_atom_site_fract_x
_atom_site_fract_y
_atom_site_fract_z
Si Si1 0.332564 0.203011 0.281034
Si Si2 0.671661 0.700216 0.438611
Si Si3 0.176050 0.868271 0.208164
Si Si4 0.332972 0.126162 0.629387
Si Si5 0.820914 0.444047 0.716624
Si Si6 0.321392 0.801305 0.000000
Si Si7 0.836352 0.053704 0.061329
Si Si8 0.327530 0.862012 0.900506
O O1 0.500000 0.212319 0.263047
O O2 0.250000 0.250000 0.297321
O O3 0.234769 0.177046 0.238873
O O4 0.341403 0.166527 0.327347
O O5 0.683168 0.696852 0.500000
O O6 0.500000 0.703889 0.423944
O O7 0.750000 0.750000 0.423894
O O8 0.739154 0.652712 0.413798
O O9 0.247476 0.913696 0.237550
O O10 0.234414 0.860089 0.151087
O O11 0.000000 0.872351 0.209803
O O12 0.500000 0.116117 0.610862
O O13 0.278151 0.080761 0.662275
O O14 0.786335 0.500000 0.718368
O O15 0.000000 0.438608 0.720600
O O16 0.250000 0.750000 0.000000
O O17 0.278781 0.829083 0.948072
O O18 0.500000 0.798579 0.000000
O O19 0.702909 0.085139 0.080002
O O20 0.000000 0.072173 0.077141
O O21 0.825013 0.000000 0.079497
O O22 0.835601 0.053343 0.000000
O O23 0.500000 0.853133 0.890182
#
# Coordination Sequence:
#
# PCOD9488201 Si02
#       8
#    16  16  16  16  16   8  16  16
#     4  10  20  35  54  78 107 139 175 219 268 322
#     4  10  20  32  48  74 110 151 192 233 278 327
#     4  11  23  37  55  81 109 141 177 217 268 322
#     4   9  18  32  53  80 107 139 180 225 273 325
#     4   9  19  38  61  83 109 142 181 227 278 330
#     4  10  24  42  61  82 103 135 178 219 259 310
#     4   9  18  33  54  80 106 131 161 199 246 302
#     4  11  22  39  58  80 108 138 175 218 262 315
#
# _framework density 17.930368999999999
#
# number of rings (size 3 to 8) (size 9 to 14) (size 15 to 20)
#    0.000    2.133    0.667    4.000    0.000    7.200 
#    0.000    2.000    0.000    0.400    0.000    2.800 
#    0.000    0.000    0.000    0.000    0.000    0.000 
#
# Total GULP energy -334416.903754 kJ/mol
# GULP energy per Si atom -5573.615063 kJ/mol
# Density = 1.788956 g / cm^3
# Si number density = 17.930369 Si / 1000 Ang^3
#
#
#
# Elastic Constant Matrix: (Units=GPa)
#
#
# Indices 1 2 3 4 5 6 
#
# 1 81.5152 30.1156 38.3495 0.0000 0.0000 0.0000
# 2 30.1156 71.6113 23.6067 0.0000 0.0000 0.0000
# 3 38.3495 23.6067 62.6313 0.0000 0.0000 0.0000
# 4 0.0000 0.0000 0.0000 -8.2278 0.0000 0.0000
# 5 0.0000 0.0000 0.0000 0.0000 18.5638 0.0000
# 6 0.0000 0.0000 0.0000 0.0000 0.0000 24.3124
#
#
#
# Elastic Compliance Matrix: (Units=1/GPa)
#
#
# Indices 1 2 3 4 5 6 
#
# 1 0.018477 -0.004614 -0.009574 0.000000 0.000000 0.000000
# 2 -0.004614 0.017098 -0.003619 0.000000 0.000000 0.000000
# 3 -0.009574 -0.003619 0.023193 0.000000 0.000000 0.000000
# 4 0.000000 0.000000 0.000000 -0.121540 0.000000 0.000000
# 5 0.000000 0.000000 0.000000 0.000000 0.053868 0.000000
# 6 0.000000 0.000000 0.000000 0.000000 0.000000 0.041131
#
#
# Mechanical properties :
#
#
# Convention : Reuss Voigt Hill
#
# Bulk Modulus (GPa) = 43.19216 44.43349 43.81283
# Shear Modulus (GPa) = 66.17290 15.17540 40.67415
#
# Velocity S-wave (km/s) = 6.08158 2.91237 4.76799
# Velocity P-wave (km/s) = 8.57060 6.01200 7.40268
#
# Compressibility (1/GPa) = 0.02315235
#
# Stress axis : x y z
#
# Youngs Moduli (GPa) = 54.12256 58.48715 43.11653
#
# Poissons Ratio (x) = 0.26986 0.41281
# Poissons Ratio (y) = 0.24972 0.15605
# Poissons Ratio (z) = 0.51818 0.21168
#
# Static dielectric constant tensor:
#      x y z
#    x 1.632510 0.000000 0.000000 
#    y 0.000000 1.623510 0.000000 
#    z 0.000000 0.000000 1.657350 
# 
# From -- ./inp_files/73891.got.cif
#   From: 2010.05.17/outbox.cif.g08.bks.cpg/sg65_37_cif.got.tgz:73891.got - 2010.06.03 17:01:31.
