data_PCOD9488752
_publ_section_title
;
Structure prediction by ZEFSAII (Michael W. Deem and Ramdas Pophale) SiO2 
 PCOD9488752
Probable space group: C M M M
;
_chemical_formula_sum "Si O2"
_cell_formula_units_Z 80
_cell_length_a 20.103931
_cell_length_b 8.938337
_cell_length_c 26.370725
_cell_angle_alpha 90.000000
_cell_angle_beta 90.000000
_cell_angle_gamma 90.000000
_cell_volume 4738.706160
_symmetry_space_group_name_H-M "C M M M"
_symmetry_group_IT_number 65
_symmetry_cell_setting 'orthorhombic'
loop_
_space_group_symop_operation_xyz
x,y,z
-x,-y,z
x,-y,-z
-x,y,-z
-x,-y,-z
x,y,-z
-x,y,z
x,-y,z
1/2+x,1/2+y,z
1/2-x,1/2-y,z
1/2+x,1/2-y,-z
1/2-x,1/2+y,-z
1/2-x,1/2-y,-z
1/2+x,1/2+y,-z
1/2-x,1/2+y,z
1/2+x,1/2-y,z
loop_
_atom_site_type_symbol
_atom_site_label
_atom_site_fract_x
_atom_site_fract_y
_atom_site_fract_z
Si Si1 0.821681 0.821331 0.559052
Si Si2 0.322210 0.319512 0.057919
Si Si3 0.423448 0.317373 0.144948
Si Si4 0.919231 0.172343 0.743135
Si Si5 0.078300 0.321932 0.361663
O O1 0.836506 0.785774 0.500000
O O2 0.750000 0.750000 0.571074
O O3 0.877386 0.756568 0.595981
O O4 0.817837 0.000000 0.564111
O O5 0.317436 0.500000 0.060488
O O6 0.250000 0.250000 0.067776
O O7 0.375699 0.269752 0.099549
O O8 0.341576 0.280338 0.000000
O O9 0.500000 0.269016 0.137650
O O10 0.424321 0.500000 0.145864
O O11 0.398779 0.271688 0.201079
O O12 0.900101 0.267865 0.694360
O O13 0.000000 0.171212 0.745137
O O14 0.897609 0.000000 0.736323
O O15 0.084602 0.500000 0.365551
O O16 0.000000 0.282856 0.367562
#
# Coordination Sequence:
#
# PCOD9488752 Si02
#       5
#    16  16  16  16  16
#     4  10  21  37  56  76 100 131 165 201 243 291
#     4   9  17  29  45  65  91 122 153 188 233 284
#     4   8  14  26  46  70  91 115 154 200 239 275
#     4   8  14  27  47  68  92 123 157 195 240 286
#     4  10  20  33  51  76 104 132 164 202 241 284
#
# _framework density 16.882245000000001
#
# number of rings (size 3 to 8) (size 9 to 14) (size 15 to 20)
#    0.000    3.000    0.000    2.400    0.000    3.200 
#    0.000    6.000    0.000    4.200    0.000    2.800 
#    0.000    0.000    0.000    0.000    0.000    0.000 
#
# Total GULP energy -222849.236606 kJ/mol
# GULP energy per Si atom -5571.230915 kJ/mol
# Density = 1.684382 g / cm^3
# Si number density = 16.882245 Si / 1000 Ang^3
#
#
#
# Elastic Constant Matrix: (Units=GPa)
#
#
# Indices 1 2 3 4 5 6 
#
# 1 81.3625 36.8553 95.4728 0.0000 0.0000 0.0000
# 2 36.8553 32.3734 50.4956 0.0000 0.0000 0.0000
# 3 95.4728 50.4956 157.7257 0.0000 0.0000 0.0000
# 4 0.0000 0.0000 0.0000 16.3661 0.0000 0.0000
# 5 0.0000 0.0000 0.0000 0.0000 -22.2446 0.0000
# 6 0.0000 0.0000 0.0000 0.0000 0.0000 24.1568
#
#
#
# Elastic Compliance Matrix: (Units=1/GPa)
#
#
# Indices 1 2 3 4 5 6 
#
# 1 0.047324 -0.018366 -0.022766 0.000000 0.000000 0.000000
# 2 -0.018366 0.068828 -0.010918 0.000000 0.000000 0.000000
# 3 -0.022766 -0.010918 0.023616 0.000000 0.000000 0.000000
# 4 0.000000 0.000000 0.000000 0.061102 0.000000 0.000000
# 5 0.000000 0.000000 0.000000 0.000000 -0.044955 0.000000
# 6 0.000000 0.000000 0.000000 0.000000 0.000000 0.041396
#
#
# Mechanical properties :
#
#
# Convention : Reuss Voigt Hill
#
# Bulk Modulus (GPa) = 28.03611 70.78988 49.41299
# Shear Modulus (GPa) = 15.95915 9.56485 12.76200
#
# Velocity S-wave (km/s) = 3.07794 2.38284 2.75242
# Velocity P-wave (km/s) = 5.41060 7.04224 6.27964
#
# Compressibility (1/GPa) = 0.03566829
#
# Stress axis : x y z
#
# Youngs Moduli (GPa) = 21.13103 14.52897 42.34437
#
# Poissons Ratio (x) = 0.26683 0.96400
# Poissons Ratio (y) = 0.38809 0.46233
# Poissons Ratio (z) = 0.48106 0.15863
#
# Static dielectric constant tensor:
#      x y z
#    x 1.543320 0.000000 0.000000 
#    y 0.000000 1.564750 0.000000 
#    z 0.000000 0.000000 1.583970 
# 
# From -- ./inp_files/72717.got.cif
#   From: 2010.05.17/outbox.cif.g08.bks.cpg/sg65_37_cif.got.tgz:72717.got - 2010.06.03 17:01:31.
