data_PCOD9488945
_publ_section_title
;
Structure prediction by ZEFSAII (Michael W. Deem and Ramdas Pophale) SiO2 
 PCOD9488945
Probable space group: C M M M
;
_chemical_formula_sum "Si O2"
_cell_formula_units_Z 56
_cell_length_a 24.437110
_cell_length_b 13.531719
_cell_length_c 8.255078
_cell_angle_alpha 90.000000
_cell_angle_beta 90.000000
_cell_angle_gamma 90.000000
_cell_volume 2729.757045
_symmetry_space_group_name_H-M "C M M M"
_symmetry_group_IT_number 65
_symmetry_cell_setting 'orthorhombic'
loop_
_space_group_symop_operation_xyz
x,y,z
-x,-y,z
x,-y,-z
-x,y,-z
-x,-y,-z
x,y,-z
-x,y,z
x,-y,z
1/2+x,1/2+y,z
1/2-x,1/2-y,z
1/2+x,1/2-y,-z
1/2-x,1/2+y,-z
1/2-x,1/2-y,-z
1/2+x,1/2+y,-z
1/2-x,1/2+y,z
1/2+x,1/2-y,z
loop_
_atom_site_type_symbol
_atom_site_label
_atom_site_fract_x
_atom_site_fract_y
_atom_site_fract_z
Si Si1 0.669746 0.193010 0.688874
Si Si2 0.433657 0.500000 0.816703
Si Si3 0.222854 0.889136 0.810339
Si Si4 0.062071 0.783737 0.694638
O O1 0.669507 0.164415 0.500000
O O2 0.712028 0.124538 0.783809
O O3 0.694894 0.303466 0.706809
O O4 0.607885 0.206420 0.751426
O O5 0.500000 0.500000 0.818468
O O6 0.419683 0.604398 0.736738
O O7 0.412961 0.500000 0.000000
O O8 0.206261 0.000000 0.765997
O O9 0.210638 0.872111 0.000000
O O10 0.060677 0.777003 0.500000
O O11 0.000000 0.768925 0.756116
#
# Coordination Sequence:
#
# PCOD9488945 Si02
#       4
#    16   8  16  16
#     4  10  20  33  53  78 100 129 168 207 245 292
#     4   9  17  27  41  65  95 129 167 199 232 281
#     4  10  21  36  53  73 100 133 164 204 255 298
#     4   9  18  32  48  69 100 133 163 199 246 295
#
# _framework density 20.514645999999999
#
# number of rings (size 3 to 8) (size 9 to 14) (size 15 to 20)
#    0.000    2.429    0.000    3.857    2.000    6.286 
#    0.000    0.000    0.000    0.857    0.000    6.000 
#    0.000    0.000    0.000    0.000    0.000    0.000 
#
# Total GULP energy -156222.545861 kJ/mol
# GULP energy per Si atom -5579.376638 kJ/mol
# Density = 2.046795 g / cm^3
# Si number density = 20.514646 Si / 1000 Ang^3
#
#
#
# Elastic Constant Matrix: (Units=GPa)
#
#
# Indices 1 2 3 4 5 6 
#
# 1 91.6606 -6.7651 -3.3042 0.0000 0.0000 0.0000
# 2 -6.7651 23.7535 -4.2634 0.0000 0.0000 0.0000
# 3 -3.3042 -4.2634 20.6342 0.0000 0.0000 0.0000
# 4 0.0000 0.0000 0.0000 18.9303 0.0000 0.0000
# 5 0.0000 0.0000 0.0000 0.0000 8.8441 0.0000
# 6 0.0000 0.0000 0.0000 0.0000 0.0000 31.2582
#
#
#
# Elastic Compliance Matrix: (Units=1/GPa)
#
#
# Indices 1 2 3 4 5 6 
#
# 1 0.011273 0.003671 0.002564 0.000000 0.000000 0.000000
# 2 0.003671 0.044916 0.009868 0.000000 0.000000 0.000000
# 3 0.002564 0.009868 0.050913 0.000000 0.000000 0.000000
# 4 0.000000 0.000000 0.000000 0.052825 0.000000 0.000000
# 5 0.000000 0.000000 0.000000 0.000000 0.113070 0.000000
# 6 0.000000 0.000000 0.000000 0.000000 0.000000 0.031992
#
#
# Mechanical properties :
#
#
# Convention : Reuss Voigt Hill
#
# Bulk Modulus (GPa) = 7.17840 11.93143 9.55492
# Shear Modulus (GPa) = 15.66321 21.83190 18.74756
#
# Velocity S-wave (km/s) = 2.76617 3.26576 3.02629
# Velocity P-wave (km/s) = 3.70257 4.47761 4.10841
#
# Compressibility (1/GPa) = 0.13930676
#
# Stress axis : x y z
#
# Youngs Moduli (GPa) = 88.70628 22.26391 19.64146
#
# Poissons Ratio (x) = -0.08173 -0.05035
# Poissons Ratio (y) = -0.32562 -0.19382
# Poissons Ratio (z) = -0.22741 -0.21970
#
# Static dielectric constant tensor:
#      x y z
#    x 1.841540 0.000000 0.000000 
#    y 0.000000 1.698460 0.000000 
#    z 0.000000 0.000000 1.692760 
# 
# From -- ./inp_files/6541.got.cif
#   From: 2010.05.17/outbox.cif.g08.bks.cpg/sg65_4_cif.got.tgz:6541.got - 2010.06.03 17:01:31.
