data_PCOD9488764
_publ_section_title
;
Structure prediction by ZEFSAII (Michael W. Deem and Ramdas Pophale) SiO2 
 PCOD9488764
Probable space group: C M M M
;
_chemical_formula_sum "Si O2"
_cell_formula_units_Z 96
_cell_length_a 9.238595
_cell_length_b 19.226820
_cell_length_c 31.559343
_cell_angle_alpha 90.000000
_cell_angle_beta 90.000000
_cell_angle_gamma 90.000000
_cell_volume 5605.848324
_symmetry_space_group_name_H-M "C M M M"
_symmetry_group_IT_number 65
_symmetry_cell_setting 'orthorhombic'
loop_
_space_group_symop_operation_xyz
x,y,z
-x,-y,z
x,-y,-z
-x,y,-z
-x,-y,-z
x,y,-z
-x,y,z
x,-y,z
1/2+x,1/2+y,z
1/2-x,1/2-y,z
1/2+x,1/2-y,-z
1/2-x,1/2+y,-z
1/2-x,1/2-y,-z
1/2+x,1/2+y,-z
1/2-x,1/2+y,z
1/2+x,1/2-y,z
loop_
_atom_site_type_symbol
_atom_site_label
_atom_site_fract_x
_atom_site_fract_y
_atom_site_fract_z
Si Si1 0.167207 0.584674 0.713191
Si Si2 0.169775 0.416360 0.118038
Si Si3 0.665749 0.584731 0.203536
Si Si4 0.672937 0.917262 0.382185
Si Si5 0.672036 0.324190 0.548747
Si Si6 0.171811 0.176079 0.950495
O O1 0.168864 0.500000 0.713130
O O2 0.265694 0.608420 0.752034
O O3 0.212661 0.605593 0.665779
O O4 0.000000 0.605230 0.719990
O O5 0.183076 0.500000 0.114606
O O6 0.238340 0.395041 0.163158
O O7 0.256424 0.379398 0.080597
O O8 0.000000 0.398793 0.116349
O O9 0.500000 0.607391 0.198714
O O10 0.666111 0.500000 0.204462
O O11 0.500000 0.906050 0.386923
O O12 0.760317 0.876760 0.417663
O O13 0.698237 0.000000 0.385454
O O14 0.696876 0.347261 0.500000
O O15 0.500000 0.316779 0.554824
O O16 0.750000 0.250000 0.553801
O O17 0.250000 0.250000 0.943746
O O18 0.000000 0.182092 0.942822
O O19 0.192601 0.157091 0.000000
#
# Coordination Sequence:
#
# PCOD9488764 Si02
#       6
#    16  16  16  16  16  16
#     4   8  14  26  44  67  97 131 164 197 238 291
#     4  10  20  33  51  76 105 136 170 209 251 294
#     4   9  16  26  43  69 100 132 166 204 246 292
#     4   9  18  32  51  76 104 133 165 203 247 294
#     4  10  21  36  53  72  96 129 168 208 250 299
#     4  10  21  37  56  76 100 132 169 208 251 302
#
# _framework density 17.124973000000001
#
# number of rings (size 3 to 8) (size 9 to 14) (size 15 to 20)
#    0.000    2.667    0.000    3.000    0.000    6.667 
#    0.000    5.000    0.000    1.000    0.000    2.333 
#    0.000    0.000    0.000    0.000    0.000    0.000 
#
# Total GULP energy -267624.188512 kJ/mol
# GULP energy per Si atom -5575.503927 kJ/mol
# Density = 1.708600 g / cm^3
# Si number density = 17.124973 Si / 1000 Ang^3
#
#
#
# Elastic Constant Matrix: (Units=GPa)
#
#
# Indices 1 2 3 4 5 6 
#
# 1 127.8564 45.5140 106.5712 0.0000 0.0000 0.0000
# 2 45.5140 26.7879 54.8489 0.0000 0.0000 0.0000
# 3 106.5712 54.8489 150.8497 0.0000 0.0000 0.0000
# 4 0.0000 0.0000 0.0000 -20.3890 0.0000 0.0000
# 5 0.0000 0.0000 0.0000 0.0000 37.8618 0.0000
# 6 0.0000 0.0000 0.0000 0.0000 0.0000 26.3522
#
#
#
# Elastic Compliance Matrix: (Units=1/GPa)
#
#
# Indices 1 2 3 4 5 6 
#
# 1 0.021795 -0.021540 -0.007566 0.000000 0.000000 0.000000
# 2 -0.021540 0.167384 -0.045643 0.000000 0.000000 0.000000
# 3 -0.007566 -0.045643 0.028570 0.000000 0.000000 0.000000
# 4 0.000000 0.000000 0.000000 -0.049046 0.000000 0.000000
# 5 0.000000 0.000000 0.000000 0.000000 0.026412 0.000000
# 6 0.000000 0.000000 0.000000 0.000000 0.000000 0.037947
#
#
# Mechanical properties :
#
#
# Convention : Reuss Voigt Hill
#
# Bulk Modulus (GPa) = 14.65185 79.92914 47.29050
# Shear Modulus (GPa) = 12.33620 15.33567 13.83594
#
# Velocity S-wave (km/s) = 2.68687 2.99576 2.84551
# Velocity P-wave (km/s) = 4.26616 7.66430 6.20248
#
# Compressibility (1/GPa) = 0.06825077
#
# Stress axis : x y z
#
# Youngs Moduli (GPa) = 45.88130 5.97429 35.00176
#
# Poissons Ratio (x) = 0.12869 0.26482
# Poissons Ratio (y) = 0.98830 1.59759
# Poissons Ratio (z) = 0.34713 0.27269
#
# Static dielectric constant tensor:
#      x y z
#    x 1.569650 0.000000 0.000000 
#    y 0.000000 1.555400 0.000000 
#    z 0.000000 0.000000 1.576760 
# 
# From -- ./inp_files/73079.got.cif
#   From: 2010.05.17/outbox.cif.g08.bks.cpg/sg65_37_cif.got.tgz:73079.got - 2010.06.03 17:01:31.
