data_PCOD9488395
_publ_section_title
;
Structure prediction by ZEFSAII (Michael W. Deem and Ramdas Pophale) SiO2 
 PCOD9488395
Probable space group: C M M M
;
_chemical_formula_sum "Si O2"
_cell_formula_units_Z 104
_cell_length_a 7.633519
_cell_length_b 19.176813
_cell_length_c 37.052862
_cell_angle_alpha 90.000000
_cell_angle_beta 90.000000
_cell_angle_gamma 90.000000
_cell_volume 5424.041243
_symmetry_space_group_name_H-M "C M M M"
_symmetry_group_IT_number 65
_symmetry_cell_setting 'orthorhombic'
loop_
_space_group_symop_operation_xyz
x,y,z
-x,-y,z
x,-y,-z
-x,y,-z
-x,-y,-z
x,y,-z
-x,y,z
x,-y,z
1/2+x,1/2+y,z
1/2-x,1/2-y,z
1/2+x,1/2-y,-z
1/2-x,1/2+y,-z
1/2-x,1/2-y,-z
1/2+x,1/2+y,-z
1/2-x,1/2+y,z
1/2+x,1/2-y,z
loop_
_atom_site_type_symbol
_atom_site_label
_atom_site_fract_x
_atom_site_fract_y
_atom_site_fract_z
Si Si1 0.500000 0.585161 0.041395
Si Si2 0.710610 0.668458 0.539913
Si Si3 0.213970 0.580422 0.176257
Si Si4 0.289429 0.831533 0.244647
Si Si5 0.710688 0.420450 0.607211
Si Si6 0.289893 0.920139 0.312455
Si Si7 0.799469 0.415078 0.904180
O O1 0.500000 0.500000 0.040992
O O2 0.669896 0.607222 0.064230
O O3 0.500000 0.608449 0.000000
O O4 0.775900 0.647118 0.500000
O O5 0.500000 0.660695 0.539336
O O6 0.750000 0.750000 0.544520
O O7 0.778234 0.624793 0.573835
O O8 0.268905 0.500000 0.182044
O O9 0.274582 0.629674 0.208534
O O10 0.264953 0.604195 0.136020
O O11 0.000000 0.579839 0.175952
O O12 0.500000 0.838708 0.244491
O O13 0.250000 0.750000 0.245025
O O14 0.223305 0.871328 0.280368
O O15 0.500000 0.422613 0.604469
O O16 0.776594 0.500000 0.605208
O O17 0.751705 0.393390 0.647270
O O18 0.500000 0.923654 0.309072
O O19 0.222868 0.000000 0.309586
O O20 0.801859 0.500000 0.903898
O O21 0.000000 0.391862 0.909332
#
# Coordination Sequence:
#
# PCOD9488395 Si02
#       7
#     8  16  16  16  16  16  16
#     4   9  16  24  36  60  96 130 158 196 245 297
#     4   9  18  32  49  69  93 122 155 189 230 281
#     4   8  14  28  50  68  85 120 164 199 231 276
#     4  10  20  33  48  69  97 124 152 195 240 283
#     4   9  18  32  50  71  94 119 149 192 237 276
#     4   9  18  33  52  70  90 123 164 196 227 277
#     4   8  14  25  41  61  86 121 163 201 240 290
#
# _framework density 19.173897
#
# number of rings (size 3 to 8) (size 9 to 14) (size 15 to 20)
#    0.000    3.154    0.000    1.385    0.000    4.308 
#    1.385    6.154    0.000    0.923    0.000    4.308 
#    0.000    0.615    0.308    0.000    0.000    0.000 
#
# Total GULP energy -289875.534511 kJ/mol
# GULP energy per Si atom -5574.529510 kJ/mol
# Density = 1.913026 g / cm^3
# Si number density = 19.173897 Si / 1000 Ang^3
#
#
#
# Elastic Constant Matrix: (Units=GPa)
#
#
# Indices 1 2 3 4 5 6 
#
# 1 51.8727 11.8907 40.5396 0.0000 0.0000 0.0000
# 2 11.8907 60.3573 87.5302 0.0000 0.0000 0.0000
# 3 40.5396 87.5302 236.7764 0.0000 0.0000 0.0000
# 4 0.0000 0.0000 0.0000 -19.3851 0.0000 0.0000
# 5 0.0000 0.0000 0.0000 0.0000 26.1567 0.0000
# 6 0.0000 0.0000 0.0000 0.0000 0.0000 15.0517
#
#
#
# Elastic Compliance Matrix: (Units=1/GPa)
#
#
# Indices 1 2 3 4 5 6 
#
# 1 0.022427 0.002480 -0.004756 0.000000 0.000000 0.000000
# 2 0.002480 0.035989 -0.013729 0.000000 0.000000 0.000000
# 3 -0.004756 -0.013729 0.010113 0.000000 0.000000 0.000000
# 4 0.000000 0.000000 0.000000 -0.051586 0.000000 0.000000
# 5 0.000000 0.000000 0.000000 0.000000 0.038231 0.000000
# 6 0.000000 0.000000 0.000000 0.000000 0.000000 0.066438
#
#
# Mechanical properties :
#
#
# Convention : Reuss Voigt Hill
#
# Bulk Modulus (GPa) = 27.38409 69.88081 48.63245
# Shear Modulus (GPa) = 30.15777 18.30108 24.22943
#
# Velocity S-wave (km/s) = 3.97023 3.09282 3.55867
# Velocity P-wave (km/s) = 5.94390 7.01990 6.50418
#
# Compressibility (1/GPa) = 0.03651756
#
# Stress axis : x y z
#
# Youngs Moduli (GPa) = 44.58942 27.78635 98.88331
#
# Poissons Ratio (x) = -0.06890 0.47033
# Poissons Ratio (y) = -0.11057 1.35754
# Poissons Ratio (z) = 0.21209 0.38147
#
# Static dielectric constant tensor:
#      x y z
#    x 2.137260 0.000000 0.000000 
#    y 0.000000 1.631640 0.000000 
#    z 0.000000 0.000000 1.677440 
# 
# From -- ./inp_files/76850.got.cif
#   From: 2010.05.17/outbox.cif.g08.bks.cpg/sg65_39_cif.got.tgz:76850.got - 2010.06.03 17:01:31.
