data_PCOD9488068
_publ_section_title
;
Structure prediction by ZEFSAII (Michael W. Deem and Ramdas Pophale) SiO2 
 PCOD9488068
Probable space group: C M M M
;
_chemical_formula_sum "Si O2"
_cell_formula_units_Z 112
_cell_length_a 16.500563
_cell_length_b 14.529459
_cell_length_c 20.208294
_cell_angle_alpha 90.000000
_cell_angle_beta 90.000000
_cell_angle_gamma 90.000000
_cell_volume 4844.822361
_symmetry_space_group_name_H-M "C M M M"
_symmetry_group_IT_number 65
_symmetry_cell_setting 'orthorhombic'
loop_
_space_group_symop_operation_xyz
x,y,z
-x,-y,z
x,-y,-z
-x,y,-z
-x,-y,-z
x,y,-z
-x,y,z
x,-y,z
1/2+x,1/2+y,z
1/2-x,1/2-y,z
1/2+x,1/2-y,-z
1/2-x,1/2+y,-z
1/2-x,1/2-y,-z
1/2+x,1/2+y,-z
1/2-x,1/2+y,z
1/2+x,1/2-y,z
loop_
_atom_site_type_symbol
_atom_site_label
_atom_site_fract_x
_atom_site_fract_y
_atom_site_fract_z
Si Si1 0.090525 0.607843 0.219778
Si Si2 0.156322 0.359344 0.074828
Si Si3 0.739575 0.387763 0.282245
Si Si4 0.236215 0.887514 0.573752
Si Si5 0.343726 0.637589 0.927094
Si Si6 0.413402 0.605391 0.207699
Si Si7 0.584644 0.105469 0.420577
O O1 0.087030 0.500000 0.235896
O O2 0.107960 0.614118 0.140760
O O3 0.170016 0.643396 0.260140
O O4 0.000000 0.645264 0.233649
O O5 0.249826 0.390246 0.084018
O O6 0.155721 0.248559 0.073932
O O7 0.130185 0.388601 0.000000
O O8 0.744813 0.500000 0.279521
O O9 0.701442 0.364979 0.354613
O O10 0.670897 0.353135 0.232403
O O11 0.208513 0.857332 0.500000
O O12 0.327802 0.851850 0.586991
O O13 0.238812 0.000000 0.569874
O O14 0.402755 0.604455 0.870668
O O15 0.367441 0.607569 0.000000
O O16 0.500000 0.647105 0.226121
O O17 0.414369 0.500000 0.231912
O O18 0.579439 0.098364 0.500000
O O19 0.500000 0.147733 0.396828
O O20 0.588074 0.000000 0.395058
#
# Coordination Sequence:
#
# PCOD9488068 Si02
#       7
#    16  16  16  16  16  16  16
#     4  10  20  32  47  69  98 135 172 196 225 278
#     4   9  18  33  52  73  98 128 162 201 242 282
#     4   9  17  30  44  61  92 127 158 199 242 278
#     4   8  13  21  36  57  80 113 154 190 231 282
#     4   9  18  33  53  75  97 123 158 202 250 291
#     4  10  20  33  50  71  95 127 164 199 243 296
#     4   7   9  13  22  40  67  96 129 170 210 250
#
# _framework density 23.117462
#
# number of rings (size 3 to 8) (size 9 to 14) (size 15 to 20)
#    0.000    3.143    1.429    2.143    0.000    2.286 
#    0.000    7.143    0.000    0.429    0.000    3.000 
#    0.000    2.286    0.000    2.571    0.000    2.857 
#
# Total GULP energy -311776.181304 kJ/mol
# GULP energy per Si atom -5567.431809 kJ/mol
# Density = 2.306485 g / cm^3
# Si number density = 23.117462 Si / 1000 Ang^3
#
#
#
# Elastic Constant Matrix: (Units=GPa)
#
#
# Indices 1 2 3 4 5 6 
#
# 1 106.6359 0.7560 51.3673 0.0000 0.0000 0.0000
# 2 0.7560 76.9902 -3.5619 0.0000 0.0000 0.0000
# 3 51.3673 -3.5619 153.3344 0.0000 0.0000 0.0000
# 4 0.0000 0.0000 0.0000 18.5583 0.0000 0.0000
# 5 0.0000 0.0000 0.0000 0.0000 -0.5272 0.0000
# 6 0.0000 0.0000 0.0000 0.0000 0.0000 -19.2680
#
#
#
# Elastic Compliance Matrix: (Units=1/GPa)
#
#
# Indices 1 2 3 4 5 6 
#
# 1 0.011188 -0.000284 -0.003755 0.000000 0.000000 0.000000
# 2 -0.000284 0.013010 0.000397 0.000000 0.000000 0.000000
# 3 -0.003755 0.000397 0.007789 0.000000 0.000000 0.000000
# 4 0.000000 0.000000 0.000000 0.053884 0.000000 0.000000
# 5 0.000000 0.000000 0.000000 0.000000 -1.896953 0.000000
# 6 0.000000 0.000000 0.000000 0.000000 0.000000 -0.051899
#
#
# Mechanical properties :
#
#
# Convention : Reuss Voigt Hill
#
# Bulk Modulus (GPa) = 40.47790 48.23145 44.35468
# Shear Modulus (GPa) = -2.70641 18.97923 8.13641
#
# Velocity S-wave (km/s) = -1.08317 2.86840 1.87809
# Velocity P-wave (km/s) = 3.99792 5.64617 4.89196
#
# Compressibility (1/GPa) = 0.02470484
#
# Stress axis : x y z
#
# Youngs Moduli (GPa) = 89.37838 76.86494 128.39019
#
# Poissons Ratio (x) = 0.02180 0.48207
# Poissons Ratio (y) = 0.02534 -0.05100
# Poissons Ratio (z) = 0.33559 -0.03053
#
# Static dielectric constant tensor:
#      x y z
#    x 1.912020 0.000000 0.000000 
#    y 0.000000 1.949640 0.000000 
#    z 0.000000 0.000000 1.898930 
# 
# From -- ./inp_files/54857.got.cif
#   From: 2010.05.17/outbox.cif.g08.bks.cpg/sg65_28_cif.got.tgz:54857.got - 2010.06.03 17:01:31.
