data_PCOD9488922
_publ_section_title
;
Structure prediction by ZEFSAII (Michael W. Deem and Ramdas Pophale) SiO2 
 PCOD9488922
Probable space group: C M M M
;
_chemical_formula_sum "Si O2"
_cell_formula_units_Z 104
_cell_length_a 29.192847
_cell_length_b 8.638981
_cell_length_c 23.664393
_cell_angle_alpha 90.000000
_cell_angle_beta 90.000000
_cell_angle_gamma 90.000000
_cell_volume 5968.075919
_symmetry_space_group_name_H-M "C M M M"
_symmetry_group_IT_number 65
_symmetry_cell_setting 'orthorhombic'
loop_
_space_group_symop_operation_xyz
x,y,z
-x,-y,z
x,-y,-z
-x,y,-z
-x,-y,-z
x,y,-z
-x,y,z
x,-y,z
1/2+x,1/2+y,z
1/2-x,1/2-y,z
1/2+x,1/2-y,-z
1/2-x,1/2+y,-z
1/2-x,1/2-y,-z
1/2+x,1/2+y,-z
1/2-x,1/2+y,z
1/2+x,1/2-y,z
loop_
_atom_site_type_symbol
_atom_site_label
_atom_site_fract_x
_atom_site_fract_y
_atom_site_fract_z
Si Si1 0.800643 0.686699 0.563884
Si Si2 0.698528 0.315600 0.000000
Si Si3 0.447776 0.684816 0.281665
Si Si4 0.198553 0.814805 0.220555
Si Si5 0.147766 0.314003 0.890275
Si Si6 0.051427 0.686385 0.844747
Si Si7 0.856941 0.314605 0.327249
O O1 0.812932 0.736711 0.500000
O O2 0.798591 0.500000 0.564123
O O3 0.750000 0.750000 0.576546
O O4 0.835560 0.734117 0.612813
O O5 0.750000 0.250000 0.000000
O O6 0.671922 0.257044 0.055315
O O7 0.700698 0.500000 0.000000
O O8 0.500000 0.725155 0.297524
O O9 0.442549 0.500000 0.284094
O O10 0.441363 0.739029 0.216815
O O11 0.409291 0.764690 0.319187
O O12 0.250000 0.750000 0.222508
O O13 0.172941 0.745499 0.166047
O O14 0.171669 0.762245 0.276541
O O15 0.199219 0.000000 0.216833
O O16 0.151240 0.500000 0.892752
O O17 0.094035 0.271178 0.884291
O O18 0.052719 0.500000 0.837746
O O19 0.000000 0.728417 0.864355
O O20 0.853073 0.500000 0.321935
#
# Coordination Sequence:
#
# PCOD9488922 Si02
#       7
#    16   8  16  16  16  16  16
#     4   9  19  35  54  77 107 144 186 229 274 327
#     4  12  26  44  63  82 109 147 192 233 279 332
#     4  10  20  33  52  80 113 146 182 226 276 330
#     4  12  24  37  54  79 113 146 181 226 279 331
#     4  11  22  39  61  85 113 145 186 229 276 330
#     4   9  18  34  58  85 113 145 181 223 272 328
#     4  11  21  34  54  81 111 144 183 227 278 333
#
# _framework density 17.426051999999999
#
# number of rings (size 3 to 8) (size 9 to 14) (size 15 to 20)
#    0.000    1.538    1.538    4.385    0.000    4.000 
#    0.000    0.385    0.000    2.769    0.000    3.231 
#    0.000    0.000    0.000    0.000    0.000    0.000 
#
# Total GULP energy -290477.136105 kJ/mol
# GULP energy per Si atom -5586.098771 kJ/mol
# Density = 1.738639 g / cm^3
# Si number density = 17.426052 Si / 1000 Ang^3
#
#
#
# Elastic Constant Matrix: (Units=GPa)
#
#
# Indices 1 2 3 4 5 6 
#
# 1 160.8652 54.9076 92.1535 0.0000 0.0000 0.0000
# 2 54.9076 70.5506 44.2535 0.0000 0.0000 0.0000
# 3 92.1535 44.2535 125.5383 0.0000 0.0000 0.0000
# 4 0.0000 0.0000 0.0000 6.0992 0.0000 0.0000
# 5 0.0000 0.0000 0.0000 0.0000 29.2967 0.0000
# 6 0.0000 0.0000 0.0000 0.0000 0.0000 24.9647
#
#
#
# Elastic Compliance Matrix: (Units=1/GPa)
#
#
# Indices 1 2 3 4 5 6 
#
# 1 0.011895 -0.004854 -0.007021 0.000000 0.000000 0.000000
# 2 -0.004854 0.020179 -0.003550 0.000000 0.000000 0.000000
# 3 -0.007021 -0.003550 0.014371 0.000000 0.000000 0.000000
# 4 0.000000 0.000000 0.000000 0.163957 0.000000 0.000000
# 5 0.000000 0.000000 0.000000 0.000000 0.034134 0.000000
# 6 0.000000 0.000000 0.000000 0.000000 0.000000 0.040056
#
#
# Mechanical properties :
#
#
# Convention : Reuss Voigt Hill
#
# Bulk Modulus (GPa) = 64.12243 82.17591 73.14917
# Shear Modulus (GPa) = 15.59386 23.11475 19.35430
#
# Velocity S-wave (km/s) = 2.99466 3.64599 3.33626
# Velocity P-wave (km/s) = 6.98814 8.06124 7.54380
#
# Compressibility (1/GPa) = 0.01559517
#
# Stress axis : x y z
#
# Youngs Moduli (GPa) = 84.06889 49.55727 69.58521
#
# Poissons Ratio (x) = 0.24054 0.48854
# Poissons Ratio (y) = 0.40805 0.24704
# Poissons Ratio (z) = 0.59023 0.17594
#
# Static dielectric constant tensor:
#      x y z
#    x 1.600550 0.000000 0.000000 
#    y 0.000000 1.579240 0.000000 
#    z 0.000000 0.000000 1.564570 
# 
# From -- ./inp_files/66339.got.cif
#   From: 2010.05.17/outbox.cif.g08.bks.cpg/sg65_34_cif.got.tgz:66339.got - 2010.06.03 17:01:31.
