data_PCOD9488431
_publ_section_title
;
Structure prediction by ZEFSAII (Michael W. Deem and Ramdas Pophale) SiO2 
 PCOD9488431
Probable space group: C M M M
;
_chemical_formula_sum "Si O2"
_cell_formula_units_Z 96
_cell_length_a 28.022099
_cell_length_b 8.387736
_cell_length_c 24.894899
_cell_angle_alpha 90.000000
_cell_angle_beta 90.000000
_cell_angle_gamma 90.000000
_cell_volume 5851.346069
_symmetry_space_group_name_H-M "C M M M"
_symmetry_group_IT_number 65
_symmetry_cell_setting 'orthorhombic'
loop_
_space_group_symop_operation_xyz
x,y,z
-x,-y,z
x,-y,-z
-x,y,-z
-x,-y,-z
x,y,-z
-x,y,z
x,-y,z
1/2+x,1/2+y,z
1/2-x,1/2-y,z
1/2+x,1/2-y,-z
1/2-x,1/2+y,-z
1/2-x,1/2-y,-z
1/2+x,1/2+y,-z
1/2-x,1/2+y,z
1/2+x,1/2-y,z
loop_
_atom_site_type_symbol
_atom_site_label
_atom_site_fract_x
_atom_site_fract_y
_atom_site_fract_z
Si Si1 0.944902 0.309223 0.000000
Si Si2 0.553065 0.192631 0.782499
Si Si3 0.695341 0.193124 0.383049
Si Si4 0.100831 0.191096 0.890091
Si Si5 0.149056 0.307120 0.727115
Si Si6 0.697717 0.309330 0.834356
Si Si7 0.195226 0.692390 0.500000
O O1 0.917744 0.252252 0.946809
O O2 0.946052 0.500000 0.000000
O O3 0.000000 0.251048 0.000000
O O4 0.500000 0.248080 0.768107
O O5 0.567007 0.247575 0.842220
O O6 0.595953 0.247002 0.743824
O O7 0.553109 0.000000 0.781969
O O8 0.750000 0.250000 0.378386
O O9 0.666281 0.249164 0.331112
O O10 0.675828 0.245012 0.441788
O O11 0.695443 0.000000 0.382330
O O12 0.154531 0.243537 0.873524
O O13 0.100051 0.000000 0.890221
O O14 0.149439 0.500000 0.726921
O O15 0.183834 0.251571 0.774884
O O16 0.697908 0.500000 0.833288
O O17 0.750000 0.250000 0.849856
O O18 0.194305 0.500000 0.500000
O O19 0.250000 0.750000 0.500000
#
# Coordination Sequence:
#
# PCOD9488431 Si02
#       7
#     8  16  16  16  16  16   8
#     4  11  23  37  54  75  96 119 148 181 218 261
#     4   9  17  30  47  66  89 116 145 179 220 265
#     4   9  16  25  38  57  82 112 144 178 216 258
#     4  10  21  35  51  72  95 118 147 181 217 259
#     4   9  17  28  43  64  88 115 148 183 220 262
#     4  10  20  33  49  69  93 121 150 180 216 258
#     4   8  14  24  36  52  77 109 143 177 214 256
#
# _framework density 16.406479999999998
#
# number of rings (size 3 to 8) (size 9 to 14) (size 15 to 20)
#    0.000    2.583    0.000    2.250    0.000    7.000 
#    0.000    0.417    0.000    0.000    0.000    0.583 
#    0.000    4.667    0.000    0.000    0.000   45.083 
#
# Total GULP energy -267498.665759 kJ/mol
# GULP energy per Si atom -5572.888870 kJ/mol
# Density = 1.636914 g / cm^3
# Si number density = 16.406480 Si / 1000 Ang^3
#
#
#
# Elastic Constant Matrix: (Units=GPa)
#
#
# Indices 1 2 3 4 5 6 
#
# 1 107.4355 12.7544 66.9138 0.0000 0.0000 0.0000
# 2 12.7544 9.5283 12.5466 0.0000 0.0000 0.0000
# 3 66.9138 12.5466 156.5666 0.0000 0.0000 0.0000
# 4 0.0000 0.0000 0.0000 10.4222 0.0000 0.0000
# 5 0.0000 0.0000 0.0000 0.0000 15.5717 0.0000
# 6 0.0000 0.0000 0.0000 0.0000 0.0000 18.9689
#
#
#
# Elastic Compliance Matrix: (Units=1/GPa)
#
#
# Indices 1 2 3 4 5 6 
#
# 1 0.013807 -0.011976 -0.004941 0.000000 0.000000 0.000000
# 2 -0.011976 0.127719 -0.005117 0.000000 0.000000 0.000000
# 3 -0.004941 -0.005117 0.008909 0.000000 0.000000 0.000000
# 4 0.000000 0.000000 0.000000 0.095949 0.000000 0.000000
# 5 0.000000 0.000000 0.000000 0.000000 0.064219 0.000000
# 6 0.000000 0.000000 0.000000 0.000000 0.000000 0.052718
#
#
# Mechanical properties :
#
#
# Convention : Reuss Voigt Hill
#
# Bulk Modulus (GPa) = 9.40133 50.88446 30.14289
# Shear Modulus (GPa) = 11.29064 21.08025 16.18545
#
# Velocity S-wave (km/s) = 2.62617 3.58840 3.14431
# Velocity P-wave (km/s) = 3.86502 6.94630 5.62092
#
# Compressibility (1/GPa) = 0.10636796
#
# Stress axis : x y z
#
# Youngs Moduli (GPa) = 72.42605 7.82969 112.24725
#
# Poissons Ratio (x) = 0.09377 0.55464
# Poissons Ratio (y) = 0.86734 0.57434
# Poissons Ratio (z) = 0.35788 0.04006
#
# Static dielectric constant tensor:
#      x y z
#    x 1.550790 0.000000 0.000000 
#    y 0.000000 1.561070 0.000000 
#    z 0.000000 0.000000 1.557940 
# 
# From -- ./inp_files/71755.got.cif
#   From: 2010.05.17/outbox.cif.g08.bks.cpg/sg65_36_cif.got.tgz:71755.got - 2010.06.03 17:01:31.
