data_PCOD9488272
_publ_section_title
;
Structure prediction by ZEFSAII (Michael W. Deem and Ramdas Pophale) SiO2 
 PCOD9488272
Probable space group: C M M M
;
_chemical_formula_sum "Si O2"
_cell_formula_units_Z 88
_cell_length_a 19.674789
_cell_length_b 28.392908
_cell_length_c 8.068694
_cell_angle_alpha 90.000000
_cell_angle_beta 90.000000
_cell_angle_gamma 90.000000
_cell_volume 4507.369942
_symmetry_space_group_name_H-M "C M M M"
_symmetry_group_IT_number 65
_symmetry_cell_setting 'orthorhombic'
loop_
_space_group_symop_operation_xyz
x,y,z
-x,-y,z
x,-y,-z
-x,y,-z
-x,-y,-z
x,y,-z
-x,y,z
x,-y,z
1/2+x,1/2+y,z
1/2-x,1/2-y,z
1/2+x,1/2-y,-z
1/2-x,1/2+y,-z
1/2-x,1/2-y,-z
1/2+x,1/2+y,-z
1/2-x,1/2+y,z
1/2+x,1/2-y,z
loop_
_atom_site_type_symbol
_atom_site_label
_atom_site_fract_x
_atom_site_fract_y
_atom_site_fract_z
Si Si1 0.830285 0.153724 0.697405
Si Si2 0.687624 0.810223 0.191566
Si Si3 0.210214 0.051400 0.696547
Si Si4 0.355059 0.918215 0.194658
Si Si5 0.500000 0.055927 0.809716
Si Si6 0.076583 0.765481 0.300426
O O1 0.838309 0.148776 0.500000
O O2 0.761371 0.184010 0.725158
O O3 0.820397 0.100595 0.766168
O O4 0.892703 0.184822 0.761810
O O5 0.656625 0.862522 0.203198
O O6 0.632474 0.773964 0.259408
O O7 0.699779 0.798768 0.000000
O O8 0.196108 0.050809 0.500000
O O9 0.291200 0.057133 0.720687
O O10 0.189249 0.000000 0.764801
O O11 0.428779 0.929178 0.267553
O O12 0.354333 0.932671 0.000000
O O13 0.500000 0.000000 0.819103
O O14 0.500000 0.075331 0.000000
O O15 0.073208 0.768004 0.500000
O O16 0.000000 0.755862 0.238785
#
# Coordination Sequence:
#
# PCOD9488272 Si02
#       6
#    16  16  16  16   8  16
#     4   9  18  34  53  71  97 130 162 199 240 289
#     4  10  20  32  50  74  99 127 162 204 245 285
#     4   9  17  30  49  71  93 118 152 195 242 286
#     4   9  18  30  45  65  91 123 158 194 233 281
#     4   9  16  26  41  59  83 119 157 189 224 269
#     4  10  21  35  51  71  96 130 168 200 239 293
#
# _framework density 19.523579999999999
#
# number of rings (size 3 to 8) (size 9 to 14) (size 15 to 20)
#    0.000    2.636    0.000    1.636    1.273    5.091 
#    0.000    0.455    0.000    2.182    0.000    3.818 
#    0.000    0.000    0.000   10.727    0.000   11.273 
#
# Total GULP energy -245212.971865 kJ/mol
# GULP energy per Si atom -5573.022088 kJ/mol
# Density = 1.947914 g / cm^3
# Si number density = 19.523580 Si / 1000 Ang^3
#
#
#
# Elastic Constant Matrix: (Units=GPa)
#
#
# Indices 1 2 3 4 5 6 
#
# 1 34.8710 41.4969 -1.6178 0.0000 0.0000 0.0000
# 2 41.4969 115.5633 10.6250 0.0000 0.0000 0.0000
# 3 -1.6178 10.6250 12.2471 0.0000 0.0000 0.0000
# 4 0.0000 0.0000 0.0000 8.9224 0.0000 0.0000
# 5 0.0000 0.0000 0.0000 0.0000 0.7124 0.0000
# 6 0.0000 0.0000 0.0000 0.0000 0.0000 10.1953
#
#
#
# Elastic Compliance Matrix: (Units=1/GPa)
#
#
# Indices 1 2 3 4 5 6 
#
# 1 0.057633 -0.023250 0.027783 0.000000 0.000000 0.000000
# 2 -0.023250 0.018782 -0.019366 0.000000 0.000000 0.000000
# 3 0.027783 -0.019366 0.102122 0.000000 0.000000 0.000000
# 4 0.000000 0.000000 0.000000 0.112077 0.000000 0.000000
# 5 0.000000 0.000000 0.000000 0.000000 1.403631 0.000000
# 6 0.000000 0.000000 0.000000 0.000000 0.000000 0.098084
#
#
# Mechanical properties :
#
#
# Convention : Reuss Voigt Hill
#
# Bulk Modulus (GPa) = 6.71710 29.29885 18.00797
# Shear Modulus (GPa) = 2.67148 11.44453 7.05801
#
# Velocity S-wave (km/s) = 1.17103 2.42376 1.90341
# Velocity P-wave (km/s) = 2.29704 4.78250 3.75158
#
# Compressibility (1/GPa) = 0.14887383
#
# Stress axis : x y z
#
# Youngs Moduli (GPa) = 17.35108 53.24162 9.79217
#
# Poissons Ratio (x) = 1.23784 -0.27206
# Poissons Ratio (y) = 0.40341 0.18963
# Poissons Ratio (z) = -0.48207 1.03106
#
# Static dielectric constant tensor:
#      x y z
#    x 1.685700 0.000000 0.000000 
#    y 0.000000 1.725100 0.000000 
#    z 0.000000 0.000000 1.707880 
# 
# From -- ./inp_files/10035.got.cif
#   From: 2010.05.17/outbox.cif.g08.bks.cpg/sg65_6_cif.got.tgz:10035.got - 2010.06.03 17:01:31.
