data_PCOD9488178
_publ_section_title
;
Structure prediction by ZEFSAII (Michael W. Deem and Ramdas Pophale) SiO2 
 PCOD9488178
Probable space group: C M M M
;
_chemical_formula_sum "Si O2"
_cell_formula_units_Z 72
_cell_length_a 19.336983
_cell_length_b 8.539601
_cell_length_c 23.676518
_cell_angle_alpha 90.000000
_cell_angle_beta 90.000000
_cell_angle_gamma 90.000000
_cell_volume 3909.706243
_symmetry_space_group_name_H-M "C M M M"
_symmetry_group_IT_number 65
_symmetry_cell_setting 'orthorhombic'
loop_
_space_group_symop_operation_xyz
x,y,z
-x,-y,z
x,-y,-z
-x,y,-z
-x,-y,-z
x,y,-z
-x,y,z
x,-y,z
1/2+x,1/2+y,z
1/2-x,1/2-y,z
1/2+x,1/2-y,-z
1/2-x,1/2+y,-z
1/2-x,1/2-y,-z
1/2+x,1/2+y,-z
1/2-x,1/2+y,z
1/2+x,1/2-y,z
loop_
_atom_site_type_symbol
_atom_site_label
_atom_site_fract_x
_atom_site_fract_y
_atom_site_fract_z
Si Si1 0.080004 0.811108 0.725358
Si Si2 0.172259 0.810339 0.831535
Si Si3 0.920441 0.190812 0.936178
Si Si4 0.672321 0.685773 0.500000
Si Si5 0.079885 0.687362 0.398637
O O1 0.129876 0.760557 0.775888
O O2 0.098496 0.740559 0.664624
O O3 0.000000 0.768841 0.737804
O O4 0.083074 0.000000 0.721316
O O5 0.250000 0.750000 0.830724
O O6 0.131212 0.756295 0.887451
O O7 0.172733 0.000000 0.832022
O O8 0.000000 0.237385 0.924746
O O9 0.919827 0.000000 0.935843
O O10 0.902104 0.240489 0.000000
O O11 0.674741 0.500000 0.500000
O O12 0.750000 0.750000 0.500000
O O13 0.630517 0.743439 0.554820
O O14 0.081933 0.500000 0.402073
O O15 0.000000 0.737901 0.408877
#
# Coordination Sequence:
#
# PCOD9488178 Si02
#       5
#    16  16  16   8  16
#     4   9  18  34  55  76  99 133 179 223 259 301
#     4  10  20  32  48  73 104 136 169 210 261 314
#     4   8  14  27  49  74  97 126 170 219 259 299
#     4  12  25  40  59  83 113 147 181 218 263 314
#     4  10  21  38  60  85 112 141 176 219 265 314
#
# _framework density 18.415706
#
# number of rings (size 3 to 8) (size 9 to 14) (size 15 to 20)
#    0.000    2.444    0.000    3.333    0.000    7.556 
#    0.000    2.222    0.000    2.000    0.000    1.556 
#    0.000    0.000    0.000    0.000    0.000    0.000 
#
# Total GULP energy -200943.912416 kJ/mol
# GULP energy per Si atom -5581.775345 kJ/mol
# Density = 1.837379 g / cm^3
# Si number density = 18.415706 Si / 1000 Ang^3
#
#
#
# Elastic Constant Matrix: (Units=GPa)
#
#
# Indices 1 2 3 4 5 6 
#
# 1 155.7259 36.8465 149.0507 0.0000 0.0000 0.0000
# 2 36.8465 26.7984 45.7914 0.0000 0.0000 0.0000
# 3 149.0507 45.7914 195.9870 0.0000 0.0000 0.0000
# 4 0.0000 0.0000 0.0000 10.8021 0.0000 0.0000
# 5 0.0000 0.0000 0.0000 0.0000 -5.2202 0.0000
# 6 0.0000 0.0000 0.0000 0.0000 0.0000 29.8628
#
#
#
# Elastic Compliance Matrix: (Units=1/GPa)
#
#
# Indices 1 2 3 4 5 6 
#
# 1 0.023743 -0.002981 -0.017361 0.000000 0.000000 0.000000
# 2 -0.002981 0.062488 -0.012333 0.000000 0.000000 0.000000
# 3 -0.017361 -0.012333 0.021187 0.000000 0.000000 0.000000
# 4 0.000000 0.000000 0.000000 0.092574 0.000000 0.000000
# 5 0.000000 0.000000 0.000000 0.000000 -0.191563 0.000000
# 6 0.000000 0.000000 0.000000 0.000000 0.000000 0.033486
#
#
# Mechanical properties :
#
#
# Convention : Reuss Voigt Hill
#
# Bulk Modulus (GPa) = 23.77035 93.54316 58.65675
# Shear Modulus (GPa) = 41.22411 16.87713 29.05062
#
# Velocity S-wave (km/s) = 4.73644 3.03058 3.97607
# Velocity P-wave (km/s) = 6.54580 7.94679 7.28008
#
# Compressibility (1/GPa) = 0.04206921
#
# Stress axis : x y z
#
# Youngs Moduli (GPa) = 42.11704 16.00298 47.19928
#
# Poissons Ratio (x) = 0.04771 0.81941
# Poissons Ratio (y) = 0.12557 0.58209
# Poissons Ratio (z) = 0.73117 0.19736
#
# Static dielectric constant tensor:
#      x y z
#    x 1.608910 0.000000 0.000000 
#    y 0.000000 1.633550 0.000000 
#    z 0.000000 0.000000 1.620670 
# 
# From -- ./inp_files/70315.got.cif
#   From: 2010.05.17/outbox.cif.g08.bks.cpg/sg65_36_cif.got.tgz:70315.got - 2010.06.03 17:01:31.
