data_PCOD9488041
_publ_section_title
;
Structure prediction by ZEFSAII (Michael W. Deem and Ramdas Pophale) SiO2 
 PCOD9488041
Probable space group: C M M M
;
_chemical_formula_sum "Si O2"
_cell_formula_units_Z 96
_cell_length_a 8.990856
_cell_length_b 28.155976
_cell_length_c 23.967451
_cell_angle_alpha 90.000000
_cell_angle_beta 90.000000
_cell_angle_gamma 90.000000
_cell_volume 6067.272158
_symmetry_space_group_name_H-M "C M M M"
_symmetry_group_IT_number 65
_symmetry_cell_setting 'orthorhombic'
loop_
_space_group_symop_operation_xyz
x,y,z
-x,-y,z
x,-y,-z
-x,y,-z
-x,-y,-z
x,y,-z
-x,y,z
x,-y,z
1/2+x,1/2+y,z
1/2-x,1/2-y,z
1/2+x,1/2-y,-z
1/2-x,1/2+y,-z
1/2-x,1/2-y,-z
1/2+x,1/2+y,-z
1/2-x,1/2+y,z
1/2+x,1/2-y,z
loop_
_atom_site_type_symbol
_atom_site_label
_atom_site_fract_x
_atom_site_fract_y
_atom_site_fract_z
Si Si1 0.322353 0.944982 0.265351
Si Si2 0.822055 0.698517 0.223133
Si Si3 0.677191 0.300964 0.564379
Si Si4 0.323526 0.856579 0.661884
Si Si5 0.677088 0.610327 0.164362
Si Si6 0.677340 0.055298 0.065671
O O1 0.500000 0.939442 0.254018
O O2 0.287039 0.909325 0.316023
O O3 0.234451 0.926409 0.211604
O O4 0.292709 0.000000 0.276818
O O5 0.750000 0.750000 0.217009
O O6 0.791899 0.677826 0.285299
O O7 0.751996 0.660344 0.180818
O O8 0.000000 0.700387 0.216183
O O9 0.715761 0.312457 0.500000
O O10 0.500000 0.296631 0.568493
O O11 0.750000 0.250000 0.577660
O O12 0.736325 0.339104 0.608150
O O13 0.500000 0.854177 0.650837
O O14 0.500000 0.614318 0.166012
O O15 0.733467 0.590034 0.105672
O O16 0.500000 0.060980 0.075101
O O17 0.713585 0.000000 0.078064
O O18 0.705567 0.063193 0.000000
#
# Coordination Sequence:
#
# PCOD9488041 Si02
#       6
#    16  16  16  16  16  16
#     4   9  18  33  51  70  95 127 161 197 238 283
#     4  10  20  34  51  72  98 127 160 197 238 284
#     4  10  20  32  47  68  94 124 156 191 233 281
#     4   9  18  31  49  72  95 122 155 193 236 280
#     4  11  21  31  47  73 102 130 160 195 237 284
#     4   9  18  33  52  72  96 129 165 199 239 285
#
# _framework density 15.822597
#
# number of rings (size 3 to 8) (size 9 to 14) (size 15 to 20)
#    0.000    2.333    0.000    5.000    0.000    8.667 
#    0.000    0.833    0.000    1.000    0.000    3.500 
#    0.000    0.000    0.000    0.000    0.000    0.000 
#
# Total GULP energy -267832.232724 kJ/mol
# GULP energy per Si atom -5579.838182 kJ/mol
# Density = 1.578658 g / cm^3
# Si number density = 15.822597 Si / 1000 Ang^3
#
#
#
# Elastic Constant Matrix: (Units=GPa)
#
#
# Indices 1 2 3 4 5 6 
#
# 1 68.1645 65.1218 53.1188 0.0000 0.0000 0.0000
# 2 65.1218 138.6285 64.9544 0.0000 0.0000 0.0000
# 3 53.1188 64.9544 73.4669 0.0000 0.0000 0.0000
# 4 0.0000 0.0000 0.0000 20.9967 0.0000 0.0000
# 5 0.0000 0.0000 0.0000 0.0000 26.0228 0.0000
# 6 0.0000 0.0000 0.0000 0.0000 0.0000 25.9052
#
#
#
# Elastic Compliance Matrix: (Units=1/GPa)
#
#
# Indices 1 2 3 4 5 6 
#
# 1 0.038914 -0.008702 -0.020442 0.000000 0.000000 0.000000
# 2 -0.008702 0.014261 -0.006317 0.000000 0.000000 0.000000
# 3 -0.020442 -0.006317 0.033977 0.000000 0.000000 0.000000
# 4 0.000000 0.000000 0.000000 0.047627 0.000000 0.000000
# 5 0.000000 0.000000 0.000000 0.000000 0.038428 0.000000
# 6 0.000000 0.000000 0.000000 0.000000 0.000000 0.038602
#
#
# Mechanical properties :
#
#
# Convention : Reuss Voigt Hill
#
# Bulk Modulus (GPa) = 61.61540 71.84998 66.73269
# Shear Modulus (GPa) = 17.35257 21.05592 19.20424
#
# Velocity S-wave (km/s) = 3.31523 3.65190 3.48763
# Velocity P-wave (km/s) = 7.32668 7.95551 7.64756
#
# Compressibility (1/GPa) = 0.01622971
#
# Stress axis : x y z
#
# Youngs Moduli (GPa) = 25.69759 70.12070 29.43154
#
# Poissons Ratio (x) = 0.61018 0.60165
# Poissons Ratio (y) = 0.22362 0.18592
# Poissons Ratio (z) = 0.52532 0.44295
#
# Static dielectric constant tensor:
#      x y z
#    x 1.526220 0.000000 0.000000 
#    y 0.000000 1.515540 0.000000 
#    z 0.000000 0.000000 1.514680 
# 
# From -- ./inp_files/60202.got.cif
#   From: 2010.05.17/outbox.cif.g08.bks.cpg/sg65_31_cif.got.tgz:60202.got - 2010.06.03 17:01:31.
