data_PCOD9488643
_publ_section_title
;
Structure prediction by ZEFSAII (Michael W. Deem and Ramdas Pophale) SiO2 
 PCOD9488643
Probable space group: C M M M
;
_chemical_formula_sum "Si O2"
_cell_formula_units_Z 96
_cell_length_a 29.247265
_cell_length_b 7.918639
_cell_length_c 19.403304
_cell_angle_alpha 90.000000
_cell_angle_beta 90.000000
_cell_angle_gamma 90.000000
_cell_volume 4493.776747
_symmetry_space_group_name_H-M "C M M M"
_symmetry_group_IT_number 65
_symmetry_cell_setting 'orthorhombic'
loop_
_space_group_symop_operation_xyz
x,y,z
-x,-y,z
x,-y,-z
-x,y,-z
-x,-y,-z
x,y,-z
-x,y,z
x,-y,z
1/2+x,1/2+y,z
1/2-x,1/2-y,z
1/2+x,1/2-y,-z
1/2-x,1/2+y,-z
1/2-x,1/2-y,-z
1/2+x,1/2+y,-z
1/2-x,1/2+y,z
1/2+x,1/2-y,z
loop_
_atom_site_type_symbol
_atom_site_label
_atom_site_fract_x
_atom_site_fract_y
_atom_site_fract_z
Si Si1 0.373486 0.688681 0.319688
Si Si2 0.800926 0.693702 0.582040
Si Si3 0.053424 0.206229 0.422759
Si Si4 0.699764 0.197966 0.209241
Si Si5 0.649662 0.792215 0.920856
Si Si6 0.549020 0.800327 0.083494
O O1 0.385979 0.500000 0.297684
O O2 0.337451 0.688628 0.382433
O O3 0.417239 0.770103 0.357703
O O4 0.343085 0.766539 0.259108
O O5 0.804941 0.700969 0.500000
O O6 0.808481 0.500000 0.604589
O O7 0.750000 0.750000 0.600172
O O8 0.068991 0.261030 0.500000
O O9 0.000000 0.249066 0.416520
O O10 0.056831 0.000000 0.422136
O O11 0.750000 0.250000 0.234416
O O12 0.686807 0.269158 0.133922
O O13 0.702725 0.000000 0.201542
O O14 0.598896 0.734567 0.896309
O O15 0.648655 0.000000 0.921312
O O16 0.657239 0.740090 0.000000
O O17 0.500000 0.727729 0.107446
O O18 0.548488 0.000000 0.100738
O O19 0.549099 0.789833 0.000000
#
# Coordination Sequence:
#
# PCOD9488643 Si02
#       6
#    16  16  16  16  16  16
#     4  11  21  34  54  77 104 138 175 213 254 304
#     4  10  20  33  50  74 104 135 169 210 254 300
#     4   8  15  30  54  83 110 137 174 216 252 292
#     4  11  23  38  54  73 101 136 175 222 276 331
#     4   8  15  29  49  72  97 128 169 217 268 322
#     4   7   9  16  35  64  95 123 150 184 233 297
#
# _framework density 21.362877999999998
#
# number of rings (size 3 to 8) (size 9 to 14) (size 15 to 20)
#    0.000    2.833    0.000    4.500    0.000    2.000 
#    0.000    0.833    0.000    4.500    0.000    5.833 
#    0.000    0.000    0.000   20.833    0.000   13.333 
#
# Total GULP energy -267360.626176 kJ/mol
# GULP energy per Si atom -5570.013045 kJ/mol
# Density = 2.131426 g / cm^3
# Si number density = 21.362878 Si / 1000 Ang^3
#
#
#
# Elastic Constant Matrix: (Units=GPa)
#
#
# Indices 1 2 3 4 5 6 
#
# 1 80.9028 -1.3581 50.4846 0.0000 0.0000 0.0000
# 2 -1.3581 29.8285 8.1249 0.0000 0.0000 0.0000
# 3 50.4846 8.1249 88.2412 0.0000 0.0000 0.0000
# 4 0.0000 0.0000 0.0000 81.1238 0.0000 0.0000
# 5 0.0000 0.0000 0.0000 0.0000 44.9036 0.0000
# 6 0.0000 0.0000 0.0000 0.0000 0.0000 2.7269
#
#
#
# Elastic Compliance Matrix: (Units=1/GPa)
#
#
# Indices 1 2 3 4 5 6 
#
# 1 0.019693 0.004068 -0.011641 0.000000 0.000000 0.000000
# 2 0.004068 0.035228 -0.005571 0.000000 0.000000 0.000000
# 3 -0.011641 -0.005571 0.018506 0.000000 0.000000 0.000000
# 4 0.000000 0.000000 0.000000 0.012327 0.000000 0.000000
# 5 0.000000 0.000000 0.000000 0.000000 0.022270 0.000000
# 6 0.000000 0.000000 0.000000 0.000000 0.000000 0.366718
#
#
# Mechanical properties :
#
#
# Convention : Reuss Voigt Hill
#
# Bulk Modulus (GPa) = 21.21459 34.83060 28.02259
# Shear Modulus (GPa) = 9.67600 35.19894 22.43747
#
# Velocity S-wave (km/s) = 2.13054 4.06355 3.24435
# Velocity P-wave (km/s) = 4.00055 6.19324 5.21348
#
# Compressibility (1/GPa) = 0.04713738
#
# Stress axis : x y z
#
# Youngs Moduli (GPa) = 50.77895 28.38687 54.03714
#
# Poissons Ratio (x) = -0.11547 0.62907
# Poissons Ratio (y) = -0.20655 0.30103
# Poissons Ratio (z) = 0.59114 0.15814
#
# Static dielectric constant tensor:
#      x y z
#    x 1.844510 0.000000 0.000000 
#    y 0.000000 1.804230 0.000000 
#    z 0.000000 0.000000 1.787560 
# 
# From -- ./inp_files/65756.got.cif
#   From: 2010.05.17/outbox.cif.g08.bks.cpg/sg65_33_cif.got.tgz:65756.got - 2010.06.03 17:01:31.
