data_PCOD9488984
_publ_section_title
;
Structure prediction by ZEFSAII (Michael W. Deem and Ramdas Pophale) SiO2 
 PCOD9488984
Probable space group: C M M M
;
_chemical_formula_sum "Si O2"
_cell_formula_units_Z 120
_cell_length_a 28.550428
_cell_length_b 27.085449
_cell_length_c 9.022540
_cell_angle_alpha 90.000000
_cell_angle_beta 90.000000
_cell_angle_gamma 90.000000
_cell_volume 6977.140662
_symmetry_space_group_name_H-M "C M M M"
_symmetry_group_IT_number 65
_symmetry_cell_setting 'orthorhombic'
loop_
_space_group_symop_operation_xyz
x,y,z
-x,-y,z
x,-y,-z
-x,y,-z
-x,-y,-z
x,y,-z
-x,y,z
x,-y,z
1/2+x,1/2+y,z
1/2-x,1/2-y,z
1/2+x,1/2-y,-z
1/2-x,1/2+y,-z
1/2-x,1/2-y,-z
1/2+x,1/2+y,-z
1/2-x,1/2+y,z
1/2+x,1/2-y,z
loop_
_atom_site_type_symbol
_atom_site_label
_atom_site_fract_x
_atom_site_fract_y
_atom_site_fract_z
Si Si1 0.297081 0.440772 0.826597
Si Si2 0.804292 0.745051 0.677996
Si Si3 0.637685 0.853192 0.676567
Si Si4 0.053777 0.000000 0.319525
Si Si5 0.945894 0.297169 0.822145
Si Si6 0.310723 0.057115 0.178409
Si Si7 0.111376 0.801107 0.176635
Si Si8 0.111655 0.096596 0.676927
O O1 0.303234 0.500000 0.814156
O O2 0.243387 0.430274 0.784776
O O3 0.335264 0.414203 0.727236
O O4 0.303848 0.427702 0.000000
O O5 0.807483 0.752302 0.500000
O O6 0.750000 0.750000 0.721316
O O7 0.825269 0.690820 0.712267
O O8 0.838687 0.783648 0.757482
O O9 0.634728 0.856903 0.500000
O O10 0.588364 0.835658 0.743271
O O11 0.655552 0.903922 0.745815
O O12 0.080995 0.950548 0.273272
O O13 0.054062 0.000000 0.500000
O O14 0.000000 0.000000 0.270349
O O15 0.924999 0.242899 0.788666
O O16 0.000000 0.301257 0.778172
O O17 0.942728 0.303718 0.000000
O O18 0.319132 0.000000 0.221004
O O19 0.314710 0.059935 0.000000
O O20 0.096491 0.852490 0.248625
O O21 0.114861 0.805969 0.000000
O O22 0.108802 0.100488 0.500000
#
# Coordination Sequence:
#
# PCOD9488984 Si02
#       8
#    16  16  16   8  16  16  16  16
#     4   9  18  33  52  74 103 139 179 222 264 309
#     4   9  19  35  51  73 108 145 178 215 262 318
#     4  10  20  33  53  83 114 143 176 220 268 314
#     4   9  20  38  55  73  99 135 181 229 278 333
#     4   9  19  38  61  80 103 139 180 221 267 324
#     4   9  19  35  54  78 110 149 185 216 256 311
#     4  10  21  35  52  78 106 135 176 224 270 319
#     4  11  21  34  53  75 102 138 179 225 275 328
#
# _framework density 17.199023
#
# number of rings (size 3 to 8) (size 9 to 14) (size 15 to 20)
#    0.000    2.467    0.667    2.000    1.867    2.933 
#    0.000    1.333    0.000    3.200    0.000    2.800 
#    0.000    0.000    0.000    0.000    0.000    0.000 
#
# Total GULP energy -334812.618367 kJ/mol
# GULP energy per Si atom -5580.210306 kJ/mol
# Density = 1.715988 g / cm^3
# Si number density = 17.199023 Si / 1000 Ang^3
#
#
#
# Elastic Constant Matrix: (Units=GPa)
#
#
# Indices 1 2 3 4 5 6 
#
# 1 136.6154 74.1250 44.5731 0.0000 0.0000 0.0000
# 2 74.1250 118.6102 44.6022 0.0000 0.0000 0.0000
# 3 44.5731 44.6022 33.2459 0.0000 0.0000 0.0000
# 4 0.0000 0.0000 0.0000 29.1671 0.0000 0.0000
# 5 0.0000 0.0000 0.0000 0.0000 23.2752 0.0000
# 6 0.0000 0.0000 0.0000 0.0000 0.0000 12.7484
#
#
#
# Elastic Compliance Matrix: (Units=1/GPa)
#
#
# Indices 1 2 3 4 5 6 
#
# 1 0.013631 -0.003323 -0.013817 0.000000 0.000000 0.000000
# 2 -0.003323 0.017825 -0.019459 0.000000 0.000000 0.000000
# 3 -0.013817 -0.019459 0.074709 0.000000 0.000000 0.000000
# 4 0.000000 0.000000 0.000000 0.034285 0.000000 0.000000
# 5 0.000000 0.000000 0.000000 0.000000 0.042964 0.000000
# 6 0.000000 0.000000 0.000000 0.000000 0.000000 0.078441
#
#
# Mechanical properties :
#
#
# Convention : Reuss Voigt Hill
#
# Bulk Modulus (GPa) = 30.33281 68.34136 49.33708
# Shear Modulus (GPa) = 14.44914 21.38288 17.91601
#
# Velocity S-wave (km/s) = 2.90162 3.52982 3.23102
# Velocity P-wave (km/s) = 5.37592 7.51230 6.53204
#
# Compressibility (1/GPa) = 0.03296760
#
# Stress axis : x y z
#
# Youngs Moduli (GPa) = 73.36351 56.10208 13.38523
#
# Poissons Ratio (x) = 0.18641 0.18495
# Poissons Ratio (y) = 0.24376 0.26046
# Poissons Ratio (z) = 1.01369 1.09167
#
# Static dielectric constant tensor:
#      x y z
#    x 1.563800 0.000000 0.000000 
#    y 0.000000 1.575820 0.000000 
#    z 0.000000 0.000000 1.571150 
# 
# From -- ./inp_files/17047.got.cif
#   From: 2010.05.17/outbox.cif.g08.bks.cpg/sg65_9_cif.got.tgz:17047.got - 2010.06.03 17:01:31.
