data_PCOD9488198
_publ_section_title
;
Structure prediction by ZEFSAII (Michael W. Deem and Ramdas Pophale) SiO2 
 PCOD9488198
Probable space group: C M M M
;
_chemical_formula_sum "Si O2"
_cell_formula_units_Z 96
_cell_length_a 17.142251
_cell_length_b 24.248804
_cell_length_c 12.542863
_cell_angle_alpha 90.000000
_cell_angle_beta 90.000000
_cell_angle_gamma 90.000000
_cell_volume 5213.805810
_symmetry_space_group_name_H-M "C M M M"
_symmetry_group_IT_number 65
_symmetry_cell_setting 'orthorhombic'
loop_
_space_group_symop_operation_xyz
x,y,z
-x,-y,z
x,-y,-z
-x,y,-z
-x,-y,-z
x,y,-z
-x,y,z
x,-y,z
1/2+x,1/2+y,z
1/2-x,1/2-y,z
1/2+x,1/2-y,-z
1/2-x,1/2+y,-z
1/2-x,1/2-y,-z
1/2+x,1/2+y,-z
1/2-x,1/2+y,z
1/2+x,1/2-y,z
loop_
_atom_site_type_symbol
_atom_site_label
_atom_site_fract_x
_atom_site_fract_y
_atom_site_fract_z
Si Si1 0.296290 0.438570 0.773126
Si Si2 0.748542 0.169100 0.121375
Si Si3 0.411789 0.831332 0.246338
Si Si4 0.643421 0.063209 0.627248
Si Si5 0.591784 0.386430 0.617034
Si Si6 0.170324 0.773808 0.321259
O O1 0.295694 0.500000 0.815588
O O2 0.278409 0.393031 0.860924
O O3 0.228240 0.433639 0.683148
O O4 0.374653 0.423976 0.710386
O O5 0.658348 0.168467 0.160039
O O6 0.800449 0.204555 0.204376
O O7 0.756416 0.186481 0.000000
O O8 0.500000 0.828205 0.204859
O O9 0.403005 0.886749 0.317475
O O10 0.390550 0.776097 0.312616
O O11 0.647835 0.071104 0.500000
O O12 0.614184 0.000000 0.646087
O O13 0.607185 0.410837 0.500000
O O14 0.500000 0.377638 0.628488
O O15 0.635102 0.327591 0.624839
O O16 0.250000 0.750000 0.371251
#
# Coordination Sequence:
#
# PCOD9488198 Si02
#       6
#    16  16  16  16  16  16
#     4   9  18  33  53  75  99 130 169 208 243 290
#     4   9  19  36  55  74  97 127 165 209 254 296
#     4  10  20  32  49  76 105 131 163 204 251 300
#     4   9  18  33  52  73 100 136 174 207 238 280
#     4  10  20  32  48  74 107 137 163 199 250 298
#     4   9  19  34  52  72  98 133 172 209 242 287
#
# _framework density 18.412654
#
# number of rings (size 3 to 8) (size 9 to 14) (size 15 to 20)
#    0.000    2.667    0.000    2.000    0.000    6.667 
#    0.000    1.667    0.000   12.000    0.000    9.333 
#    0.000    0.000    0.000    0.000    0.000    0.000 
#
# Total GULP energy -267520.036754 kJ/mol
# GULP energy per Si atom -5573.334099 kJ/mol
# Density = 1.837075 g / cm^3
# Si number density = 18.412654 Si / 1000 Ang^3
#
#
#
# Elastic Constant Matrix: (Units=GPa)
#
#
# Indices 1 2 3 4 5 6 
#
# 1 71.2169 14.5470 14.9968 0.0000 0.0000 0.0000
# 2 14.5470 103.7600 11.3844 0.0000 0.0000 0.0000
# 3 14.9968 11.3844 68.4889 0.0000 0.0000 0.0000
# 4 0.0000 0.0000 0.0000 1.6862 0.0000 0.0000
# 5 0.0000 0.0000 0.0000 0.0000 9.8497 0.0000
# 6 0.0000 0.0000 0.0000 0.0000 0.0000 16.6729
#
#
#
# Elastic Compliance Matrix: (Units=1/GPa)
#
#
# Indices 1 2 3 4 5 6 
#
# 1 0.015036 -0.001779 -0.002997 0.000000 0.000000 0.000000
# 2 -0.001779 0.010027 -0.001277 0.000000 0.000000 0.000000
# 3 -0.002997 -0.001277 0.015469 0.000000 0.000000 0.000000
# 4 0.000000 0.000000 0.000000 0.593051 0.000000 0.000000
# 5 0.000000 0.000000 0.000000 0.000000 0.101526 0.000000
# 6 0.000000 0.000000 0.000000 0.000000 0.000000 0.059977
#
#
# Mechanical properties :
#
#
# Convention : Reuss Voigt Hill
#
# Bulk Modulus (GPa) = 35.17839 36.14692 35.66266
# Shear Modulus (GPa) = 6.12244 19.14428 12.63336
#
# Velocity S-wave (km/s) = 1.82547 3.22799 2.62224
# Velocity P-wave (km/s) = 4.85697 5.79374 5.34591
#
# Compressibility (1/GPa) = 0.02842654
#
# Stress axis : x y z
#
# Youngs Moduli (GPa) = 66.50667 99.72873 64.64394
#
# Poissons Ratio (x) = 0.17744 0.19372
# Poissons Ratio (y) = 0.11833 0.08256
# Poissons Ratio (z) = 0.19930 0.12737
#
# Static dielectric constant tensor:
#      x y z
#    x 1.622640 0.000000 0.000000 
#    y 0.000000 1.659660 0.000000 
#    z 0.000000 0.000000 1.609190 
# 
# From -- ./inp_files/27113.got.cif
#   From: 2010.05.17/outbox.cif.g08.bks.cpg/sg65_14_cif.got.tgz:27113.got - 2010.06.03 17:01:31.
