data_PCOD9488600
_publ_section_title
;
Structure prediction by ZEFSAII (Michael W. Deem and Ramdas Pophale) SiO2 
 PCOD9488600
Probable space group: C M M M
;
_chemical_formula_sum "Si O2"
_cell_formula_units_Z 96
_cell_length_a 21.629352
_cell_length_b 25.761028
_cell_length_c 7.848470
_cell_angle_alpha 90.000000
_cell_angle_beta 90.000000
_cell_angle_gamma 90.000000
_cell_volume 4373.123081
_symmetry_space_group_name_H-M "C M M M"
_symmetry_group_IT_number 65
_symmetry_cell_setting 'orthorhombic'
loop_
_space_group_symop_operation_xyz
x,y,z
-x,-y,z
x,-y,-z
-x,y,-z
-x,-y,-z
x,y,-z
-x,y,z
x,-y,z
1/2+x,1/2+y,z
1/2-x,1/2-y,z
1/2+x,1/2-y,-z
1/2-x,1/2+y,-z
1/2-x,1/2-y,-z
1/2+x,1/2+y,-z
1/2-x,1/2+y,z
1/2+x,1/2-y,z
loop_
_atom_site_type_symbol
_atom_site_label
_atom_site_fract_x
_atom_site_fract_y
_atom_site_fract_z
Si Si1 0.073141 0.441993 0.297748
Si Si2 0.770947 0.942934 0.304885
Si Si3 0.322319 0.748503 0.792647
Si Si4 0.407137 0.442935 0.195751
Si Si5 0.431446 0.671751 0.208680
Si Si6 0.329551 0.862985 0.193735
O O1 0.087591 0.438536 0.500000
O O2 0.089774 0.500000 0.240358
O O3 0.110478 0.398420 0.202762
O O4 0.000000 0.436153 0.278734
O O5 0.791956 0.943143 0.500000
O O6 0.832628 0.938765 0.196006
O O7 0.723940 0.896124 0.282055
O O8 0.741921 0.000000 0.270085
O O9 0.250000 0.750000 0.739211
O O10 0.371534 0.705013 0.733306
O O11 0.344470 0.805885 0.740422
O O12 0.322118 0.743852 0.000000
O O13 0.422348 0.500000 0.271422
O O14 0.428569 0.388073 0.270228
O O15 0.428507 0.444124 0.000000
O O16 0.500000 0.693017 0.252917
O O17 0.428451 0.670604 0.000000
O O18 0.307916 0.856333 0.000000
#
# Coordination Sequence:
#
# PCOD9488600 Si02
#       6
#    16  16  16  16  16  16
#     4   9  19  36  54  71  98 138 175 205 250 317
#     4  10  20  33  50  73 103 138 171 203 249 313
#     4   9  18  32  49  71 102 139 175 211 257 313
#     4   9  17  30  51  79 106 130 162 207 253 296
#     4   9  17  30  50  76 106 138 170 209 260 314
#     4  11  21  31  50  78 101 126 169 222 265 301
#
# _framework density 21.952273999999999
#
# number of rings (size 3 to 8) (size 9 to 14) (size 15 to 20)
#    0.000    2.500    0.000    3.000    0.000    7.333 
#    0.000    4.167    0.000    9.500    0.000    2.333 
#    0.000    0.000    0.000    0.000    0.000    0.000 
#
# Total GULP energy -267712.770617 kJ/mol
# GULP energy per Si atom -5577.349388 kJ/mol
# Density = 2.190231 g / cm^3
# Si number density = 21.952274 Si / 1000 Ang^3
#
#
#
# Elastic Constant Matrix: (Units=GPa)
#
#
# Indices 1 2 3 4 5 6 
#
# 1 110.2282 77.3139 12.5405 0.0000 0.0000 0.0000
# 2 77.3139 166.6344 10.4784 0.0000 0.0000 0.0000
# 3 12.5405 10.4784 29.2589 0.0000 0.0000 0.0000
# 4 0.0000 0.0000 0.0000 40.7174 0.0000 0.0000
# 5 0.0000 0.0000 0.0000 0.0000 13.1132 0.0000
# 6 0.0000 0.0000 0.0000 0.0000 0.0000 37.4241
#
#
#
# Elastic Compliance Matrix: (Units=1/GPa)
#
#
# Indices 1 2 3 4 5 6 
#
# 1 0.013832 -0.006184 -0.003714 0.000000 0.000000 0.000000
# 2 -0.006184 0.008904 -0.000538 0.000000 0.000000 0.000000
# 3 -0.003714 -0.000538 0.035962 0.000000 0.000000 0.000000
# 4 0.000000 0.000000 0.000000 0.024560 0.000000 0.000000
# 5 0.000000 0.000000 0.000000 0.000000 0.076259 0.000000
# 6 0.000000 0.000000 0.000000 0.000000 0.000000 0.026721
#
#
# Mechanical properties :
#
#
# Convention : Reuss Voigt Hill
#
# Bulk Modulus (GPa) = 26.43684 56.30970 41.37327
# Shear Modulus (GPa) = 22.75628 31.97019 27.36323
#
# Velocity S-wave (km/s) = 3.22316 3.82035 3.53439
# Velocity P-wave (km/s) = 5.09124 6.72062 5.96186
#
# Compressibility (1/GPa) = 0.03782601
#
# Stress axis : x y z
#
# Youngs Moduli (GPa) = 72.29491 112.30481 27.80703
#
# Poissons Ratio (x) = 0.69452 0.10327
# Poissons Ratio (y) = 0.44709 0.01497
# Poissons Ratio (z) = 0.26849 0.06045
#
# Static dielectric constant tensor:
#      x y z
#    x 1.790540 0.000000 0.000000 
#    y 0.000000 1.829160 0.000000 
#    z 0.000000 0.000000 1.827120 
# 
# From -- ./inp_files/12241.got.cif
#   From: 2010.05.17/outbox.cif.g08.bks.cpg/sg65_7_cif.got.tgz:12241.got - 2010.06.03 17:01:31.
