data_PCOD9488813
_publ_section_title
;
Structure prediction by ZEFSAII (Michael W. Deem and Ramdas Pophale) SiO2 
 PCOD9488813
Probable space group: C M M M
;
_chemical_formula_sum "Si O2"
_cell_formula_units_Z 104
_cell_length_a 8.991399
_cell_length_b 15.135278
_cell_length_c 34.999328
_cell_angle_alpha 90.000000
_cell_angle_beta 90.000000
_cell_angle_gamma 90.000000
_cell_volume 4762.964871
_symmetry_space_group_name_H-M "C M M M"
_symmetry_group_IT_number 65
_symmetry_cell_setting 'orthorhombic'
loop_
_space_group_symop_operation_xyz
x,y,z
-x,-y,z
x,-y,-z
-x,y,-z
-x,-y,-z
x,y,-z
-x,y,z
x,-y,z
1/2+x,1/2+y,z
1/2-x,1/2-y,z
1/2+x,1/2-y,-z
1/2-x,1/2+y,-z
1/2-x,1/2-y,-z
1/2+x,1/2+y,-z
1/2-x,1/2+y,z
1/2+x,1/2-y,z
loop_
_atom_site_type_symbol
_atom_site_label
_atom_site_fract_x
_atom_site_fract_y
_atom_site_fract_z
Si Si1 0.834148 0.104380 0.653981
Si Si2 0.829215 0.391594 0.578138
Si Si3 0.172952 0.108003 0.957676
Si Si4 0.664896 0.895446 0.882547
Si Si5 0.177205 0.846984 0.806236
Si Si6 0.322368 0.847233 0.269109
Si Si7 0.670659 0.391950 0.500000
O O1 0.760160 0.139805 0.615363
O O2 0.730216 0.113606 0.690807
O O3 0.000000 0.141835 0.661095
O O4 0.850151 0.000000 0.647670
O O5 0.828878 0.500000 0.578445
O O6 0.753271 0.364127 0.538590
O O7 0.000000 0.363246 0.579937
O O8 0.268047 0.140845 0.921927
O O9 0.000000 0.133129 0.953324
O O10 0.175875 0.000000 0.957203
O O11 0.225544 0.135080 0.000000
O O12 0.500000 0.858448 0.874005
O O13 0.773534 0.885730 0.846677
O O14 0.649711 0.000000 0.888427
O O15 0.250000 0.750000 0.807366
O O16 0.250935 0.891077 0.768742
O O17 0.000000 0.844461 0.802047
O O18 0.500000 0.844885 0.265751
O O19 0.250000 0.750000 0.270060
O O20 0.670682 0.500000 0.500000
O O21 0.500000 0.362861 0.500000
#
# Coordination Sequence:
#
# PCOD9488813 Si02
#       7
#    16  16  16  16  16  16   8
#     4  10  20  34  52  76 106 137 170 210 257 305
#     4   9  16  26  41  64  95 130 167 207 252 300
#     4   8  14  26  45  70 101 136 172 209 250 296
#     4  10  20  33  51  78 109 138 172 213 254 298
#     4  11  22  38  58  77 101 133 170 210 255 307
#     4  11  22  38  58  78 102 132 170 211 253 305
#     4   9  15  23  37  59  90 129 168 205 248 299
#
# _framework density 21.835138000000001
#
# number of rings (size 3 to 8) (size 9 to 14) (size 15 to 20)
#    0.000    2.231    0.000    5.769    0.000    5.538 
#    0.000    1.538    0.000    0.462    0.000    0.538 
#    0.000    0.000    0.000    0.000    0.000    0.000 
#
# Total GULP energy -290371.931013 kJ/mol
# GULP energy per Si atom -5584.075596 kJ/mol
# Density = 2.178544 g / cm^3
# Si number density = 21.835138 Si / 1000 Ang^3
#
#
#
# Elastic Constant Matrix: (Units=GPa)
#
#
# Indices 1 2 3 4 5 6 
#
# 1 214.5142 9.1339 109.8724 0.0000 0.0000 0.0000
# 2 9.1339 30.0017 7.0396 0.0000 0.0000 0.0000
# 3 109.8724 7.0396 206.1130 0.0000 0.0000 0.0000
# 4 0.0000 0.0000 0.0000 -17.1046 0.0000 0.0000
# 5 0.0000 0.0000 0.0000 0.0000 -33.8645 0.0000
# 6 0.0000 0.0000 0.0000 0.0000 0.0000 13.4400
#
#
#
# Elastic Compliance Matrix: (Units=1/GPa)
#
#
# Indices 1 2 3 4 5 6 
#
# 1 0.006453 -0.001167 -0.003400 0.000000 0.000000 0.000000
# 2 -0.001167 0.033812 -0.000533 0.000000 0.000000 0.000000
# 3 -0.003400 -0.000533 0.006682 0.000000 0.000000 0.000000
# 4 0.000000 0.000000 0.000000 -0.058464 0.000000 0.000000
# 5 0.000000 0.000000 0.000000 0.000000 -0.029529 0.000000
# 6 0.000000 0.000000 0.000000 0.000000 0.000000 0.074405
#
#
# Mechanical properties :
#
#
# Convention : Reuss Voigt Hill
#
# Bulk Modulus (GPa) = 27.21257 78.08007 52.64632
# Shear Modulus (GPa) = 89.59518 14.13304 51.86411
#
# Velocity S-wave (km/s) = 6.41262 2.54689 4.87895
# Velocity P-wave (km/s) = 8.20479 6.66974 7.47677
#
# Compressibility (1/GPa) = 0.03674773
#
# Stress axis : x y z
#
# Youngs Moduli (GPa) = 154.97156 29.57556 149.64890
#
# Poissons Ratio (x) = 0.03451 0.50880
# Poissons Ratio (y) = 0.18081 0.07974
# Poissons Ratio (z) = 0.52689 0.01576
#
# Static dielectric constant tensor:
#      x y z
#    x 1.768910 0.000000 0.000000 
#    y 0.000000 1.881630 0.000000 
#    z 0.000000 0.000000 1.816370 
# 
# From -- ./inp_files/76863.got.cif
#   From: 2010.05.17/outbox.cif.g08.bks.cpg/sg65_39_cif.got.tgz:76863.got - 2010.06.03 17:01:31.
