data_PCOD9488190
_publ_section_title
;
Structure prediction by ZEFSAII (Michael W. Deem and Ramdas Pophale) SiO2 
 PCOD9488190
Probable space group: C M M M
;
_chemical_formula_sum "Si O2"
_cell_formula_units_Z 104
_cell_length_a 9.431855
_cell_length_b 15.089262
_cell_length_c 35.019804
_cell_angle_alpha 90.000000
_cell_angle_beta 90.000000
_cell_angle_gamma 90.000000
_cell_volume 4984.009093
_symmetry_space_group_name_H-M "C M M M"
_symmetry_group_IT_number 65
_symmetry_cell_setting 'orthorhombic'
loop_
_space_group_symop_operation_xyz
x,y,z
-x,-y,z
x,-y,-z
-x,y,-z
-x,-y,-z
x,y,-z
-x,y,z
x,-y,z
1/2+x,1/2+y,z
1/2-x,1/2-y,z
1/2+x,1/2-y,-z
1/2-x,1/2+y,-z
1/2-x,1/2-y,-z
1/2+x,1/2+y,-z
1/2-x,1/2+y,z
1/2+x,1/2-y,z
loop_
_atom_site_type_symbol
_atom_site_label
_atom_site_fract_x
_atom_site_fract_y
_atom_site_fract_z
Si Si1 0.840839 0.104440 0.645201
Si Si2 0.838727 0.391281 0.574235
Si Si3 0.163578 0.108404 0.957052
Si Si4 0.658219 0.895578 0.885885
Si Si5 0.170313 0.844227 0.812425
Si Si6 0.169418 0.842649 0.270583
Si Si7 0.662028 0.391652 0.500000
O O1 0.732746 0.139362 0.613710
O O2 0.794266 0.112681 0.689224
O O3 0.000000 0.142754 0.641212
O O4 0.852483 0.000000 0.637393
O O5 0.842006 0.500000 0.574229
O O6 0.744815 0.364403 0.538061
O O7 0.000000 0.360798 0.570723
O O8 0.264958 0.141401 0.923479
O O9 0.000000 0.134866 0.950563
O O10 0.164465 0.000000 0.956383
O O11 0.206291 0.134721 0.000000
O O12 0.500000 0.857921 0.879390
O O13 0.758379 0.887570 0.849108
O O14 0.642668 0.000000 0.892777
O O15 0.250000 0.750000 0.810651
O O16 0.198742 0.887203 0.770605
O O17 0.000000 0.836976 0.816969
O O18 0.250000 0.750000 0.270891
O O19 0.000000 0.828694 0.270924
O O20 0.659789 0.500000 0.500000
O O21 0.500000 0.361141 0.500000
#
# Coordination Sequence:
#
# PCOD9488190 Si02
#       7
#    16  16  16  16  16  16   8
#     4   9  17  30  47  68  95 124 155 192 234 279
#     4   9  16  25  38  60  90 121 153 190 232 275
#     4   8  14  26  45  69  97 129 164 200 238 282
#     4  10  20  32  48  74 105 133 164 203 244 287
#     4  10  20  35  54  73  96 128 165 204 247 295
#     4   9  19  34  52  72  93 122 159 198 238 284
#     4   9  15  23  37  57  84 121 158 189 226 273
#
# _framework density 20.866734999999998
#
# number of rings (size 3 to 8) (size 9 to 14) (size 15 to 20)
#    0.000    2.846    0.000    2.077    0.000    5.846 
#    0.000    3.077    0.000    2.308    0.000    0.538 
#    0.000    0.000    0.000    0.000    0.000    0.000 
#
# Total GULP energy -289885.285730 kJ/mol
# GULP energy per Si atom -5574.717033 kJ/mol
# Density = 2.081924 g / cm^3
# Si number density = 20.866735 Si / 1000 Ang^3
#
#
#
# Elastic Constant Matrix: (Units=GPa)
#
#
# Indices 1 2 3 4 5 6 
#
# 1 143.1358 9.3048 124.3854 0.0000 0.0000 0.0000
# 2 9.3048 23.4773 4.4183 0.0000 0.0000 0.0000
# 3 124.3854 4.4183 204.3506 0.0000 0.0000 0.0000
# 4 0.0000 0.0000 0.0000 69.1984 0.0000 0.0000
# 5 0.0000 0.0000 0.0000 0.0000 38.7020 0.0000
# 6 0.0000 0.0000 0.0000 0.0000 0.0000 12.0049
#
#
#
# Elastic Compliance Matrix: (Units=1/GPa)
#
#
# Indices 1 2 3 4 5 6 
#
# 1 0.015255 -0.004316 -0.009192 0.000000 0.000000 0.000000
# 2 -0.004316 0.043990 0.001676 0.000000 0.000000 0.000000
# 3 -0.009192 0.001676 0.010452 0.000000 0.000000 0.000000
# 4 0.000000 0.000000 0.000000 0.014451 0.000000 0.000000
# 5 0.000000 0.000000 0.000000 0.000000 0.025838 0.000000
# 6 0.000000 0.000000 0.000000 0.000000 0.000000 0.083299
#
#
# Mechanical properties :
#
#
# Convention : Reuss Voigt Hill
#
# Bulk Modulus (GPa) = 21.72378 71.90898 46.81638
# Shear Modulus (GPa) = 21.52442 39.50474 30.51458
#
# Velocity S-wave (km/s) = 3.21521 4.35580 3.82822
# Velocity P-wave (km/s) = 4.92105 7.73519 6.48267
#
# Compressibility (1/GPa) = 0.04603250
#
# Stress axis : x y z
#
# Youngs Moduli (GPa) = 65.55238 22.73267 95.67119
#
# Poissons Ratio (x) = 0.09812 0.87943
# Poissons Ratio (y) = 0.28293 -0.16035
# Poissons Ratio (z) = 0.60257 -0.03810
#
# Static dielectric constant tensor:
#      x y z
#    x 1.732340 0.000000 0.000000 
#    y 0.000000 1.761050 0.000000 
#    z 0.000000 0.000000 1.766770 
# 
# From -- ./inp_files/75770.got.cif
#   From: 2010.05.17/outbox.cif.g08.bks.cpg/sg65_38_cif.got.tgz:75770.got - 2010.06.03 17:01:31.
