data_PCOD9488325
_publ_section_title
;
Structure prediction by ZEFSAII (Michael W. Deem and Ramdas Pophale) SiO2 
 PCOD9488325
Probable space group: C M M M
;
_chemical_formula_sum "Si O2"
_cell_formula_units_Z 72
_cell_length_a 18.132310
_cell_length_b 19.488646
_cell_length_c 12.307534
_cell_angle_alpha 90.000000
_cell_angle_beta 90.000000
_cell_angle_gamma 90.000000
_cell_volume 4349.164621
_symmetry_space_group_name_H-M "C M M M"
_symmetry_group_IT_number 65
_symmetry_cell_setting 'orthorhombic'
loop_
_space_group_symop_operation_xyz
x,y,z
-x,-y,z
x,-y,-z
-x,y,-z
-x,-y,-z
x,y,-z
-x,y,z
x,-y,z
1/2+x,1/2+y,z
1/2-x,1/2-y,z
1/2+x,1/2-y,-z
1/2-x,1/2+y,-z
1/2-x,1/2-y,-z
1/2+x,1/2+y,-z
1/2-x,1/2+y,z
1/2+x,1/2-y,z
loop_
_atom_site_type_symbol
_atom_site_label
_atom_site_fract_x
_atom_site_fract_y
_atom_site_fract_z
Si Si1 0.581575 0.645032 0.000000
Si Si2 0.709973 0.675439 0.375949
Si Si3 0.413574 0.000000 0.132320
Si Si4 0.766529 0.918386 0.000000
Si Si5 0.678447 0.871478 0.793771
Si Si6 0.086667 0.769597 0.222394
O O1 0.646387 0.590696 0.000000
O O2 0.588857 0.692053 0.106862
O O3 0.500000 0.614157 0.000000
O O4 0.697822 0.653737 0.500000
O O5 0.750000 0.750000 0.377732
O O6 0.767667 0.628229 0.310218
O O7 0.634207 0.686908 0.309640
O O8 0.376419 0.065641 0.187365
O O9 0.500000 0.000000 0.151719
O O10 0.404238 0.000000 0.000000
O O11 0.732463 0.879249 0.103169
O O12 0.749557 0.000000 0.000000
O O13 0.629892 0.802405 0.790744
O O14 0.000000 0.760456 0.251786
#
# Coordination Sequence:
#
# PCOD9488325 Si02
#       6
#     8  16   8   8  16  16
#     4  10  21  34  51  80 109 133 175 226 279 330
#     4   9  19  34  54  76  99 134 183 229 269 313
#     4  11  22  34  51  81 119 152 182 215 264 328
#     4  12  21  34  55  79 106 150 185 216 266 326
#     4  11  19  34  53  77 110 145 181 222 265 320
#     4  10  20  32  52  80 110 139 172 220 279 329
#
# _framework density 16.554904000000001
#
# number of rings (size 3 to 8) (size 9 to 14) (size 15 to 20)
#    0.000    1.667    4.444    1.333    0.000    1.556 
#    0.000    0.556    0.000    2.667    0.000    0.000 
#    0.000    5.333    0.000    0.000    0.000    0.000 
#
# Total GULP energy -200623.252091 kJ/mol
# GULP energy per Si atom -5572.868114 kJ/mol
# Density = 1.651722 g / cm^3
# Si number density = 16.554904 Si / 1000 Ang^3
#
#
#
# Elastic Constant Matrix: (Units=GPa)
#
#
# Indices 1 2 3 4 5 6 
#
# 1 171.4452 46.7453 69.9799 0.0000 0.0000 0.0000
# 2 46.7453 47.9376 31.9298 0.0000 0.0000 0.0000
# 3 69.9799 31.9298 138.8149 0.0000 0.0000 0.0000
# 4 0.0000 0.0000 0.0000 226.3600 0.0000 0.0000
# 5 0.0000 0.0000 0.0000 0.0000 12.5517 0.0000
# 6 0.0000 0.0000 0.0000 0.0000 0.0000 9.3247
#
#
#
# Elastic Compliance Matrix: (Units=1/GPa)
#
#
# Indices 1 2 3 4 5 6 
#
# 1 0.008848 -0.006680 -0.002924 0.000000 0.000000 0.000000
# 2 -0.006680 0.029678 -0.003459 0.000000 0.000000 0.000000
# 3 -0.002924 -0.003459 0.009473 0.000000 0.000000 0.000000
# 4 0.000000 0.000000 0.000000 0.004418 0.000000 0.000000
# 5 0.000000 0.000000 0.000000 0.000000 0.079670 0.000000
# 6 0.000000 0.000000 0.000000 0.000000 0.000000 0.107242
#
#
# Mechanical properties :
#
#
# Convention : Reuss Voigt Hill
#
# Bulk Modulus (GPa) = 45.71699 72.83422 59.27560
# Shear Modulus (GPa) = 18.33212 63.61681 40.97446
#
# Velocity S-wave (km/s) = 3.33130 6.20574 4.98040
# Velocity P-wave (km/s) = 6.51706 9.76931 8.30396
#
# Compressibility (1/GPa) = 0.02187371
#
# Stress axis : x y z
#
# Youngs Moduli (GPa) = 113.02625 33.69473 105.55911
#
# Poissons Ratio (x) = 0.22508 0.30862
# Poissons Ratio (y) = 0.75502 0.36512
# Poissons Ratio (z) = 0.33046 0.11655
#
# Static dielectric constant tensor:
#      x y z
#    x 1.569360 0.000000 0.000000 
#    y 0.000000 1.552860 0.000000 
#    z 0.000000 0.000000 1.551470 
# 
# From -- ./inp_files/26380.got.cif
#   From: 2010.05.17/outbox.cif.g08.bks.cpg/sg65_14_cif.got.tgz:26380.got - 2010.06.03 17:01:31.
