data_PCOD9488973
_publ_section_title
;
Structure prediction by ZEFSAII (Michael W. Deem and Ramdas Pophale) SiO2 
 PCOD9488973
Probable space group: C M M M
;
_chemical_formula_sum "Si O2"
_cell_formula_units_Z 88
_cell_length_a 25.309329
_cell_length_b 21.423066
_cell_length_c 9.150726
_cell_angle_alpha 90.000000
_cell_angle_beta 90.000000
_cell_angle_gamma 90.000000
_cell_volume 4961.554984
_symmetry_space_group_name_H-M "C M M M"
_symmetry_group_IT_number 65
_symmetry_cell_setting 'orthorhombic'
loop_
_space_group_symop_operation_xyz
x,y,z
-x,-y,z
x,-y,-z
-x,y,-z
-x,-y,-z
x,y,-z
-x,y,z
x,-y,z
1/2+x,1/2+y,z
1/2-x,1/2-y,z
1/2+x,1/2-y,-z
1/2-x,1/2+y,-z
1/2-x,1/2-y,-z
1/2+x,1/2+y,-z
1/2-x,1/2+y,z
1/2+x,1/2-y,z
loop_
_atom_site_type_symbol
_atom_site_label
_atom_site_fract_x
_atom_site_fract_y
_atom_site_fract_z
Si Si1 0.188120 0.185193 0.826083
Si Si2 0.000000 0.740586 0.327866
Si Si3 0.916124 0.848604 0.327943
Si Si4 0.500000 0.426350 0.835926
Si Si5 0.000000 0.609106 0.175059
Si Si6 0.691605 0.166301 0.825527
Si Si7 0.609640 0.927781 0.674024
O O1 0.141915 0.154336 0.735756
O O2 0.246179 0.158820 0.789810
O O3 0.183629 0.259728 0.797852
O O4 0.180777 0.177058 0.000000
O O5 0.051095 0.784291 0.302118
O O6 0.000000 0.681633 0.223100
O O7 0.000000 0.721820 0.500000
O O8 0.916297 0.858796 0.500000
O O9 0.949379 0.901316 0.248173
O O10 0.500000 0.500000 0.841283
O O11 0.500000 0.400291 0.000000
O O12 0.053308 0.581137 0.245734
O O13 0.000000 0.601781 0.000000
O O14 0.651928 0.121295 0.739355
O O15 0.684542 0.156197 0.000000
O O16 0.603138 0.916952 0.500000
O O17 0.626720 0.000000 0.694903
#
# Coordination Sequence:
#
# PCOD9488973 Si02
#       7
#    16   8  16   8   8  16  16
#     4   9  18  34  56  83 112 139 172 216 265 314
#     4   9  19  34  51  78 114 144 172 213 266 316
#     4  10  20  33  53  81 110 141 176 215 262 316
#     4  10  21  37  56  76 101 138 180 221 269 319
#     4  12  24  36  56  82 105 137 180 220 261 312
#     4   9  19  36  58  82 108 140 177 218 262 309
#     4  11  24  40  56  76 106 142 178 219 266 313
#
# _framework density 17.736374999999999
#
# number of rings (size 3 to 8) (size 9 to 14) (size 15 to 20)
#    0.000    2.091    0.000    5.182    0.000    9.818 
#    0.000    2.727    0.000    1.091    0.000    0.000 
#    0.000    0.000    0.000    0.000    0.000    0.000 
#
# Total GULP energy -245584.597171 kJ/mol
# GULP energy per Si atom -5581.468118 kJ/mol
# Density = 1.769601 g / cm^3
# Si number density = 17.736375 Si / 1000 Ang^3
#
#
#
# Elastic Constant Matrix: (Units=GPa)
#
#
# Indices 1 2 3 4 5 6 
#
# 1 135.5133 49.9914 80.5559 0.0000 0.0000 0.0000
# 2 49.9914 69.2157 58.2997 0.0000 0.0000 0.0000
# 3 80.5559 58.2997 92.3866 0.0000 0.0000 0.0000
# 4 0.0000 0.0000 0.0000 27.7485 0.0000 0.0000
# 5 0.0000 0.0000 0.0000 0.0000 42.9596 0.0000
# 6 0.0000 0.0000 0.0000 0.0000 0.0000 -12.3530
#
#
#
# Elastic Compliance Matrix: (Units=1/GPa)
#
#
# Indices 1 2 3 4 5 6 
#
# 1 0.015325 0.000398 -0.013614 0.000000 0.000000 0.000000
# 2 0.000398 0.030850 -0.019815 0.000000 0.000000 0.000000
# 3 -0.013614 -0.019815 0.035199 0.000000 0.000000 0.000000
# 4 0.000000 0.000000 0.000000 0.036038 0.000000 0.000000
# 5 0.000000 0.000000 0.000000 0.000000 0.023278 0.000000
# 6 0.000000 0.000000 0.000000 0.000000 0.000000 -0.080952
#
#
# Mechanical properties :
#
#
# Convention : Reuss Voigt Hill
#
# Bulk Modulus (GPa) = 65.30563 74.97883 70.14223
# Shear Modulus (GPa) = 38.19646 18.88893 28.54270
#
# Velocity S-wave (km/s) = 4.64569 3.26695 4.01593
# Velocity P-wave (km/s) = 8.10411 7.52306 7.81899
#
# Compressibility (1/GPa) = 0.01531262
#
# Stress axis : x y z
#
# Youngs Moduli (GPa) = 65.25127 32.41538 28.41021
#
# Poissons Ratio (x) = -0.01291 0.38678
# Poissons Ratio (y) = -0.02599 0.56294
# Poissons Ratio (z) = 0.88834 0.64230
#
# Static dielectric constant tensor:
#      x y z
#    x 1.838810 0.000000 0.000000 
#    y 0.000000 1.603170 0.000000 
#    z 0.000000 0.000000 1.591120 
# 
# From -- ./inp_files/14077.got.cif
#   From: 2010.05.17/outbox.cif.g08.bks.cpg/sg65_8_cif.got.tgz:14077.got - 2010.06.03 17:01:31.
