data_PCOD9488162
_publ_section_title
;
Structure prediction by ZEFSAII (Michael W. Deem and Ramdas Pophale) SiO2 
 PCOD9488162
Probable space group: C M M M
;
_chemical_formula_sum "Si O2"
_cell_formula_units_Z 88
_cell_length_a 20.087909
_cell_length_b 8.719786
_cell_length_c 29.484030
_cell_angle_alpha 90.000000
_cell_angle_beta 90.000000
_cell_angle_gamma 90.000000
_cell_volume 5164.489555
_symmetry_space_group_name_H-M "C M M M"
_symmetry_group_IT_number 65
_symmetry_cell_setting 'orthorhombic'
loop_
_space_group_symop_operation_xyz
x,y,z
-x,-y,z
x,-y,-z
-x,y,-z
-x,-y,-z
x,y,-z
-x,y,z
x,-y,z
1/2+x,1/2+y,z
1/2-x,1/2-y,z
1/2+x,1/2-y,-z
1/2-x,1/2+y,-z
1/2-x,1/2-y,-z
1/2+x,1/2+y,-z
1/2-x,1/2+y,z
1/2+x,1/2-y,z
loop_
_atom_site_type_symbol
_atom_site_label
_atom_site_fract_x
_atom_site_fract_y
_atom_site_fract_z
Si Si1 0.576939 0.687857 0.598986
Si Si2 0.422388 0.182851 0.855112
Si Si3 0.323000 0.685068 0.677327
Si Si4 0.580592 0.319621 0.950312
Si Si5 0.919003 0.822573 0.500000
Si Si6 0.323308 0.316300 0.218958
O O1 0.500000 0.732784 0.605977
O O2 0.577551 0.500000 0.597516
O O3 0.623993 0.737047 0.639908
O O4 0.600036 0.743572 0.549020
O O5 0.500000 0.231995 0.850482
O O6 0.397881 0.232706 0.905172
O O7 0.376907 0.255583 0.816524
O O8 0.420250 0.000000 0.851731
O O9 0.320352 0.500000 0.675928
O O10 0.250000 0.750000 0.667431
O O11 0.340530 0.729162 0.729089
O O12 0.500000 0.307794 0.951183
O O13 0.596671 0.500000 0.946267
O O14 0.604334 0.264780 0.000000
O O15 0.000000 0.824262 0.500000
O O16 0.896704 0.000000 0.500000
O O17 0.320565 0.500000 0.216841
O O18 0.250000 0.250000 0.209125
#
# Coordination Sequence:
#
# PCOD9488162 Si02
#       6
#    16  16  16  16   8  16
#     4   8  13  23  41  65  90 116 150 189 226 265
#     4  10  20  32  48  73 102 128 157 196 237 278
#     4   9  18  31  47  66  89 118 150 188 231 277
#     4   8  14  26  45  69  97 128 160 193 230 273
#     4   7  10  18  35  60  89 117 144 181 226 266
#     4  10  20  34  51  68  90 124 162 198 240 289
#
# _framework density 17.039439000000002
#
# number of rings (size 3 to 8) (size 9 to 14) (size 15 to 20)
#    0.000    3.182    0.000    2.727    0.000    2.909 
#    0.000    4.091    0.000    1.091    0.000    0.000 
#    0.000    2.182    0.000    0.000    0.000    0.000 
#
# Total GULP energy -244939.735592 kJ/mol
# GULP energy per Si atom -5566.812173 kJ/mol
# Density = 1.700066 g / cm^3
# Si number density = 17.039439 Si / 1000 Ang^3
#
#
#
# Elastic Constant Matrix: (Units=GPa)
#
#
# Indices 1 2 3 4 5 6 
#
# 1 71.3030 23.3357 97.7203 0.0000 0.0000 0.0000
# 2 23.3357 18.2543 39.4965 0.0000 0.0000 0.0000
# 3 97.7203 39.4965 183.5684 0.0000 0.0000 0.0000
# 4 0.0000 0.0000 0.0000 10.4804 0.0000 0.0000
# 5 0.0000 0.0000 0.0000 0.0000 -11.1319 0.0000
# 6 0.0000 0.0000 0.0000 0.0000 0.0000 20.2707
#
#
#
# Elastic Compliance Matrix: (Units=1/GPa)
#
#
# Indices 1 2 3 4 5 6 
#
# 1 0.053374 -0.012639 -0.025693 0.000000 0.000000 0.000000
# 2 -0.012639 0.105491 -0.015969 0.000000 0.000000 0.000000
# 3 -0.025693 -0.015969 0.022561 0.000000 0.000000 0.000000
# 4 0.000000 0.000000 0.000000 0.095417 0.000000 0.000000
# 5 0.000000 0.000000 0.000000 0.000000 -0.089832 0.000000
# 6 0.000000 0.000000 0.000000 0.000000 0.000000 0.049332
#
#
# Mechanical properties :
#
#
# Convention : Reuss Voigt Hill
#
# Bulk Modulus (GPa) = 13.73198 66.02564 39.87881
# Shear Modulus (GPa) = 13.54205 11.42871 12.48538
#
# Velocity S-wave (km/s) = 2.82218 2.59264 2.70984
# Velocity P-wave (km/s) = 4.32389 6.91341 5.76590
#
# Compressibility (1/GPa) = 0.07282272
#
# Stress axis : x y z
#
# Youngs Moduli (GPa) = 18.73585 9.47946 44.32421
#
# Poissons Ratio (x) = 0.11981 1.13884
# Poissons Ratio (y) = 0.23680 0.70783
# Poissons Ratio (z) = 0.48139 0.15138
#
# Static dielectric constant tensor:
#      x y z
#    x 1.545670 0.000000 0.000000 
#    y 0.000000 1.569700 0.000000 
#    z 0.000000 0.000000 1.609880 
# 
# From -- ./inp_files/67565.got.cif
#   From: 2010.05.17/outbox.cif.g08.bks.cpg/sg65_34_cif.got.tgz:67565.got - 2010.06.03 17:01:31.
