data_PCOD9488674
_publ_section_title
;
Structure prediction by ZEFSAII (Michael W. Deem and Ramdas Pophale) SiO2 
 PCOD9488674
Probable space group: C M M M
;
_chemical_formula_sum "Si O2"
_cell_formula_units_Z 58
_cell_length_a 27.690212
_cell_length_b 7.972230
_cell_length_c 14.549007
_cell_angle_alpha 90.000000
_cell_angle_beta 90.000000
_cell_angle_gamma 90.000000
_cell_volume 3211.733142
_symmetry_space_group_name_H-M "C M M M"
_symmetry_group_IT_number 65
_symmetry_cell_setting 'orthorhombic'
loop_
_space_group_symop_operation_xyz
x,y,z
-x,-y,z
x,-y,-z
-x,y,-z
-x,-y,-z
x,y,-z
-x,y,z
x,-y,z
1/2+x,1/2+y,z
1/2-x,1/2-y,z
1/2+x,1/2-y,-z
1/2-x,1/2+y,-z
1/2-x,1/2-y,-z
1/2+x,1/2+y,-z
1/2-x,1/2+y,z
1/2+x,1/2-y,z
loop_
_atom_site_type_symbol
_atom_site_label
_atom_site_fract_x
_atom_site_fract_y
_atom_site_fract_z
Si Si1 0.303889 0.306346 0.890351
Si Si2 0.804236 0.799148 0.606843
Si Si3 0.553166 0.500000 0.805690
Si Si4 0.500000 0.500000 0.000000
Si Si5 0.619397 0.185675 0.755940
O O1 0.310994 0.500000 0.861837
O O2 0.250000 0.250000 0.865868
O O3 0.343518 0.196079 0.840974
O O4 0.308236 0.296134 0.000000
O O5 0.808644 0.747506 0.500000
O O6 0.750000 0.750000 0.637460
O O7 0.846177 0.720910 0.668578
O O8 0.808218 0.000000 0.612286
O O9 0.500000 0.500000 0.762033
O O10 0.541718 0.500000 0.916071
O O11 0.581837 0.334853 0.774182
O O12 0.597631 0.000000 0.749921
#
# Coordination Sequence:
#
# PCOD9488674 Si02
#       5
#    16  16   8   2  16
#     4  10  20  33  50  77 118 156 195 240 290 360
#     4  10  20  36  59  91 132 172 210 254 302 365
#     4  10  24  46  65  90 118 155 206 270 316 373
#     4   8  24  48  74  84 126 154 212 276 334 360
#     4  12  23  37  62  88 119 160 202 252 311 373
#
# _framework density 18.058785
#
# number of rings (size 3 to 8) (size 9 to 14) (size 15 to 20)
#    0.414    1.103    2.759    2.483    1.931    3.862 
#    0.000    0.690    0.000    1.655    0.000    1.931 
#    0.000    0.000    0.000    0.000    0.000    0.000 
#
# Total GULP energy -161624.581712 kJ/mol
# GULP energy per Si atom -5573.261438 kJ/mol
# Density = 1.801768 g / cm^3
# Si number density = 18.058785 Si / 1000 Ang^3
#
#
#
# Elastic Constant Matrix: (Units=GPa)
#
#
# Indices 1 2 3 4 5 6 
#
# 1 114.1801 58.9139 40.1246 0.0000 0.0000 0.0000
# 2 58.9139 136.1103 38.2931 0.0000 0.0000 0.0000
# 3 40.1246 38.2931 77.8115 0.0000 0.0000 0.0000
# 4 0.0000 0.0000 0.0000 51.4399 0.0000 0.0000
# 5 0.0000 0.0000 0.0000 0.0000 34.5916 0.0000
# 6 0.0000 0.0000 0.0000 0.0000 0.0000 20.4954
#
#
#
# Elastic Compliance Matrix: (Units=1/GPa)
#
#
# Indices 1 2 3 4 5 6 
#
# 1 0.012437 -0.004154 -0.004369 0.000000 0.000000 0.000000
# 2 -0.004154 0.009915 -0.002737 0.000000 0.000000 0.000000
# 3 -0.004369 -0.002737 0.016452 0.000000 0.000000 0.000000
# 4 0.000000 0.000000 0.000000 0.019440 0.000000 0.000000
# 5 0.000000 0.000000 0.000000 0.000000 0.028909 0.000000
# 6 0.000000 0.000000 0.000000 0.000000 0.000000 0.048791
#
#
# Mechanical properties :
#
#
# Convention : Reuss Voigt Hill
#
# Bulk Modulus (GPa) = 61.41425 66.97390 64.19408
# Shear Modulus (GPa) = 30.50789 34.02340 32.26564
#
# Velocity S-wave (km/s) = 4.11465 4.34526 4.23152
# Velocity P-wave (km/s) = 7.52699 7.89570 7.71355
#
# Compressibility (1/GPa) = 0.01628287
#
# Stress axis : x y z
#
# Youngs Moduli (GPa) = 80.40705 100.85594 60.78423
#
# Poissons Ratio (x) = 0.41895 0.26556
# Poissons Ratio (y) = 0.33401 0.16639
# Poissons Ratio (z) = 0.35129 0.27609
#
# Static dielectric constant tensor:
#      x y z
#    x 1.594630 0.000000 0.000000 
#    y 0.000000 1.720620 0.000000 
#    z 0.000000 0.000000 1.633310 
# 
# From -- ./inp_files/45027.got.cif
#   From: 2010.05.17/outbox.cif.g08.bks.cpg/sg65_23_cif.got.tgz:45027.got - 2010.06.03 17:01:31.
