data_PCOD9488164
_publ_section_title
;
Structure prediction by ZEFSAII (Michael W. Deem and Ramdas Pophale) SiO2 
 PCOD9488164
Probable space group: C M M M
;
_chemical_formula_sum "Si O2"
_cell_formula_units_Z 104
_cell_length_a 8.051363
_cell_length_b 28.298002
_cell_length_c 24.607794
_cell_angle_alpha 90.000000
_cell_angle_beta 90.000000
_cell_angle_gamma 90.000000
_cell_volume 5606.577928
_symmetry_space_group_name_H-M "C M M M"
_symmetry_group_IT_number 65
_symmetry_cell_setting 'orthorhombic'
loop_
_space_group_symop_operation_xyz
x,y,z
-x,-y,z
x,-y,-z
-x,y,-z
-x,-y,-z
x,y,-z
-x,y,z
x,-y,z
1/2+x,1/2+y,z
1/2-x,1/2-y,z
1/2+x,1/2-y,-z
1/2-x,1/2+y,-z
1/2-x,1/2-y,-z
1/2+x,1/2+y,-z
1/2-x,1/2+y,z
1/2+x,1/2-y,z
loop_
_atom_site_type_symbol
_atom_site_label
_atom_site_fract_x
_atom_site_fract_y
_atom_site_fract_z
Si Si1 0.799352 0.054786 0.938978
Si Si2 0.197721 0.399953 0.828555
Si Si3 0.196638 0.052004 0.722598
Si Si4 0.801871 0.847865 0.324354
Si Si5 0.500000 0.947992 0.565025
Si Si6 0.193284 0.698044 0.781686
Si Si7 0.194891 0.120786 0.437052
O O1 0.732897 0.086112 0.890125
O O2 0.000000 0.056041 0.937472
O O3 0.749022 0.000000 0.930854
O O4 0.747149 0.068956 0.000000
O O5 0.277041 0.436941 0.786290
O O6 0.265657 0.347913 0.812429
O O7 0.000000 0.401292 0.818882
O O8 0.260478 0.099356 0.692673
O O9 0.000000 0.050500 0.711105
O O10 0.265841 0.000000 0.709040
O O11 0.723930 0.811558 0.282256
O O12 0.775021 0.841859 0.388672
O O13 0.000000 0.846521 0.314881
O O14 0.500000 0.952723 0.500000
O O15 0.329692 0.919728 0.575210
O O16 0.500000 0.000000 0.589881
O O17 0.250000 0.750000 0.797322
O O18 0.000000 0.696625 0.792475
O O19 0.218001 0.135914 0.500000
O O20 0.000000 0.105622 0.431859
#
# Coordination Sequence:
#
# PCOD9488164 Si02
#       7
#    16  16  16  16   8  16  16
#     4   9  18  32  50  74 105 142 180 210 238 281
#     4  10  20  32  48  73 102 130 163 207 255 299
#     4   9  17  29  45  66  95 132 169 202 241 294
#     4   9  18  32  51  73  99 129 165 208 255 307
#     4   9  18  30  44  66  96 132 176 218 253 297
#     4  10  21  36  55  77 101 127 162 208 259 313
#     4   9  18  32  50  71  97 133 174 215 263 316
#
# _framework density 18.549641000000001
#
# number of rings (size 3 to 8) (size 9 to 14) (size 15 to 20)
#    0.000    2.692    0.000    1.846    1.077    5.538 
#    0.000    3.846    0.000    0.923    0.000    0.000 
#    0.000    0.000    0.000    0.000    0.000    0.000 
#
# Total GULP energy -289615.561892 kJ/mol
# GULP energy per Si atom -5569.530036 kJ/mol
# Density = 1.850742 g / cm^3
# Si number density = 18.549641 Si / 1000 Ang^3
#
#
#
# Elastic Constant Matrix: (Units=GPa)
#
#
# Indices 1 2 3 4 5 6 
#
# 1 21.5208 4.6580 0.5351 0.0000 0.0000 0.0000
# 2 4.6580 60.7465 18.8073 0.0000 0.0000 0.0000
# 3 0.5351 18.8073 93.3559 0.0000 0.0000 0.0000
# 4 0.0000 0.0000 0.0000 9.9974 0.0000 0.0000
# 5 0.0000 0.0000 0.0000 0.0000 15.0286 0.0000
# 6 0.0000 0.0000 0.0000 0.0000 0.0000 27.1241
#
#
#
# Elastic Compliance Matrix: (Units=1/GPa)
#
#
# Indices 1 2 3 4 5 6 
#
# 1 0.047272 -0.003776 0.000490 0.000000 0.000000 0.000000
# 2 -0.003776 0.017859 -0.003576 0.000000 0.000000 0.000000
# 3 0.000490 -0.003576 0.011429 0.000000 0.000000 0.000000
# 4 0.000000 0.000000 0.000000 0.100026 0.000000 0.000000
# 5 0.000000 0.000000 0.000000 0.000000 0.066540 0.000000
# 6 0.000000 0.000000 0.000000 0.000000 0.000000 0.036868
#
#
# Mechanical properties :
#
#
# Convention : Reuss Voigt Hill
#
# Bulk Modulus (GPa) = 15.91483 24.84711 20.38097
# Shear Modulus (GPa) = 15.88998 20.53820 18.21409
#
# Velocity S-wave (km/s) = 2.92998 3.33107 3.13694
# Velocity P-wave (km/s) = 4.47712 5.31213 4.91240
#
# Compressibility (1/GPa) = 0.06283446
#
# Stress axis : x y z
#
# Youngs Moduli (GPa) = 21.15419 55.99544 87.49417
#
# Poissons Ratio (x) = 0.21146 -0.04286
# Poissons Ratio (y) = 0.07989 0.31289
# Poissons Ratio (z) = -0.01036 0.20025
#
# Static dielectric constant tensor:
#      x y z
#    x 1.672400 0.000000 0.000000 
#    y 0.000000 1.652820 0.000000 
#    z 0.000000 0.000000 1.654410 
# 
# From -- ./inp_files/68527.got.cif
#   From: 2010.05.17/outbox.cif.g08.bks.cpg/sg65_35_cif.got.tgz:68527.got - 2010.06.03 17:01:31.
