data_PCOD9488357
_publ_section_title
;
Structure prediction by ZEFSAII (Michael W. Deem and Ramdas Pophale) SiO2 
 PCOD9488357
Probable space group: C M M M
;
_chemical_formula_sum "Si O2"
_cell_formula_units_Z 88
_cell_length_a 27.418520
_cell_length_b 20.770049
_cell_length_c 8.952399
_cell_angle_alpha 90.000000
_cell_angle_beta 90.000000
_cell_angle_gamma 90.000000
_cell_volume 5098.248027
_symmetry_space_group_name_H-M "C M M M"
_symmetry_group_IT_number 65
_symmetry_cell_setting 'orthorhombic'
loop_
_space_group_symop_operation_xyz
x,y,z
-x,-y,z
x,-y,-z
-x,y,-z
-x,-y,-z
x,y,-z
-x,y,z
x,-y,z
1/2+x,1/2+y,z
1/2-x,1/2-y,z
1/2+x,1/2-y,-z
1/2-x,1/2+y,-z
1/2-x,1/2-y,-z
1/2+x,1/2+y,-z
1/2-x,1/2+y,z
1/2+x,1/2-y,z
loop_
_atom_site_type_symbol
_atom_site_label
_atom_site_fract_x
_atom_site_fract_y
_atom_site_fract_z
Si Si1 0.786283 0.366007 0.323120
Si Si2 0.212256 0.500000 0.827864
Si Si3 0.169351 0.866452 0.676596
Si Si4 0.440605 0.000000 0.827913
Si Si5 0.858103 0.265425 0.820792
Si Si6 0.555996 0.859838 0.182382
Si Si7 0.330840 0.500000 0.172042
O O1 0.795658 0.364592 0.500000
O O2 0.802660 0.434367 0.253822
O O3 0.727979 0.360414 0.300687
O O4 0.813735 0.307947 0.242775
O O5 0.271488 0.500000 0.825885
O O6 0.196283 0.500000 0.000000
O O7 0.160522 0.865754 0.500000
O O8 0.144680 0.805776 0.754936
O O9 0.153861 0.934687 0.745886
O O10 0.427165 0.930662 0.761911
O O11 0.500000 0.000000 0.831669
O O12 0.423520 0.000000 0.000000
O O13 0.906904 0.304025 0.775545
O O14 0.855412 0.263299 0.000000
O O15 0.500000 0.848752 0.228463
O O16 0.555868 0.863435 0.000000
O O17 0.346323 0.500000 0.000000
#
# Coordination Sequence:
#
# PCOD9488357 Si02
#       7
#    16   8  16   8  16  16   8
#     4  10  20  33  47  65  95 133 166 197 237 286
#     4   9  17  30  48  69  93 124 163 204 239 274
#     4  10  20  34  50  68  95 131 164 193 234 289
#     4   7  10  21  42  63  86 119 155 190 229 274
#     4  11  21  30  46  72  98 126 162 204 244 281
#     4   8  15  28  45  67  95 125 159 201 247 290
#     4   9  17  31  52  74  94 118 155 201 239 277
#
# _framework density 17.260832000000001
#
# number of rings (size 3 to 8) (size 9 to 14) (size 15 to 20)
#    0.000    2.636    0.000    3.818    0.000    7.273 
#    0.000    1.818    0.000    2.182    0.000    0.636 
#    0.000   15.273    0.000    0.000    0.000    0.000 
#
# Total GULP energy -245431.067154 kJ/mol
# GULP energy per Si atom -5577.978799 kJ/mol
# Density = 1.722155 g / cm^3
# Si number density = 17.260832 Si / 1000 Ang^3
#
#
#
# Elastic Constant Matrix: (Units=GPa)
#
#
# Indices 1 2 3 4 5 6 
#
# 1 45.0447 53.7508 37.5883 0.0000 0.0000 0.0000
# 2 53.7508 197.2008 72.1135 0.0000 0.0000 0.0000
# 3 37.5883 72.1135 67.4977 0.0000 0.0000 0.0000
# 4 0.0000 0.0000 0.0000 27.0383 0.0000 0.0000
# 5 0.0000 0.0000 0.0000 0.0000 6.4297 0.0000
# 6 0.0000 0.0000 0.0000 0.0000 0.0000 114.8960
#
#
#
# Elastic Compliance Matrix: (Units=1/GPa)
#
#
# Indices 1 2 3 4 5 6 
#
# 1 0.044297 -0.005011 -0.019315 0.000000 0.000000 0.000000
# 2 -0.005011 0.008889 -0.006707 0.000000 0.000000 0.000000
# 3 -0.019315 -0.006707 0.032737 0.000000 0.000000 0.000000
# 4 0.000000 0.000000 0.000000 0.036985 0.000000 0.000000
# 5 0.000000 0.000000 0.000000 0.000000 0.155528 0.000000
# 6 0.000000 0.000000 0.000000 0.000000 0.000000 0.008704
#
#
# Mechanical properties :
#
#
# Convention : Reuss Voigt Hill
#
# Bulk Modulus (GPa) = 41.91393 70.73871 56.32632
# Shear Modulus (GPa) = 13.99948 39.42552 26.71250
#
# Velocity S-wave (km/s) = 2.85099 4.78441 3.93820
# Velocity P-wave (km/s) = 5.93068 8.46121 7.30633
#
# Compressibility (1/GPa) = 0.02385842
#
# Stress axis : x y z
#
# Youngs Moduli (GPa) = 22.57491 112.49411 30.54669
#
# Poissons Ratio (x) = 0.56369 0.59000
# Poissons Ratio (y) = 0.11312 0.20487
# Poissons Ratio (z) = 0.43603 0.75447
#
# Static dielectric constant tensor:
#      x y z
#    x 1.586380 0.000000 0.000000 
#    y 0.000000 1.585600 0.000000 
#    z 0.000000 0.000000 1.575590 
# 
# From -- ./inp_files/10202.got.cif
#   From: 2010.05.17/outbox.cif.g08.bks.cpg/sg65_6_cif.got.tgz:10202.got - 2010.06.03 17:01:31.
