data_PCOD9488801
_publ_section_title
;
Structure prediction by ZEFSAII (Michael W. Deem and Ramdas Pophale) SiO2 
 PCOD9488801
Probable space group: C M M M
;
_chemical_formula_sum "Si O2"
_cell_formula_units_Z 88
_cell_length_a 19.581611
_cell_length_b 26.719148
_cell_length_c 8.354728
_cell_angle_alpha 90.000000
_cell_angle_beta 90.000000
_cell_angle_gamma 90.000000
_cell_volume 4371.226794
_symmetry_space_group_name_H-M "C M M M"
_symmetry_group_IT_number 65
_symmetry_cell_setting 'orthorhombic'
loop_
_space_group_symop_operation_xyz
x,y,z
-x,-y,z
x,-y,-z
-x,y,-z
-x,-y,-z
x,y,-z
-x,y,z
x,-y,z
1/2+x,1/2+y,z
1/2-x,1/2-y,z
1/2+x,1/2-y,-z
1/2-x,1/2+y,-z
1/2-x,1/2-y,-z
1/2+x,1/2+y,-z
1/2-x,1/2+y,z
1/2+x,1/2-y,z
loop_
_atom_site_type_symbol
_atom_site_label
_atom_site_fract_x
_atom_site_fract_y
_atom_site_fract_z
Si Si1 0.579733 0.938692 0.000000
Si Si2 0.577550 0.764700 0.688603
Si Si3 0.157679 0.441406 0.317130
Si Si4 0.785686 0.303798 0.817228
Si Si5 0.795220 0.893902 0.317428
Si Si6 0.922844 0.845859 0.813796
O O1 0.615563 0.920818 0.834840
O O2 0.500000 0.925730 0.000000
O O3 0.584851 0.000000 0.000000
O O4 0.582333 0.774782 0.500000
O O5 0.500000 0.774774 0.743000
O O6 0.635339 0.795540 0.778298
O O7 0.590045 0.705366 0.717082
O O8 0.146547 0.420844 0.500000
O O9 0.140976 0.500000 0.326753
O O10 0.237962 0.434841 0.277453
O O11 0.750000 0.250000 0.800006
O O12 0.748521 0.343062 0.704387
O O13 0.775826 0.320793 0.000000
O O14 0.815920 0.900936 0.500000
O O15 0.863990 0.885889 0.218774
O O16 0.000000 0.863115 0.776891
O O17 0.920215 0.831464 0.000000
#
# Coordination Sequence:
#
# PCOD9488801 Si02
#       6
#     8  16  16  16  16  16
#     4   9  18  34  60  90 114 145 187 227 277 337
#     4  10  20  34  52  73 101 138 179 224 270 318
#     4   9  20  38  59  87 118 147 184 231 281 331
#     4  11  22  34  51  76 105 140 179 222 268 320
#     4  11  22  35  57  82 106 142 182 225 273 325
#     4  10  20  33  51  77 108 141 180 225 271 321
#
# _framework density 20.131647000000001
#
# number of rings (size 3 to 8) (size 9 to 14) (size 15 to 20)
#    0.000    1.909    1.818    2.182    2.545    3.273 
#    0.000    2.727    0.000    1.636    0.000    3.818 
#    0.000    0.000    0.000    0.000    0.000    0.000 
#
# Total GULP energy -245546.737301 kJ/mol
# GULP energy per Si atom -5580.607666 kJ/mol
# Density = 2.008583 g / cm^3
# Si number density = 20.131647 Si / 1000 Ang^3
#
#
#
# Elastic Constant Matrix: (Units=GPa)
#
#
# Indices 1 2 3 4 5 6 
#
# 1 117.5194 5.5606 43.8419 0.0000 0.0000 0.0000
# 2 5.5606 13.4217 15.8274 0.0000 0.0000 0.0000
# 3 43.8419 15.8274 62.1061 0.0000 0.0000 0.0000
# 4 0.0000 0.0000 0.0000 6.1712 0.0000 0.0000
# 5 0.0000 0.0000 0.0000 0.0000 27.0982 0.0000
# 6 0.0000 0.0000 0.0000 0.0000 0.0000 20.6206
#
#
#
# Elastic Compliance Matrix: (Units=1/GPa)
#
#
# Indices 1 2 3 4 5 6 
#
# 1 0.012017 0.007184 -0.010314 0.000000 0.000000 0.000000
# 2 0.007184 0.110811 -0.033311 0.000000 0.000000 0.000000
# 3 -0.010314 -0.033311 0.031871 0.000000 0.000000 0.000000
# 4 0.000000 0.000000 0.000000 0.162043 0.000000 0.000000
# 5 0.000000 0.000000 0.000000 0.000000 0.036903 0.000000
# 6 0.000000 0.000000 0.000000 0.000000 0.000000 0.048495
#
#
# Mechanical properties :
#
#
# Convention : Reuss Voigt Hill
#
# Bulk Modulus (GPa) = 12.22225 35.94523 24.08374
# Shear Modulus (GPa) = 9.95431 19.29915 14.62673
#
# Velocity S-wave (km/s) = 2.22606 3.09956 2.69839
# Velocity P-wave (km/s) = 3.56251 5.54108 4.65806
#
# Compressibility (1/GPa) = 0.08181798
#
# Stress axis : x y z
#
# Youngs Moduli (GPa) = 83.21560 9.02434 31.37624
#
# Poissons Ratio (x) = -0.06483 0.32361
# Poissons Ratio (y) = -0.59780 1.04517
# Poissons Ratio (z) = 0.85827 0.30061
#
# Static dielectric constant tensor:
#      x y z
#    x 1.720610 0.000000 0.000000 
#    y 0.000000 1.718160 0.000000 
#    z 0.000000 0.000000 1.704980 
# 
# From -- ./inp_files/10077.got.cif
#   From: 2010.05.17/outbox.cif.g08.bks.cpg/sg65_6_cif.got.tgz:10077.got - 2010.06.03 17:01:31.
