data_PCOD9488712
_publ_section_title
;
Structure prediction by ZEFSAII (Michael W. Deem and Ramdas Pophale) SiO2 
 PCOD9488712
Probable space group: C M M M
;
_chemical_formula_sum "Si O2"
_cell_formula_units_Z 88
_cell_length_a 18.728543
_cell_length_b 7.550352
_cell_length_c 30.185374
_cell_angle_alpha 90.000000
_cell_angle_beta 90.000000
_cell_angle_gamma 90.000000
_cell_volume 4268.425961
_symmetry_space_group_name_H-M "C M M M"
_symmetry_group_IT_number 65
_symmetry_cell_setting 'orthorhombic'
loop_
_space_group_symop_operation_xyz
x,y,z
-x,-y,z
x,-y,-z
-x,y,-z
-x,-y,-z
x,y,-z
-x,y,z
x,-y,z
1/2+x,1/2+y,z
1/2-x,1/2-y,z
1/2+x,1/2-y,-z
1/2-x,1/2+y,-z
1/2-x,1/2-y,-z
1/2+x,1/2+y,-z
1/2-x,1/2+y,z
1/2+x,1/2-y,z
loop_
_atom_site_type_symbol
_atom_site_label
_atom_site_fract_x
_atom_site_fract_y
_atom_site_fract_z
Si Si1 0.335101 0.712565 0.047637
Si Si2 0.333759 0.212465 0.587356
Si Si3 0.834140 0.212854 0.856228
Si Si4 0.582696 0.783105 0.500000
Si Si5 0.918171 0.712146 0.327197
Si Si6 0.418587 0.287361 0.771067
O O1 0.344602 0.500000 0.047428
O O2 0.250000 0.750000 0.047709
O O3 0.360937 0.779323 0.095558
O O4 0.362985 0.780068 0.000000
O O5 0.250000 0.250000 0.585026
O O6 0.375938 0.276822 0.544011
O O7 0.369884 0.279960 0.632642
O O8 0.341510 0.000000 0.587503
O O9 0.750000 0.250000 0.852776
O O10 0.874338 0.281233 0.812868
O O11 0.842524 0.000000 0.856979
O O12 0.500000 0.729103 0.500000
O O13 0.583295 0.000000 0.500000
O O14 0.921985 0.500000 0.331458
O O15 0.889443 0.748708 0.277937
O O16 0.000000 0.780178 0.329892
O O17 0.500000 0.220102 0.772407
O O18 0.421071 0.500000 0.774795
#
# Coordination Sequence:
#
# PCOD9488712 Si02
#       6
#    16  16  16   8  16  16
#     4   8  13  22  37  57  81 108 138 174 216 260
#     4  10  20  33  51  75 101 126 152 188 232 273
#     4   9  17  28  43  64  88 113 144 183 223 265
#     4   9  17  32  55  77  96 125 164 196 222 261
#     4   9  18  33  51  69  89 117 156 194 223 259
#     4   9  18  32  48  65  88 120 153 184 223 270
#
# _framework density 20.616498
#
# number of rings (size 3 to 8) (size 9 to 14) (size 15 to 20)
#    0.000    3.000    0.000    0.818    0.000    4.364 
#    0.000    3.636    0.000    2.727    0.000    3.818 
#    0.000    0.000    0.000   34.000    0.000   18.545 
#
# Total GULP energy -245263.063924 kJ/mol
# GULP energy per Si atom -5574.160544 kJ/mol
# Density = 2.056957 g / cm^3
# Si number density = 20.616498 Si / 1000 Ang^3
#
#
#
# Elastic Constant Matrix: (Units=GPa)
#
#
# Indices 1 2 3 4 5 6 
#
# 1 85.3212 -0.7780 106.8360 0.0000 0.0000 0.0000
# 2 -0.7780 52.2022 8.3506 0.0000 0.0000 0.0000
# 3 106.8360 8.3506 280.1500 0.0000 0.0000 0.0000
# 4 0.0000 0.0000 0.0000 12.5602 0.0000 0.0000
# 5 0.0000 0.0000 0.0000 0.0000 111.3052 0.0000
# 6 0.0000 0.0000 0.0000 0.0000 0.0000 15.9555
#
#
#
# Elastic Compliance Matrix: (Units=1/GPa)
#
#
# Indices 1 2 3 4 5 6 
#
# 1 0.022585 0.001723 -0.008664 0.000000 0.000000 0.000000
# 2 0.001723 0.019379 -0.001235 0.000000 0.000000 0.000000
# 3 -0.008664 -0.001235 0.006910 0.000000 0.000000 0.000000
# 4 0.000000 0.000000 0.000000 0.079617 0.000000 0.000000
# 5 0.000000 0.000000 0.000000 0.000000 0.008984 0.000000
# 6 0.000000 0.000000 0.000000 0.000000 0.000000 0.062674
#
#
# Mechanical properties :
#
#
# Convention : Reuss Voigt Hill
#
# Bulk Modulus (GPa) = 30.74788 71.83231 51.29009
# Shear Modulus (GPa) = 21.99316 48.18184 35.08750
#
# Velocity S-wave (km/s) = 3.26969 4.83955 4.12990
# Velocity P-wave (km/s) = 5.40381 8.13303 6.90461
#
# Compressibility (1/GPa) = 0.03252257
#
# Stress axis : x y z
#
# Youngs Moduli (GPa) = 44.27677 51.60110 144.70803
#
# Poissons Ratio (x) = -0.08889 1.25379
# Poissons Ratio (y) = -0.07627 0.17865
# Poissons Ratio (z) = 0.38363 0.06370
#
# Static dielectric constant tensor:
#      x y z
#    x 1.681470 0.000000 0.000000 
#    y 0.000000 1.751620 0.000000 
#    z 0.000000 0.000000 1.781530 
# 
# From -- ./inp_files/70987.got.cif
#   From: 2010.05.17/outbox.cif.g08.bks.cpg/sg65_36_cif.got.tgz:70987.got - 2010.06.03 17:01:31.
