data_PCOD9488450
_publ_section_title
;
Structure prediction by ZEFSAII (Michael W. Deem and Ramdas Pophale) SiO2 
 PCOD9488450
Probable space group: C M M M
;
_chemical_formula_sum "Si O2"
_cell_formula_units_Z 96
_cell_length_a 14.264975
_cell_length_b 14.835513
_cell_length_c 21.561561
_cell_angle_alpha 90.000000
_cell_angle_beta 90.000000
_cell_angle_gamma 90.000000
_cell_volume 4563.034819
_symmetry_space_group_name_H-M "C M M M"
_symmetry_group_IT_number 65
_symmetry_cell_setting 'orthorhombic'
loop_
_space_group_symop_operation_xyz
x,y,z
-x,-y,z
x,-y,-z
-x,y,-z
-x,-y,-z
x,y,-z
-x,y,z
x,-y,z
1/2+x,1/2+y,z
1/2-x,1/2-y,z
1/2+x,1/2-y,-z
1/2-x,1/2+y,-z
1/2-x,1/2-y,-z
1/2+x,1/2+y,-z
1/2-x,1/2+y,z
1/2+x,1/2-y,z
loop_
_atom_site_type_symbol
_atom_site_label
_atom_site_fract_x
_atom_site_fract_y
_atom_site_fract_z
Si Si1 0.892200 0.890147 0.429544
Si Si2 0.391970 0.106559 0.766254
Si Si3 0.775989 0.110223 0.687034
Si Si4 0.311829 0.628118 0.067368
Si Si5 0.102134 0.896952 0.199540
Si Si6 0.888767 0.673088 0.904170
O O1 0.871386 0.861057 0.500000
O O2 0.820352 0.858068 0.377167
O O3 0.000000 0.865240 0.414236
O O4 0.890148 0.000000 0.429651
O O5 0.500000 0.112117 0.749573
O O6 0.327747 0.134531 0.708970
O O7 0.378090 0.162077 0.829775
O O8 0.371079 0.000000 0.781294
O O9 0.837683 0.143885 0.745432
O O10 0.777339 0.000000 0.684154
O O11 0.349851 0.595559 0.133041
O O12 0.198915 0.615742 0.069735
O O13 0.354001 0.729854 0.071984
O O14 0.344290 0.595117 0.000000
O O15 0.000000 0.853716 0.192511
O O16 0.090302 0.000000 0.220140
O O17 0.000000 0.655898 0.918615
#
# Coordination Sequence:
#
# PCOD9488450 Si02
#       6
#    16  16  16  16  16  16
#     4   8  13  21  36  62  95 129 161 189 224 275
#     4   9  17  30  50  72  92 119 158 203 245 282
#     4   9  15  26  44  65  92 124 157 193 232 275
#     4  11  23  36  51  71  94 122 157 196 240 292
#     4  10  20  33  49  70  96 126 159 194 235 283
#     4  10  20  35  53  70  91 120 156 197 242 290
#
# _framework density 21.038630000000001
#
# number of rings (size 3 to 8) (size 9 to 14) (size 15 to 20)
#    0.000    2.500    1.667    2.500    0.000    4.667 
#    0.000    0.833    0.000    2.000    0.000   14.000 
#    0.000    2.667    0.000    4.500    0.000    5.333 
#
# Total GULP energy -267257.915745 kJ/mol
# GULP energy per Si atom -5567.873245 kJ/mol
# Density = 2.099074 g / cm^3
# Si number density = 21.038630 Si / 1000 Ang^3
#
#
#
# Elastic Constant Matrix: (Units=GPa)
#
#
# Indices 1 2 3 4 5 6 
#
# 1 114.0911 8.8446 75.3973 0.0000 0.0000 0.0000
# 2 8.8446 38.5462 16.3167 0.0000 0.0000 0.0000
# 3 75.3973 16.3167 163.4660 0.0000 0.0000 0.0000
# 4 0.0000 0.0000 0.0000 10.6545 0.0000 0.0000
# 5 0.0000 0.0000 0.0000 0.0000 13.5974 0.0000
# 6 0.0000 0.0000 0.0000 0.0000 0.0000 8.2496
#
#
#
# Elastic Compliance Matrix: (Units=1/GPa)
#
#
# Indices 1 2 3 4 5 6 
#
# 1 0.012615 -0.000451 -0.005774 0.000000 0.000000 0.000000
# 2 -0.000451 0.027104 -0.002498 0.000000 0.000000 0.000000
# 3 -0.005774 -0.002498 0.009030 0.000000 0.000000 0.000000
# 4 0.000000 0.000000 0.000000 0.093857 0.000000 0.000000
# 5 0.000000 0.000000 0.000000 0.000000 0.073543 0.000000
# 6 0.000000 0.000000 0.000000 0.000000 0.000000 0.121218
#
#
# Mechanical properties :
#
#
# Convention : Reuss Voigt Hill
#
# Bulk Modulus (GPa) = 31.94381 57.46894 44.70638
# Shear Modulus (GPa) = 13.68941 20.86995 17.27968
#
# Velocity S-wave (km/s) = 2.55361 3.15299 2.86900
# Velocity P-wave (km/s) = 4.88988 6.37419 5.68073
#
# Compressibility (1/GPa) = 0.03130497
#
# Stress axis : x y z
#
# Youngs Moduli (GPa) = 79.26763 36.89554 110.74323
#
# Poissons Ratio (x) = 0.01663 0.63941
# Poissons Ratio (y) = 0.03572 0.27659
# Poissons Ratio (z) = 0.45768 0.09215
#
# Static dielectric constant tensor:
#      x y z
#    x 1.797820 0.000000 0.000000 
#    y 0.000000 1.872590 0.000000 
#    z 0.000000 0.000000 1.722490 
# 
# From -- ./inp_files/62642.got.cif
#   From: 2010.05.17/outbox.cif.g08.bks.cpg/sg65_32_cif.got.tgz:62642.got - 2010.06.03 17:01:31.
