data_PCOD9488676
_publ_section_title
;
Structure prediction by ZEFSAII (Michael W. Deem and Ramdas Pophale) SiO2 
 PCOD9488676
Probable space group: C M M M
;
_chemical_formula_sum "Si O2"
_cell_formula_units_Z 88
_cell_length_a 18.947245
_cell_length_b 29.249964
_cell_length_c 7.977654
_cell_angle_alpha 90.000000
_cell_angle_beta 90.000000
_cell_angle_gamma 90.000000
_cell_volume 4421.265581
_symmetry_space_group_name_H-M "C M M M"
_symmetry_group_IT_number 65
_symmetry_cell_setting 'orthorhombic'
loop_
_space_group_symop_operation_xyz
x,y,z
-x,-y,z
x,-y,-z
-x,y,-z
-x,-y,-z
x,y,-z
-x,y,z
x,-y,z
1/2+x,1/2+y,z
1/2-x,1/2-y,z
1/2+x,1/2-y,-z
1/2-x,1/2+y,-z
1/2-x,1/2-y,-z
1/2+x,1/2+y,-z
1/2-x,1/2+y,z
1/2+x,1/2-y,z
loop_
_atom_site_type_symbol
_atom_site_label
_atom_site_fract_x
_atom_site_fract_y
_atom_site_fract_z
Si Si1 0.135464 0.387536 0.199839
Si Si2 0.921757 0.052945 0.704654
Si Si3 0.311189 0.283042 0.700972
Si Si4 0.000000 0.447664 0.299956
Si Si5 0.207958 0.113883 0.701818
Si Si6 0.080862 0.709911 0.797575
O O1 0.213080 0.402449 0.257179
O O2 0.120856 0.335775 0.264529
O O3 0.070318 0.420026 0.248357
O O4 0.136147 0.385309 0.000000
O O5 0.921071 0.053901 0.500000
O O6 0.855658 0.082305 0.764868
O O7 0.000000 0.069347 0.756519
O O8 0.914717 0.000000 0.754095
O O9 0.303378 0.285518 0.500000
O O10 0.250000 0.250000 0.769290
O O11 0.303087 0.334349 0.766107
O O12 0.382881 0.256399 0.739180
O O13 0.000000 0.500000 0.234407
O O14 0.000000 0.449791 0.500000
O O15 0.202609 0.114880 0.500000
O O16 0.000000 0.706801 0.742986
O O17 0.082385 0.709204 0.000000
#
# Coordination Sequence:
#
# PCOD9488676 Si02
#       6
#    16  16  16   8  16  16
#     4  11  22  38  59  83 113 151 192 233 285 343
#     4   8  15  30  53  79 106 138 177 226 283 335
#     4  10  20  33  50  78 111 144 182 225 277 326
#     4  11  25  43  63  87 115 149 193 245 296 343
#     4  10  20  34  55  84 116 146 187 238 284 341
#     4  10  21  37  55  77 106 146 192 229 272 337
#
# _framework density 19.903804000000001
#
# number of rings (size 3 to 8) (size 9 to 14) (size 15 to 20)
#    0.000    2.091    2.727    1.364    0.000    4.364 
#    0.000    3.636    0.000    0.545    0.000    1.273 
#    0.000    0.000    0.000    0.000    0.000    0.000 
#
# Total GULP energy -245586.081051 kJ/mol
# GULP energy per Si atom -5581.501842 kJ/mol
# Density = 1.985850 g / cm^3
# Si number density = 19.903804 Si / 1000 Ang^3
#
#
#
# Elastic Constant Matrix: (Units=GPa)
#
#
# Indices 1 2 3 4 5 6 
#
# 1 191.0967 89.6615 5.3174 0.0000 0.0000 0.0000
# 2 89.6615 111.8598 8.2478 0.0000 0.0000 0.0000
# 3 5.3174 8.2478 15.9983 0.0000 0.0000 0.0000
# 4 0.0000 0.0000 0.0000 17.1832 0.0000 0.0000
# 5 0.0000 0.0000 0.0000 0.0000 93.4084 0.0000
# 6 0.0000 0.0000 0.0000 0.0000 0.0000 31.7533
#
#
#
# Elastic Compliance Matrix: (Units=1/GPa)
#
#
# Indices 1 2 3 4 5 6 
#
# 1 0.008395 -0.006781 0.000706 0.000000 0.000000 0.000000
# 2 -0.006781 0.014770 -0.005361 0.000000 0.000000 0.000000
# 3 0.000706 -0.005361 0.065036 0.000000 0.000000 0.000000
# 4 0.000000 0.000000 0.000000 0.058196 0.000000 0.000000
# 5 0.000000 0.000000 0.000000 0.000000 0.010706 0.000000
# 6 0.000000 0.000000 0.000000 0.000000 0.000000 0.031493
#
#
# Mechanical properties :
#
#
# Convention : Reuss Voigt Hill
#
# Bulk Modulus (GPa) = 15.30720 58.37869 36.84295
# Shear Modulus (GPa) = 21.43670 42.85086 32.14378
#
# Velocity S-wave (km/s) = 3.28535 4.64497 4.02301
# Velocity P-wave (km/s) = 4.70092 7.62638 6.33484
#
# Compressibility (1/GPa) = 0.06532872
#
# Stress axis : x y z
#
# Youngs Moduli (GPa) = 119.11965 67.70316 15.37610
#
# Poissons Ratio (x) = 0.45909 -0.01085
# Poissons Ratio (y) = 0.80775 0.08243
# Poissons Ratio (z) = -0.08406 0.36295
#
# Static dielectric constant tensor:
#      x y z
#    x 1.712720 0.000000 0.000000 
#    y 0.000000 1.700340 0.000000 
#    z 0.000000 0.000000 1.706170 
# 
# From -- ./inp_files/10088.got.cif
#   From: 2010.05.17/outbox.cif.g08.bks.cpg/sg65_6_cif.got.tgz:10088.got - 2010.06.03 17:01:31.
