data_PCOD9488629
_publ_section_title
;
Structure prediction by ZEFSAII (Michael W. Deem and Ramdas Pophale) SiO2 
 PCOD9488629
Probable space group: C M M M
;
_chemical_formula_sum "Si O2"
_cell_formula_units_Z 56
_cell_length_a 9.282409
_cell_length_b 37.171580
_cell_length_c 7.433111
_cell_angle_alpha 90.000000
_cell_angle_beta 90.000000
_cell_angle_gamma 90.000000
_cell_volume 2564.734064
_symmetry_space_group_name_H-M "C M M M"
_symmetry_group_IT_number 65
_symmetry_cell_setting 'orthorhombic'
loop_
_space_group_symop_operation_xyz
x,y,z
-x,-y,z
x,-y,-z
-x,y,-z
-x,-y,-z
x,y,-z
-x,y,z
x,-y,z
1/2+x,1/2+y,z
1/2-x,1/2-y,z
1/2+x,1/2-y,-z
1/2-x,1/2+y,-z
1/2-x,1/2-y,-z
1/2+x,1/2+y,-z
1/2-x,1/2+y,z
1/2+x,1/2-y,z
loop_
_atom_site_type_symbol
_atom_site_label
_atom_site_fract_x
_atom_site_fract_y
_atom_site_fract_z
Si Si1 0.333858 0.000000 0.719593
Si Si2 0.336526 0.284652 0.215307
Si Si3 0.333776 0.571764 0.719962
Si Si4 0.163729 0.357650 0.284528
O O1 0.250204 0.964112 0.776146
O O2 0.500000 0.000000 0.777267
O O3 0.334412 0.000000 0.500000
O O4 0.500000 0.286564 0.285022
O O5 0.250000 0.250000 0.285141
O O6 0.249620 0.321127 0.248719
O O7 0.346065 0.280559 0.000000
O O8 0.334083 0.571926 0.500000
O O9 0.500000 0.571587 0.776964
O O10 0.250874 0.607535 0.781049
O O11 0.155109 0.361388 0.500000
O O12 0.000000 0.356096 0.215471
#
# Coordination Sequence:
#
# PCOD9488629 Si02
#       4
#     8  16  16  16
#     4   9  15  23  37  59  90 127 164 201 242 289
#     4  10  21  37  56  76  98 127 164 204 246 294
#     4   9  16  26  41  63  93 128 164 202 244 289
#     4  10  20  33  50  74 103 133 165 203 248 295
#
# _framework density 21.834623000000001
#
# number of rings (size 3 to 8) (size 9 to 14) (size 15 to 20)
#    0.000    2.429    0.000    3.000    0.000    9.143 
#    0.000    0.000    0.000    0.000    0.000    1.000 
#    0.000    8.000    0.000    0.000    0.000    0.000 
#
# Total GULP energy -156539.366276 kJ/mol
# GULP energy per Si atom -5590.691653 kJ/mol
# Density = 2.178493 g / cm^3
# Si number density = 21.834623 Si / 1000 Ang^3
#
#
#
# Elastic Constant Matrix: (Units=GPa)
#
#
# Indices 1 2 3 4 5 6 
#
# 1 289.8877 176.3882 8.7119 0.0000 0.0000 0.0000
# 2 176.3882 268.9801 -0.3965 0.0000 0.0000 0.0000
# 3 8.7119 -0.3965 69.4619 0.0000 0.0000 0.0000
# 4 0.0000 0.0000 0.0000 42.4049 0.0000 0.0000
# 5 0.0000 0.0000 0.0000 0.0000 4.9380 0.0000
# 6 0.0000 0.0000 0.0000 0.0000 0.0000 49.2794
#
#
#
# Elastic Compliance Matrix: (Units=1/GPa)
#
#
# Indices 1 2 3 4 5 6 
#
# 1 0.005778 -0.003790 -0.000746 0.000000 0.000000 0.000000
# 2 -0.003790 0.006204 0.000511 0.000000 0.000000 0.000000
# 3 -0.000746 0.000511 0.014493 0.000000 0.000000 0.000000
# 4 0.000000 0.000000 0.000000 0.023582 0.000000 0.000000
# 5 0.000000 0.000000 0.000000 0.000000 0.202513 0.000000
# 6 0.000000 0.000000 0.000000 0.000000 0.000000 0.020292
#
#
# Mechanical properties :
#
#
# Convention : Reuss Voigt Hill
#
# Bulk Modulus (GPa) = 54.27842 110.85963 82.56903
# Shear Modulus (GPa) = 17.41819 48.89952 33.15886
#
# Velocity S-wave (km/s) = 2.82748 4.73751 3.90120
# Velocity P-wave (km/s) = 5.96426 8.98933 7.62825
#
# Compressibility (1/GPa) = 0.01842353
#
# Stress axis : x y z
#
# Youngs Moduli (GPa) = 173.05933 161.18394 68.99930
#
# Poissons Ratio (x) = 0.61095 0.05150
# Poissons Ratio (y) = 0.65596 -0.03524
# Poissons Ratio (z) = 0.12916 -0.08233
#
# Static dielectric constant tensor:
#      x y z
#    x 1.758990 0.000000 0.000000 
#    y 0.000000 1.726250 0.000000 
#    z 0.000000 0.000000 1.853640 
# 
# From -- ./inp_files/20484.got.cif
#   From: 2010.05.17/outbox.cif.g08.bks.cpg/sg65_11_cif.got.tgz:20484.got - 2010.06.03 17:01:31.
