data_PCOD9488574
_publ_section_title
;
Structure prediction by ZEFSAII (Michael W. Deem and Ramdas Pophale) SiO2 
 PCOD9488574
Probable space group: C M M M
;
_chemical_formula_sum "Si O2"
_cell_formula_units_Z 96
_cell_length_a 8.749661
_cell_length_b 20.914788
_cell_length_c 30.322277
_cell_angle_alpha 90.000000
_cell_angle_beta 90.000000
_cell_angle_gamma 90.000000
_cell_volume 5548.894969
_symmetry_space_group_name_H-M "C M M M"
_symmetry_group_IT_number 65
_symmetry_cell_setting 'orthorhombic'
loop_
_space_group_symop_operation_xyz
x,y,z
-x,-y,z
x,-y,-z
-x,y,-z
-x,-y,-z
x,y,-z
-x,y,z
x,-y,z
1/2+x,1/2+y,z
1/2-x,1/2-y,z
1/2+x,1/2-y,-z
1/2-x,1/2+y,-z
1/2-x,1/2-y,-z
1/2+x,1/2+y,-z
1/2-x,1/2+y,z
1/2+x,1/2-y,z
loop_
_atom_site_type_symbol
_atom_site_label
_atom_site_fract_x
_atom_site_fract_y
_atom_site_fract_z
Si Si1 0.184540 0.180946 0.881812
Si Si2 0.813769 0.927293 0.050446
Si Si3 0.817096 0.819218 0.220295
Si Si4 0.682761 0.318809 0.448801
Si Si5 0.684218 0.073174 0.283531
Si Si6 0.184205 0.573162 0.386014
O O1 0.250000 0.250000 0.894497
O O2 0.238069 0.125192 0.914526
O O3 0.227981 0.168602 0.830823
O O4 0.000000 0.183634 0.883604
O O5 0.000000 0.927051 0.051079
O O6 0.765892 0.000000 0.060999
O O7 0.767752 0.912807 0.000000
O O8 0.750000 0.750000 0.232866
O O9 0.756592 0.874874 0.251619
O O10 0.000000 0.816407 0.222420
O O11 0.727961 0.329748 0.500000
O O12 0.500000 0.315997 0.446683
O O13 0.750000 0.250000 0.435381
O O14 0.743384 0.375065 0.418021
O O15 0.500000 0.076812 0.280672
O O16 0.725857 0.084688 0.334779
O O17 0.728846 0.000000 0.272495
O O18 0.228561 0.500000 0.397048
O O19 0.000000 0.576883 0.388922
#
# Coordination Sequence:
#
# PCOD9488574 Si02
#       6
#    16  16  16  16  16  16
#     4   9  18  31  47  69  96 124 157 198 240 285
#     4   8  14  26  45  68  93 122 157 196 237 282
#     4  10  20  33  50  72  99 131 166 205 248 294
#     4  10  21  36  54  77 105 136 170 208 248 291
#     4   9  19  36  55  75 101 131 164 204 248 295
#     4   9  19  36  56  77 102 133 167 203 246 296
#
# _framework density 17.300742
#
# number of rings (size 3 to 8) (size 9 to 14) (size 15 to 20)
#    0.000    2.833    0.000    2.500    0.000    5.000 
#    0.000    5.000    0.000    0.500    0.000    1.167 
#    0.000    0.000    0.000    0.000    0.000    0.000 
#
# Total GULP energy -267655.039565 kJ/mol
# GULP energy per Si atom -5576.146658 kJ/mol
# Density = 1.726136 g / cm^3
# Si number density = 17.300742 Si / 1000 Ang^3
#
#
#
# Elastic Constant Matrix: (Units=GPa)
#
#
# Indices 1 2 3 4 5 6 
#
# 1 19.5144 44.3000 34.6352 0.0000 0.0000 0.0000
# 2 44.3000 190.3675 128.9825 0.0000 0.0000 0.0000
# 3 34.6352 128.9825 107.4451 0.0000 0.0000 0.0000
# 4 0.0000 0.0000 0.0000 43.5191 0.0000 0.0000
# 5 0.0000 0.0000 0.0000 0.0000 16.1212 0.0000
# 6 0.0000 0.0000 0.0000 0.0000 0.0000 32.0290
#
#
#
# Elastic Compliance Matrix: (Units=1/GPa)
#
#
# Indices 1 2 3 4 5 6 
#
# 1 0.122834 -0.009411 -0.028298 0.000000 0.000000 0.000000
# 2 -0.009411 0.028866 -0.031618 0.000000 0.000000 0.000000
# 3 -0.028298 -0.031618 0.056386 0.000000 0.000000 0.000000
# 4 0.000000 0.000000 0.000000 0.022978 0.000000 0.000000
# 5 0.000000 0.000000 0.000000 0.000000 0.062030 0.000000
# 6 0.000000 0.000000 0.000000 0.000000 0.000000 0.031222
#
#
# Mechanical properties :
#
#
# Convention : Reuss Voigt Hill
#
# Bulk Modulus (GPa) = 14.40302 81.46250 47.93276
# Shear Modulus (GPa) = 10.28563 25.62780 17.95671
#
# Velocity S-wave (km/s) = 2.44092 3.85296 3.22517
# Velocity P-wave (km/s) = 4.03575 8.18426 6.45249
#
# Compressibility (1/GPa) = 0.06942988
#
# Stress axis : x y z
#
# Youngs Moduli (GPa) = 8.14105 34.64286 17.73504
#
# Poissons Ratio (x) = 0.32603 0.50187
# Poissons Ratio (y) = 0.07662 0.56076
# Poissons Ratio (z) = 0.23038 1.09536
#
# Static dielectric constant tensor:
#      x y z
#    x 1.581890 0.000000 0.000000 
#    y 0.000000 1.560970 0.000000 
#    z 0.000000 0.000000 1.578720 
# 
# From -- ./inp_files/73080.got.cif
#   From: 2010.05.17/outbox.cif.g08.bks.cpg/sg65_37_cif.got.tgz:73080.got - 2010.06.03 17:01:31.
