data_PCOD9488343
_publ_section_title
;
Structure prediction by ZEFSAII (Michael W. Deem and Ramdas Pophale) SiO2 
 PCOD9488343
Probable space group: C M M M
;
_chemical_formula_sum "Si O2"
_cell_formula_units_Z 72
_cell_length_a 17.172813
_cell_length_b 28.533621
_cell_length_c 9.058948
_cell_angle_alpha 90.000000
_cell_angle_beta 90.000000
_cell_angle_gamma 90.000000
_cell_volume 4438.907508
_symmetry_space_group_name_H-M "C M M M"
_symmetry_group_IT_number 65
_symmetry_cell_setting 'orthorhombic'
loop_
_space_group_symop_operation_xyz
x,y,z
-x,-y,z
x,-y,-z
-x,y,-z
-x,-y,-z
x,y,-z
-x,y,z
x,-y,z
1/2+x,1/2+y,z
1/2-x,1/2-y,z
1/2+x,1/2-y,-z
1/2-x,1/2+y,-z
1/2-x,1/2-y,-z
1/2+x,1/2+y,-z
1/2-x,1/2+y,z
1/2+x,1/2-y,z
loop_
_atom_site_type_symbol
_atom_site_label
_atom_site_fract_x
_atom_site_fract_y
_atom_site_fract_z
Si Si1 0.269926 0.139530 0.824942
Si Si2 0.411388 0.195540 0.322580
Si Si3 0.000000 0.556756 0.831829
Si Si4 0.662341 0.055371 0.675295
Si Si5 0.675535 0.714738 0.330889
O O1 0.347114 0.166022 0.763890
O O2 0.274347 0.088568 0.750821
O O3 0.197928 0.171409 0.771282
O O4 0.272463 0.136292 0.000000
O O5 0.399365 0.189375 0.500000
O O6 0.500000 0.182779 0.287082
O O7 0.394885 0.250585 0.291206
O O8 0.078470 0.568741 0.744756
O O9 0.000000 0.500000 0.839873
O O10 0.000000 0.574884 0.000000
O O11 0.660064 0.063057 0.500000
O O12 0.674729 0.000000 0.702324
O O13 0.666756 0.698708 0.500000
O O14 0.750000 0.750000 0.327543
#
# Coordination Sequence:
#
# PCOD9488343 Si02
#       5
#    16  16   8  16  16
#     4  11  21  30  44  65  91 120 149 184 225 265
#     4   9  18  32  49  67  88 116 150 186 221 262
#     4   9  17  29  43  59  81 107 137 179 225 259
#     4  10  20  33  47  61  81 114 153 188 221 259
#     4   8  15  30  48  64  85 114 147 181 219 264
#
# _framework density 16.220208
#
# number of rings (size 3 to 8) (size 9 to 14) (size 15 to 20)
#    0.000    2.556    0.000    4.333    1.556    7.111 
#    0.000    0.000    0.000    0.000    0.000    0.000 
#    0.000    0.889    0.000   10.222    0.000    2.889 
#
# Total GULP energy -200723.359439 kJ/mol
# GULP energy per Si atom -5575.648873 kJ/mol
# Density = 1.618329 g / cm^3
# Si number density = 16.220208 Si / 1000 Ang^3
#
#
#
# Elastic Constant Matrix: (Units=GPa)
#
#
# Indices 1 2 3 4 5 6 
#
# 1 14.7151 10.8176 8.1287 0.0000 0.0000 0.0000
# 2 10.8176 80.6328 51.6624 0.0000 0.0000 0.0000
# 3 8.1287 51.6624 92.4635 0.0000 0.0000 0.0000
# 4 0.0000 0.0000 0.0000 19.3860 0.0000 0.0000
# 5 0.0000 0.0000 0.0000 0.0000 7.2461 0.0000
# 6 0.0000 0.0000 0.0000 0.0000 0.0000 25.0083
#
#
#
# Elastic Compliance Matrix: (Units=1/GPa)
#
#
# Indices 1 2 3 4 5 6 
#
# 1 0.075530 -0.009157 -0.001524 0.000000 0.000000 0.000000
# 2 -0.009157 0.020427 -0.010608 0.000000 0.000000 0.000000
# 3 -0.001524 -0.010608 0.016876 0.000000 0.000000 0.000000
# 4 0.000000 0.000000 0.000000 0.051584 0.000000 0.000000
# 5 0.000000 0.000000 0.000000 0.000000 0.138005 0.000000
# 6 0.000000 0.000000 0.000000 0.000000 0.000000 0.039987
#
#
# Mechanical properties :
#
#
# Convention : Reuss Voigt Hill
#
# Bulk Modulus (GPa) = 14.23366 36.55875 25.39620
# Shear Modulus (GPa) = 12.24272 18.14160 15.19216
#
# Velocity S-wave (km/s) = 2.75031 3.34796 3.06374
# Velocity P-wave (km/s) = 4.34510 6.12642 5.31098
#
# Compressibility (1/GPa) = 0.07025602
#
# Stress axis : x y z
#
# Youngs Moduli (GPa) = 13.23971 48.95409 59.25459
#
# Poissons Ratio (x) = 0.44825 0.09030
# Poissons Ratio (y) = 0.12123 0.62860
# Poissons Ratio (z) = 0.02018 0.51933
#
# Static dielectric constant tensor:
#      x y z
#    x 1.538180 0.000000 0.000000 
#    y 0.000000 1.590810 0.000000 
#    z 0.000000 0.000000 1.540340 
# 
# From -- ./inp_files/9452.got.cif
#   From: 2010.05.17/outbox.cif.g08.bks.cpg/sg65_5_cif.got.tgz:9452.got - 2010.06.03 17:01:31.
