data_PCOD9488953
_publ_section_title
;
Structure prediction by ZEFSAII (Michael W. Deem and Ramdas Pophale) SiO2 
 PCOD9488953
Probable space group: C M M M
;
_chemical_formula_sum "Si O2"
_cell_formula_units_Z 88
_cell_length_a 28.201769
_cell_length_b 19.856498
_cell_length_c 7.550451
_cell_angle_alpha 90.000000
_cell_angle_beta 90.000000
_cell_angle_gamma 90.000000
_cell_volume 4228.164746
_symmetry_space_group_name_H-M "C M M M"
_symmetry_group_IT_number 65
_symmetry_cell_setting 'orthorhombic'
loop_
_space_group_symop_operation_xyz
x,y,z
-x,-y,z
x,-y,-z
-x,y,-z
-x,-y,-z
x,y,-z
-x,y,z
x,-y,z
1/2+x,1/2+y,z
1/2-x,1/2-y,z
1/2+x,1/2-y,-z
1/2-x,1/2+y,-z
1/2-x,1/2-y,-z
1/2+x,1/2+y,-z
1/2-x,1/2+y,z
1/2+x,1/2-y,z
loop_
_atom_site_type_symbol
_atom_site_label
_atom_site_fract_x
_atom_site_fract_y
_atom_site_fract_z
Si Si1 0.192441 0.423602 0.787448
Si Si2 0.500000 0.078773 0.216774
Si Si3 0.445286 0.425972 0.283919
Si Si4 0.402902 0.149715 0.211258
Si Si5 0.619096 0.304378 0.286242
Si Si6 0.773894 0.181590 0.712605
O O1 0.195363 0.500000 0.720637
O O2 0.145034 0.386078 0.719436
O O3 0.239433 0.380505 0.750730
O O4 0.188078 0.426577 0.000000
O O5 0.451961 0.116625 0.277004
O O6 0.500000 0.000000 0.268172
O O7 0.500000 0.080174 0.000000
O O8 0.444603 0.425106 0.500000
O O9 0.500000 0.420172 0.230450
O O10 0.427376 0.500000 0.229772
O O11 0.415335 0.362940 0.220503
O O12 0.398119 0.229375 0.242094
O O13 0.403278 0.139291 0.000000
O O14 0.619746 0.307946 0.500000
O O15 0.672297 0.319452 0.221556
O O16 0.776560 0.186677 0.500000
O O17 0.750000 0.250000 0.780825
#
# Coordination Sequence:
#
# PCOD9488953 Si02
#       6
#    16   8  16  16  16  16
#     4  10  21  36  55  79 105 137 179 220 259 309
#     4   9  18  34  55  77 104 139 178 218 259 309
#     4   8  15  29  49  73  99 128 165 207 250 298
#     4  10  20  34  54  79 106 138 174 215 262 312
#     4  10  20  33  53  79 106 135 171 215 259 311
#     4  10  20  35  52  75 107 139 173 213 260 310
#
# _framework density 20.812811
#
# number of rings (size 3 to 8) (size 9 to 14) (size 15 to 20)
#    0.000    2.455    1.818    1.091    1.273    4.364 
#    0.000    1.818    0.000    2.727    0.000    1.273 
#    0.000    0.000    0.000    0.000    0.000    0.000 
#
# Total GULP energy -245651.087592 kJ/mol
# GULP energy per Si atom -5582.979263 kJ/mol
# Density = 2.076544 g / cm^3
# Si number density = 20.812811 Si / 1000 Ang^3
#
#
#
# Elastic Constant Matrix: (Units=GPa)
#
#
# Indices 1 2 3 4 5 6 
#
# 1 178.0779 136.9380 3.7410 0.0000 0.0000 0.0000
# 2 136.9380 232.3277 -3.6355 0.0000 0.0000 0.0000
# 3 3.7410 -3.6355 48.7662 0.0000 0.0000 0.0000
# 4 0.0000 0.0000 0.0000 25.2448 0.0000 0.0000
# 5 0.0000 0.0000 0.0000 0.0000 79.9433 0.0000
# 6 0.0000 0.0000 0.0000 0.0000 0.0000 42.2046
#
#
#
# Elastic Compliance Matrix: (Units=1/GPa)
#
#
# Indices 1 2 3 4 5 6 
#
# 1 0.010346 -0.006118 -0.001250 0.000000 0.000000 0.000000
# 2 -0.006118 0.007927 0.001060 0.000000 0.000000 0.000000
# 3 -0.001250 0.001060 0.020681 0.000000 0.000000 0.000000
# 4 0.000000 0.000000 0.000000 0.039612 0.000000 0.000000
# 5 0.000000 0.000000 0.000000 0.000000 0.012509 0.000000
# 6 0.000000 0.000000 0.000000 0.000000 0.000000 0.023694
#
#
# Mechanical properties :
#
#
# Convention : Reuss Voigt Hill
#
# Bulk Modulus (GPa) = 37.96608 81.47321 59.71965
# Shear Modulus (GPa) = 36.72058 50.95377 43.83717
#
# Velocity S-wave (km/s) = 4.20494 4.95329 4.59438
# Velocity P-wave (km/s) = 6.46968 8.48199 7.54324
#
# Compressibility (1/GPa) = 0.02633930
#
# Stress axis : x y z
#
# Youngs Moduli (GPa) = 96.65356 126.15440 48.35375
#
# Poissons Ratio (x) = 0.77179 0.06043
# Poissons Ratio (y) = 0.59131 -0.05127
# Poissons Ratio (z) = 0.12080 -0.13376
#
# Static dielectric constant tensor:
#      x y z
#    x 1.754390 0.000000 0.000000 
#    y 0.000000 1.706790 0.000000 
#    z 0.000000 0.000000 1.795980 
# 
# From -- ./inp_files/12311.got.cif
#   From: 2010.05.17/outbox.cif.g08.bks.cpg/sg65_7_cif.got.tgz:12311.got - 2010.06.03 17:01:31.
