data_PCOD9488680
_publ_section_title
;
Structure prediction by ZEFSAII (Michael W. Deem and Ramdas Pophale) SiO2 
 PCOD9488680
Probable space group: C M M M
;
_chemical_formula_sum "Si O2"
_cell_formula_units_Z 72
_cell_length_a 22.188169
_cell_length_b 7.605798
_cell_length_c 20.764370
_cell_angle_alpha 90.000000
_cell_angle_beta 90.000000
_cell_angle_gamma 90.000000
_cell_volume 3504.168740
_symmetry_space_group_name_H-M "C M M M"
_symmetry_group_IT_number 65
_symmetry_cell_setting 'orthorhombic'
loop_
_space_group_symop_operation_xyz
x,y,z
-x,-y,z
x,-y,-z
-x,y,-z
-x,-y,-z
x,y,-z
-x,y,z
x,-y,z
1/2+x,1/2+y,z
1/2-x,1/2-y,z
1/2+x,1/2-y,-z
1/2-x,1/2+y,-z
1/2-x,1/2-y,-z
1/2+x,1/2+y,-z
1/2-x,1/2+y,z
1/2+x,1/2-y,z
loop_
_atom_site_type_symbol
_atom_site_label
_atom_site_fract_x
_atom_site_fract_y
_atom_site_fract_z
Si Si1 0.500000 0.786086 0.923678
Si Si2 0.181150 0.709067 0.000000
Si Si3 0.430115 0.716570 0.357463
Si Si4 0.179461 0.201658 0.269576
Si Si5 0.927335 0.199018 0.500000
Si Si6 0.125979 0.286947 0.132322
O O1 0.442654 0.734369 0.881211
O O2 0.500000 0.000000 0.928083
O O3 0.500000 0.728401 0.000000
O O4 0.250000 0.750000 0.000000
O O5 0.156167 0.777919 0.066708
O O6 0.167990 0.500000 0.000000
O O7 0.500000 0.769403 0.342331
O O8 0.431861 0.500000 0.357934
O O9 0.376737 0.780786 0.310407
O O10 0.413433 0.776575 0.430140
O O11 0.250000 0.250000 0.277696
O O12 0.159520 0.221478 0.195400
O O13 0.178110 0.000000 0.288339
O O14 0.000000 0.187740 0.500000
O O15 0.902507 0.000000 0.500000
O O16 0.128754 0.500000 0.135399
#
# Coordination Sequence:
#
# PCOD9488680 Si02
#       6
#     8   8  16  16   8  16
#     4   9  16  32  57  81 103 128 163 212 266 319
#     4  10  20  33  51  71  93 126 171 216 253 300
#     4   8  15  29  51  78 105 135 172 215 260 305
#     4  11  23  37  53  75 109 144 176 218 263 312
#     4   7  10  22  47  76 103 131 168 211 254 304
#     4  10  20  35  55  77 102 134 172 212 259 313
#
# _framework density 20.546956999999999
#
# number of rings (size 3 to 8) (size 9 to 14) (size 15 to 20)
#    0.000    2.667    1.111    2.667    1.556    2.667 
#    0.000    0.556    0.000    0.667    0.000    2.333 
#    0.000   10.667    0.000    0.000    0.000    0.000 
#
# Total GULP energy -200416.653382 kJ/mol
# GULP energy per Si atom -5567.129261 kJ/mol
# Density = 2.050019 g / cm^3
# Si number density = 20.546957 Si / 1000 Ang^3
#
#
#
# Elastic Constant Matrix: (Units=GPa)
#
#
# Indices 1 2 3 4 5 6 
#
# 1 190.6712 9.4696 94.1055 0.0000 0.0000 0.0000
# 2 9.4696 35.1263 -3.5123 0.0000 0.0000 0.0000
# 3 94.1055 -3.5123 146.8338 0.0000 0.0000 0.0000
# 4 0.0000 0.0000 0.0000 39.3340 0.0000 0.0000
# 5 0.0000 0.0000 0.0000 0.0000 -26.9319 0.0000
# 6 0.0000 0.0000 0.0000 0.0000 0.0000 -19.5183
#
#
#
# Elastic Compliance Matrix: (Units=1/GPa)
#
#
# Indices 1 2 3 4 5 6 
#
# 1 0.007909 -0.002645 -0.005132 0.000000 0.000000 0.000000
# 2 -0.002645 0.029422 0.002399 0.000000 0.000000 0.000000
# 3 -0.005132 0.002399 0.010157 0.000000 0.000000 0.000000
# 4 0.000000 0.000000 0.000000 0.025423 0.000000 0.000000
# 5 0.000000 0.000000 0.000000 0.000000 -0.037131 0.000000
# 6 0.000000 0.000000 0.000000 0.000000 0.000000 -0.051234
#
#
# Mechanical properties :
#
#
# Convention : Reuss Voigt Hill
#
# Bulk Modulus (GPa) = 27.22487 63.63966 45.43226
# Shear Modulus (GPa) = 662.55478 16.74800 339.65139
#
# Velocity S-wave (km/s) = 17.97662 2.85811 12.87105
# Velocity P-wave (km/s) = 21.07504 6.47547 15.58989
#
# Compressibility (1/GPa) = 0.03673113
#
# Stress axis : x y z
#
# Youngs Moduli (GPa) = 126.43891 33.98847 98.45452
#
# Poissons Ratio (x) = 0.08991 0.50528
# Poissons Ratio (y) = 0.33447 -0.23621
# Poissons Ratio (z) = 0.64890 -0.08154
#
# Static dielectric constant tensor:
#      x y z
#    x 1.893010 0.000000 0.000000 
#    y 0.000000 1.799220 0.000000 
#    z 0.000000 0.000000 1.724250 
# 
# From -- ./inp_files/59402.got.cif
#   From: 2010.05.17/outbox.cif.g08.bks.cpg/sg65_30_cif.got.tgz:59402.got - 2010.06.03 17:01:31.
