data_PCOD9488479
_publ_section_title
;
Structure prediction by ZEFSAII (Michael W. Deem and Ramdas Pophale) SiO2 
 PCOD9488479
Probable space group: C M M M
;
_chemical_formula_sum "Si O2"
_cell_formula_units_Z 88
_cell_length_a 14.203401
_cell_length_b 8.595332
_cell_length_c 30.632420
_cell_angle_alpha 90.000000
_cell_angle_beta 90.000000
_cell_angle_gamma 90.000000
_cell_volume 3739.696111
_symmetry_space_group_name_H-M "C M M M"
_symmetry_group_IT_number 65
_symmetry_cell_setting 'orthorhombic'
loop_
_space_group_symop_operation_xyz
x,y,z
-x,-y,z
x,-y,-z
-x,y,-z
-x,-y,-z
x,y,-z
-x,y,z
x,-y,z
1/2+x,1/2+y,z
1/2-x,1/2-y,z
1/2+x,1/2-y,-z
1/2-x,1/2+y,-z
1/2-x,1/2-y,-z
1/2+x,1/2+y,-z
1/2-x,1/2+y,z
1/2+x,1/2-y,z
loop_
_atom_site_type_symbol
_atom_site_label
_atom_site_fract_x
_atom_site_fract_y
_atom_site_fract_z
Si Si1 0.144572 0.813803 0.547216
Si Si2 0.884943 0.825704 0.271581
Si Si3 0.114684 0.500000 0.948968
Si Si4 0.614978 0.326642 0.904688
Si Si5 0.614531 0.173554 0.182704
Si Si6 0.390629 0.170785 0.640226
O O1 0.102363 0.766510 0.500000
O O2 0.250000 0.750000 0.545839
O O3 0.109035 0.748597 0.592868
O O4 0.141236 0.000000 0.548986
O O5 0.856642 0.716536 0.231596
O O6 0.853655 0.769448 0.319269
O O7 0.000000 0.829564 0.271219
O O8 0.851876 0.000000 0.263384
O O9 0.145725 0.666506 0.928604
O O10 0.000000 0.500000 0.943996
O O11 0.137459 0.500000 0.000000
O O12 0.500000 0.328335 0.907740
O O13 0.646208 0.500000 0.919381
O O14 0.641122 0.297929 0.854025
O O15 0.500000 0.171772 0.182454
O O16 0.645455 0.000000 0.170560
O O17 0.500000 0.151197 0.651166
O O18 0.345253 0.000000 0.637326
#
# Coordination Sequence:
#
# PCOD9488479 Si02
#       6
#    16  16   8  16  16  16
#     4  10  21  37  56  75  95 122 157 195 233 277
#     4   9  16  25  38  58  83 110 138 169 211 265
#     4   9  16  24  30  38  54  76 108 154 205 253
#     4   9  15  22  31  42  56  78 111 151 198 253
#     4   9  14  21  33  48  68  93 122 157 199 253
#     4  10  20  33  49  71  99 127 154 188 233 283
#
# _framework density 23.531324999999999
#
# number of rings (size 3 to 8) (size 9 to 14) (size 15 to 20)
#    0.000    2.636    0.909    2.182    0.000    7.273 
#    0.000    3.636    0.000    0.000    0.000    0.000 
#    0.000    0.000    0.000    0.000    0.000    0.000 
#
# Total GULP energy -245630.335410 kJ/mol
# GULP energy per Si atom -5582.507623 kJ/mol
# Density = 2.347777 g / cm^3
# Si number density = 23.531325 Si / 1000 Ang^3
#
#
#
# Elastic Constant Matrix: (Units=GPa)
#
#
# Indices 1 2 3 4 5 6 
#
# 1 66.7507 4.8870 -8.3310 0.0000 0.0000 0.0000
# 2 4.8870 171.4965 73.6190 0.0000 0.0000 0.0000
# 3 -8.3310 73.6190 132.8369 0.0000 0.0000 0.0000
# 4 0.0000 0.0000 0.0000 21.3915 0.0000 0.0000
# 5 0.0000 0.0000 0.0000 0.0000 27.4655 0.0000
# 6 0.0000 0.0000 0.0000 0.0000 0.0000 16.4200
#
#
#
# Elastic Compliance Matrix: (Units=1/GPa)
#
#
# Indices 1 2 3 4 5 6 
#
# 1 0.015259 -0.001110 0.001572 0.000000 0.000000 0.000000
# 2 -0.001110 0.007732 -0.004355 0.000000 0.000000 0.000000
# 3 0.001572 -0.004355 0.010040 0.000000 0.000000 0.000000
# 4 0.000000 0.000000 0.000000 0.046748 0.000000 0.000000
# 5 0.000000 0.000000 0.000000 0.000000 0.036409 0.000000
# 6 0.000000 0.000000 0.000000 0.000000 0.000000 0.060901
#
#
# Mechanical properties :
#
#
# Convention : Reuss Voigt Hill
#
# Bulk Modulus (GPa) = 39.61062 56.82600 48.21831
# Shear Modulus (GPa) = 25.86803 33.11600 29.49202
#
# Velocity S-wave (km/s) = 3.31917 3.75549 3.54405
# Velocity P-wave (km/s) = 5.61773 6.55793 6.10595
#
# Compressibility (1/GPa) = 0.02524575
#
# Stress axis : x y z
#
# Youngs Moduli (GPa) = 65.53707 129.33256 99.60148
#
# Poissons Ratio (x) = 0.14350 -0.15656
# Poissons Ratio (y) = 0.07272 0.43374
# Poissons Ratio (z) = -0.10302 0.56321
#
# Static dielectric constant tensor:
#      x y z
#    x 2.962940 0.000000 0.000000 
#    y 0.000000 1.863660 0.000000 
#    z 0.000000 0.000000 1.858970 
# 
# From -- ./inp_files/76531.got.cif
#   From: 2010.05.17/outbox.cif.g08.bks.cpg/sg65_39_cif.got.tgz:76531.got - 2010.06.03 17:01:31.
