data_PCOD9488595
_publ_section_title
;
Structure prediction by ZEFSAII (Michael W. Deem and Ramdas Pophale) SiO2 
 PCOD9488595
Probable space group: C M M M
;
_chemical_formula_sum "Si O2"
_cell_formula_units_Z 120
_cell_length_a 8.879335
_cell_length_b 29.540317
_cell_length_c 26.775841
_cell_angle_alpha 90.000000
_cell_angle_beta 90.000000
_cell_angle_gamma 90.000000
_cell_volume 7023.259467
_symmetry_space_group_name_H-M "C M M M"
_symmetry_group_IT_number 65
_symmetry_cell_setting 'orthorhombic'
loop_
_space_group_symop_operation_xyz
x,y,z
-x,-y,z
x,-y,-z
-x,y,-z
-x,-y,-z
x,y,-z
-x,y,z
x,-y,z
1/2+x,1/2+y,z
1/2-x,1/2-y,z
1/2+x,1/2-y,-z
1/2-x,1/2+y,-z
1/2-x,1/2-y,-z
1/2+x,1/2+y,-z
1/2-x,1/2+y,z
1/2+x,1/2-y,z
loop_
_atom_site_type_symbol
_atom_site_label
_atom_site_fract_x
_atom_site_fract_y
_atom_site_fract_z
Si Si1 0.318808 0.635584 0.055228
Si Si2 0.318680 0.947444 0.604464
Si Si3 0.327227 0.445089 0.500000
Si Si4 0.180793 0.611813 0.699970
Si Si5 0.179465 0.552272 0.896694
Si Si6 0.180768 0.799774 0.258995
Si Si7 0.318891 0.700732 0.855574
Si Si8 0.676912 0.553944 0.788549
O O1 0.500000 0.631764 0.058339
O O2 0.246301 0.586805 0.063690
O O3 0.267383 0.667047 0.101018
O O4 0.281049 0.653458 0.000000
O O5 0.500000 0.947469 0.601675
O O6 0.253655 0.931831 0.551323
O O7 0.273297 0.914893 0.649749
O O8 0.271562 0.000000 0.613583
O O9 0.324135 0.500000 0.500000
O O10 0.500000 0.430246 0.500000
O O11 0.252145 0.661404 0.705930
O O12 0.238024 0.581932 0.746421
O O13 0.000000 0.614998 0.701023
O O14 0.213766 0.500000 0.908654
O O15 0.254556 0.562695 0.843104
O O16 0.000000 0.557123 0.892761
O O17 0.250000 0.750000 0.267821
O O18 0.219687 0.812963 0.201306
O O19 0.000000 0.797819 0.263085
O O20 0.500000 0.703536 0.857916
O O21 0.250000 0.750000 0.863922
O O22 0.500000 0.565828 0.788489
O O23 0.691464 0.500000 0.779055
#
# Coordination Sequence:
#
# PCOD9488595 Si02
#       8
#    16  16   8  16  16  16  16  16
#     4  10  21  36  53  74 100 128 159 197 243 297
#     4   9  18  32  49  71 104 145 182 215 255 302
#     4   9  17  29  47  71 100 137 182 227 261 293
#     4  11  21  32  50  77 107 138 173 213 257 304
#     4  10  21  36  53  72  95 126 165 207 248 293
#     4  10  20  35  54  75 101 133 170 212 257 306
#     4   9  19  35  54  75  98 125 158 196 241 296
#     4  10  20  33  50  73 102 135 168 203 248 304
#
# _framework density 17.086084
#
# number of rings (size 3 to 8) (size 9 to 14) (size 15 to 20)
#    0.000    2.200    0.000    3.000    0.000    6.933 
#    0.000    2.667    0.000    0.000    0.000    0.467 
#    0.000    0.000    0.000    0.000    0.000    0.000 
#
# Total GULP energy -334903.453895 kJ/mol
# GULP energy per Si atom -5581.724232 kJ/mol
# Density = 1.704720 g / cm^3
# Si number density = 17.086084 Si / 1000 Ang^3
#
#
#
# Elastic Constant Matrix: (Units=GPa)
#
#
# Indices 1 2 3 4 5 6 
#
# 1 35.1753 35.2833 33.9363 0.0000 0.0000 0.0000
# 2 35.2833 81.5568 71.3830 0.0000 0.0000 0.0000
# 3 33.9363 71.3830 95.2458 0.0000 0.0000 0.0000
# 4 0.0000 0.0000 0.0000 23.5152 0.0000 0.0000
# 5 0.0000 0.0000 0.0000 0.0000 19.3697 0.0000
# 6 0.0000 0.0000 0.0000 0.0000 0.0000 29.5888
#
#
#
# Elastic Compliance Matrix: (Units=1/GPa)
#
#
# Indices 1 2 3 4 5 6 
#
# 1 0.050952 -0.017886 -0.004750 0.000000 0.000000 0.000000
# 2 -0.017886 0.041919 -0.025044 0.000000 0.000000 0.000000
# 3 -0.004750 -0.025044 0.030961 0.000000 0.000000 0.000000
# 4 0.000000 0.000000 0.000000 0.042526 0.000000 0.000000
# 5 0.000000 0.000000 0.000000 0.000000 0.051627 0.000000
# 6 0.000000 0.000000 0.000000 0.000000 0.000000 0.033797
#
#
# Mechanical properties :
#
#
# Convention : Reuss Voigt Hill
#
# Bulk Modulus (GPa) = 35.12062 54.79812 44.95937
# Shear Modulus (GPa) = 14.02008 19.25310 16.63659
#
# Velocity S-wave (km/s) = 2.86764 3.36047 3.12379
# Velocity P-wave (km/s) = 5.61820 6.87011 6.27545
#
# Compressibility (1/GPa) = 0.02847330
#
# Stress axis : x y z
#
# Youngs Moduli (GPa) = 19.62618 23.85550 32.29890
#
# Poissons Ratio (x) = 0.42668 0.15341
# Poissons Ratio (y) = 0.35103 0.80889
# Poissons Ratio (z) = 0.09322 0.59743
#
# Static dielectric constant tensor:
#      x y z
#    x 1.568670 0.000000 0.000000 
#    y 0.000000 1.572000 0.000000 
#    z 0.000000 0.000000 1.569540 
# 
# From -- ./inp_files/73876.got.cif
#   From: 2010.05.17/outbox.cif.g08.bks.cpg/sg65_37_cif.got.tgz:73876.got - 2010.06.03 17:01:31.
