data_PCOD9488240
_publ_section_title
;
Structure prediction by ZEFSAII (Michael W. Deem and Ramdas Pophale) SiO2 
 PCOD9488240
Probable space group: C M M M
;
_chemical_formula_sum "Si O2"
_cell_formula_units_Z 88
_cell_length_a 18.315215
_cell_length_b 9.335918
_cell_length_c 29.441856
_cell_angle_alpha 90.000000
_cell_angle_beta 90.000000
_cell_angle_gamma 90.000000
_cell_volume 5034.243685
_symmetry_space_group_name_H-M "C M M M"
_symmetry_group_IT_number 65
_symmetry_cell_setting 'orthorhombic'
loop_
_space_group_symop_operation_xyz
x,y,z
-x,-y,z
x,-y,-z
-x,y,-z
-x,-y,-z
x,y,-z
-x,y,z
x,-y,z
1/2+x,1/2+y,z
1/2-x,1/2-y,z
1/2+x,1/2-y,-z
1/2-x,1/2+y,-z
1/2-x,1/2-y,-z
1/2+x,1/2+y,-z
1/2-x,1/2+y,z
1/2+x,1/2-y,z
loop_
_atom_site_type_symbol
_atom_site_label
_atom_site_fract_x
_atom_site_fract_y
_atom_site_fract_z
Si Si1 0.172864 0.827088 0.000000
Si Si2 0.088914 0.333271 0.718809
Si Si3 0.411875 0.334483 0.370486
Si Si4 0.914250 0.828669 0.090775
Si Si5 0.172567 0.669920 0.552312
Si Si6 0.411461 0.167732 0.180304
O O1 0.250000 0.750000 0.000000
O O2 0.128678 0.787289 0.045460
O O3 0.180905 0.000000 0.000000
O O4 0.109606 0.500000 0.712060
O O5 0.113099 0.235127 0.677187
O O6 0.113188 0.286106 0.769268
O O7 0.000000 0.330360 0.719096
O O8 0.500000 0.330697 0.371135
O O9 0.388795 0.500000 0.374166
O O10 0.381241 0.241455 0.411751
O O11 0.885648 0.755186 0.136714
O O12 0.000000 0.791948 0.085173
O O13 0.909698 0.000000 0.095853
O O14 0.147739 0.689192 0.500000
O O15 0.180535 0.500000 0.560397
O O16 0.250000 0.750000 0.556699
O O17 0.500000 0.179811 0.180515
O O18 0.393997 0.000000 0.175260
#
# Coordination Sequence:
#
# PCOD9488240 Si02
#       6
#     8  16  16  16  16  16
#     4  10  21  35  49  67  93 126 160 192 234 286
#     4   8  14  26  44  67  98 132 161 193 238 290
#     4  10  20  32  49  76 107 136 167 205 246 289
#     4   9  17  30  49  71  94 121 155 196 238 281
#     4  10  21  37  56  75  97 129 168 208 251 300
#     4   8  14  25  43  69  98 125 155 194 239 283
#
# _framework density 17.480281000000002
#
# number of rings (size 3 to 8) (size 9 to 14) (size 15 to 20)
#    0.000    2.909    0.000    2.455    0.000    5.091 
#    0.000    5.455    0.000    3.818    0.000    2.545 
#    0.000    0.000    0.000    0.000    0.000    0.000 
#
# Total GULP energy -245161.537996 kJ/mol
# GULP energy per Si atom -5571.853136 kJ/mol
# Density = 1.744050 g / cm^3
# Si number density = 17.480281 Si / 1000 Ang^3
#
#
#
# Elastic Constant Matrix: (Units=GPa)
#
#
# Indices 1 2 3 4 5 6 
#
# 1 23.4128 28.3437 44.6076 0.0000 0.0000 0.0000
# 2 28.3437 85.7313 93.1622 0.0000 0.0000 0.0000
# 3 44.6076 93.1622 179.3334 0.0000 0.0000 0.0000
# 4 0.0000 0.0000 0.0000 36.0807 0.0000 0.0000
# 5 0.0000 0.0000 0.0000 0.0000 -11.3884 0.0000
# 6 0.0000 0.0000 0.0000 0.0000 0.0000 21.9111
#
#
#
# Elastic Compliance Matrix: (Units=1/GPa)
#
#
# Indices 1 2 3 4 5 6 
#
# 1 0.086199 -0.011938 -0.015240 0.000000 0.000000 0.000000
# 2 -0.011938 0.028438 -0.011804 0.000000 0.000000 0.000000
# 3 -0.015240 -0.011804 0.015499 0.000000 0.000000 0.000000
# 4 0.000000 0.000000 0.000000 0.027716 0.000000 0.000000
# 5 0.000000 0.000000 0.000000 0.000000 -0.087809 0.000000
# 6 0.000000 0.000000 0.000000 0.000000 0.000000 0.045639
#
#
# Mechanical properties :
#
#
# Convention : Reuss Voigt Hill
#
# Bulk Modulus (GPa) = 19.16679 68.96716 44.06698
# Shear Modulus (GPa) = 23.69252 17.47827 20.58540
#
# Velocity S-wave (km/s) = 3.68555 3.16553 3.43539
# Velocity P-wave (km/s) = 5.39441 7.27328 6.40314
#
# Compressibility (1/GPa) = 0.05217358
#
# Stress axis : x y z
#
# Youngs Moduli (GPa) = 11.60102 35.16380 64.52008
#
# Poissons Ratio (x) = 0.41978 0.98327
# Poissons Ratio (y) = 0.13849 0.76160
# Poissons Ratio (z) = 0.17680 0.41508
#
# Static dielectric constant tensor:
#      x y z
#    x 1.579580 0.000000 0.000000 
#    y 0.000000 1.582740 0.000000 
#    z 0.000000 0.000000 1.603400 
# 
# From -- ./inp_files/73078.got.cif
#   From: 2010.05.17/outbox.cif.g08.bks.cpg/sg65_37_cif.got.tgz:73078.got - 2010.06.03 17:01:31.
