data_PCOD9488020
_publ_section_title
;
Structure prediction by ZEFSAII (Michael W. Deem and Ramdas Pophale) SiO2 
 PCOD9488020
Probable space group: C M M M
;
_chemical_formula_sum "Si O2"
_cell_formula_units_Z 80
_cell_length_a 8.998677
_cell_length_b 19.629806
_cell_length_c 26.581623
_cell_angle_alpha 90.000000
_cell_angle_beta 90.000000
_cell_angle_gamma 90.000000
_cell_volume 4695.438593
_symmetry_space_group_name_H-M "C M M M"
_symmetry_group_IT_number 65
_symmetry_cell_setting 'orthorhombic'
loop_
_space_group_symop_operation_xyz
x,y,z
-x,-y,z
x,-y,-z
-x,y,-z
-x,-y,-z
x,y,-z
-x,y,z
x,-y,z
1/2+x,1/2+y,z
1/2-x,1/2-y,z
1/2+x,1/2-y,-z
1/2-x,1/2+y,-z
1/2-x,1/2-y,-z
1/2+x,1/2+y,-z
1/2-x,1/2+y,z
1/2+x,1/2-y,z
loop_
_atom_site_type_symbol
_atom_site_label
_atom_site_fract_x
_atom_site_fract_y
_atom_site_fract_z
Si Si1 0.327189 0.916975 0.109330
Si Si2 0.181265 0.421004 0.000000
Si Si3 0.821350 0.323097 0.410843
Si Si4 0.822231 0.323432 0.705182
Si Si5 0.181222 0.577801 0.500000
Si Si6 0.175895 0.919020 0.212799
O O1 0.500000 0.897908 0.116456
O O2 0.233017 0.896642 0.157687
O O3 0.323502 0.000000 0.106859
O O4 0.274400 0.891623 0.054303
O O5 0.230222 0.500000 0.000000
O O6 0.000000 0.421539 0.000000
O O7 0.750000 0.250000 0.422650
O O8 0.784701 0.340772 0.352981
O O9 0.773154 0.379987 0.450642
O O10 0.000000 0.316500 0.414169
O O11 0.750000 0.250000 0.715762
O O12 0.759363 0.378113 0.743909
O O13 0.000000 0.318982 0.709327
O O14 0.233388 0.500000 0.500000
O O15 0.000000 0.576160 0.500000
O O16 0.000000 0.908395 0.216771
O O17 0.205857 0.000000 0.217297
#
# Coordination Sequence:
#
# PCOD9488020 Si02
#       6
#    16   8  16  16   8  16
#     4   8  13  23  40  62  89 122 159 197 238 285
#     4   7  10  18  35  59  86 117 154 195 236 279
#     4   9  18  32  52  74  95 124 159 196 236 280
#     4  10  20  34  52  73  96 125 164 205 244 289
#     4   9  17  30  49  75 104 129 156 192 232 275
#     4  10  20  32  46  68  99 131 162 200 246 291
#
# _framework density 17.037811999999999
#
# number of rings (size 3 to 8) (size 9 to 14) (size 15 to 20)
#    0.000    3.000    0.000    2.700    0.000    2.800 
#    0.000    2.500    0.000    4.200    0.000    0.700 
#    0.000    0.000    0.000    0.000    0.000    0.000 
#
# Total GULP energy -222791.315457 kJ/mol
# GULP energy per Si atom -5569.782886 kJ/mol
# Density = 1.699903 g / cm^3
# Si number density = 17.037812 Si / 1000 Ang^3
#
#
#
# Elastic Constant Matrix: (Units=GPa)
#
#
# Indices 1 2 3 4 5 6 
#
# 1 40.9503 38.2469 55.3362 0.0000 0.0000 0.0000
# 2 38.2469 67.3416 84.7116 0.0000 0.0000 0.0000
# 3 55.3362 84.7116 152.7699 0.0000 0.0000 0.0000
# 4 0.0000 0.0000 0.0000 -28.4881 0.0000 0.0000
# 5 0.0000 0.0000 0.0000 0.0000 13.4803 0.0000
# 6 0.0000 0.0000 0.0000 0.0000 0.0000 22.0419
#
#
#
# Elastic Compliance Matrix: (Units=1/GPa)
#
#
# Indices 1 2 3 4 5 6 
#
# 1 0.055253 -0.020515 -0.008638 0.000000 0.000000 0.000000
# 2 -0.020515 0.056712 -0.024016 0.000000 0.000000 0.000000
# 3 -0.008638 -0.024016 0.022992 0.000000 0.000000 0.000000
# 4 0.000000 0.000000 0.000000 -0.035102 0.000000 0.000000
# 5 0.000000 0.000000 0.000000 0.000000 0.074182 0.000000
# 6 0.000000 0.000000 0.000000 0.000000 0.000000 0.045368
#
#
# Mechanical properties :
#
#
# Convention : Reuss Voigt Hill
#
# Bulk Modulus (GPa) = 34.94257 68.62792 51.78525
# Shear Modulus (GPa) = 14.91275 6.92462 10.91869
#
# Velocity S-wave (km/s) = 2.96171 2.01819 2.53425
# Velocity P-wave (km/s) = 5.67882 6.76742 6.24688
#
# Compressibility (1/GPa) = 0.02861839
#
# Stress axis : x y z
#
# Youngs Moduli (GPa) = 18.09852 17.63288 43.49391
#
# Poissons Ratio (x) = 0.36174 0.37570
# Poissons Ratio (y) = 0.37129 1.04456
# Poissons Ratio (z) = 0.15633 0.42347
#
# Static dielectric constant tensor:
#      x y z
#    x 1.564340 0.000000 0.000000 
#    y 0.000000 1.551770 0.000000 
#    z 0.000000 0.000000 1.605100 
# 
# From -- ./inp_files/72930.got.cif
#   From: 2010.05.17/outbox.cif.g08.bks.cpg/sg65_37_cif.got.tgz:72930.got - 2010.06.03 17:01:31.
