data_PCOD9488403
_publ_section_title
;
Structure prediction by ZEFSAII (Michael W. Deem and Ramdas Pophale) SiO2 
 PCOD9488403
Probable space group: C M M M
;
_chemical_formula_sum "Si O2"
_cell_formula_units_Z 72
_cell_length_a 14.707716
_cell_length_b 32.319097
_cell_length_c 8.693035
_cell_angle_alpha 90.000000
_cell_angle_beta 90.000000
_cell_angle_gamma 90.000000
_cell_volume 4132.148127
_symmetry_space_group_name_H-M "C M M M"
_symmetry_group_IT_number 65
_symmetry_cell_setting 'orthorhombic'
loop_
_space_group_symop_operation_xyz
x,y,z
-x,-y,z
x,-y,-z
-x,y,-z
-x,-y,-z
x,y,-z
-x,y,z
x,-y,z
1/2+x,1/2+y,z
1/2-x,1/2-y,z
1/2+x,1/2-y,-z
1/2-x,1/2+y,-z
1/2-x,1/2-y,-z
1/2+x,1/2+y,-z
1/2-x,1/2+y,z
1/2+x,1/2-y,z
loop_
_atom_site_type_symbol
_atom_site_label
_atom_site_fract_x
_atom_site_fract_y
_atom_site_fract_z
Si Si1 0.699253 0.367445 0.315622
Si Si2 0.304945 0.452808 0.183022
Si Si3 0.000000 0.261343 0.685152
Si Si4 0.000000 0.165201 0.313850
Si Si5 0.689909 0.209535 0.815753
Si Si6 0.500000 0.548564 0.671654
O O1 0.698762 0.368232 0.500000
O O2 0.737305 0.411610 0.256421
O O3 0.594449 0.356730 0.265669
O O4 0.761139 0.330355 0.254436
O O5 0.280162 0.500000 0.234958
O O6 0.409390 0.445340 0.232305
O O7 0.295090 0.451903 0.000000
O O8 0.909763 0.282977 0.748038
O O9 0.000000 0.261964 0.500000
O O10 0.000000 0.213089 0.737178
O O11 0.000000 0.166114 0.500000
O O12 0.750000 0.250000 0.777238
O O13 0.685805 0.205801 0.000000
O O14 0.500000 0.500000 0.645095
O O15 0.500000 0.568743 0.500000
#
# Coordination Sequence:
#
# PCOD9488403 Si02
#       6
#    16  16   8   8  16   8
#     4  11  21  35  55  80 109 146 190 231 274 325
#     4  10  20  33  48  70 103 141 180 226 279 328
#     4  11  21  38  60  80 108 146 187 227 272 324
#     4   9  19  32  50  77 108 142 184 230 271 316
#     4  11  23  38  56  82 114 145 181 225 276 330
#     4   9  16  27  44  66  95 134 179 222 263 316
#
# _framework density 17.424351000000001
#
# number of rings (size 3 to 8) (size 9 to 14) (size 15 to 20)
#    0.000    1.667    2.222    3.333    0.000    4.444 
#    0.000    1.667    0.000    0.000    0.000    0.778 
#    0.000    6.222    0.000    0.000    0.000    0.000 
#
# Total GULP energy -200731.228149 kJ/mol
# GULP energy per Si atom -5575.867449 kJ/mol
# Density = 1.738469 g / cm^3
# Si number density = 17.424351 Si / 1000 Ang^3
#
#
#
# Elastic Constant Matrix: (Units=GPa)
#
#
# Indices 1 2 3 4 5 6 
#
# 1 91.9339 61.2555 32.2631 0.0000 0.0000 0.0000
# 2 61.2555 192.9481 52.6568 0.0000 0.0000 0.0000
# 3 32.2631 52.6568 59.2624 0.0000 0.0000 0.0000
# 4 0.0000 0.0000 0.0000 28.7595 0.0000 0.0000
# 5 0.0000 0.0000 0.0000 0.0000 20.7652 0.0000
# 6 0.0000 0.0000 0.0000 0.0000 0.0000 30.1691
#
#
#
# Elastic Compliance Matrix: (Units=1/GPa)
#
#
# Indices 1 2 3 4 5 6 
#
# 1 0.014902 -0.003323 -0.005161 0.000000 0.000000 0.000000
# 2 -0.003323 0.007583 -0.004929 0.000000 0.000000 0.000000
# 3 -0.005161 -0.004929 0.024063 0.000000 0.000000 0.000000
# 4 0.000000 0.000000 0.000000 0.034771 0.000000 0.000000
# 5 0.000000 0.000000 0.000000 0.000000 0.048158 0.000000
# 6 0.000000 0.000000 0.000000 0.000000 0.000000 0.033146
#
#
# Mechanical properties :
#
#
# Convention : Reuss Voigt Hill
#
# Bulk Modulus (GPa) = 50.69965 70.72168 60.71066
# Shear Modulus (GPa) = 25.50743 29.13671 27.32207
#
# Velocity S-wave (km/s) = 3.83024 4.09367 3.96414
# Velocity P-wave (km/s) = 6.98005 7.93852 7.47467
#
# Compressibility (1/GPa) = 0.01972400
#
# Stress axis : x y z
#
# Youngs Moduli (GPa) = 67.10344 131.88052 41.55792
#
# Poissons Ratio (x) = 0.43820 0.21447
# Poissons Ratio (y) = 0.22296 0.20482
# Poissons Ratio (z) = 0.34630 0.64998
#
# Static dielectric constant tensor:
#      x y z
#    x 1.612320 0.000000 0.000000 
#    y 0.000000 1.654490 0.000000 
#    z 0.000000 0.000000 1.587240 
# 
# From -- ./inp_files/7730.got.cif
#   From: 2010.05.17/outbox.cif.g08.bks.cpg/sg65_4_cif.got.tgz:7730.got - 2010.06.03 17:01:31.
