data_PCOD9488385
_publ_section_title
;
Structure prediction by ZEFSAII (Michael W. Deem and Ramdas Pophale) SiO2 
 PCOD9488385
Probable space group: C M M M
;
_chemical_formula_sum "Si O2"
_cell_formula_units_Z 92
_cell_length_a 23.984893
_cell_length_b 29.181333
_cell_length_c 7.474769
_cell_angle_alpha 90.000000
_cell_angle_beta 90.000000
_cell_angle_gamma 90.000000
_cell_volume 5231.674164
_symmetry_space_group_name_H-M "C M M M"
_symmetry_group_IT_number 65
_symmetry_cell_setting 'orthorhombic'
loop_
_space_group_symop_operation_xyz
x,y,z
-x,-y,z
x,-y,-z
-x,y,-z
-x,-y,-z
x,y,-z
-x,y,z
x,-y,z
1/2+x,1/2+y,z
1/2-x,1/2-y,z
1/2+x,1/2-y,-z
1/2-x,1/2+y,-z
1/2-x,1/2-y,-z
1/2+x,1/2+y,-z
1/2-x,1/2+y,z
1/2+x,1/2-y,z
loop_
_atom_site_type_symbol
_atom_site_label
_atom_site_fract_x
_atom_site_fract_y
_atom_site_fract_z
Si Si1 0.258823 0.925801 0.291714
Si Si2 0.163658 0.765638 0.214737
Si Si3 0.937030 0.825181 0.288042
Si Si4 0.063831 0.000000 0.784849
Si Si5 0.633355 0.410040 0.708028
Si Si6 0.770422 0.322906 0.783083
Si Si7 0.292765 0.000000 0.000000
O O1 0.258425 0.941200 0.500000
O O2 0.194665 0.921381 0.221111
O O3 0.280837 0.873700 0.285097
O O4 0.289321 0.959991 0.158186
O O5 0.102033 0.781008 0.266001
O O6 0.185424 0.715950 0.273918
O O7 0.209724 0.803236 0.274658
O O8 0.166393 0.765418 0.000000
O O9 0.942230 0.833622 0.500000
O O10 0.901147 0.867701 0.211592
O O11 0.000000 0.821874 0.216547
O O12 0.095668 0.954954 0.721749
O O13 0.000000 0.000000 0.723982
O O14 0.064574 0.000000 0.000000
O O15 0.643338 0.398959 0.500000
O O16 0.770223 0.324654 0.000000
#
# Coordination Sequence:
#
# PCOD9488385 Si02
#       7
#    16  16  16   8  16  16   4
#     4  11  22  35  54  79  98 132 177 210 261 323
#     4   9  18  31  52  75 100 130 167 208 258 316
#     4  10  20  33  48  68  97 132 168 212 265 307
#     4  11  24  35  45  62  80 111 164 219 270 314
#     4  10  21  35  49  64  85 122 173 219 261 310
#     4   9  17  33  53  76 101 130 163 212 266 306
#     4  12  24  36  52  70 111 138 157 220 276 302
#
# _framework density 17.585193
#
# number of rings (size 3 to 8) (size 9 to 14) (size 15 to 20)
#    0.000    2.000    2.609    2.609    2.435    4.522 
#    0.000    1.739    0.000    0.000    0.000    0.000 
#    0.000    0.000    0.000    1.565    0.000    6.609 
#
# Total GULP energy -256195.649136 kJ/mol
# GULP energy per Si atom -5569.470633 kJ/mol
# Density = 1.754517 g / cm^3
# Si number density = 17.585193 Si / 1000 Ang^3
#
#
#
# Elastic Constant Matrix: (Units=GPa)
#
#
# Indices 1 2 3 4 5 6 
#
# 1 32.3590 15.8852 -5.5669 0.0000 0.0000 0.0000
# 2 15.8852 109.8904 10.1864 0.0000 0.0000 0.0000
# 3 -5.5669 10.1864 80.2452 0.0000 0.0000 0.0000
# 4 0.0000 0.0000 0.0000 27.3582 0.0000 0.0000
# 5 0.0000 0.0000 0.0000 0.0000 13.0552 0.0000
# 6 0.0000 0.0000 0.0000 0.0000 0.0000 8.1436
#
#
#
# Elastic Compliance Matrix: (Units=1/GPa)
#
#
# Indices 1 2 3 4 5 6 
#
# 1 0.033970 -0.005190 0.003015 0.000000 0.000000 0.000000
# 2 -0.005190 0.010001 -0.001630 0.000000 0.000000 0.000000
# 3 0.003015 -0.001630 0.012878 0.000000 0.000000 0.000000
# 4 0.000000 0.000000 0.000000 0.036552 0.000000 0.000000
# 5 0.000000 0.000000 0.000000 0.000000 0.076598 0.000000
# 6 0.000000 0.000000 0.000000 0.000000 0.000000 0.122796
#
#
# Mechanical properties :
#
#
# Convention : Reuss Voigt Hill
#
# Bulk Modulus (GPa) = 20.30843 29.27820 24.79332
# Shear Modulus (GPa) = 15.78199 23.17740 19.47969
#
# Velocity S-wave (km/s) = 2.99901 3.63437 3.33187
# Velocity P-wave (km/s) = 4.85446 5.85637 5.37879
#
# Compressibility (1/GPa) = 0.04924063
#
# Stress axis : x y z
#
# Youngs Moduli (GPa) = 29.43784 99.98717 77.65264
#
# Poissons Ratio (x) = 0.51894 -0.23416
# Poissons Ratio (y) = 0.15278 0.12654
# Poissons Ratio (z) = -0.08877 0.16294
#
# Static dielectric constant tensor:
#      x y z
#    x 1.595840 0.000000 0.000000 
#    y 0.000000 1.609920 0.000000 
#    z 0.000000 0.000000 1.661150 
# 
# From -- ./inp_files/16944.got.cif
#   From: 2010.05.17/outbox.cif.g08.bks.cpg/sg65_9_cif.got.tgz:16944.got - 2010.06.03 17:01:31.
