data_PCOD9488083
_publ_section_title
;
Structure prediction by ZEFSAII (Michael W. Deem and Ramdas Pophale) SiO2 
 PCOD9488083
Probable space group: C M M M
;
_chemical_formula_sum "Si O2"
_cell_formula_units_Z 88
_cell_length_a 7.540965
_cell_length_b 19.324910
_cell_length_c 29.746002
_cell_angle_alpha 90.000000
_cell_angle_beta 90.000000
_cell_angle_gamma 90.000000
_cell_volume 4334.839358
_symmetry_space_group_name_H-M "C M M M"
_symmetry_group_IT_number 65
_symmetry_cell_setting 'orthorhombic'
loop_
_space_group_symop_operation_xyz
x,y,z
-x,-y,z
x,-y,-z
-x,y,-z
-x,-y,-z
x,y,-z
-x,y,z
x,-y,z
1/2+x,1/2+y,z
1/2-x,1/2-y,z
1/2+x,1/2-y,-z
1/2-x,1/2+y,-z
1/2-x,1/2-y,-z
1/2+x,1/2+y,-z
1/2-x,1/2+y,z
1/2+x,1/2-y,z
loop_
_atom_site_type_symbol
_atom_site_label
_atom_site_fract_x
_atom_site_fract_y
_atom_site_fract_z
Si Si1 0.287607 0.079096 0.718133
Si Si2 0.212931 0.921063 0.818933
Si Si3 0.213217 0.168381 0.902225
Si Si4 0.287148 0.831099 0.634636
Si Si5 0.283717 0.079647 0.449213
Si Si6 0.287676 0.332224 0.000000
O O1 0.500000 0.075377 0.713455
O O2 0.251629 0.104680 0.768631
O O3 0.219872 0.128683 0.678807
O O4 0.219255 0.000000 0.714241
O O5 0.281205 0.873948 0.859492
O O6 0.000000 0.923571 0.822881
O O7 0.280037 0.000000 0.822093
O O8 0.250000 0.250000 0.897677
O O9 0.279871 0.143200 0.951343
O O10 0.000000 0.160988 0.903081
O O11 0.500000 0.838709 0.634420
O O12 0.250000 0.750000 0.635569
O O13 0.221253 0.868798 0.589448
O O14 0.226686 0.097263 0.500000
O O15 0.500000 0.080781 0.449357
O O16 0.232659 0.000000 0.439657
O O17 0.250000 0.250000 0.000000
O O18 0.500000 0.342485 0.000000
#
# Coordination Sequence:
#
# PCOD9488083 Si02
#       6
#    16  16  16  16  16   8
#     4   9  18  33  51  67  85 116 157 193 222 259
#     4   9  18  32  48  67  92 119 147 183 228 273
#     4   9  17  29  46  67  90 117 149 184 221 263
#     4  10  20  32  47  70  98 123 149 186 230 272
#     4   8  14  27  49  73  93 118 156 195 225 259
#     4   8  14  26  43  63  87 115 147 180 216 260
#
# _framework density 20.300636000000001
#
# number of rings (size 3 to 8) (size 9 to 14) (size 15 to 20)
#    0.000    3.091    0.000    1.091    0.000    4.727 
#    0.000    4.091    0.000    4.364    0.000    1.273 
#    0.000   10.182    0.000    0.000    0.000    0.000 
#
# Total GULP energy -245321.210487 kJ/mol
# GULP energy per Si atom -5575.482057 kJ/mol
# Density = 2.025443 g / cm^3
# Si number density = 20.300636 Si / 1000 Ang^3
#
#
#
# Elastic Constant Matrix: (Units=GPa)
#
#
# Indices 1 2 3 4 5 6 
#
# 1 51.2979 0.9936 6.6125 0.0000 0.0000 0.0000
# 2 0.9936 99.4424 128.4287 0.0000 0.0000 0.0000
# 3 6.6125 128.4287 249.6165 0.0000 0.0000 0.0000
# 4 0.0000 0.0000 0.0000 36.5581 0.0000 0.0000
# 5 0.0000 0.0000 0.0000 0.0000 15.7173 0.0000
# 6 0.0000 0.0000 0.0000 0.0000 0.0000 17.1524
#
#
#
# Elastic Compliance Matrix: (Units=1/GPa)
#
#
# Indices 1 2 3 4 5 6 
#
# 1 0.019628 0.001417 -0.001249 0.000000 0.000000 0.000000
# 2 0.001417 0.030073 -0.015510 0.000000 0.000000 0.000000
# 3 -0.001249 -0.015510 0.012019 0.000000 0.000000 0.000000
# 4 0.000000 0.000000 0.000000 0.027354 0.000000 0.000000
# 5 0.000000 0.000000 0.000000 0.000000 0.063624 0.000000
# 6 0.000000 0.000000 0.000000 0.000000 0.000000 0.058301
#
#
# Mechanical properties :
#
#
# Convention : Reuss Voigt Hill
#
# Bulk Modulus (GPa) = 32.22131 74.71405 53.46768
# Shear Modulus (GPa) = 19.83896 31.50703 25.67299
#
# Velocity S-wave (km/s) = 3.12950 3.94384 3.56004
# Velocity P-wave (km/s) = 5.38191 7.59093 6.57979
#
# Compressibility (1/GPa) = 0.03103536
#
# Stress axis : x y z
#
# Youngs Moduli (GPa) = 50.94890 33.25191 83.19870
#
# Poissons Ratio (x) = -0.04711 0.10391
# Poissons Ratio (y) = -0.07219 1.29045
# Poissons Ratio (z) = 0.06363 0.51575
#
# Static dielectric constant tensor:
#      x y z
#    x 1.737220 0.000000 0.000000 
#    y 0.000000 1.679620 0.000000 
#    z 0.000000 0.000000 1.743830 
# 
# From -- ./inp_files/74232.got.cif
#   From: 2010.05.17/outbox.cif.g08.bks.cpg/sg65_38_cif.got.tgz:74232.got - 2010.06.03 17:01:31.
