data_PCOD9488127
_publ_section_title
;
Structure prediction by ZEFSAII (Michael W. Deem and Ramdas Pophale) SiO2 
 PCOD9488127
Probable space group: C M M M
;
_chemical_formula_sum "Si O2"
_cell_formula_units_Z 116
_cell_length_a 29.368062
_cell_length_b 7.424017
_cell_length_c 26.587986
_cell_angle_alpha 90.000000
_cell_angle_beta 90.000000
_cell_angle_gamma 90.000000
_cell_volume 5796.951775
_symmetry_space_group_name_H-M "C M M M"
_symmetry_group_IT_number 65
_symmetry_cell_setting 'orthorhombic'
loop_
_space_group_symop_operation_xyz
x,y,z
-x,-y,z
x,-y,-z
-x,y,-z
-x,-y,-z
x,y,-z
-x,y,z
x,-y,z
1/2+x,1/2+y,z
1/2-x,1/2-y,z
1/2+x,1/2-y,-z
1/2-x,1/2+y,-z
1/2-x,1/2-y,-z
1/2+x,1/2+y,-z
1/2-x,1/2+y,z
1/2+x,1/2-y,z
loop_
_atom_site_type_symbol
_atom_site_label
_atom_site_fract_x
_atom_site_fract_y
_atom_site_fract_z
Si Si1 0.697221 0.213817 0.896420
Si Si2 0.693255 0.500000 0.500000
Si Si3 0.553297 0.281479 0.151120
Si Si4 0.696868 0.784717 0.783417
Si Si5 0.606445 0.708589 0.054743
Si Si6 0.642784 0.789053 0.687928
Si Si7 0.801142 0.283907 0.407390
Si Si8 0.551869 0.283022 0.263149
O O1 0.750000 0.250000 0.907939
O O2 0.687373 0.285228 0.839787
O O3 0.660264 0.287672 0.934699
O O4 0.691320 0.000000 0.896023
O O5 0.694168 0.341018 0.456069
O O6 0.500000 0.238871 0.144350
O O7 0.557133 0.500000 0.152197
O O8 0.582307 0.212614 0.104207
O O9 0.566608 0.219144 0.207189
O O10 0.750000 0.750000 0.773077
O O11 0.666791 0.710937 0.737856
O O12 0.690213 0.000000 0.786066
O O13 0.591828 0.500000 0.052812
O O14 0.596200 0.788607 0.000000
O O15 0.663232 0.724516 0.635500
O O16 0.589072 0.770236 0.696132
O O17 0.654383 0.000000 0.687828
O O18 0.805746 0.500000 0.418394
O O19 0.750000 0.250000 0.387230
O O20 0.500000 0.222088 0.272173
O O21 0.550784 0.500000 0.261766
#
# Coordination Sequence:
#
# PCOD9488127 Si02
#       8
#    16   4  16  16  16  16  16  16
#     4  10  20  34  52  70  92 128 170 210 259 319
#     4  12  24  40  62  82 121 168 199 248 276 318
#     4   8  15  30  51  76 103 132 169 211 259 322
#     4   9  18  32  49  72 103 135 167 206 260 321
#     4  10  20  32  48  71  97 126 166 216 266 313
#     4  10  21  34  50  80 115 141 177 224 269 325
#     4  11  23  37  58  87 118 159 204 239 281 327
#     4   9  18  32  53  78 105 139 177 216 266 330
#
# _framework density 20.010517
#
# number of rings (size 3 to 8) (size 9 to 14) (size 15 to 20)
#    0.000    2.345    0.690    2.897    0.966    2.207 
#    0.000    1.379    0.000    1.241    0.000    1.931 
#    0.000    2.207    0.000    0.000    0.000    0.000 
#
# Total GULP energy -323204.606802 kJ/mol
# GULP energy per Si atom -5572.493221 kJ/mol
# Density = 1.996497 g / cm^3
# Si number density = 20.010517 Si / 1000 Ang^3
#
#
#
# Elastic Constant Matrix: (Units=GPa)
#
#
# Indices 1 2 3 4 5 6 
#
# 1 77.6630 -1.3835 78.1970 0.0000 0.0000 0.0000
# 2 -1.3835 88.9481 13.9824 0.0000 0.0000 0.0000
# 3 78.1970 13.9824 115.7147 0.0000 0.0000 0.0000
# 4 0.0000 0.0000 0.0000 -17.0988 0.0000 0.0000
# 5 0.0000 0.0000 0.0000 0.0000 -6.4850 0.0000
# 6 0.0000 0.0000 0.0000 0.0000 0.0000 12.7340
#
#
#
# Elastic Compliance Matrix: (Units=1/GPa)
#
#
# Indices 1 2 3 4 5 6 
#
# 1 0.042599 0.005288 -0.029426 0.000000 0.000000 0.000000
# 2 0.005288 0.012117 -0.005038 0.000000 0.000000 0.000000
# 3 -0.029426 -0.005038 0.029136 0.000000 0.000000 0.000000
# 4 0.000000 0.000000 0.000000 -0.058484 0.000000 0.000000
# 5 0.000000 0.000000 0.000000 0.000000 -0.154202 0.000000
# 6 0.000000 0.000000 0.000000 0.000000 0.000000 0.078530
#
#
# Mechanical properties :
#
#
# Convention : Reuss Voigt Hill
#
# Bulk Modulus (GPa) = 39.21528 51.54639 45.38083
# Shear Modulus (GPa) = 302.17062 10.59872 156.38467
#
# Velocity S-wave (km/s) = 12.30178 2.30393 8.84991
# Velocity P-wave (km/s) = 14.88013 5.73524 11.27633
#
# Compressibility (1/GPa) = 0.02550026
#
# Stress axis : x y z
#
# Youngs Moduli (GPa) = 23.47479 82.53078 34.32163
#
# Poissons Ratio (x) = -0.43645 1.00996
# Poissons Ratio (y) = -0.12414 0.17291
# Poissons Ratio (z) = 0.69077 0.41577
#
# Static dielectric constant tensor:
#      x y z
#    x 1.708250 0.000000 0.000000 
#    y 0.000000 1.670210 0.000000 
#    z 0.000000 0.000000 1.713320 
# 
# From -- ./inp_files/72249.got.cif
#   From: 2010.05.17/outbox.cif.g08.bks.cpg/sg65_37_cif.got.tgz:72249.got - 2010.06.03 17:01:31.
