data_PCOD9488445
_publ_section_title
;
Structure prediction by ZEFSAII (Michael W. Deem and Ramdas Pophale) SiO2 
 PCOD9488445
Probable space group: C M M M
;
_chemical_formula_sum "Si O2"
_cell_formula_units_Z 72
_cell_length_a 33.010179
_cell_length_b 8.441438
_cell_length_c 14.013545
_cell_angle_alpha 90.000000
_cell_angle_beta 90.000000
_cell_angle_gamma 90.000000
_cell_volume 3904.921672
_symmetry_space_group_name_H-M "C M M M"
_symmetry_group_IT_number 65
_symmetry_cell_setting 'orthorhombic'
loop_
_space_group_symop_operation_xyz
x,y,z
-x,-y,z
x,-y,-z
-x,y,-z
-x,-y,-z
x,y,-z
-x,y,z
x,-y,z
1/2+x,1/2+y,z
1/2-x,1/2-y,z
1/2+x,1/2-y,-z
1/2-x,1/2+y,-z
1/2-x,1/2-y,-z
1/2+x,1/2+y,-z
1/2-x,1/2+y,z
1/2+x,1/2-y,z
loop_
_atom_site_type_symbol
_atom_site_label
_atom_site_fract_x
_atom_site_fract_y
_atom_site_fract_z
Si Si1 0.332405 0.691506 0.107871
Si Si2 0.500000 0.693842 0.110420
Si Si3 0.876818 0.691487 0.392508
Si Si4 0.793390 0.311216 0.703289
Si Si5 0.916417 0.809036 0.794953
O O1 0.330926 0.500000 0.109580
O O2 0.302535 0.755041 0.188859
O O3 0.377825 0.740114 0.140505
O O4 0.323886 0.744407 0.000000
O O5 0.500000 0.500000 0.111578
O O6 0.458981 0.746705 0.162529
O O7 0.500000 0.742115 0.000000
O O8 0.885599 0.744661 0.500000
O O9 0.877212 0.500000 0.391142
O O10 0.831738 0.743852 0.359634
O O11 0.907273 0.751735 0.311758
O O12 0.792997 0.500000 0.701448
O O13 0.750000 0.250000 0.670407
O O14 0.916827 0.000000 0.795356
#
# Coordination Sequence:
#
# PCOD9488445 Si02
#       5
#    16   8  16  16  16
#     4   9  17  30  48  69  95 128 163 197 235 282
#     4   9  16  28  50  79 108 134 159 193 238 283
#     4   9  19  36  54  70  93 127 162 197 242 291
#     4  10  20  33  49  70  95 122 156 199 243 288
#     4   9  17  30  50  76 101 126 161 201 238 280
#
# _framework density 18.438271
#
# number of rings (size 3 to 8) (size 9 to 14) (size 15 to 20)
#    0.000    2.778    0.000    1.333    0.000    5.333 
#    0.000    1.111    0.000    6.000    0.000    0.000 
#    0.000    0.000    0.000    0.000    0.000    0.000 
#
# Total GULP energy -200789.424462 kJ/mol
# GULP energy per Si atom -5577.484013 kJ/mol
# Density = 1.839630 g / cm^3
# Si number density = 18.438271 Si / 1000 Ang^3
#
#
#
# Elastic Constant Matrix: (Units=GPa)
#
#
# Indices 1 2 3 4 5 6 
#
# 1 105.3090 9.0026 37.9572 0.0000 0.0000 0.0000
# 2 9.0026 3.8155 9.0104 0.0000 0.0000 0.0000
# 3 37.9572 9.0104 117.5355 0.0000 0.0000 0.0000
# 4 0.0000 0.0000 0.0000 16.9983 0.0000 0.0000
# 5 0.0000 0.0000 0.0000 0.0000 8.8011 0.0000
# 6 0.0000 0.0000 0.0000 0.0000 0.0000 14.8645
#
#
#
# Elastic Compliance Matrix: (Units=1/GPa)
#
#
# Indices 1 2 3 4 5 6 
#
# 1 0.012320 -0.024021 -0.002137 0.000000 0.000000 0.000000
# 2 -0.024021 0.366865 -0.020367 0.000000 0.000000 0.000000
# 3 -0.002137 -0.020367 0.010760 0.000000 0.000000 0.000000
# 4 0.000000 0.000000 0.000000 0.058829 0.000000 0.000000
# 5 0.000000 0.000000 0.000000 0.000000 0.113622 0.000000
# 6 0.000000 0.000000 0.000000 0.000000 0.000000 0.067274
#
#
# Mechanical properties :
#
#
# Convention : Reuss Voigt Hill
#
# Bulk Modulus (GPa) = 3.36821 37.62226 20.49523
# Shear Modulus (GPa) = 6.08506 19.51211 12.79859
#
# Velocity S-wave (km/s) = 1.81863 3.25659 2.63750
# Velocity P-wave (km/s) = 2.49811 5.88126 4.51829
#
# Compressibility (1/GPa) = 0.29689387
#
# Stress axis : x y z
#
# Youngs Moduli (GPa) = 81.17104 2.72580 92.94083
#
# Poissons Ratio (x) = 0.06548 0.19862
# Poissons Ratio (y) = 1.94985 1.89289
# Poissons Ratio (z) = 0.17347 0.05552
#
# Static dielectric constant tensor:
#      x y z
#    x 1.629640 0.000000 0.000000 
#    y 0.000000 1.636320 0.000000 
#    z 0.000000 0.000000 1.620340 
# 
# From -- ./inp_files/36548.got.cif
#   From: 2010.05.17/outbox.cif.g08.bks.cpg/sg65_19_cif.got.tgz:36548.got - 2010.06.03 17:01:31.
