data_PCOD9488998
_publ_section_title
;
Structure prediction by ZEFSAII (Michael W. Deem and Ramdas Pophale) SiO2 
 PCOD9488998
Probable space group: C M M M
;
_chemical_formula_sum "Si O2"
_cell_formula_units_Z 72
_cell_length_a 18.384454
_cell_length_b 23.092149
_cell_length_c 7.428220
_cell_angle_alpha 90.000000
_cell_angle_beta 90.000000
_cell_angle_gamma 90.000000
_cell_volume 3153.550899
_symmetry_space_group_name_H-M "C M M M"
_symmetry_group_IT_number 65
_symmetry_cell_setting 'orthorhombic'
loop_
_space_group_symop_operation_xyz
x,y,z
-x,-y,z
x,-y,-z
-x,y,-z
-x,-y,-z
x,y,-z
-x,y,z
x,-y,z
1/2+x,1/2+y,z
1/2-x,1/2-y,z
1/2+x,1/2-y,-z
1/2-x,1/2+y,-z
1/2-x,1/2-y,-z
1/2+x,1/2+y,-z
1/2-x,1/2+y,z
1/2+x,1/2-y,z
loop_
_atom_site_type_symbol
_atom_site_label
_atom_site_fract_x
_atom_site_fract_y
_atom_site_fract_z
Si Si1 0.420169 0.759441 0.719665
Si Si2 0.192691 0.163836 0.279904
Si Si3 0.351702 0.125422 0.714835
Si Si4 0.917979 0.934733 0.280852
Si Si5 0.082344 0.500000 0.788128
O O1 0.420556 0.756683 0.500000
O O2 0.500000 0.737820 0.777328
O O3 0.350338 0.721670 0.776751
O O4 0.409075 0.826005 0.775430
O O5 0.195824 0.166401 0.500000
O O6 0.273149 0.147176 0.217178
O O7 0.140067 0.111778 0.224135
O O8 0.348117 0.130566 0.500000
O O9 0.374769 0.059357 0.746864
O O10 0.918212 0.934286 0.500000
O O11 0.000000 0.920897 0.223710
O O12 0.900391 0.000000 0.224410
O O13 0.000000 0.500000 0.708926
O O14 0.074314 0.500000 0.000000
#
# Coordination Sequence:
#
# PCOD9488998 Si02
#       5
#    16  16  16  16   8
#     4   9  16  27  45  72 108 146 177 209 256 312
#     4   9  16  25  42  70 107 141 170 206 257 310
#     4  10  20  33  54  82 109 135 171 220 267 309
#     4   8  13  20  31  52  90 138 177 205 241 296
#     4  11  25  43  59  75 100 137 178 216 259 313
#
# _framework density 22.831406000000001
#
# number of rings (size 3 to 8) (size 9 to 14) (size 15 to 20)
#    0.000    2.778    0.000    3.000    1.556    7.111 
#    0.000    0.000    0.000    2.667    0.000    0.000 
#    0.000    6.222    0.000    0.000    0.000    0.000 
#
# Total GULP energy -200930.501814 kJ/mol
# GULP energy per Si atom -5581.402828 kJ/mol
# Density = 2.277944 g / cm^3
# Si number density = 22.831406 Si / 1000 Ang^3
#
#
#
# Elastic Constant Matrix: (Units=GPa)
#
#
# Indices 1 2 3 4 5 6 
#
# 1 143.3343 107.4355 5.1432 0.0000 0.0000 0.0000
# 2 107.4355 148.7669 -0.2863 0.0000 0.0000 0.0000
# 3 5.1432 -0.2863 69.1443 0.0000 0.0000 0.0000
# 4 0.0000 0.0000 0.0000 -52.4635 0.0000 0.0000
# 5 0.0000 0.0000 0.0000 0.0000 -267.3105 0.0000
# 6 0.0000 0.0000 0.0000 0.0000 0.0000 152.2031
#
#
#
# Elastic Compliance Matrix: (Units=1/GPa)
#
#
# Indices 1 2 3 4 5 6 
#
# 1 0.015306 -0.011056 -0.001184 0.000000 0.000000 0.000000
# 2 -0.011056 0.014708 0.000883 0.000000 0.000000 0.000000
# 3 -0.001184 0.000883 0.014554 0.000000 0.000000 0.000000
# 4 0.000000 0.000000 0.000000 -0.019061 0.000000 0.000000
# 5 0.000000 0.000000 0.000000 0.000000 -0.003741 0.000000
# 6 0.000000 0.000000 0.000000 0.000000 0.000000 0.006570
#
#
# Mechanical properties :
#
#
# Convention : Reuss Voigt Hill
#
# Bulk Modulus (GPa) = 45.75745 65.09225 55.42485
# Shear Modulus (GPa) = 85.71127 -16.91730 34.39699
#
# Velocity S-wave (km/s) = 6.13371 -2.72502 3.88566
# Velocity P-wave (km/s) = 8.38142 4.32098 6.66780
#
# Compressibility (1/GPa) = 0.02185436
#
# Stress axis : x y z
#
# Youngs Moduli (GPa) = 65.33330 67.99046 68.70847
#
# Poissons Ratio (x) = 0.75170 0.08137
# Poissons Ratio (y) = 0.72232 -0.06069
# Poissons Ratio (z) = 0.07737 -0.06005
#
# Static dielectric constant tensor:
#      x y z
#    x 1.846010 0.000000 0.000000 
#    y 0.000000 1.857880 0.000000 
#    z 0.000000 0.000000 1.900760 
# 
# From -- ./inp_files/9257.got.cif
#   From: 2010.05.17/outbox.cif.g08.bks.cpg/sg65_5_cif.got.tgz:9257.got - 2010.06.03 17:01:31.
