data_PCOD9488872
_publ_section_title
;
Structure prediction by ZEFSAII (Michael W. Deem and Ramdas Pophale) SiO2 
 PCOD9488872
Probable space group: C M M M
;
_chemical_formula_sum "Si O2"
_cell_formula_units_Z 96
_cell_length_a 8.683470
_cell_length_b 19.294943
_cell_length_c 31.523976
_cell_angle_alpha 90.000000
_cell_angle_beta 90.000000
_cell_angle_gamma 90.000000
_cell_volume 5281.749457
_symmetry_space_group_name_H-M "C M M M"
_symmetry_group_IT_number 65
_symmetry_cell_setting 'orthorhombic'
loop_
_space_group_symop_operation_xyz
x,y,z
-x,-y,z
x,-y,-z
-x,y,-z
-x,-y,-z
x,y,-z
-x,y,z
x,-y,z
1/2+x,1/2+y,z
1/2-x,1/2-y,z
1/2+x,1/2-y,-z
1/2-x,1/2+y,-z
1/2-x,1/2-y,-z
1/2+x,1/2+y,-z
1/2-x,1/2+y,z
1/2+x,1/2-y,z
loop_
_atom_site_type_symbol
_atom_site_label
_atom_site_fract_x
_atom_site_fract_y
_atom_site_fract_z
Si Si1 0.685599 0.079560 0.450680
Si Si2 0.314798 0.081359 0.952786
Si Si3 0.184046 0.826475 0.878003
Si Si4 0.187863 0.079599 0.703415
Si Si5 0.814007 0.173133 0.781893
Si Si6 0.184501 0.172678 0.376696
O O1 0.726266 0.091675 0.500000
O O2 0.500000 0.083872 0.447461
O O3 0.760769 0.133878 0.419089
O O4 0.730124 0.000000 0.439968
O O5 0.500000 0.087515 0.950966
O O6 0.243119 0.123158 0.914361
O O7 0.276902 0.000000 0.949372
O O8 0.265494 0.105289 0.000000
O O9 0.250000 0.750000 0.885530
O O10 0.231575 0.846855 0.829949
O O11 0.000000 0.823946 0.879008
O O12 0.236633 0.118508 0.746415
O O13 0.236040 0.125542 0.663163
O O14 0.000000 0.078285 0.703348
O O15 0.240438 0.000000 0.700930
O O16 0.750000 0.250000 0.773102
O O17 0.000000 0.176772 0.780567
O O18 0.250000 0.250000 0.373848
O O19 0.000000 0.176265 0.376064
#
# Coordination Sequence:
#
# PCOD9488872 Si02
#       6
#    16  16  16  16  16  16
#     4   9  19  37  59  81 107 139 173 213 263 314
#     4   9  19  36  55  74 100 135 171 210 260 312
#     4  10  20  33  52  78 105 136 173 212 255 303
#     4   9  18  33  53  77 104 134 170 212 258 308
#     4   9  18  33  53  75 102 135 168 206 252 303
#     4  11  22  35  54  79 107 141 179 218 260 306
#
# _framework density 18.175795000000001
#
# number of rings (size 3 to 8) (size 9 to 14) (size 15 to 20)
#    0.000    2.500    0.000    3.000    0.000    4.000 
#    0.000    4.167    0.000    2.500    0.000    0.000 
#    0.000    0.000    0.000    0.000    0.000    0.000 
#
# Total GULP energy -267838.493443 kJ/mol
# GULP energy per Si atom -5579.968613 kJ/mol
# Density = 1.813443 g / cm^3
# Si number density = 18.175795 Si / 1000 Ang^3
#
#
#
# Elastic Constant Matrix: (Units=GPa)
#
#
# Indices 1 2 3 4 5 6 
#
# 1 20.7873 37.9560 38.9810 0.0000 0.0000 0.0000
# 2 37.9560 155.1312 124.5643 0.0000 0.0000 0.0000
# 3 38.9810 124.5643 155.2381 0.0000 0.0000 0.0000
# 4 0.0000 0.0000 0.0000 40.0583 0.0000 0.0000
# 5 0.0000 0.0000 0.0000 0.0000 19.1335 0.0000
# 6 0.0000 0.0000 0.0000 0.0000 0.0000 19.1856
#
#
#
# Elastic Compliance Matrix: (Units=1/GPa)
#
#
# Indices 1 2 3 4 5 6 
#
# 1 0.098126 -0.011874 -0.015112 0.000000 0.000000 0.000000
# 2 -0.011874 0.019559 -0.012713 0.000000 0.000000 0.000000
# 3 -0.015112 -0.012713 0.020437 0.000000 0.000000 0.000000
# 4 0.000000 0.000000 0.000000 0.024964 0.000000 0.000000
# 5 0.000000 0.000000 0.000000 0.000000 0.052264 0.000000
# 6 0.000000 0.000000 0.000000 0.000000 0.000000 0.052122
#
#
# Mechanical properties :
#
#
# Convention : Reuss Voigt Hill
#
# Bulk Modulus (GPa) = 17.02857 81.57324 49.30090
# Shear Modulus (GPa) = 13.64453 24.31918 18.98186
#
# Velocity S-wave (km/s) = 2.74286 3.66183 3.23514
# Velocity P-wave (km/s) = 4.40683 7.92820 6.41391
#
# Compressibility (1/GPa) = 0.05872485
#
# Stress axis : x y z
#
# Youngs Moduli (GPa) = 10.19093 51.12614 48.92988
#
# Poissons Ratio (x) = 0.60709 0.73943
# Poissons Ratio (y) = 0.12101 0.62204
# Poissons Ratio (z) = 0.15401 0.64997
#
# Static dielectric constant tensor:
#      x y z
#    x 1.614220 0.000000 0.000000 
#    y 0.000000 1.590410 0.000000 
#    z 0.000000 0.000000 1.626190 
# 
# From -- ./inp_files/73085.got.cif
#   From: 2010.05.17/outbox.cif.g08.bks.cpg/sg65_37_cif.got.tgz:73085.got - 2010.06.03 17:01:31.
