data_PCOD9488123
_publ_section_title
;
Structure prediction by ZEFSAII (Michael W. Deem and Ramdas Pophale) SiO2 
 PCOD9488123
Probable space group: C M M M
;
_chemical_formula_sum "Si O2"
_cell_formula_units_Z 104
_cell_length_a 21.214490
_cell_length_b 33.044356
_cell_length_c 7.826221
_cell_angle_alpha 90.000000
_cell_angle_beta 90.000000
_cell_angle_gamma 90.000000
_cell_volume 5486.330871
_symmetry_space_group_name_H-M "C M M M"
_symmetry_group_IT_number 65
_symmetry_cell_setting 'orthorhombic'
loop_
_space_group_symop_operation_xyz
x,y,z
-x,-y,z
x,-y,-z
-x,y,-z
-x,-y,-z
x,y,-z
-x,y,z
x,-y,z
1/2+x,1/2+y,z
1/2-x,1/2-y,z
1/2+x,1/2-y,-z
1/2-x,1/2+y,-z
1/2-x,1/2-y,-z
1/2+x,1/2+y,-z
1/2-x,1/2+y,z
1/2+x,1/2-y,z
loop_
_atom_site_type_symbol
_atom_site_label
_atom_site_fract_x
_atom_site_fract_y
_atom_site_fract_z
Si Si1 0.429819 0.825146 0.208807
Si Si2 0.304188 0.133322 0.203174
Si Si3 0.827284 0.833517 0.208420
Si Si4 0.738247 0.044277 0.697132
Si Si5 0.365580 0.577418 0.801896
Si Si6 0.928913 0.768823 0.208457
Si Si7 0.500000 0.451797 0.303625
O O1 0.500000 0.837713 0.265136
O O2 0.371430 0.851876 0.270973
O O3 0.420453 0.778082 0.256571
O O4 0.430343 0.826349 0.000000
O O5 0.244798 0.160016 0.268596
O O6 0.290245 0.085756 0.228849
O O7 0.305280 0.140033 0.000000
O O8 0.859790 0.876098 0.253718
O O9 0.871698 0.797102 0.268858
O O10 0.825369 0.830628 0.000000
O O11 0.719261 0.043540 0.500000
O O12 0.813809 0.050623 0.706865
O O13 0.722723 0.000000 0.773518
O O14 0.436297 0.563120 0.781876
O O15 0.346445 0.575747 0.000000
O O16 0.000000 0.781673 0.261341
O O17 0.928622 0.770281 0.000000
O O18 0.500000 0.500000 0.299869
O O19 0.500000 0.438069 0.500000
#
# Coordination Sequence:
#
# PCOD9488123 Si02
#       7
#    16  16  16  16  16  16   8
#     4   8  14  25  42  67  97 126 153 186 234 284
#     4   9  17  29  46  70  97 120 152 197 237 279
#     4   8  15  25  38  63  94 122 153 192 238 277
#     4  10  20  34  51  69  91 120 154 191 235 292
#     4  10  20  32  48  70  94 122 160 205 247 283
#     4   8  13  21  36  60  94 130 157 186 231 279
#     4  11  23  35  45  61  89 127 169 207 247 293
#
# _framework density 18.956202000000001
#
# number of rings (size 3 to 8) (size 9 to 14) (size 15 to 20)
#    0.000    3.000    0.000    3.462    1.077    4.308 
#    0.000    3.077    0.000    0.923    0.000   12.923 
#    0.000    0.000    0.000    0.000    0.000    0.000 
#
# Total GULP energy -289714.211262 kJ/mol
# GULP energy per Si atom -5571.427140 kJ/mol
# Density = 1.891306 g / cm^3
# Si number density = 18.956202 Si / 1000 Ang^3
#
#
#
# Elastic Constant Matrix: (Units=GPa)
#
#
# Indices 1 2 3 4 5 6 
#
# 1 163.2611 93.5243 4.4126 0.0000 0.0000 0.0000
# 2 93.5243 92.0244 0.3611 0.0000 0.0000 0.0000
# 3 4.4126 0.3611 19.4480 0.0000 0.0000 0.0000
# 4 0.0000 0.0000 0.0000 29.0972 0.0000 0.0000
# 5 0.0000 0.0000 0.0000 0.0000 0.2031 0.0000
# 6 0.0000 0.0000 0.0000 0.0000 0.0000 14.0648
#
#
#
# Elastic Compliance Matrix: (Units=1/GPa)
#
#
# Indices 1 2 3 4 5 6 
#
# 1 0.014843 -0.015073 -0.003088 0.000000 0.000000 0.000000
# 2 -0.015073 0.026174 0.002934 0.000000 0.000000 0.000000
# 3 -0.003088 0.002934 0.052065 0.000000 0.000000 0.000000
# 4 0.000000 0.000000 0.000000 0.034368 0.000000 0.000000
# 5 0.000000 0.000000 0.000000 0.000000 4.923509 0.000000
# 6 0.000000 0.000000 0.000000 0.000000 0.000000 0.071099
#
#
# Mechanical properties :
#
#
# Convention : Reuss Voigt Hill
#
# Bulk Modulus (GPa) = 15.96723 52.36997 34.16860
# Shear Modulus (GPa) = 0.96648 20.43540 10.70094
#
# Velocity S-wave (km/s) = 0.71481 3.28690 2.37852
# Velocity P-wave (km/s) = 3.02040 6.48782 5.06036
#
# Compressibility (1/GPa) = 0.06262827
#
# Stress axis : x y z
#
# Youngs Moduli (GPa) = 67.37083 38.20605 19.20668
#
# Poissons Ratio (x) = 0.57588 0.05931
# Poissons Ratio (y) = 1.01548 -0.05635
# Poissons Ratio (z) = 0.20803 -0.11209
#
# Static dielectric constant tensor:
#      x y z
#    x 1.679870 0.000000 0.000000 
#    y 0.000000 1.651870 0.000000 
#    z 0.000000 0.000000 1.703110 
# 
# From -- ./inp_files/12733.got.cif
#   From: 2010.05.17/outbox.cif.g08.bks.cpg/sg65_7_cif.got.tgz:12733.got - 2010.06.03 17:01:31.
