data_PCOD9488091
_publ_section_title
;
Structure prediction by ZEFSAII (Michael W. Deem and Ramdas Pophale) SiO2 
 PCOD9488091
Probable space group: C M M M
;
_chemical_formula_sum "Si O2"
_cell_formula_units_Z 96
_cell_length_a 28.165607
_cell_length_b 8.925368
_cell_length_c 24.131327
_cell_angle_alpha 90.000000
_cell_angle_beta 90.000000
_cell_angle_gamma 90.000000
_cell_volume 6066.335863
_symmetry_space_group_name_H-M "C M M M"
_symmetry_group_IT_number 65
_symmetry_cell_setting 'orthorhombic'
loop_
_space_group_symop_operation_xyz
x,y,z
-x,-y,z
x,-y,-z
-x,y,-z
-x,-y,-z
x,y,-z
-x,y,z
x,-y,z
1/2+x,1/2+y,z
1/2-x,1/2-y,z
1/2+x,1/2-y,-z
1/2-x,1/2+y,-z
1/2-x,1/2-y,-z
1/2+x,1/2+y,-z
1/2-x,1/2+y,z
1/2+x,1/2-y,z
loop_
_atom_site_type_symbol
_atom_site_label
_atom_site_fract_x
_atom_site_fract_y
_atom_site_fract_z
Si Si1 0.698968 0.820901 0.728686
Si Si2 0.640335 0.179819 0.838409
Si Si3 0.395871 0.179663 0.331998
Si Si4 0.444769 0.679259 0.774233
Si Si5 0.698568 0.678405 0.934974
Si Si6 0.055681 0.820304 0.435996
O O1 0.750000 0.750000 0.719397
O O2 0.677287 0.780248 0.788889
O O3 0.658120 0.778754 0.684602
O O4 0.703721 0.000000 0.727539
O O5 0.590237 0.247503 0.819124
O O6 0.660136 0.247900 0.894886
O O7 0.637423 0.000000 0.841122
O O8 0.428949 0.253824 0.285000
O O9 0.412208 0.237159 0.391506
O O10 0.399947 0.000000 0.328062
O O11 0.500000 0.711848 0.784492
O O12 0.438312 0.500000 0.773452
O O13 0.700694 0.500000 0.926062
O O14 0.750000 0.750000 0.922700
O O15 0.688513 0.705796 0.000000
O O16 0.066508 0.782672 0.500000
O O17 0.000000 0.784592 0.426184
O O18 0.060664 0.000000 0.429770
#
# Coordination Sequence:
#
# PCOD9488091 Si02
#       6
#    16  16  16  16  16  16
#     4   9  19  32  46  68  95 123 155 192 234 279
#     4  10  20  33  50  73 100 128 160 200 245 290
#     4  10  20  32  47  71 100 126 157 197 239 284
#     4  10  20  33  50  72  98 129 163 197 237 287
#     4  10  20  33  50  73 101 132 165 201 242 288
#     4   9  18  32  49  70  96 125 158 195 235 283
#
# _framework density 15.825037999999999
#
# number of rings (size 3 to 8) (size 9 to 14) (size 15 to 20)
#    0.000    2.333    0.000    4.500    0.000   10.333 
#    0.000    0.833    0.000    1.000    0.000    3.500 
#    0.000    0.000    0.000    0.000    0.000    0.000 
#
# Total GULP energy -267820.443908 kJ/mol
# GULP energy per Si atom -5579.592581 kJ/mol
# Density = 1.578902 g / cm^3
# Si number density = 15.825038 Si / 1000 Ang^3
#
#
#
# Elastic Constant Matrix: (Units=GPa)
#
#
# Indices 1 2 3 4 5 6 
#
# 1 135.6666 65.2444 79.4903 0.0000 0.0000 0.0000
# 2 65.2444 62.8021 56.3544 0.0000 0.0000 0.0000
# 3 79.4903 56.3544 97.8156 0.0000 0.0000 0.0000
# 4 0.0000 0.0000 0.0000 29.0041 0.0000 0.0000
# 5 0.0000 0.0000 0.0000 0.0000 21.6872 0.0000
# 6 0.0000 0.0000 0.0000 0.0000 0.0000 30.1910
#
#
#
# Elastic Compliance Matrix: (Units=1/GPa)
#
#
# Indices 1 2 3 4 5 6 
#
# 1 0.017065 -0.010940 -0.007565 0.000000 0.000000 0.000000
# 2 -0.010940 0.039979 -0.014143 0.000000 0.000000 0.000000
# 3 -0.007565 -0.014143 0.024519 0.000000 0.000000 0.000000
# 4 0.000000 0.000000 0.000000 0.034478 0.000000 0.000000
# 5 0.000000 0.000000 0.000000 0.000000 0.046110 0.000000
# 6 0.000000 0.000000 0.000000 0.000000 0.000000 0.033122
#
#
# Mechanical properties :
#
#
# Convention : Reuss Voigt Hill
#
# Bulk Modulus (GPa) = 61.47153 77.60695 69.53924
# Shear Modulus (GPa) = 18.79761 22.52281 20.66021
#
# Velocity S-wave (km/s) = 3.45024 3.77668 3.61714
# Velocity P-wave (km/s) = 7.40277 8.25620 7.84110
#
# Compressibility (1/GPa) = 0.01626769
#
# Stress axis : x y z
#
# Youngs Moduli (GPa) = 58.60035 25.01286 40.78500
#
# Poissons Ratio (x) = 0.27365 0.30853
# Poissons Ratio (y) = 0.64110 0.57681
# Poissons Ratio (z) = 0.44330 0.35375
#
# Static dielectric constant tensor:
#      x y z
#    x 1.510810 0.000000 0.000000 
#    y 0.000000 1.527110 0.000000 
#    z 0.000000 0.000000 1.516550 
# 
# From -- ./inp_files/60219.got.cif
#   From: 2010.05.17/outbox.cif.g08.bks.cpg/sg65_31_cif.got.tgz:60219.got - 2010.06.03 17:01:31.
