data_PCOD9488942
_publ_section_title
;
Structure prediction by ZEFSAII (Michael W. Deem and Ramdas Pophale) SiO2 
 PCOD9488942
Probable space group: C M M M
;
_chemical_formula_sum "Si O2"
_cell_formula_units_Z 120
_cell_length_a 19.049965
_cell_length_b 20.737280
_cell_length_c 16.558799
_cell_angle_alpha 90.000000
_cell_angle_beta 90.000000
_cell_angle_gamma 90.000000
_cell_volume 6541.461779
_symmetry_space_group_name_H-M "C M M M"
_symmetry_group_IT_number 65
_symmetry_cell_setting 'orthorhombic'
loop_
_space_group_symop_operation_xyz
x,y,z
-x,-y,z
x,-y,-z
-x,y,-z
-x,-y,-z
x,y,-z
-x,y,z
x,-y,z
1/2+x,1/2+y,z
1/2-x,1/2-y,z
1/2+x,1/2-y,-z
1/2-x,1/2+y,-z
1/2-x,1/2-y,-z
1/2+x,1/2+y,-z
1/2-x,1/2+y,z
1/2+x,1/2-y,z
loop_
_atom_site_type_symbol
_atom_site_label
_atom_site_fract_x
_atom_site_fract_y
_atom_site_fract_z
Si Si1 0.832806 0.144507 0.127340
Si Si2 0.579988 0.771404 0.125708
Si Si3 0.669913 0.424284 0.297723
Si Si4 0.675036 0.110803 0.090001
Si Si5 0.077231 0.924753 0.000000
Si Si6 0.580253 0.802591 0.315405
Si Si7 0.334612 0.070750 0.724612
Si Si8 0.582910 0.672124 0.596402
O O1 0.868488 0.212462 0.109164
O O2 0.841068 0.119917 0.218490
O O3 0.751767 0.142924 0.101378
O O4 0.877191 0.094557 0.075958
O O5 0.500000 0.760890 0.098952
O O6 0.614219 0.835825 0.090949
O O7 0.579148 0.779203 0.222619
O O8 0.648551 0.500000 0.288579
O O9 0.754345 0.425143 0.305816
O O10 0.627883 0.386524 0.366946
O O11 0.665922 0.074455 0.176320
O O12 0.674567 0.079332 0.000000
O O13 0.000000 0.893789 0.000000
O O14 0.069016 0.000000 0.000000
O O15 0.500000 0.816200 0.340704
O O16 0.624266 0.868497 0.312009
O O17 0.606442 0.741665 0.367621
O O18 0.363232 0.000000 0.702799
O O19 0.588051 0.673123 0.500000
O O20 0.500000 0.664734 0.618731
#
# Coordination Sequence:
#
# PCOD9488942 Si02
#       8
#    16  16  16  16   8  16  16  16
#     4  11  20  36  55  74 104 149 192 229 278 331
#     4  10  20  33  53  77 106 142 183 230 286 339
#     4  10  21  37  57  82 115 152 189 229 275 332
#     4  10  21  35  51  79 109 144 187 239 284 335
#     4  11  24  36  47  72 105 137 183 236 276 320
#     4   9  18  36  59  83 112 144 181 229 280 335
#     4   9  20  37  58  84 111 146 191 235 280 335
#     4  10  21  38  61  89 117 146 184 228 277 334
#
# _framework density 18.344522999999999
#
# number of rings (size 3 to 8) (size 9 to 14) (size 15 to 20)
#    0.000    2.067    2.000    1.200    0.933    3.467 
#    0.000    2.000    0.000    1.200    0.000    5.600 
#    0.000    0.000    0.000    0.000    0.000    0.000 
#
# Total GULP energy -334358.931220 kJ/mol
# GULP energy per Si atom -5572.648854 kJ/mol
# Density = 1.830277 g / cm^3
# Si number density = 18.344523 Si / 1000 Ang^3
#
#
#
# Elastic Constant Matrix: (Units=GPa)
#
#
# Indices 1 2 3 4 5 6 
#
# 1 50.7512 30.5440 11.0296 0.0000 0.0000 0.0000
# 2 30.5440 98.5997 16.0666 0.0000 0.0000 0.0000
# 3 11.0296 16.0666 63.8290 0.0000 0.0000 0.0000
# 4 0.0000 0.0000 0.0000 19.6674 0.0000 0.0000
# 5 0.0000 0.0000 0.0000 0.0000 24.3431 0.0000
# 6 0.0000 0.0000 0.0000 0.0000 0.0000 23.4772
#
#
#
# Elastic Compliance Matrix: (Units=1/GPa)
#
#
# Indices 1 2 3 4 5 6 
#
# 1 0.024576 -0.007217 -0.002430 0.000000 0.000000 0.000000
# 2 -0.007217 0.012695 -0.001948 0.000000 0.000000 0.000000
# 3 -0.002430 -0.001948 0.016577 0.000000 0.000000 0.000000
# 4 0.000000 0.000000 0.000000 0.050846 0.000000 0.000000
# 5 0.000000 0.000000 0.000000 0.000000 0.041079 0.000000
# 6 0.000000 0.000000 0.000000 0.000000 0.000000 0.042594
#
#
# Mechanical properties :
#
#
# Convention : Reuss Voigt Hill
#
# Bulk Modulus (GPa) = 32.61898 36.49559 34.55728
# Shear Modulus (GPa) = 22.54512 23.86684 23.20598
#
# Velocity S-wave (km/s) = 3.50949 3.61090 3.56055
# Velocity P-wave (km/s) = 5.85166 6.10921 5.98182
#
# Compressibility (1/GPa) = 0.03065700
#
# Stress axis : x y z
#
# Youngs Moduli (GPa) = 40.69084 78.77002 60.32372
#
# Poissons Ratio (x) = 0.56848 0.14659
# Poissons Ratio (y) = 0.29367 0.11754
# Poissons Ratio (z) = 0.09888 0.15348
#
# Static dielectric constant tensor:
#      x y z
#    x 1.627270 0.000000 0.000000 
#    y 0.000000 1.629540 0.000000 
#    z 0.000000 0.000000 1.632500 
# 
# From -- ./inp_files/54973.got.cif
#   From: 2010.05.17/outbox.cif.g08.bks.cpg/sg65_28_cif.got.tgz:54973.got - 2010.06.03 17:01:31.
