data_PCOD9488566
_publ_section_title
;
Structure prediction by ZEFSAII (Michael W. Deem and Ramdas Pophale) SiO2 
 PCOD9488566
Probable space group: C M M M
;
_chemical_formula_sum "Si O2"
_cell_formula_units_Z 72
_cell_length_a 18.501473
_cell_length_b 7.680611
_cell_length_c 24.563528
_cell_angle_alpha 90.000000
_cell_angle_beta 90.000000
_cell_angle_gamma 90.000000
_cell_volume 3490.541613
_symmetry_space_group_name_H-M "C M M M"
_symmetry_group_IT_number 65
_symmetry_cell_setting 'orthorhombic'
loop_
_space_group_symop_operation_xyz
x,y,z
-x,-y,z
x,-y,-z
-x,y,-z
-x,-y,-z
x,y,-z
-x,y,z
x,-y,z
1/2+x,1/2+y,z
1/2-x,1/2-y,z
1/2+x,1/2-y,-z
1/2-x,1/2+y,-z
1/2-x,1/2-y,-z
1/2+x,1/2+y,-z
1/2-x,1/2+y,z
1/2+x,1/2-y,z
loop_
_atom_site_type_symbol
_atom_site_label
_atom_site_fract_x
_atom_site_fract_y
_atom_site_fract_z
Si Si1 0.834443 0.705002 0.000000
Si Si2 0.415578 0.713041 0.323026
Si Si3 0.418533 0.707224 0.109489
Si Si4 0.165749 0.790458 0.215360
Si Si5 0.412978 0.290955 0.441543
O O1 0.750000 0.750000 0.000000
O O2 0.873720 0.769148 0.054403
O O3 0.841170 0.500000 0.000000
O O4 0.500000 0.761738 0.316720
O O5 0.414208 0.500000 0.323909
O O6 0.369629 0.773569 0.271584
O O7 0.387810 0.773523 0.382477
O O8 0.500000 0.777681 0.104645
O O9 0.424520 0.500000 0.117574
O O10 0.376421 0.777196 0.162220
O O11 0.250000 0.750000 0.211986
O O12 0.158458 0.000000 0.215839
O O13 0.385814 0.221957 0.500000
O O14 0.500000 0.265452 0.441050
O O15 0.401534 0.500000 0.442202
#
# Coordination Sequence:
#
# PCOD9488566 Si02
#       5
#     8  16  16  16  16
#     4  12  25  40  59  83 111 141 171 202 241 290
#     4   8  13  23  41  64  89 119 158 201 242 287
#     4  10  21  38  59  81 105 133 167 208 253 299
#     4  10  20  33  50  72  98 130 165 201 244 293
#     4   7   9  14  28  54  86 115 145 189 243 288
#
# _framework density 20.627171000000001
#
# number of rings (size 3 to 8) (size 9 to 14) (size 15 to 20)
#    0.000    2.889    0.000    4.667    0.000    7.111 
#    0.000    0.000    0.000    2.667    0.000    0.000 
#    0.000    0.000    0.000    5.556    0.000    4.444 
#
# Total GULP energy -200733.992923 kJ/mol
# GULP energy per Si atom -5575.944248 kJ/mol
# Density = 2.058022 g / cm^3
# Si number density = 20.627171 Si / 1000 Ang^3
#
#
#
# Elastic Constant Matrix: (Units=GPa)
#
#
# Indices 1 2 3 4 5 6 
#
# 1 133.9197 0.1638 114.3630 0.0000 0.0000 0.0000
# 2 0.1638 36.1544 4.6341 0.0000 0.0000 0.0000
# 3 114.3630 4.6341 262.1414 0.0000 0.0000 0.0000
# 4 0.0000 0.0000 0.0000 -19.5347 0.0000 0.0000
# 5 0.0000 0.0000 0.0000 0.0000 -5.1199 0.0000
# 6 0.0000 0.0000 0.0000 0.0000 0.0000 15.8167
#
#
#
# Elastic Compliance Matrix: (Units=1/GPa)
#
#
# Indices 1 2 3 4 5 6 
#
# 1 0.011914 0.000614 -0.005209 0.000000 0.000000 0.000000
# 2 0.000614 0.027754 -0.000758 0.000000 0.000000 0.000000
# 3 -0.005209 -0.000758 0.006101 0.000000 0.000000 0.000000
# 4 0.000000 0.000000 0.000000 -0.051191 0.000000 0.000000
# 5 0.000000 0.000000 0.000000 0.000000 -0.195316 0.000000
# 6 0.000000 0.000000 0.000000 0.000000 0.000000 0.063224
#
#
# Mechanical properties :
#
#
# Convention : Reuss Voigt Hill
#
# Bulk Modulus (GPa) = 28.52110 74.50414 51.51262
# Shear Modulus (GPa) = -43.43282 19.10273 -12.16505
#
# Velocity S-wave (km/s) = -4.59367 3.04648 -2.43113
# Velocity P-wave (km/s) = 3.77873 6.96940 4.14088
#
# Compressibility (1/GPa) = 0.03506177
#
# Stress axis : x y z
#
# Youngs Moduli (GPa) = 83.93149 36.03142 163.92050
#
# Poissons Ratio (x) = -0.02211 0.85381
# Poissons Ratio (y) = -0.05150 0.12431
# Poissons Ratio (z) = 0.43718 0.02732
#
# Static dielectric constant tensor:
#      x y z
#    x 1.681240 0.000000 0.000000 
#    y 0.000000 1.772640 0.000000 
#    z 0.000000 0.000000 1.842670 
# 
# From -- ./inp_files/67142.got.cif
#   From: 2010.05.17/outbox.cif.g08.bks.cpg/sg65_34_cif.got.tgz:67142.got - 2010.06.03 17:01:31.
