data_PCOD9488913
_publ_section_title
;
Structure prediction by ZEFSAII (Michael W. Deem and Ramdas Pophale) SiO2 
 PCOD9488913
Probable space group: C M M M
;
_chemical_formula_sum "Si O2"
_cell_formula_units_Z 104
_cell_length_a 29.449293
_cell_length_b 8.664157
_cell_length_c 23.478802
_cell_angle_alpha 90.000000
_cell_angle_beta 90.000000
_cell_angle_gamma 90.000000
_cell_volume 5990.693766
_symmetry_space_group_name_H-M "C M M M"
_symmetry_group_IT_number 65
_symmetry_cell_setting 'orthorhombic'
loop_
_space_group_symop_operation_xyz
x,y,z
-x,-y,z
x,-y,-z
-x,y,-z
-x,-y,-z
x,y,-z
-x,y,z
x,-y,z
1/2+x,1/2+y,z
1/2-x,1/2-y,z
1/2+x,1/2-y,-z
1/2-x,1/2+y,-z
1/2-x,1/2-y,-z
1/2+x,1/2+y,-z
1/2-x,1/2+y,z
1/2+x,1/2-y,z
loop_
_atom_site_type_symbol
_atom_site_label
_atom_site_fract_x
_atom_site_fract_y
_atom_site_fract_z
Si Si1 0.449197 0.813711 0.777511
Si Si2 0.800919 0.684021 0.500000
Si Si3 0.949429 0.186129 0.649999
Si Si4 0.852862 0.185724 0.609286
Si Si5 0.142999 0.314338 0.833329
Si Si6 0.200469 0.815568 0.934670
Si Si7 0.300925 0.185642 0.280589
O O1 0.500000 0.769959 0.796669
O O2 0.442708 0.748000 0.714067
O O3 0.408097 0.763857 0.817819
O O4 0.447267 0.000000 0.773464
O O5 0.798815 0.500000 0.500000
O O6 0.750000 0.750000 0.500000
O O7 0.827305 0.743005 0.444358
O O8 0.905934 0.232853 0.613024
O O9 0.000000 0.236001 0.630866
O O10 0.949335 0.000000 0.652180
O O11 0.828604 0.242825 0.666891
O O12 0.850273 0.000000 0.606244
O O13 0.143433 0.500000 0.838904
O O14 0.163733 0.242789 0.889926
O O15 0.174204 0.274885 0.778720
O O16 0.250000 0.750000 0.918825
O O17 0.202641 0.000000 0.933170
O O18 0.191058 0.766629 0.000000
O O19 0.250000 0.250000 0.280744
O O20 0.300437 0.000000 0.286220
#
# Coordination Sequence:
#
# PCOD9488913 Si02
#       7
#    16   8  16  16  16  16  16
#     4   9  17  31  52  79 111 143 176 216 264 317
#     4  12  26  44  63  80 105 141 184 227 269 322
#     4   9  18  33  55  83 112 142 176 215 263 318
#     4  11  22  38  59  82 109 142 180 221 266 317
#     4  10  20  33  52  80 110 141 178 220 267 319
#     4  10  21  36  54  76 104 141 183 225 270 321
#     4  11  22  35  51  77 110 141 176 218 269 320
#
# _framework density 17.360261000000001
#
# number of rings (size 3 to 8) (size 9 to 14) (size 15 to 20)
#    0.000    1.846    1.538    3.000    0.000    4.615 
#    0.000    0.385    0.000    2.769    0.000    3.231 
#    0.000    0.000    0.000    0.000    0.000    0.000 
#
# Total GULP energy -290319.276846 kJ/mol
# GULP energy per Si atom -5583.063016 kJ/mol
# Density = 1.732075 g / cm^3
# Si number density = 17.360261 Si / 1000 Ang^3
#
#
#
# Elastic Constant Matrix: (Units=GPa)
#
#
# Indices 1 2 3 4 5 6 
#
# 1 187.4143 45.1183 82.6253 0.0000 0.0000 0.0000
# 2 45.1183 41.0949 32.6591 0.0000 0.0000 0.0000
# 3 82.6253 32.6591 93.6750 0.0000 0.0000 0.0000
# 4 0.0000 0.0000 0.0000 24.9484 0.0000 0.0000
# 5 0.0000 0.0000 0.0000 0.0000 29.4964 0.0000
# 6 0.0000 0.0000 0.0000 0.0000 0.0000 15.2357
#
#
#
# Elastic Compliance Matrix: (Units=1/GPa)
#
#
# Indices 1 2 3 4 5 6 
#
# 1 0.009472 -0.005200 -0.006541 0.000000 0.000000 0.000000
# 2 -0.005200 0.036516 -0.008144 0.000000 0.000000 0.000000
# 3 -0.006541 -0.008144 0.019284 0.000000 0.000000 0.000000
# 4 0.000000 0.000000 0.000000 0.040083 0.000000 0.000000
# 5 0.000000 0.000000 0.000000 0.000000 0.033902 0.000000
# 6 0.000000 0.000000 0.000000 0.000000 0.000000 0.065635
#
#
# Mechanical properties :
#
#
# Convention : Reuss Voigt Hill
#
# Bulk Modulus (GPa) = 39.21529 71.44328 55.32929
# Shear Modulus (GPa) = 19.75009 24.72151 22.23580
#
# Velocity S-wave (km/s) = 3.37658 3.77772 3.58277
# Velocity P-wave (km/s) = 6.15141 7.76344 7.00396
#
# Compressibility (1/GPa) = 0.02550026
#
# Stress axis : x y z
#
# Youngs Moduli (GPa) = 105.57937 27.38547 51.85593
#
# Poissons Ratio (x) = 0.14242 0.33920
# Poissons Ratio (y) = 0.54905 0.42231
# Poissons Ratio (z) = 0.69062 0.22303
#
# Static dielectric constant tensor:
#      x y z
#    x 1.607890 0.000000 0.000000 
#    y 0.000000 1.565800 0.000000 
#    z 0.000000 0.000000 1.555070 
# 
# From -- ./inp_files/60449.got.cif
#   From: 2010.05.17/outbox.cif.g08.bks.cpg/sg65_31_cif.got.tgz:60449.got - 2010.06.03 17:01:31.
