data_PCOD9488744
_publ_section_title
;
Structure prediction by ZEFSAII (Michael W. Deem and Ramdas Pophale) SiO2 
 PCOD9488744
Probable space group: C M M M
;
_chemical_formula_sum "Si O2"
_cell_formula_units_Z 88
_cell_length_a 8.847640
_cell_length_b 19.714232
_cell_length_c 29.635075
_cell_angle_alpha 90.000000
_cell_angle_beta 90.000000
_cell_angle_gamma 90.000000
_cell_volume 5169.080994
_symmetry_space_group_name_H-M "C M M M"
_symmetry_group_IT_number 65
_symmetry_cell_setting 'orthorhombic'
loop_
_space_group_symop_operation_xyz
x,y,z
-x,-y,z
x,-y,-z
-x,y,-z
-x,-y,-z
x,y,-z
-x,y,z
x,-y,z
1/2+x,1/2+y,z
1/2-x,1/2-y,z
1/2+x,1/2-y,-z
1/2-x,1/2+y,-z
1/2-x,1/2-y,-z
1/2+x,1/2+y,-z
1/2-x,1/2+y,z
1/2+x,1/2-y,z
loop_
_atom_site_type_symbol
_atom_site_label
_atom_site_fract_x
_atom_site_fract_y
_atom_site_fract_z
Si Si1 0.183032 0.174438 0.901187
Si Si2 0.818221 0.825381 0.000000
Si Si3 0.184588 0.078294 0.180278
Si Si4 0.674531 0.582422 0.279723
Si Si5 0.179770 0.420370 0.373366
Si Si6 0.319352 0.675854 0.551699
O O1 0.250000 0.250000 0.896974
O O2 0.233351 0.126262 0.860471
O O3 0.000000 0.179003 0.899463
O O4 0.225216 0.145481 0.951004
O O5 0.750000 0.750000 0.000000
O O6 0.000000 0.821384 0.000000
O O7 0.231849 0.103316 0.230161
O O8 0.000000 0.077835 0.181158
O O9 0.232175 0.000000 0.173868
O O10 0.500000 0.603780 0.285194
O O11 0.675347 0.500000 0.278121
O O12 0.767538 0.602928 0.323615
O O13 0.221223 0.500000 0.377721
O O14 0.257160 0.376966 0.412230
O O15 0.000000 0.414668 0.376937
O O16 0.279151 0.656674 0.500000
O O17 0.500000 0.679752 0.554766
O O18 0.250000 0.750000 0.560222
#
# Coordination Sequence:
#
# PCOD9488744 Si02
#       6
#    16   8  16  16  16  16
#     4   9  16  27  43  63  87 114 147 185 225 271
#     4   8  14  24  39  59  83 113 145 178 220 270
#     4   8  14  26  45  66  87 115 151 189 229 273
#     4   8  14  27  47  67  88 119 157 192 229 276
#     4  10  20  33  51  76 103 129 160 200 240 277
#     4  10  21  37  56  76 100 131 164 197 236 284
#
# _framework density 17.024303
#
# number of rings (size 3 to 8) (size 9 to 14) (size 15 to 20)
#    0.000    3.091    0.000    2.182    0.000    2.545 
#    0.000    4.091    0.000    6.545    0.000    0.000 
#    0.000    7.273    0.000    0.000    0.000    0.000 
#
# Total GULP energy -244958.444667 kJ/mol
# GULP energy per Si atom -5567.237379 kJ/mol
# Density = 1.698555 g / cm^3
# Si number density = 17.024303 Si / 1000 Ang^3
#
#
#
# Elastic Constant Matrix: (Units=GPa)
#
#
# Indices 1 2 3 4 5 6 
#
# 1 23.0607 24.9428 47.6615 0.0000 0.0000 0.0000
# 2 24.9428 56.5717 82.5262 0.0000 0.0000 0.0000
# 3 47.6615 82.5262 196.1857 0.0000 0.0000 0.0000
# 4 0.0000 0.0000 0.0000 48.2922 0.0000 0.0000
# 5 0.0000 0.0000 0.0000 0.0000 15.9821 0.0000
# 6 0.0000 0.0000 0.0000 0.0000 0.0000 19.9034
#
#
#
# Elastic Compliance Matrix: (Units=1/GPa)
#
#
# Indices 1 2 3 4 5 6 
#
# 1 0.096283 -0.021558 -0.014322 0.000000 0.000000 0.000000
# 2 -0.021558 0.050579 -0.016039 0.000000 0.000000 0.000000
# 3 -0.014322 -0.016039 0.015324 0.000000 0.000000 0.000000
# 4 0.000000 0.000000 0.000000 0.020707 0.000000 0.000000
# 5 0.000000 0.000000 0.000000 0.000000 0.062570 0.000000
# 6 0.000000 0.000000 0.000000 0.000000 0.000000 0.050243
#
#
# Mechanical properties :
#
#
# Convention : Reuss Voigt Hill
#
# Bulk Modulus (GPa) = 17.13903 65.11989 41.12946
# Shear Modulus (GPa) = 11.93336 24.88139 18.40737
#
# Velocity S-wave (km/s) = 2.65044 3.82713 3.29179
# Velocity P-wave (km/s) = 4.41086 7.60680 6.21768
#
# Compressibility (1/GPa) = 0.05834636
#
# Stress axis : x y z
#
# Youngs Moduli (GPa) = 10.38608 19.77093 65.25890
#
# Poissons Ratio (x) = 0.42622 0.93467
# Poissons Ratio (y) = 0.22390 1.04669
# Poissons Ratio (z) = 0.14875 0.31711
#
# Static dielectric constant tensor:
#      x y z
#    x 1.568500 0.000000 0.000000 
#    y 0.000000 1.542380 0.000000 
#    z 0.000000 0.000000 1.613370 
# 
# From -- ./inp_files/75335.got.cif
#   From: 2010.05.17/outbox.cif.g08.bks.cpg/sg65_38_cif.got.tgz:75335.got - 2010.06.03 17:01:31.
