data_PCOD9488585
_publ_section_title
;
Structure prediction by ZEFSAII (Michael W. Deem and Ramdas Pophale) SiO2 
 PCOD9488585
Probable space group: C M M M
;
_chemical_formula_sum "Si O2"
_cell_formula_units_Z 88
_cell_length_a 18.742817
_cell_length_b 9.151535
_cell_length_c 29.429910
_cell_angle_alpha 90.000000
_cell_angle_beta 90.000000
_cell_angle_gamma 90.000000
_cell_volume 5047.981375
_symmetry_space_group_name_H-M "C M M M"
_symmetry_group_IT_number 65
_symmetry_cell_setting 'orthorhombic'
loop_
_space_group_symop_operation_xyz
x,y,z
-x,-y,z
x,-y,-z
-x,y,-z
-x,-y,-z
x,y,-z
-x,y,z
x,-y,z
1/2+x,1/2+y,z
1/2-x,1/2-y,z
1/2+x,1/2-y,-z
1/2-x,1/2+y,-z
1/2-x,1/2-y,-z
1/2+x,1/2+y,-z
1/2-x,1/2+y,z
1/2+x,1/2-y,z
loop_
_atom_site_type_symbol
_atom_site_label
_atom_site_fract_x
_atom_site_fract_y
_atom_site_fract_z
Si Si1 0.081885 0.322358 0.500000
Si Si2 0.413303 0.330663 0.768961
Si Si3 0.583061 0.175464 0.677134
Si Si4 0.826928 0.674016 0.948566
Si Si5 0.914899 0.825532 0.130094
Si Si6 0.327196 0.176982 0.588448
O O1 0.079346 0.500000 0.500000
O O2 0.124987 0.279478 0.545063
O O3 0.000000 0.270742 0.500000
O O4 0.500000 0.326006 0.769899
O O5 0.392651 0.500000 0.763683
O O6 0.390923 0.240609 0.724950
O O7 0.390247 0.279625 0.819120
O O8 0.500000 0.219852 0.670029
O O9 0.631333 0.219117 0.634523
O O10 0.583890 0.000000 0.679885
O O11 0.819670 0.500000 0.943326
O O12 0.750000 0.750000 0.944918
O O13 0.876651 0.740120 0.909885
O O14 0.854051 0.702798 0.000000
O O15 0.000000 0.803487 0.127386
O O16 0.902031 0.000000 0.126191
O O17 0.250000 0.250000 0.586223
O O18 0.320304 0.000000 0.587890
#
# Coordination Sequence:
#
# PCOD9488585 Si02
#       6
#     8  16  16  16  16  16
#     4   9  17  32  55  77  96 125 166 206 242 285
#     4   8  15  29  49  73 100 129 161 199 245 293
#     4   9  17  30  49  72  96 125 165 206 239 280
#     4  10  21  36  53  73  99 132 169 208 251 301
#     4   9  18  33  53  77 104 133 166 205 250 300
#     4  10  20  33  50  73 101 131 162 199 245 293
#
# _framework density 17.432711000000001
#
# number of rings (size 3 to 8) (size 9 to 14) (size 15 to 20)
#    0.000    2.818    0.000    2.455    0.000    5.455 
#    0.000    4.545    0.000    4.364    0.000    0.000 
#    0.000    0.000    0.000    0.000    0.000    0.000 
#
# Total GULP energy -245245.940213 kJ/mol
# GULP energy per Si atom -5573.771368 kJ/mol
# Density = 1.739303 g / cm^3
# Si number density = 17.432711 Si / 1000 Ang^3
#
#
#
# Elastic Constant Matrix: (Units=GPa)
#
#
# Indices 1 2 3 4 5 6 
#
# 1 82.6105 39.3643 89.2715 0.0000 0.0000 0.0000
# 2 39.3643 30.7814 66.4325 0.0000 0.0000 0.0000
# 3 89.2715 66.4325 209.8415 0.0000 0.0000 0.0000
# 4 0.0000 0.0000 0.0000 25.6450 0.0000 0.0000
# 5 0.0000 0.0000 0.0000 0.0000 -21.0673 0.0000
# 6 0.0000 0.0000 0.0000 0.0000 0.0000 28.7206
#
#
#
# Elastic Compliance Matrix: (Units=1/GPa)
#
#
# Indices 1 2 3 4 5 6 
#
# 1 0.031260 -0.035596 -0.002030 0.000000 0.000000 0.000000
# 2 -0.035596 0.143098 -0.030159 0.000000 0.000000 0.000000
# 3 -0.002030 -0.030159 0.015177 0.000000 0.000000 0.000000
# 4 0.000000 0.000000 0.000000 0.038994 0.000000 0.000000
# 5 0.000000 0.000000 0.000000 0.000000 -0.047467 0.000000
# 6 0.000000 0.000000 0.000000 0.000000 0.000000 0.034818
#
#
# Mechanical properties :
#
#
# Convention : Reuss Voigt Hill
#
# Bulk Modulus (GPa) = 18.53041 79.26334 48.89687
# Shear Modulus (GPa) = 13.53405 15.20398 14.36902
#
# Velocity S-wave (km/s) = 2.78935 2.95643 2.87410
# Velocity P-wave (km/s) = 4.58549 7.56444 6.25490
#
# Compressibility (1/GPa) = 0.05396534
#
# Stress axis : x y z
#
# Youngs Moduli (GPa) = 31.98987 6.98821 65.88982
#
# Poissons Ratio (x) = 0.24875 0.13373
# Poissons Ratio (y) = 1.13871 1.98719
# Poissons Ratio (z) = 0.06493 0.21076
#
# Static dielectric constant tensor:
#      x y z
#    x 1.570780 0.000000 0.000000 
#    y 0.000000 1.582290 0.000000 
#    z 0.000000 0.000000 1.598930 
# 
# From -- ./inp_files/67573.got.cif
#   From: 2010.05.17/outbox.cif.g08.bks.cpg/sg65_34_cif.got.tgz:67573.got - 2010.06.03 17:01:31.
