data_PCOD9488183
_publ_section_title
;
Structure prediction by ZEFSAII (Michael W. Deem and Ramdas Pophale) SiO2 
 PCOD9488183
Probable space group: C M M M
;
_chemical_formula_sum "Si O2"
_cell_formula_units_Z 104
_cell_length_a 9.048897
_cell_length_b 28.179611
_cell_length_c 23.606266
_cell_angle_alpha 90.000000
_cell_angle_beta 90.000000
_cell_angle_gamma 90.000000
_cell_volume 6019.465574
_symmetry_space_group_name_H-M "C M M M"
_symmetry_group_IT_number 65
_symmetry_cell_setting 'orthorhombic'
loop_
_space_group_symop_operation_xyz
x,y,z
-x,-y,z
x,-y,-z
-x,y,-z
-x,-y,-z
x,y,-z
-x,y,z
x,-y,z
1/2+x,1/2+y,z
1/2-x,1/2-y,z
1/2+x,1/2-y,-z
1/2-x,1/2+y,-z
1/2-x,1/2-y,-z
1/2+x,1/2+y,-z
1/2-x,1/2+y,z
1/2+x,1/2-y,z
loop_
_atom_site_type_symbol
_atom_site_label
_atom_site_fract_x
_atom_site_fract_y
_atom_site_fract_z
Si Si1 0.323769 0.869133 0.674311
Si Si2 0.332529 0.000000 0.568155
Si Si3 0.327611 0.200179 0.932083
Si Si4 0.831695 0.202728 0.753660
Si Si5 0.323896 0.401621 0.433443
Si Si6 0.332428 0.626834 0.854959
Si Si7 0.321208 0.555990 0.240074
O O1 0.500000 0.872163 0.674460
O O2 0.264021 0.822603 0.705579
O O3 0.259381 0.868875 0.611030
O O4 0.256310 0.913336 0.710587
O O5 0.239946 0.046515 0.581836
O O6 0.500000 0.000000 0.591609
O O7 0.345740 0.000000 0.500000
O O8 0.500000 0.204141 0.917682
O O9 0.250000 0.250000 0.915246
O O10 0.261690 0.153243 0.902730
O O11 0.311687 0.196189 0.000000
O O12 0.750000 0.250000 0.771953
O O13 0.837457 0.165915 0.805127
O O14 0.000000 0.211748 0.735176
O O15 0.292852 0.392653 0.500000
O O16 0.500000 0.400304 0.425577
O O17 0.500000 0.618460 0.875472
O O18 0.280193 0.579936 0.820743
O O19 0.500000 0.561862 0.245737
O O20 0.287526 0.500000 0.242940
#
# Coordination Sequence:
#
# PCOD9488183 Si02
#       7
#    16   8  16  16  16  16  16
#     4  11  22  34  51  76 104 133 168 208 253 303
#     4   9  17  29  45  67  93 121 157 199 240 287
#     4  10  20  32  48  73 105 139 172 208 252 301
#     4  10  20  35  54  77 104 132 167 208 254 304
#     4  10  20  34  51  70  96 132 169 205 251 305
#     4   9  18  32  52  77 102 132 169 208 251 300
#     4   9  19  36  55  74 100 134 171 212 257 304
#
# _framework density 17.277282
#
# number of rings (size 3 to 8) (size 9 to 14) (size 15 to 20)
#    0.000    2.231    0.000    4.385    1.077    7.385 
#    0.000    0.000    0.000    0.923    0.000    3.231 
#    0.000    0.000    0.000    0.000    0.000    0.000 
#
# Total GULP energy -289929.501086 kJ/mol
# GULP energy per Si atom -5575.567329 kJ/mol
# Density = 1.723796 g / cm^3
# Si number density = 17.277282 Si / 1000 Ang^3
#
#
#
# Elastic Constant Matrix: (Units=GPa)
#
#
# Indices 1 2 3 4 5 6 
#
# 1 98.5049 20.0544 40.5153 0.0000 0.0000 0.0000
# 2 20.0544 46.4052 6.3084 0.0000 0.0000 0.0000
# 3 40.5153 6.3084 47.2614 0.0000 0.0000 0.0000
# 4 0.0000 0.0000 0.0000 14.6359 0.0000 0.0000
# 5 0.0000 0.0000 0.0000 0.0000 26.6846 0.0000
# 6 0.0000 0.0000 0.0000 0.0000 0.0000 14.7423
#
#
#
# Elastic Compliance Matrix: (Units=1/GPa)
#
#
# Indices 1 2 3 4 5 6 
#
# 1 0.016931 -0.005442 -0.013787 0.000000 0.000000 0.000000
# 2 -0.005442 0.023697 0.001503 0.000000 0.000000 0.000000
# 3 -0.013787 0.001503 0.032778 0.000000 0.000000 0.000000
# 4 0.000000 0.000000 0.000000 0.068325 0.000000 0.000000
# 5 0.000000 0.000000 0.000000 0.000000 0.037475 0.000000
# 6 0.000000 0.000000 0.000000 0.000000 0.000000 0.067832
#
#
# Mechanical properties :
#
#
# Convention : Reuss Voigt Hill
#
# Bulk Modulus (GPa) = 26.34996 36.21417 31.28207
# Shear Modulus (GPa) = 16.94099 19.56546 18.25322
#
# Velocity S-wave (km/s) = 3.13475 3.36882 3.25389
# Velocity P-wave (km/s) = 5.32790 6.01149 5.67999
#
# Compressibility (1/GPa) = 0.03795073
#
# Stress axis : x y z
#
# Youngs Moduli (GPa) = 59.06462 42.19930 30.50849
#
# Poissons Ratio (x) = 0.22967 0.42063
# Poissons Ratio (y) = 0.32146 -0.04584
# Poissons Ratio (z) = 0.81435 -0.06341
#
# Static dielectric constant tensor:
#      x y z
#    x 1.590750 0.000000 0.000000 
#    y 0.000000 1.669850 0.000000 
#    z 0.000000 0.000000 1.601700 
# 
# From -- ./inp_files/68276.got.cif
#   From: 2010.05.17/outbox.cif.g08.bks.cpg/sg65_35_cif.got.tgz:68276.got - 2010.06.03 17:01:31.
