data_PCOD9488337
_publ_section_title
;
Structure prediction by ZEFSAII (Michael W. Deem and Ramdas Pophale) SiO2 
 PCOD9488337
Probable space group: C M M M
;
_chemical_formula_sum "Si O2"
_cell_formula_units_Z 80
_cell_length_a 23.275273
_cell_length_b 10.099294
_cell_length_c 21.985176
_cell_angle_alpha 90.000000
_cell_angle_beta 90.000000
_cell_angle_gamma 90.000000
_cell_volume 5167.919563
_symmetry_space_group_name_H-M "C M M M"
_symmetry_group_IT_number 65
_symmetry_cell_setting 'orthorhombic'
loop_
_space_group_symop_operation_xyz
x,y,z
-x,-y,z
x,-y,-z
-x,y,-z
-x,-y,-z
x,y,-z
-x,y,z
x,-y,z
1/2+x,1/2+y,z
1/2-x,1/2-y,z
1/2+x,1/2-y,-z
1/2-x,1/2+y,-z
1/2-x,1/2-y,-z
1/2+x,1/2+y,-z
1/2-x,1/2+y,z
1/2+x,1/2-y,z
loop_
_atom_site_type_symbol
_atom_site_label
_atom_site_fract_x
_atom_site_fract_y
_atom_site_fract_z
Si Si1 0.319541 0.000000 0.571347
Si Si2 0.000000 0.845941 0.572567
Si Si3 0.434396 0.660554 0.000000
Si Si4 0.682053 0.500000 0.426931
Si Si5 0.069275 0.341909 0.245414
Si Si6 0.617739 0.249985 0.627860
Si Si7 0.930062 0.846906 0.133232
O O1 0.250777 0.000000 0.577515
O O2 0.348338 0.873988 0.601715
O O3 0.332643 0.000000 0.500000
O O4 0.943658 0.773063 0.596207
O O5 0.000000 0.847802 0.500000
O O6 0.000000 0.000000 0.593921
O O7 0.408629 0.694376 0.934206
O O8 0.437348 0.500000 0.000000
O O9 0.500000 0.711904 0.000000
O O10 0.666984 0.500000 0.500000
O O11 0.655311 0.624740 0.392278
O O12 0.080618 0.500000 0.240629
O O13 0.103122 0.277853 0.301868
O O14 0.084559 0.258260 0.185169
O O15 0.000000 0.327590 0.255166
O O16 0.000000 0.849691 0.129701
O O17 0.912625 0.000000 0.146283
#
# Coordination Sequence:
#
# PCOD9488337 Si02
#       7
#     8   8   8   8  16  16  16
#     4  11  24  41  59  77  97 129 173 216 266 319
#     4  11  22  35  53  79 105 128 161 210 263 311
#     4   7  10  20  37  63  89 121 168 213 238 268
#     4  11  24  41  59  77  97 127 171 222 268 315
#     4  10  20  33  44  67 103 138 167 201 249 308
#     4  12  22  37  56  77 104 134 166 213 262 312
#     4   8  14  24  43  64  91 129 172 207 239 285
#
# _framework density 15.480117
#
# number of rings (size 3 to 8) (size 9 to 14) (size 15 to 20)
#    0.000    2.000    3.000    3.600    1.400    2.000 
#    0.000    1.500    0.000    3.000    0.000    0.000 
#    0.000    0.000    0.000    5.400    0.000    0.700 
#
# Total GULP energy -222833.569216 kJ/mol
# GULP energy per Si atom -5570.839230 kJ/mol
# Density = 1.544488 g / cm^3
# Si number density = 15.480117 Si / 1000 Ang^3
#
#
#
# Elastic Constant Matrix: (Units=GPa)
#
#
# Indices 1 2 3 4 5 6 
#
# 1 51.1292 38.8068 43.9845 0.0000 0.0000 0.0000
# 2 38.8068 129.3967 82.9806 0.0000 0.0000 0.0000
# 3 43.9845 82.9806 168.3832 0.0000 0.0000 0.0000
# 4 0.0000 0.0000 0.0000 28.2618 0.0000 0.0000
# 5 0.0000 0.0000 0.0000 0.0000 31.4202 0.0000
# 6 0.0000 0.0000 0.0000 0.0000 0.0000 22.2302
#
#
#
# Elastic Compliance Matrix: (Units=1/GPa)
#
#
# Indices 1 2 3 4 5 6 
#
# 1 0.027530 -0.005329 -0.004565 0.000000 0.000000 0.000000
# 2 -0.005329 0.012330 -0.004685 0.000000 0.000000 0.000000
# 3 -0.004565 -0.004685 0.009440 0.000000 0.000000 0.000000
# 4 0.000000 0.000000 0.000000 0.035383 0.000000 0.000000
# 5 0.000000 0.000000 0.000000 0.000000 0.031827 0.000000
# 6 0.000000 0.000000 0.000000 0.000000 0.000000 0.044984
#
#
# Mechanical properties :
#
#
# Convention : Reuss Voigt Hill
#
# Bulk Modulus (GPa) = 49.64433 75.60589 62.62511
# Shear Modulus (GPa) = 25.33361 28.59158 26.96259
#
# Velocity S-wave (km/s) = 4.04979 4.30232 4.17796
# Velocity P-wave (km/s) = 7.34895 8.58060 7.98854
#
# Compressibility (1/GPa) = 0.02014329
#
# Stress axis : x y z
#
# Youngs Moduli (GPa) = 36.32381 81.09984 105.93263
#
# Poissons Ratio (x) = 0.43217 0.48361
# Poissons Ratio (y) = 0.19356 0.49625
# Poissons Ratio (z) = 0.16583 0.37992
#
# Static dielectric constant tensor:
#      x y z
#    x 1.489340 0.000000 0.000000 
#    y 0.000000 1.492720 0.000000 
#    z 0.000000 0.000000 1.534690 
# 
# From -- ./inp_files/70902.got.cif
#   From: 2010.05.17/outbox.cif.g08.bks.cpg/sg65_36_cif.got.tgz:70902.got - 2010.06.03 17:01:31.
