data_PCOD9488467
_publ_section_title
;
Structure prediction by ZEFSAII (Michael W. Deem and Ramdas Pophale) SiO2 
 PCOD9488467
Probable space group: C M M M
;
_chemical_formula_sum "Si O2"
_cell_formula_units_Z 72
_cell_length_a 8.729166
_cell_length_b 18.968768
_cell_length_c 24.305630
_cell_angle_alpha 90.000000
_cell_angle_beta 90.000000
_cell_angle_gamma 90.000000
_cell_volume 4024.563274
_symmetry_space_group_name_H-M "C M M M"
_symmetry_group_IT_number 65
_symmetry_cell_setting 'orthorhombic'
loop_
_space_group_symop_operation_xyz
x,y,z
-x,-y,z
x,-y,-z
-x,y,-z
-x,-y,-z
x,y,-z
-x,y,z
x,-y,z
1/2+x,1/2+y,z
1/2-x,1/2-y,z
1/2+x,1/2-y,-z
1/2-x,1/2+y,-z
1/2-x,1/2-y,-z
1/2+x,1/2+y,-z
1/2-x,1/2+y,z
1/2+x,1/2-y,z
loop_
_atom_site_type_symbol
_atom_site_label
_atom_site_fract_x
_atom_site_fract_y
_atom_site_fract_z
Si Si1 0.683586 0.171951 0.334130
Si Si2 0.321444 0.085851 0.880705
Si Si3 0.313527 0.081257 0.438132
Si Si4 0.818041 0.917190 0.234656
Si Si5 0.312953 0.082033 0.000000
O O1 0.500000 0.174966 0.335355
O O2 0.750000 0.250000 0.331817
O O3 0.738380 0.131831 0.389392
O O4 0.735835 0.127589 0.281329
O O5 0.500000 0.104988 0.873754
O O6 0.229153 0.106765 0.826679
O O7 0.315766 0.000000 0.883459
O O8 0.265859 0.112289 0.940671
O O9 0.264622 0.101532 0.500000
O O10 0.500000 0.081851 0.437936
O O11 0.267072 0.000000 0.428226
O O12 0.000000 0.911623 0.241125
O O13 0.774828 0.000000 0.239880
O O14 0.500000 0.082104 0.000000
O O15 0.264395 0.000000 0.000000
#
# Coordination Sequence:
#
# PCOD9488467 Si02
#       5
#    16  16  16  16   8
#     4  11  22  35  52  74 101 134 170 207 250 297
#     4   8  13  23  41  65  93 126 163 201 244 294
#     4   8  15  30  53  79 103 128 162 202 242 289
#     4  10  20  33  49  71 100 132 168 211 254 296
#     4   7  10  18  35  61  92 123 156 197 242 289
#
# _framework density 17.890139999999999
#
# number of rings (size 3 to 8) (size 9 to 14) (size 15 to 20)
#    0.000    3.000    0.000    4.000    0.000    2.667 
#    0.000    0.556    0.000    5.333    0.000    8.556 
#    0.000    0.000    0.000    0.000    0.000    0.000 
#
# Total GULP energy -200533.052326 kJ/mol
# GULP energy per Si atom -5570.362565 kJ/mol
# Density = 1.784942 g / cm^3
# Si number density = 17.890140 Si / 1000 Ang^3
#
#
#
# Elastic Constant Matrix: (Units=GPa)
#
#
# Indices 1 2 3 4 5 6 
#
# 1 29.6107 29.4209 43.2658 0.0000 0.0000 0.0000
# 2 29.4209 63.7172 78.4340 0.0000 0.0000 0.0000
# 3 43.2658 78.4340 183.4221 0.0000 0.0000 0.0000
# 4 0.0000 0.0000 0.0000 -4.7919 0.0000 0.0000
# 5 0.0000 0.0000 0.0000 0.0000 6.2804 0.0000
# 6 0.0000 0.0000 0.0000 0.0000 0.0000 12.1470
#
#
#
# Elastic Compliance Matrix: (Units=1/GPa)
#
#
# Indices 1 2 3 4 5 6 
#
# 1 0.064709 -0.023415 -0.005251 0.000000 0.000000 0.000000
# 2 -0.023415 0.041610 -0.012270 0.000000 0.000000 0.000000
# 3 -0.005251 -0.012270 0.011937 0.000000 0.000000 0.000000
# 4 0.000000 0.000000 0.000000 -0.208686 0.000000 0.000000
# 5 0.000000 0.000000 0.000000 0.000000 0.159227 0.000000
# 6 0.000000 0.000000 0.000000 0.000000 0.000000 0.082325
#
#
# Mechanical properties :
#
#
# Convention : Reuss Voigt Hill
#
# Bulk Modulus (GPa) = 27.48426 64.33240 45.90833
# Shear Modulus (GPa) = 20.39807 11.10238 15.75023
#
# Velocity S-wave (km/s) = 3.38033 2.49386 2.97035
# Velocity P-wave (km/s) = 5.53458 6.65809 6.12217
#
# Compressibility (1/GPa) = 0.03638446
#
# Stress axis : x y z
#
# Youngs Moduli (GPa) = 15.45378 24.03281 83.77113
#
# Poissons Ratio (x) = 0.56273 0.43989
# Poissons Ratio (y) = 0.36185 1.02786
# Poissons Ratio (z) = 0.08115 0.29488
#
# Static dielectric constant tensor:
#      x y z
#    x 1.598540 0.000000 0.000000 
#    y 0.000000 1.584080 0.000000 
#    z 0.000000 0.000000 1.644220 
# 
# From -- ./inp_files/67008.got.cif
#   From: 2010.05.17/outbox.cif.g08.bks.cpg/sg65_34_cif.got.tgz:67008.got - 2010.06.03 17:01:31.
