data_PCOD9488368
_publ_section_title
;
Structure prediction by ZEFSAII (Michael W. Deem and Ramdas Pophale) SiO2 
 PCOD9488368
Probable space group: C M M M
;
_chemical_formula_sum "Si O2"
_cell_formula_units_Z 88
_cell_length_a 7.754903
_cell_length_b 28.256789
_cell_length_c 22.425397
_cell_angle_alpha 90.000000
_cell_angle_beta 90.000000
_cell_angle_gamma 90.000000
_cell_volume 4914.047145
_symmetry_space_group_name_H-M "C M M M"
_symmetry_group_IT_number 65
_symmetry_cell_setting 'orthorhombic'
loop_
_space_group_symop_operation_xyz
x,y,z
-x,-y,z
x,-y,-z
-x,y,-z
-x,-y,-z
x,y,-z
-x,y,z
x,-y,z
1/2+x,1/2+y,z
1/2-x,1/2-y,z
1/2+x,1/2-y,-z
1/2-x,1/2+y,-z
1/2-x,1/2-y,-z
1/2+x,1/2+y,-z
1/2-x,1/2+y,z
1/2+x,1/2-y,z
loop_
_atom_site_type_symbol
_atom_site_label
_atom_site_fract_x
_atom_site_fract_y
_atom_site_fract_z
Si Si1 0.711505 0.944949 0.629993
Si Si2 0.798823 0.442492 0.500000
Si Si3 0.207329 0.147479 0.066227
Si Si4 0.703720 0.803194 0.813876
Si Si5 0.208391 0.396705 0.750368
Si Si6 0.707067 0.552463 0.129028
O O1 0.500000 0.944159 0.628506
O O2 0.773593 0.928446 0.564522
O O3 0.770019 0.914243 0.686105
O O4 0.760037 0.000000 0.638526
O O5 0.795531 0.500000 0.500000
O O6 0.000000 0.428173 0.500000
O O7 0.247553 0.184719 0.118016
O O8 0.272495 0.096109 0.088939
O O9 0.000000 0.144527 0.063480
O O10 0.271745 0.158805 0.000000
O O11 0.500000 0.807097 0.810294
O O12 0.750000 0.750000 0.797282
O O13 0.775516 0.845613 0.772660
O O14 0.254571 0.433414 0.802755
O O15 0.000000 0.394991 0.747399
O O16 0.500000 0.551374 0.121937
O O17 0.773819 0.500000 0.115049
#
# Coordination Sequence:
#
# PCOD9488368 Si02
#       6
#    16   8  16  16  16  16
#     4   8  12  19  34  58  88 116 138 163 197 235
#     4   7  10  16  28  52  86 117 139 161 193 231
#     4   9  18  32  48  65  85 109 137 168 203 245
#     4  10  20  33  48  64  82 104 133 172 216 258
#     4   9  17  28  43  63  84 108 140 175 209 246
#     4   9  17  28  42  62  88 115 141 168 198 236
#
# _framework density 17.907845999999999
#
# number of rings (size 3 to 8) (size 9 to 14) (size 15 to 20)
#    0.000    3.182    0.000    2.182    0.000    2.909 
#    0.000    1.818    0.000    0.000    0.000    6.364 
#    0.000    3.636    0.000    0.000    0.000    0.000 
#
# Total GULP energy -245097.552763 kJ/mol
# GULP energy per Si atom -5570.398926 kJ/mol
# Density = 1.786709 g / cm^3
# Si number density = 17.907846 Si / 1000 Ang^3
#
#
#
# Elastic Constant Matrix: (Units=GPa)
#
#
# Indices 1 2 3 4 5 6 
#
# 1 25.5398 3.4942 5.1487 0.0000 0.0000 0.0000
# 2 3.4942 72.4255 26.0378 0.0000 0.0000 0.0000
# 3 5.1487 26.0378 112.7655 0.0000 0.0000 0.0000
# 4 0.0000 0.0000 0.0000 11.2654 0.0000 0.0000
# 5 0.0000 0.0000 0.0000 0.0000 15.4761 0.0000
# 6 0.0000 0.0000 0.0000 0.0000 0.0000 4.5918
#
#
#
# Elastic Compliance Matrix: (Units=1/GPa)
#
#
# Indices 1 2 3 4 5 6 
#
# 1 0.039644 -0.001376 -0.001492 0.000000 0.000000 0.000000
# 2 -0.001376 0.015105 -0.003425 0.000000 0.000000 0.000000
# 3 -0.001492 -0.003425 0.009727 0.000000 0.000000 0.000000
# 4 0.000000 0.000000 0.000000 0.088767 0.000000 0.000000
# 5 0.000000 0.000000 0.000000 0.000000 0.064616 0.000000
# 6 0.000000 0.000000 0.000000 0.000000 0.000000 0.217779
#
#
# Mechanical properties :
#
#
# Convention : Reuss Voigt Hill
#
# Bulk Modulus (GPa) = 19.27198 31.12136 25.19667
# Shear Modulus (GPa) = 10.74066 18.00333 14.37199
#
# Velocity S-wave (km/s) = 2.45168 3.17414 2.83601
# Velocity P-wave (km/s) = 4.33583 5.55427 4.98244
#
# Compressibility (1/GPa) = 0.05188879
#
# Stress axis : x y z
#
# Youngs Moduli (GPa) = 25.22472 66.20330 102.80743
#
# Poissons Ratio (x) = 0.09110 0.15342
# Poissons Ratio (y) = 0.03471 0.35211
# Poissons Ratio (z) = 0.03764 0.22674
#
# Static dielectric constant tensor:
#      x y z
#    x 1.653930 0.000000 0.000000 
#    y 0.000000 1.326590 0.000000 
#    z 0.000000 0.000000 1.638090 
# 
# From -- ./inp_files/60220.got.cif
#   From: 2010.05.17/outbox.cif.g08.bks.cpg/sg65_31_cif.got.tgz:60220.got - 2010.06.03 17:01:31.
