data_PCOD9488951
_publ_section_title
;
Structure prediction by ZEFSAII (Michael W. Deem and Ramdas Pophale) SiO2 
 PCOD9488951
Probable space group: C M M M
;
_chemical_formula_sum "Si O2"
_cell_formula_units_Z 88
_cell_length_a 8.858334
_cell_length_b 18.756468
_cell_length_c 29.634430
_cell_angle_alpha 90.000000
_cell_angle_beta 90.000000
_cell_angle_gamma 90.000000
_cell_volume 4923.791904
_symmetry_space_group_name_H-M "C M M M"
_symmetry_group_IT_number 65
_symmetry_cell_setting 'orthorhombic'
loop_
_space_group_symop_operation_xyz
x,y,z
-x,-y,z
x,-y,-z
-x,y,-z
-x,-y,-z
x,y,-z
-x,y,z
x,-y,z
1/2+x,1/2+y,z
1/2-x,1/2-y,z
1/2+x,1/2-y,-z
1/2-x,1/2+y,-z
1/2-x,1/2-y,-z
1/2+x,1/2+y,-z
1/2-x,1/2+y,z
1/2+x,1/2-y,z
loop_
_atom_site_type_symbol
_atom_site_label
_atom_site_fract_x
_atom_site_fract_y
_atom_site_fract_z
Si Si1 0.177980 0.085671 0.094532
Si Si2 0.318834 0.329721 0.268416
Si Si3 0.320005 0.328835 0.367934
Si Si4 0.319804 0.829504 0.823209
Si Si5 0.825854 0.586682 0.000000
Si Si6 0.319420 0.915419 0.550382
O O1 0.266237 0.124370 0.134474
O O2 0.241953 0.108603 0.045770
O O3 0.000000 0.101479 0.097594
O O4 0.196792 0.000000 0.098049
O O5 0.500000 0.326647 0.263075
O O6 0.250000 0.250000 0.270057
O O7 0.283657 0.360440 0.318047
O O8 0.245069 0.362030 0.223617
O O9 0.500000 0.322618 0.370364
O O10 0.250000 0.250000 0.370745
O O11 0.259410 0.375013 0.409045
O O12 0.500000 0.824562 0.820865
O O13 0.250000 0.750000 0.827605
O O14 0.825055 0.500000 0.000000
O O15 0.000000 0.609990 0.000000
O O16 0.271341 0.891635 0.500000
O O17 0.500000 0.905019 0.553417
O O18 0.290888 0.000000 0.553451
#
# Coordination Sequence:
#
# PCOD9488951 Si02
#       6
#    16  16  16  16   8  16
#     4  10  20  35  55  78 105 137 173 213 257 303
#     4   9  17  31  50  73 101 133 169 207 251 302
#     4  10  20  33  53  79 104 132 168 211 254 298
#     4  11  21  34  54  78 105 137 173 211 255 306
#     4   9  17  31  52  77 104 135 172 211 253 305
#     4   9  19  36  55  74 100 135 171 208 254 306
#
# _framework density 17.872405000000001
#
# number of rings (size 3 to 8) (size 9 to 14) (size 15 to 20)
#    0.000    2.273    0.000    5.182    0.000    5.455 
#    0.000    2.273    0.000    1.091    0.000    0.000 
#    0.000    0.000    0.000    0.000    0.000    0.000 
#
# Total GULP energy -245388.137033 kJ/mol
# GULP energy per Si atom -5577.003114 kJ/mol
# Density = 1.783173 g / cm^3
# Si number density = 17.872405 Si / 1000 Ang^3
#
#
#
# Elastic Constant Matrix: (Units=GPa)
#
#
# Indices 1 2 3 4 5 6 
#
# 1 118.5716 34.7698 90.0754 0.0000 0.0000 0.0000
# 2 34.7698 21.4848 49.5805 0.0000 0.0000 0.0000
# 3 90.0754 49.5805 212.9417 0.0000 0.0000 0.0000
# 4 0.0000 0.0000 0.0000 30.2130 0.0000 0.0000
# 5 0.0000 0.0000 0.0000 0.0000 34.5848 0.0000
# 6 0.0000 0.0000 0.0000 0.0000 0.0000 23.8543
#
#
#
# Elastic Compliance Matrix: (Units=1/GPa)
#
#
# Indices 1 2 3 4 5 6 
#
# 1 0.016308 -0.022635 -0.001628 0.000000 0.000000 0.000000
# 2 -0.022635 0.132013 -0.021163 0.000000 0.000000 0.000000
# 3 -0.001628 -0.021163 0.010312 0.000000 0.000000 0.000000
# 4 0.000000 0.000000 0.000000 0.033098 0.000000 0.000000
# 5 0.000000 0.000000 0.000000 0.000000 0.028914 0.000000
# 6 0.000000 0.000000 0.000000 0.000000 0.000000 0.041921
#
#
# Mechanical properties :
#
#
# Convention : Reuss Voigt Hill
#
# Bulk Modulus (GPa) = 14.75322 77.98328 46.36825
# Shear Modulus (GPa) = 13.29746 29.63525 21.46636
#
# Velocity S-wave (km/s) = 2.73064 4.07646 3.46943
# Velocity P-wave (km/s) = 4.26784 8.11695 6.48457
#
# Compressibility (1/GPa) = 0.06778183
#
# Stress axis : x y z
#
# Youngs Moduli (GPa) = 61.31969 7.57504 96.97155
#
# Poissons Ratio (x) = 0.17146 0.15789
# Poissons Ratio (y) = 1.38794 2.05218
# Poissons Ratio (z) = 0.09984 0.16031
#
# Static dielectric constant tensor:
#      x y z
#    x 1.595300 0.000000 0.000000 
#    y 0.000000 1.587470 0.000000 
#    z 0.000000 0.000000 1.639670 
# 
# From -- ./inp_files/76595.got.cif
#   From: 2010.05.17/outbox.cif.g08.bks.cpg/sg65_39_cif.got.tgz:76595.got - 2010.06.03 17:01:31.
