data_PCOD9488086
_publ_section_title
;
Structure prediction by ZEFSAII (Michael W. Deem and Ramdas Pophale) SiO2 
 PCOD9488086
Probable space group: C M M M
;
_chemical_formula_sum "Si O2"
_cell_formula_units_Z 88
_cell_length_a 14.706076
_cell_length_b 9.300183
_cell_length_c 30.160384
_cell_angle_alpha 90.000000
_cell_angle_beta 90.000000
_cell_angle_gamma 90.000000
_cell_volume 4125.011531
_symmetry_space_group_name_H-M "C M M M"
_symmetry_group_IT_number 65
_symmetry_cell_setting 'orthorhombic'
loop_
_space_group_symop_operation_xyz
x,y,z
-x,-y,z
x,-y,-z
-x,y,-z
-x,-y,-z
x,y,-z
-x,y,z
x,-y,z
1/2+x,1/2+y,z
1/2-x,1/2-y,z
1/2+x,1/2-y,-z
1/2-x,1/2+y,-z
1/2-x,1/2-y,-z
1/2+x,1/2+y,-z
1/2-x,1/2+y,z
1/2+x,1/2-y,z
loop_
_atom_site_type_symbol
_atom_site_label
_atom_site_fract_x
_atom_site_fract_y
_atom_site_fract_z
Si Si1 0.888218 0.833329 0.719995
Si Si2 0.606403 0.159509 0.364444
Si Si3 0.153006 0.171837 0.451447
Si Si4 0.611418 0.666508 0.087223
Si Si5 0.388707 0.836378 0.000000
Si Si6 0.393734 0.674979 0.183412
O O1 0.855936 0.738632 0.678868
O O2 0.857405 0.779472 0.768593
O O3 0.000000 0.833128 0.720632
O O4 0.861583 0.000000 0.714148
O O5 0.500000 0.142401 0.355161
O O6 0.610815 0.257208 0.408107
O O7 0.646299 0.000000 0.371982
O O8 0.109024 0.198105 0.500000
O O9 0.250000 0.250000 0.453492
O O10 0.160497 0.000000 0.446368
O O11 0.500000 0.667931 0.088214
O O12 0.638242 0.500000 0.082123
O O13 0.640100 0.756789 0.044808
O O14 0.642814 0.722211 0.135555
O O15 0.500000 0.835287 0.000000
O O16 0.357931 0.000000 0.000000
O O17 0.500000 0.716145 0.183501
O O18 0.390436 0.500000 0.183221
#
# Coordination Sequence:
#
# PCOD9488086 Si02
#       6
#    16  16  16  16   8  16
#     4   8  13  23  39  57  78 104 134 170 212 256
#     4  10  20  32  47  70  99 127 154 186 224 265
#     4  10  21  37  56  75  95 121 153 188 226 269
#     4   8  12  18  27  36  47  69 104 144 187 236
#     4   9  15  19  21  29  47  69  97 139 190 237
#     4   7  10  17  30  46  61  81 114 155 197 242
#
# _framework density 21.333273999999999
#
# number of rings (size 3 to 8) (size 9 to 14) (size 15 to 20)
#    0.000    3.364    0.000    3.545    0.000    3.636 
#    0.000    2.727    0.000    5.455    0.000    0.000 
#    0.000    0.000    0.000    0.000    0.000    0.000 
#
# Total GULP energy -245155.543462 kJ/mol
# GULP energy per Si atom -5571.716897 kJ/mol
# Density = 2.128472 g / cm^3
# Si number density = 21.333274 Si / 1000 Ang^3
#
#
#
# Elastic Constant Matrix: (Units=GPa)
#
#
# Indices 1 2 3 4 5 6 
#
# 1 48.2394 6.5713 11.0634 0.0000 0.0000 0.0000
# 2 6.5713 109.1092 111.9475 0.0000 0.0000 0.0000
# 3 11.0634 111.9475 260.4337 0.0000 0.0000 0.0000
# 4 0.0000 0.0000 0.0000 63.3110 0.0000 0.0000
# 5 0.0000 0.0000 0.0000 0.0000 -8.3976 0.0000
# 6 0.0000 0.0000 0.0000 0.0000 0.0000 5.6423
#
#
#
# Elastic Compliance Matrix: (Units=1/GPa)
#
#
# Indices 1 2 3 4 5 6 
#
# 1 0.020958 -0.000624 -0.000622 0.000000 0.000000 0.000000
# 2 -0.000624 0.016415 -0.007030 0.000000 0.000000 0.000000
# 3 -0.000622 -0.007030 0.006888 0.000000 0.000000 0.000000
# 4 0.000000 0.000000 0.000000 0.015795 0.000000 0.000000
# 5 0.000000 0.000000 0.000000 0.000000 -0.119081 0.000000
# 6 0.000000 0.000000 0.000000 0.000000 0.000000 0.177232
#
#
# Mechanical properties :
#
#
# Convention : Reuss Voigt Hill
#
# Bulk Modulus (GPa) = 36.08880 75.21628 55.65254
# Shear Modulus (GPa) = 34.72359 31.32449 33.02404
#
# Velocity S-wave (km/s) = 4.03882 3.83605 3.93874
# Velocity P-wave (km/s) = 6.22116 7.41314 6.84315
#
# Compressibility (1/GPa) = 0.02770943
#
# Stress axis : x y z
#
# Youngs Moduli (GPa) = 47.71538 60.91953 145.18384
#
# Poissons Ratio (x) = 0.03801 0.09032
# Poissons Ratio (y) = 0.02977 1.02057
# Poissons Ratio (z) = 0.02968 0.42824
#
# Static dielectric constant tensor:
#      x y z
#    x 1.998480 0.000000 0.000000 
#    y 0.000000 1.739000 0.000000 
#    z 0.000000 0.000000 1.810970 
# 
# From -- ./inp_files/78119.got.cif
#   From: 2010.05.17/outbox.cif.g08.bks.cpg/sg65_40_cif.got.tgz:78119.got - 2010.06.03 17:01:31.
