data_PCOD9488048
_publ_section_title
;
Structure prediction by ZEFSAII (Michael W. Deem and Ramdas Pophale) SiO2 
 PCOD9488048
Probable space group: C M M M
;
_chemical_formula_sum "Si O2"
_cell_formula_units_Z 88
_cell_length_a 32.225182
_cell_length_b 8.276791
_cell_length_c 17.957812
_cell_angle_alpha 90.000000
_cell_angle_beta 90.000000
_cell_angle_gamma 90.000000
_cell_volume 4789.727305
_symmetry_space_group_name_H-M "C M M M"
_symmetry_group_IT_number 65
_symmetry_cell_setting 'orthorhombic'
loop_
_space_group_symop_operation_xyz
x,y,z
-x,-y,z
x,-y,-z
-x,y,-z
-x,-y,-z
x,y,-z
-x,y,z
x,-y,z
1/2+x,1/2+y,z
1/2-x,1/2-y,z
1/2+x,1/2-y,-z
1/2-x,1/2+y,-z
1/2-x,1/2-y,-z
1/2+x,1/2+y,-z
1/2-x,1/2+y,z
1/2+x,1/2-y,z
loop_
_atom_site_type_symbol
_atom_site_label
_atom_site_fract_x
_atom_site_fract_y
_atom_site_fract_z
Si Si1 0.205594 0.309253 0.746356
Si Si2 0.953371 0.303616 0.914147
Si Si3 0.909972 0.819359 0.362979
Si Si4 0.548900 0.000000 0.418359
Si Si5 0.183081 0.811115 0.417979
Si Si6 0.883642 0.697731 0.204534
O O1 0.206012 0.500000 0.747550
O O2 0.250000 0.250000 0.773583
O O3 0.200045 0.260742 0.659151
O O4 0.165380 0.259336 0.795036
O O5 0.953919 0.500000 0.914055
O O6 0.914311 0.258017 0.862962
O O7 0.000000 0.252532 0.888646
O O8 0.948360 0.251621 0.000000
O O9 0.937882 0.667076 0.381851
O O10 0.866773 0.803085 0.408071
O O11 0.899476 0.792444 0.276727
O O12 0.926574 0.000000 0.376681
O O13 0.500000 0.000000 0.422699
O O14 0.568383 0.000000 0.500000
O O15 0.194563 0.743039 0.500000
O O16 0.194785 0.000000 0.417830
O O17 0.886496 0.500000 0.215101
#
# Coordination Sequence:
#
# PCOD9488048 Si02
#       6
#    16  16  16   8  16  16
#     4  10  20  32  47  68  99 137 178 223 267 317
#     4   8  14  26  49  83 116 141 168 210 268 331
#     4  10  20  36  55  76 102 137 183 229 275 332
#     4  11  24  38  52  72 101 139 183 235 286 326
#     4   9  18  32  51  73  96 127 168 217 273 330
#     4   9  17  32  53  80 108 140 180 218 266 330
#
# _framework density 18.372654000000001
#
# number of rings (size 3 to 8) (size 9 to 14) (size 15 to 20)
#    0.000    2.636    0.909    1.636    1.273    3.636 
#    0.000    0.909    0.000    1.091    0.000    1.273 
#    0.000    0.000    0.000    0.000    0.000    0.545 
#
# Total GULP energy -244973.128693 kJ/mol
# GULP energy per Si atom -5567.571107 kJ/mol
# Density = 1.833084 g / cm^3
# Si number density = 18.372654 Si / 1000 Ang^3
#
#
#
# Elastic Constant Matrix: (Units=GPa)
#
#
# Indices 1 2 3 4 5 6 
#
# 1 131.7512 43.0625 67.2259 0.0000 0.0000 0.0000
# 2 43.0625 64.3058 10.2133 0.0000 0.0000 0.0000
# 3 67.2259 10.2133 78.1247 0.0000 0.0000 0.0000
# 4 0.0000 0.0000 0.0000 16.3649 0.0000 0.0000
# 5 0.0000 0.0000 0.0000 0.0000 -34.6208 0.0000
# 6 0.0000 0.0000 0.0000 0.0000 0.0000 -48.5648
#
#
#
# Elastic Compliance Matrix: (Units=1/GPa)
#
#
# Indices 1 2 3 4 5 6 
#
# 1 0.018100 -0.009852 -0.014287 0.000000 0.000000 0.000000
# 2 -0.009852 0.021242 0.005700 0.000000 0.000000 0.000000
# 3 -0.014287 0.005700 0.024349 0.000000 0.000000 0.000000
# 4 0.000000 0.000000 0.000000 0.061106 0.000000 0.000000
# 5 0.000000 0.000000 0.000000 0.000000 -0.028884 0.000000
# 6 0.000000 0.000000 0.000000 0.000000 0.000000 -0.020591
#
#
# Mechanical properties :
#
#
# Convention : Reuss Voigt Hill
#
# Bulk Modulus (GPa) = 37.29342 57.24281 47.26811
# Shear Modulus (GPa) = 41.27551 -3.11883 19.07834
#
# Velocity S-wave (km/s) = 4.74495 -1.30431 3.22593
# Velocity P-wave (km/s) = 7.09660 5.38107 6.29752
#
# Compressibility (1/GPa) = 0.02681439
#
# Stress axis : x y z
#
# Youngs Moduli (GPa) = 55.24879 47.07549 41.06982
#
# Poissons Ratio (x) = 0.46377 0.58677
# Poissons Ratio (y) = 0.54429 -0.23410
# Poissons Ratio (z) = 0.78934 -0.26834
#
# Static dielectric constant tensor:
#      x y z
#    x 1.678390 0.000000 0.000000 
#    y 0.000000 1.600280 0.000000 
#    z 0.000000 0.000000 1.641230 
# 
# From -- ./inp_files/58027.got.cif
#   From: 2010.05.17/outbox.cif.g08.bks.cpg/sg65_30_cif.got.tgz:58027.got - 2010.06.03 17:01:31.
