data_PCOD9488850
_publ_section_title
;
Structure prediction by ZEFSAII (Michael W. Deem and Ramdas Pophale) SiO2 
 PCOD9488850
Probable space group: C M M M
;
_chemical_formula_sum "Si O2"
_cell_formula_units_Z 104
_cell_length_a 26.780351
_cell_length_b 24.806403
_cell_length_c 7.575917
_cell_angle_alpha 90.000000
_cell_angle_beta 90.000000
_cell_angle_gamma 90.000000
_cell_volume 5032.864844
_symmetry_space_group_name_H-M "C M M M"
_symmetry_group_IT_number 65
_symmetry_cell_setting 'orthorhombic'
loop_
_space_group_symop_operation_xyz
x,y,z
-x,-y,z
x,-y,-z
-x,y,-z
-x,-y,-z
x,y,-z
-x,y,z
x,-y,z
1/2+x,1/2+y,z
1/2-x,1/2-y,z
1/2+x,1/2-y,-z
1/2-x,1/2+y,-z
1/2-x,1/2-y,-z
1/2+x,1/2+y,-z
1/2-x,1/2+y,z
1/2+x,1/2-y,z
loop_
_atom_site_type_symbol
_atom_site_label
_atom_site_fract_x
_atom_site_fract_y
_atom_site_fract_z
Si Si1 0.206635 0.287926 0.711120
Si Si2 0.794264 0.500000 0.213840
Si Si3 0.554866 0.830434 0.209020
Si Si4 0.846358 0.392053 0.794396
Si Si5 0.894131 0.223411 0.710012
Si Si6 0.391528 0.601226 0.716286
Si Si7 0.500000 0.561352 0.714605
Si Si8 0.824278 0.000000 0.288641
O O1 0.213598 0.293849 0.500000
O O2 0.250000 0.250000 0.781225
O O3 0.197104 0.347153 0.783436
O O4 0.156403 0.255387 0.745500
O O5 0.823629 0.552965 0.280493
O O6 0.735064 0.500000 0.255004
O O7 0.796490 0.500000 0.000000
O O8 0.500000 0.844154 0.282058
O O9 0.602738 0.864406 0.280956
O O10 0.564459 0.766125 0.228009
O O11 0.553868 0.840925 0.000000
O O12 0.856904 0.402365 0.000000
O O13 0.901578 0.218648 0.500000
O O14 0.886037 0.162894 0.777385
O O15 0.388747 0.601247 0.500000
O O16 0.447875 0.586565 0.769683
O O17 0.352820 0.554557 0.775178
O O18 0.500000 0.500000 0.771335
O O19 0.500000 0.562847 0.500000
O O20 0.830750 0.000000 0.500000
#
# Coordination Sequence:
#
# PCOD9488850 Si02
#       8
#    16   8  16  16  16  16   8   8
#     4   9  18  31  49  73 102 131 163 207 250 291
#     4  10  22  38  54  75 103 134 168 209 252 302
#     4   9  18  34  54  75 100 129 162 204 254 307
#     4   9  19  36  54  73 100 133 168 205 252 308
#     4   9  18  30  46  72 102 129 162 203 246 295
#     4   9  17  28  44  70  98 127 167 208 246 289
#     4   9  14  24  40  62  94 126 158 203 246 279
#     4  10  20  33  52  75  99 131 172 215 254 294
#
# _framework density 20.664175
#
# number of rings (size 3 to 8) (size 9 to 14) (size 15 to 20)
#    0.000    2.846    0.769    0.000    3.231    1.231 
#    0.000    1.154    0.000    2.308    0.000    0.538 
#    0.000    5.538    0.000    0.000    0.000    0.000 
#
# Total GULP energy -289672.663584 kJ/mol
# GULP energy per Si atom -5570.628146 kJ/mol
# Density = 2.061714 g / cm^3
# Si number density = 20.664175 Si / 1000 Ang^3
#
#
#
# Elastic Constant Matrix: (Units=GPa)
#
#
# Indices 1 2 3 4 5 6 
#
# 1 134.1546 88.3464 0.9305 0.0000 0.0000 0.0000
# 2 88.3464 204.1695 -2.0392 0.0000 0.0000 0.0000
# 3 0.9305 -2.0392 50.2039 0.0000 0.0000 0.0000
# 4 0.0000 0.0000 0.0000 13.1201 0.0000 0.0000
# 5 0.0000 0.0000 0.0000 0.0000 15.7521 0.0000
# 6 0.0000 0.0000 0.0000 0.0000 0.0000 10.9293
#
#
#
# Elastic Compliance Matrix: (Units=1/GPa)
#
#
# Indices 1 2 3 4 5 6 
#
# 1 0.010432 -0.004518 -0.000377 0.000000 0.000000 0.000000
# 2 -0.004518 0.006856 0.000362 0.000000 0.000000 0.000000
# 3 -0.000377 0.000362 0.019940 0.000000 0.000000 0.000000
# 4 0.000000 0.000000 0.000000 0.076219 0.000000 0.000000
# 5 0.000000 0.000000 0.000000 0.000000 0.063483 0.000000
# 6 0.000000 0.000000 0.000000 0.000000 0.000000 0.091498
#
#
# Mechanical properties :
#
#
# Convention : Reuss Voigt Hill
#
# Bulk Modulus (GPa) = 35.50633 62.55592 49.03113
# Shear Modulus (GPa) = 17.42882 28.04633 22.73758
#
# Velocity S-wave (km/s) = 2.90734 3.68808 3.32073
# Velocity P-wave (km/s) = 5.33761 6.96234 6.20340
#
# Compressibility (1/GPa) = 0.02816399
#
# Stress axis : x y z
#
# Youngs Moduli (GPa) = 95.86068 145.84970 50.14923
#
# Poissons Ratio (x) = 0.65891 0.01890
# Poissons Ratio (y) = 0.43307 -0.01817
# Poissons Ratio (z) = 0.03612 -0.05283
#
# Static dielectric constant tensor:
#      x y z
#    x 1.763030 0.000000 0.000000 
#    y 0.000000 1.753740 0.000000 
#    z 0.000000 0.000000 1.803650 
# 
# From -- ./inp_files/16852.got.cif
#   From: 2010.05.17/outbox.cif.g08.bks.cpg/sg65_9_cif.got.tgz:16852.got - 2010.06.03 17:01:31.
