data_PCOD9488720
_publ_section_title
;
Structure prediction by ZEFSAII (Michael W. Deem and Ramdas Pophale) SiO2 
 PCOD9488720
Probable space group: C M M M
;
_chemical_formula_sum "Si O2"
_cell_formula_units_Z 88
_cell_length_a 18.645133
_cell_length_b 9.328808
_cell_length_c 29.366867
_cell_angle_alpha 90.000000
_cell_angle_beta 90.000000
_cell_angle_gamma 90.000000
_cell_volume 5107.980807
_symmetry_space_group_name_H-M "C M M M"
_symmetry_group_IT_number 65
_symmetry_cell_setting 'orthorhombic'
loop_
_space_group_symop_operation_xyz
x,y,z
-x,-y,z
x,-y,-z
-x,y,-z
-x,-y,-z
x,y,-z
-x,y,z
x,-y,z
1/2+x,1/2+y,z
1/2-x,1/2-y,z
1/2+x,1/2-y,-z
1/2-x,1/2+y,-z
1/2-x,1/2-y,-z
1/2+x,1/2+y,-z
1/2-x,1/2+y,z
1/2+x,1/2-y,z
loop_
_atom_site_type_symbol
_atom_site_label
_atom_site_fract_x
_atom_site_fract_y
_atom_site_fract_z
Si Si1 0.082261 0.825757 0.000000
Si Si2 0.912636 0.335046 0.729701
Si Si3 0.414712 0.329991 0.360549
Si Si4 0.826315 0.827104 0.088556
Si Si5 0.173983 0.827996 0.550752
Si Si6 0.415549 0.329080 0.179093
O O1 0.125534 0.783662 0.954824
O O2 0.000000 0.774912 0.000000
O O3 0.079643 0.000000 0.000000
O O4 0.889922 0.500000 0.730248
O O5 0.888780 0.255771 0.683739
O O6 0.891209 0.253741 0.775733
O O7 0.000000 0.331269 0.729185
O O8 0.500000 0.307668 0.365226
O O9 0.403279 0.500000 0.353274
O O10 0.376154 0.286518 0.407200
O O11 0.750000 0.750000 0.087267
O O12 0.869011 0.792849 0.134899
O O13 0.817034 0.000000 0.086809
O O14 0.144655 0.795153 0.500000
O O15 0.250000 0.750000 0.554940
O O16 0.183982 0.000000 0.552897
O O17 0.500000 0.297040 0.170800
O O18 0.410475 0.500000 0.186968
#
# Coordination Sequence:
#
# PCOD9488720 Si02
#       6
#     8  16  16  16  16  16
#     4   9  17  32  55  79 100 127 168 208 238 279
#     4   9  17  29  47  72  99 125 155 196 245 289
#     4   9  17  30  49  72  97 125 158 197 239 283
#     4  10  20  33  51  75 103 133 162 198 244 289
#     4   9  18  32  49  69  94 125 159 194 235 284
#     4   9  17  31  51  72  94 125 166 203 234 277
#
# _framework density 17.227941999999999
#
# number of rings (size 3 to 8) (size 9 to 14) (size 15 to 20)
#    0.000    2.818    0.000    1.364    0.000    6.182 
#    0.000    2.727    0.000    2.182    0.000    5.091 
#    0.000    0.000    0.000    0.000    0.000    0.000 
#
# Total GULP energy -245260.695687 kJ/mol
# GULP energy per Si atom -5574.106720 kJ/mol
# Density = 1.718873 g / cm^3
# Si number density = 17.227942 Si / 1000 Ang^3
#
#
#
# Elastic Constant Matrix: (Units=GPa)
#
#
# Indices 1 2 3 4 5 6 
#
# 1 78.7540 41.9878 87.1494 0.0000 0.0000 0.0000
# 2 41.9878 36.9707 75.1344 0.0000 0.0000 0.0000
# 3 87.1494 75.1344 216.9121 0.0000 0.0000 0.0000
# 4 0.0000 0.0000 0.0000 14.1907 0.0000 0.0000
# 5 0.0000 0.0000 0.0000 0.0000 -11.1041 0.0000
# 6 0.0000 0.0000 0.0000 0.0000 0.0000 23.9177
#
#
#
# Elastic Compliance Matrix: (Units=1/GPa)
#
#
# Indices 1 2 3 4 5 6 
#
# 1 0.032241 -0.034760 -0.000913 0.000000 0.000000 0.000000
# 2 -0.034760 0.128838 -0.030662 0.000000 0.000000 0.000000
# 3 -0.000913 -0.030662 0.015598 0.000000 0.000000 0.000000
# 4 0.000000 0.000000 0.000000 0.070469 0.000000 0.000000
# 5 0.000000 0.000000 0.000000 0.000000 -0.090057 0.000000
# 6 0.000000 0.000000 0.000000 0.000000 0.000000 0.041810
#
#
# Mechanical properties :
#
#
# Convention : Reuss Voigt Hill
#
# Bulk Modulus (GPa) = 22.72370 82.35334 52.53852
# Shear Modulus (GPa) = 14.44096 13.95853 14.19975
#
# Velocity S-wave (km/s) = 2.89836 2.84953 2.87405
# Velocity P-wave (km/s) = 4.94159 7.66371 6.44794
#
# Compressibility (1/GPa) = 0.04400692
#
# Stress axis : x y z
#
# Youngs Moduli (GPa) = 31.01675 7.76167 64.11217
#
# Poissons Ratio (x) = 0.26980 0.05854
# Poissons Ratio (y) = 1.07815 1.96578
# Poissons Ratio (z) = 0.02832 0.23799
#
# Static dielectric constant tensor:
#      x y z
#    x 1.558550 0.000000 0.000000 
#    y 0.000000 1.574770 0.000000 
#    z 0.000000 0.000000 1.580300 
# 
# From -- ./inp_files/75368.got.cif
#   From: 2010.05.17/outbox.cif.g08.bks.cpg/sg65_38_cif.got.tgz:75368.got - 2010.06.03 17:01:31.
