data_PCOD9488812
_publ_section_title
;
Structure prediction by ZEFSAII (Michael W. Deem and Ramdas Pophale) SiO2 
 PCOD9488812
Probable space group: C M M M
;
_chemical_formula_sum "Si O2"
_cell_formula_units_Z 104
_cell_length_a 15.467371
_cell_length_b 8.994511
_cell_length_c 35.379445
_cell_angle_alpha 90.000000
_cell_angle_beta 90.000000
_cell_angle_gamma 90.000000
_cell_volume 4922.039285
_symmetry_space_group_name_H-M "C M M M"
_symmetry_group_IT_number 65
_symmetry_cell_setting 'orthorhombic'
loop_
_space_group_symop_operation_xyz
x,y,z
-x,-y,z
x,-y,-z
-x,y,-z
-x,-y,-z
x,y,-z
-x,y,z
x,-y,z
1/2+x,1/2+y,z
1/2-x,1/2-y,z
1/2+x,1/2-y,-z
1/2-x,1/2+y,-z
1/2-x,1/2-y,-z
1/2+x,1/2+y,-z
1/2-x,1/2+y,z
1/2+x,1/2-y,z
loop_
_atom_site_type_symbol
_atom_site_label
_atom_site_fract_x
_atom_site_fract_y
_atom_site_fract_z
Si Si1 0.155001 0.322913 0.808614
Si Si2 0.397022 0.831257 0.341101
Si Si3 0.155220 0.823107 0.734337
Si Si4 0.605777 0.327489 0.500000
Si Si5 0.896177 0.323039 0.423555
Si Si6 0.102718 0.165393 0.116402
Si Si7 0.394344 0.826868 0.041887
O O1 0.158308 0.500000 0.804656
O O2 0.250000 0.250000 0.810055
O O3 0.111606 0.250504 0.771354
O O4 0.115025 0.273463 0.848209
O O5 0.500000 0.844815 0.345528
O O6 0.382641 0.725178 0.305778
O O7 0.363292 0.776457 0.381954
O O8 0.363481 0.000000 0.333510
O O9 0.250000 0.750000 0.733427
O O10 0.158165 0.000000 0.738631
O O11 0.626876 0.500000 0.500000
O O12 0.500000 0.313187 0.500000
O O13 0.638136 0.253664 0.461252
O O14 0.883769 0.500000 0.426064
O O15 0.000000 0.295785 0.423817
O O16 0.137845 0.231856 0.077257
O O17 0.000000 0.151952 0.111248
O O18 0.138249 0.000000 0.124506
O O19 0.500000 0.822873 0.042273
O O20 0.370355 0.000000 0.046305
O O21 0.367371 0.775086 0.000000
#
# Coordination Sequence:
#
# PCOD9488812 Si02
#       7
#    16  16  16   8  16  16  16
#     4  11  22  38  58  76  99 131 168 208 252 303
#     4   9  18  33  52  75 103 133 166 206 252 298
#     4  11  22  37  56  76 100 130 167 207 248 299
#     4   9  15  21  33  57  90 125 160 199 240 283
#     4   8  14  25  41  61  89 126 163 197 237 288
#     4  10  20  33  51  78 109 137 170 211 251 294
#     4   8  14  26  45  70 101 136 172 208 247 292
#
# _framework density 21.129453999999999
#
# number of rings (size 3 to 8) (size 9 to 14) (size 15 to 20)
#    0.000    2.538    0.000    5.769    0.000    3.692 
#    0.000    3.077    0.000    0.462    0.000    0.538 
#    0.000    0.000    0.000    0.000    0.000    0.000 
#
# Total GULP energy -290025.903697 kJ/mol
# GULP energy per Si atom -5577.421225 kJ/mol
# Density = 2.108136 g / cm^3
# Si number density = 21.129454 Si / 1000 Ang^3
#
#
#
# Elastic Constant Matrix: (Units=GPa)
#
#
# Indices 1 2 3 4 5 6 
#
# 1 19.7438 7.5935 10.6199 0.0000 0.0000 0.0000
# 2 7.5935 136.3189 99.8652 0.0000 0.0000 0.0000
# 3 10.6199 99.8652 214.2278 0.0000 0.0000 0.0000
# 4 0.0000 0.0000 0.0000 -13.6845 0.0000 0.0000
# 5 0.0000 0.0000 0.0000 0.0000 32.2420 0.0000
# 6 0.0000 0.0000 0.0000 0.0000 0.0000 12.8587
#
#
#
# Elastic Compliance Matrix: (Units=1/GPa)
#
#
# Indices 1 2 3 4 5 6 
#
# 1 0.052248 -0.001538 -0.001873 0.000000 0.000000 0.000000
# 2 -0.001538 0.011185 -0.005138 0.000000 0.000000 0.000000
# 3 -0.001873 -0.005138 0.007156 0.000000 0.000000 0.000000
# 4 0.000000 0.000000 0.000000 -0.073076 0.000000 0.000000
# 5 0.000000 0.000000 0.000000 0.000000 0.031015 0.000000
# 6 0.000000 0.000000 0.000000 0.000000 0.000000 0.077769
#
#
# Mechanical properties :
#
#
# Convention : Reuss Voigt Hill
#
# Bulk Modulus (GPa) = 18.69480 67.38306 43.03893
# Shear Modulus (GPa) = 35.40413 23.09736 29.25075
#
# Velocity S-wave (km/s) = 4.09783 3.30985 3.72473
# Velocity P-wave (km/s) = 5.59076 6.82397 6.23791
#
# Compressibility (1/GPa) = 0.05349080
#
# Stress axis : x y z
#
# Youngs Moduli (GPa) = 19.13950 89.40188 139.74433
#
# Poissons Ratio (x) = 0.13752 0.26174
# Poissons Ratio (y) = 0.02944 0.71801
# Poissons Ratio (z) = 0.03585 0.45935
#
# Static dielectric constant tensor:
#      x y z
#    x 1.830910 0.000000 0.000000 
#    y 0.000000 1.725440 0.000000 
#    z 0.000000 0.000000 1.826130 
# 
# From -- ./inp_files/78224.got.cif
#   From: 2010.05.17/outbox.cif.g08.bks.cpg/sg65_40_cif.got.tgz:78224.got - 2010.06.03 17:01:31.
