data_PCOD9488873
_publ_section_title
;
Structure prediction by ZEFSAII (Michael W. Deem and Ramdas Pophale) SiO2 
 PCOD9488873
Probable space group: C M M M
;
_chemical_formula_sum "Si O2"
_cell_formula_units_Z 64
_cell_length_a 14.987817
_cell_length_b 19.688674
_cell_length_c 9.800579
_cell_angle_alpha 90.000000
_cell_angle_beta 90.000000
_cell_angle_gamma 90.000000
_cell_volume 2892.055238
_symmetry_space_group_name_H-M "C M M M"
_symmetry_group_IT_number 65
_symmetry_cell_setting 'orthorhombic'
loop_
_space_group_symop_operation_xyz
x,y,z
-x,-y,z
x,-y,-z
-x,y,-z
-x,-y,-z
x,y,-z
-x,y,z
x,-y,z
1/2+x,1/2+y,z
1/2-x,1/2-y,z
1/2+x,1/2-y,-z
1/2-x,1/2+y,-z
1/2-x,1/2-y,-z
1/2+x,1/2+y,-z
1/2-x,1/2+y,z
1/2+x,1/2-y,z
loop_
_atom_site_type_symbol
_atom_site_label
_atom_site_fract_x
_atom_site_fract_y
_atom_site_fract_z
Si Si1 0.897419 0.810861 0.648640
Si Si2 0.837015 0.299576 0.841885
Si Si3 0.607730 0.080303 0.659171
Si Si4 0.609046 0.578067 0.150221
O O1 0.856452 0.798601 0.500000
O O2 0.898482 0.745711 0.744130
O O3 0.857237 0.873543 0.731665
O O4 0.000000 0.830126 0.629957
O O5 0.750000 0.250000 0.839490
O O6 0.841090 0.372301 0.767156
O O7 0.863719 0.305917 0.000000
O O8 0.627937 0.098090 0.500000
O O9 0.500000 0.088925 0.676591
O O10 0.626861 0.000000 0.677322
O O11 0.500000 0.579324 0.148158
O O12 0.635087 0.500000 0.167253
O O13 0.638568 0.602704 0.000000
#
# Coordination Sequence:
#
# PCOD9488873 Si02
#       4
#    16  16  16  16
#     4  10  20  33  52  78 105 137 181 231 282 339
#     4  11  24  39  55  80 115 153 192 234 284 346
#     4   9  19  38  65  95 123 151 190 245 305 361
#     4   8  14  26  45  69  98 132 169 211 259 308
#
# _framework density 22.129591000000001
#
# number of rings (size 3 to 8) (size 9 to 14) (size 15 to 20)
#    0.000    2.500    0.000    3.750    0.000    8.000 
#    0.000    5.000    0.000    1.500    0.000    0.000 
#    0.000    0.000    0.000    0.000    0.000    0.000 
#
# Total GULP energy -178441.687692 kJ/mol
# GULP energy per Si atom -5576.302740 kJ/mol
# Density = 2.207922 g / cm^3
# Si number density = 22.129591 Si / 1000 Ang^3
#
#
#
# Elastic Constant Matrix: (Units=GPa)
#
#
# Indices 1 2 3 4 5 6 
#
# 1 42.0166 18.3775 38.5022 0.0000 0.0000 0.0000
# 2 18.3775 124.9311 114.0067 0.0000 0.0000 0.0000
# 3 38.5022 114.0067 222.9369 0.0000 0.0000 0.0000
# 4 0.0000 0.0000 0.0000 39.8871 0.0000 0.0000
# 5 0.0000 0.0000 0.0000 0.0000 2.6476 0.0000
# 6 0.0000 0.0000 0.0000 0.0000 0.0000 15.4605
#
#
#
# Elastic Compliance Matrix: (Units=1/GPa)
#
#
# Indices 1 2 3 4 5 6 
#
# 1 0.028296 0.000557 -0.005172 0.000000 0.000000 0.000000
# 2 0.000557 0.015019 -0.007777 0.000000 0.000000 0.000000
# 3 -0.005172 -0.007777 0.009356 0.000000 0.000000 0.000000
# 4 0.000000 0.000000 0.000000 0.025071 0.000000 0.000000
# 5 0.000000 0.000000 0.000000 0.000000 0.377702 0.000000
# 6 0.000000 0.000000 0.000000 0.000000 0.000000 0.064681
#
#
# Mechanical properties :
#
#
# Convention : Reuss Voigt Hill
#
# Bulk Modulus (GPa) = 35.85801 81.29525 58.57663
# Shear Modulus (GPa) = 9.02196 26.19891 17.61044
#
# Velocity S-wave (km/s) = 2.02132 3.44450 2.82403
# Velocity P-wave (km/s) = 4.65687 7.25501 6.09597
#
# Compressibility (1/GPa) = 0.02788777
#
# Stress axis : x y z
#
# Youngs Moduli (GPa) = 35.34122 66.58104 106.88635
#
# Poissons Ratio (x) = -0.03710 0.55278
# Poissons Ratio (y) = -0.01969 0.83124
# Poissons Ratio (z) = 0.18277 0.51779
#
# Static dielectric constant tensor:
#      x y z
#    x 1.895170 0.000000 0.000000 
#    y 0.000000 1.808590 0.000000 
#    z 0.000000 0.000000 1.872330 
# 
# From -- ./inp_files/8786.got.cif
#   From: 2010.05.17/outbox.cif.g08.bks.cpg/sg65_5_cif.got.tgz:8786.got - 2010.06.03 17:01:31.
