data_PCOD9488478
_publ_section_title
;
Structure prediction by ZEFSAII (Michael W. Deem and Ramdas Pophale) SiO2 
 PCOD9488478
Probable space group: C M M M
;
_chemical_formula_sum "Si O2"
_cell_formula_units_Z 104
_cell_length_a 28.984592
_cell_length_b 28.772026
_cell_length_c 7.553094
_cell_angle_alpha 90.000000
_cell_angle_beta 90.000000
_cell_angle_gamma 90.000000
_cell_volume 6298.868259
_symmetry_space_group_name_H-M "C M M M"
_symmetry_group_IT_number 65
_symmetry_cell_setting 'orthorhombic'
loop_
_space_group_symop_operation_xyz
x,y,z
-x,-y,z
x,-y,-z
-x,y,-z
-x,-y,-z
x,y,-z
-x,y,z
x,-y,z
1/2+x,1/2+y,z
1/2-x,1/2-y,z
1/2+x,1/2-y,-z
1/2-x,1/2+y,-z
1/2-x,1/2-y,-z
1/2+x,1/2+y,-z
1/2-x,1/2+y,z
1/2+x,1/2-y,z
loop_
_atom_site_type_symbol
_atom_site_label
_atom_site_fract_x
_atom_site_fract_y
_atom_site_fract_z
Si Si1 0.313551 0.056743 0.000000
Si Si2 0.947072 0.326288 0.290795
Si Si3 0.552526 0.723920 0.210923
Si Si4 0.114870 0.587767 0.285208
Si Si5 0.866603 0.944696 0.289661
Si Si6 0.052444 0.878143 0.290810
Si Si7 0.707036 0.556117 0.000000
Si Si8 0.448232 0.000000 0.713797
O O1 0.339688 0.076844 0.827601
O O2 0.259983 0.071062 0.000000
O O3 0.316860 0.000000 0.000000
O O4 0.951252 0.334630 0.500000
O O5 0.928469 0.273955 0.265243
O O6 0.911400 0.365169 0.228177
O O7 0.000000 0.329212 0.217772
O O8 0.500000 0.723888 0.283200
O O9 0.571884 0.674117 0.266450
O O10 0.550944 0.723737 0.000000
O O11 0.122516 0.588001 0.500000
O O12 0.079988 0.545812 0.239837
O O13 0.859570 0.936386 0.500000
O O14 0.911261 0.916041 0.225806
O O15 0.822605 0.930493 0.172697
O O16 0.874121 0.000000 0.266617
O O17 0.048386 0.886242 0.500000
O O18 0.000000 0.880208 0.216207
O O19 0.708565 0.500000 0.000000
O O20 0.500000 0.000000 0.784159
O O21 0.451094 0.000000 0.500000
#
# Coordination Sequence:
#
# PCOD9488478 Si02
#       8
#     8  16  16  16  16  16   8   8
#     4  11  22  36  52  72  96 124 163 210 256 300
#     4   9  17  30  47  66  94 132 168 201 239 285
#     4   9  17  27  41  66  98 132 168 202 232 270
#     4  10  20  33  49  71  97 128 163 202 249 297
#     4   9  18  33  52  76 103 131 165 198 235 289
#     4   9  17  29  47  72 104 138 165 193 231 278
#     4   9  20  36  53  71  95 127 163 208 253 290
#     4   9  16  29  47  67  98 133 161 190 233 295
#
# _framework density 16.510902000000002
#
# number of rings (size 3 to 8) (size 9 to 14) (size 15 to 20)
#    0.000    2.692    0.769    0.923    2.154    4.615 
#    0.000    4.615    0.000    1.385    0.000    2.154 
#    0.000    4.923    0.000    0.000    0.000    0.000 
#
# Total GULP energy -289567.127115 kJ/mol
# GULP energy per Si atom -5568.598598 kJ/mol
# Density = 1.647332 g / cm^3
# Si number density = 16.510902 Si / 1000 Ang^3
#
#
#
# Elastic Constant Matrix: (Units=GPa)
#
#
# Indices 1 2 3 4 5 6 
#
# 1 122.1495 65.5411 41.1674 0.0000 0.0000 0.0000
# 2 65.5411 94.7055 25.0356 0.0000 0.0000 0.0000
# 3 41.1674 25.0356 64.4829 0.0000 0.0000 0.0000
# 4 0.0000 0.0000 0.0000 4.7889 0.0000 0.0000
# 5 0.0000 0.0000 0.0000 0.0000 21.2781 0.0000
# 6 0.0000 0.0000 0.0000 0.0000 0.0000 5.5741
#
#
#
# Elastic Compliance Matrix: (Units=1/GPa)
#
#
# Indices 1 2 3 4 5 6 
#
# 1 0.014932 -0.008708 -0.006152 0.000000 0.000000 0.000000
# 2 -0.008708 0.016844 -0.000981 0.000000 0.000000 0.000000
# 3 -0.006152 -0.000981 0.019817 0.000000 0.000000 0.000000
# 4 0.000000 0.000000 0.000000 0.208818 0.000000 0.000000
# 5 0.000000 0.000000 0.000000 0.000000 0.046997 0.000000
# 6 0.000000 0.000000 0.000000 0.000000 0.000000 0.179400
#
#
# Mechanical properties :
#
#
# Convention : Reuss Voigt Hill
#
# Bulk Modulus (GPa) = 50.22128 60.53623 55.37876
# Shear Modulus (GPa) = 9.52150 16.30113 12.91132
#
# Velocity S-wave (km/s) = 2.40402 3.14553 2.79944
# Velocity P-wave (km/s) = 6.17971 7.06658 6.63797
#
# Compressibility (1/GPa) = 0.01991188
#
# Stress axis : x y z
#
# Youngs Moduli (GPa) = 66.96840 59.36684 50.46264
#
# Poissons Ratio (x) = 0.51694 0.31047
# Poissons Ratio (y) = 0.58313 0.04949
# Poissons Ratio (z) = 0.41202 0.05822
#
# Static dielectric constant tensor:
#      x y z
#    x 1.542130 0.000000 0.000000 
#    y 0.000000 1.571630 0.000000 
#    z 0.000000 0.000000 1.598370 
# 
# From -- ./inp_files/15077.got.cif
#   From: 2010.05.17/outbox.cif.g08.bks.cpg/sg65_8_cif.got.tgz:15077.got - 2010.06.03 17:01:31.
