data_PCOD9488512
_publ_section_title
;
Structure prediction by ZEFSAII (Michael W. Deem and Ramdas Pophale) SiO2 
 PCOD9488512
Probable space group: C M M M
;
_chemical_formula_sum "Si O2"
_cell_formula_units_Z 74
_cell_length_a 19.802220
_cell_length_b 19.844628
_cell_length_c 9.084283
_cell_angle_alpha 90.000000
_cell_angle_beta 90.000000
_cell_angle_gamma 90.000000
_cell_volume 3569.829701
_symmetry_space_group_name_H-M "C M M M"
_symmetry_group_IT_number 65
_symmetry_cell_setting 'orthorhombic'
loop_
_space_group_symop_operation_xyz
x,y,z
-x,-y,z
x,-y,-z
-x,y,-z
-x,-y,-z
x,y,-z
-x,y,z
x,-y,z
1/2+x,1/2+y,z
1/2-x,1/2-y,z
1/2+x,1/2-y,-z
1/2-x,1/2+y,-z
1/2-x,1/2-y,-z
1/2+x,1/2+y,-z
1/2-x,1/2+y,z
1/2+x,1/2-y,z
loop_
_atom_site_type_symbol
_atom_site_label
_atom_site_fract_x
_atom_site_fract_y
_atom_site_fract_z
Si Si1 0.500000 0.638084 0.663810
Si Si2 0.275447 0.500000 0.331758
Si Si3 0.621169 0.725009 0.323763
Si Si4 0.613005 0.137521 0.170498
Si Si5 0.000000 0.000000 0.500000
Si Si6 0.389404 0.000000 0.330413
Si Si7 0.723483 0.636965 0.830224
O O1 0.500000 0.671489 0.500000
O O2 0.431983 0.667922 0.728601
O O3 0.500000 0.559830 0.626969
O O4 0.300357 0.500000 0.500000
O O5 0.193299 0.500000 0.333021
O O6 0.297527 0.567810 0.250627
O O7 0.629872 0.727262 0.500000
O O8 0.595269 0.796229 0.262863
O O9 0.690604 0.699841 0.252028
O O10 0.695140 0.137479 0.173105
O O11 0.590095 0.067974 0.245832
O O12 0.591750 0.141345 0.000000
O O13 0.411719 0.000000 0.500000
O O14 0.702632 0.637089 0.000000
#
# Coordination Sequence:
#
# PCOD9488512 Si02
#       7
#     8   8  16  16   2   8  16
#     4   8  20  38  59  80 106 138 184 238 289 332
#     4   9  17  30  48  73 105 142 188 225 264 326
#     4  11  21  35  54  81 106 138 187 240 287 334
#     4  10  20  34  53  78 116 156 185 221 280 347
#     4   8  16  44  64  76 106 142 188 224 290 346
#     4   9  17  31  52  79 108 148 188 225 259 320
#     4  10  20  33  49  76 114 150 182 224 284 344
#
# _framework density 20.729279999999999
#
# number of rings (size 3 to 8) (size 9 to 14) (size 15 to 20)
#    0.324    1.946    0.000    3.243    0.000    8.649 
#    1.946    2.162    0.000    0.649    0.000    9.081 
#    0.000    0.000    0.000    0.000    0.000    0.000 
#
# Total GULP energy -206193.868813 kJ/mol
# GULP energy per Si atom -5572.807265 kJ/mol
# Density = 2.068210 g / cm^3
# Si number density = 20.729280 Si / 1000 Ang^3
#
#
#
# Elastic Constant Matrix: (Units=GPa)
#
#
# Indices 1 2 3 4 5 6 
#
# 1 37.5563 21.7259 16.1671 0.0000 0.0000 0.0000
# 2 21.7259 182.8030 71.2020 0.0000 0.0000 0.0000
# 3 16.1671 71.2020 145.6663 0.0000 0.0000 0.0000
# 4 0.0000 0.0000 0.0000 36.5249 0.0000 0.0000
# 5 0.0000 0.0000 0.0000 0.0000 -2.3568 0.0000
# 6 0.0000 0.0000 0.0000 0.0000 0.0000 -2.9493
#
#
#
# Elastic Compliance Matrix: (Units=1/GPa)
#
#
# Indices 1 2 3 4 5 6 
#
# 1 0.029010 -0.002710 -0.001895 0.000000 0.000000 0.000000
# 2 -0.002710 0.007010 -0.003126 0.000000 0.000000 0.000000
# 3 -0.001895 -0.003126 0.008603 0.000000 0.000000 0.000000
# 4 0.000000 0.000000 0.000000 0.027379 0.000000 0.000000
# 5 0.000000 0.000000 0.000000 0.000000 -0.424306 0.000000
# 6 0.000000 0.000000 0.000000 0.000000 0.000000 -0.339063
#
#
# Mechanical properties :
#
#
# Convention : Reuss Voigt Hill
#
# Bulk Modulus (GPa) = 34.29125 64.91283 49.60204
# Shear Modulus (GPa) = -7.50542 23.37247 7.93353
#
# Velocity S-wave (km/s) = -1.90487 3.36148 1.95845
# Velocity P-wave (km/s) = 3.42641 6.81532 5.39393
#
# Compressibility (1/GPa) = 0.02916196
#
# Stress axis : x y z
#
# Youngs Moduli (GPa) = 34.47081 142.65602 116.23572
#
# Poissons Ratio (x) = 0.38654 0.22030
# Poissons Ratio (y) = 0.09340 0.36332
# Poissons Ratio (z) = 0.06533 0.44590
#
# Static dielectric constant tensor:
#      x y z
#    x 1.839850 0.000000 0.000000 
#    y 0.000000 1.715430 0.000000 
#    z 0.000000 0.000000 1.706290 
# 
# From -- ./inp_files/11365.got.cif
#   From: 2010.05.17/outbox.cif.g08.bks.cpg/sg65_6_cif.got.tgz:11365.got - 2010.06.03 17:01:31.
