data_PCOD9488189
_publ_section_title
;
Structure prediction by ZEFSAII (Michael W. Deem and Ramdas Pophale) SiO2 
 PCOD9488189
Probable space group: C M M M
;
_chemical_formula_sum "Si O2"
_cell_formula_units_Z 96
_cell_length_a 9.206320
_cell_length_b 19.330467
_cell_length_c 32.062192
_cell_angle_alpha 90.000000
_cell_angle_beta 90.000000
_cell_angle_gamma 90.000000
_cell_volume 5705.866720
_symmetry_space_group_name_H-M "C M M M"
_symmetry_group_IT_number 65
_symmetry_cell_setting 'orthorhombic'
loop_
_space_group_symop_operation_xyz
x,y,z
-x,-y,z
x,-y,-z
-x,y,-z
-x,-y,-z
x,y,-z
-x,y,z
x,-y,z
1/2+x,1/2+y,z
1/2-x,1/2-y,z
1/2+x,1/2-y,-z
1/2-x,1/2+y,-z
1/2-x,1/2-y,-z
1/2+x,1/2+y,-z
1/2-x,1/2+y,z
1/2+x,1/2-y,z
loop_
_atom_site_type_symbol
_atom_site_label
_atom_site_fract_x
_atom_site_fract_y
_atom_site_fract_z
Si Si1 0.831421 0.584005 0.953470
Si Si2 0.670591 0.416072 0.545911
Si Si3 0.673918 0.823406 0.294054
Si Si4 0.670983 0.416886 0.130242
Si Si5 0.326021 0.824495 0.198636
Si Si6 0.825482 0.580681 0.370464
O O1 0.828071 0.500000 0.954082
O O2 0.732182 0.605693 0.914971
O O3 0.000000 0.603842 0.946728
O O4 0.786847 0.607196 0.000000
O O5 0.721616 0.392127 0.500000
O O6 0.500000 0.399562 0.549776
O O7 0.682262 0.500000 0.545567
O O8 0.756619 0.392069 0.586526
O O9 0.500000 0.814728 0.297051
O O10 0.750000 0.750000 0.300355
O O11 0.704540 0.846607 0.246574
O O12 0.720074 0.876448 0.329900
O O13 0.500000 0.401966 0.133576
O O14 0.690497 0.500000 0.133601
O O15 0.759574 0.378027 0.165997
O O16 0.500000 0.818500 0.193621
O O17 0.250000 0.750000 0.192721
O O18 0.784753 0.500000 0.365535
O O19 0.000000 0.583831 0.373797
#
# Coordination Sequence:
#
# PCOD9488189 Si02
#       6
#    16  16  16  16  16  16
#     4   8  14  26  45  69  97 129 164 199 236 282
#     4   8  14  25  41  63  92 123 153 185 224 272
#     4   9  19  34  51  70  92 122 157 193 234 282
#     4  10  20  32  48  74 105 132 162 202 243 283
#     4  10  20  35  54  72  94 127 165 202 243 293
#     4   9  17  29  46  70  97 121 150 190 233 275
#
# _framework density 16.824788000000002
#
# number of rings (size 3 to 8) (size 9 to 14) (size 15 to 20)
#    0.000    3.000    0.000    2.000    0.000    3.667 
#    0.000    5.000    0.000    3.000    0.000    0.000 
#    0.000    0.000    0.000    0.000    0.000    0.000 
#
# Total GULP energy -267328.632662 kJ/mol
# GULP energy per Si atom -5569.346514 kJ/mol
# Density = 1.678649 g / cm^3
# Si number density = 16.824788 Si / 1000 Ang^3
#
#
#
# Elastic Constant Matrix: (Units=GPa)
#
#
# Indices 1 2 3 4 5 6 
#
# 1 60.6272 33.3834 77.4478 0.0000 0.0000 0.0000
# 2 33.3834 31.0043 61.9673 0.0000 0.0000 0.0000
# 3 77.4478 61.9673 178.7851 0.0000 0.0000 0.0000
# 4 0.0000 0.0000 0.0000 -12.1049 0.0000 0.0000
# 5 0.0000 0.0000 0.0000 0.0000 27.9474 0.0000
# 6 0.0000 0.0000 0.0000 0.0000 0.0000 20.7300
#
#
#
# Elastic Compliance Matrix: (Units=1/GPa)
#
#
# Indices 1 2 3 4 5 6 
#
# 1 0.044271 -0.030392 -0.008644 0.000000 0.000000 0.000000
# 2 -0.030392 0.125837 -0.030450 0.000000 0.000000 0.000000
# 3 -0.008644 -0.030450 0.019892 0.000000 0.000000 0.000000
# 4 0.000000 0.000000 0.000000 -0.082611 0.000000 0.000000
# 5 0.000000 0.000000 0.000000 0.000000 0.035781 0.000000
# 6 0.000000 0.000000 0.000000 0.000000 0.000000 0.048239
#
#
# Mechanical properties :
#
#
# Convention : Reuss Voigt Hill
#
# Bulk Modulus (GPa) = 19.59700 68.44595 44.02147
# Shear Modulus (GPa) = 14.39300 13.82239 14.10769
#
# Velocity S-wave (km/s) = 2.92800 2.86938 2.89884
# Velocity P-wave (km/s) = 4.80665 7.19359 6.11766
#
# Compressibility (1/GPa) = 0.05102822
#
# Stress axis : x y z
#
# Youngs Moduli (GPa) = 22.58804 7.94677 50.27238
#
# Poissons Ratio (x) = 0.24152 0.43454
# Poissons Ratio (y) = 0.68651 1.53078
# Poissons Ratio (z) = 0.19524 0.24198
#
# Static dielectric constant tensor:
#      x y z
#    x 1.560020 0.000000 0.000000 
#    y 0.000000 1.545780 0.000000 
#    z 0.000000 0.000000 1.584540 
# 
# From -- ./inp_files/73220.got.cif
#   From: 2010.05.17/outbox.cif.g08.bks.cpg/sg65_37_cif.got.tgz:73220.got - 2010.06.03 17:01:31.
