data_PCOD9488473
_publ_section_title
;
Structure prediction by ZEFSAII (Michael W. Deem and Ramdas Pophale) SiO2 
 PCOD9488473
Probable space group: C M M M
;
_chemical_formula_sum "Si O2"
_cell_formula_units_Z 112
_cell_length_a 31.945938
_cell_length_b 14.495372
_cell_length_c 14.448707
_cell_angle_alpha 90.000000
_cell_angle_beta 90.000000
_cell_angle_gamma 90.000000
_cell_volume 6690.737540
_symmetry_space_group_name_H-M "C M M M"
_symmetry_group_IT_number 65
_symmetry_cell_setting 'orthorhombic'
loop_
_space_group_symop_operation_xyz
x,y,z
-x,-y,z
x,-y,-z
-x,y,-z
-x,-y,-z
x,y,-z
-x,y,z
x,-y,z
1/2+x,1/2+y,z
1/2-x,1/2-y,z
1/2+x,1/2-y,-z
1/2-x,1/2+y,-z
1/2-x,1/2-y,-z
1/2+x,1/2+y,-z
1/2-x,1/2+y,z
1/2+x,1/2-y,z
loop_
_atom_site_type_symbol
_atom_site_label
_atom_site_fract_x
_atom_site_fract_y
_atom_site_fract_z
Si Si1 0.850102 0.599031 0.101358
Si Si2 0.932661 0.604854 0.788090
Si Si3 0.049841 0.706237 0.602479
Si Si4 0.870442 0.108043 0.195270
Si Si5 0.597351 0.604634 0.605368
Si Si6 0.295132 0.720338 0.106788
Si Si7 0.546937 0.290028 0.111075
O O1 0.828107 0.500000 0.107208
O O2 0.884819 0.604130 0.178976
O O3 0.819801 0.683724 0.105014
O O4 0.871731 0.602413 0.000000
O O5 0.948799 0.500000 0.798738
O O6 0.935110 0.639909 0.683393
O O7 0.952811 0.685492 0.850067
O O8 0.063991 0.676986 0.500000
O O9 0.064944 0.811517 0.615930
O O10 0.000000 0.705189 0.605224
O O11 0.872077 0.115590 0.307132
O O12 0.827440 0.151529 0.156871
O O13 0.912426 0.158861 0.155317
O O14 0.873044 0.000000 0.170601
O O15 0.614644 0.611819 0.500000
O O16 0.579617 0.500000 0.613107
O O17 0.250000 0.750000 0.146584
O O18 0.288751 0.688415 0.000000
O O19 0.500000 0.328662 0.133204
O O20 0.551707 0.291154 0.000000
#
# Coordination Sequence:
#
# PCOD9488473 Si02
#       7
#    16  16  16  16  16  16  16
#     4   9  17  31  52  74  97 129 170 216 263 309
#     4  11  21  34  53  73  98 138 184 227 271 320
#     4  10  20  33  49  71 102 137 175 225 281 330
#     4  11  22  37  58  82 112 148 182 223 276 330
#     4   9  18  33  55  81 105 135 179 225 269 323
#     4  10  20  34  54  80 110 143 179 219 264 320
#     4  11  23  37  53  76 108 145 188 232 271 321
#
# _framework density 16.739559
#
# number of rings (size 3 to 8) (size 9 to 14) (size 15 to 20)
#    0.000    1.857    2.857    1.286    0.000    4.571 
#    0.000    6.429    0.000    0.429    0.000    0.000 
#    0.000    2.286    0.000    0.000    0.000    0.000 
#
# Total GULP energy -311749.528986 kJ/mol
# GULP energy per Si atom -5566.955875 kJ/mol
# Density = 1.670146 g / cm^3
# Si number density = 16.739559 Si / 1000 Ang^3
#
#
#
# Elastic Constant Matrix: (Units=GPa)
#
#
# Indices 1 2 3 4 5 6 
#
# 1 87.7198 44.9685 45.6231 0.0000 0.0000 0.0000
# 2 44.9685 101.4505 42.9852 0.0000 0.0000 0.0000
# 3 45.6231 42.9852 98.4605 0.0000 0.0000 0.0000
# 4 0.0000 0.0000 0.0000 24.6078 0.0000 0.0000
# 5 0.0000 0.0000 0.0000 0.0000 -92.2088 0.0000
# 6 0.0000 0.0000 0.0000 0.0000 0.0000 0.4965
#
#
#
# Elastic Compliance Matrix: (Units=1/GPa)
#
#
# Indices 1 2 3 4 5 6 
#
# 1 0.016952 -0.005136 -0.005613 0.000000 0.000000 0.000000
# 2 -0.005136 0.013650 -0.003580 0.000000 0.000000 0.000000
# 3 -0.005613 -0.003580 0.014320 0.000000 0.000000 0.000000
# 4 0.000000 0.000000 0.000000 0.040637 0.000000 0.000000
# 5 0.000000 0.000000 0.000000 0.000000 -0.010845 0.000000
# 6 0.000000 0.000000 0.000000 0.000000 0.000000 2.014271
#
#
# Mechanical properties :
#
#
# Convention : Reuss Voigt Hill
#
# Bulk Modulus (GPa) = 61.47915 61.64270 61.56093
# Shear Modulus (GPa) = 2.35509 -3.15063 -0.39777
#
# Velocity S-wave (km/s) = 1.18741 -1.37340 -0.48800
# Velocity P-wave (km/s) = 6.21985 5.86426 6.04467
#
# Compressibility (1/GPa) = 0.01626568
#
# Stress axis : x y z
#
# Youngs Moduli (GPa) = 58.99013 73.25900 69.83326
#
# Poissons Ratio (x) = 0.37625 0.39196
# Poissons Ratio (y) = 0.30297 0.24997
# Poissons Ratio (z) = 0.33110 0.26223
#
# Static dielectric constant tensor:
#      x y z
#    x 1.557030 0.000000 0.000000 
#    y 0.000000 1.587360 0.000000 
#    z 0.000000 0.000000 1.596470 
# 
# From -- ./inp_files/47947.got.cif
#   From: 2010.05.17/outbox.cif.g08.bks.cpg/sg65_24_cif.got.tgz:47947.got - 2010.06.03 17:01:31.
