data_PCOD9488685
_publ_section_title
;
Structure prediction by ZEFSAII (Michael W. Deem and Ramdas Pophale) SiO2 
 PCOD9488685
Probable space group: C M M M
;
_chemical_formula_sum "Si O2"
_cell_formula_units_Z 72
_cell_length_a 8.800762
_cell_length_b 27.687521
_cell_length_c 16.334551
_cell_angle_alpha 90.000000
_cell_angle_beta 90.000000
_cell_angle_gamma 90.000000
_cell_volume 3980.260994
_symmetry_space_group_name_H-M "C M M M"
_symmetry_group_IT_number 65
_symmetry_cell_setting 'orthorhombic'
loop_
_space_group_symop_operation_xyz
x,y,z
-x,-y,z
x,-y,-z
-x,y,-z
-x,-y,-z
x,y,-z
-x,y,z
x,-y,z
1/2+x,1/2+y,z
1/2-x,1/2-y,z
1/2+x,1/2-y,-z
1/2-x,1/2+y,-z
1/2-x,1/2-y,-z
1/2+x,1/2+y,-z
1/2-x,1/2+y,z
1/2+x,1/2-y,z
loop_
_atom_site_type_symbol
_atom_site_label
_atom_site_fract_x
_atom_site_fract_y
_atom_site_fract_z
Si Si1 0.183482 0.554985 0.259917
Si Si2 0.181101 0.696435 0.500000
Si Si3 0.317015 0.897019 0.909424
Si Si4 0.181288 0.197744 0.833736
Si Si5 0.318604 0.648505 0.660789
O O1 0.226131 0.500000 0.278653
O O2 0.225977 0.568526 0.166160
O O3 0.260432 0.595101 0.316553
O O4 0.000000 0.559176 0.266591
O O5 0.250000 0.750000 0.500000
O O6 0.238876 0.669088 0.580736
O O7 0.000000 0.699205 0.500000
O O8 0.500000 0.893478 0.908199
O O9 0.249181 0.844431 0.890072
O O10 0.270471 0.913552 0.000000
O O11 0.250000 0.250000 0.851092
O O12 0.217695 0.181581 0.740254
O O13 0.000000 0.198939 0.842300
O O14 0.500000 0.648579 0.649977
#
# Coordination Sequence:
#
# PCOD9488685 Si02
#       5
#    16   8  16  16  16
#     4   9  18  34  56  80 107 140 177 219 268 318
#     4  12  24  38  59  86 115 144 174 211 257 309
#     4   9  18  32  50  74 104 137 175 219 264 313
#     4  10  20  33  51  73 100 137 176 215 261 313
#     4  10  21  37  56  80 109 140 177 219 262 311
#
# _framework density 18.089267
#
# number of rings (size 3 to 8) (size 9 to 14) (size 15 to 20)
#    0.000    2.222    0.000    3.000    0.000    6.222 
#    0.000    2.778    0.000    3.333    0.000    6.222 
#    0.000    0.000    0.000    0.000    0.000    0.000 
#
# Total GULP energy -200992.506296 kJ/mol
# GULP energy per Si atom -5583.125175 kJ/mol
# Density = 1.804809 g / cm^3
# Si number density = 18.089267 Si / 1000 Ang^3
#
#
#
# Elastic Constant Matrix: (Units=GPa)
#
#
# Indices 1 2 3 4 5 6 
#
# 1 39.8313 27.8187 37.1167 0.0000 0.0000 0.0000
# 2 27.8187 105.4228 33.1642 0.0000 0.0000 0.0000
# 3 37.1167 33.1642 102.7135 0.0000 0.0000 0.0000
# 4 0.0000 0.0000 0.0000 6.6812 0.0000 0.0000
# 5 0.0000 0.0000 0.0000 0.0000 22.7339 0.0000
# 6 0.0000 0.0000 0.0000 0.0000 0.0000 28.8784
#
#
#
# Elastic Compliance Matrix: (Units=1/GPa)
#
#
# Indices 1 2 3 4 5 6 
#
# 1 0.042067 -0.007033 -0.012931 0.000000 0.000000 0.000000
# 2 -0.007033 0.011734 -0.001247 0.000000 0.000000 0.000000
# 3 -0.012931 -0.001247 0.014811 0.000000 0.000000 0.000000
# 4 0.000000 0.000000 0.000000 0.149674 0.000000 0.000000
# 5 0.000000 0.000000 0.000000 0.000000 0.043987 0.000000
# 6 0.000000 0.000000 0.000000 0.000000 0.000000 0.034628
#
#
# Mechanical properties :
#
#
# Convention : Reuss Voigt Hill
#
# Bulk Modulus (GPa) = 38.18153 49.35184 43.76669
# Shear Modulus (GPa) = 14.36562 21.64990 18.00776
#
# Velocity S-wave (km/s) = 2.82113 3.46329 3.15857
# Velocity P-wave (km/s) = 5.63603 6.58286 6.12776
#
# Compressibility (1/GPa) = 0.02619068
#
# Stress axis : x y z
#
# Youngs Moduli (GPa) = 23.77152 85.22411 67.51665
#
# Poissons Ratio (x) = 0.59936 0.87304
# Poissons Ratio (y) = 0.16718 0.08421
# Poissons Ratio (z) = 0.30738 0.10629
#
# Static dielectric constant tensor:
#      x y z
#    x 1.605680 0.000000 0.000000 
#    y 0.000000 1.585230 0.000000 
#    z 0.000000 0.000000 1.620660 
# 
# From -- ./inp_files/36508.got.cif
#   From: 2010.05.17/outbox.cif.g08.bks.cpg/sg65_19_cif.got.tgz:36508.got - 2010.06.03 17:01:31.
