data_PCOD9488470
_publ_section_title
;
Structure prediction by ZEFSAII (Michael W. Deem and Ramdas Pophale) SiO2 
 PCOD9488470
Probable space group: C M M M
;
_chemical_formula_sum "Si O2"
_cell_formula_units_Z 88
_cell_length_a 8.425460
_cell_length_b 17.286717
_cell_length_c 30.849441
_cell_angle_alpha 90.000000
_cell_angle_beta 90.000000
_cell_angle_gamma 90.000000
_cell_volume 4493.176122
_symmetry_space_group_name_H-M "C M M M"
_symmetry_group_IT_number 65
_symmetry_cell_setting 'orthorhombic'
loop_
_space_group_symop_operation_xyz
x,y,z
-x,-y,z
x,-y,-z
-x,y,-z
-x,-y,-z
x,y,-z
-x,y,z
x,-y,z
1/2+x,1/2+y,z
1/2-x,1/2-y,z
1/2+x,1/2-y,-z
1/2-x,1/2+y,-z
1/2-x,1/2-y,-z
1/2+x,1/2+y,-z
1/2-x,1/2+y,z
1/2+x,1/2-y,z
loop_
_atom_site_type_symbol
_atom_site_label
_atom_site_fract_x
_atom_site_fract_y
_atom_site_fract_z
Si Si1 0.180241 0.909300 0.274560
Si Si2 0.689488 0.500000 0.051242
Si Si3 0.308490 0.162595 0.093253
Si Si4 0.307801 0.408821 0.546742
Si Si5 0.812360 0.333100 0.192441
Si Si6 0.192800 0.836760 0.636679
O O1 0.265095 0.892400 0.229481
O O2 0.251178 0.873408 0.318237
O O3 0.000000 0.879037 0.269591
O O4 0.173646 0.000000 0.281963
O O5 0.500000 0.500000 0.058088
O O6 0.753884 0.582687 0.069892
O O7 0.723422 0.500000 0.000000
O O8 0.500000 0.164733 0.091178
O O9 0.250000 0.250000 0.079082
O O10 0.252226 0.153576 0.143465
O O11 0.250354 0.377171 0.500000
O O12 0.500000 0.400386 0.546749
O O13 0.274494 0.500000 0.547351
O O14 0.248843 0.373843 0.591676
O O15 0.750000 0.250000 0.207262
O O16 0.000000 0.330455 0.189078
O O17 0.250000 0.750000 0.636476
O O18 0.000000 0.843477 0.637000
#
# Coordination Sequence:
#
# PCOD9488470 Si02
#       6
#    16   8  16  16  16  16
#     4  10  21  35  52  76 105 141 181 223 275 330
#     4  11  25  43  65  95 129 167 211 257 306 363
#     4  10  22  41  65  93 126 165 208 256 310 364
#     4   8  14  27  49  73  94 122 164 213 261 311
#     4  10  21  37  58  84 114 147 187 232 280 336
#     4  10  20  33  49  71 101 133 170 215 263 320
#
# _framework density 19.585256000000001
#
# number of rings (size 3 to 8) (size 9 to 14) (size 15 to 20)
#    0.000    2.273    0.000    3.000    1.273    8.364 
#    0.000    0.000    0.000    1.636    0.000    1.273 
#    0.000    0.000    0.000    0.000    0.000    0.000 
#
# Total GULP energy -245128.420173 kJ/mol
# GULP energy per Si atom -5571.100458 kJ/mol
# Density = 1.954068 g / cm^3
# Si number density = 19.585256 Si / 1000 Ang^3
#
#
#
# Elastic Constant Matrix: (Units=GPa)
#
#
# Indices 1 2 3 4 5 6 
#
# 1 22.7943 21.5673 26.5171 0.0000 0.0000 0.0000
# 2 21.5673 115.4318 73.6561 0.0000 0.0000 0.0000
# 3 26.5171 73.6561 107.4122 0.0000 0.0000 0.0000
# 4 0.0000 0.0000 0.0000 89.0628 0.0000 0.0000
# 5 0.0000 0.0000 0.0000 0.0000 77.1242 0.0000
# 6 0.0000 0.0000 0.0000 0.0000 0.0000 31.3517
#
#
#
# Elastic Compliance Matrix: (Units=1/GPa)
#
#
# Indices 1 2 3 4 5 6 
#
# 1 0.062222 -0.003243 -0.013137 0.000000 0.000000 0.000000
# 2 -0.003243 0.015572 -0.009878 0.000000 0.000000 0.000000
# 3 -0.013137 -0.009878 0.019326 0.000000 0.000000 0.000000
# 4 0.000000 0.000000 0.000000 0.011228 0.000000 0.000000
# 5 0.000000 0.000000 0.000000 0.000000 0.012966 0.000000
# 6 0.000000 0.000000 0.000000 0.000000 0.000000 0.031896
#
#
# Mechanical properties :
#
#
# Convention : Reuss Voigt Hill
#
# Bulk Modulus (GPa) = 22.41901 54.34656 38.38279
# Shear Modulus (GPa) = 22.66615 47.76761 35.21688
#
# Velocity S-wave (km/s) = 3.40561 4.94394 4.24504
# Velocity P-wave (km/s) = 5.18999 7.77168 6.60814
#
# Compressibility (1/GPa) = 0.04460500
#
# Stress axis : x y z
#
# Youngs Moduli (GPa) = 16.07160 64.21866 51.74250
#
# Poissons Ratio (x) = 0.20825 0.67974
# Poissons Ratio (y) = 0.05212 0.51109
# Poissons Ratio (z) = 0.21113 0.63432
#
# Static dielectric constant tensor:
#      x y z
#    x 1.731040 0.000000 0.000000 
#    y 0.000000 1.667230 0.000000 
#    z 0.000000 0.000000 1.722420 
# 
# From -- ./inp_files/76673.got.cif
#   From: 2010.05.17/outbox.cif.g08.bks.cpg/sg65_39_cif.got.tgz:76673.got - 2010.06.03 17:01:31.
