data_PCOD9488130
_publ_section_title
;
Structure prediction by ZEFSAII (Michael W. Deem and Ramdas Pophale) SiO2 
 PCOD9488130
Probable space group: C M M M
;
_chemical_formula_sum "Si O2"
_cell_formula_units_Z 88
_cell_length_a 16.030727
_cell_length_b 28.633561
_cell_length_c 11.953124
_cell_angle_alpha 90.000000
_cell_angle_beta 90.000000
_cell_angle_gamma 90.000000
_cell_volume 5486.684722
_symmetry_space_group_name_H-M "C M M M"
_symmetry_group_IT_number 65
_symmetry_cell_setting 'orthorhombic'
loop_
_space_group_symop_operation_xyz
x,y,z
-x,-y,z
x,-y,-z
-x,y,-z
-x,-y,-z
x,y,-z
-x,y,z
x,-y,z
1/2+x,1/2+y,z
1/2-x,1/2-y,z
1/2+x,1/2-y,-z
1/2-x,1/2+y,-z
1/2-x,1/2-y,-z
1/2+x,1/2+y,-z
1/2-x,1/2+y,z
1/2+x,1/2-y,z
loop_
_atom_site_type_symbol
_atom_site_label
_atom_site_fract_x
_atom_site_fract_y
_atom_site_fract_z
Si Si1 0.093020 0.195561 0.244019
Si Si2 0.906045 0.691429 0.755367
Si Si3 0.817394 0.552994 0.363606
Si Si4 0.752760 0.148456 0.633562
Si Si5 0.848059 0.194889 0.000000
Si Si6 0.000000 0.556768 0.373046
Si Si7 0.654693 0.808154 0.000000
O O1 0.098682 0.252003 0.249496
O O2 0.167178 0.173233 0.314425
O O3 0.107123 0.181515 0.114612
O O4 0.000000 0.182174 0.280997
O O5 0.831671 0.671680 0.680604
O O6 0.000000 0.677478 0.721662
O O7 0.888906 0.677397 0.884608
O O8 0.823267 0.551815 0.500000
O O9 0.798613 0.500000 0.327596
O O10 0.753333 0.593642 0.334768
O O11 0.910091 0.567722 0.321699
O O12 0.754154 0.152385 0.500000
O O13 0.752121 0.178177 0.000000
O O14 0.846284 0.251528 0.000000
O O15 0.000000 0.500000 0.380858
O O16 0.000000 0.575874 0.500000
#
# Coordination Sequence:
#
# PCOD9488130 Si02
#       7
#    16  16  16  16   8   8   8
#     4  10  20  34  50  69  94 126 165 204 240 275
#     4  10  20  32  48  71  99 130 161 195 234 278
#     4   8  15  28  45  64  88 119 156 199 238 272
#     4  11  22  32  46  69  99 132 163 192 230 288
#     4   9  15  29  53  72  87 116 158 210 247 270
#     4   7  10  20  40  62  82 107 141 185 233 270
#     4   9  15  29  51  70  93 120 156 202 246 271
#
# _framework density 16.038829
#
# number of rings (size 3 to 8) (size 9 to 14) (size 15 to 20)
#    0.000    2.636    1.818    2.182    1.273    4.364 
#    0.000    1.818    0.000    0.545    0.000    5.091 
#    0.000    2.909    0.000    0.000    0.000    0.000 
#
# Total GULP energy -245056.334690 kJ/mol
# GULP energy per Si atom -5569.462152 kJ/mol
# Density = 1.600232 g / cm^3
# Si number density = 16.038829 Si / 1000 Ang^3
#
#
#
# Elastic Constant Matrix: (Units=GPa)
#
#
# Indices 1 2 3 4 5 6 
#
# 1 124.9081 45.9702 40.4556 0.0000 0.0000 0.0000
# 2 45.9702 51.9189 23.3533 0.0000 0.0000 0.0000
# 3 40.4556 23.3533 63.7983 0.0000 0.0000 0.0000
# 4 0.0000 0.0000 0.0000 -6.8767 0.0000 0.0000
# 5 0.0000 0.0000 0.0000 0.0000 7.2594 0.0000
# 6 0.0000 0.0000 0.0000 0.0000 0.0000 18.2446
#
#
#
# Elastic Compliance Matrix: (Units=1/GPa)
#
#
# Indices 1 2 3 4 5 6 
#
# 1 0.013010 -0.009347 -0.004828 0.000000 0.000000 0.000000
# 2 -0.009347 0.029773 -0.004971 0.000000 0.000000 0.000000
# 3 -0.004828 -0.004971 0.020556 0.000000 0.000000 0.000000
# 4 0.000000 0.000000 0.000000 -0.145418 0.000000 0.000000
# 5 0.000000 0.000000 0.000000 0.000000 0.137753 0.000000
# 6 0.000000 0.000000 0.000000 0.000000 0.000000 0.054811
#
#
# Mechanical properties :
#
#
# Convention : Reuss Voigt Hill
#
# Bulk Modulus (GPa) = 39.92750 51.13149 45.52950
# Shear Modulus (GPa) = 31.82142 12.44852 22.13497
#
# Velocity S-wave (km/s) = 4.45907 2.78897 3.71898
# Velocity P-wave (km/s) = 7.17352 6.50539 6.84761
#
# Compressibility (1/GPa) = 0.02504539
#
# Stress axis : x y z
#
# Youngs Moduli (GPa) = 76.86524 33.58718 48.64841
#
# Poissons Ratio (x) = 0.31395 0.23488
# Poissons Ratio (y) = 0.71849 0.24184
# Poissons Ratio (z) = 0.37111 0.16697
#
# Static dielectric constant tensor:
#      x y z
#    x 1.552770 0.000000 0.000000 
#    y 0.000000 1.545340 0.000000 
#    z 0.000000 0.000000 1.540840 
# 
# From -- ./inp_files/25420.got.cif
#   From: 2010.05.17/outbox.cif.g08.bks.cpg/sg65_13_cif.got.tgz:25420.got - 2010.06.03 17:01:31.
