data_PCOD9488507
_publ_section_title
;
Structure prediction by ZEFSAII (Michael W. Deem and Ramdas Pophale) SiO2 
 PCOD9488507
Probable space group: C M M M
;
_chemical_formula_sum "Si O2"
_cell_formula_units_Z 120
_cell_length_a 30.893582
_cell_length_b 14.811169
_cell_length_c 14.295377
_cell_angle_alpha 90.000000
_cell_angle_beta 90.000000
_cell_angle_gamma 90.000000
_cell_volume 6541.136569
_symmetry_space_group_name_H-M "C M M M"
_symmetry_group_IT_number 65
_symmetry_cell_setting 'orthorhombic'
loop_
_space_group_symop_operation_xyz
x,y,z
-x,-y,z
x,-y,-z
-x,y,-z
-x,-y,-z
x,y,-z
-x,y,z
x,-y,z
1/2+x,1/2+y,z
1/2-x,1/2-y,z
1/2+x,1/2-y,-z
1/2-x,1/2+y,-z
1/2-x,1/2-y,-z
1/2+x,1/2+y,-z
1/2-x,1/2+y,z
1/2+x,1/2-y,z
loop_
_atom_site_type_symbol
_atom_site_label
_atom_site_fract_x
_atom_site_fract_y
_atom_site_fract_z
Si Si1 0.000000 0.396288 0.886281
Si Si2 0.684079 0.390479 0.611295
Si Si3 0.448620 0.600648 0.396127
Si Si4 0.108295 0.778720 0.288013
Si Si5 0.592172 0.808546 0.891326
Si Si6 0.315515 0.892770 0.896390
Si Si7 0.725938 0.108744 0.295829
Si Si8 0.364065 0.104888 0.390066
O O1 0.954501 0.348318 0.860644
O O2 0.000000 0.500000 0.853108
O O3 0.000000 0.398670 0.000000
O O4 0.684018 0.370458 0.500000
O O5 0.679746 0.500000 0.620145
O O6 0.646260 0.337619 0.665075
O O7 0.729027 0.360609 0.660075
O O8 0.431670 0.623770 0.500000
O O9 0.500000 0.596520 0.401360
O O10 0.432472 0.500000 0.373472
O O11 0.434605 0.673175 0.322603
O O12 0.107189 0.771111 0.176952
O O13 0.110707 0.677779 0.329186
O O14 0.632907 0.877121 0.884566
O O15 0.588314 0.782815 0.000000
O O16 0.289545 0.856019 0.806132
O O17 0.308224 0.000000 0.897932
O O18 0.303658 0.856435 0.000000
O O19 0.686279 0.123457 0.366765
O O20 0.729959 0.000000 0.286764
O O21 0.372291 0.116663 0.500000
O O22 0.372629 0.000000 0.365118
#
# Coordination Sequence:
#
# PCOD9488507 Si02
#       8
#     8  16  16  16  16  16  16  16
#     4   9  18  34  58  84 108 139 184 236 280 315
#     4  10  21  37  58  83 109 139 185 246 294 326
#     4   9  19  37  61  86 109 135 177 234 286 332
#     4  12  22  34  57  81 112 145 187 225 280 337
#     4  10  21  35  52  79 113 146 183 232 282 325
#     4   9  16  30  53  77 105 146 195 236 270 319
#     4   9  17  32  51  75 108 146 184 230 285 330
#     4  10  20  33  49  74 111 152 187 220 266 332
#
# _framework density 18.345435999999999
#
# number of rings (size 3 to 8) (size 9 to 14) (size 15 to 20)
#    0.000    2.200    1.333    2.800    0.933    5.333 
#    0.000    2.000    0.000    4.000    0.000    2.800 
#    0.000    0.000    0.000    0.000    0.000    0.000 
#
# Total GULP energy -334434.001821 kJ/mol
# GULP energy per Si atom -5573.900030 kJ/mol
# Density = 1.830368 g / cm^3
# Si number density = 18.345436 Si / 1000 Ang^3
#
#
#
# Elastic Constant Matrix: (Units=GPa)
#
#
# Indices 1 2 3 4 5 6 
#
# 1 70.4860 14.5346 43.4401 0.0000 0.0000 0.0000
# 2 14.5346 39.4013 37.4995 0.0000 0.0000 0.0000
# 3 43.4401 37.4995 109.7737 0.0000 0.0000 0.0000
# 4 0.0000 0.0000 0.0000 18.7758 0.0000 0.0000
# 5 0.0000 0.0000 0.0000 0.0000 28.2863 0.0000
# 6 0.0000 0.0000 0.0000 0.0000 0.0000 17.1957
#
#
#
# Elastic Compliance Matrix: (Units=1/GPa)
#
#
# Indices 1 2 3 4 5 6 
#
# 1 0.018764 0.000215 -0.007499 0.000000 0.000000 0.000000
# 2 0.000215 0.037609 -0.012933 0.000000 0.000000 0.000000
# 3 -0.007499 -0.012933 0.016495 0.000000 0.000000 0.000000
# 4 0.000000 0.000000 0.000000 0.053260 0.000000 0.000000
# 5 0.000000 0.000000 0.000000 0.000000 0.035353 0.000000
# 6 0.000000 0.000000 0.000000 0.000000 0.000000 0.058154
#
#
# Mechanical properties :
#
#
# Convention : Reuss Voigt Hill
#
# Bulk Modulus (GPa) = 30.83046 45.62325 38.22686
# Shear Modulus (GPa) = 18.45835 21.13069 19.79452
#
# Velocity S-wave (km/s) = 3.17544 3.39753 3.28836
# Velocity P-wave (km/s) = 5.50332 6.34933 5.94140
#
# Compressibility (1/GPa) = 0.03243545
#
# Stress axis : x y z
#
# Youngs Moduli (GPa) = 53.29213 26.58943 60.62408
#
# Poissons Ratio (x) = -0.00572 0.45462
# Poissons Ratio (y) = -0.01147 0.78403
# Poissons Ratio (z) = 0.39964 0.34387
#
# Static dielectric constant tensor:
#      x y z
#    x 1.651440 0.000000 0.000000 
#    y 0.000000 1.646700 0.000000 
#    z 0.000000 0.000000 1.668450 
# 
# From -- ./inp_files/48057.got.cif
#   From: 2010.05.17/outbox.cif.g08.bks.cpg/sg65_25_cif.got.tgz:48057.got - 2010.06.03 17:01:31.
