data_PCOD9488442
_publ_section_title
;
Structure prediction by ZEFSAII (Michael W. Deem and Ramdas Pophale) SiO2 
 PCOD9488442
Probable space group: C M M M
;
_chemical_formula_sum "Si O2"
_cell_formula_units_Z 104
_cell_length_a 24.291771
_cell_length_b 27.380315
_cell_length_c 9.081575
_cell_angle_alpha 90.000000
_cell_angle_beta 90.000000
_cell_angle_gamma 90.000000
_cell_volume 6040.303943
_symmetry_space_group_name_H-M "C M M M"
_symmetry_group_IT_number 65
_symmetry_cell_setting 'orthorhombic'
loop_
_space_group_symop_operation_xyz
x,y,z
-x,-y,z
x,-y,-z
-x,y,-z
-x,-y,-z
x,y,-z
-x,y,z
x,-y,z
1/2+x,1/2+y,z
1/2-x,1/2-y,z
1/2+x,1/2-y,-z
1/2-x,1/2+y,-z
1/2-x,1/2-y,-z
1/2+x,1/2+y,-z
1/2-x,1/2+y,z
1/2+x,1/2-y,z
loop_
_atom_site_type_symbol
_atom_site_label
_atom_site_fract_x
_atom_site_fract_y
_atom_site_fract_z
Si Si1 0.672501 0.558548 0.328879
Si Si2 0.066961 0.500000 0.669843
Si Si3 0.852804 0.673780 0.677046
Si Si4 0.933907 0.600753 0.826632
Si Si5 0.240645 0.137081 0.825801
Si Si6 0.810253 0.775796 0.668050
Si Si7 0.061462 0.059303 0.829644
O O1 0.679927 0.571092 0.500000
O O2 0.676459 0.500000 0.313638
O O3 0.717195 0.585991 0.231010
O O4 0.611890 0.574067 0.272743
O O5 0.085383 0.500000 0.500000
O O6 0.083826 0.450635 0.753243
O O7 0.000000 0.500000 0.669526
O O8 0.851024 0.669537 0.500000
O O9 0.903763 0.644819 0.744515
O O10 0.797806 0.650051 0.745784
O O11 0.850637 0.731742 0.712051
O O12 0.000000 0.604464 0.811690
O O13 0.920592 0.600746 0.000000
O O14 0.196879 0.178400 0.773999
O O15 0.247875 0.138216 0.000000
O O16 0.821984 0.791525 0.500000
O O17 0.750000 0.750000 0.665691
O O18 0.000000 0.075728 0.785846
O O19 0.060476 0.000000 0.827580
O O20 0.071241 0.073660 0.000000
#
# Coordination Sequence:
#
# PCOD9488442 Si02
#       7
#    16   8  16  16  16  16  16
#     4  10  20  33  49  70 100 136 171 207 248 299
#     4   9  17  31  51  73  99 135 177 215 254 305
#     4  10  20  35  55  78 103 132 170 212 256 310
#     4  10  20  34  53  78 108 139 174 219 266 313
#     4  11  21  33  52  76 103 135 170 212 260 309
#     4   8  16  32  53  75  99 126 159 203 247 294
#     4   8  14  26  45  68  93 122 158 199 240 283
#
# _framework density 17.217676000000001
#
# number of rings (size 3 to 8) (size 9 to 14) (size 15 to 20)
#    0.000    2.538    0.000    4.385    0.000    6.462 
#    1.385    1.538    0.000    0.923    0.000    4.308 
#    0.000    0.000    0.000    0.000    0.000    0.000 
#
# Total GULP energy -289868.441301 kJ/mol
# GULP energy per Si atom -5574.393102 kJ/mol
# Density = 1.717849 g / cm^3
# Si number density = 17.217676 Si / 1000 Ang^3
#
#
#
# Elastic Constant Matrix: (Units=GPa)
#
#
# Indices 1 2 3 4 5 6 
#
# 1 29.1205 16.3638 29.2989 0.0000 0.0000 0.0000
# 2 16.3638 52.8223 38.3649 0.0000 0.0000 0.0000
# 3 29.2989 38.3649 102.9569 0.0000 0.0000 0.0000
# 4 0.0000 0.0000 0.0000 21.8536 0.0000 0.0000
# 5 0.0000 0.0000 0.0000 0.0000 28.2274 0.0000
# 6 0.0000 0.0000 0.0000 0.0000 0.0000 26.0952
#
#
#
# Elastic Compliance Matrix: (Units=1/GPa)
#
#
# Indices 1 2 3 4 5 6 
#
# 1 0.049968 -0.007063 -0.011588 0.000000 0.000000 0.000000
# 2 -0.007063 0.026955 -0.008034 0.000000 0.000000 0.000000
# 3 -0.011588 -0.008034 0.016004 0.000000 0.000000 0.000000
# 4 0.000000 0.000000 0.000000 0.045759 0.000000 0.000000
# 5 0.000000 0.000000 0.000000 0.000000 0.035427 0.000000
# 6 0.000000 0.000000 0.000000 0.000000 0.000000 0.038321
#
#
# Mechanical properties :
#
#
# Convention : Reuss Voigt Hill
#
# Bulk Modulus (GPa) = 25.28030 39.21721 32.24875
# Shear Modulus (GPa) = 17.92184 21.96004 19.94094
#
# Velocity S-wave (km/s) = 3.22980 3.57520 3.40688
# Velocity P-wave (km/s) = 5.35008 6.31423 5.85205
#
# Compressibility (1/GPa) = 0.03955650
#
# Stress axis : x y z
#
# Youngs Moduli (GPa) = 20.01288 37.09921 62.48413
#
# Poissons Ratio (x) = 0.26205 0.72404
# Poissons Ratio (y) = 0.14136 0.50200
# Poissons Ratio (z) = 0.23190 0.29806
#
# Static dielectric constant tensor:
#      x y z
#    x 1.589950 0.000000 0.000000 
#    y 0.000000 1.595530 0.000000 
#    z 0.000000 0.000000 1.574440 
# 
# From -- ./inp_files/12739.got.cif
#   From: 2010.05.17/outbox.cif.g08.bks.cpg/sg65_7_cif.got.tgz:12739.got - 2010.06.03 17:01:31.
