data_PCOD9488807
_publ_section_title
;
Structure prediction by ZEFSAII (Michael W. Deem and Ramdas Pophale) SiO2 
 PCOD9488807
Probable space group: C M M M
;
_chemical_formula_sum "Si O2"
_cell_formula_units_Z 120
_cell_length_a 27.508674
_cell_length_b 8.951079
_cell_length_c 28.330029
_cell_angle_alpha 90.000000
_cell_angle_beta 90.000000
_cell_angle_gamma 90.000000
_cell_volume 6975.768601
_symmetry_space_group_name_H-M "C M M M"
_symmetry_group_IT_number 65
_symmetry_cell_setting 'orthorhombic'
loop_
_space_group_symop_operation_xyz
x,y,z
-x,-y,z
x,-y,-z
-x,y,-z
-x,-y,-z
x,y,-z
-x,y,z
x,-y,z
1/2+x,1/2+y,z
1/2-x,1/2-y,z
1/2+x,1/2-y,-z
1/2-x,1/2+y,-z
1/2-x,1/2-y,-z
1/2+x,1/2+y,-z
1/2-x,1/2+y,z
1/2+x,1/2-y,z
loop_
_atom_site_type_symbol
_atom_site_label
_atom_site_fract_x
_atom_site_fract_y
_atom_site_fract_z
Si Si1 0.802080 0.678171 0.236758
Si Si2 0.401526 0.180941 0.608316
Si Si3 0.642998 0.176999 0.139787
Si Si4 0.608767 0.321480 0.290114
Si Si5 0.500000 0.818103 0.445870
Si Si6 0.302897 0.321836 0.054178
Si Si7 0.944209 0.178451 0.806276
Si Si8 0.698478 0.179703 0.444357
O O1 0.801365 0.500000 0.243618
O O2 0.750000 0.750000 0.244118
O O3 0.819955 0.708176 0.183155
O O4 0.840793 0.753085 0.271527
O O5 0.404452 0.248008 0.660450
O O6 0.449848 0.227312 0.579573
O O7 0.350308 0.225883 0.583663
O O8 0.401344 0.000000 0.610449
O O9 0.660659 0.257900 0.092809
O O10 0.591792 0.236354 0.158942
O O11 0.641745 0.000000 0.132373
O O12 0.612324 0.500000 0.294858
O O13 0.571062 0.287949 0.247740
O O14 0.500000 0.767941 0.500000
O O15 0.500000 0.000000 0.445898
O O16 0.299114 0.500000 0.058771
O O17 0.250000 0.250000 0.062417
O O18 0.317023 0.286792 0.000000
O O19 0.000000 0.216726 0.814280
O O20 0.937682 0.000000 0.812564
O O21 0.692328 0.217100 0.500000
O O22 0.750000 0.250000 0.428391
O O23 0.702349 0.000000 0.440687
#
# Coordination Sequence:
#
# PCOD9488807 Si02
#       8
#    16  16  16  16   8  16  16  16
#     4  10  20  34  52  75 105 139 177 216 258 309
#     4  10  20  34  53  78 105 133 168 213 262 314
#     4  10  20  33  52  79 107 138 177 221 268 316
#     4  10  21  35  52  75 104 137 172 209 256 310
#     4   9  18  34  57  81 103 133 173 215 264 319
#     4  10  20  33  51  77 110 147 183 219 261 311
#     4   9  19  36  56  75  99 135 176 218 264 316
#     4   9  18  33  53  75  99 129 166 207 250 301
#
# _framework density 17.202404999999999
#
# number of rings (size 3 to 8) (size 9 to 14) (size 15 to 20)
#    0.000    2.333    0.000    2.400    0.933    6.933 
#    0.000    1.333    0.000    2.000    0.000    2.800 
#    0.000    0.000    0.000    0.000    0.000    0.000 
#
# Total GULP energy -334826.678841 kJ/mol
# GULP energy per Si atom -5580.444647 kJ/mol
# Density = 1.716325 g / cm^3
# Si number density = 17.202405 Si / 1000 Ang^3
#
#
#
# Elastic Constant Matrix: (Units=GPa)
#
#
# Indices 1 2 3 4 5 6 
#
# 1 117.3115 40.9741 77.2345 0.0000 0.0000 0.0000
# 2 40.9741 33.4462 51.5301 0.0000 0.0000 0.0000
# 3 77.2345 51.5301 133.8418 0.0000 0.0000 0.0000
# 4 0.0000 0.0000 0.0000 30.3575 0.0000 0.0000
# 5 0.0000 0.0000 0.0000 0.0000 6.9825 0.0000
# 6 0.0000 0.0000 0.0000 0.0000 0.0000 25.2837
#
#
#
# Elastic Compliance Matrix: (Units=1/GPa)
#
#
# Indices 1 2 3 4 5 6 
#
# 1 0.015758 -0.013015 -0.004082 0.000000 0.000000 0.000000
# 2 -0.013015 0.084243 -0.024924 0.000000 0.000000 0.000000
# 3 -0.004082 -0.024924 0.019423 0.000000 0.000000 0.000000
# 4 0.000000 0.000000 0.000000 0.032941 0.000000 0.000000
# 5 0.000000 0.000000 0.000000 0.000000 0.143215 0.000000
# 6 0.000000 0.000000 0.000000 0.000000 0.000000 0.039551
#
#
# Mechanical properties :
#
#
# Convention : Reuss Voigt Hill
#
# Bulk Modulus (GPa) = 28.26326 69.34186 48.80256
# Shear Modulus (GPa) = 11.60183 20.18213 15.89198
#
# Velocity S-wave (km/s) = 2.59980 3.42894 3.04274
# Velocity P-wave (km/s) = 5.04752 7.48824 6.38558
#
# Compressibility (1/GPa) = 0.03538162
#
# Stress axis : x y z
#
# Youngs Moduli (GPa) = 63.46059 11.87048 51.48530
#
# Poissons Ratio (x) = 0.15449 0.21018
# Poissons Ratio (y) = 0.82594 1.28320
# Poissons Ratio (z) = 0.25907 0.29586
#
# Static dielectric constant tensor:
#      x y z
#    x 1.570610 0.000000 0.000000 
#    y 0.000000 1.573820 0.000000 
#    z 0.000000 0.000000 1.569230 
# 
# From -- ./inp_files/73978.got.cif
#   From: 2010.05.17/outbox.cif.g08.bks.cpg/sg65_37_cif.got.tgz:73978.got - 2010.06.03 17:01:31.
