data_PCOD9488151
_publ_section_title
;
Structure prediction by ZEFSAII (Michael W. Deem and Ramdas Pophale) SiO2 
 PCOD9488151
Probable space group: C M M M
;
_chemical_formula_sum "Si O2"
_cell_formula_units_Z 120
_cell_length_a 8.189915
_cell_length_b 30.418126
_cell_length_c 26.699158
_cell_angle_alpha 90.000000
_cell_angle_beta 90.000000
_cell_angle_gamma 90.000000
_cell_volume 6651.344072
_symmetry_space_group_name_H-M "C M M M"
_symmetry_group_IT_number 65
_symmetry_cell_setting 'orthorhombic'
loop_
_space_group_symop_operation_xyz
x,y,z
-x,-y,z
x,-y,-z
-x,y,-z
-x,-y,-z
x,y,-z
-x,y,z
x,-y,z
1/2+x,1/2+y,z
1/2-x,1/2-y,z
1/2+x,1/2-y,-z
1/2-x,1/2+y,-z
1/2-x,1/2-y,-z
1/2+x,1/2+y,-z
1/2-x,1/2+y,z
1/2+x,1/2-y,z
loop_
_atom_site_type_symbol
_atom_site_label
_atom_site_fract_x
_atom_site_fract_y
_atom_site_fract_z
Si Si1 0.805007 0.388595 0.700336
Si Si2 0.196980 0.359859 0.945602
Si Si3 0.194776 0.200524 0.854486
Si Si4 0.687338 0.446716 0.500000
Si Si5 0.800716 0.451043 0.904471
Si Si6 0.198718 0.450304 0.789129
Si Si7 0.305071 0.299439 0.741248
Si Si8 0.697612 0.449475 0.609521
O O1 0.741432 0.414743 0.749524
O O2 0.752350 0.338128 0.704962
O O3 0.747195 0.415562 0.652133
O O4 0.000000 0.390208 0.701319
O O5 0.247350 0.331665 0.897847
O O6 0.252958 0.410063 0.937315
O O7 0.000000 0.360042 0.946293
O O8 0.254283 0.343334 0.000000
O O9 0.250000 0.250000 0.866171
O O10 0.257271 0.190495 0.798091
O O11 0.000000 0.199092 0.852855
O O12 0.680407 0.500000 0.500000
O O13 0.500000 0.430291 0.500000
O O14 0.760408 0.435564 0.554163
O O15 0.746814 0.500000 0.919390
O O16 0.751113 0.443031 0.846602
O O17 0.000000 0.451577 0.905259
O O18 0.247171 0.500000 0.774500
O O19 0.000000 0.449252 0.789062
O O20 0.500000 0.299703 0.742460
O O21 0.250000 0.250000 0.728480
O O22 0.500000 0.450741 0.606713
O O23 0.751683 0.500000 0.620189
#
# Coordination Sequence:
#
# PCOD9488151 Si02
#       8
#    16  16  16   8  16  16  16  16
#     4  11  20  29  46  73 105 137 165 200 248 298
#     4  10  20  32  48  72  99 125 156 196 240 286
#     4  10  21  37  57  76  95 121 153 192 240 295
#     4   7  12  26  47  67  92 135 186 225 255 289
#     4   8  14  26  44  65  90 122 159 195 229 269
#     4   8  14  24  39  62  93 127 159 190 228 278
#     4  10  21  37  55  75  97 123 159 200 245 298
#     4   9  17  30  48  71 102 141 183 222 256 291
#
# _framework density 18.041467000000001
#
# number of rings (size 3 to 8) (size 9 to 14) (size 15 to 20)
#    0.000    2.733    0.000    4.000    0.000    4.267 
#    0.000    1.667    0.000    1.600    0.000    5.133 
#    0.000    0.000    0.000    0.000    0.000    0.000 
#
# Total GULP energy -334506.109859 kJ/mol
# GULP energy per Si atom -5575.101831 kJ/mol
# Density = 1.800040 g / cm^3
# Si number density = 18.041467 Si / 1000 Ang^3
#
#
#
# Elastic Constant Matrix: (Units=GPa)
#
#
# Indices 1 2 3 4 5 6 
#
# 1 20.8070 14.6333 16.6804 0.0000 0.0000 0.0000
# 2 14.6333 107.9851 73.6228 0.0000 0.0000 0.0000
# 3 16.6804 73.6228 82.3279 0.0000 0.0000 0.0000
# 4 0.0000 0.0000 0.0000 20.1517 0.0000 0.0000
# 5 0.0000 0.0000 0.0000 0.0000 12.0051 0.0000
# 6 0.0000 0.0000 0.0000 0.0000 0.0000 7.8274
#
#
#
# Elastic Compliance Matrix: (Units=1/GPa)
#
#
# Indices 1 2 3 4 5 6 
#
# 1 0.057387 0.000386 -0.011972 0.000000 0.000000 0.000000
# 2 0.000386 0.023729 -0.021298 0.000000 0.000000 0.000000
# 3 -0.011972 -0.021298 0.033619 0.000000 0.000000 0.000000
# 4 0.000000 0.000000 0.000000 0.049624 0.000000 0.000000
# 5 0.000000 0.000000 0.000000 0.000000 0.083298 0.000000
# 6 0.000000 0.000000 0.000000 0.000000 0.000000 0.127757
#
#
# Mechanical properties :
#
#
# Convention : Reuss Voigt Hill
#
# Bulk Modulus (GPa) = 20.42257 46.77699 33.59978
# Shear Modulus (GPa) = 10.92886 15.07573 13.00229
#
# Velocity S-wave (km/s) = 2.46390 2.89384 2.68748
# Velocity P-wave (km/s) = 4.40894 6.09504 5.31922
#
# Compressibility (1/GPa) = 0.04896544
#
# Stress axis : x y z
#
# Youngs Moduli (GPa) = 17.42554 42.14221 29.74548
#
# Poissons Ratio (x) = -0.01626 0.35612
# Poissons Ratio (y) = -0.00672 0.63353
# Poissons Ratio (z) = 0.20862 0.89756
#
# Static dielectric constant tensor:
#      x y z
#    x 1.639310 0.000000 0.000000 
#    y 0.000000 1.609660 0.000000 
#    z 0.000000 0.000000 1.640970 
# 
# From -- ./inp_files/73915.got.cif
#   From: 2010.05.17/outbox.cif.g08.bks.cpg/sg65_37_cif.got.tgz:73915.got - 2010.06.03 17:01:31.
