data_PCOD9488434
_publ_section_title
;
Structure prediction by ZEFSAII (Michael W. Deem and Ramdas Pophale) SiO2 
 PCOD9488434
Probable space group: C M M M
;
_chemical_formula_sum "Si O2"
_cell_formula_units_Z 96
_cell_length_a 20.121880
_cell_length_b 20.764709
_cell_length_c 12.714419
_cell_angle_alpha 90.000000
_cell_angle_beta 90.000000
_cell_angle_gamma 90.000000
_cell_volume 5312.401899
_symmetry_space_group_name_H-M "C M M M"
_symmetry_group_IT_number 65
_symmetry_cell_setting 'orthorhombic'
loop_
_space_group_symop_operation_xyz
x,y,z
-x,-y,z
x,-y,-z
-x,y,-z
-x,-y,-z
x,y,-z
-x,y,z
x,-y,z
1/2+x,1/2+y,z
1/2-x,1/2-y,z
1/2+x,1/2-y,-z
1/2-x,1/2+y,-z
1/2-x,1/2-y,-z
1/2+x,1/2+y,-z
1/2-x,1/2+y,z
1/2+x,1/2-y,z
loop_
_atom_site_type_symbol
_atom_site_label
_atom_site_fract_x
_atom_site_fract_y
_atom_site_fract_z
Si Si1 0.923768 0.184386 0.281358
Si Si2 0.284477 0.319230 0.620578
Si Si3 0.100752 0.924689 0.882109
Si Si4 0.922681 0.290190 0.881825
Si Si5 0.109797 0.569495 0.875557
Si Si6 0.756703 0.072244 0.790890
O O1 0.864925 0.181300 0.366086
O O2 0.926112 0.119634 0.210983
O O3 0.896832 0.238812 0.200438
O O4 0.000000 0.198301 0.316417
O O5 0.267992 0.335746 0.500000
O O6 0.250000 0.250000 0.642694
O O7 0.259367 0.372727 0.702944
O O8 0.180397 0.920222 0.867516
O O9 0.082532 0.000000 0.871486
O O10 0.081872 0.903109 0.000000
O O11 0.918795 0.362772 0.838376
O O12 0.000000 0.273623 0.892117
O O13 0.892886 0.287409 0.000000
O O14 0.086768 0.500000 0.832199
O O15 0.188216 0.574063 0.854221
O O16 0.095729 0.568270 0.000000
O O17 0.762492 0.000000 0.743809
#
# Coordination Sequence:
#
# PCOD9488434 Si02
#       6
#    16  16  16  16  16  16
#     4  10  20  33  49  69  94 123 154 189 230 274
#     4  10  21  36  53  71  90 115 151 195 239 281
#     4   9  17  29  46  69  97 127 157 188 221 261
#     4   9  17  28  42  63  93 126 156 185 219 263
#     4   9  16  26  43  67  94 124 155 185 219 263
#     4   9  17  30  48  69  93 120 151 188 230 274
#
# _framework density 18.070920999999998
#
# number of rings (size 3 to 8) (size 9 to 14) (size 15 to 20)
#    0.000    2.667    0.000    2.000    0.000    4.333 
#    0.000    2.500    0.000    8.000    0.000    4.667 
#    0.000    0.000    0.000   31.000    0.000    0.333 
#
# Total GULP energy -267232.097564 kJ/mol
# GULP energy per Si atom -5567.335366 kJ/mol
# Density = 1.802979 g / cm^3
# Si number density = 18.070921 Si / 1000 Ang^3
#
#
#
# Elastic Constant Matrix: (Units=GPa)
#
#
# Indices 1 2 3 4 5 6 
#
# 1 43.5898 -6.8735 -0.3890 0.0000 0.0000 0.0000
# 2 -6.8735 73.0246 23.0056 0.0000 0.0000 0.0000
# 3 -0.3890 23.0056 35.2234 0.0000 0.0000 0.0000
# 4 0.0000 0.0000 0.0000 17.5244 0.0000 0.0000
# 5 0.0000 0.0000 0.0000 0.0000 6.9516 0.0000
# 6 0.0000 0.0000 0.0000 0.0000 0.0000 22.2612
#
#
#
# Elastic Compliance Matrix: (Units=1/GPa)
#
#
# Indices 1 2 3 4 5 6 
#
# 1 0.023348 0.002665 -0.001483 0.000000 0.000000 0.000000
# 2 0.002665 0.017546 -0.011430 0.000000 0.000000 0.000000
# 3 -0.001483 -0.011430 0.035839 0.000000 0.000000 0.000000
# 4 0.000000 0.000000 0.000000 0.057063 0.000000 0.000000
# 5 0.000000 0.000000 0.000000 0.000000 0.143852 0.000000
# 6 0.000000 0.000000 0.000000 0.000000 0.000000 0.044921
#
#
# Mechanical properties :
#
#
# Convention : Reuss Voigt Hill
#
# Bulk Modulus (GPa) = 17.78191 20.36933 19.07562
# Shear Modulus (GPa) = 13.81933 18.42042 16.11987
#
# Velocity S-wave (km/s) = 2.76837 3.19617 2.98993
# Velocity P-wave (km/s) = 4.48106 4.99170 4.74326
#
# Compressibility (1/GPa) = 0.05623693
#
# Stress axis : x y z
#
# Youngs Moduli (GPa) = 42.83002 56.99363 27.90230
#
# Poissons Ratio (x) = -0.15187 0.04137
# Poissons Ratio (y) = -0.11413 0.31893
# Poissons Ratio (z) = 0.06350 0.65146
#
# Static dielectric constant tensor:
#      x y z
#    x 1.647970 0.000000 0.000000 
#    y 0.000000 1.660730 0.000000 
#    z 0.000000 0.000000 1.603430 
# 
# From -- ./inp_files/27088.got.cif
#   From: 2010.05.17/outbox.cif.g08.bks.cpg/sg65_14_cif.got.tgz:27088.got - 2010.06.03 17:01:31.
