data_PCOD9488144
_publ_section_title
;
Structure prediction by ZEFSAII (Michael W. Deem and Ramdas Pophale) SiO2 
 PCOD9488144
Probable space group: C M M M
;
_chemical_formula_sum "Si O2"
_cell_formula_units_Z 90
_cell_length_a 20.137051
_cell_length_b 7.473004
_cell_length_c 28.721703
_cell_angle_alpha 90.000000
_cell_angle_beta 90.000000
_cell_angle_gamma 90.000000
_cell_volume 4322.164299
_symmetry_space_group_name_H-M "C M M M"
_symmetry_group_IT_number 65
_symmetry_cell_setting 'orthorhombic'
loop_
_space_group_symop_operation_xyz
x,y,z
-x,-y,z
x,-y,-z
-x,y,-z
-x,-y,-z
x,y,-z
-x,y,z
x,-y,z
1/2+x,1/2+y,z
1/2-x,1/2-y,z
1/2+x,1/2-y,-z
1/2-x,1/2+y,-z
1/2-x,1/2-y,-z
1/2+x,1/2+y,-z
1/2-x,1/2+y,z
1/2+x,1/2-y,z
loop_
_atom_site_type_symbol
_atom_site_label
_atom_site_fract_x
_atom_site_fract_y
_atom_site_fract_z
Si Si1 0.328448 0.285408 0.365447
Si Si2 0.500000 0.500000 0.000000
Si Si3 0.924257 0.786442 0.715874
Si Si4 0.324937 0.787459 0.899924
Si Si5 0.575211 0.718114 0.446560
Si Si6 0.622199 0.219215 0.000000
Si Si7 0.575133 0.215208 0.177782
O O1 0.334325 0.500000 0.365579
O O2 0.250000 0.250000 0.364739
O O3 0.370013 0.218181 0.320722
O O4 0.368100 0.220460 0.411182
O O5 0.557205 0.659185 0.000000
O O6 0.904242 0.755039 0.769342
O O7 0.000000 0.716661 0.709330
O O8 0.928288 0.000000 0.709351
O O9 0.250000 0.750000 0.886004
O O10 0.376550 0.713954 0.862110
O O11 0.333900 0.000000 0.899990
O O12 0.338830 0.731591 0.952811
O O13 0.585833 0.774594 0.500000
O O14 0.500000 0.770591 0.432290
O O15 0.575723 0.500000 0.446530
O O16 0.610353 0.000000 0.000000
O O17 0.500000 0.282724 0.171493
O O18 0.572954 0.000000 0.174017
#
# Coordination Sequence:
#
# PCOD9488144 Si02
#       7
#    16   2  16  16  16   8  16
#     4  10  20  32  48  72 103 134 167 210 262 317
#     4  12  26  40  68 102 116 160 208 244 296 362
#     4   9  18  34  53  74  98 132 175 223 268 309
#     4  10  22  39  61  84 117 157 190 232 286 340
#     4   8  14  27  49  74  96 125 169 216 257 304
#     4  10  24  44  63  92 129 158 196 251 299 346
#     4   9  19  36  57  81 108 142 181 226 283 333
#
# _framework density 20.822901000000002
#
# number of rings (size 3 to 8) (size 9 to 14) (size 15 to 20)
#    0.000    2.667    0.000    1.467    2.489    4.622 
#    0.000    3.556    0.000    1.600    0.000    1.244 
#    0.000    0.000    0.000    0.000    0.000    0.000 
#
# Total GULP energy -250824.892106 kJ/mol
# GULP energy per Si atom -5573.886491 kJ/mol
# Density = 2.077551 g / cm^3
# Si number density = 20.822901 Si / 1000 Ang^3
#
#
#
# Elastic Constant Matrix: (Units=GPa)
#
#
# Indices 1 2 3 4 5 6 
#
# 1 159.6492 3.3378 131.4464 0.0000 0.0000 0.0000
# 2 3.3378 64.0095 3.8076 0.0000 0.0000 0.0000
# 3 131.4464 3.8076 179.6649 0.0000 0.0000 0.0000
# 4 0.0000 0.0000 0.0000 11.8600 0.0000 0.0000
# 5 0.0000 0.0000 0.0000 0.0000 17.3638 0.0000
# 6 0.0000 0.0000 0.0000 0.0000 0.0000 23.5160
#
#
#
# Elastic Compliance Matrix: (Units=1/GPa)
#
#
# Indices 1 2 3 4 5 6 
#
# 1 0.015754 -0.000136 -0.011523 0.000000 0.000000 0.000000
# 2 -0.000136 0.015644 -0.000232 0.000000 0.000000 0.000000
# 3 -0.011523 -0.000232 0.014001 0.000000 0.000000 0.000000
# 4 0.000000 0.000000 0.000000 0.084317 0.000000 0.000000
# 5 0.000000 0.000000 0.000000 0.000000 0.057591 0.000000
# 6 0.000000 0.000000 0.000000 0.000000 0.000000 0.042524
#
#
# Mechanical properties :
#
#
# Convention : Reuss Voigt Hill
#
# Bulk Modulus (GPa) = 46.26048 75.61191 60.93619
# Shear Modulus (GPa) = 19.17038 28.19676 23.68357
#
# Velocity S-wave (km/s) = 3.03750 3.68383 3.37617
# Velocity P-wave (km/s) = 5.87930 7.38139 6.67275
#
# Compressibility (1/GPa) = 0.02161672
#
# Stress axis : x y z
#
# Youngs Moduli (GPa) = 63.47560 63.92396 71.42154
#
# Poissons Ratio (x) = 0.00870 0.82300
# Poissons Ratio (y) = 0.00864 0.01657
# Poissons Ratio (z) = 0.73144 0.01483
#
# Static dielectric constant tensor:
#      x y z
#    x 1.705490 0.000000 0.000000 
#    y 0.000000 1.809640 0.000000 
#    z 0.000000 0.000000 1.743340 
# 
# From -- ./inp_files/75402.got.cif
#   From: 2010.05.17/outbox.cif.g08.bks.cpg/sg65_38_cif.got.tgz:75402.got - 2010.06.03 17:01:31.
