data_PCOD9488455
_publ_section_title
;
Structure prediction by ZEFSAII (Michael W. Deem and Ramdas Pophale) SiO2 
 PCOD9488455
Probable space group: C M M M
;
_chemical_formula_sum "Si O2"
_cell_formula_units_Z 104
_cell_length_a 30.189548
_cell_length_b 8.886030
_cell_length_c 21.971941
_cell_angle_alpha 90.000000
_cell_angle_beta 90.000000
_cell_angle_gamma 90.000000
_cell_volume 5894.307789
_symmetry_space_group_name_H-M "C M M M"
_symmetry_group_IT_number 65
_symmetry_cell_setting 'orthorhombic'
loop_
_space_group_symop_operation_xyz
x,y,z
-x,-y,z
x,-y,-z
-x,y,-z
-x,-y,-z
x,y,-z
-x,y,z
x,-y,z
1/2+x,1/2+y,z
1/2-x,1/2-y,z
1/2+x,1/2-y,-z
1/2-x,1/2+y,-z
1/2-x,1/2-y,-z
1/2+x,1/2+y,-z
1/2-x,1/2+y,z
1/2+x,1/2-y,z
loop_
_atom_site_type_symbol
_atom_site_label
_atom_site_fract_x
_atom_site_fract_y
_atom_site_fract_z
Si Si1 0.553328 0.828839 0.500000
Si Si2 0.179304 0.821505 0.930967
Si Si3 0.703694 0.820190 0.199011
Si Si4 0.877777 0.174794 0.730465
Si Si5 0.913866 0.330867 0.066788
Si Si6 0.452876 0.666087 0.830895
Si Si7 0.948216 0.182013 0.628923
O O1 0.500000 0.837452 0.500000
O O2 0.564131 0.741440 0.438052
O O3 0.570646 0.000000 0.500000
O O4 0.197272 0.739196 0.870778
O O5 0.127047 0.783548 0.929467
O O6 0.187001 0.000000 0.925108
O O7 0.194290 0.775013 0.000000
O O8 0.750000 0.750000 0.220435
O O9 0.664334 0.764525 0.243701
O O10 0.705012 0.000000 0.197890
O O11 0.912409 0.175051 0.785852
O O12 0.909090 0.231206 0.675126
O O13 0.865014 0.000000 0.718479
O O14 0.895824 0.500000 0.074452
O O15 0.947823 0.291263 0.118700
O O16 0.933941 0.320190 0.000000
O O17 0.500000 0.677969 0.797902
O O18 0.451601 0.500000 0.860094
O O19 0.000000 0.229084 0.642054
O O20 0.948613 0.000000 0.630511
#
# Coordination Sequence:
#
# PCOD9488455 Si02
#       7
#     8  16  16  16  16  16  16
#     4   9  17  29  47  77 118 157 192 231 267 301
#     4  10  20  36  58  80 102 130 167 217 277 338
#     4  12  25  40  59  81 107 138 176 221 275 333
#     4  10  20  36  56  79 109 142 180 224 268 317
#     4  10  20  33  49  70  97 131 171 216 266 318
#     4  10  20  33  51  74 101 136 176 216 261 316
#     4   9  17  31  54  83 116 155 193 225 261 309
#
# _framework density 17.64414
#
# number of rings (size 3 to 8) (size 9 to 14) (size 15 to 20)
#    0.000    1.923    1.538    3.000    0.000    6.154 
#    0.000    1.538    0.000    2.769    0.000    0.538 
#    0.000    0.000    0.000    0.000    0.000    0.000 
#
# Total GULP energy -289732.364900 kJ/mol
# GULP energy per Si atom -5571.776248 kJ/mol
# Density = 1.760398 g / cm^3
# Si number density = 17.644140 Si / 1000 Ang^3
#
#
#
# Elastic Constant Matrix: (Units=GPa)
#
#
# Indices 1 2 3 4 5 6 
#
# 1 105.6447 39.2417 47.7243 0.0000 0.0000 0.0000
# 2 39.2417 67.7851 41.7633 0.0000 0.0000 0.0000
# 3 47.7243 41.7633 102.8398 0.0000 0.0000 0.0000
# 4 0.0000 0.0000 0.0000 16.1486 0.0000 0.0000
# 5 0.0000 0.0000 0.0000 0.0000 16.6500 0.0000
# 6 0.0000 0.0000 0.0000 0.0000 0.0000 19.1545
#
#
#
# Elastic Compliance Matrix: (Units=1/GPa)
#
#
# Indices 1 2 3 4 5 6 
#
# 1 0.013204 -0.005160 -0.004032 0.000000 0.000000 0.000000
# 2 -0.005160 0.021692 -0.006415 0.000000 0.000000 0.000000
# 3 -0.004032 -0.006415 0.014200 0.000000 0.000000 0.000000
# 4 0.000000 0.000000 0.000000 0.061925 0.000000 0.000000
# 5 0.000000 0.000000 0.000000 0.000000 0.060060 0.000000
# 6 0.000000 0.000000 0.000000 0.000000 0.000000 0.052207
#
#
# Mechanical properties :
#
#
# Convention : Reuss Voigt Hill
#
# Bulk Modulus (GPa) = 55.91973 59.30312 57.61142
# Shear Modulus (GPa) = 19.19680 20.22666 19.71173
#
# Velocity S-wave (km/s) = 3.30206 3.38948 3.34605
# Velocity P-wave (km/s) = 6.80441 7.00012 6.90296
#
# Compressibility (1/GPa) = 0.01788278
#
# Stress axis : x y z
#
# Youngs Moduli (GPa) = 75.73654 46.10094 70.42283
#
# Poissons Ratio (x) = 0.23786 0.28395
# Poissons Ratio (y) = 0.39077 0.45173
# Poissons Ratio (z) = 0.30537 0.29572
#
# Static dielectric constant tensor:
#      x y z
#    x 1.615550 0.000000 0.000000 
#    y 0.000000 1.620390 0.000000 
#    z 0.000000 0.000000 1.613190 
# 
# From -- ./inp_files/66336.got.cif
#   From: 2010.05.17/outbox.cif.g08.bks.cpg/sg65_34_cif.got.tgz:66336.got - 2010.06.03 17:01:31.
