data_PCOD9488096
_publ_section_title
;
Structure prediction by ZEFSAII (Michael W. Deem and Ramdas Pophale) SiO2 
 PCOD9488096
Probable space group: C M M M
;
_chemical_formula_sum "Si O2"
_cell_formula_units_Z 104
_cell_length_a 29.559920
_cell_length_b 8.988236
_cell_length_c 23.653442
_cell_angle_alpha 90.000000
_cell_angle_beta 90.000000
_cell_angle_gamma 90.000000
_cell_volume 6284.519363
_symmetry_space_group_name_H-M "C M M M"
_symmetry_group_IT_number 65
_symmetry_cell_setting 'orthorhombic'
loop_
_space_group_symop_operation_xyz
x,y,z
-x,-y,z
x,-y,-z
-x,y,-z
-x,-y,-z
x,y,-z
-x,y,z
x,-y,z
1/2+x,1/2+y,z
1/2-x,1/2-y,z
1/2+x,1/2-y,-z
1/2-x,1/2+y,-z
1/2-x,1/2-y,-z
1/2+x,1/2+y,-z
1/2-x,1/2+y,z
1/2+x,1/2-y,z
loop_
_atom_site_type_symbol
_atom_site_label
_atom_site_fract_x
_atom_site_fract_y
_atom_site_fract_z
Si Si1 0.295276 0.669412 0.568651
Si Si2 0.448032 0.319100 0.213521
Si Si3 0.610623 0.177368 0.435100
Si Si4 0.298135 0.176417 0.067973
Si Si5 0.891236 0.179757 0.103816
Si Si6 0.445680 0.672153 0.339306
Si Si7 0.945959 0.321800 0.000000
O O1 0.292809 0.666102 0.500000
O O2 0.297708 0.500000 0.588598
O O3 0.250000 0.750000 0.589051
O O4 0.340627 0.758019 0.582086
O O5 0.500000 0.269959 0.202757
O O6 0.449391 0.500000 0.215460
O O7 0.414501 0.277913 0.163275
O O8 0.433373 0.271319 0.276415
O O9 0.601118 0.226361 0.500000
O O10 0.574731 0.236045 0.390425
O O11 0.612290 0.000000 0.434946
O O12 0.250000 0.250000 0.083303
O O13 0.340901 0.255519 0.096741
O O14 0.297739 0.000000 0.079721
O O15 0.303732 0.195094 0.000000
O O16 0.890455 0.000000 0.098985
O O17 0.922249 0.248527 0.054353
O O18 0.500000 0.674106 0.341247
O O19 0.430888 0.500000 0.344856
O O20 0.938113 0.500000 0.000000
O O21 0.000000 0.295676 0.000000
#
# Coordination Sequence:
#
# PCOD9488096 Si02
#       7
#    16  16  16  16  16  16   8
#     4   9  16  27  45  69  97 128 161 196 238 291
#     4   8  16  32  53  76 100 129 168 211 251 298
#     4  10  20  32  47  71 103 134 165 205 253 303
#     4  10  20  34  52  74 105 138 172 212 254 301
#     4  11  20  32  54  79 103 133 170 208 254 305
#     4   9  18  34  54  73  96 129 170 213 255 301
#     4  11  23  35  46  69 108 143 169 205 251 293
#
# _framework density 16.548601000000001
#
# number of rings (size 3 to 8) (size 9 to 14) (size 15 to 20)
#    0.000    2.385    0.769    3.462    0.000    5.231 
#    0.000    3.077    0.000    2.769    0.000    4.308 
#    0.000    0.000    0.000    0.000    0.000    0.000 
#
# Total GULP energy -289950.411506 kJ/mol
# GULP energy per Si atom -5575.969452 kJ/mol
# Density = 1.651094 g / cm^3
# Si number density = 16.548601 Si / 1000 Ang^3
#
#
#
# Elastic Constant Matrix: (Units=GPa)
#
#
# Indices 1 2 3 4 5 6 
#
# 1 101.3295 49.2871 66.0608 0.0000 0.0000 0.0000
# 2 49.2871 75.8232 46.3502 0.0000 0.0000 0.0000
# 3 66.0608 46.3502 102.7863 0.0000 0.0000 0.0000
# 4 0.0000 0.0000 0.0000 9.2707 0.0000 0.0000
# 5 0.0000 0.0000 0.0000 0.0000 4.5708 0.0000
# 6 0.0000 0.0000 0.0000 0.0000 0.0000 31.8267
#
#
#
# Elastic Compliance Matrix: (Units=1/GPa)
#
#
# Indices 1 2 3 4 5 6 
#
# 1 0.019249 -0.006834 -0.009290 0.000000 0.000000 0.000000
# 2 -0.006834 0.020634 -0.004912 0.000000 0.000000 0.000000
# 3 -0.009290 -0.004912 0.017915 0.000000 0.000000 0.000000
# 4 0.000000 0.000000 0.000000 0.107866 0.000000 0.000000
# 5 0.000000 0.000000 0.000000 0.000000 0.218781 0.000000
# 6 0.000000 0.000000 0.000000 0.000000 0.000000 0.031420
#
#
# Mechanical properties :
#
#
# Convention : Reuss Voigt Hill
#
# Bulk Modulus (GPa) = 63.59100 67.03724 65.31412
# Shear Modulus (GPa) = 10.79498 17.01638 13.90568
#
# Velocity S-wave (km/s) = 2.55683 3.21014 2.90193
# Velocity P-wave (km/s) = 6.87217 7.37138 7.12615
#
# Compressibility (1/GPa) = 0.01572550
#
# Stress axis : x y z
#
# Youngs Moduli (GPa) = 51.95034 48.46465 55.81994
#
# Poissons Ratio (x) = 0.33119 0.51856
# Poissons Ratio (y) = 0.35501 0.27421
# Poissons Ratio (z) = 0.48261 0.23808
#
# Static dielectric constant tensor:
#      x y z
#    x 1.543280 0.000000 0.000000 
#    y 0.000000 1.557340 0.000000 
#    z 0.000000 0.000000 1.548040 
# 
# From -- ./inp_files/76002.got.cif
#   From: 2010.05.17/outbox.cif.g08.bks.cpg/sg65_39_cif.got.tgz:76002.got - 2010.06.03 17:01:31.
