data_PCOD9488853
_publ_section_title
;
Structure prediction by ZEFSAII (Michael W. Deem and Ramdas Pophale) SiO2 
 PCOD9488853
Probable space group: C M M M
;
_chemical_formula_sum "Si O2"
_cell_formula_units_Z 88
_cell_length_a 7.590691
_cell_length_b 29.151705
_cell_length_c 18.517394
_cell_angle_alpha 90.000000
_cell_angle_beta 90.000000
_cell_angle_gamma 90.000000
_cell_volume 4097.558290
_symmetry_space_group_name_H-M "C M M M"
_symmetry_group_IT_number 65
_symmetry_cell_setting 'orthorhombic'
loop_
_space_group_symop_operation_xyz
x,y,z
-x,-y,z
x,-y,-z
-x,y,-z
-x,-y,-z
x,y,-z
-x,y,z
x,-y,z
1/2+x,1/2+y,z
1/2-x,1/2-y,z
1/2+x,1/2-y,-z
1/2-x,1/2+y,-z
1/2-x,1/2-y,-z
1/2+x,1/2+y,-z
1/2-x,1/2+y,z
1/2+x,1/2-y,z
loop_
_atom_site_type_symbol
_atom_site_label
_atom_site_fract_x
_atom_site_fract_y
_atom_site_fract_z
Si Si1 0.701655 0.947721 0.157977
Si Si2 0.214790 0.053149 0.500000
Si Si3 0.209753 0.197189 0.500000
Si Si4 0.215979 0.872683 0.618847
Si Si5 0.698662 0.555418 0.000000
Si Si6 0.788231 0.195688 0.919229
Si Si7 0.697669 0.357200 0.778239
O O1 0.500000 0.946496 0.182758
O O2 0.708216 0.933337 0.074119
O O3 0.810999 0.910217 0.198937
O O4 0.766412 0.000000 0.163997
O O5 0.267961 0.082162 0.428057
O O6 0.000000 0.053165 0.500000
O O7 0.272365 0.000000 0.500000
O O8 0.250000 0.250000 0.500000
O O9 0.272468 0.169907 0.430314
O O10 0.000000 0.191515 0.500000
O O11 0.281626 0.861389 0.699192
O O12 0.000000 0.875192 0.623424
O O13 0.688560 0.500000 0.000000
O O14 0.500000 0.574113 0.000000
O O15 0.750000 0.250000 0.912775
O O16 0.721283 0.169498 0.847299
O O17 0.000000 0.188964 0.920077
O O18 0.724214 0.181144 0.000000
O O19 0.500000 0.337763 0.769259
#
# Coordination Sequence:
#
# PCOD9488853 Si02
#       7
#    16   8   8  16   8  16  16
#     4  10  21  35  49  71 105 140 173 212 260 310
#     4   8  13  24  45  70  97 130 165 203 249 299
#     4   9  17  32  53  75 103 134 164 204 260 316
#     4   8  16  30  46  71 104 131 161 208 258 304
#     4   9  17  31  51  71  92 125 172 219 255 293
#     4   9  19  35  52  71  96 127 166 213 259 305
#     4  10  20  33  52  76 102 134 174 218 262 309
#
# _framework density 21.476205
#
# number of rings (size 3 to 8) (size 9 to 14) (size 15 to 20)
#    0.000    2.909    0.000    1.909    1.273    4.364 
#    0.000    2.727    0.000    0.000    0.000    0.000 
#    0.000    5.091    0.000    0.000    0.000    0.000 
#
# Total GULP energy -245154.369315 kJ/mol
# GULP energy per Si atom -5571.690212 kJ/mol
# Density = 2.142732 g / cm^3
# Si number density = 21.476205 Si / 1000 Ang^3
#
#
#
# Elastic Constant Matrix: (Units=GPa)
#
#
# Indices 1 2 3 4 5 6 
#
# 1 49.6116 -1.5514 7.3191 0.0000 0.0000 0.0000
# 2 -1.5514 128.6531 94.0223 0.0000 0.0000 0.0000
# 3 7.3191 94.0223 219.5380 0.0000 0.0000 0.0000
# 4 0.0000 0.0000 0.0000 11.6542 0.0000 0.0000
# 5 0.0000 0.0000 0.0000 0.0000 -2.6929 0.0000
# 6 0.0000 0.0000 0.0000 0.0000 0.0000 16.8013
#
#
#
# Elastic Compliance Matrix: (Units=1/GPa)
#
#
# Indices 1 2 3 4 5 6 
#
# 1 0.020359 0.001079 -0.001141 0.000000 0.000000 0.000000
# 2 0.001079 0.011371 -0.004906 0.000000 0.000000 0.000000
# 3 -0.001141 -0.004906 0.006694 0.000000 0.000000 0.000000
# 4 0.000000 0.000000 0.000000 0.085806 0.000000 0.000000
# 5 0.000000 0.000000 0.000000 0.000000 -0.371352 0.000000
# 6 0.000000 0.000000 0.000000 0.000000 0.000000 0.059519
#
#
# Mechanical properties :
#
#
# Convention : Reuss Voigt Hill
#
# Bulk Modulus (GPa) = 35.10150 66.37587 50.73868
# Shear Modulus (GPa) = -29.73161 25.02004 -2.35579
#
# Velocity S-wave (km/s) = -3.72479 3.41693 -1.04848
# Velocity P-wave (km/s) = 1.45563 6.82210 4.71286
#
# Compressibility (1/GPa) = 0.02848881
#
# Stress axis : x y z
#
# Youngs Moduli (GPa) = 49.11916 87.94106 149.38383
#
# Poissons Ratio (x) = -0.09492 0.17045
# Poissons Ratio (y) = -0.05302 0.73288
# Poissons Ratio (z) = 0.05604 0.43144
#
# Static dielectric constant tensor:
#      x y z
#    x 1.831590 0.000000 0.000000 
#    y 0.000000 1.827110 0.000000 
#    z 0.000000 0.000000 2.025190 
# 
# From -- ./inp_files/50484.got.cif
#   From: 2010.05.17/outbox.cif.g08.bks.cpg/sg65_26_cif.got.tgz:50484.got - 2010.06.03 17:01:31.
