data_PCOD9488443
_publ_section_title
;
Structure prediction by ZEFSAII (Michael W. Deem and Ramdas Pophale) SiO2 
 PCOD9488443
Probable space group: C M M M
;
_chemical_formula_sum "Si O2"
_cell_formula_units_Z 96
_cell_length_a 28.024431
_cell_length_b 8.633385
_cell_length_c 24.787040
_cell_angle_alpha 90.000000
_cell_angle_beta 90.000000
_cell_angle_gamma 90.000000
_cell_volume 5997.117799
_symmetry_space_group_name_H-M "C M M M"
_symmetry_group_IT_number 65
_symmetry_cell_setting 'orthorhombic'
loop_
_space_group_symop_operation_xyz
x,y,z
-x,-y,z
x,-y,-z
-x,y,-z
-x,-y,-z
x,y,-z
-x,y,z
x,-y,z
1/2+x,1/2+y,z
1/2-x,1/2-y,z
1/2+x,1/2-y,-z
1/2-x,1/2+y,-z
1/2-x,1/2-y,-z
1/2+x,1/2+y,-z
1/2-x,1/2+y,z
1/2+x,1/2-y,z
loop_
_atom_site_type_symbol
_atom_site_label
_atom_site_fract_x
_atom_site_fract_y
_atom_site_fract_z
Si Si1 0.945692 0.814460 0.283491
Si Si2 0.696104 0.187477 0.117725
Si Si3 0.802132 0.686093 0.335325
Si Si4 0.898773 0.686044 0.608817
Si Si5 0.144613 0.312676 0.773723
Si Si6 0.055588 0.185763 0.500000
Si Si7 0.196079 0.313266 0.000000
O O1 0.930669 0.744887 0.341314
O O2 0.907028 0.753150 0.241038
O O3 0.000000 0.770606 0.270520
O O4 0.942727 0.000000 0.286774
O O5 0.750000 0.250000 0.122702
O O6 0.665200 0.238753 0.168859
O O7 0.676153 0.234682 0.058551
O O8 0.698202 0.000000 0.119175
O O9 0.799932 0.500000 0.335751
O O10 0.750000 0.750000 0.347266
O O11 0.844377 0.733179 0.376297
O O12 0.820226 0.733960 0.275505
O O13 0.900477 0.500000 0.607406
O O14 0.918242 0.752914 0.553271
O O15 0.142025 0.500000 0.773054
O O16 0.000000 0.235838 0.500000
O O17 0.056462 0.000000 0.500000
O O18 0.250000 0.250000 0.000000
O O19 0.197082 0.500000 0.000000
#
# Coordination Sequence:
#
# PCOD9488443 Si02
#       7
#    16  16  16  16  16   8   8
#     4  10  20  33  49  70  94 118 147 187 233 277
#     4   9  16  26  41  63  92 124 157 191 227 270
#     4   9  18  31  47  68  93 121 153 187 221 262
#     4  10  21  36  53  74  98 124 155 186 222 273
#     4   9  18  30  44  66  93 121 155 190 226 273
#     4  11  23  37  54  77 100 121 152 193 232 271
#     4   8  14  24  38  58  87 122 155 189 228 267
#
# _framework density 16.00769
#
# number of rings (size 3 to 8) (size 9 to 14) (size 15 to 20)
#    0.000    2.583    0.000    3.250    0.000    8.000 
#    0.000    0.417    0.000    0.000    0.000    0.583 
#    0.000    4.667    0.000    0.000    0.000    0.000 
#
# Total GULP energy -267524.449786 kJ/mol
# GULP energy per Si atom -5573.426037 kJ/mol
# Density = 1.597126 g / cm^3
# Si number density = 16.007690 Si / 1000 Ang^3
#
#
#
# Elastic Constant Matrix: (Units=GPa)
#
#
# Indices 1 2 3 4 5 6 
#
# 1 129.5855 28.1008 83.9222 0.0000 0.0000 0.0000
# 2 28.1008 18.8058 29.3395 0.0000 0.0000 0.0000
# 3 83.9222 29.3395 162.5466 0.0000 0.0000 0.0000
# 4 0.0000 0.0000 0.0000 13.9433 0.0000 0.0000
# 5 0.0000 0.0000 0.0000 0.0000 18.3993 0.0000
# 6 0.0000 0.0000 0.0000 0.0000 0.0000 27.3234
#
#
#
# Elastic Compliance Matrix: (Units=1/GPa)
#
#
# Indices 1 2 3 4 5 6 
#
# 1 0.013543 -0.012985 -0.004649 0.000000 0.000000 0.000000
# 2 -0.012985 0.086468 -0.008903 0.000000 0.000000 0.000000
# 3 -0.004649 -0.008903 0.010159 0.000000 0.000000 0.000000
# 4 0.000000 0.000000 0.000000 0.071719 0.000000 0.000000
# 5 0.000000 0.000000 0.000000 0.000000 0.054350 0.000000
# 6 0.000000 0.000000 0.000000 0.000000 0.000000 0.036599
#
#
# Mechanical properties :
#
#
# Convention : Reuss Voigt Hill
#
# Bulk Modulus (GPa) = 17.51404 65.96256 41.73830
# Shear Modulus (GPa) = 14.49512 23.23824 18.86668
#
# Velocity S-wave (km/s) = 3.01243 3.81424 3.43680
# Velocity P-wave (km/s) = 4.80255 7.79065 6.47142
#
# Compressibility (1/GPa) = 0.05709705
#
# Stress axis : x y z
#
# Youngs Moduli (GPa) = 73.83791 11.56495 98.43314
#
# Poissons Ratio (x) = 0.15017 0.45757
# Poissons Ratio (y) = 0.95876 0.87639
# Poissons Ratio (z) = 0.34324 0.10297
#
# Static dielectric constant tensor:
#      x y z
#    x 1.513560 0.000000 0.000000 
#    y 0.000000 1.540920 0.000000 
#    z 0.000000 0.000000 1.548950 
# 
# From -- ./inp_files/71758.got.cif
#   From: 2010.05.17/outbox.cif.g08.bks.cpg/sg65_36_cif.got.tgz:71758.got - 2010.06.03 17:01:31.
