data_PCOD9488606
_publ_section_title
;
Structure prediction by ZEFSAII (Michael W. Deem and Ramdas Pophale) SiO2 
 PCOD9488606
Probable space group: C M M M
;
_chemical_formula_sum "Si O2"
_cell_formula_units_Z 116
_cell_length_a 9.299102
_cell_length_b 30.234582
_cell_length_c 24.503900
_cell_angle_alpha 90.000000
_cell_angle_beta 90.000000
_cell_angle_gamma 90.000000
_cell_volume 6889.380820
_symmetry_space_group_name_H-M "C M M M"
_symmetry_group_IT_number 65
_symmetry_cell_setting 'orthorhombic'
loop_
_space_group_symop_operation_xyz
x,y,z
-x,-y,z
x,-y,-z
-x,y,-z
-x,-y,-z
x,y,-z
-x,y,z
x,-y,z
1/2+x,1/2+y,z
1/2-x,1/2-y,z
1/2+x,1/2-y,-z
1/2-x,1/2+y,-z
1/2-x,1/2-y,-z
1/2+x,1/2+y,-z
1/2-x,1/2+y,z
1/2+x,1/2-y,z
loop_
_atom_site_type_symbol
_atom_site_label
_atom_site_fract_x
_atom_site_fract_y
_atom_site_fract_z
Si Si1 0.827361 0.137128 0.701432
Si Si2 0.332625 0.794646 0.909598
Si Si3 0.331471 0.795242 0.222218
Si Si4 0.329253 0.050872 0.270591
Si Si5 0.831578 0.883074 0.938166
Si Si6 0.667447 0.051815 0.859323
Si Si7 0.343413 0.293720 0.611075
Si Si8 0.500000 0.309579 0.500000
O O1 0.750975 0.163991 0.750300
O O2 0.762922 0.088085 0.699856
O O3 0.790700 0.165469 0.647304
O O4 0.000000 0.135637 0.708192
O O5 0.500000 0.792744 0.925064
O O6 0.250000 0.750000 0.925516
O O7 0.325179 0.798317 0.843460
O O8 0.254524 0.837414 0.933041
O O9 0.500000 0.794467 0.237849
O O10 0.250000 0.750000 0.238559
O O11 0.500000 0.057134 0.280232
O O12 0.306257 0.056322 0.205403
O O13 0.293405 0.000000 0.284636
O O14 0.767918 0.917360 0.894976
O O15 0.000000 0.875030 0.927837
O O16 0.815537 0.900223 0.000000
O O17 0.500000 0.063679 0.869075
O O18 0.685895 0.000000 0.872822
O O19 0.500000 0.281654 0.635372
O O20 0.250000 0.250000 0.613106
O O21 0.377098 0.307431 0.548946
#
# Coordination Sequence:
#
# PCOD9488606 Si02
#       8
#    16  16  16  16  16  16  16   4
#     4  11  21  31  47  79 110 137 172 216 259 307
#     4  10  21  37  56  75  96 132 174 210 256 313
#     4  10  20  33  50  73 106 139 168 206 256 314
#     4   9  19  36  56  77 105 138 169 208 261 317
#     4  11  24  38  52  74 103 132 167 214 262 306
#     4   9  19  37  59  80 101 131 170 207 254 318
#     4   9  19  32  51  74 103 144 182 219 255 294
#     4   8  18  36  54  68 107 150 183 226 252 290
#
# _framework density 16.837506000000001
#
# number of rings (size 3 to 8) (size 9 to 14) (size 15 to 20)
#    0.414    1.793    0.000    3.931    0.000    9.931 
#    0.000    2.759    0.000    0.000    0.000    0.966 
#    0.000    1.103    0.000    0.000    0.000    0.000 
#
# Total GULP energy -323039.552903 kJ/mol
# GULP energy per Si atom -5569.647464 kJ/mol
# Density = 1.679918 g / cm^3
# Si number density = 16.837506 Si / 1000 Ang^3
#
#
#
# Elastic Constant Matrix: (Units=GPa)
#
#
# Indices 1 2 3 4 5 6 
#
# 1 86.3539 56.7826 41.0464 0.0000 0.0000 0.0000
# 2 56.7826 88.9401 39.3209 0.0000 0.0000 0.0000
# 3 41.0464 39.3209 45.9150 0.0000 0.0000 0.0000
# 4 0.0000 0.0000 0.0000 9.3262 0.0000 0.0000
# 5 0.0000 0.0000 0.0000 0.0000 21.7324 0.0000
# 6 0.0000 0.0000 0.0000 0.0000 0.0000 34.1281
#
#
#
# Elastic Compliance Matrix: (Units=1/GPa)
#
#
# Indices 1 2 3 4 5 6 
#
# 1 0.024276 -0.009501 -0.013565 0.000000 0.000000 0.000000
# 2 -0.009501 0.021813 -0.010186 0.000000 0.000000 0.000000
# 3 -0.013565 -0.010186 0.042629 0.000000 0.000000 0.000000
# 4 0.000000 0.000000 0.000000 0.107225 0.000000 0.000000
# 5 0.000000 0.000000 0.000000 0.000000 0.046014 0.000000
# 6 0.000000 0.000000 0.000000 0.000000 0.000000 0.029301
#
#
# Mechanical properties :
#
#
# Convention : Reuss Voigt Hill
#
# Bulk Modulus (GPa) = 45.01899 55.05652 50.03775
# Shear Modulus (GPa) = 14.48570 18.64128 16.56349
#
# Velocity S-wave (km/s) = 2.93631 3.33096 3.13984
# Velocity P-wave (km/s) = 6.18799 6.89663 6.55190
#
# Compressibility (1/GPa) = 0.02221285
#
# Stress axis : x y z
#
# Youngs Moduli (GPa) = 41.19346 45.84414 23.45810
#
# Poissons Ratio (x) = 0.43559 0.31820
# Poissons Ratio (y) = 0.39140 0.23895
# Poissons Ratio (z) = 0.55878 0.46699
#
# Static dielectric constant tensor:
#      x y z
#    x 1.571460 0.000000 0.000000 
#    y 0.000000 1.561370 0.000000 
#    z 0.000000 0.000000 1.561920 
# 
# From -- ./inp_files/68620.got.cif
#   From: 2010.05.17/outbox.cif.g08.bks.cpg/sg65_35_cif.got.tgz:68620.got - 2010.06.03 17:01:31.
