data_PCOD9488762
_publ_section_title
;
Structure prediction by ZEFSAII (Michael W. Deem and Ramdas Pophale) SiO2 
 PCOD9488762
Probable space group: C M M M
;
_chemical_formula_sum "Si O2"
_cell_formula_units_Z 88
_cell_length_a 8.894190
_cell_length_b 25.378559
_cell_length_c 22.345252
_cell_angle_alpha 90.000000
_cell_angle_beta 90.000000
_cell_angle_gamma 90.000000
_cell_volume 5043.808842
_symmetry_space_group_name_H-M "C M M M"
_symmetry_group_IT_number 65
_symmetry_cell_setting 'orthorhombic'
loop_
_space_group_symop_operation_xyz
x,y,z
-x,-y,z
x,-y,-z
-x,y,-z
-x,-y,-z
x,y,-z
-x,y,z
x,-y,z
1/2+x,1/2+y,z
1/2-x,1/2-y,z
1/2+x,1/2-y,-z
1/2-x,1/2+y,-z
1/2-x,1/2-y,-z
1/2+x,1/2+y,-z
1/2-x,1/2+y,z
1/2+x,1/2-y,z
loop_
_atom_site_type_symbol
_atom_site_label
_atom_site_fract_x
_atom_site_fract_y
_atom_site_fract_z
Si Si1 0.816694 0.500000 0.931626
Si Si2 0.679058 0.500000 0.607314
Si Si3 0.320815 0.693878 0.202835
Si Si4 0.321202 0.891103 0.431696
Si Si5 0.819500 0.587241 0.837154
Si Si6 0.820135 0.193792 0.343587
Si Si7 0.320371 0.000000 0.262264
O O1 0.771811 0.551595 0.893761
O O2 0.000000 0.500000 0.931503
O O3 0.765297 0.500000 0.000000
O O4 0.500000 0.500000 0.602098
O O5 0.748305 0.551905 0.577717
O O6 0.728642 0.500000 0.676845
O O7 0.500000 0.696712 0.197166
O O8 0.250000 0.750000 0.185114
O O9 0.256997 0.643693 0.167939
O O10 0.283969 0.685374 0.273360
O O11 0.294876 0.873345 0.500000
O O12 0.500000 0.894670 0.421949
O O13 0.249326 0.851356 0.384414
O O14 0.787334 0.551066 0.778762
O O15 0.000000 0.593739 0.839597
O O16 0.750000 0.250000 0.360762
O O17 0.000000 0.194985 0.349775
O O18 0.500000 0.000000 0.275007
#
# Coordination Sequence:
#
# PCOD9488762 Si02
#       7
#     8   8  16  16  16  16   8
#     4   8  15  30  53  80 109 142 178 212 247 290
#     4  12  24  36  53  76 101 130 166 210 261 314
#     4  10  20  33  51  76 105 136 168 207 255 304
#     4  11  24  40  56  73  96 130 170 211 257 310
#     4   9  17  30  51  79 107 137 173 209 248 296
#     4  10  21  37  57  80 104 132 167 208 257 309
#     4   9  18  32  51  75 104 135 164 201 252 309
#
# _framework density 17.447130999999999
#
# number of rings (size 3 to 8) (size 9 to 14) (size 15 to 20)
#    0.000    2.091    0.000    4.909    0.000    8.727 
#    0.000    1.364    0.000    1.636    0.000    0.000 
#    0.000    0.000    0.000    0.000    0.000    0.000 
#
# Total GULP energy -245720.946812 kJ/mol
# GULP energy per Si atom -5584.566973 kJ/mol
# Density = 1.740742 g / cm^3
# Si number density = 17.447131 Si / 1000 Ang^3
#
#
#
# Elastic Constant Matrix: (Units=GPa)
#
#
# Indices 1 2 3 4 5 6 
#
# 1 45.3900 46.6828 35.4267 0.0000 0.0000 0.0000
# 2 46.6828 159.9279 53.9241 0.0000 0.0000 0.0000
# 3 35.4267 53.9241 72.9720 0.0000 0.0000 0.0000
# 4 0.0000 0.0000 0.0000 66.2721 0.0000 0.0000
# 5 0.0000 0.0000 0.0000 0.0000 13.8385 0.0000
# 6 0.0000 0.0000 0.0000 0.0000 0.0000 36.6654
#
#
#
# Elastic Compliance Matrix: (Units=1/GPa)
#
#
# Indices 1 2 3 4 5 6 
#
# 1 0.040502 -0.006916 -0.014553 0.000000 0.000000 0.000000
# 2 -0.006916 0.009509 -0.003669 0.000000 0.000000 0.000000
# 3 -0.014553 -0.003669 0.023480 0.000000 0.000000 0.000000
# 4 0.000000 0.000000 0.000000 0.015089 0.000000 0.000000
# 5 0.000000 0.000000 0.000000 0.000000 0.072262 0.000000
# 6 0.000000 0.000000 0.000000 0.000000 0.000000 0.027274
#
#
# Mechanical properties :
#
#
# Convention : Reuss Voigt Hill
#
# Bulk Modulus (GPa) = 43.07336 61.15080 52.11208
# Shear Modulus (GPa) = 20.31444 32.83895 26.57669
#
# Velocity S-wave (km/s) = 3.41595 4.34314 3.90714
# Velocity P-wave (km/s) = 6.34821 7.76375 7.09139
#
# Compressibility (1/GPa) = 0.02321621
#
# Stress axis : x y z
#
# Youngs Moduli (GPa) = 24.68995 105.16709 42.58881
#
# Poissons Ratio (x) = 0.72731 0.61978
# Poissons Ratio (y) = 0.17075 0.15626
# Poissons Ratio (z) = 0.35930 0.38587
#
# Static dielectric constant tensor:
#      x y z
#    x 1.579620 0.000000 0.000000 
#    y 0.000000 1.598060 0.000000 
#    z 0.000000 0.000000 1.582980 
# 
# From -- ./inp_files/59923.got.cif
#   From: 2010.05.17/outbox.cif.g08.bks.cpg/sg65_30_cif.got.tgz:59923.got - 2010.06.03 17:01:31.
