data_PCOD9488154
_publ_section_title
;
Structure prediction by ZEFSAII (Michael W. Deem and Ramdas Pophale) SiO2 
 PCOD9488154
Probable space group: C M M M
;
_chemical_formula_sum "Si O2"
_cell_formula_units_Z 72
_cell_length_a 8.476485
_cell_length_b 14.328720
_cell_length_c 25.397656
_cell_angle_alpha 90.000000
_cell_angle_beta 90.000000
_cell_angle_gamma 90.000000
_cell_volume 3084.727680
_symmetry_space_group_name_H-M "C M M M"
_symmetry_group_IT_number 65
_symmetry_cell_setting 'orthorhombic'
loop_
_space_group_symop_operation_xyz
x,y,z
-x,-y,z
x,-y,-z
-x,y,-z
-x,-y,-z
x,y,-z
-x,y,z
x,-y,z
1/2+x,1/2+y,z
1/2-x,1/2-y,z
1/2+x,1/2-y,-z
1/2-x,1/2+y,-z
1/2-x,1/2-y,-z
1/2+x,1/2+y,-z
1/2-x,1/2+y,z
1/2+x,1/2-y,z
loop_
_atom_site_type_symbol
_atom_site_label
_atom_site_fract_x
_atom_site_fract_y
_atom_site_fract_z
Si Si1 0.673349 0.608656 0.669990
Si Si2 0.175791 0.386208 0.776384
Si Si3 0.500000 0.114054 0.061254
Si Si4 0.688782 0.144625 0.556872
Si Si5 0.174261 0.886069 0.117157
O O1 0.500000 0.653451 0.668381
O O2 0.654995 0.500000 0.683159
O O3 0.777655 0.645429 0.717914
O O4 0.745864 0.609106 0.611951
O O5 0.170241 0.500000 0.777028
O O6 0.298726 0.360263 0.821653
O O7 0.000000 0.354176 0.790082
O O8 0.665881 0.144633 0.087463
O O9 0.500000 0.000000 0.065497
O O10 0.500000 0.138936 0.000000
O O11 0.738655 0.103237 0.500000
O O12 0.500000 0.140057 0.558723
O O13 0.750000 0.250000 0.555500
O O14 0.000000 0.854853 0.098815
O O15 0.173116 0.000000 0.113885
#
# Coordination Sequence:
#
# PCOD9488154 Si02
#       5
#    16  16   8  16  16
#     4  10  20  32  48  73 100 124 156 201 246 289
#     4   9  15  25  41  60  84 112 144 187 237 284
#     4   9  16  24  32  46  70 102 145 191 229 271
#     4  10  21  37  55  72  93 125 162 198 239 294
#     4   9  15  23  35  50  71 103 142 185 233 281
#
# _framework density 23.340797999999999
#
# number of rings (size 3 to 8) (size 9 to 14) (size 15 to 20)
#    0.000    2.556    1.111    2.000    0.000    6.222 
#    0.000    4.444    0.000    0.000    0.000    0.000 
#    0.000    0.000    0.000    0.000    0.000    1.111 
#
# Total GULP energy -200933.807087 kJ/mol
# GULP energy per Si atom -5581.494641 kJ/mol
# Density = 2.328767 g / cm^3
# Si number density = 23.340798 Si / 1000 Ang^3
#
#
#
# Elastic Constant Matrix: (Units=GPa)
#
#
# Indices 1 2 3 4 5 6 
#
# 1 182.8278 5.3486 83.6895 0.0000 0.0000 0.0000
# 2 5.3486 59.1525 -5.8485 0.0000 0.0000 0.0000
# 3 83.6895 -5.8485 142.1191 0.0000 0.0000 0.0000
# 4 0.0000 0.0000 0.0000 47.0684 0.0000 0.0000
# 5 0.0000 0.0000 0.0000 0.0000 20.3641 0.0000
# 6 0.0000 0.0000 0.0000 0.0000 0.0000 16.6073
#
#
#
# Elastic Compliance Matrix: (Units=1/GPa)
#
#
# Indices 1 2 3 4 5 6 
#
# 1 0.007562 -0.001129 -0.004500 0.000000 0.000000 0.000000
# 2 -0.001129 0.017143 0.001370 0.000000 0.000000 0.000000
# 3 -0.004500 0.001370 0.009742 0.000000 0.000000 0.000000
# 4 0.000000 0.000000 0.000000 0.021246 0.000000 0.000000
# 5 0.000000 0.000000 0.000000 0.000000 0.049106 0.000000
# 6 0.000000 0.000000 0.000000 0.000000 0.000000 0.060215
#
#
# Mechanical properties :
#
#
# Convention : Reuss Voigt Hill
#
# Bulk Modulus (GPa) = 38.56345 61.16428 49.86387
# Shear Modulus (GPa) = 27.44621 36.86861 32.15741
#
# Velocity S-wave (km/s) = 3.43285 3.97870 3.71581
# Velocity P-wave (km/s) = 5.68070 6.88248 6.31026
#
# Compressibility (1/GPa) = 0.02593129
#
# Stress axis : x y z
#
# Youngs Moduli (GPa) = 132.23342 58.33294 102.64346
#
# Poissons Ratio (x) = 0.06584 0.46186
# Poissons Ratio (y) = 0.14925 -0.14063
# Poissons Ratio (z) = 0.59501 -0.07992
#
# Static dielectric constant tensor:
#      x y z
#    x 1.858850 0.000000 0.000000 
#    y 0.000000 1.933530 0.000000 
#    z 0.000000 0.000000 1.860490 
# 
# From -- ./inp_files/59234.got.cif
#   From: 2010.05.17/outbox.cif.g08.bks.cpg/sg65_30_cif.got.tgz:59234.got - 2010.06.03 17:01:31.
