data_PCOD9488648
_publ_section_title
;
Structure prediction by ZEFSAII (Michael W. Deem and Ramdas Pophale) SiO2 
 PCOD9488648
Probable space group: C M M M
;
_chemical_formula_sum "Si O2"
_cell_formula_units_Z 104
_cell_length_a 27.686103
_cell_length_b 8.922564
_cell_length_c 24.298453
_cell_angle_alpha 90.000000
_cell_angle_beta 90.000000
_cell_angle_gamma 90.000000
_cell_volume 6002.471773
_symmetry_space_group_name_H-M "C M M M"
_symmetry_group_IT_number 65
_symmetry_cell_setting 'orthorhombic'
loop_
_space_group_symop_operation_xyz
x,y,z
-x,-y,z
x,-y,-z
-x,y,-z
-x,-y,-z
x,y,-z
-x,y,z
x,-y,z
1/2+x,1/2+y,z
1/2-x,1/2-y,z
1/2+x,1/2-y,-z
1/2-x,1/2+y,-z
1/2-x,1/2-y,-z
1/2+x,1/2+y,-z
1/2-x,1/2+y,z
1/2+x,1/2-y,z
loop_
_atom_site_type_symbol
_atom_site_label
_atom_site_fract_x
_atom_site_fract_y
_atom_site_fract_z
Si Si1 0.803195 0.820111 0.319720
Si Si2 0.941552 0.827166 0.384924
Si Si3 0.196315 0.819460 0.441493
Si Si4 0.058305 0.172625 0.826633
Si Si5 0.059102 0.672815 0.500000
Si Si6 0.441375 0.824769 0.939019
Si Si7 0.105038 0.322281 0.722087
O O1 0.750000 0.750000 0.313866
O O2 0.822795 0.778743 0.381366
O O3 0.841890 0.750966 0.278774
O O4 0.800633 0.000000 0.315593
O O5 0.926803 0.754716 0.443263
O O6 0.923066 0.742165 0.331084
O O7 0.000000 0.826623 0.383637
O O8 0.924866 0.000000 0.383252
O O9 0.173428 0.772511 0.500000
O O10 0.250000 0.750000 0.441932
O O11 0.199526 0.000000 0.441878
O O12 0.074862 0.230692 0.886454
O O13 0.078239 0.272605 0.777398
O O14 0.000000 0.180032 0.825704
O O15 0.072375 0.000000 0.817899
O O16 0.075000 0.500000 0.500000
O O17 0.000000 0.673088 0.500000
O O18 0.500000 0.818094 0.939368
O O19 0.428569 0.000000 0.932396
O O20 0.425285 0.774341 0.000000
O O21 0.108179 0.500000 0.717906
#
# Coordination Sequence:
#
# PCOD9488648 Si02
#       7
#    16  16  16  16   8  16  16
#     4  10  20  36  55  73  97 125 160 204 253 309
#     4  10  20  35  54  74  97 127 163 205 254 304
#     4   8  14  26  46  69  89 111 139 176 228 290
#     4  10  20  33  50  74 105 139 175 215 256 298
#     4   9  17  31  51  73  96 123 158 201 249 301
#     4   8  14  26  45  70 102 140 177 208 241 286
#     4  12  24  36  51  72  99 132 171 211 256 306
#
# _framework density 17.326195999999999
#
# number of rings (size 3 to 8) (size 9 to 14) (size 15 to 20)
#    0.000    2.385    0.000    3.923    0.000    5.538 
#    1.385    1.538    0.000    0.000    0.000    0.000 
#    0.000    0.615    0.000    2.308    0.000    3.538 
#
# Total GULP energy -290108.762486 kJ/mol
# GULP energy per Si atom -5579.014663 kJ/mol
# Density = 1.728676 g / cm^3
# Si number density = 17.326196 Si / 1000 Ang^3
#
#
#
# Elastic Constant Matrix: (Units=GPa)
#
#
# Indices 1 2 3 4 5 6 
#
# 1 41.2803 25.3057 24.6596 0.0000 0.0000 0.0000
# 2 25.3057 107.5596 53.2814 0.0000 0.0000 0.0000
# 3 24.6596 53.2814 106.5991 0.0000 0.0000 0.0000
# 4 0.0000 0.0000 0.0000 29.3541 0.0000 0.0000
# 5 0.0000 0.0000 0.0000 0.0000 12.0080 0.0000
# 6 0.0000 0.0000 0.0000 0.0000 0.0000 18.3241
#
#
#
# Elastic Compliance Matrix: (Units=1/GPa)
#
#
# Indices 1 2 3 4 5 6 
#
# 1 0.029856 -0.004789 -0.004513 0.000000 0.000000 0.000000
# 2 -0.004789 0.013125 -0.005452 0.000000 0.000000 0.000000
# 3 -0.004513 -0.005452 0.013150 0.000000 0.000000 0.000000
# 4 0.000000 0.000000 0.000000 0.034067 0.000000 0.000000
# 5 0.000000 0.000000 0.000000 0.000000 0.083278 0.000000
# 6 0.000000 0.000000 0.000000 0.000000 0.000000 0.054573
#
#
# Mechanical properties :
#
#
# Convention : Reuss Voigt Hill
#
# Bulk Modulus (GPa) = 37.56175 51.32582 44.44378
# Shear Modulus (GPa) = 18.76658 22.08341 20.42500
#
# Velocity S-wave (km/s) = 3.29467 3.57398 3.43716
# Velocity P-wave (km/s) = 6.01659 6.83511 6.43887
#
# Compressibility (1/GPa) = 0.02662283
#
# Stress axis : x y z
#
# Youngs Moduli (GPa) = 33.49395 76.19205 76.04441
#
# Poissons Ratio (x) = 0.36486 0.34320
# Poissons Ratio (y) = 0.16039 0.41462
# Poissons Ratio (z) = 0.15116 0.41543
#
# Static dielectric constant tensor:
#      x y z
#    x 1.601860 0.000000 0.000000 
#    y 0.000000 1.582820 0.000000 
#    z 0.000000 0.000000 1.595340 
# 
# From -- ./inp_files/65895.got.cif
#   From: 2010.05.17/outbox.cif.g08.bks.cpg/sg65_33_cif.got.tgz:65895.got - 2010.06.03 17:01:31.
