data_PCOD9488491
_publ_section_title
;
Structure prediction by ZEFSAII (Michael W. Deem and Ramdas Pophale) SiO2 
 PCOD9488491
Probable space group: C M M M
;
_chemical_formula_sum "Si O2"
_cell_formula_units_Z 120
_cell_length_a 8.893382
_cell_length_b 30.351273
_cell_length_c 26.087247
_cell_angle_alpha 90.000000
_cell_angle_beta 90.000000
_cell_angle_gamma 90.000000
_cell_volume 7041.612276
_symmetry_space_group_name_H-M "C M M M"
_symmetry_group_IT_number 65
_symmetry_cell_setting 'orthorhombic'
loop_
_space_group_symop_operation_xyz
x,y,z
-x,-y,z
x,-y,-z
-x,y,-z
-x,-y,-z
x,y,-z
-x,y,z
x,-y,z
1/2+x,1/2+y,z
1/2-x,1/2-y,z
1/2+x,1/2-y,-z
1/2-x,1/2+y,-z
1/2-x,1/2-y,-z
1/2+x,1/2+y,-z
1/2-x,1/2+y,z
1/2+x,1/2-y,z
loop_
_atom_site_type_symbol
_atom_site_label
_atom_site_fract_x
_atom_site_fract_y
_atom_site_fract_z
Si Si1 0.318928 0.702729 0.236643
Si Si2 0.180083 0.448376 0.107679
Si Si3 0.672204 0.446652 0.000000
Si Si4 0.181545 0.797273 0.644815
Si Si5 0.320201 0.609149 0.198039
Si Si6 0.821072 0.448999 0.715302
Si Si7 0.819105 0.137167 0.443788
Si Si8 0.819966 0.450436 0.594036
O O1 0.500000 0.706199 0.234898
O O2 0.250000 0.750000 0.222348
O O3 0.276006 0.693176 0.296128
O O4 0.273523 0.660355 0.203340
O O5 0.222855 0.500000 0.116561
O O6 0.243750 0.434348 0.052276
O O7 0.245276 0.417287 0.151639
O O8 0.000000 0.446451 0.107490
O O9 0.670081 0.500000 0.000000
O O10 0.500000 0.431071 0.000000
O O11 0.250000 0.750000 0.631636
O O12 0.234194 0.833161 0.603712
O O13 0.000000 0.795130 0.642959
O O14 0.500000 0.607630 0.192918
O O15 0.271393 0.584103 0.249853
O O16 0.789246 0.500000 0.729522
O O17 0.789513 0.444359 0.654850
O O18 0.000000 0.441980 0.723039
O O19 0.773249 0.154201 0.500000
O O20 0.759512 0.088018 0.436401
O O21 0.000000 0.136687 0.441999
O O22 0.772947 0.500000 0.579786
O O23 0.000000 0.447676 0.587399
#
# Coordination Sequence:
#
# PCOD9488491 Si02
#       8
#    16  16   8  16  16  16  16  16
#     4   9  19  34  51  71  95 124 159 199 243 293
#     4  10  20  33  49  72 105 144 181 213 248 291
#     4   9  17  31  51  73 100 137 180 223 259 289
#     4   9  18  34  53  72  95 122 153 191 238 293
#     4  11  21  31  47  74 104 132 165 205 247 290
#     4   9  18  32  48  68  96 128 160 194 237 291
#     4  10  21  35  50  70  96 123 152 191 239 289
#     4   9  19  35  52  69  91 122 160 199 237 281
#
# _framework density 17.041551999999999
#
# number of rings (size 3 to 8) (size 9 to 14) (size 15 to 20)
#    0.000    2.467    0.000    3.000    0.000    7.733 
#    0.000    5.333    0.000    0.000    0.000    0.467 
#    0.000    0.000    0.000    0.000    0.000    0.000 
#
# Total GULP energy -334722.930286 kJ/mol
# GULP energy per Si atom -5578.715505 kJ/mol
# Density = 1.700276 g / cm^3
# Si number density = 17.041552 Si / 1000 Ang^3
#
#
#
# Elastic Constant Matrix: (Units=GPa)
#
#
# Indices 1 2 3 4 5 6 
#
# 1 25.9432 31.3074 27.4556 0.0000 0.0000 0.0000
# 2 31.3074 105.6059 60.4287 0.0000 0.0000 0.0000
# 3 27.4556 60.4287 60.1986 0.0000 0.0000 0.0000
# 4 0.0000 0.0000 0.0000 10.9996 0.0000 0.0000
# 5 0.0000 0.0000 0.0000 0.0000 25.3885 0.0000
# 6 0.0000 0.0000 0.0000 0.0000 0.0000 28.0791
#
#
#
# Elastic Compliance Matrix: (Units=1/GPa)
#
#
# Indices 1 2 3 4 5 6 
#
# 1 0.076285 -0.006359 -0.028409 0.000000 0.000000 0.000000
# 2 -0.006359 0.022779 -0.019966 0.000000 0.000000 0.000000
# 3 -0.028409 -0.019966 0.049610 0.000000 0.000000 0.000000
# 4 0.000000 0.000000 0.000000 0.090913 0.000000 0.000000
# 5 0.000000 0.000000 0.000000 0.000000 0.039388 0.000000
# 6 0.000000 0.000000 0.000000 0.000000 0.000000 0.035614
#
#
# Mechanical properties :
#
#
# Convention : Reuss Voigt Hill
#
# Bulk Modulus (GPa) = 25.50573 47.79237 36.64905
# Shear Modulus (GPa) = 11.43838 17.73050 14.58444
#
# Velocity S-wave (km/s) = 2.59357 3.22906 2.92861
# Velocity P-wave (km/s) = 4.89572 6.48136 5.74352
#
# Compressibility (1/GPa) = 0.03920688
#
# Stress axis : x y z
#
# Youngs Moduli (GPa) = 13.10877 43.90025 20.15706
#
# Poissons Ratio (x) = 0.27917 0.57264
# Poissons Ratio (y) = 0.08336 0.40245
# Poissons Ratio (z) = 0.37240 0.87650
#
# Static dielectric constant tensor:
#      x y z
#    x 1.567750 0.000000 0.000000 
#    y 0.000000 1.563630 0.000000 
#    z 0.000000 0.000000 1.578150 
# 
# From -- ./inp_files/73924.got.cif
#   From: 2010.05.17/outbox.cif.g08.bks.cpg/sg65_37_cif.got.tgz:73924.got - 2010.06.03 17:01:31.
