data_PCOD9488436
_publ_section_title
;
Structure prediction by ZEFSAII (Michael W. Deem and Ramdas Pophale) SiO2 
 PCOD9488436
Probable space group: C M M M
;
_chemical_formula_sum "Si O2"
_cell_formula_units_Z 88
_cell_length_a 14.688507
_cell_length_b 9.044819
_cell_length_c 30.068822
_cell_angle_alpha 90.000000
_cell_angle_beta 90.000000
_cell_angle_gamma 90.000000
_cell_volume 3994.789955
_symmetry_space_group_name_H-M "C M M M"
_symmetry_group_IT_number 65
_symmetry_cell_setting 'orthorhombic'
loop_
_space_group_symop_operation_xyz
x,y,z
-x,-y,z
x,-y,-z
-x,y,-z
-x,-y,-z
x,y,-z
-x,y,z
x,-y,z
1/2+x,1/2+y,z
1/2-x,1/2-y,z
1/2+x,1/2-y,-z
1/2-x,1/2+y,-z
1/2-x,1/2-y,-z
1/2+x,1/2+y,-z
1/2-x,1/2+y,z
1/2+x,1/2-y,z
loop_
_atom_site_type_symbol
_atom_site_label
_atom_site_fract_x
_atom_site_fract_y
_atom_site_fract_z
Si Si1 0.888668 0.328101 0.812860
Si Si2 0.111532 0.831693 0.000000
Si Si3 0.892912 0.836416 0.274152
Si Si4 0.850808 0.177163 0.549137
Si Si5 0.349543 0.176441 0.636334
Si Si6 0.110864 0.328600 0.089450
O O1 0.861642 0.500000 0.808533
O O2 0.855477 0.234189 0.771034
O O3 0.861467 0.270851 0.861801
O O4 0.000000 0.327670 0.812172
O O5 0.141639 0.754985 0.954464
O O6 0.000000 0.827706 0.000000
O O7 0.140930 0.000000 0.000000
O O8 0.886626 0.729677 0.316435
O O9 0.000000 0.853808 0.266239
O O10 0.853683 0.000000 0.283884
O O11 0.892009 0.201601 0.500000
O O12 0.750000 0.250000 0.546671
O O13 0.894862 0.252832 0.592262
O O14 0.844156 0.000000 0.555839
O O15 0.250000 0.250000 0.636439
O O16 0.347789 0.000000 0.632838
O O17 0.137508 0.500000 0.086773
O O18 0.000000 0.324644 0.088943
#
# Coordination Sequence:
#
# PCOD9488436 Si02
#       6
#    16   8  16  16  16  16
#     4   8  14  25  40  57  77 105 144 185 223 267
#     4   9  15  19  25  41  65  93 128 171 216 261
#     4  10  20  33  49  69  94 124 158 195 235 280
#     4   9  16  27  45  69  96 123 152 187 227 272
#     4  11  21  33  51  73  99 127 157 194 233 275
#     4   8  13  21  32  45  65  96 133 172 214 262
#
# _framework density 22.028694000000002
#
# number of rings (size 3 to 8) (size 9 to 14) (size 15 to 20)
#    0.000    2.818    0.000    5.182    0.000    4.000 
#    0.000    3.636    0.000    0.545    0.000    3.818 
#    0.000    0.000    0.000    0.818    0.000   11.636 
#
# Total GULP energy -245430.989073 kJ/mol
# GULP energy per Si atom -5577.977024 kJ/mol
# Density = 2.197856 g / cm^3
# Si number density = 22.028694 Si / 1000 Ang^3
#
#
#
# Elastic Constant Matrix: (Units=GPa)
#
#
# Indices 1 2 3 4 5 6 
#
# 1 53.0321 10.8887 9.8418 0.0000 0.0000 0.0000
# 2 10.8887 154.7940 118.3798 0.0000 0.0000 0.0000
# 3 9.8418 118.3798 250.4761 0.0000 0.0000 0.0000
# 4 0.0000 0.0000 0.0000 34.9913 0.0000 0.0000
# 5 0.0000 0.0000 0.0000 0.0000 1.4104 0.0000
# 6 0.0000 0.0000 0.0000 0.0000 0.0000 4.6394
#
#
#
# Elastic Compliance Matrix: (Units=1/GPa)
#
#
# Indices 1 2 3 4 5 6 
#
# 1 0.019138 -0.001208 -0.000181 0.000000 0.000000 0.000000
# 2 -0.001208 0.010193 -0.004770 0.000000 0.000000 0.000000
# 3 -0.000181 -0.004770 0.006254 0.000000 0.000000 0.000000
# 4 0.000000 0.000000 0.000000 0.028579 0.000000 0.000000
# 5 0.000000 0.000000 0.000000 0.000000 0.709008 0.000000
# 6 0.000000 0.000000 0.000000 0.000000 0.000000 0.215545
#
#
# Mechanical properties :
#
#
# Convention : Reuss Voigt Hill
#
# Bulk Modulus (GPa) = 42.97869 81.83588 62.40728
# Shear Modulus (GPa) = 4.95643 29.48768 17.22206
#
# Velocity S-wave (km/s) = 1.50162 3.66266 2.79910
# Velocity P-wave (km/s) = 4.74965 7.42409 6.23203
#
# Compressibility (1/GPa) = 0.02326734
#
# Stress axis : x y z
#
# Youngs Moduli (GPa) = 52.25180 98.10648 159.90038
#
# Poissons Ratio (x) = 0.11848 0.02898
# Poissons Ratio (y) = 0.06310 0.76272
# Poissons Ratio (z) = 0.00947 0.46796
#
# Static dielectric constant tensor:
#      x y z
#    x 1.999570 0.000000 0.000000 
#    y 0.000000 1.764770 0.000000 
#    z 0.000000 0.000000 1.853630 
# 
# From -- ./inp_files/77882.got.cif
#   From: 2010.05.17/outbox.cif.g08.bks.cpg/sg65_39_cif.got.tgz:77882.got - 2010.06.03 17:01:31.
