data_PCOD9488471
_publ_section_title
;
Structure prediction by ZEFSAII (Michael W. Deem and Ramdas Pophale) SiO2 
 PCOD9488471
Probable space group: C M M M
;
_chemical_formula_sum "Si O2"
_cell_formula_units_Z 72
_cell_length_a 8.871538
_cell_length_b 28.707271
_cell_length_c 17.048628
_cell_angle_alpha 90.000000
_cell_angle_beta 90.000000
_cell_angle_gamma 90.000000
_cell_volume 4341.904439
_symmetry_space_group_name_H-M "C M M M"
_symmetry_group_IT_number 65
_symmetry_cell_setting 'orthorhombic'
loop_
_space_group_symop_operation_xyz
x,y,z
-x,-y,z
x,-y,-z
-x,y,-z
-x,-y,-z
x,y,-z
-x,y,z
x,-y,z
1/2+x,1/2+y,z
1/2-x,1/2-y,z
1/2+x,1/2-y,-z
1/2-x,1/2+y,-z
1/2-x,1/2-y,-z
1/2+x,1/2+y,-z
1/2-x,1/2+y,z
1/2+x,1/2-y,z
loop_
_atom_site_type_symbol
_atom_site_label
_atom_site_fract_x
_atom_site_fract_y
_atom_site_fract_z
Si Si1 0.825606 0.382377 0.798702
Si Si2 0.180302 0.945584 0.334374
Si Si3 0.171496 0.443800 0.500000
Si Si4 0.817568 0.698555 0.911288
Si Si5 0.833515 0.946306 0.906539
O O1 0.739999 0.408191 0.728289
O O2 0.768773 0.334702 0.839537
O O3 0.801954 0.418365 0.869860
O O4 0.000000 0.376744 0.777298
O O5 0.242923 0.931873 0.419955
O O6 0.000000 0.945510 0.334739
O O7 0.228013 0.000000 0.318039
O O8 0.164996 0.500000 0.500000
O O9 0.000000 0.426004 0.500000
O O10 0.750000 0.750000 0.903059
O O11 0.000000 0.700311 0.909478
O O12 0.774898 0.681560 0.000000
O O13 0.000000 0.928124 0.881482
O O14 0.826996 0.000000 0.881766
O O15 0.829213 0.944845 0.000000
#
# Coordination Sequence:
#
# PCOD9488471 Si02
#       5
#    16  16   8  16  16
#     4  11  21  31  46  70  97 123 156 200 245 286
#     4  10  20  33  49  71 101 135 168 199 233 280
#     4   9  17  31  51  73  98 129 164 201 241 281
#     4   9  19  35  52  70  93 122 159 204 251 296
#     4   9  18  31  44  60  87 124 162 195 229 276
#
# _framework density 16.582585000000002
#
# number of rings (size 3 to 8) (size 9 to 14) (size 15 to 20)
#    0.000    2.333    0.000    3.667    0.000    8.889 
#    0.000    3.333    0.000    0.000    0.000    0.778 
#    0.000    0.000    0.000    0.000    0.000    0.000 
#
# Total GULP energy -200530.327268 kJ/mol
# GULP energy per Si atom -5570.286869 kJ/mol
# Density = 1.654484 g / cm^3
# Si number density = 16.582585 Si / 1000 Ang^3
#
#
#
# Elastic Constant Matrix: (Units=GPa)
#
#
# Indices 1 2 3 4 5 6 
#
# 1 37.9286 24.4696 34.8877 0.0000 0.0000 0.0000
# 2 24.4696 70.7315 57.5869 0.0000 0.0000 0.0000
# 3 34.8877 57.5869 112.7355 0.0000 0.0000 0.0000
# 4 0.0000 0.0000 0.0000 31.6139 0.0000 0.0000
# 5 0.0000 0.0000 0.0000 0.0000 31.0040 0.0000
# 6 0.0000 0.0000 0.0000 0.0000 0.0000 21.6353
#
#
#
# Elastic Compliance Matrix: (Units=1/GPa)
#
#
# Indices 1 2 3 4 5 6 
#
# 1 0.038370 -0.006174 -0.008720 0.000000 0.000000 0.000000
# 2 -0.006174 0.025198 -0.010961 0.000000 0.000000 0.000000
# 3 -0.008720 -0.010961 0.017168 0.000000 0.000000 0.000000
# 4 0.000000 0.000000 0.000000 0.031632 0.000000 0.000000
# 5 0.000000 0.000000 0.000000 0.000000 0.032254 0.000000
# 6 0.000000 0.000000 0.000000 0.000000 0.000000 0.046221
#
#
# Mechanical properties :
#
#
# Convention : Reuss Voigt Hill
#
# Bulk Modulus (GPa) = 34.45315 50.58712 42.52013
# Shear Modulus (GPa) = 19.82344 23.81407 21.81876
#
# Velocity S-wave (km/s) = 3.46126 3.79369 3.63128
# Velocity P-wave (km/s) = 6.06594 7.05421 6.57865
#
# Compressibility (1/GPa) = 0.02902492
#
# Stress axis : x y z
#
# Youngs Moduli (GPa) = 26.06221 39.68614 58.24888
#
# Poissons Ratio (x) = 0.24504 0.50794
# Poissons Ratio (y) = 0.16092 0.63844
# Poissons Ratio (z) = 0.22727 0.43498
#
# Static dielectric constant tensor:
#      x y z
#    x 1.588760 0.000000 0.000000 
#    y 0.000000 1.555910 0.000000 
#    z 0.000000 0.000000 1.575420 
# 
# From -- ./inp_files/36539.got.cif
#   From: 2010.05.17/outbox.cif.g08.bks.cpg/sg65_19_cif.got.tgz:36539.got - 2010.06.03 17:01:31.
