data_PCOD9488750
_publ_section_title
;
Structure prediction by ZEFSAII (Michael W. Deem and Ramdas Pophale) SiO2 
 PCOD9488750
Probable space group: C M M M
;
_chemical_formula_sum "Si O2"
_cell_formula_units_Z 88
_cell_length_a 20.186434
_cell_length_b 9.045056
_cell_length_c 28.046033
_cell_angle_alpha 90.000000
_cell_angle_beta 90.000000
_cell_angle_gamma 90.000000
_cell_volume 5120.852974
_symmetry_space_group_name_H-M "C M M M"
_symmetry_group_IT_number 65
_symmetry_cell_setting 'orthorhombic'
loop_
_space_group_symop_operation_xyz
x,y,z
-x,-y,z
x,-y,-z
-x,y,-z
-x,-y,-z
x,y,-z
-x,y,z
x,-y,z
1/2+x,1/2+y,z
1/2-x,1/2-y,z
1/2+x,1/2-y,-z
1/2-x,1/2+y,-z
1/2-x,1/2-y,-z
1/2+x,1/2+y,-z
1/2-x,1/2+y,z
1/2+x,1/2-y,z
loop_
_atom_site_type_symbol
_atom_site_label
_atom_site_fract_x
_atom_site_fract_y
_atom_site_fract_z
Si Si1 0.423870 0.180076 0.000000
Si Si2 0.179134 0.676268 0.444545
Si Si3 0.820200 0.323457 0.191160
Si Si4 0.422402 0.677192 0.627465
Si Si5 0.077752 0.176855 0.262433
Si Si6 0.679745 0.822394 0.080060
O O1 0.380379 0.224503 0.045943
O O2 0.500000 0.232179 0.000000
O O3 0.426305 0.000000 0.000000
O O4 0.163065 0.709829 0.500000
O O5 0.184289 0.500000 0.439574
O O6 0.250000 0.750000 0.434001
O O7 0.124187 0.740246 0.409422
O O8 0.815478 0.500000 0.195178
O O9 0.750000 0.250000 0.203736
O O10 0.876485 0.261291 0.225459
O O11 0.833588 0.286676 0.135505
O O12 0.500000 0.711411 0.619684
O O13 0.414640 0.500000 0.622373
O O14 0.406322 0.714811 0.682515
O O15 0.000000 0.208984 0.254854
O O16 0.086601 0.000000 0.257219
O O17 0.750000 0.750000 0.066461
O O18 0.686547 0.000000 0.076034
#
# Coordination Sequence:
#
# PCOD9488750 Si02
#       6
#     8  16  16  16  16  16
#     4   9  17  30  49  73 100 129 162 202 248 295
#     4  10  21  36  54  77 105 136 170 209 253 300
#     4  10  20  33  51  76 103 132 170 212 252 299
#     4   9  19  36  56  77 102 134 171 208 249 301
#     4   9  19  36  55  75 102 135 169 207 253 302
#     4   9  18  32  51  73  97 129 166 204 246 294
#
# _framework density 17.184636999999999
#
# number of rings (size 3 to 8) (size 9 to 14) (size 15 to 20)
#    0.000    2.636    0.000    2.455    0.000    5.091 
#    0.000    5.455    0.000    1.091    0.000    0.000 
#    0.000    0.000    0.000    0.000    0.000    0.000 
#
# Total GULP energy -245449.766041 kJ/mol
# GULP energy per Si atom -5578.403774 kJ/mol
# Density = 1.714552 g / cm^3
# Si number density = 17.184637 Si / 1000 Ang^3
#
#
#
# Elastic Constant Matrix: (Units=GPa)
#
#
# Indices 1 2 3 4 5 6 
#
# 1 141.6661 58.0380 111.5971 0.0000 0.0000 0.0000
# 2 58.0380 37.7334 57.2452 0.0000 0.0000 0.0000
# 3 111.5971 57.2452 118.6140 0.0000 0.0000 0.0000
# 4 0.0000 0.0000 0.0000 20.3469 0.0000 0.0000
# 5 0.0000 0.0000 0.0000 0.0000 42.7959 0.0000
# 6 0.0000 0.0000 0.0000 0.0000 0.0000 34.6026
#
#
#
# Elastic Compliance Matrix: (Units=1/GPa)
#
#
# Indices 1 2 3 4 5 6 
#
# 1 0.028618 -0.011835 -0.021214 0.000000 0.000000 0.000000
# 2 -0.011835 0.103846 -0.038983 0.000000 0.000000 0.000000
# 3 -0.021214 -0.038983 0.047203 0.000000 0.000000 0.000000
# 4 0.000000 0.000000 0.000000 0.049148 0.000000 0.000000
# 5 0.000000 0.000000 0.000000 0.000000 0.023367 0.000000
# 6 0.000000 0.000000 0.000000 0.000000 0.000000 0.028900
#
#
# Mechanical properties :
#
#
# Convention : Reuss Voigt Hill
#
# Bulk Modulus (GPa) = 28.08643 83.53046 55.80845
# Shear Modulus (GPa) = 11.44131 24.29131 17.86631
#
# Velocity S-wave (km/s) = 2.58308 3.76380 3.22789
# Velocity P-wave (km/s) = 5.02751 8.22201 6.81459
#
# Compressibility (1/GPa) = 0.03560438
#
# Stress axis : x y z
#
# Youngs Moduli (GPa) = 34.94248 9.62965 21.18497
#
# Poissons Ratio (x) = 0.11397 0.44941
# Poissons Ratio (y) = 0.41354 0.82585
# Poissons Ratio (z) = 0.74126 0.37539
#
# Static dielectric constant tensor:
#      x y z
#    x 1.551480 0.000000 0.000000 
#    y 0.000000 1.569260 0.000000 
#    z 0.000000 0.000000 1.577380 
# 
# From -- ./inp_files/67487.got.cif
#   From: 2010.05.17/outbox.cif.g08.bks.cpg/sg65_34_cif.got.tgz:67487.got - 2010.06.03 17:01:31.
