data_PCOD9488781
_publ_section_title
;
Structure prediction by ZEFSAII (Michael W. Deem and Ramdas Pophale) SiO2 
 PCOD9488781
Probable space group: C M M M
;
_chemical_formula_sum "Si O2"
_cell_formula_units_Z 88
_cell_length_a 27.273617
_cell_length_b 8.812561
_cell_length_c 20.021971
_cell_angle_alpha 90.000000
_cell_angle_beta 90.000000
_cell_angle_gamma 90.000000
_cell_volume 4812.289009
_symmetry_space_group_name_H-M "C M M M"
_symmetry_group_IT_number 65
_symmetry_cell_setting 'orthorhombic'
loop_
_space_group_symop_operation_xyz
x,y,z
-x,-y,z
x,-y,-z
-x,y,-z
-x,-y,-z
x,y,-z
-x,y,z
x,-y,z
1/2+x,1/2+y,z
1/2-x,1/2-y,z
1/2+x,1/2-y,-z
1/2-x,1/2+y,-z
1/2-x,1/2-y,-z
1/2+x,1/2+y,-z
1/2-x,1/2+y,z
1/2+x,1/2-y,z
loop_
_atom_site_type_symbol
_atom_site_label
_atom_site_fract_x
_atom_site_fract_y
_atom_site_fract_z
Si Si1 0.445541 0.669497 0.919461
Si Si2 0.305595 0.818445 0.660130
Si Si3 0.696684 0.678333 0.797190
Si Si4 0.500000 0.822979 0.581167
Si Si5 0.150194 0.673954 0.078329
Si Si6 0.895488 0.177901 0.580501
O O1 0.500000 0.696627 0.893351
O O2 0.429203 0.500000 0.897385
O O3 0.407133 0.800746 0.906532
O O4 0.448515 0.661845 0.000000
O O5 0.250000 0.750000 0.649968
O O6 0.325241 0.762137 0.732596
O O7 0.347217 0.760744 0.609138
O O8 0.301375 0.000000 0.658612
O O9 0.697641 0.500000 0.784610
O O10 0.750000 0.750000 0.800163
O O11 0.674749 0.715638 0.869079
O O12 0.500000 0.814298 0.500000
O O13 0.448417 0.746251 0.602698
O O14 0.500000 0.000000 0.600012
O O15 0.165148 0.500000 0.089154
O O16 0.158818 0.710948 0.000000
O O17 0.894284 0.189617 0.500000
O O18 0.893450 0.000000 0.598634
#
# Coordination Sequence:
#
# PCOD9488781 Si02
#       6
#    16  16  16   8  16  16
#     4   8  14  26  45  69  97 129 164 202 249 306
#     4  11  22  38  59  82 111 147 188 231 280 337
#     4  11  22  38  58  77 102 137 177 219 269 327
#     4   9  17  31  53  83 117 153 192 231 276 327
#     4  10  20  33  51  77 106 135 172 218 267 319
#     4  10  20  35  57  86 119 154 192 233 276 325
#
# _framework density 18.286515999999999
#
# number of rings (size 3 to 8) (size 9 to 14) (size 15 to 20)
#    0.000    2.091    0.000    6.273    0.000    4.364 
#    0.000    1.818    2.000    0.000    0.000    0.000 
#    0.000    0.000    0.000    0.000    0.000    0.000 
#
# Total GULP energy -245028.007498 kJ/mol
# GULP energy per Si atom -5568.818352 kJ/mol
# Density = 1.824490 g / cm^3
# Si number density = 18.286516 Si / 1000 Ang^3
#
#
#
# Elastic Constant Matrix: (Units=GPa)
#
#
# Indices 1 2 3 4 5 6 
#
# 1 75.1498 54.9199 31.6083 0.0000 0.0000 0.0000
# 2 54.9199 148.1065 39.9935 0.0000 0.0000 0.0000
# 3 31.6083 39.9935 37.9601 0.0000 0.0000 0.0000
# 4 0.0000 0.0000 0.0000 15.7480 0.0000 0.0000
# 5 0.0000 0.0000 0.0000 0.0000 -43.2116 0.0000
# 6 0.0000 0.0000 0.0000 0.0000 0.0000 34.6027
#
#
#
# Elastic Compliance Matrix: (Units=1/GPa)
#
#
# Indices 1 2 3 4 5 6 
#
# 1 0.022512 -0.004593 -0.013907 0.000000 0.000000 0.000000
# 2 -0.004593 0.010373 -0.007105 0.000000 0.000000 0.000000
# 3 -0.013907 -0.007105 0.045409 0.000000 0.000000 0.000000
# 4 0.000000 0.000000 0.000000 0.063500 0.000000 0.000000
# 5 0.000000 0.000000 0.000000 0.000000 -0.023142 0.000000
# 6 0.000000 0.000000 0.000000 0.000000 0.000000 0.028899
#
#
# Mechanical properties :
#
#
# Convention : Reuss Voigt Hill
#
# Bulk Modulus (GPa) = 36.91960 57.13996 47.02978
# Shear Modulus (GPa) = 24.06278 10.40748 17.23513
#
# Velocity S-wave (km/s) = 3.63144 2.38824 3.07335
# Velocity P-wave (km/s) = 6.14951 6.23857 6.19420
#
# Compressibility (1/GPa) = 0.02708589
#
# Stress axis : x y z
#
# Youngs Moduli (GPa) = 44.42021 96.39974 22.02211
#
# Poissons Ratio (x) = 0.44272 0.30626
# Poissons Ratio (y) = 0.20400 0.15647
# Poissons Ratio (z) = 0.61774 0.68492
#
# Static dielectric constant tensor:
#      x y z
#    x 1.656230 0.000000 0.000000 
#    y 0.000000 1.632540 0.000000 
#    z 0.000000 0.000000 1.668990 
# 
# From -- ./inp_files/65175.got.cif
#   From: 2010.05.17/outbox.cif.g08.bks.cpg/sg65_33_cif.got.tgz:65175.got - 2010.06.03 17:01:31.
