data_PCOD9488904
_publ_section_title
;
Structure prediction by ZEFSAII (Michael W. Deem and Ramdas Pophale) SiO2 
 PCOD9488904
Probable space group: C M M M
;
_chemical_formula_sum "Si O2"
_cell_formula_units_Z 88
_cell_length_a 29.542755
_cell_length_b 17.632337
_cell_length_c 7.402033
_cell_angle_alpha 90.000000
_cell_angle_beta 90.000000
_cell_angle_gamma 90.000000
_cell_volume 3855.776815
_symmetry_space_group_name_H-M "C M M M"
_symmetry_group_IT_number 65
_symmetry_cell_setting 'orthorhombic'
loop_
_space_group_symop_operation_xyz
x,y,z
-x,-y,z
x,-y,-z
-x,y,-z
-x,-y,-z
x,y,-z
-x,y,z
x,-y,z
1/2+x,1/2+y,z
1/2-x,1/2-y,z
1/2+x,1/2-y,-z
1/2-x,1/2+y,-z
1/2-x,1/2-y,-z
1/2+x,1/2+y,-z
1/2-x,1/2+y,z
1/2+x,1/2-y,z
loop_
_atom_site_type_symbol
_atom_site_label
_atom_site_fract_x
_atom_site_fract_y
_atom_site_fract_z
Si Si1 0.227112 0.169201 0.218721
Si Si2 0.052534 0.420462 0.281052
Si Si3 0.888896 0.289556 0.291122
Si Si4 0.871704 0.876324 0.202352
Si Si5 0.554164 0.500000 0.779947
Si Si6 0.184111 0.584453 0.216965
O O1 0.250000 0.250000 0.278871
O O2 0.178390 0.138892 0.287757
O O3 0.264221 0.105394 0.256205
O O4 0.221781 0.178270 0.000000
O O5 0.058040 0.419442 0.500000
O O6 0.072586 0.500000 0.215269
O O7 0.074091 0.345184 0.210359
O O8 0.000000 0.421332 0.242981
O O9 0.898265 0.271786 0.500000
O O10 0.887398 0.210400 0.194124
O O11 0.845225 0.344498 0.284812
O O12 0.913028 0.928542 0.274878
O O13 0.863142 0.906612 0.000000
O O14 0.500000 0.500000 0.721599
O O15 0.551368 0.500000 0.000000
O O16 0.172813 0.500000 0.284801
O O17 0.178752 0.584459 0.000000
#
# Coordination Sequence:
#
# PCOD9488904 Si02
#       6
#    16  16  16  16   8  16
#     4   9  16  30  52  78 105 137 184 231 268 317
#     4   8  15  29  48  69  95 130 172 214 250 295
#     4  11  21  33  52  79 110 142 179 220 273 334
#     4  10  20  36  58  80 106 141 181 228 281 333
#     4   9  20  38  61  89 115 141 183 243 306 355
#     4  10  20  33  52  79 111 145 185 229 273 324
#
# _framework density 22.822900000000001
#
# number of rings (size 3 to 8) (size 9 to 14) (size 15 to 20)
#    0.000    2.455    1.818    1.636    1.273    1.818 
#    0.000    2.273    0.000    2.182    0.000    6.364 
#    0.000    0.000    0.000    0.000    0.000    0.000 
#
# Total GULP energy -245107.524675 kJ/mol
# GULP energy per Si atom -5570.625561 kJ/mol
# Density = 2.277095 g / cm^3
# Si number density = 22.822900 Si / 1000 Ang^3
#
#
#
# Elastic Constant Matrix: (Units=GPa)
#
#
# Indices 1 2 3 4 5 6 
#
# 1 164.5030 82.2098 4.1491 0.0000 0.0000 0.0000
# 2 82.2098 174.4176 6.5161 0.0000 0.0000 0.0000
# 3 4.1491 6.5161 80.3180 0.0000 0.0000 0.0000
# 4 0.0000 0.0000 0.0000 14.7242 0.0000 0.0000
# 5 0.0000 0.0000 0.0000 0.0000 2.0687 0.0000
# 6 0.0000 0.0000 0.0000 0.0000 0.0000 40.9081
#
#
#
# Elastic Compliance Matrix: (Units=1/GPa)
#
#
# Indices 1 2 3 4 5 6 
#
# 1 0.007953 -0.003745 -0.000107 0.000000 0.000000 0.000000
# 2 -0.003745 0.007514 -0.000416 0.000000 0.000000 0.000000
# 3 -0.000107 -0.000416 0.012490 0.000000 0.000000 0.000000
# 4 0.000000 0.000000 0.000000 0.067916 0.000000 0.000000
# 5 0.000000 0.000000 0.000000 0.000000 0.483387 0.000000
# 6 0.000000 0.000000 0.000000 0.000000 0.000000 0.024445
#
#
# Mechanical properties :
#
#
# Convention : Reuss Voigt Hill
#
# Bulk Modulus (GPa) = 51.49031 67.22096 59.35564
# Shear Modulus (GPa) = 8.08129 33.29777 20.68953
#
# Velocity S-wave (km/s) = 1.88376 3.82378 3.01412
# Velocity P-wave (km/s) = 5.22888 7.00088 6.17873
#
# Compressibility (1/GPa) = 0.01942113
#
# Stress axis : x y z
#
# Youngs Moduli (GPa) = 125.73979 133.08750 80.06533
#
# Poissons Ratio (x) = 0.49835 0.00857
# Poissons Ratio (y) = 0.47084 0.03332
# Poissons Ratio (z) = 0.01346 0.05538
#
# Static dielectric constant tensor:
#      x y z
#    x 1.902800 0.000000 0.000000 
#    y 0.000000 1.867980 0.000000 
#    z 0.000000 0.000000 1.889980 
# 
# From -- ./inp_files/18279.got.cif
#   From: 2010.05.17/outbox.cif.g08.bks.cpg/sg65_10_cif.got.tgz:18279.got - 2010.06.03 17:01:31.
