data_PCOD9488465
_publ_section_title
;
Structure prediction by ZEFSAII (Michael W. Deem and Ramdas Pophale) SiO2 
 PCOD9488465
Probable space group: C M M M
;
_chemical_formula_sum "Si O2"
_cell_formula_units_Z 88
_cell_length_a 8.701194
_cell_length_b 19.156191
_cell_length_c 29.455143
_cell_angle_alpha 90.000000
_cell_angle_beta 90.000000
_cell_angle_gamma 90.000000
_cell_volume 4909.634316
_symmetry_space_group_name_H-M "C M M M"
_symmetry_group_IT_number 65
_symmetry_cell_setting 'orthorhombic'
loop_
_space_group_symop_operation_xyz
x,y,z
-x,-y,z
x,-y,-z
-x,y,-z
-x,-y,-z
x,y,-z
-x,y,z
x,-y,z
1/2+x,1/2+y,z
1/2-x,1/2-y,z
1/2+x,1/2-y,-z
1/2-x,1/2+y,-z
1/2-x,1/2-y,-z
1/2+x,1/2+y,-z
1/2-x,1/2+y,z
1/2+x,1/2-y,z
loop_
_atom_site_type_symbol
_atom_site_label
_atom_site_fract_x
_atom_site_fract_y
_atom_site_fract_z
Si Si1 0.314891 0.918179 0.581365
Si Si2 0.315097 0.919269 0.144475
Si Si3 0.687083 0.079941 0.315444
Si Si4 0.313629 0.827704 0.230584
Si Si5 0.317609 0.584177 0.049415
Si Si6 0.182337 0.172493 0.500000
O O1 0.500000 0.911319 0.578452
O O2 0.267104 0.901324 0.633159
O O3 0.239336 0.869524 0.544118
O O4 0.278950 0.000000 0.573238
O O5 0.500000 0.920599 0.144565
O O6 0.264231 0.872164 0.186563
O O7 0.260386 0.891230 0.095638
O O8 0.262245 0.000000 0.149826
O O9 0.500000 0.079540 0.315165
O O10 0.737635 0.132148 0.276201
O O11 0.735278 0.000000 0.306106
O O12 0.500000 0.825829 0.230709
O O13 0.250000 0.750000 0.229017
O O14 0.500000 0.596960 0.051892
O O15 0.296024 0.500000 0.048959
O O16 0.261497 0.610184 0.000000
O O17 0.250000 0.250000 0.500000
O O18 0.000000 0.176198 0.500000
#
# Coordination Sequence:
#
# PCOD9488465 Si02
#       6
#    16  16  16  16  16   8
#     4   9  18  35  59  83 106 134 169 208 252 304
#     4   9  17  29  47  70  94 123 160 200 238 280
#     4   8  15  31  56  80 100 128 166 204 242 289
#     4  10  20  33  49  71 100 131 163 199 241 289
#     4   8  14  25  42  66  95 123 151 189 240 292
#     4  12  25  38  53  75 107 143 177 214 255 298
#
# _framework density 17.923943000000001
#
# number of rings (size 3 to 8) (size 9 to 14) (size 15 to 20)
#    0.000    2.909    0.000    3.273    0.000    5.455 
#    0.000    4.545    0.000    3.273    0.000    0.000 
#    0.000    0.000    0.000    0.000    0.000    0.000 
#
# Total GULP energy -245235.834571 kJ/mol
# GULP energy per Si atom -5573.541695 kJ/mol
# Density = 1.788315 g / cm^3
# Si number density = 17.923943 Si / 1000 Ang^3
#
#
#
# Elastic Constant Matrix: (Units=GPa)
#
#
# Indices 1 2 3 4 5 6 
#
# 1 16.3933 30.8226 42.8815 0.0000 0.0000 0.0000
# 2 30.8226 103.2775 116.4029 0.0000 0.0000 0.0000
# 3 42.8815 116.4029 204.6781 0.0000 0.0000 0.0000
# 4 0.0000 0.0000 0.0000 -4.0047 0.0000 0.0000
# 5 0.0000 0.0000 0.0000 0.0000 13.5483 0.0000
# 6 0.0000 0.0000 0.0000 0.0000 0.0000 24.8705
#
#
#
# Elastic Compliance Matrix: (Units=1/GPa)
#
#
# Indices 1 2 3 4 5 6 
#
# 1 0.158923 -0.027583 -0.017608 0.000000 0.000000 0.000000
# 2 -0.027583 0.031758 -0.012282 0.000000 0.000000 0.000000
# 3 -0.017608 -0.012282 0.015560 0.000000 0.000000 0.000000
# 4 0.000000 0.000000 0.000000 -0.249704 0.000000 0.000000
# 5 0.000000 0.000000 0.000000 0.000000 0.073810 0.000000
# 6 0.000000 0.000000 0.000000 0.000000 0.000000 0.040208
#
#
# Mechanical properties :
#
#
# Convention : Reuss Voigt Hill
#
# Bulk Modulus (GPa) = 10.95378 78.28478 44.61928
# Shear Modulus (GPa) = 23.15520 15.83228 19.49374
#
# Velocity S-wave (km/s) = 3.59814 2.97527 3.30143
# Velocity P-wave (km/s) = 4.83598 7.45479 6.28333
#
# Compressibility (1/GPa) = 0.09129266
#
# Stress axis : x y z
#
# Youngs Moduli (GPa) = 6.29235 31.48824 64.26803
#
# Poissons Ratio (x) = 0.86855 1.13166
# Poissons Ratio (y) = 0.17356 0.78935
# Poissons Ratio (z) = 0.11080 0.38674
#
# Static dielectric constant tensor:
#      x y z
#    x 1.611720 0.000000 0.000000 
#    y 0.000000 1.583380 0.000000 
#    z 0.000000 0.000000 1.638880 
# 
# From -- ./inp_files/75346.got.cif
#   From: 2010.05.17/outbox.cif.g08.bks.cpg/sg65_38_cif.got.tgz:75346.got - 2010.06.03 17:01:31.
