data_PCOD9488029
_publ_section_title
;
Structure prediction by ZEFSAII (Michael W. Deem and Ramdas Pophale) SiO2 
 PCOD9488029
Probable space group: C M M M
;
_chemical_formula_sum "Si O2"
_cell_formula_units_Z 88
_cell_length_a 18.764951
_cell_length_b 7.889009
_cell_length_c 31.199917
_cell_angle_alpha 90.000000
_cell_angle_beta 90.000000
_cell_angle_gamma 90.000000
_cell_volume 4618.737973
_symmetry_space_group_name_H-M "C M M M"
_symmetry_group_IT_number 65
_symmetry_cell_setting 'orthorhombic'
loop_
_space_group_symop_operation_xyz
x,y,z
-x,-y,z
x,-y,-z
-x,y,-z
-x,-y,-z
x,y,-z
-x,y,z
x,-y,z
1/2+x,1/2+y,z
1/2-x,1/2-y,z
1/2+x,1/2-y,-z
1/2-x,1/2+y,-z
1/2-x,1/2-y,-z
1/2+x,1/2+y,-z
1/2-x,1/2+y,z
1/2+x,1/2-y,z
loop_
_atom_site_type_symbol
_atom_site_label
_atom_site_fract_x
_atom_site_fract_y
_atom_site_fract_z
Si Si1 0.169891 0.195347 0.187605
Si Si2 0.083638 0.000000 0.051260
Si Si3 0.333045 0.806482 0.095158
Si Si4 0.083414 0.795475 0.638352
Si Si5 0.418101 0.798793 0.730874
Si Si6 0.085669 0.795368 0.453925
O O1 0.329497 0.500000 0.174129
O O2 0.250000 0.250000 0.198472
O O3 0.146565 0.297721 0.145557
O O4 0.122745 0.218931 0.229496
O O5 0.121148 0.832311 0.070094
O O6 0.000000 0.000000 0.062463
O O7 0.090676 0.000000 0.000000
O O8 0.250000 0.750000 0.092945
O O9 0.340503 0.000000 0.079828
O O10 0.114047 0.737318 0.683747
O O11 0.113635 0.734854 0.592377
O O12 0.000000 0.741602 0.638794
O O13 0.084681 0.000000 0.638041
O O14 0.500000 0.736481 0.730623
O O15 0.418410 0.000000 0.737021
O O16 0.112932 0.729895 0.500000
O O17 0.000000 0.766027 0.453544
O O18 0.094464 0.000000 0.454385
#
# Coordination Sequence:
#
# PCOD9488029 Si02
#       6
#    16   8  16  16  16  16
#     4  11  21  37  60  84 113 145 184 234 283 333
#     4  11  26  46  66  98 139 171 209 263 315 361
#     4  11  21  42  69  96 126 165 214 258 305 365
#     4   8  13  22  36  55  83 119 160 208 259 313
#     4  10  20  32  46  70 103 140 180 218 266 328
#     4   7   9  14  27  48  73 105 149 200 253 308
#
# _framework density 19.052823
#
# number of rings (size 3 to 8) (size 9 to 14) (size 15 to 20)
#    0.000    2.455    1.818    4.909    0.000    2.909 
#    0.000    0.909    0.000    0.545    0.000    3.818 
#    0.000    0.727    0.000    2.000    0.000    5.091 
#
# Total GULP energy -245158.405063 kJ/mol
# GULP energy per Si atom -5571.781933 kJ/mol
# Density = 1.900946 g / cm^3
# Si number density = 19.052823 Si / 1000 Ang^3
#
#
#
# Elastic Constant Matrix: (Units=GPa)
#
#
# Indices 1 2 3 4 5 6 
#
# 1 39.3334 24.8254 53.7504 0.0000 0.0000 0.0000
# 2 24.8254 95.3763 34.6139 0.0000 0.0000 0.0000
# 3 53.7504 34.6139 117.3834 0.0000 0.0000 0.0000
# 4 0.0000 0.0000 0.0000 8.6546 0.0000 0.0000
# 5 0.0000 0.0000 0.0000 0.0000 27.6609 0.0000
# 6 0.0000 0.0000 0.0000 0.0000 0.0000 16.2611
#
#
#
# Elastic Compliance Matrix: (Units=1/GPa)
#
#
# Indices 1 2 3 4 5 6 
#
# 1 0.072596 -0.007650 -0.030986 0.000000 0.000000 0.000000
# 2 -0.007650 0.012548 -0.000197 0.000000 0.000000 0.000000
# 3 -0.030986 -0.000197 0.022766 0.000000 0.000000 0.000000
# 4 0.000000 0.000000 0.000000 0.115545 0.000000 0.000000
# 5 0.000000 0.000000 0.000000 0.000000 0.036152 0.000000
# 6 0.000000 0.000000 0.000000 0.000000 0.000000 0.061496
#
#
# Mechanical properties :
#
#
# Convention : Reuss Voigt Hill
#
# Bulk Modulus (GPa) = 33.06600 53.16363 43.11481
# Shear Modulus (GPa) = 12.22941 19.77554 16.00248
#
# Velocity S-wave (km/s) = 2.53626 3.22519 2.90125
# Velocity P-wave (km/s) = 5.09602 6.46784 5.82247
#
# Compressibility (1/GPa) = 0.03024255
#
# Stress axis : x y z
#
# Youngs Moduli (GPa) = 13.77488 79.69679 43.92556
#
# Poissons Ratio (x) = 0.60972 1.36108
# Poissons Ratio (y) = 0.10538 0.00865
# Poissons Ratio (z) = 0.42683 0.01569
#
# Static dielectric constant tensor:
#      x y z
#    x 1.649630 0.000000 0.000000 
#    y 0.000000 1.685300 0.000000 
#    z 0.000000 0.000000 1.710640 
# 
# From -- ./inp_files/77971.got.cif
#   From: 2010.05.17/outbox.cif.g08.bks.cpg/sg65_39_cif.got.tgz:77971.got - 2010.06.03 17:01:31.
