data_PCOD9488883
_publ_section_title
;
Structure prediction by ZEFSAII (Michael W. Deem and Ramdas Pophale) SiO2 
 PCOD9488883
Probable space group: C M M M
;
_chemical_formula_sum "Si O2"
_cell_formula_units_Z 88
_cell_length_a 15.111318
_cell_length_b 20.167200
_cell_length_c 14.647149
_cell_angle_alpha 90.000000
_cell_angle_beta 90.000000
_cell_angle_gamma 90.000000
_cell_volume 4463.762194
_symmetry_space_group_name_H-M "C M M M"
_symmetry_group_IT_number 65
_symmetry_cell_setting 'orthorhombic'
loop_
_space_group_symop_operation_xyz
x,y,z
-x,-y,z
x,-y,-z
-x,y,-z
-x,-y,-z
x,y,-z
-x,y,z
x,-y,z
1/2+x,1/2+y,z
1/2-x,1/2-y,z
1/2+x,1/2-y,-z
1/2-x,1/2+y,-z
1/2-x,1/2-y,-z
1/2+x,1/2+y,-z
1/2-x,1/2+y,z
1/2+x,1/2-y,z
loop_
_atom_site_type_symbol
_atom_site_label
_atom_site_fract_x
_atom_site_fract_y
_atom_site_fract_z
Si Si1 0.102028 0.392007 0.901108
Si Si2 0.892200 0.000000 0.896248
Si Si3 0.603384 0.621251 0.232231
Si Si4 0.100110 0.422300 0.298837
Si Si5 0.855300 0.760878 0.899002
Si Si6 0.226503 0.080543 0.394660
O O1 0.137628 0.416371 0.804511
O O2 0.103894 0.312308 0.895298
O O3 0.000000 0.414985 0.902791
O O4 0.142465 0.410287 0.000000
O O5 0.865884 0.935130 0.839486
O O6 0.000000 0.000000 0.899881
O O7 0.859614 0.000000 0.000000
O O8 0.500000 0.609921 0.251795
O O9 0.614656 0.690854 0.180583
O O10 0.659571 0.613413 0.323636
O O11 0.091426 0.500000 0.318579
O O12 0.174400 0.396479 0.367223
O O13 0.000000 0.393470 0.302786
O O14 0.750000 0.750000 0.893699
O O15 0.876435 0.789367 0.000000
O O16 0.207553 0.095184 0.500000
O O17 0.221840 0.000000 0.383168
#
# Coordination Sequence:
#
# PCOD9488883 Si02
#       6
#    16   8  16  16  16  16
#     4   9  17  30  49  75 107 141 176 214 262 327
#     4   9  18  32  51  79 114 147 181 223 271 327
#     4  11  21  35  56  82 113 150 189 229 279 335
#     4   9  18  33  55  81 109 143 186 235 288 341
#     4  10  20  33  52  78 110 148 188 225 266 324
#     4  10  21  37  56  78 108 142 183 240 294 340
#
# _framework density 19.714312
#
# number of rings (size 3 to 8) (size 9 to 14) (size 15 to 20)
#    0.000    2.273    0.909    2.182    0.000    2.909 
#    0.000    5.455    0.000    4.909    0.000    5.091 
#    0.000    0.000    0.000    0.000    0.000    0.000 
#
# Total GULP energy -245468.427504 kJ/mol
# GULP energy per Si atom -5578.827898 kJ/mol
# Density = 1.966944 g / cm^3
# Si number density = 19.714312 Si / 1000 Ang^3
#
#
#
# Elastic Constant Matrix: (Units=GPa)
#
#
# Indices 1 2 3 4 5 6 
#
# 1 84.4778 13.6294 55.9058 0.0000 0.0000 0.0000
# 2 13.6294 29.5745 17.3112 0.0000 0.0000 0.0000
# 3 55.9058 17.3112 140.4026 0.0000 0.0000 0.0000
# 4 0.0000 0.0000 0.0000 17.0728 0.0000 0.0000
# 5 0.0000 0.0000 0.0000 0.0000 17.7617 0.0000
# 6 0.0000 0.0000 0.0000 0.0000 0.0000 12.9822
#
#
#
# Elastic Compliance Matrix: (Units=1/GPa)
#
#
# Indices 1 2 3 4 5 6 
#
# 1 0.016512 -0.004053 -0.006075 0.000000 0.000000 0.000000
# 2 -0.004053 0.037438 -0.003002 0.000000 0.000000 0.000000
# 3 -0.006075 -0.003002 0.009911 0.000000 0.000000 0.000000
# 4 0.000000 0.000000 0.000000 0.058573 0.000000 0.000000
# 5 0.000000 0.000000 0.000000 0.000000 0.056301 0.000000
# 6 0.000000 0.000000 0.000000 0.000000 0.000000 0.077029
#
#
# Mechanical properties :
#
#
# Convention : Reuss Voigt Hill
#
# Bulk Modulus (GPa) = 26.59537 47.57195 37.08366
# Shear Modulus (GPa) = 16.97462 20.73725 18.85594
#
# Velocity S-wave (km/s) = 2.93752 3.24680 3.09602
# Velocity P-wave (km/s) = 5.00250 6.18374 5.62422
#
# Compressibility (1/GPa) = 0.03760052
#
# Stress axis : x y z
#
# Youngs Moduli (GPa) = 60.56336 26.71075 100.89388
#
# Poissons Ratio (x) = 0.10827 0.61292
# Poissons Ratio (y) = 0.24549 0.30288
# Poissons Ratio (z) = 0.36791 0.08018
#
# Static dielectric constant tensor:
#      x y z
#    x 1.731170 0.000000 0.000000 
#    y 0.000000 1.683220 0.000000 
#    z 0.000000 0.000000 1.687220 
# 
# From -- ./inp_files/40217.got.cif
#   From: 2010.05.17/outbox.cif.g08.bks.cpg/sg65_21_cif.got.tgz:40217.got - 2010.06.03 17:01:31.
