data_PCOD9488548
_publ_section_title
;
Structure prediction by ZEFSAII (Michael W. Deem and Ramdas Pophale) SiO2 
 PCOD9488548
Probable space group: C M M M
;
_chemical_formula_sum "Si O2"
_cell_formula_units_Z 116
_cell_length_a 7.520097
_cell_length_b 26.179865
_cell_length_c 26.268511
_cell_angle_alpha 90.000000
_cell_angle_beta 90.000000
_cell_angle_gamma 90.000000
_cell_volume 5171.616367
_symmetry_space_group_name_H-M "C M M M"
_symmetry_group_IT_number 65
_symmetry_cell_setting 'orthorhombic'
loop_
_space_group_symop_operation_xyz
x,y,z
-x,-y,z
x,-y,-z
-x,y,-z
-x,-y,-z
x,y,-z
-x,y,z
x,-y,z
1/2+x,1/2+y,z
1/2-x,1/2-y,z
1/2+x,1/2-y,-z
1/2-x,1/2+y,-z
1/2-x,1/2-y,-z
1/2+x,1/2+y,-z
1/2-x,1/2+y,z
1/2+x,1/2-y,z
loop_
_atom_site_type_symbol
_atom_site_label
_atom_site_fract_x
_atom_site_fract_y
_atom_site_fract_z
Si Si1 0.211492 0.080257 0.559211
Si Si2 0.702749 0.413094 0.835991
Si Si3 0.711205 0.806026 0.201464
Si Si4 0.000000 0.500000 0.403870
Si Si5 0.696099 0.692929 0.423357
Si Si6 0.284353 0.443754 0.276161
Si Si7 0.290346 0.438787 0.054745
Si Si8 0.292787 0.832715 0.313131
O O1 0.218401 0.064021 0.500000
O O2 0.342266 0.044312 0.590453
O O3 0.281638 0.138963 0.561539
O O4 0.000000 0.077912 0.575298
O O5 0.500000 0.433096 0.838295
O O6 0.703150 0.352408 0.828471
O O7 0.776361 0.435322 0.782793
O O8 0.788010 0.423806 0.890622
O O9 0.500000 0.815062 0.202174
O O10 0.750000 0.750000 0.181367
O O11 0.776037 0.810377 0.259837
O O12 0.500000 0.687161 0.443725
O O13 0.750000 0.750000 0.438054
O O14 0.698705 0.689476 0.362110
O O15 0.500000 0.443142 0.276383
O O16 0.223344 0.500000 0.293535
O O17 0.225669 0.394039 0.307200
O O18 0.500000 0.423804 0.055365
O O19 0.283468 0.500000 0.053685
O O20 0.216909 0.420483 0.000000
O O21 0.500000 0.820053 0.318429
#
# Coordination Sequence:
#
# PCOD9488548 Si02
#       8
#    16  16  16   4  16  16  16  16
#     4  10  23  43  67 100 134 166 210 261 311 364
#     4   9  16  27  46  70  96 128 164 205 255 310
#     4  10  20  33  50  72  95 125 166 214 263 313
#     4  12  23  42  76 102 130 172 214 260 310 374
#     4  11  24  41  63  89 123 162 200 248 301 357
#     4   9  17  30  48  71 103 140 179 222 270 327
#     4   8  13  22  40  69 100 126 157 197 240 292
#     4  10  21  36  54  77 107 143 185 228 278 336
#
# _framework density 22.430126000000001
#
# number of rings (size 3 to 8) (size 9 to 14) (size 15 to 20)
#    0.000    2.345    0.000    3.310    1.931    5.517 
#    1.241    0.000    0.000    2.069    0.000    0.966 
#    0.000    0.000    0.000    0.000    0.000    0.000 
#
# Total GULP energy -323305.943291 kJ/mol
# GULP energy per Si atom -5574.240402 kJ/mol
# Density = 2.237907 g / cm^3
# Si number density = 22.430126 Si / 1000 Ang^3
#
#
#
# Elastic Constant Matrix: (Units=GPa)
#
#
# Indices 1 2 3 4 5 6 
#
# 1 85.9587 10.9447 9.0429 0.0000 0.0000 0.0000
# 2 10.9447 147.5180 13.7099 0.0000 0.0000 0.0000
# 3 9.0429 13.7099 102.6231 0.0000 0.0000 0.0000
# 4 0.0000 0.0000 0.0000 257.4217 0.0000 0.0000
# 5 0.0000 0.0000 0.0000 0.0000 -4.9358 0.0000
# 6 0.0000 0.0000 0.0000 0.0000 0.0000 0.0674
#
#
#
# Elastic Compliance Matrix: (Units=1/GPa)
#
#
# Indices 1 2 3 4 5 6 
#
# 1 0.011833 -0.000791 -0.000937 0.000000 0.000000 0.000000
# 2 -0.000791 0.006917 -0.000854 0.000000 0.000000 0.000000
# 3 -0.000937 -0.000854 0.009941 0.000000 0.000000 0.000000
# 4 0.000000 0.000000 0.000000 0.003885 0.000000 0.000000
# 5 0.000000 0.000000 0.000000 0.000000 -0.202601 0.000000
# 6 0.000000 0.000000 0.000000 0.000000 0.000000 14.846396
#
#
# Mechanical properties :
#
#
# Convention : Reuss Voigt Hill
#
# Bulk Modulus (GPa) = 42.50555 44.83275 43.66915
# Shear Modulus (GPa) = 0.34038 70.67080 35.50559
#
# Velocity S-wave (km/s) = 0.38998 5.61921 3.98294
# Velocity P-wave (km/s) = 4.38111 7.88237 6.37675
#
# Compressibility (1/GPa) = 0.02352634
#
# Stress axis : x y z
#
# Youngs Moduli (GPa) = 84.51116 144.57326 100.59245
#
# Poissons Ratio (x) = 0.11433 0.09426
# Poissons Ratio (y) = 0.06683 0.08594
# Poissons Ratio (z) = 0.07919 0.12352
#
# Static dielectric constant tensor:
#      x y z
#    x 1.933640 0.000000 0.000000 
#    y 0.000000 1.843130 0.000000 
#    z 0.000000 0.000000 1.880250 
# 
# From -- ./inp_files/73685.got.cif
#   From: 2010.05.17/outbox.cif.g08.bks.cpg/sg65_37_cif.got.tgz:73685.got - 2010.06.03 17:01:31.
