data_PCOD9488249
_publ_section_title
;
Structure prediction by ZEFSAII (Michael W. Deem and Ramdas Pophale) SiO2 
 PCOD9488249
Probable space group: C M M M
;
_chemical_formula_sum "Si O2"
_cell_formula_units_Z 88
_cell_length_a 28.072675
_cell_length_b 8.317213
_cell_length_c 17.750480
_cell_angle_alpha 90.000000
_cell_angle_beta 90.000000
_cell_angle_gamma 90.000000
_cell_volume 4144.495983
_symmetry_space_group_name_H-M "C M M M"
_symmetry_group_IT_number 65
_symmetry_cell_setting 'orthorhombic'
loop_
_space_group_symop_operation_xyz
x,y,z
-x,-y,z
x,-y,-z
-x,y,-z
-x,-y,-z
x,y,-z
-x,y,z
x,-y,z
1/2+x,1/2+y,z
1/2-x,1/2-y,z
1/2+x,1/2-y,-z
1/2-x,1/2+y,-z
1/2-x,1/2-y,-z
1/2+x,1/2+y,-z
1/2-x,1/2+y,z
1/2+x,1/2-y,z
loop_
_atom_site_type_symbol
_atom_site_label
_atom_site_fract_x
_atom_site_fract_y
_atom_site_fract_z
Si Si1 0.116481 0.317159 0.142659
Si Si2 0.556954 0.676428 0.262984
Si Si3 0.057724 0.315915 0.417573
Si Si4 0.695556 0.807172 0.253499
Si Si5 0.805023 0.807121 0.582818
Si Si6 0.556007 0.197683 0.000000
O O1 0.128594 0.500000 0.121044
O O2 0.079082 0.311328 0.211047
O O3 0.163204 0.245437 0.183738
O O4 0.086899 0.247776 0.072408
O O5 0.500000 0.682920 0.258590
O O6 0.572743 0.500000 0.236895
O O7 0.571213 0.704242 0.349022
O O8 0.071124 0.255894 0.500000
O O9 0.074579 0.500000 0.407766
O O10 0.000000 0.323615 0.416465
O O11 0.750000 0.750000 0.246506
O O12 0.676708 0.756009 0.336487
O O13 0.694325 0.000000 0.251753
O O14 0.823998 0.753380 0.500000
O O15 0.750000 0.750000 0.582768
O O16 0.806940 0.000000 0.584888
O O17 0.500000 0.248740 0.000000
O O18 0.554376 0.000000 0.000000
#
# Coordination Sequence:
#
# PCOD9488249 Si02
#       6
#    16  16  16  16  16   8
#     4  10  21  37  58  83 107 137 180 225 271 327
#     4  10  20  32  49  76 108 140 173 214 268 326
#     4   8  14  26  45  68  96 135 181 223 262 308
#     4  10  20  34  54  80 111 147 186 228 274 325
#     4   9  16  27  47  75 106 143 187 231 274 319
#     4   9  18  36  64  91 111 135 173 225 278 327
#
# _framework density 21.232980000000001
#
# number of rings (size 3 to 8) (size 9 to 14) (size 15 to 20)
#    0.000    2.636    0.000    3.818    0.000    4.727 
#    0.000    3.636    0.000    2.727    0.000    0.000 
#    0.000    0.000    0.000    0.000    0.000    0.000 
#
# Total GULP energy -245210.921095 kJ/mol
# GULP energy per Si atom -5572.975479 kJ/mol
# Density = 2.118465 g / cm^3
# Si number density = 21.232980 Si / 1000 Ang^3
#
#
#
# Elastic Constant Matrix: (Units=GPa)
#
#
# Indices 1 2 3 4 5 6 
#
# 1 124.5737 13.8760 57.0110 0.0000 0.0000 0.0000
# 2 13.8760 28.9059 13.2990 0.0000 0.0000 0.0000
# 3 57.0110 13.2990 152.0520 0.0000 0.0000 0.0000
# 4 0.0000 0.0000 0.0000 7.5476 0.0000 0.0000
# 5 0.0000 0.0000 0.0000 0.0000 50.6194 0.0000
# 6 0.0000 0.0000 0.0000 0.0000 0.0000 10.0267
#
#
#
# Elastic Compliance Matrix: (Units=1/GPa)
#
#
# Indices 1 2 3 4 5 6 
#
# 1 0.009965 -0.003193 -0.003457 0.000000 0.000000 0.000000
# 2 -0.003193 0.037069 -0.002045 0.000000 0.000000 0.000000
# 3 -0.003457 -0.002045 0.008052 0.000000 0.000000 0.000000
# 4 0.000000 0.000000 0.000000 0.132493 0.000000 0.000000
# 5 0.000000 0.000000 0.000000 0.000000 0.019755 0.000000
# 6 0.000000 0.000000 0.000000 0.000000 0.000000 0.099733
#
#
# Mechanical properties :
#
#
# Convention : Reuss Voigt Hill
#
# Bulk Modulus (GPa) = 26.52848 52.65597 39.59223
# Shear Modulus (GPa) = 14.83579 28.39512 21.61545
#
# Velocity S-wave (km/s) = 2.64619 3.66089 3.19409
# Velocity P-wave (km/s) = 4.67520 6.53625 5.68243
#
# Compressibility (1/GPa) = 0.03769533
#
# Stress axis : x y z
#
# Youngs Moduli (GPa) = 100.34925 26.97693 124.19629
#
# Poissons Ratio (x) = 0.08614 0.42936
# Poissons Ratio (y) = 0.32043 0.25397
# Poissons Ratio (z) = 0.34692 0.05516
#
# Static dielectric constant tensor:
#      x y z
#    x 1.876420 0.000000 0.000000 
#    y 0.000000 1.801630 0.000000 
#    z 0.000000 0.000000 1.763720 
# 
# From -- ./inp_files/58035.got.cif
#   From: 2010.05.17/outbox.cif.g08.bks.cpg/sg65_30_cif.got.tgz:58035.got - 2010.06.03 17:01:31.
