data_PCOD9488717
_publ_section_title
;
Structure prediction by ZEFSAII (Michael W. Deem and Ramdas Pophale) SiO2 
 PCOD9488717
Probable space group: C M M M
;
_chemical_formula_sum "Si O2"
_cell_formula_units_Z 96
_cell_length_a 20.901664
_cell_length_b 8.724826
_cell_length_c 30.373886
_cell_angle_alpha 90.000000
_cell_angle_beta 90.000000
_cell_angle_gamma 90.000000
_cell_volume 5539.084561
_symmetry_space_group_name_H-M "C M M M"
_symmetry_group_IT_number 65
_symmetry_cell_setting 'orthorhombic'
loop_
_space_group_symop_operation_xyz
x,y,z
-x,-y,z
x,-y,-z
-x,y,-z
-x,-y,-z
x,y,-z
-x,y,z
x,-y,z
1/2+x,1/2+y,z
1/2-x,1/2-y,z
1/2+x,1/2-y,-z
1/2-x,1/2+y,-z
1/2-x,1/2-y,-z
1/2+x,1/2+y,-z
1/2-x,1/2+y,z
1/2+x,1/2-y,z
loop_
_atom_site_type_symbol
_atom_site_label
_atom_site_fract_x
_atom_site_fract_y
_atom_site_fract_z
Si Si1 0.926820 0.815218 0.948903
Si Si2 0.181030 0.183332 0.551098
Si Si3 0.572431 0.813304 0.284002
Si Si4 0.926298 0.684897 0.614697
Si Si5 0.180781 0.685095 0.783510
Si Si6 0.819385 0.683415 0.885336
O O1 0.874869 0.743695 0.916828
O O2 0.000000 0.770170 0.937891
O O3 0.923374 0.000000 0.946252
O O4 0.915138 0.772800 0.000000
O O5 0.170306 0.229171 0.500000
O O6 0.250000 0.250000 0.564617
O O7 0.124618 0.244033 0.581775
O O8 0.183623 0.000000 0.553091
O O9 0.500000 0.763984 0.273078
O O10 0.586442 0.769245 0.334506
O O11 0.625317 0.761002 0.249348
O O12 0.572319 0.000000 0.283185
O O13 0.922221 0.500000 0.612502
O O14 0.000000 0.727338 0.604420
O O15 0.183218 0.500000 0.781841
O O16 0.250000 0.750000 0.770914
O O17 0.168317 0.729217 0.834363
O O18 0.816694 0.500000 0.887275
O O19 0.750000 0.750000 0.897846
#
# Coordination Sequence:
#
# PCOD9488717 Si02
#       6
#    16  16  16  16  16  16
#     4   9  19  36  55  74  99 131 164 201 249 301
#     4  10  21  36  53  73  99 131 166 206 251 297
#     4   8  15  30  51  73  98 129 164 200 239 286
#     4   9  18  33  53  76 102 133 167 202 243 293
#     4   9  18  32  50  72  99 130 163 201 243 288
#     4  10  20  33  51  75 102 133 168 206 247 291
#
# _framework density 17.331382999999999
#
# number of rings (size 3 to 8) (size 9 to 14) (size 15 to 20)
#    0.000    2.833    0.000    2.500    0.000    4.667 
#    0.000    6.667    0.000    1.500    0.000    0.000 
#    0.000    0.000    0.000    0.000    0.000    0.000 
#
# Total GULP energy -267655.026441 kJ/mol
# GULP energy per Si atom -5576.146384 kJ/mol
# Density = 1.729194 g / cm^3
# Si number density = 17.331383 Si / 1000 Ang^3
#
#
#
# Elastic Constant Matrix: (Units=GPa)
#
#
# Indices 1 2 3 4 5 6 
#
# 1 187.3737 43.1333 129.7599 0.0000 0.0000 0.0000
# 2 43.1333 19.8508 33.2341 0.0000 0.0000 0.0000
# 3 129.7599 33.2341 110.3809 0.0000 0.0000 0.0000
# 4 0.0000 0.0000 0.0000 19.8893 0.0000 0.0000
# 5 0.0000 0.0000 0.0000 0.0000 43.4804 0.0000
# 6 0.0000 0.0000 0.0000 0.0000 0.0000 31.8872
#
#
#
# Elastic Compliance Matrix: (Units=1/GPa)
#
#
# Indices 1 2 3 4 5 6 
#
# 1 0.030162 -0.012453 -0.031708 0.000000 0.000000 0.000000
# 2 -0.012453 0.106721 -0.017493 0.000000 0.000000 0.000000
# 3 -0.031708 -0.017493 0.051601 0.000000 0.000000 0.000000
# 4 0.000000 0.000000 0.000000 0.050278 0.000000 0.000000
# 5 0.000000 0.000000 0.000000 0.000000 0.022999 0.000000
# 6 0.000000 0.000000 0.000000 0.000000 0.000000 0.031361
#
#
# Mechanical properties :
#
#
# Convention : Reuss Voigt Hill
#
# Bulk Modulus (GPa) = 15.34294 81.09555 48.21924
# Shear Modulus (GPa) = 11.41151 26.48326 18.94739
#
# Velocity S-wave (km/s) = 2.56877 3.91327 3.31001
# Velocity P-wave (km/s) = 4.20358 8.20433 6.51848
#
# Compressibility (1/GPa) = 0.06517655
#
# Stress axis : x y z
#
# Youngs Moduli (GPa) = 33.15450 9.37023 19.37954
#
# Poissons Ratio (x) = 0.11669 0.61448
# Poissons Ratio (y) = 0.41287 0.33900
# Poissons Ratio (z) = 1.05125 0.16391
#
# Static dielectric constant tensor:
#      x y z
#    x 1.562030 0.000000 0.000000 
#    y 0.000000 1.587250 0.000000 
#    z 0.000000 0.000000 1.580390 
# 
# From -- ./inp_files/73104.got.cif
#   From: 2010.05.17/outbox.cif.g08.bks.cpg/sg65_37_cif.got.tgz:73104.got - 2010.06.03 17:01:31.
