data_PCOD9488742
_publ_section_title
;
Structure prediction by ZEFSAII (Michael W. Deem and Ramdas Pophale) SiO2 
 PCOD9488742
Probable space group: C M M M
;
_chemical_formula_sum "Si O2"
_cell_formula_units_Z 88
_cell_length_a 15.799994
_cell_length_b 21.308619
_cell_length_c 13.284466
_cell_angle_alpha 90.000000
_cell_angle_beta 90.000000
_cell_angle_gamma 90.000000
_cell_volume 4472.561570
_symmetry_space_group_name_H-M "C M M M"
_symmetry_group_IT_number 65
_symmetry_cell_setting 'orthorhombic'
loop_
_space_group_symop_operation_xyz
x,y,z
-x,-y,z
x,-y,-z
-x,y,-z
-x,-y,-z
x,y,-z
-x,y,z
x,-y,z
1/2+x,1/2+y,z
1/2-x,1/2-y,z
1/2+x,1/2-y,-z
1/2-x,1/2+y,-z
1/2-x,1/2-y,-z
1/2+x,1/2+y,-z
1/2-x,1/2+y,z
1/2+x,1/2-y,z
loop_
_atom_site_type_symbol
_atom_site_label
_atom_site_fract_x
_atom_site_fract_y
_atom_site_fract_z
Si Si1 0.139356 0.075934 0.613074
Si Si2 0.275330 0.892456 0.112454
Si Si3 0.093242 0.857412 0.815193
Si Si4 0.177560 0.429533 0.326811
Si Si5 0.404653 0.221327 0.883596
Si Si6 0.000000 0.572486 0.620090
O O1 0.108466 0.088310 0.500000
O O2 0.095893 0.111414 0.704961
O O3 0.238034 0.096368 0.622361
O O4 0.135332 0.000000 0.629146
O O5 0.174918 0.882401 0.125294
O O6 0.304495 0.931967 0.208141
O O7 0.329089 0.828143 0.126127
O O8 0.293813 0.916013 0.000000
O O9 0.103620 0.782099 0.813966
O O10 0.000000 0.870017 0.859860
O O11 0.169597 0.500000 0.369031
O O12 0.087875 0.397147 0.345371
O O13 0.500000 0.193943 0.870003
O O14 0.400957 0.244234 0.000000
O O15 0.000000 0.500000 0.660322
O O16 0.000000 0.570309 0.500000
#
# Coordination Sequence:
#
# PCOD9488742 Si02
#       6
#    16  16  16  16  16   8
#     4   9  18  34  55  77 102 132 168 210 257 310
#     4  10  20  33  52  75 103 139 175 212 253 304
#     4  10  20  33  51  76 101 130 169 218 258 297
#     4   9  18  31  49  76 107 137 169 210 256 305
#     4   9  18  33  54  77  99 129 172 214 252 301
#     4   9  16  28  49  73  97 131 172 208 246 297
#
# _framework density 19.675526000000001
#
# number of rings (size 3 to 8) (size 9 to 14) (size 15 to 20)
#    0.000    2.636    0.000    1.636    1.273    5.818 
#    0.000    0.909    0.000   13.091    0.000   10.182 
#    0.000    0.000    0.000    0.000    0.000    0.000 
#
# Total GULP energy -245046.563576 kJ/mol
# GULP energy per Si atom -5569.240081 kJ/mol
# Density = 1.963074 g / cm^3
# Si number density = 19.675526 Si / 1000 Ang^3
#
#
#
# Elastic Constant Matrix: (Units=GPa)
#
#
# Indices 1 2 3 4 5 6 
#
# 1 130.3150 16.5455 21.2001 0.0000 0.0000 0.0000
# 2 16.5455 41.9768 28.2535 0.0000 0.0000 0.0000
# 3 21.2001 28.2535 97.9626 0.0000 0.0000 0.0000
# 4 0.0000 0.0000 0.0000 -325.9463 0.0000 0.0000
# 5 0.0000 0.0000 0.0000 0.0000 9.0511 0.0000
# 6 0.0000 0.0000 0.0000 0.0000 0.0000 8.2962
#
#
#
# Elastic Compliance Matrix: (Units=1/GPa)
#
#
# Indices 1 2 3 4 5 6 
#
# 1 0.008163 -0.002517 -0.001041 0.000000 0.000000 0.000000
# 2 -0.002517 0.030337 -0.008205 0.000000 0.000000 0.000000
# 3 -0.001041 -0.008205 0.012800 0.000000 0.000000 0.000000
# 4 0.000000 0.000000 0.000000 -0.003068 0.000000 0.000000
# 5 0.000000 0.000000 0.000000 0.000000 0.110483 0.000000
# 6 0.000000 0.000000 0.000000 0.000000 0.000000 0.120537
#
#
# Mechanical properties :
#
#
# Convention : Reuss Voigt Hill
#
# Bulk Modulus (GPa) = 36.00418 44.69473 40.34946
# Shear Modulus (GPa) = 16.02386 -48.10278 -16.03946
#
# Velocity S-wave (km/s) = 2.85688 -4.94986 -2.85827
# Velocity P-wave (km/s) = 5.40565 3.14689 3.10790
#
# Compressibility (1/GPa) = 0.02777455
#
# Stress axis : x y z
#
# Youngs Moduli (GPa) = 122.51052 32.96270 78.12776
#
# Poissons Ratio (x) = 0.08297 0.08129
# Poissons Ratio (y) = 0.30836 0.64103
# Poissons Ratio (z) = 0.12748 0.27046
#
# Static dielectric constant tensor:
#      x y z
#    x 1.765920 0.000000 0.000000 
#    y 0.000000 1.680880 0.000000 
#    z 0.000000 0.000000 1.684390 
# 
# From -- ./inp_files/25127.got.cif
#   From: 2010.05.17/outbox.cif.g08.bks.cpg/sg65_13_cif.got.tgz:25127.got - 2010.06.03 17:01:31.
