data_PCOD9488306
_publ_section_title
;
Structure prediction by ZEFSAII (Michael W. Deem and Ramdas Pophale) SiO2 
 PCOD9488306
Probable space group: C M M M
;
_chemical_formula_sum "Si O2"
_cell_formula_units_Z 80
_cell_length_a 18.141535
_cell_length_b 7.779755
_cell_length_c 30.414159
_cell_angle_alpha 90.000000
_cell_angle_beta 90.000000
_cell_angle_gamma 90.000000
_cell_volume 4292.553962
_symmetry_space_group_name_H-M "C M M M"
_symmetry_group_IT_number 65
_symmetry_cell_setting 'orthorhombic'
loop_
_space_group_symop_operation_xyz
x,y,z
-x,-y,z
x,-y,-z
-x,y,-z
-x,-y,-z
x,y,-z
-x,y,z
x,-y,z
1/2+x,1/2+y,z
1/2-x,1/2-y,z
1/2+x,1/2-y,-z
1/2-x,1/2+y,-z
1/2-x,1/2-y,-z
1/2+x,1/2+y,-z
1/2-x,1/2+y,z
1/2+x,1/2-y,z
loop_
_atom_site_type_symbol
_atom_site_label
_atom_site_fract_x
_atom_site_fract_y
_atom_site_fract_z
Si Si1 0.588796 0.798787 0.820711
Si Si2 0.335780 0.793839 0.088694
Si Si3 0.588127 0.806290 0.409436
Si Si4 0.914701 0.710660 0.000000
Si Si5 0.335886 0.295392 0.500000
Si Si6 0.589671 0.500000 0.754624
Si Si7 0.910151 0.000000 0.345818
O O1 0.500000 0.791012 0.825270
O O2 0.625064 0.737772 0.866332
O O3 0.611307 0.670205 0.781770
O O4 0.608010 0.000000 0.812770
O O5 0.250000 0.750000 0.088879
O O6 0.343610 0.000000 0.088129
O O7 0.374323 0.728947 0.044248
O O8 0.500000 0.786045 0.415808
O O9 0.626705 0.776730 0.456057
O O10 0.612511 0.666549 0.373754
O O11 0.602151 0.000000 0.394088
O O12 0.912504 0.500000 0.000000
O O13 0.000000 0.760822 0.000000
O O14 0.345595 0.500000 0.500000
O O15 0.250000 0.250000 0.500000
O O16 0.500000 0.500000 0.753459
O O17 0.615865 0.500000 0.704385
O O18 0.000000 0.000000 0.344497
#
# Coordination Sequence:
#
# PCOD9488306 Si02
#       7
#    16  16  16   8   8   8   8
#     4   9  18  33  53  78 105 137 179 223 270 320
#     4  10  20  32  51  77 103 140 175 217 265 321
#     4  10  20  35  56  83 115 148 186 230 274 325
#     4   9  17  32  53  75 104 139 176 214 261 323
#     4  12  23  36  55  82 113 152 189 231 270 328
#     4   9  18  32  55  83 109 137 176 229 278 320
#     4   9  18  33  54  83 111 142 179 223 284 330
#
# _framework density 18.636922999999999
#
# number of rings (size 3 to 8) (size 9 to 14) (size 15 to 20)
#    0.000    2.300    1.000    2.100    1.400    4.400 
#    0.000    4.000    0.000    1.800    0.000    0.000 
#    0.000    0.000    0.000    0.000    0.000    0.000 
#
# Total GULP energy -223253.811708 kJ/mol
# GULP energy per Si atom -5581.345293 kJ/mol
# Density = 1.859450 g / cm^3
# Si number density = 18.636923 Si / 1000 Ang^3
#
#
#
# Elastic Constant Matrix: (Units=GPa)
#
#
# Indices 1 2 3 4 5 6 
#
# 1 44.9387 35.1710 54.2800 0.0000 0.0000 0.0000
# 2 35.1710 105.8583 84.4793 0.0000 0.0000 0.0000
# 3 54.2800 84.4793 207.3035 0.0000 0.0000 0.0000
# 4 0.0000 0.0000 0.0000 5.4617 0.0000 0.0000
# 5 0.0000 0.0000 0.0000 0.0000 -10.5269 0.0000
# 6 0.0000 0.0000 0.0000 0.0000 0.0000 20.8808
#
#
#
# Elastic Compliance Matrix: (Units=1/GPa)
#
#
# Indices 1 2 3 4 5 6 
#
# 1 0.035284 -0.006447 -0.006612 0.000000 0.000000 0.000000
# 2 -0.006447 0.015177 -0.004497 0.000000 0.000000 0.000000
# 3 -0.006612 -0.004497 0.008388 0.000000 0.000000 0.000000
# 4 0.000000 0.000000 0.000000 0.183094 0.000000 0.000000
# 5 0.000000 0.000000 0.000000 0.000000 -0.094995 0.000000
# 6 0.000000 0.000000 0.000000 0.000000 0.000000 0.047891
#
#
# Mechanical properties :
#
#
# Convention : Reuss Voigt Hill
#
# Bulk Modulus (GPa) = 42.12596 78.44013 60.28305
# Shear Modulus (GPa) = 21.02062 15.44113 18.23088
#
# Velocity S-wave (km/s) = 3.36207 2.88153 3.13103
# Velocity P-wave (km/s) = 6.14198 7.29732 6.74443
#
# Compressibility (1/GPa) = 0.02373833
#
# Stress axis : x y z
#
# Youngs Moduli (GPa) = 28.34158 65.88817 119.22376
#
# Poissons Ratio (x) = 0.42476 0.78825
# Poissons Ratio (y) = 0.18271 0.53615
# Poissons Ratio (z) = 0.18738 0.29630
#
# Static dielectric constant tensor:
#      x y z
#    x 1.615110 0.000000 0.000000 
#    y 0.000000 1.668650 0.000000 
#    z 0.000000 0.000000 1.619250 
# 
# From -- ./inp_files/75134.got.cif
#   From: 2010.05.17/outbox.cif.g08.bks.cpg/sg65_38_cif.got.tgz:75134.got - 2010.06.03 17:01:31.
