data_PCOD9488793
_publ_section_title
;
Structure prediction by ZEFSAII (Michael W. Deem and Ramdas Pophale) SiO2 
 PCOD9488793
Probable space group: C M M M
;
_chemical_formula_sum "Si O2"
_cell_formula_units_Z 112
_cell_length_a 14.801707
_cell_length_b 14.014040
_cell_length_c 27.260572
_cell_angle_alpha 90.000000
_cell_angle_beta 90.000000
_cell_angle_gamma 90.000000
_cell_volume 5654.707174
_symmetry_space_group_name_H-M "C M M M"
_symmetry_group_IT_number 65
_symmetry_cell_setting 'orthorhombic'
loop_
_space_group_symop_operation_xyz
x,y,z
-x,-y,z
x,-y,-z
-x,y,-z
-x,-y,-z
x,y,-z
-x,y,z
x,-y,z
1/2+x,1/2+y,z
1/2-x,1/2-y,z
1/2+x,1/2-y,-z
1/2-x,1/2+y,-z
1/2-x,1/2-y,-z
1/2+x,1/2+y,-z
1/2-x,1/2+y,z
1/2+x,1/2-y,z
loop_
_atom_site_type_symbol
_atom_site_label
_atom_site_fract_x
_atom_site_fract_y
_atom_site_fract_z
Si Si1 0.216768 0.390297 0.941619
Si Si2 0.273159 0.883968 0.644071
Si Si3 0.103838 0.788286 0.907592
Si Si4 0.397001 0.883642 0.443867
Si Si5 0.145907 0.224795 0.798496
Si Si6 0.399272 0.892174 0.266343
Si Si7 0.897792 0.884939 0.300002
O O1 0.204854 0.500000 0.926046
O O2 0.147028 0.317101 0.916217
O O3 0.319832 0.356376 0.931342
O O4 0.201646 0.383475 0.000000
O O5 0.322730 0.850429 0.595083
O O6 0.331651 0.857718 0.691855
O O7 0.171632 0.854934 0.657415
O O8 0.274549 0.000000 0.642103
O O9 0.105162 0.808903 0.849445
O O10 0.000000 0.795183 0.925472
O O11 0.379278 0.853928 0.500000
O O12 0.500000 0.855513 0.430639
O O13 0.396157 0.000000 0.443464
O O14 0.250000 0.250000 0.806951
O O15 0.102785 0.322722 0.779386
O O16 0.134034 0.153003 0.752985
O O17 0.500000 0.893790 0.287554
O O18 0.374443 0.000000 0.252447
O O19 0.000000 0.851189 0.308277
O O20 0.897582 0.000000 0.298605
#
# Coordination Sequence:
#
# PCOD9488793 Si02
#       7
#    16  16  16  16  16  16  16
#     4  10  23  43  65  92 124 155 193 243 293 343
#     4   9  16  27  45  69  98 135 177 219 269 324
#     4  11  23  41  64  90 121 158 197 240 289 345
#     4   8  13  22  39  66 100 134 169 217 277 335
#     4  12  22  38  58  80 114 150 184 226 280 329
#     4  10  20  33  51  77 108 139 173 218 272 331
#     4  10  21  36  53  74 104 144 189 231 267 314
#
# _framework density 19.806507
#
# number of rings (size 3 to 8) (size 9 to 14) (size 15 to 20)
#    0.000    2.000    2.857    3.000    0.000    4.571 
#    0.000    1.429    0.000    0.429    0.000    5.000 
#    0.000    2.286    0.000    0.286    0.000    0.000 
#
# Total GULP energy -312536.026580 kJ/mol
# GULP energy per Si atom -5581.000475 kJ/mol
# Density = 1.976143 g / cm^3
# Si number density = 19.806507 Si / 1000 Ang^3
#
#
#
# Elastic Constant Matrix: (Units=GPa)
#
#
# Indices 1 2 3 4 5 6 
#
# 1 111.8009 -8.2218 24.8250 0.0000 0.0000 0.0000
# 2 -8.2218 54.5335 3.7325 0.0000 0.0000 0.0000
# 3 24.8250 3.7325 78.5908 0.0000 0.0000 0.0000
# 4 0.0000 0.0000 0.0000 24.6835 0.0000 0.0000
# 5 0.0000 0.0000 0.0000 0.0000 20.7938 0.0000
# 6 0.0000 0.0000 0.0000 0.0000 0.0000 9.7667
#
#
#
# Elastic Compliance Matrix: (Units=1/GPa)
#
#
# Indices 1 2 3 4 5 6 
#
# 1 0.009772 0.001690 -0.003167 0.000000 0.000000 0.000000
# 2 0.001690 0.018689 -0.001421 0.000000 0.000000 0.000000
# 3 -0.003167 -0.001421 0.013792 0.000000 0.000000 0.000000
# 4 0.000000 0.000000 0.000000 0.040513 0.000000 0.000000
# 5 0.000000 0.000000 0.000000 0.000000 0.048091 0.000000
# 6 0.000000 0.000000 0.000000 0.000000 0.000000 0.102388
#
#
# Mechanical properties :
#
#
# Convention : Reuss Voigt Hill
#
# Bulk Modulus (GPa) = 27.42985 31.73294 29.58139
# Shear Modulus (GPa) = 19.90487 26.02145 22.96316
#
# Velocity S-wave (km/s) = 3.17356 3.62855 3.40865
# Velocity P-wave (km/s) = 5.22567 5.79753 5.51901
#
# Compressibility (1/GPa) = 0.03645664
#
# Stress axis : x y z
#
# Youngs Moduli (GPa) = 102.33334 53.50610 72.50559
#
# Poissons Ratio (x) = -0.09043 0.22963
# Poissons Ratio (y) = -0.17295 0.10306
# Poissons Ratio (z) = 0.32409 0.07606
#
# Static dielectric constant tensor:
#      x y z
#    x 1.754290 0.000000 0.000000 
#    y 0.000000 1.723830 0.000000 
#    z 0.000000 0.000000 1.670110 
# 
# From -- ./inp_files/70036.got.cif
#   From: 2010.05.17/outbox.cif.g08.bks.cpg/sg65_36_cif.got.tgz:70036.got - 2010.06.03 17:01:31.
