data_PCOD9488837
_publ_section_title
;
Structure prediction by ZEFSAII (Michael W. Deem and Ramdas Pophale) SiO2 
 PCOD9488837
Probable space group: C M M M
;
_chemical_formula_sum "Si O2"
_cell_formula_units_Z 96
_cell_length_a 20.557234
_cell_length_b 14.332264
_cell_length_c 15.331728
_cell_angle_alpha 90.000000
_cell_angle_beta 90.000000
_cell_angle_gamma 90.000000
_cell_volume 4517.213158
_symmetry_space_group_name_H-M "C M M M"
_symmetry_group_IT_number 65
_symmetry_cell_setting 'orthorhombic'
loop_
_space_group_symop_operation_xyz
x,y,z
-x,-y,z
x,-y,-z
-x,y,-z
-x,-y,-z
x,y,-z
-x,y,z
x,-y,z
1/2+x,1/2+y,z
1/2-x,1/2-y,z
1/2+x,1/2-y,-z
1/2-x,1/2+y,-z
1/2-x,1/2-y,-z
1/2+x,1/2+y,-z
1/2-x,1/2+y,z
1/2+x,1/2-y,z
loop_
_atom_site_type_symbol
_atom_site_label
_atom_site_fract_x
_atom_site_fract_y
_atom_site_fract_z
Si Si1 0.335809 0.112903 0.255270
Si Si2 0.426638 0.386649 0.102386
Si Si3 0.887062 0.897210 0.401534
Si Si4 0.571062 0.808375 0.397915
Si Si5 0.574577 0.887016 0.904885
Si Si6 0.809408 0.108399 0.225316
O O1 0.369348 0.154329 0.341167
O O2 0.382153 0.140294 0.175629
O O3 0.263577 0.146073 0.230785
O O4 0.334645 0.000000 0.263981
O O5 0.500000 0.357175 0.129810
O O6 0.427019 0.500000 0.107742
O O7 0.366787 0.353655 0.162709
O O8 0.418179 0.363210 0.000000
O O9 0.859185 0.894188 0.500000
O O10 0.929027 0.804234 0.392874
O O11 0.835563 0.891032 0.324089
O O12 0.919104 0.000000 0.392518
O O13 0.578323 0.832963 0.500000
O O14 0.500000 0.843630 0.367348
O O15 0.500000 0.856957 0.895890
O O16 0.574167 0.000000 0.905533
O O17 0.599012 0.856597 0.000000
O O18 0.801914 0.000000 0.197541
#
# Coordination Sequence:
#
# PCOD9488837 Si02
#       6
#    16  16  16  16  16  16
#     4  10  20  33  51  79 117 156 190 228 273 323
#     4   8  14  26  46  74 109 147 186 231 283 338
#     4   9  19  37  59  81 106 136 174 228 290 343
#     4  10  22  38  56  81 110 144 190 235 278 335
#     4   8  14  26  46  72 102 141 189 233 272 314
#     4   9  18  31  50  79 110 144 186 224 268 332
#
# _framework density 21.252041999999999
#
# number of rings (size 3 to 8) (size 9 to 14) (size 15 to 20)
#    0.000    3.000    0.000    1.500    0.000    4.333 
#    0.000   10.833    0.000    1.000    0.000    4.667 
#    0.000    0.000    0.000    0.000    0.000    0.000 
#
# Total GULP energy -267636.936306 kJ/mol
# GULP energy per Si atom -5575.769506 kJ/mol
# Density = 2.120367 g / cm^3
# Si number density = 21.252042 Si / 1000 Ang^3
#
#
#
# Elastic Constant Matrix: (Units=GPa)
#
#
# Indices 1 2 3 4 5 6 
#
# 1 161.7479 16.5383 93.1863 0.0000 0.0000 0.0000
# 2 16.5383 93.2409 16.0563 0.0000 0.0000 0.0000
# 3 93.1863 16.0563 114.6397 0.0000 0.0000 0.0000
# 4 0.0000 0.0000 0.0000 -76.0972 0.0000 0.0000
# 5 0.0000 0.0000 0.0000 0.0000 13.1574 0.0000
# 6 0.0000 0.0000 0.0000 0.0000 0.0000 -5.1892
#
#
#
# Elastic Compliance Matrix: (Units=1/GPa)
#
#
# Indices 1 2 3 4 5 6 
#
# 1 0.011646 -0.000446 -0.009404 0.000000 0.000000 0.000000
# 2 -0.000446 0.011007 -0.001179 0.000000 0.000000 0.000000
# 3 -0.009404 -0.001179 0.016532 0.000000 0.000000 0.000000
# 4 0.000000 0.000000 0.000000 -0.013141 0.000000 0.000000
# 5 0.000000 0.000000 0.000000 0.000000 0.076003 0.000000
# 6 0.000000 0.000000 0.000000 0.000000 0.000000 -0.192706
#
#
# Mechanical properties :
#
#
# Convention : Reuss Voigt Hill
#
# Bulk Modulus (GPa) = 58.38766 69.02116 63.70441
# Shear Modulus (GPa) = -79.50162 2.63070 -38.43546
#
# Velocity S-wave (km/s) = -6.12292 1.11380 -4.25732
# Velocity P-wave (km/s) = 4.73849 5.84825 2.42370
#
# Compressibility (1/GPa) = 0.01712691
#
# Stress axis : x y z
#
# Youngs Moduli (GPa) = 85.86657 90.85069 60.48760
#
# Poissons Ratio (x) = 0.04054 0.56883
# Poissons Ratio (y) = 0.03832 0.07131
# Poissons Ratio (z) = 0.80750 0.10710
#
# Static dielectric constant tensor:
#      x y z
#    x 1.752320 0.000000 0.000000 
#    y 0.000000 1.831050 0.000000 
#    z 0.000000 0.000000 1.821220 
# 
# From -- ./inp_files/44099.got.cif
#   From: 2010.05.17/outbox.cif.g08.bks.cpg/sg65_23_cif.got.tgz:44099.got - 2010.06.03 17:01:31.
