data_PCOD9488169
_publ_section_title
;
Structure prediction by ZEFSAII (Michael W. Deem and Ramdas Pophale) SiO2 
 PCOD9488169
Probable space group: C M M M
;
_chemical_formula_sum "Si O2"
_cell_formula_units_Z 116
_cell_length_a 7.734596
_cell_length_b 26.330618
_cell_length_c 25.955830
_cell_angle_alpha 90.000000
_cell_angle_beta 90.000000
_cell_angle_gamma 90.000000
_cell_volume 5286.078493
_symmetry_space_group_name_H-M "C M M M"
_symmetry_group_IT_number 65
_symmetry_cell_setting 'orthorhombic'
loop_
_space_group_symop_operation_xyz
x,y,z
-x,-y,z
x,-y,-z
-x,y,-z
-x,-y,-z
x,y,-z
-x,y,z
x,-y,z
1/2+x,1/2+y,z
1/2-x,1/2-y,z
1/2+x,1/2-y,-z
1/2-x,1/2+y,-z
1/2-x,1/2-y,-z
1/2+x,1/2+y,-z
1/2-x,1/2+y,z
1/2+x,1/2-y,z
loop_
_atom_site_type_symbol
_atom_site_label
_atom_site_fract_x
_atom_site_fract_y
_atom_site_fract_z
Si Si1 0.202152 0.167079 0.810823
Si Si2 0.792505 0.420737 0.940136
Si Si3 0.293560 0.696380 0.300299
Si Si4 0.806917 0.693003 0.077960
Si Si5 0.798206 0.911040 0.331320
Si Si6 0.700740 0.944904 0.221340
Si Si7 0.699786 0.939241 0.555276
Si Si8 0.500000 0.500000 0.095155
O O1 0.272212 0.191558 0.758173
O O2 0.297959 0.188092 0.860194
O O3 0.218712 0.106232 0.802003
O O4 0.000000 0.179122 0.817266
O O5 0.729619 0.361614 0.938138
O O6 0.655967 0.455650 0.909921
O O7 0.000000 0.423604 0.924135
O O8 0.786720 0.436899 0.000000
O O9 0.500000 0.693063 0.297207
O O10 0.250000 0.750000 0.324021
O O11 0.231416 0.646631 0.329193
O O12 0.750000 0.750000 0.063794
O O13 0.000000 0.689417 0.058631
O O14 0.710079 0.940102 0.283877
O O15 0.782319 0.927822 0.389899
O O16 0.000000 0.912933 0.317044
O O17 0.500000 0.944562 0.206511
O O18 0.778467 0.000000 0.206939
O O19 0.773320 0.920630 0.500000
O O20 0.500000 0.922385 0.557847
O O21 0.700072 0.000000 0.552371
#
# Coordination Sequence:
#
# PCOD9488169 Si02
#       8
#    16  16  16  16  16  16  16   4
#     4  10  21  37  56  80 112 148 191 238 291 348
#     4  10  23  43  67 100 135 168 213 268 320 375
#     4   9  19  33  50  74  99 129 170 218 266 317
#     4  11  24  41  63  90 126 167 208 257 312 371
#     4  10  20  32  48  73 103 132 169 216 267 323
#     4  10  20  34  52  75 107 145 186 230 280 340
#     4   9  18  32  49  71  99 130 166 206 251 310
#     4  12  23  42  76 102 130 172 218 264 318 390
#
# _framework density 21.944434999999999
#
# number of rings (size 3 to 8) (size 9 to 14) (size 15 to 20)
#    0.000    2.069    0.000    4.552    1.931    8.552 
#    1.241    0.690    0.000    0.414    0.000    0.000 
#    0.000    0.000    0.000    0.000    0.000    0.000 
#
# Total GULP energy -323089.665214 kJ/mol
# GULP energy per Si atom -5570.511469 kJ/mol
# Density = 2.189449 g / cm^3
# Si number density = 21.944435 Si / 1000 Ang^3
#
#
#
# Elastic Constant Matrix: (Units=GPa)
#
#
# Indices 1 2 3 4 5 6 
#
# 1 68.5839 16.3974 3.4740 0.0000 0.0000 0.0000
# 2 16.3974 152.1464 12.4956 0.0000 0.0000 0.0000
# 3 3.4740 12.4956 82.1528 0.0000 0.0000 0.0000
# 4 0.0000 0.0000 0.0000 147.1745 0.0000 0.0000
# 5 0.0000 0.0000 0.0000 0.0000 20.9399 0.0000
# 6 0.0000 0.0000 0.0000 0.0000 0.0000 26.8241
#
#
#
# Elastic Compliance Matrix: (Units=1/GPa)
#
#
# Indices 1 2 3 4 5 6 
#
# 1 0.014979 -0.001582 -0.000393 0.000000 0.000000 0.000000
# 2 -0.001582 0.006823 -0.000971 0.000000 0.000000 0.000000
# 3 -0.000393 -0.000971 0.012337 0.000000 0.000000 0.000000
# 4 0.000000 0.000000 0.000000 0.006795 0.000000 0.000000
# 5 0.000000 0.000000 0.000000 0.000000 0.047756 0.000000
# 6 0.000000 0.000000 0.000000 0.000000 0.000000 0.037280
#
#
# Mechanical properties :
#
#
# Convention : Reuss Voigt Hill
#
# Bulk Modulus (GPa) = 35.40202 40.84636 38.12419
# Shear Modulus (GPa) = 35.39179 57.02212 46.20696
#
# Velocity S-wave (km/s) = 4.02031 5.10306 4.59370
# Velocity P-wave (km/s) = 6.14151 7.30586 6.74884
#
# Compressibility (1/GPa) = 0.02824698
#
# Stress axis : x y z
#
# Youngs Moduli (GPa) = 66.76092 146.56610 81.05881
#
# Poissons Ratio (x) = 0.23188 0.03184
# Poissons Ratio (y) = 0.10562 0.07870
# Poissons Ratio (z) = 0.02622 0.14230
#
# Static dielectric constant tensor:
#      x y z
#    x 1.856540 0.000000 0.000000 
#    y 0.000000 1.856290 0.000000 
#    z 0.000000 0.000000 1.828520 
# 
# From -- ./inp_files/73675.got.cif
#   From: 2010.05.17/outbox.cif.g08.bks.cpg/sg65_37_cif.got.tgz:73675.got - 2010.06.03 17:01:31.
