data_PCOD9488783
_publ_section_title
;
Structure prediction by ZEFSAII (Michael W. Deem and Ramdas Pophale) SiO2 
 PCOD9488783
Probable space group: C M M M
;
_chemical_formula_sum "Si O2"
_cell_formula_units_Z 120
_cell_length_a 28.018002
_cell_length_b 28.531009
_cell_length_c 7.976976
_cell_angle_alpha 90.000000
_cell_angle_beta 90.000000
_cell_angle_gamma 90.000000
_cell_volume 6376.649970
_symmetry_space_group_name_H-M "C M M M"
_symmetry_group_IT_number 65
_symmetry_cell_setting 'orthorhombic'
loop_
_space_group_symop_operation_xyz
x,y,z
-x,-y,z
x,-y,-z
-x,y,-z
-x,-y,-z
x,y,-z
-x,y,z
x,-y,z
1/2+x,1/2+y,z
1/2-x,1/2-y,z
1/2+x,1/2-y,-z
1/2-x,1/2+y,-z
1/2-x,1/2-y,-z
1/2+x,1/2+y,-z
1/2-x,1/2+y,z
1/2+x,1/2-y,z
loop_
_atom_site_type_symbol
_atom_site_label
_atom_site_fract_x
_atom_site_fract_y
_atom_site_fract_z
Si Si1 0.302565 0.235928 0.703046
Si Si2 0.101301 0.782594 0.201126
Si Si3 0.789726 0.446955 0.201652
Si Si4 0.317902 0.554064 0.795532
Si Si5 0.946660 0.686943 0.798090
Si Si6 0.000000 0.946669 0.299644
Si Si7 0.092022 0.112998 0.797854
Si Si8 0.648673 0.859464 0.300846
O O1 0.301914 0.235441 0.500000
O O2 0.250000 0.250000 0.762125
O O3 0.343558 0.271772 0.759227
O O4 0.319808 0.184645 0.763843
O O5 0.071254 0.737977 0.265377
O O6 0.086999 0.833751 0.265372
O O7 0.095424 0.782876 0.000000
O O8 0.800096 0.500000 0.261067
O O9 0.735964 0.433977 0.259578
O O10 0.828001 0.408211 0.249519
O O11 0.787964 0.448640 0.000000
O O12 0.327686 0.500000 0.747530
O O13 0.359359 0.588457 0.735727
O O14 0.318159 0.555226 0.000000
O O15 0.905505 0.650069 0.754157
O O16 0.000000 0.676406 0.737124
O O17 0.948288 0.689458 0.000000
O O18 0.953105 0.918810 0.244103
O O19 0.000000 0.948610 0.500000
O O20 0.000000 0.000000 0.233782
O O21 0.095419 0.115442 0.000000
O O22 0.649640 0.856811 0.500000
#
# Coordination Sequence:
#
# PCOD9488783 Si02
#       8
#    16  16  16  16  16   8  16  16
#     4   9  19  34  49  69 105 148 179 206 248 306
#     4   9  19  32  50  80 106 129 168 218 263 304
#     4   9  18  33  54  79 108 140 172 209 254 307
#     4   8  15  29  49  74 101 130 168 212 257 306
#     4   9  18  34  55  75 102 137 170 211 260 312
#     4  11  25  41  53  71 101 137 179 225 274 327
#     4  10  20  34  56  80 101 130 172 223 274 319
#     4  10  20  33  51  77 106 138 176 215 255 304
#
# _framework density 18.818659
#
# number of rings (size 3 to 8) (size 9 to 14) (size 15 to 20)
#    0.000    2.733    0.000    1.800    2.800    2.933 
#    0.000    0.667    0.000    1.200    0.000    2.800 
#    0.000    0.000    0.000    0.000    0.000    0.000 
#
# Total GULP energy -334678.525654 kJ/mol
# GULP energy per Si atom -5577.975428 kJ/mol
# Density = 1.877583 g / cm^3
# Si number density = 18.818659 Si / 1000 Ang^3
#
#
#
# Elastic Constant Matrix: (Units=GPa)
#
#
# Indices 1 2 3 4 5 6 
#
# 1 161.4071 97.5954 6.4252 0.0000 0.0000 0.0000
# 2 97.5954 132.3956 7.5754 0.0000 0.0000 0.0000
# 3 6.4252 7.5754 12.8373 0.0000 0.0000 0.0000
# 4 0.0000 0.0000 0.0000 11.7449 0.0000 0.0000
# 5 0.0000 0.0000 0.0000 0.0000 -40.6683 0.0000
# 6 0.0000 0.0000 0.0000 0.0000 0.0000 16.3768
#
#
#
# Elastic Compliance Matrix: (Units=1/GPa)
#
#
# Indices 1 2 3 4 5 6 
#
# 1 0.011185 -0.008201 -0.000758 0.000000 0.000000 0.000000
# 2 -0.008201 0.013831 -0.004057 0.000000 0.000000 0.000000
# 3 -0.000758 -0.004057 0.080671 0.000000 0.000000 0.000000
# 4 0.000000 0.000000 0.000000 0.085143 0.000000 0.000000
# 5 0.000000 0.000000 0.000000 0.000000 -0.024589 0.000000
# 6 0.000000 0.000000 0.000000 0.000000 0.000000 0.061062
#
#
# Mechanical properties :
#
#
# Convention : Reuss Voigt Hill
#
# Bulk Modulus (GPa) = 12.55430 58.87021 35.71226
# Shear Modulus (GPa) = 17.86430 10.49361 14.17896
#
# Velocity S-wave (km/s) = 3.08439 2.36395 2.74789
# Velocity P-wave (km/s) = 4.40117 6.22911 5.39315
#
# Compressibility (1/GPa) = 0.07965397
#
# Stress axis : x y z
#
# Youngs Moduli (GPa) = 89.40765 72.30176 12.39595
#
# Poissons Ratio (x) = 0.59298 0.00940
# Poissons Ratio (y) = 0.73327 0.05029
# Poissons Ratio (z) = 0.06780 0.29332
#
# Static dielectric constant tensor:
#      x y z
#    x 1.641490 0.000000 0.000000 
#    y 0.000000 1.658120 0.000000 
#    z 0.000000 0.000000 1.667710 
# 
# From -- ./inp_files/17067.got.cif
#   From: 2010.05.17/outbox.cif.g08.bks.cpg/sg65_9_cif.got.tgz:17067.got - 2010.06.03 17:01:31.
