data_PCOD9488658
_publ_section_title
;
Structure prediction by ZEFSAII (Michael W. Deem and Ramdas Pophale) SiO2 
 PCOD9488658
Probable space group: C M M M
;
_chemical_formula_sum "Si O2"
_cell_formula_units_Z 72
_cell_length_a 23.148957
_cell_length_b 15.460317
_cell_length_c 9.821015
_cell_angle_alpha 90.000000
_cell_angle_beta 90.000000
_cell_angle_gamma 90.000000
_cell_volume 3514.845155
_symmetry_space_group_name_H-M "C M M M"
_symmetry_group_IT_number 65
_symmetry_cell_setting 'orthorhombic'
loop_
_space_group_symop_operation_xyz
x,y,z
-x,-y,z
x,-y,-z
-x,y,-z
-x,-y,-z
x,y,-z
-x,y,z
x,-y,z
1/2+x,1/2+y,z
1/2-x,1/2-y,z
1/2+x,1/2-y,-z
1/2-x,1/2+y,-z
1/2-x,1/2-y,-z
1/2+x,1/2+y,-z
1/2-x,1/2+y,z
1/2+x,1/2-y,z
loop_
_atom_site_type_symbol
_atom_site_label
_atom_site_fract_x
_atom_site_fract_y
_atom_site_fract_z
Si Si1 0.399063 0.099535 0.848247
Si Si2 0.668580 0.664931 0.346226
Si Si3 0.000000 0.606441 0.344246
Si Si4 0.935063 0.104368 0.160453
Si Si5 0.702105 0.867596 0.654866
O O1 0.444562 0.137448 0.740979
O O2 0.337666 0.097401 0.774302
O O3 0.417731 0.000000 0.863824
O O4 0.398438 0.138636 0.000000
O O5 0.650814 0.641658 0.500000
O O6 0.617223 0.645189 0.243952
O O7 0.686222 0.765766 0.345546
O O8 0.730076 0.618866 0.317984
O O9 0.000000 0.500000 0.351285
O O10 0.000000 0.636514 0.500000
O O11 0.000000 0.131010 0.204190
O O12 0.931825 0.000000 0.174610
O O13 0.929531 0.124126 0.000000
O O14 0.689119 0.898620 0.500000
#
# Coordination Sequence:
#
# PCOD9488658 Si02
#       5
#    16  16   8  16  16
#     4  10  20  33  50  75 105 135 173 218 258 304
#     4   9  19  36  56  77 103 136 176 220 262 310
#     4   9  17  31  51  71  95 131 168 205 254 301
#     4   9  19  36  56  79 109 142 174 213 266 326
#     4   9  19  36  54  74 104 140 176 216 264 315
#
# _framework density 20.484544
#
# number of rings (size 3 to 8) (size 9 to 14) (size 15 to 20)
#    0.000    2.778    0.000    3.000    0.000    6.222 
#    2.000    7.778    0.000    0.000    0.000    0.000 
#    0.000    0.000    0.000    0.000    0.000    0.000 
#
# Total GULP energy -200761.068961 kJ/mol
# GULP energy per Si atom -5576.696360 kJ/mol
# Density = 2.043792 g / cm^3
# Si number density = 20.484544 Si / 1000 Ang^3
#
#
#
# Elastic Constant Matrix: (Units=GPa)
#
#
# Indices 1 2 3 4 5 6 
#
# 1 156.0313 22.0553 113.2231 0.0000 0.0000 0.0000
# 2 22.0553 25.1508 18.1244 0.0000 0.0000 0.0000
# 3 113.2231 18.1244 168.1535 0.0000 0.0000 0.0000
# 4 0.0000 0.0000 0.0000 20.5539 0.0000 0.0000
# 5 0.0000 0.0000 0.0000 0.0000 64.6880 0.0000
# 6 0.0000 0.0000 0.0000 0.0000 0.0000 27.8126
#
#
#
# Elastic Compliance Matrix: (Units=1/GPa)
#
#
# Indices 1 2 3 4 5 6 
#
# 1 0.013226 -0.005617 -0.008300 0.000000 0.000000 0.000000
# 2 -0.005617 0.045494 -0.001122 0.000000 0.000000 0.000000
# 3 -0.008300 -0.001122 0.011656 0.000000 0.000000 0.000000
# 4 0.000000 0.000000 0.000000 0.048653 0.000000 0.000000
# 5 0.000000 0.000000 0.000000 0.000000 0.015459 0.000000
# 6 0.000000 0.000000 0.000000 0.000000 0.000000 0.035955
#
#
# Mechanical properties :
#
#
# Convention : Reuss Voigt Hill
#
# Bulk Modulus (GPa) = 24.81419 72.90458 48.85938
# Shear Modulus (GPa) = 23.36974 35.67308 29.52141
#
# Velocity S-wave (km/s) = 3.38131 4.17761 3.80037
# Velocity P-wave (km/s) = 5.23299 7.67706 6.56968
#
# Compressibility (1/GPa) = 0.04029952
#
# Stress axis : x y z
#
# Youngs Moduli (GPa) = 75.61062 21.98096 85.78980
#
# Poissons Ratio (x) = 0.12346 0.71204
# Poissons Ratio (y) = 0.42469 0.09622
# Poissons Ratio (z) = 0.62756 0.02465
#
# Static dielectric constant tensor:
#      x y z
#    x 1.727480 0.000000 0.000000 
#    y 0.000000 1.809350 0.000000 
#    z 0.000000 0.000000 1.711330 
# 
# From -- ./inp_files/11249.got.cif
#   From: 2010.05.17/outbox.cif.g08.bks.cpg/sg65_6_cif.got.tgz:11249.got - 2010.06.03 17:01:31.
