data_PCOD9488404
_publ_section_title
;
Structure prediction by ZEFSAII (Michael W. Deem and Ramdas Pophale) SiO2 
 PCOD9488404
Probable space group: C M M M
;
_chemical_formula_sum "Si O2"
_cell_formula_units_Z 80
_cell_length_a 8.755596
_cell_length_b 23.863275
_cell_length_c 24.299247
_cell_angle_alpha 90.000000
_cell_angle_beta 90.000000
_cell_angle_gamma 90.000000
_cell_volume 5077.016512
_symmetry_space_group_name_H-M "C M M M"
_symmetry_group_IT_number 65
_symmetry_cell_setting 'orthorhombic'
loop_
_space_group_symop_operation_xyz
x,y,z
-x,-y,z
x,-y,-z
-x,y,-z
-x,-y,-z
x,y,-z
-x,y,z
x,-y,z
1/2+x,1/2+y,z
1/2-x,1/2-y,z
1/2+x,1/2-y,-z
1/2-x,1/2+y,-z
1/2-x,1/2-y,-z
1/2+x,1/2+y,-z
1/2-x,1/2+y,z
1/2+x,1/2-y,z
loop_
_atom_site_type_symbol
_atom_site_label
_atom_site_fract_x
_atom_site_fract_y
_atom_site_fract_z
Si Si1 0.317871 0.812808 0.329286
Si Si2 0.183497 0.500000 0.064984
Si Si3 0.817293 0.813225 0.439841
Si Si4 0.816216 0.883847 0.106429
Si Si5 0.183270 0.188324 0.000000
Si Si6 0.683286 0.186869 0.793845
O O1 0.500000 0.809964 0.335252
O O2 0.250000 0.750000 0.328005
O O3 0.248712 0.840354 0.384237
O O4 0.282243 0.834921 0.268206
O O5 0.248781 0.444901 0.094335
O O6 0.000000 0.500000 0.067378
O O7 0.228654 0.500000 0.000000
O O8 0.779102 0.838424 0.500000
O O9 0.750000 0.750000 0.441091
O O10 0.000000 0.809839 0.435447
O O11 0.752823 0.853930 0.160721
O O12 0.000000 0.886679 0.108596
O O13 0.770354 0.845425 0.054339
O O14 0.250000 0.250000 0.000000
O O15 0.000000 0.191801 0.000000
O O16 0.500000 0.190217 0.799561
O O17 0.750000 0.250000 0.799861
#
# Coordination Sequence:
#
# PCOD9488404 Si02
#       6
#    16   8  16  16   8  16
#     4   9  16  25  38  55  80 114 151 191 230 273
#     4  11  23  39  59  79  97 123 154 191 236 285
#     4   9  15  21  31  49  74 106 147 191 229 268
#     4  11  22  37  55  74  97 126 157 195 237 282
#     4  10  22  35  50  73  99 124 152 188 229 274
#     4  10  20  33  48  70  97 126 162 199 239 288
#
# _framework density 15.757286000000001
#
# number of rings (size 3 to 8) (size 9 to 14) (size 15 to 20)
#    0.000    2.100    1.000    4.500    0.000    7.200 
#    0.000    0.000    0.000    0.000    0.000    0.000 
#    0.000    0.000    0.000    0.900    0.000   17.200 
#
# Total GULP energy -222909.750836 kJ/mol
# GULP energy per Si atom -5572.743771 kJ/mol
# Density = 1.572142 g / cm^3
# Si number density = 15.757286 Si / 1000 Ang^3
#
#
#
# Elastic Constant Matrix: (Units=GPa)
#
#
# Indices 1 2 3 4 5 6 
#
# 1 64.8710 30.3160 64.5648 0.0000 0.0000 0.0000
# 2 30.3160 81.5792 60.2278 0.0000 0.0000 0.0000
# 3 64.5648 60.2278 190.5303 0.0000 0.0000 0.0000
# 4 0.0000 0.0000 0.0000 -1.0506 0.0000 0.0000
# 5 0.0000 0.0000 0.0000 0.0000 27.9570 0.0000
# 6 0.0000 0.0000 0.0000 0.0000 0.0000 20.8357
#
#
#
# Elastic Compliance Matrix: (Units=1/GPa)
#
#
# Indices 1 2 3 4 5 6 
#
# 1 0.024141 -0.003824 -0.006972 0.000000 0.000000 0.000000
# 2 -0.003824 0.016595 -0.003950 0.000000 0.000000 0.000000
# 3 -0.006972 -0.003950 0.008860 0.000000 0.000000 0.000000
# 4 0.000000 0.000000 0.000000 -0.951808 0.000000 0.000000
# 5 0.000000 0.000000 0.000000 0.000000 0.035769 0.000000
# 6 0.000000 0.000000 0.000000 0.000000 0.000000 0.047994
#
#
# Mechanical properties :
#
#
# Convention : Reuss Voigt Hill
#
# Bulk Modulus (GPa) = 49.74062 71.91088 60.82575
# Shear Modulus (GPa) = -6.39178 21.67321 7.64071
#
# Velocity S-wave (km/s) = -2.01623 3.71272 2.20443
# Velocity P-wave (km/s) = 5.12006 8.00716 6.72048
#
# Compressibility (1/GPa) = 0.02010429
#
# Stress axis : x y z
#
# Youngs Moduli (GPa) = 41.42274 60.25805 112.87048
#
# Poissons Ratio (x) = 0.23043 0.78693
# Poissons Ratio (y) = 0.15840 0.44584
# Poissons Ratio (z) = 0.28880 0.23802
#
# Static dielectric constant tensor:
#      x y z
#    x 1.527900 0.000000 0.000000 
#    y 0.000000 1.478140 0.000000 
#    z 0.000000 0.000000 1.593270 
# 
# From -- ./inp_files/59660.got.cif
#   From: 2010.05.17/outbox.cif.g08.bks.cpg/sg65_30_cif.got.tgz:59660.got - 2010.06.03 17:01:31.
