data_PCOD9488377
_publ_section_title
;
Structure prediction by ZEFSAII (Michael W. Deem and Ramdas Pophale) SiO2 
 PCOD9488377
Probable space group: C M M M
;
_chemical_formula_sum "Si O2"
_cell_formula_units_Z 72
_cell_length_a 37.000036
_cell_length_b 9.004960
_cell_length_c 14.292006
_cell_angle_alpha 90.000000
_cell_angle_beta 90.000000
_cell_angle_gamma 90.000000
_cell_volume 4761.865500
_symmetry_space_group_name_H-M "C M M M"
_symmetry_group_IT_number 65
_symmetry_cell_setting 'orthorhombic'
loop_
_space_group_symop_operation_xyz
x,y,z
-x,-y,z
x,-y,-z
-x,y,-z
-x,-y,-z
x,y,-z
-x,y,z
x,-y,z
1/2+x,1/2+y,z
1/2-x,1/2-y,z
1/2+x,1/2-y,-z
1/2-x,1/2+y,-z
1/2-x,1/2-y,-z
1/2+x,1/2+y,-z
1/2-x,1/2+y,z
1/2+x,1/2-y,z
loop_
_atom_site_type_symbol
_atom_site_label
_atom_site_fract_x
_atom_site_fract_y
_atom_site_fract_z
Si Si1 0.043059 0.176304 0.108078
Si Si2 0.569272 0.176965 0.709061
Si Si3 0.137909 0.823930 0.612084
Si Si4 0.500000 0.325515 0.387817
Si Si5 0.213131 0.328787 0.613791
O O1 0.064416 0.270059 0.184124
O O2 0.000000 0.202414 0.120776
O O3 0.049065 0.000000 0.122900
O O4 0.051789 0.210431 0.000000
O O5 0.605862 0.240804 0.664940
O O6 0.535484 0.248338 0.653693
O O7 0.568158 0.000000 0.701866
O O8 0.133730 0.801104 0.500000
O O9 0.176959 0.759272 0.640090
O O10 0.136209 0.000000 0.629429
O O11 0.500000 0.500000 0.361729
O O12 0.500000 0.314957 0.500000
O O13 0.214042 0.328585 0.500000
O O14 0.211590 0.500000 0.643994
O O15 0.250000 0.250000 0.645587
#
# Coordination Sequence:
#
# PCOD9488377 Si02
#       5
#    16  16  16   8  16
#     4   9  18  34  55  73  90 117 153 193 238 288
#     4  12  23  33  48  71  96 122 154 197 243 285
#     4  10  20  33  48  66  92 129 167 200 235 277
#     4  11  23  37  50  63  86 125 167 200 230 273
#     4   9  16  27  44  66  92 122 157 196 236 279
#
# _framework density 15.120124000000001
#
# number of rings (size 3 to 8) (size 9 to 14) (size 15 to 20)
#    0.000    1.889    1.111    5.000    0.000    8.000 
#    0.000    1.111    0.000    0.000    0.000    0.000 
#    0.000    0.889    0.000    3.333    0.000    5.111 
#
# Total GULP energy -200960.171826 kJ/mol
# GULP energy per Si atom -5582.226995 kJ/mol
# Density = 1.508571 g / cm^3
# Si number density = 15.120124 Si / 1000 Ang^3
#
#
#
# Elastic Constant Matrix: (Units=GPa)
#
#
# Indices 1 2 3 4 5 6 
#
# 1 141.4317 86.9898 53.5270 0.0000 0.0000 0.0000
# 2 86.9898 142.9877 63.9376 0.0000 0.0000 0.0000
# 3 53.5270 63.9376 63.0911 0.0000 0.0000 0.0000
# 4 0.0000 0.0000 0.0000 12.9883 0.0000 0.0000
# 5 0.0000 0.0000 0.0000 0.0000 1.8653 0.0000
# 6 0.0000 0.0000 0.0000 0.0000 0.0000 29.6647
#
#
#
# Elastic Compliance Matrix: (Units=1/GPa)
#
#
# Indices 1 2 3 4 5 6 
#
# 1 0.012150 -0.005088 -0.005152 0.000000 0.000000 0.000000
# 2 -0.005088 0.014920 -0.010803 0.000000 0.000000 0.000000
# 3 -0.005152 -0.010803 0.031169 0.000000 0.000000 0.000000
# 4 0.000000 0.000000 0.000000 0.076992 0.000000 0.000000
# 5 0.000000 0.000000 0.000000 0.000000 0.536098 0.000000
# 6 0.000000 0.000000 0.000000 0.000000 0.000000 0.033710
#
#
# Mechanical properties :
#
#
# Convention : Reuss Voigt Hill
#
# Bulk Modulus (GPa) = 61.90924 84.04659 72.97792
# Shear Modulus (GPa) = 6.64444 18.44075 12.54260
#
# Velocity S-wave (km/s) = 2.09857 3.49609 2.88328
# Velocity P-wave (km/s) = 6.84878 8.48548 7.71068
#
# Compressibility (1/GPa) = 0.01615268
#
# Stress axis : x y z
#
# Youngs Moduli (GPa) = 82.30653 67.02562 32.08317
#
# Poissons Ratio (x) = 0.34102 0.16528
# Poissons Ratio (y) = 0.41877 0.34660
# Poissons Ratio (z) = 0.42402 0.72409
#
# Static dielectric constant tensor:
#      x y z
#    x 1.481460 0.000000 0.000000 
#    y 0.000000 1.501190 0.000000 
#    z 0.000000 0.000000 1.489960 
# 
# From -- ./inp_files/47469.got.cif
#   From: 2010.05.17/outbox.cif.g08.bks.cpg/sg65_24_cif.got.tgz:47469.got - 2010.06.03 17:01:31.
