data_PCOD9488054
_publ_section_title
;
Structure prediction by ZEFSAII (Michael W. Deem and Ramdas Pophale) SiO2 
 PCOD9488054
Probable space group: C M M M
;
_chemical_formula_sum "Si O2"
_cell_formula_units_Z 104
_cell_length_a 7.506812
_cell_length_b 19.446988
_cell_length_c 34.781895
_cell_angle_alpha 90.000000
_cell_angle_beta 90.000000
_cell_angle_gamma 90.000000
_cell_volume 5077.630868
_symmetry_space_group_name_H-M "C M M M"
_symmetry_group_IT_number 65
_symmetry_cell_setting 'orthorhombic'
loop_
_space_group_symop_operation_xyz
x,y,z
-x,-y,z
x,-y,-z
-x,y,-z
-x,-y,-z
x,y,-z
-x,y,z
x,-y,z
1/2+x,1/2+y,z
1/2-x,1/2-y,z
1/2+x,1/2-y,-z
1/2-x,1/2+y,-z
1/2-x,1/2-y,-z
1/2+x,1/2+y,-z
1/2-x,1/2+y,z
1/2+x,1/2-y,z
loop_
_atom_site_type_symbol
_atom_site_label
_atom_site_fract_x
_atom_site_fract_y
_atom_site_fract_z
Si Si1 0.713810 0.830719 0.000000
Si Si2 0.282781 0.420546 0.613529
Si Si3 0.786571 0.578359 0.070609
Si Si4 0.213579 0.169349 0.457431
Si Si5 0.782657 0.920429 0.699770
Si Si6 0.286323 0.330767 0.228635
Si Si7 0.286515 0.578373 0.158006
O O1 0.750000 0.750000 0.000000
O O2 0.781045 0.870047 0.038042
O O3 0.500000 0.837647 0.000000
O O4 0.500000 0.418043 0.613554
O O5 0.232785 0.500000 0.607676
O O6 0.217822 0.373821 0.578625
O O7 0.225997 0.400202 0.656627
O O8 0.718453 0.500000 0.065712
O O9 0.750128 0.600435 0.114310
O O10 0.000000 0.574989 0.066630
O O11 0.281102 0.149323 0.500000
O O12 0.250000 0.250000 0.452250
O O13 0.000000 0.160271 0.458194
O O14 0.720261 0.869892 0.733221
O O15 0.000000 0.919877 0.699878
O O16 0.730609 0.000000 0.706776
O O17 0.500000 0.338268 0.228797
O O18 0.250000 0.250000 0.228544
O O19 0.218947 0.370017 0.190581
O O20 0.500000 0.575066 0.161933
O O21 0.218532 0.500000 0.162894
#
# Coordination Sequence:
#
# PCOD9488054 Si02
#       7
#     8  16  16  16  16  16  16
#     4  10  21  35  51  73 101 130 158 190 230 274
#     4   8  14  25  43  67  89 110 145 192 232 264
#     4   9  18  34  55  75  95 123 159 195 230 270
#     4   9  17  28  42  62  89 119 148 180 222 271
#     4   8  14  27  47  67  87 115 152 190 226 267
#     4  10  20  32  47  69  96 123 151 186 228 272
#     4   9  18  33  52  72  93 120 156 194 229 267
#
# _framework density 20.481992999999999
#
# number of rings (size 3 to 8) (size 9 to 14) (size 15 to 20)
#    0.000    3.077    0.000    1.615    0.000    5.538 
#    0.000    4.615    0.000    4.154    0.000    4.308 
#    0.000    0.000    0.000    0.000    0.000    0.000 
#
# Total GULP energy -290101.794589 kJ/mol
# GULP energy per Si atom -5578.880665 kJ/mol
# Density = 2.043538 g / cm^3
# Si number density = 20.481993 Si / 1000 Ang^3
#
#
#
# Elastic Constant Matrix: (Units=GPa)
#
#
# Indices 1 2 3 4 5 6 
#
# 1 54.8318 1.8538 7.4703 0.0000 0.0000 0.0000
# 2 1.8538 132.8890 156.6581 0.0000 0.0000 0.0000
# 3 7.4703 156.6581 251.4896 0.0000 0.0000 0.0000
# 4 0.0000 0.0000 0.0000 28.7749 0.0000 0.0000
# 5 0.0000 0.0000 0.0000 0.0000 9.4242 0.0000
# 6 0.0000 0.0000 0.0000 0.0000 0.0000 18.9513
#
#
#
# Elastic Compliance Matrix: (Units=1/GPa)
#
#
# Indices 1 2 3 4 5 6 
#
# 1 0.018386 0.001458 -0.001454 0.000000 0.000000 0.000000
# 2 0.001458 0.028441 -0.017760 0.000000 0.000000 0.000000
# 3 -0.001454 -0.017760 0.015083 0.000000 0.000000 0.000000
# 4 0.000000 0.000000 0.000000 0.034753 0.000000 0.000000
# 5 0.000000 0.000000 0.000000 0.000000 0.106109 0.000000
# 6 0.000000 0.000000 0.000000 0.000000 0.000000 0.052767
#
#
# Mechanical properties :
#
#
# Convention : Reuss Voigt Hill
#
# Bulk Modulus (GPa) = 37.88214 85.68610 61.78412
# Shear Modulus (GPa) = 16.67493 29.64530 23.16012
#
# Velocity S-wave (km/s) = 2.85639 3.80858 3.36632
# Velocity P-wave (km/s) = 5.42347 7.82726 6.73350
#
# Compressibility (1/GPa) = 0.02639767
#
# Stress axis : x y z
#
# Youngs Moduli (GPa) = 54.38788 35.15992 66.30137
#
# Poissons Ratio (x) = -0.05127 0.09643
# Poissons Ratio (y) = -0.07930 1.17752
# Poissons Ratio (z) = 0.07910 0.62444
#
# Static dielectric constant tensor:
#      x y z
#    x 1.775060 0.000000 0.000000 
#    y 0.000000 1.684030 0.000000 
#    z 0.000000 0.000000 1.730690 
# 
# From -- ./inp_files/77438.got.cif
#   From: 2010.05.17/outbox.cif.g08.bks.cpg/sg65_39_cif.got.tgz:77438.got - 2010.06.03 17:01:31.
