data_PCOD9488454
_publ_section_title
;
Structure prediction by ZEFSAII (Michael W. Deem and Ramdas Pophale) SiO2 
 PCOD9488454
Probable space group: C M M M
;
_chemical_formula_sum "Si O2"
_cell_formula_units_Z 88
_cell_length_a 31.352321
_cell_length_b 18.447727
_cell_length_c 9.187102
_cell_angle_alpha 90.000000
_cell_angle_beta 90.000000
_cell_angle_gamma 90.000000
_cell_volume 5313.627406
_symmetry_space_group_name_H-M "C M M M"
_symmetry_group_IT_number 65
_symmetry_cell_setting 'orthorhombic'
loop_
_space_group_symop_operation_xyz
x,y,z
-x,-y,z
x,-y,-z
-x,y,-z
-x,-y,-z
x,y,-z
-x,y,z
x,-y,z
1/2+x,1/2+y,z
1/2-x,1/2-y,z
1/2+x,1/2-y,-z
1/2-x,1/2+y,-z
1/2-x,1/2-y,-z
1/2+x,1/2+y,-z
1/2-x,1/2+y,z
1/2+x,1/2-y,z
loop_
_atom_site_type_symbol
_atom_site_label
_atom_site_fract_x
_atom_site_fract_y
_atom_site_fract_z
Si Si1 0.918837 0.853188 0.329191
Si Si2 0.000000 0.086358 0.165241
Si Si3 0.386087 0.208721 0.175998
Si Si4 0.703003 0.726012 0.175057
Si Si5 0.172713 0.081160 0.328313
Si Si6 0.951384 0.583674 0.176895
O O1 0.926643 0.841433 0.500000
O O2 0.907449 0.778052 0.250853
O O3 0.877985 0.905609 0.315069
O O4 0.958859 0.887151 0.250415
O O5 0.000000 0.000000 0.160215
O O6 0.000000 0.114837 0.000000
O O7 0.335694 0.218371 0.213545
O O8 0.413426 0.138048 0.221542
O O9 0.389127 0.213855 0.000000
O O10 0.750000 0.750000 0.222382
O O11 0.693238 0.647527 0.242179
O O12 0.702851 0.720230 0.000000
O O13 0.183126 0.087081 0.500000
O O14 0.183885 0.000000 0.278395
O O15 0.944532 0.500000 0.222662
O O16 0.000000 0.605365 0.221446
O O17 0.951486 0.583866 0.000000
#
# Coordination Sequence:
#
# PCOD9488454 Si02
#       6
#    16   8  16  16  16  16
#     4  10  20  33  49  70  97 129 162 199 242 287
#     4  11  23  35  47  67  96 129 164 199 235 278
#     4   9  17  30  49  71  95 126 162 201 240 287
#     4   9  18  32  48  70 100 129 159 198 246 295
#     4   9  18  33  52  72  94 124 164 204 243 291
#     4   8  14  25  43  68  94 120 154 198 244 287
#
# _framework density 16.561192999999999
#
# number of rings (size 3 to 8) (size 9 to 14) (size 15 to 20)
#    0.000    2.818    0.000    1.909    1.273    2.909 
#    0.000    0.909    0.000    3.818    0.000    1.273 
#    0.000    0.000    0.000    0.000    0.000    0.000 
#
# Total GULP energy -245025.964900 kJ/mol
# GULP energy per Si atom -5568.771930 kJ/mol
# Density = 1.652350 g / cm^3
# Si number density = 16.561193 Si / 1000 Ang^3
#
#
#
# Elastic Constant Matrix: (Units=GPa)
#
#
# Indices 1 2 3 4 5 6 
#
# 1 138.2194 76.4465 41.2886 0.0000 0.0000 0.0000
# 2 76.4465 103.4553 21.7364 0.0000 0.0000 0.0000
# 3 41.2886 21.7364 22.4081 0.0000 0.0000 0.0000
# 4 0.0000 0.0000 0.0000 12.8014 0.0000 0.0000
# 5 0.0000 0.0000 0.0000 0.0000 17.4218 0.0000
# 6 0.0000 0.0000 0.0000 0.0000 0.0000 0.7975
#
#
#
# Elastic Compliance Matrix: (Units=1/GPa)
#
#
# Indices 1 2 3 4 5 6 
#
# 1 0.021711 -0.009593 -0.030698 0.000000 0.000000 0.000000
# 2 -0.009593 0.016379 0.001788 0.000000 0.000000 0.000000
# 3 -0.030698 0.001788 0.099456 0.000000 0.000000 0.000000
# 4 0.000000 0.000000 0.000000 0.078117 0.000000 0.000000
# 5 0.000000 0.000000 0.000000 0.000000 0.057399 0.000000
# 6 0.000000 0.000000 0.000000 0.000000 0.000000 1.253964
#
#
# Mechanical properties :
#
#
# Convention : Reuss Voigt Hill
#
# Bulk Modulus (GPa) = 16.51826 60.33622 38.42724
# Shear Modulus (GPa) = 3.07842 14.51154 8.79498
#
# Velocity S-wave (km/s) = 1.36486 2.96334 2.30697
# Velocity P-wave (km/s) = 3.53264 6.94406 5.50906
#
# Compressibility (1/GPa) = 0.06053907
#
# Stress axis : x y z
#
# Youngs Moduli (GPa) = 46.06058 61.05421 10.05468
#
# Poissons Ratio (x) = 0.58568 0.30866
# Poissons Ratio (y) = 0.44185 -0.01797
# Poissons Ratio (z) = 1.41397 -0.10914
#
# Static dielectric constant tensor:
#      x y z
#    x 1.573520 0.000000 0.000000 
#    y 0.000000 1.542850 0.000000 
#    z 0.000000 0.000000 1.546260 
# 
# From -- ./inp_files/18264.got.cif
#   From: 2010.05.17/outbox.cif.g08.bks.cpg/sg65_10_cif.got.tgz:18264.got - 2010.06.03 17:01:31.
