data_PCOD9488488
_publ_section_title
;
Structure prediction by ZEFSAII (Michael W. Deem and Ramdas Pophale) SiO2 
 PCOD9488488
Probable space group: C M M M
;
_chemical_formula_sum "Si O2"
_cell_formula_units_Z 120
_cell_length_a 29.352149
_cell_length_b 8.778517
_cell_length_c 28.935807
_cell_angle_alpha 90.000000
_cell_angle_beta 90.000000
_cell_angle_gamma 90.000000
_cell_volume 7455.841327
_symmetry_space_group_name_H-M "C M M M"
_symmetry_group_IT_number 65
_symmetry_cell_setting 'orthorhombic'
loop_
_space_group_symop_operation_xyz
x,y,z
-x,-y,z
x,-y,-z
-x,y,-z
-x,-y,-z
x,y,-z
-x,y,z
x,-y,z
1/2+x,1/2+y,z
1/2-x,1/2-y,z
1/2+x,1/2-y,-z
1/2-x,1/2+y,-z
1/2-x,1/2-y,-z
1/2+x,1/2+y,-z
1/2-x,1/2+y,z
1/2+x,1/2-y,z
loop_
_atom_site_type_symbol
_atom_site_label
_atom_site_fract_x
_atom_site_fract_y
_atom_site_fract_z
Si Si1 0.201106 0.317910 0.826485
Si Si2 0.444760 0.324740 0.500000
Si Si3 0.553631 0.182245 0.597680
Si Si4 0.391385 0.316898 0.316818
Si Si5 0.052244 0.814689 0.225885
Si Si6 0.447314 0.816596 0.946508
Si Si7 0.700931 0.817594 0.717859
Si Si8 0.609859 0.317366 0.136129
O O1 0.202052 0.500000 0.830043
O O2 0.250000 0.250000 0.839892
O O3 0.193649 0.277499 0.772212
O O4 0.159785 0.250302 0.855667
O O5 0.429605 0.500000 0.500000
O O6 0.500000 0.323757 0.500000
O O7 0.431365 0.241540 0.452730
O O8 0.500000 0.223338 0.603990
O O9 0.583370 0.256191 0.637903
O O10 0.557002 0.000000 0.599323
O O11 0.389821 0.500000 0.317530
O O12 0.420567 0.267759 0.271705
O O13 0.340819 0.251321 0.310574
O O14 0.078703 0.766768 0.179735
O O15 0.000000 0.761659 0.226385
O O16 0.051490 0.000000 0.225811
O O17 0.500000 0.774395 0.936411
O O18 0.413773 0.739516 0.910453
O O19 0.444045 0.000000 0.942693
O O20 0.438011 0.776382 0.000000
O O21 0.750000 0.750000 0.704512
O O22 0.701650 0.000000 0.714033
O O23 0.612155 0.500000 0.136610
#
# Coordination Sequence:
#
# PCOD9488488 Si02
#       8
#    16   8  16  16  16  16  16  16
#     4  10  20  34  53  75 102 133 170 211 255 304
#     4   9  17  31  51  73  96 129 176 221 261 307
#     4  10  20  33  49  72 104 139 175 217 262 305
#     4  11  20  32  50  72 103 139 174 210 254 306
#     4   9  18  30  44  67 101 137 169 203 244 293
#     4   9  19  36  55  75 102 136 173 213 256 301
#     4  10  20  34  52  73 100 132 171 214 257 303
#     4  11  20  32  52  77 105 134 170 211 256 305
#
# _framework density 16.094763
#
# number of rings (size 3 to 8) (size 9 to 14) (size 15 to 20)
#    0.000    2.067    1.333    3.400    0.000    4.267 
#    0.000    0.667    0.000    3.600    0.000    0.467 
#    0.000    0.000    0.000    0.000    0.000    0.000 
#
# Total GULP energy -334904.224509 kJ/mol
# GULP energy per Si atom -5581.737075 kJ/mol
# Density = 1.605813 g / cm^3
# Si number density = 16.094763 Si / 1000 Ang^3
#
#
#
# Elastic Constant Matrix: (Units=GPa)
#
#
# Indices 1 2 3 4 5 6 
#
# 1 143.5051 50.9370 83.9511 0.0000 0.0000 0.0000
# 2 50.9370 53.7087 45.4925 0.0000 0.0000 0.0000
# 3 83.9511 45.4925 115.9574 0.0000 0.0000 0.0000
# 4 0.0000 0.0000 0.0000 26.4945 0.0000 0.0000
# 5 0.0000 0.0000 0.0000 0.0000 11.0956 0.0000
# 6 0.0000 0.0000 0.0000 0.0000 0.0000 24.6032
#
#
#
# Elastic Compliance Matrix: (Units=1/GPa)
#
#
# Indices 1 2 3 4 5 6 
#
# 1 0.013570 -0.006812 -0.007152 0.000000 0.000000 0.000000
# 2 -0.006812 0.031305 -0.007350 0.000000 0.000000 0.000000
# 3 -0.007152 -0.007350 0.016685 0.000000 0.000000 0.000000
# 4 0.000000 0.000000 0.000000 0.037744 0.000000 0.000000
# 5 0.000000 0.000000 0.000000 0.000000 0.090126 0.000000
# 6 0.000000 0.000000 0.000000 0.000000 0.000000 0.040645
#
#
# Mechanical properties :
#
#
# Convention : Reuss Voigt Hill
#
# Bulk Modulus (GPa) = 52.81880 74.88139 63.85009
# Shear Modulus (GPa) = 17.92022 21.29134 19.60578
#
# Velocity S-wave (km/s) = 3.34041 3.64108 3.49398
# Velocity P-wave (km/s) = 6.91133 8.01891 7.48563
#
# Compressibility (1/GPa) = 0.01893265
#
# Stress axis : x y z
#
# Youngs Moduli (GPa) = 73.68983 31.94390 59.93252
#
# Poissons Ratio (x) = 0.21760 0.42865
# Poissons Ratio (y) = 0.50197 0.44049
# Poissons Ratio (z) = 0.52705 0.23478
#
# Static dielectric constant tensor:
#      x y z
#    x 1.519140 0.000000 0.000000 
#    y 0.000000 1.534160 0.000000 
#    z 0.000000 0.000000 1.519260 
# 
# From -- ./inp_files/76147.got.cif
#   From: 2010.05.17/outbox.cif.g08.bks.cpg/sg65_39_cif.got.tgz:76147.got - 2010.06.03 17:01:31.
