data_PCOD9488822
_publ_section_title
;
Structure prediction by ZEFSAII (Michael W. Deem and Ramdas Pophale) SiO2 
 PCOD9488822
Probable space group: C M M M
;
_chemical_formula_sum "Si O2"
_cell_formula_units_Z 56
_cell_length_a 9.018835
_cell_length_b 18.130125
_cell_length_c 18.727860
_cell_angle_alpha 90.000000
_cell_angle_beta 90.000000
_cell_angle_gamma 90.000000
_cell_volume 3062.241192
_symmetry_space_group_name_H-M "C M M M"
_symmetry_group_IT_number 65
_symmetry_cell_setting 'orthorhombic'
loop_
_space_group_symop_operation_xyz
x,y,z
-x,-y,z
x,-y,-z
-x,y,-z
-x,-y,-z
x,y,-z
-x,y,z
x,-y,z
1/2+x,1/2+y,z
1/2-x,1/2-y,z
1/2+x,1/2-y,-z
1/2-x,1/2+y,-z
1/2-x,1/2-y,-z
1/2+x,1/2+y,-z
1/2-x,1/2+y,z
1/2+x,1/2-y,z
loop_
_atom_site_type_symbol
_atom_site_label
_atom_site_fract_x
_atom_site_fract_y
_atom_site_fract_z
Si Si1 0.819787 0.084328 0.500000
Si Si2 0.326941 0.911065 0.224443
Si Si3 0.178063 0.169649 0.356338
Si Si4 0.826985 0.089637 0.920862
O O1 0.774960 0.126631 0.571743
O O2 0.000000 0.082606 0.500000
O O3 0.766998 0.000000 0.500000
O O4 0.500000 0.892944 0.232528
O O5 0.233496 0.874516 0.287285
O O6 0.268096 0.886153 0.146817
O O7 0.311234 0.000000 0.228202
O O8 0.250000 0.250000 0.356294
O O9 0.000000 0.174988 0.355730
O O10 0.000000 0.109619 0.911563
O O11 0.821154 0.000000 0.921562
O O12 0.777847 0.114437 0.000000
#
# Coordination Sequence:
#
# PCOD9488822 Si02
#       4
#     8  16  16  16
#     4   9  19  36  59  85 108 135 174 217 262 314
#     4  10  20  33  51  78 110 142 180 224 268 316
#     4  11  22  37  57  79 108 143 179 219 264 317
#     4   8  14  26  46  73 104 138 177 220 266 315
#
# _framework density 18.28726
#
# number of rings (size 3 to 8) (size 9 to 14) (size 15 to 20)
#    0.000    2.429    0.000    3.857    0.000    3.429 
#    0.000    5.000    0.000    6.000    0.000    0.000 
#    0.000    0.000    0.000    0.000    0.000    0.000 
#
# Total GULP energy -156217.510842 kJ/mol
# GULP energy per Si atom -5579.196816 kJ/mol
# Density = 1.824564 g / cm^3
# Si number density = 18.287260 Si / 1000 Ang^3
#
#
#
# Elastic Constant Matrix: (Units=GPa)
#
#
# Indices 1 2 3 4 5 6 
#
# 1 78.6078 39.3611 68.5289 0.0000 0.0000 0.0000
# 2 39.3611 45.4997 45.7158 0.0000 0.0000 0.0000
# 3 68.5289 45.7158 172.5696 0.0000 0.0000 0.0000
# 4 0.0000 0.0000 0.0000 -12.5913 0.0000 0.0000
# 5 0.0000 0.0000 0.0000 0.0000 6.1303 0.0000
# 6 0.0000 0.0000 0.0000 0.0000 0.0000 19.4136
#
#
#
# Elastic Compliance Matrix: (Units=1/GPa)
#
#
# Indices 1 2 3 4 5 6 
#
# 1 0.026368 -0.016748 -0.006034 0.000000 0.000000 0.000000
# 2 -0.016748 0.040587 -0.004101 0.000000 0.000000 0.000000
# 3 -0.006034 -0.004101 0.009278 0.000000 0.000000 0.000000
# 4 0.000000 0.000000 0.000000 -0.079420 0.000000 0.000000
# 5 0.000000 0.000000 0.000000 0.000000 0.163125 0.000000
# 6 0.000000 0.000000 0.000000 0.000000 0.000000 0.051510
#
#
# Mechanical properties :
#
#
# Convention : Reuss Voigt Hill
#
# Bulk Modulus (GPa) = 44.51157 67.09873 55.80515
# Shear Modulus (GPa) = 18.33495 12.12860 15.23178
#
# Velocity S-wave (km/s) = 3.16983 2.57811 2.88916
# Velocity P-wave (km/s) = 6.14737 6.75525 6.45847
#
# Compressibility (1/GPa) = 0.02246607
#
# Stress axis : x y z
#
# Youngs Moduli (GPa) = 37.92478 24.63833 107.78699
#
# Poissons Ratio (x) = 0.41263 0.65042
# Poissons Ratio (y) = 0.63515 0.44208
# Poissons Ratio (z) = 0.22885 0.10105
#
# Static dielectric constant tensor:
#      x y z
#    x 1.608630 0.000000 0.000000 
#    y 0.000000 1.612080 0.000000 
#    z 0.000000 0.000000 1.623600 
# 
# From -- ./inp_files/43548.got.cif
#   From: 2010.05.17/outbox.cif.g08.bks.cpg/sg65_22_cif.got.tgz:43548.got - 2010.06.03 17:01:31.
