data_PCOD9488854
_publ_section_title
;
Structure prediction by ZEFSAII (Michael W. Deem and Ramdas Pophale) SiO2 
 PCOD9488854
Probable space group: C M M M
;
_chemical_formula_sum "Si O2"
_cell_formula_units_Z 120
_cell_length_a 28.052700
_cell_length_b 27.747939
_cell_length_c 8.942448
_cell_angle_alpha 90.000000
_cell_angle_beta 90.000000
_cell_angle_gamma 90.000000
_cell_volume 6960.842733
_symmetry_space_group_name_H-M "C M M M"
_symmetry_group_IT_number 65
_symmetry_cell_setting 'orthorhombic'
loop_
_space_group_symop_operation_xyz
x,y,z
-x,-y,z
x,-y,-z
-x,y,-z
-x,-y,-z
x,y,-z
-x,y,z
x,-y,z
1/2+x,1/2+y,z
1/2-x,1/2-y,z
1/2+x,1/2-y,-z
1/2-x,1/2+y,-z
1/2-x,1/2-y,-z
1/2+x,1/2+y,-z
1/2-x,1/2+y,z
1/2+x,1/2-y,z
loop_
_atom_site_type_symbol
_atom_site_label
_atom_site_fract_x
_atom_site_fract_y
_atom_site_fract_z
Si Si1 0.885244 0.092835 0.819334
Si Si2 0.555551 0.209692 0.321314
Si Si3 0.363138 0.146854 0.178066
Si Si4 0.316002 0.944819 0.319881
Si Si5 0.444203 0.312930 0.179296
Si Si6 0.554359 0.500000 0.817703
Si Si7 0.216304 0.896345 0.678273
Si Si8 0.262315 0.195419 0.178869
O O1 0.910601 0.142915 0.774842
O O2 0.917769 0.047939 0.771966
O O3 0.832788 0.088246 0.753004
O O4 0.882486 0.092715 0.000000
O O5 0.559867 0.209578 0.500000
O O6 0.500000 0.200725 0.282226
O O7 0.590729 0.170692 0.251081
O O8 0.567781 0.262726 0.258380
O O9 0.349761 0.094692 0.244080
O O10 0.317081 0.180864 0.209692
O O11 0.368613 0.143939 0.000000
O O12 0.320428 0.940924 0.500000
O O13 0.261561 0.929907 0.281416
O O14 0.325447 0.000000 0.276574
O O15 0.500000 0.324300 0.209990
O O16 0.439701 0.306587 0.000000
O O17 0.500000 0.500000 0.765488
O O18 0.553334 0.500000 0.000000
O O19 0.211600 0.896568 0.500000
O O20 0.230004 0.843215 0.736281
O O21 0.250000 0.250000 0.220548
O O22 0.254605 0.190238 0.000000
#
# Coordination Sequence:
#
# PCOD9488854 Si02
#       8
#    16  16  16  16  16   8  16  16
#     4  10  20  33  52  76 102 134 175 226 278 324
#     4  10  21  36  55  80 111 145 178 214 257 311
#     4  10  20  34  55  83 110 140 176 219 268 314
#     4   9  19  37  58  77 104 143 180 216 260 317
#     4   9  18  33  52  73  99 135 178 222 268 317
#     4   9  18  34  55  77  99 131 181 235 282 327
#     4  10  21  34  50  76 106 139 177 215 259 312
#     4   9  19  35  53  74 105 141 175 215 262 312
#
# _framework density 17.239291999999999
#
# number of rings (size 3 to 8) (size 9 to 14) (size 15 to 20)
#    0.000    2.467    0.000    1.600    2.800    4.533 
#    0.000    0.000    0.000    2.000    0.000    2.800 
#    0.000    0.000    0.000    0.000    0.000    0.000 
#
# Total GULP energy -334849.518286 kJ/mol
# GULP energy per Si atom -5580.825305 kJ/mol
# Density = 1.720005 g / cm^3
# Si number density = 17.239292 Si / 1000 Ang^3
#
#
#
# Elastic Constant Matrix: (Units=GPa)
#
#
# Indices 1 2 3 4 5 6 
#
# 1 118.4657 89.5634 44.6869 0.0000 0.0000 0.0000
# 2 89.5634 157.4009 49.2895 0.0000 0.0000 0.0000
# 3 44.6869 49.2895 28.6823 0.0000 0.0000 0.0000
# 4 0.0000 0.0000 0.0000 13.6698 0.0000 0.0000
# 5 0.0000 0.0000 0.0000 0.0000 27.6948 0.0000
# 6 0.0000 0.0000 0.0000 0.0000 0.0000 16.8314
#
#
#
# Elastic Compliance Matrix: (Units=1/GPa)
#
#
# Indices 1 2 3 4 5 6 
#
# 1 0.021459 -0.003770 -0.026955 0.000000 0.000000 0.000000
# 2 -0.003770 0.014418 -0.018903 0.000000 0.000000 0.000000
# 3 -0.026955 -0.018903 0.109345 0.000000 0.000000 0.000000
# 4 0.000000 0.000000 0.000000 0.073154 0.000000 0.000000
# 5 0.000000 0.000000 0.000000 0.000000 0.036108 0.000000
# 6 0.000000 0.000000 0.000000 0.000000 0.000000 0.059413
#
#
# Mechanical properties :
#
#
# Convention : Reuss Voigt Hill
#
# Bulk Modulus (GPa) = 21.75525 74.62539 48.19032
# Shear Modulus (GPa) = 11.66930 19.70646 15.68788
#
# Velocity S-wave (km/s) = 2.60456 3.38466 3.01991
# Velocity P-wave (km/s) = 4.65746 7.65876 6.33831
#
# Compressibility (1/GPa) = 0.04596592
#
# Stress axis : x y z
#
# Youngs Moduli (GPa) = 46.60032 69.35969 9.14535
#
# Poissons Ratio (x) = 0.26146 0.24652
# Poissons Ratio (y) = 0.17566 0.17288
# Poissons Ratio (z) = 1.25612 1.31112
#
# Static dielectric constant tensor:
#      x y z
#    x 1.571560 0.000000 0.000000 
#    y 0.000000 1.563230 0.000000 
#    z 0.000000 0.000000 1.575490 
# 
# From -- ./inp_files/17052.got.cif
#   From: 2010.05.17/outbox.cif.g08.bks.cpg/sg65_9_cif.got.tgz:17052.got - 2010.06.03 17:01:31.
