data_PCOD9488146
_publ_section_title
;
Structure prediction by ZEFSAII (Michael W. Deem and Ramdas Pophale) SiO2 
 PCOD9488146
Probable space group: C M M M
;
_chemical_formula_sum "Si O2"
_cell_formula_units_Z 104
_cell_length_a 8.726234
_cell_length_b 30.952059
_cell_length_c 23.684406
_cell_angle_alpha 90.000000
_cell_angle_beta 90.000000
_cell_angle_gamma 90.000000
_cell_volume 6397.037498
_symmetry_space_group_name_H-M "C M M M"
_symmetry_group_IT_number 65
_symmetry_cell_setting 'orthorhombic'
loop_
_space_group_symop_operation_xyz
x,y,z
-x,-y,z
x,-y,-z
-x,y,-z
-x,-y,-z
x,y,-z
-x,y,z
x,-y,z
1/2+x,1/2+y,z
1/2-x,1/2-y,z
1/2+x,1/2-y,-z
1/2-x,1/2+y,-z
1/2-x,1/2-y,-z
1/2+x,1/2+y,-z
1/2-x,1/2+y,z
1/2+x,1/2-y,z
loop_
_atom_site_type_symbol
_atom_site_label
_atom_site_fract_x
_atom_site_fract_y
_atom_site_fract_z
Si Si1 0.318488 0.912984 0.610803
Si Si2 0.181316 0.116453 0.727763
Si Si3 0.317543 0.050517 0.181329
Si Si4 0.325867 0.500000 0.567036
Si Si5 0.321748 0.552271 0.937855
Si Si6 0.684381 0.204569 0.686819
Si Si7 0.315905 0.821284 0.438527
O O1 0.500000 0.912914 0.623210
O O2 0.227092 0.904667 0.668095
O O3 0.289503 0.872567 0.569348
O O4 0.264346 0.957710 0.585687
O O5 0.242750 0.084349 0.775836
O O6 0.257730 0.163885 0.723153
O O7 0.000000 0.121192 0.732932
O O8 0.500000 0.051302 0.188456
O O9 0.273527 0.063768 0.117414
O O10 0.267196 0.000000 0.190086
O O11 0.500000 0.500000 0.589999
O O12 0.335010 0.500000 0.500000
O O13 0.500000 0.564995 0.930860
O O14 0.318943 0.500000 0.939686
O O15 0.268444 0.567392 0.000000
O O16 0.500000 0.204446 0.686553
O O17 0.750000 0.250000 0.707259
O O18 0.738935 0.198491 0.621040
O O19 0.254648 0.806887 0.500000
O O20 0.500000 0.814597 0.439493
#
# Coordination Sequence:
#
# PCOD9488146 Si02
#       7
#    16  16  16   8  16  16  16
#     4  10  20  34  51  68  90 122 160 202 246 294
#     4  11  22  36  53  72  98 129 165 208 255 301
#     4  10  20  32  48  72 103 138 176 213 249 293
#     4  11  23  35  47  67  93 121 158 201 244 295
#     4   8  14  26  44  67  98 136 175 211 247 286
#     4  10  20  35  54  75  99 126 159 199 248 304
#     4   8  15  29  49  71  93 117 147 186 235 292
#
# _framework density 16.257525000000001
#
# number of rings (size 3 to 8) (size 9 to 14) (size 15 to 20)
#    0.000    2.385    0.000    4.846    1.077    2.769 
#    0.000    1.538    0.000    8.769    0.000    0.000 
#    0.000    0.615    0.000    2.308    0.000    3.538 
#
# Total GULP energy -289835.697619 kJ/mol
# GULP energy per Si atom -5573.763416 kJ/mol
# Density = 1.622052 g / cm^3
# Si number density = 16.257525 Si / 1000 Ang^3
#
#
#
# Elastic Constant Matrix: (Units=GPa)
#
#
# Indices 1 2 3 4 5 6 
#
# 1 66.0844 33.7164 33.4819 0.0000 0.0000 0.0000
# 2 33.7164 99.9591 39.4890 0.0000 0.0000 0.0000
# 3 33.4819 39.4890 90.8145 0.0000 0.0000 0.0000
# 4 0.0000 0.0000 0.0000 -13.9088 0.0000 0.0000
# 5 0.0000 0.0000 0.0000 0.0000 22.9350 0.0000
# 6 0.0000 0.0000 0.0000 0.0000 0.0000 22.5874
#
#
#
# Elastic Compliance Matrix: (Units=1/GPa)
#
#
# Indices 1 2 3 4 5 6 
#
# 1 0.020281 -0.004693 -0.005437 0.000000 0.000000 0.000000
# 2 -0.004693 0.013165 -0.003994 0.000000 0.000000 0.000000
# 3 -0.005437 -0.003994 0.014753 0.000000 0.000000 0.000000
# 4 0.000000 0.000000 0.000000 -0.071897 0.000000 0.000000
# 5 0.000000 0.000000 0.000000 0.000000 0.043602 0.000000
# 6 0.000000 0.000000 0.000000 0.000000 0.000000 0.044273
#
#
# Mechanical properties :
#
#
# Convention : Reuss Voigt Hill
#
# Bulk Modulus (GPa) = 50.12336 52.24809 51.18573
# Shear Modulus (GPa) = 50.46724 16.33408 33.40066
#
# Velocity S-wave (km/s) = 5.57761 3.17315 4.53755
# Velocity P-wave (km/s) = 8.50750 6.75520 7.68148
#
# Compressibility (1/GPa) = 0.01995078
#
# Stress axis : x y z
#
# Youngs Moduli (GPa) = 49.30709 75.95873 67.78421
#
# Poissons Ratio (x) = 0.35648 0.36852
# Poissons Ratio (y) = 0.23140 0.27075
# Poissons Ratio (z) = 0.26806 0.30340
#
# Static dielectric constant tensor:
#      x y z
#    x 1.555850 0.000000 0.000000 
#    y 0.000000 1.533860 0.000000 
#    z 0.000000 0.000000 1.553430 
# 
# From -- ./inp_files/68512.got.cif
#   From: 2010.05.17/outbox.cif.g08.bks.cpg/sg65_35_cif.got.tgz:68512.got - 2010.06.03 17:01:31.
