data_PCOD9488369
_publ_section_title
;
Structure prediction by ZEFSAII (Michael W. Deem and Ramdas Pophale) SiO2 
 PCOD9488369
Probable space group: C M M M
;
_chemical_formula_sum "Si O2"
_cell_formula_units_Z 112
_cell_length_a 7.429838
_cell_length_b 28.626796
_cell_length_c 24.795149
_cell_angle_alpha 90.000000
_cell_angle_beta 90.000000
_cell_angle_gamma 90.000000
_cell_volume 5273.741156
_symmetry_space_group_name_H-M "C M M M"
_symmetry_group_IT_number 65
_symmetry_cell_setting 'orthorhombic'
loop_
_space_group_symop_operation_xyz
x,y,z
-x,-y,z
x,-y,-z
-x,y,-z
-x,-y,-z
x,y,-z
-x,y,z
x,-y,z
1/2+x,1/2+y,z
1/2-x,1/2-y,z
1/2+x,1/2-y,-z
1/2-x,1/2+y,-z
1/2-x,1/2-y,-z
1/2+x,1/2+y,-z
1/2-x,1/2+y,z
1/2+x,1/2-y,z
loop_
_atom_site_type_symbol
_atom_site_label
_atom_site_fract_x
_atom_site_fract_y
_atom_site_fract_z
Si Si1 0.719677 0.605029 0.060165
Si Si2 0.783534 0.550071 0.436471
Si Si3 0.290616 0.346309 0.560948
Si Si4 0.280636 0.552494 0.832215
Si Si5 0.284575 0.696700 0.332406
Si Si6 0.714432 0.696132 0.879218
Si Si7 0.719930 0.644490 0.772117
O O1 0.500000 0.604405 0.059462
O O2 0.773839 0.570330 0.108241
O O3 0.777715 0.657169 0.078223
O O4 0.780576 0.593439 0.000000
O O5 0.734674 0.549286 0.500000
O O6 0.722297 0.500000 0.413114
O O7 0.717614 0.600236 0.417466
O O8 0.000000 0.550907 0.433210
O O9 0.212604 0.344299 0.500000
O O10 0.500000 0.334030 0.555399
O O11 0.210974 0.314561 0.608024
O O12 0.500000 0.552210 0.831810
O O13 0.219634 0.500000 0.821109
O O14 0.224730 0.592620 0.790225
O O15 0.500000 0.690169 0.335057
O O16 0.250000 0.750000 0.317229
O O17 0.216819 0.662598 0.285537
O O18 0.500000 0.691131 0.877925
O O19 0.750000 0.750000 0.891090
O O20 0.778248 0.679649 0.820023
O O21 0.500000 0.644932 0.771387
#
# Coordination Sequence:
#
# PCOD9488369 Si02
#       7
#    16  16  16  16  16  16  16
#     4   8  14  23  34  53  83 114 141 171 208 247
#     4   8  14  26  45  67  89 115 147 178 207 245
#     4   9  18  31  45  64  91 118 144 178 220 264
#     4   8  13  22  38  59  83 112 141 169 206 252
#     4  10  20  33  48  65  86 113 145 181 220 262
#     4   9  16  26  41  59  81 111 143 175 212 249
#     4   8  15  28  43  60  83 108 137 175 215 254
#
# _framework density 21.237297000000002
#
# number of rings (size 3 to 8) (size 9 to 14) (size 15 to 20)
#    0.000    3.429    0.000    2.571    0.000    1.714 
#    0.000    3.571    0.000    2.571    0.000    0.000 
#    0.000   13.714    0.000    5.143    0.000    5.714 
#
# Total GULP energy -312087.250083 kJ/mol
# GULP energy per Si atom -5572.986609 kJ/mol
# Density = 2.118896 g / cm^3
# Si number density = 21.237297 Si / 1000 Ang^3
#
#
#
# Elastic Constant Matrix: (Units=GPa)
#
#
# Indices 1 2 3 4 5 6 
#
# 1 63.7661 -5.2415 7.5627 0.0000 0.0000 0.0000
# 2 -5.2415 135.6094 65.6315 0.0000 0.0000 0.0000
# 3 7.5627 65.6315 126.5431 0.0000 0.0000 0.0000
# 4 0.0000 0.0000 0.0000 15.5242 0.0000 0.0000
# 5 0.0000 0.0000 0.0000 0.0000 -11.0093 0.0000
# 6 0.0000 0.0000 0.0000 0.0000 0.0000 16.1365
#
#
#
# Elastic Compliance Matrix: (Units=1/GPa)
#
#
# Indices 1 2 3 4 5 6 
#
# 1 0.016003 0.001444 -0.001705 0.000000 0.000000 0.000000
# 2 0.001444 0.009976 -0.005260 0.000000 0.000000 0.000000
# 3 -0.001705 -0.005260 0.010733 0.000000 0.000000 0.000000
# 4 0.000000 0.000000 0.000000 0.064415 0.000000 0.000000
# 5 0.000000 0.000000 0.000000 0.000000 -0.090833 0.000000
# 6 0.000000 0.000000 0.000000 0.000000 0.000000 0.061971
#
#
# Mechanical properties :
#
#
# Convention : Reuss Voigt Hill
#
# Bulk Modulus (GPa) = 38.95856 51.31380 45.13618
# Shear Modulus (GPa) = 54.42770 21.32801 37.87786
#
# Velocity S-wave (km/s) = 5.06794 3.17246 4.22780
# Velocity P-wave (km/s) = 7.25462 6.13465 6.71802
#
# Compressibility (1/GPa) = 0.02566830
#
# Stress axis : x y z
#
# Youngs Moduli (GPa) = 62.48731 100.24323 93.17442
#
# Poissons Ratio (x) = -0.14474 0.15889
# Poissons Ratio (y) = -0.09022 0.49012
# Poissons Ratio (z) = 0.10656 0.52730
#
# Static dielectric constant tensor:
#      x y z
#    x 1.813460 0.000000 0.000000 
#    y 0.000000 1.776340 0.000000 
#    z 0.000000 0.000000 1.763990 
# 
# From -- ./inp_files/69237.got.cif
#   From: 2010.05.17/outbox.cif.g08.bks.cpg/sg65_35_cif.got.tgz:69237.got - 2010.06.03 17:01:31.
