data_PCOD9488313
_publ_section_title
;
Structure prediction by ZEFSAII (Michael W. Deem and Ramdas Pophale) SiO2 
 PCOD9488313
Probable space group: C M M M
;
_chemical_formula_sum "Si O2"
_cell_formula_units_Z 64
_cell_length_a 11.147285
_cell_length_b 15.742342
_cell_length_c 16.822789
_cell_angle_alpha 90.000000
_cell_angle_beta 90.000000
_cell_angle_gamma 90.000000
_cell_volume 2952.136577
_symmetry_space_group_name_H-M "C M M M"
_symmetry_group_IT_number 65
_symmetry_cell_setting 'orthorhombic'
loop_
_space_group_symop_operation_xyz
x,y,z
-x,-y,z
x,-y,-z
-x,y,-z
-x,-y,-z
x,y,-z
-x,y,z
x,-y,z
1/2+x,1/2+y,z
1/2-x,1/2-y,z
1/2+x,1/2-y,-z
1/2-x,1/2+y,-z
1/2-x,1/2-y,-z
1/2+x,1/2+y,-z
1/2-x,1/2+y,z
1/2+x,1/2-y,z
loop_
_atom_site_type_symbol
_atom_site_label
_atom_site_fract_x
_atom_site_fract_y
_atom_site_fract_z
Si Si1 0.000000 0.346798 0.664359
Si Si2 0.000000 0.602377 0.843094
Si Si3 0.266890 0.599994 0.138539
Si Si4 0.628045 0.300474 0.000000
Si Si5 0.760241 0.147353 0.677014
Si Si6 0.500000 0.655936 0.405668
O O1 0.130623 0.387186 0.647590
O O2 0.000000 0.254527 0.623731
O O3 0.000000 0.344376 0.760996
O O4 0.127265 0.619365 0.884185
O O5 0.000000 0.500000 0.823491
O O6 0.282558 0.500000 0.132380
O O7 0.278415 0.626449 0.230304
O O8 0.358366 0.644478 0.079914
O O9 0.750000 0.250000 0.000000
O O10 0.500000 0.256507 0.000000
O O11 0.750000 0.250000 0.670255
O O12 0.876939 0.118271 0.629280
O O13 0.500000 0.652509 0.500000
#
# Coordination Sequence:
#
# PCOD9488313 Si02
#       6
#     8   8  16   8  16   8
#     4   8  16  30  51  78 110 144 190 243 283 342
#     4   8  16  33  60  89 116 156 200 241 295 361
#     4  10  21  39  64  91 122 157 201 251 300 354
#     4  12  29  45  62  90 124 163 202 249 297 351
#     4   9  18  34  55  82 115 154 195 243 294 355
#     4  10  20  32  51  81 113 150 195 244 305 360
#
# _framework density 21.679213000000001
#
# number of rings (size 3 to 8) (size 9 to 14) (size 15 to 20)
#    0.000    2.500    0.000    1.125    3.500    5.500 
#    4.500    1.875    0.000    1.875    0.000   10.500 
#    0.000    0.000    0.000    0.000    0.000    0.000 
#
# Total GULP energy -178506.959220 kJ/mol
# GULP energy per Si atom -5578.342476 kJ/mol
# Density = 2.162987 g / cm^3
# Si number density = 21.679213 Si / 1000 Ang^3
#
#
#
# Elastic Constant Matrix: (Units=GPa)
#
#
# Indices 1 2 3 4 5 6 
#
# 1 213.1799 31.1689 79.6660 0.0000 0.0000 0.0000
# 2 31.1689 30.0514 15.9541 0.0000 0.0000 0.0000
# 3 79.6660 15.9541 85.4677 0.0000 0.0000 0.0000
# 4 0.0000 0.0000 0.0000 -150.9932 0.0000 0.0000
# 5 0.0000 0.0000 0.0000 0.0000 23.9153 0.0000
# 6 0.0000 0.0000 0.0000 0.0000 0.0000 11.9268
#
#
#
# Elastic Compliance Matrix: (Units=1/GPa)
#
#
# Indices 1 2 3 4 5 6 
#
# 1 0.007745 -0.004663 -0.006349 0.000000 0.000000 0.000000
# 2 -0.004663 0.039744 -0.003073 0.000000 0.000000 0.000000
# 3 -0.006349 -0.003073 0.018192 0.000000 0.000000 0.000000
# 4 0.000000 0.000000 0.000000 -0.006623 0.000000 0.000000
# 5 0.000000 0.000000 0.000000 0.000000 0.041814 0.000000
# 6 0.000000 0.000000 0.000000 0.000000 0.000000 0.083845
#
#
# Mechanical properties :
#
#
# Convention : Reuss Voigt Hill
#
# Bulk Modulus (GPa) = 26.65821 64.69742 45.67782
# Shear Modulus (GPa) = 22.18373 -9.56955 6.30709
#
# Velocity S-wave (km/s) = 3.20233 -2.10327 1.70751
# Velocity P-wave (km/s) = 5.09869 4.89995 5.00031
#
# Compressibility (1/GPa) = 0.03751189
#
# Stress axis : x y z
#
# Youngs Moduli (GPa) = 129.11079 25.16133 54.96894
#
# Poissons Ratio (x) = 0.11732 0.34901
# Poissons Ratio (y) = 0.60199 0.16891
# Poissons Ratio (z) = 0.81975 0.07732
#
# Static dielectric constant tensor:
#      x y z
#    x 1.852330 0.000000 0.000000 
#    y 0.000000 1.781280 0.000000 
#    z 0.000000 0.000000 1.959900 
# 
# From -- ./inp_files/37827.got.cif
#   From: 2010.05.17/outbox.cif.g08.bks.cpg/sg65_19_cif.got.tgz:37827.got - 2010.06.03 17:01:31.
