data_PCOD9488338
_publ_section_title
;
Structure prediction by ZEFSAII (Michael W. Deem and Ramdas Pophale) SiO2 
 PCOD9488338
Probable space group: C M M M
;
_chemical_formula_sum "Si O2"
_cell_formula_units_Z 72
_cell_length_a 26.227807
_cell_length_b 7.755240
_cell_length_c 17.943980
_cell_angle_alpha 90.000000
_cell_angle_beta 90.000000
_cell_angle_gamma 90.000000
_cell_volume 3649.858251
_symmetry_space_group_name_H-M "C M M M"
_symmetry_group_IT_number 65
_symmetry_cell_setting 'orthorhombic'
loop_
_space_group_symop_operation_xyz
x,y,z
-x,-y,z
x,-y,-z
-x,y,-z
-x,-y,-z
x,y,-z
-x,y,z
x,-y,z
1/2+x,1/2+y,z
1/2-x,1/2-y,z
1/2+x,1/2-y,-z
1/2-x,1/2+y,-z
1/2-x,1/2-y,-z
1/2+x,1/2+y,-z
1/2-x,1/2+y,z
1/2+x,1/2-y,z
loop_
_atom_site_type_symbol
_atom_site_label
_atom_site_fract_x
_atom_site_fract_y
_atom_site_fract_z
Si Si1 0.500000 0.698631 0.618953
Si Si2 0.609208 0.294250 0.794467
Si Si3 0.500000 0.301238 0.199527
Si Si4 0.691624 0.205060 0.916605
Si Si5 0.112325 0.787948 0.375139
Si Si6 0.690398 0.707158 0.500000
O O1 0.500000 0.500000 0.593014
O O2 0.500000 0.696252 0.709729
O O3 0.555675 0.771100 0.598746
O O4 0.602142 0.500000 0.786772
O O5 0.554402 0.222118 0.821241
O O6 0.653270 0.265493 0.853424
O O7 0.620295 0.232017 0.710494
O O8 0.500000 0.500000 0.172601
O O9 0.750000 0.250000 0.898767
O O10 0.687614 0.000000 0.919834
O O11 0.680554 0.274962 0.000000
O O12 0.158123 0.731977 0.428310
O O13 0.110824 0.000000 0.376354
O O14 0.687427 0.500000 0.500000
O O15 0.750000 0.750000 0.500000
#
# Coordination Sequence:
#
# PCOD9488338 Si02
#       6
#     8  16   8  16  16   8
#     4   7  10  21  42  69  95 115 145 194 241 272
#     4   9  16  30  52  75  98 126 160 194 232 282
#     4   7  12  24  45  72 100 126 151 186 232 281
#     4  10  21  36  52  71  95 123 157 199 244 285
#     4   8  15  27  46  71  96 122 154 194 236 276
#     4  10  20  33  45  63  95 130 161 194 234 276
#
# _framework density 19.726794000000002
#
# number of rings (size 3 to 8) (size 9 to 14) (size 15 to 20)
#    0.000    3.333    0.000    3.333    0.000    2.667 
#    0.000    6.667    0.000    3.333    0.000    3.111 
#    0.000    0.000    0.000    0.000    0.000    0.000 
#
# Total GULP energy -200512.371882 kJ/mol
# GULP energy per Si atom -5569.788108 kJ/mol
# Density = 1.968190 g / cm^3
# Si number density = 19.726794 Si / 1000 Ang^3
#
#
#
# Elastic Constant Matrix: (Units=GPa)
#
#
# Indices 1 2 3 4 5 6 
#
# 1 209.7500 1.2788 119.1699 0.0000 0.0000 0.0000
# 2 1.2788 24.9629 4.0418 0.0000 0.0000 0.0000
# 3 119.1699 4.0418 115.4427 0.0000 0.0000 0.0000
# 4 0.0000 0.0000 0.0000 -9.5771 0.0000 0.0000
# 5 0.0000 0.0000 0.0000 0.0000 76.1989 0.0000
# 6 0.0000 0.0000 0.0000 0.0000 0.0000 16.3108
#
#
#
# Elastic Compliance Matrix: (Units=1/GPa)
#
#
# Indices 1 2 3 4 5 6 
#
# 1 0.011575 0.001349 -0.011996 0.000000 0.000000 0.000000
# 2 0.001349 0.040445 -0.002809 0.000000 0.000000 0.000000
# 3 -0.011996 -0.002809 0.021144 0.000000 0.000000 0.000000
# 4 0.000000 0.000000 0.000000 -0.104415 0.000000 0.000000
# 5 0.000000 0.000000 0.000000 0.000000 0.013124 0.000000
# 6 0.000000 0.000000 0.000000 0.000000 0.000000 0.061309
#
#
# Mechanical properties :
#
#
# Convention : Reuss Voigt Hill
#
# Bulk Modulus (GPa) = 21.62028 66.57073 44.09550
# Shear Modulus (GPa) = 58.47358 31.63086 45.05222
#
# Velocity S-wave (km/s) = 5.45033 4.00865 4.78411
# Velocity P-wave (km/s) = 7.11279 7.43272 7.27451
#
# Compressibility (1/GPa) = 0.04625287
#
# Stress axis : x y z
#
# Youngs Moduli (GPa) = 86.39531 24.72492 47.29567
#
# Poissons Ratio (x) = -0.03336 0.56734
# Poissons Ratio (y) = -0.11657 0.13285
# Poissons Ratio (z) = 1.03637 0.06945
#
# Static dielectric constant tensor:
#      x y z
#    x 1.536670 0.000000 0.000000 
#    y 0.000000 1.758940 0.000000 
#    z 0.000000 0.000000 1.693530 
# 
# From -- ./inp_files/57190.got.cif
#   From: 2010.05.17/outbox.cif.g08.bks.cpg/sg65_29_cif.got.tgz:57190.got - 2010.06.03 17:01:31.
