data_PCOD9488749
_publ_section_title
;
Structure prediction by ZEFSAII (Michael W. Deem and Ramdas Pophale) SiO2 
 PCOD9488749
Probable space group: C M M M
;
_chemical_formula_sum "Si O2"
_cell_formula_units_Z 104
_cell_length_a 19.871092
_cell_length_b 8.570284
_cell_length_c 33.654866
_cell_angle_alpha 90.000000
_cell_angle_beta 90.000000
_cell_angle_gamma 90.000000
_cell_volume 5731.454031
_symmetry_space_group_name_H-M "C M M M"
_symmetry_group_IT_number 65
_symmetry_cell_setting 'orthorhombic'
loop_
_space_group_symop_operation_xyz
x,y,z
-x,-y,z
x,-y,-z
-x,y,-z
-x,-y,-z
x,y,-z
-x,y,z
x,-y,z
1/2+x,1/2+y,z
1/2-x,1/2-y,z
1/2+x,1/2-y,-z
1/2-x,1/2+y,-z
1/2-x,1/2-y,-z
1/2+x,1/2+y,-z
1/2-x,1/2+y,z
1/2+x,1/2-y,z
loop_
_atom_site_type_symbol
_atom_site_label
_atom_site_fract_x
_atom_site_fract_y
_atom_site_fract_z
Si Si1 0.175580 0.811534 0.702329
Si Si2 0.077185 0.809314 0.227474
Si Si3 0.676266 0.687309 0.933410
Si Si4 0.921845 0.688115 0.455415
Si Si5 0.676785 0.311928 0.841598
Si Si6 0.824123 0.813501 0.388301
Si Si7 0.077894 0.312876 0.000000
O O1 0.250000 0.750000 0.712445
O O2 0.119926 0.759980 0.734000
O O3 0.159702 0.762584 0.657018
O O4 0.177928 0.000000 0.703251
O O5 0.118668 0.760128 0.188441
O O6 0.000000 0.756335 0.227845
O O7 0.076095 0.000000 0.227511
O O8 0.677107 0.500000 0.935579
O O9 0.750000 0.750000 0.945416
O O10 0.665299 0.735315 0.887405
O O11 0.618681 0.751731 0.961882
O O12 0.900496 0.737346 0.500000
O O13 0.918685 0.500000 0.454258
O O14 0.876492 0.754855 0.420671
O O15 0.000000 0.733057 0.450372
O O16 0.679092 0.500000 0.840688
O O17 0.750000 0.250000 0.829127
O O18 0.750000 0.750000 0.397671
O O19 0.822557 0.000000 0.388678
O O20 0.079249 0.500000 0.000000
O O21 0.000000 0.261298 0.000000
#
# Coordination Sequence:
#
# PCOD9488749 Si02
#       7
#    16  16  16  16  16  16   8
#     4   9  18  32  51  73  98 131 167 205 247 292
#     4   9  17  30  49  74 103 133 166 204 246 292
#     4  10  20  35  56  80 105 134 172 215 255 300
#     4   9  19  36  55  74  99 132 167 204 251 305
#     4   9  18  32  53  78 101 131 168 206 248 294
#     4  10  20  33  51  76 103 132 169 211 254 299
#     4  11  24  39  54  75 105 139 172 209 258 309
#
# _framework density 18.145484
#
# number of rings (size 3 to 8) (size 9 to 14) (size 15 to 20)
#    0.000    2.538    0.000    2.308    0.000    4.000 
#    0.000    3.846    0.000    1.846    0.000    0.000 
#    0.000    0.000    0.000    0.000    0.000    0.000 
#
# Total GULP energy -290146.756779 kJ/mol
# GULP energy per Si atom -5579.745323 kJ/mol
# Density = 1.810418 g / cm^3
# Si number density = 18.145484 Si / 1000 Ang^3
#
#
#
# Elastic Constant Matrix: (Units=GPa)
#
#
# Indices 1 2 3 4 5 6 
#
# 1 175.8772 29.6366 125.2206 0.0000 0.0000 0.0000
# 2 29.6366 17.6641 26.8863 0.0000 0.0000 0.0000
# 3 125.2206 26.8863 136.5704 0.0000 0.0000 0.0000
# 4 0.0000 0.0000 0.0000 11.0117 0.0000 0.0000
# 5 0.0000 0.0000 0.0000 0.0000 -40.8190 0.0000
# 6 0.0000 0.0000 0.0000 0.0000 0.0000 27.8957
#
#
#
# Elastic Compliance Matrix: (Units=1/GPa)
#
#
# Indices 1 2 3 4 5 6 
#
# 1 0.016933 -0.006823 -0.014183 0.000000 0.000000 0.000000
# 2 -0.006823 0.083583 -0.010199 0.000000 0.000000 0.000000
# 3 -0.014183 -0.010199 0.022334 0.000000 0.000000 0.000000
# 4 0.000000 0.000000 0.000000 0.090812 0.000000 0.000000
# 5 0.000000 0.000000 0.000000 0.000000 -0.024498 0.000000
# 6 0.000000 0.000000 0.000000 0.000000 0.000000 0.035848
#
#
# Mechanical properties :
#
#
# Convention : Reuss Voigt Hill
#
# Bulk Modulus (GPa) = 16.54498 77.06651 46.80574
# Shear Modulus (GPa) = 16.25651 9.50890 12.88271
#
# Velocity S-wave (km/s) = 2.99640 2.29167 2.66741
# Velocity P-wave (km/s) = 4.59445 7.04031 5.94453
#
# Compressibility (1/GPa) = 0.06044129
#
# Stress axis : x y z
#
# Youngs Moduli (GPa) = 59.05466 11.96414 44.77429
#
# Poissons Ratio (x) = 0.08163 0.63503
# Poissons Ratio (y) = 0.40294 0.45664
# Poissons Ratio (z) = 0.83757 0.12202
#
# Static dielectric constant tensor:
#      x y z
#    x 1.586450 0.000000 0.000000 
#    y 0.000000 1.615960 0.000000 
#    z 0.000000 0.000000 1.632330 
# 
# From -- ./inp_files/78238.got.cif
#   From: 2010.05.17/outbox.cif.g08.bks.cpg/sg65_40_cif.got.tgz:78238.got - 2010.06.03 17:01:31.
