data_PCOD9488079
_publ_section_title
;
Structure prediction by ZEFSAII (Michael W. Deem and Ramdas Pophale) SiO2 
 PCOD9488079
Probable space group: C M M M
;
_chemical_formula_sum "Si O2"
_cell_formula_units_Z 120
_cell_length_a 8.948571
_cell_length_b 29.600193
_cell_length_c 26.600031
_cell_angle_alpha 90.000000
_cell_angle_beta 90.000000
_cell_angle_gamma 90.000000
_cell_volume 7045.801014
_symmetry_space_group_name_H-M "C M M M"
_symmetry_group_IT_number 65
_symmetry_cell_setting 'orthorhombic'
loop_
_space_group_symop_operation_xyz
x,y,z
-x,-y,z
x,-y,-z
-x,y,-z
-x,-y,-z
x,y,-z
-x,y,z
x,-y,z
1/2+x,1/2+y,z
1/2-x,1/2-y,z
1/2+x,1/2-y,-z
1/2-x,1/2+y,-z
1/2-x,1/2-y,-z
1/2+x,1/2+y,-z
1/2-x,1/2+y,z
1/2+x,1/2-y,z
loop_
_atom_site_type_symbol
_atom_site_label
_atom_site_fract_x
_atom_site_fract_y
_atom_site_fract_z
Si Si1 0.179148 0.642496 0.055687
Si Si2 0.320133 0.947495 0.604660
Si Si3 0.328717 0.445202 0.500000
Si Si4 0.179134 0.612485 0.700430
Si Si5 0.177917 0.551020 0.895134
Si Si6 0.178899 0.799417 0.259379
Si Si7 0.321778 0.700913 0.856619
Si Si8 0.675314 0.553646 0.787400
O O1 0.208696 0.589431 0.064343
O O2 0.255757 0.668442 0.101258
O O3 0.000000 0.649255 0.058761
O O4 0.228858 0.656824 0.000000
O O5 0.500000 0.947268 0.601109
O O6 0.252662 0.932111 0.551517
O O7 0.276174 0.914903 0.650274
O O8 0.274659 0.000000 0.614189
O O9 0.326768 0.500000 0.500000
O O10 0.500000 0.430119 0.500000
O O11 0.252872 0.661618 0.705950
O O12 0.233834 0.582615 0.747437
O O13 0.000000 0.616588 0.701267
O O14 0.215017 0.500000 0.911177
O O15 0.264800 0.561241 0.843658
O O16 0.000000 0.552444 0.884206
O O17 0.250000 0.750000 0.267926
O O18 0.212860 0.812674 0.201060
O O19 0.000000 0.796908 0.264609
O O20 0.500000 0.703437 0.861237
O O21 0.250000 0.750000 0.863954
O O22 0.500000 0.565170 0.784402
O O23 0.692716 0.500000 0.777061
#
# Coordination Sequence:
#
# PCOD9488079 Si02
#       8
#    16  16   8  16  16  16  16  16
#     4  10  21  35  51  73  99 125 156 197 243 290
#     4   9  18  32  49  71 103 143 182 216 251 294
#     4   9  17  29  47  71 100 137 180 223 261 295
#     4  11  21  32  50  76 105 137 172 210 253 300
#     4   9  18  33  52  71  93 126 165 201 239 288
#     4  10  21  37  56  78 103 131 165 205 250 301
#     4  10  21  37  57  77  97 124 157 194 241 298
#     4  10  20  32  47  70 101 134 166 203 248 298
#
# _framework density 17.031421000000002
#
# number of rings (size 3 to 8) (size 9 to 14) (size 15 to 20)
#    0.000    2.200    0.000    3.000    0.000    8.267 
#    0.000    2.667    0.000    0.000    0.000    3.267 
#    0.000    0.000    0.000    0.000    0.000    0.000 
#
# Total GULP energy -334875.133023 kJ/mol
# GULP energy per Si atom -5581.252217 kJ/mol
# Density = 1.699266 g / cm^3
# Si number density = 17.031421 Si / 1000 Ang^3
#
#
#
# Elastic Constant Matrix: (Units=GPa)
#
#
# Indices 1 2 3 4 5 6 
#
# 1 45.2762 42.0752 40.7616 0.0000 0.0000 0.0000
# 2 42.0752 81.4266 68.4755 0.0000 0.0000 0.0000
# 3 40.7616 68.4755 86.3975 0.0000 0.0000 0.0000
# 4 0.0000 0.0000 0.0000 19.7872 0.0000 0.0000
# 5 0.0000 0.0000 0.0000 0.0000 14.4709 0.0000
# 6 0.0000 0.0000 0.0000 0.0000 0.0000 26.6140
#
#
#
# Elastic Compliance Matrix: (Units=1/GPa)
#
#
# Indices 1 2 3 4 5 6 
#
# 1 0.044384 -0.015967 -0.008285 0.000000 0.000000 0.000000
# 2 -0.015967 0.042569 -0.026206 0.000000 0.000000 0.000000
# 3 -0.008285 -0.026206 0.036253 0.000000 0.000000 0.000000
# 4 0.000000 0.000000 0.000000 0.050538 0.000000 0.000000
# 5 0.000000 0.000000 0.000000 0.000000 0.069104 0.000000
# 6 0.000000 0.000000 0.000000 0.000000 0.000000 0.037574
#
#
# Mechanical properties :
#
#
# Convention : Reuss Voigt Hill
#
# Bulk Modulus (GPa) = 44.86232 57.30275 51.08254
# Shear Modulus (GPa) = 12.86117 16.29363 14.57740
#
# Velocity S-wave (km/s) = 2.75097 3.09638 2.92877
# Velocity P-wave (km/s) = 6.04057 6.81922 6.44167
#
# Compressibility (1/GPa) = 0.02229042
#
# Stress axis : x y z
#
# Youngs Moduli (GPa) = 22.53084 23.49121 27.58401
#
# Poissons Ratio (x) = 0.37508 0.22853
# Poissons Ratio (y) = 0.35975 0.72286
# Poissons Ratio (z) = 0.18667 0.61560
#
# Static dielectric constant tensor:
#      x y z
#    x 1.569650 0.000000 0.000000 
#    y 0.000000 1.579160 0.000000 
#    z 0.000000 0.000000 1.554480 
# 
# From -- ./inp_files/73875.got.cif
#   From: 2010.05.17/outbox.cif.g08.bks.cpg/sg65_37_cif.got.tgz:73875.got - 2010.06.03 17:01:31.
