data_PCOD9488697
_publ_section_title
;
Structure prediction by ZEFSAII (Michael W. Deem and Ramdas Pophale) SiO2 
 PCOD9488697
Probable space group: C M M M
;
_chemical_formula_sum "Si O2"
_cell_formula_units_Z 88
_cell_length_a 8.279187
_cell_length_b 28.225133
_cell_length_c 19.400495
_cell_angle_alpha 90.000000
_cell_angle_beta 90.000000
_cell_angle_gamma 90.000000
_cell_volume 4533.530064
_symmetry_space_group_name_H-M "C M M M"
_symmetry_group_IT_number 65
_symmetry_cell_setting 'orthorhombic'
loop_
_space_group_symop_operation_xyz
x,y,z
-x,-y,z
x,-y,-z
-x,y,-z
-x,-y,-z
x,y,-z
-x,y,z
x,-y,z
1/2+x,1/2+y,z
1/2-x,1/2-y,z
1/2+x,1/2-y,-z
1/2-x,1/2+y,-z
1/2-x,1/2-y,-z
1/2+x,1/2+y,-z
1/2-x,1/2+y,z
1/2+x,1/2-y,z
loop_
_atom_site_type_symbol
_atom_site_label
_atom_site_fract_x
_atom_site_fract_y
_atom_site_fract_z
Si Si1 0.314609 0.500000 0.083898
Si Si2 0.304794 0.603617 0.921118
Si Si3 0.304296 0.395293 0.421072
Si Si4 0.692988 0.144995 0.211969
Si Si5 0.694159 0.051946 0.708446
Si Si6 0.692084 0.698325 0.659779
O O1 0.500000 0.500000 0.109110
O O2 0.240326 0.448884 0.101233
O O3 0.321443 0.500000 0.000000
O O4 0.500000 0.600574 0.921215
O O5 0.251090 0.642486 0.866338
O O6 0.253672 0.612455 0.000000
O O7 0.252668 0.400364 0.500000
O O8 0.500000 0.396253 0.419198
O O9 0.239880 0.435474 0.369920
O O10 0.249446 0.344799 0.388839
O O11 0.500000 0.144986 0.213351
O O12 0.756389 0.095977 0.246700
O O13 0.752538 0.186054 0.262551
O O14 0.500000 0.051688 0.714402
O O15 0.755301 0.000000 0.728807
O O16 0.500000 0.697648 0.657906
O O17 0.750000 0.750000 0.638291
#
# Coordination Sequence:
#
# PCOD9488697 Si02
#       6
#     8  16  16  16  16  16
#     4   7  12  24  41  63  93 129 166 201 240 289
#     4   9  17  30  48  71 101 136 173 213 256 301
#     4   9  19  35  53  76 105 133 165 207 251 299
#     4  10  20  33  51  74 102 135 173 214 256 302
#     4   9  19  34  49  69 101 140 178 213 250 293
#     4  10  20  36  57  78 102 130 164 205 255 309
#
# _framework density 19.410920999999998
#
# number of rings (size 3 to 8) (size 9 to 14) (size 15 to 20)
#    0.000    2.818    0.000    2.182    1.273    3.273 
#    0.000    1.818    0.000    2.182    0.000    0.000 
#    0.000    0.000    0.000    0.000    0.000    0.000 
#
# Total GULP energy -245329.581728 kJ/mol
# GULP energy per Si atom -5575.672312 kJ/mol
# Density = 1.936674 g / cm^3
# Si number density = 19.410921 Si / 1000 Ang^3
#
#
#
# Elastic Constant Matrix: (Units=GPa)
#
#
# Indices 1 2 3 4 5 6 
#
# 1 14.4541 0.5053 -2.8507 0.0000 0.0000 0.0000
# 2 0.5053 36.6636 -15.8207 0.0000 0.0000 0.0000
# 3 -2.8507 -15.8207 58.7756 0.0000 0.0000 0.0000
# 4 0.0000 0.0000 0.0000 17.0561 0.0000 0.0000
# 5 0.0000 0.0000 0.0000 0.0000 15.5663 0.0000
# 6 0.0000 0.0000 0.0000 0.0000 0.0000 19.0568
#
#
#
# Elastic Compliance Matrix: (Units=1/GPa)
#
#
# Indices 1 2 3 4 5 6 
#
# 1 0.069863 0.000565 0.003541 0.000000 0.000000 0.000000
# 2 0.000565 0.030864 0.008335 0.000000 0.000000 0.000000
# 3 0.003541 0.008335 0.019429 0.000000 0.000000 0.000000
# 4 0.000000 0.000000 0.000000 0.058630 0.000000 0.000000
# 5 0.000000 0.000000 0.000000 0.000000 0.064241 0.000000
# 6 0.000000 0.000000 0.000000 0.000000 0.000000 0.052475
#
#
# Mechanical properties :
#
#
# Convention : Reuss Voigt Hill
#
# Bulk Modulus (GPa) = 6.89478 8.17345 7.53412
# Shear Modulus (GPa) = 15.67562 18.87313 17.27438
#
# Velocity S-wave (km/s) = 2.84486 3.12155 2.98641
# Velocity P-wave (km/s) = 3.78823 4.14873 3.97257
#
# Compressibility (1/GPa) = 0.14503719
#
# Stress axis : x y z
#
# Youngs Moduli (GPa) = 14.31375 32.40030 51.46907
#
# Poissons Ratio (x) = -0.01831 -0.18223
# Poissons Ratio (y) = -0.00809 -0.42900
# Poissons Ratio (z) = -0.05068 -0.27006
#
# Static dielectric constant tensor:
#      x y z
#    x 1.672060 0.000000 0.000000 
#    y 0.000000 1.696870 0.000000 
#    z 0.000000 0.000000 1.693230 
# 
# From -- ./inp_files/50437.got.cif
#   From: 2010.05.17/outbox.cif.g08.bks.cpg/sg65_26_cif.got.tgz:50437.got - 2010.06.03 17:01:31.
