data_PCOD9488024
_publ_section_title
;
Structure prediction by ZEFSAII (Michael W. Deem and Ramdas Pophale) SiO2 
 PCOD9488024
Probable space group: C M M M
;
_chemical_formula_sum "Si O2"
_cell_formula_units_Z 88
_cell_length_a 7.499853
_cell_length_b 18.677033
_cell_length_c 31.219904
_cell_angle_alpha 90.000000
_cell_angle_beta 90.000000
_cell_angle_gamma 90.000000
_cell_volume 4373.128114
_symmetry_space_group_name_H-M "C M M M"
_symmetry_group_IT_number 65
_symmetry_cell_setting 'orthorhombic'
loop_
_space_group_symop_operation_xyz
x,y,z
-x,-y,z
x,-y,-z
-x,y,-z
-x,-y,-z
x,y,-z
-x,y,z
x,-y,z
1/2+x,1/2+y,z
1/2-x,1/2-y,z
1/2+x,1/2-y,-z
1/2-x,1/2+y,-z
1/2-x,1/2-y,-z
1/2+x,1/2+y,-z
1/2-x,1/2+y,z
1/2+x,1/2-y,z
loop_
_atom_site_type_symbol
_atom_site_label
_atom_site_fract_x
_atom_site_fract_y
_atom_site_fract_z
Si Si1 0.786297 0.166335 0.130969
Si Si2 0.787203 0.581774 0.690801
Si Si3 0.500000 0.415651 0.551201
Si Si4 0.287628 0.165409 0.393696
Si Si5 0.782659 0.083232 0.047551
Si Si6 0.286536 0.581558 0.786540
O O1 0.750000 0.250000 0.131411
O O2 0.718454 0.129580 0.087458
O O3 0.717769 0.128491 0.174136
O O4 0.000000 0.156595 0.130673
O O5 0.716181 0.500000 0.687053
O O6 0.728810 0.632505 0.652229
O O7 0.748559 0.609009 0.738629
O O8 0.000000 0.577210 0.687262
O O9 0.500000 0.500000 0.562573
O O10 0.500000 0.409496 0.500000
O O11 0.672025 0.376464 0.571207
O O12 0.500000 0.153962 0.399151
O O13 0.250000 0.250000 0.395234
O O14 0.000000 0.085258 0.047495
O O15 0.732811 0.000000 0.053094
O O16 0.724893 0.106919 0.000000
O O17 0.500000 0.578011 0.790786
O O18 0.217370 0.500000 0.788897
#
# Coordination Sequence:
#
# PCOD9488024 Si02
#       6
#    16  16   8  16  16  16
#     4  10  20  32  46  69 101 131 167 212 266 325
#     4   9  19  35  57  84 115 151 193 242 293 350
#     4  11  26  46  70 100 131 171 221 267 317 379
#     4  11  23  42  65  97 133 171 213 262 320 376
#     4   8  14  27  49  72  91 119 163 214 261 309
#     4   9  18  32  51  74  99 137 184 228 274 325
#
# _framework density 20.122896000000001
#
# number of rings (size 3 to 8) (size 9 to 14) (size 15 to 20)
#    0.000    2.455    0.909    1.636    1.273    5.818 
#    0.000    4.545    0.000    1.636    0.000    1.273 
#    0.000    0.000    0.000    0.000    0.000    0.000 
#
# Total GULP energy -245617.615453 kJ/mol
# GULP energy per Si atom -5582.218533 kJ/mol
# Density = 2.007710 g / cm^3
# Si number density = 20.122896 Si / 1000 Ang^3
#
#
#
# Elastic Constant Matrix: (Units=GPa)
#
#
# Indices 1 2 3 4 5 6 
#
# 1 82.2082 24.8658 34.9245 0.0000 0.0000 0.0000
# 2 24.8658 126.6435 110.7938 0.0000 0.0000 0.0000
# 3 34.9245 110.7938 187.0419 0.0000 0.0000 0.0000
# 4 0.0000 0.0000 0.0000 -56.4225 0.0000 0.0000
# 5 0.0000 0.0000 0.0000 0.0000 170.0059 0.0000
# 6 0.0000 0.0000 0.0000 0.0000 0.0000 13.9037
#
#
#
# Elastic Compliance Matrix: (Units=1/GPa)
#
#
# Indices 1 2 3 4 5 6 
#
# 1 0.013262 -0.000908 -0.001938 0.000000 0.000000 0.000000
# 2 -0.000908 0.016452 -0.009575 0.000000 0.000000 0.000000
# 3 -0.001938 -0.009575 0.011380 0.000000 0.000000 0.000000
# 4 0.000000 0.000000 0.000000 -0.017723 0.000000 0.000000
# 5 0.000000 0.000000 0.000000 0.000000 0.005882 0.000000
# 6 0.000000 0.000000 0.000000 0.000000 0.000000 0.071923
#
#
# Mechanical properties :
#
#
# Convention : Reuss Voigt Hill
#
# Bulk Modulus (GPa) = 61.53767 81.89575 71.71671
# Shear Modulus (GPa) = 38.04096 40.51806 39.27951
#
# Velocity S-wave (km/s) = 4.35263 4.49211 4.42292
# Velocity P-wave (km/s) = 7.47715 8.22748 7.86127
#
# Compressibility (1/GPa) = 0.01625021
#
# Stress axis : x y z
#
# Youngs Moduli (GPa) = 75.40093 60.78439 87.87082
#
# Poissons Ratio (x) = 0.05521 0.17033
# Poissons Ratio (y) = 0.06848 0.84141
# Poissons Ratio (z) = 0.14616 0.58204
#
# Static dielectric constant tensor:
#      x y z
#    x 1.332280 0.000000 0.000000 
#    y 0.000000 1.679150 0.000000 
#    z 0.000000 0.000000 1.706200 
# 
# From -- ./inp_files/76501.got.cif
#   From: 2010.05.17/outbox.cif.g08.bks.cpg/sg65_39_cif.got.tgz:76501.got - 2010.06.03 17:01:31.
