data_PCOD9488199
_publ_section_title
;
Structure prediction by ZEFSAII (Michael W. Deem and Ramdas Pophale) SiO2 
 PCOD9488199
Probable space group: C M M M
;
_chemical_formula_sum "Si O2"
_cell_formula_units_Z 104
_cell_length_a 9.055739
_cell_length_b 31.503758
_cell_length_c 22.827721
_cell_angle_alpha 90.000000
_cell_angle_beta 90.000000
_cell_angle_gamma 90.000000
_cell_volume 6512.516186
_symmetry_space_group_name_H-M "C M M M"
_symmetry_group_IT_number 65
_symmetry_cell_setting 'orthorhombic'
loop_
_space_group_symop_operation_xyz
x,y,z
-x,-y,z
x,-y,-z
-x,y,-z
-x,-y,-z
x,y,-z
-x,y,z
x,-y,z
1/2+x,1/2+y,z
1/2-x,1/2-y,z
1/2+x,1/2-y,-z
1/2-x,1/2+y,-z
1/2-x,1/2-y,-z
1/2+x,1/2+y,-z
1/2-x,1/2+y,z
1/2+x,1/2-y,z
loop_
_atom_site_type_symbol
_atom_site_label
_atom_site_fract_x
_atom_site_fract_y
_atom_site_fract_z
Si Si1 0.324687 0.881510 0.772331
Si Si2 0.170163 0.551304 0.565146
Si Si3 0.669309 0.806074 0.066461
Si Si4 0.662354 0.095222 0.094159
Si Si5 0.827064 0.954076 0.000000
Si Si6 0.323441 0.550220 0.685909
Si Si7 0.176980 0.793615 0.810211
O O1 0.500000 0.875305 0.760758
O O2 0.311267 0.901724 0.837034
O O3 0.254049 0.915388 0.727906
O O4 0.244789 0.835572 0.778812
O O5 0.215553 0.566180 0.500000
O O6 0.168340 0.500000 0.562802
O O7 0.273192 0.561667 0.619775
O O8 0.000000 0.564822 0.575617
O O9 0.500000 0.790427 0.076618
O O10 0.661326 0.856938 0.070087
O O11 0.774163 0.795048 0.120906
O O12 0.714519 0.794858 0.000000
O O13 0.500000 0.076743 0.083504
O O14 0.779945 0.069976 0.058002
O O15 0.000000 0.957430 0.000000
O O16 0.755245 0.000000 0.000000
O O17 0.500000 0.552807 0.691839
O O18 0.281611 0.500000 0.696528
O O19 0.250000 0.750000 0.787019
O O20 0.000000 0.793230 0.805477
#
# Coordination Sequence:
#
# PCOD9488199 Si02
#       7
#    16  16  16  16   8  16  16
#     4  10  21  37  55  73  96 129 168 209 254 299
#     4   8  14  26  45  69  99 137 177 212 246 287
#     4   9  17  32  52  71  92 116 146 186 235 293
#     4   9  18  34  51  65  82 112 151 193 240 291
#     4  11  23  33  43  63  88 113 146 193 245 295
#     4  10  20  32  48  74 107 140 174 212 252 296
#     4  11  22  36  53  74  99 126 159 199 250 306
#
# _framework density 15.969251
#
# number of rings (size 3 to 8) (size 9 to 14) (size 15 to 20)
#    0.000    2.385    0.769    3.923    0.000    6.154 
#    0.000    4.615    0.000    0.000    0.000    0.000 
#    0.000    0.615    0.000    2.308    0.000    3.538 
#
# Total GULP energy -289648.157189 kJ/mol
# GULP energy per Si atom -5570.156869 kJ/mol
# Density = 1.593290 g / cm^3
# Si number density = 15.969251 Si / 1000 Ang^3
#
#
#
# Elastic Constant Matrix: (Units=GPa)
#
#
# Indices 1 2 3 4 5 6 
#
# 1 105.2275 62.4763 53.5110 0.0000 0.0000 0.0000
# 2 62.4763 89.8401 49.8623 0.0000 0.0000 0.0000
# 3 53.5110 49.8623 90.8532 0.0000 0.0000 0.0000
# 4 0.0000 0.0000 0.0000 14.3745 0.0000 0.0000
# 5 0.0000 0.0000 0.0000 0.0000 15.6067 0.0000
# 6 0.0000 0.0000 0.0000 0.0000 0.0000 17.0343
#
#
#
# Elastic Compliance Matrix: (Units=1/GPa)
#
#
# Indices 1 2 3 4 5 6 
#
# 1 0.017805 -0.009436 -0.005308 0.000000 0.000000 0.000000
# 2 -0.009436 0.021007 -0.005972 0.000000 0.000000 0.000000
# 3 -0.005308 -0.005972 0.017411 0.000000 0.000000 0.000000
# 4 0.000000 0.000000 0.000000 0.069568 0.000000 0.000000
# 5 0.000000 0.000000 0.000000 0.000000 0.064075 0.000000
# 6 0.000000 0.000000 0.000000 0.000000 0.000000 0.058705
#
#
# Mechanical properties :
#
#
# Convention : Reuss Voigt Hill
#
# Bulk Modulus (GPa) = 67.60735 68.62446 68.11590
# Shear Modulus (GPa) = 16.95311 17.40785 17.18048
#
# Velocity S-wave (km/s) = 3.26177 3.30523 3.28357
# Velocity P-wave (km/s) = 7.52419 7.59159 7.55796
#
# Compressibility (1/GPa) = 0.01479129
#
# Stress axis : x y z
#
# Youngs Moduli (GPa) = 56.16485 47.60347 57.43621
#
# Poissons Ratio (x) = 0.44917 0.30488
# Poissons Ratio (y) = 0.52995 0.34299
# Poissons Ratio (z) = 0.29814 0.28427
#
# Static dielectric constant tensor:
#      x y z
#    x 1.550040 0.000000 0.000000 
#    y 0.000000 1.539920 0.000000 
#    z 0.000000 0.000000 1.613690 
# 
# From -- ./inp_files/60824.got.cif
#   From: 2010.05.17/outbox.cif.g08.bks.cpg/sg65_31_cif.got.tgz:60824.got - 2010.06.03 17:01:31.
