data_PCOD9488459
_publ_section_title
;
Structure prediction by ZEFSAII (Michael W. Deem and Ramdas Pophale) SiO2 
 PCOD9488459
Probable space group: C M M M
;
_chemical_formula_sum "Si O2"
_cell_formula_units_Z 104
_cell_length_a 27.431621
_cell_length_b 8.955265
_cell_length_c 21.975044
_cell_angle_alpha 90.000000
_cell_angle_beta 90.000000
_cell_angle_gamma 90.000000
_cell_volume 5398.332953
_symmetry_space_group_name_H-M "C M M M"
_symmetry_group_IT_number 65
_symmetry_cell_setting 'orthorhombic'
loop_
_space_group_symop_operation_xyz
x,y,z
-x,-y,z
x,-y,-z
-x,y,-z
-x,-y,-z
x,y,-z
-x,y,z
x,-y,z
1/2+x,1/2+y,z
1/2-x,1/2-y,z
1/2+x,1/2-y,-z
1/2-x,1/2+y,-z
1/2-x,1/2-y,-z
1/2+x,1/2+y,-z
1/2-x,1/2+y,z
1/2+x,1/2-y,z
loop_
_atom_site_type_symbol
_atom_site_label
_atom_site_fract_x
_atom_site_fract_y
_atom_site_fract_z
Si Si1 0.353656 0.679924 0.626051
Si Si2 0.297168 0.667880 0.928104
Si Si3 0.555484 0.822494 0.313883
Si Si4 0.598757 0.821826 0.068495
Si Si5 0.303240 0.319920 0.500000
Si Si6 0.698110 0.321503 0.751358
Si Si7 0.905421 0.821225 0.808074
O O1 0.359013 0.500000 0.627768
O O2 0.405301 0.754268 0.640172
O O3 0.331352 0.723895 0.561499
O O4 0.318693 0.721286 0.682817
O O5 0.305214 0.500000 0.903064
O O6 0.250000 0.750000 0.901688
O O7 0.345054 0.768916 0.926728
O O8 0.287378 0.648632 0.000000
O O9 0.500000 0.793481 0.332513
O O10 0.565667 0.747393 0.248491
O O11 0.562659 0.000000 0.308355
O O12 0.576410 0.743280 0.127623
O O13 0.594934 0.000000 0.073341
O O14 0.581785 0.778344 0.000000
O O15 0.299275 0.500000 0.500000
O O16 0.250000 0.250000 0.500000
O O17 0.703050 0.500000 0.753056
O O18 0.750000 0.250000 0.765354
O O19 0.651804 0.281625 0.794159
O O20 0.908961 0.000000 0.807604
#
# Coordination Sequence:
#
# PCOD9488459 Si02
#       7
#    16  16  16  16   8  16  16
#     4   9  19  35  54  81 116 152 193 234 274 326
#     4   9  16  26  40  58  83 119 164 209 251 301
#     4  10  21  38  61  86 109 137 179 232 287 337
#     4  10  20  33  49  70  98 132 169 213 269 330
#     4  10  20  34  55  86 125 167 206 239 271 314
#     4   9  18  31  48  72 102 138 180 225 270 316
#     4  10  21  36  54  78 106 137 177 222 272 336
#
# _framework density 19.265207
#
# number of rings (size 3 to 8) (size 9 to 14) (size 15 to 20)
#    0.000    2.462    0.000    3.231    0.000    8.308 
#    0.000    1.923    0.000    2.769    0.000    3.231 
#    0.000    0.000    0.000    0.000    0.000    0.000 
#
# Total GULP energy -290185.010414 kJ/mol
# GULP energy per Si atom -5580.480970 kJ/mol
# Density = 1.922136 g / cm^3
# Si number density = 19.265207 Si / 1000 Ang^3
#
#
#
# Elastic Constant Matrix: (Units=GPa)
#
#
# Indices 1 2 3 4 5 6 
#
# 1 75.0321 32.7339 48.9341 0.0000 0.0000 0.0000
# 2 32.7339 44.9326 42.8877 0.0000 0.0000 0.0000
# 3 48.9341 42.8877 171.8783 0.0000 0.0000 0.0000
# 4 0.0000 0.0000 0.0000 23.1930 0.0000 0.0000
# 5 0.0000 0.0000 0.0000 0.0000 -1.1006 0.0000
# 6 0.0000 0.0000 0.0000 0.0000 0.0000 25.3836
#
#
#
# Elastic Compliance Matrix: (Units=1/GPa)
#
#
# Indices 1 2 3 4 5 6 
#
# 1 0.020494 -0.012287 -0.002769 0.000000 0.000000 0.000000
# 2 -0.012287 0.036580 -0.005629 0.000000 0.000000 0.000000
# 3 -0.002769 -0.005629 0.008011 0.000000 0.000000 0.000000
# 4 0.000000 0.000000 0.000000 0.043116 0.000000 0.000000
# 5 0.000000 0.000000 0.000000 0.000000 -0.908569 0.000000
# 6 0.000000 0.000000 0.000000 0.000000 0.000000 0.039396
#
#
# Mechanical properties :
#
#
# Convention : Reuss Voigt Hill
#
# Bulk Modulus (GPa) = 42.16872 60.10603 51.13738
# Shear Modulus (GPa) = -7.02547 20.64769 6.81111
#
# Velocity S-wave (km/s) = -1.91171 3.27733 1.88232
# Velocity P-wave (km/s) = 4.13076 6.75190 5.59694
#
# Compressibility (1/GPa) = 0.02371426
#
# Stress axis : x y z
#
# Youngs Moduli (GPa) = 48.79531 27.33722 124.82872
#
# Poissons Ratio (x) = 0.33590 0.34561
# Poissons Ratio (y) = 0.59956 0.70271
# Poissons Ratio (z) = 0.13510 0.15389
#
# Static dielectric constant tensor:
#      x y z
#    x 1.663000 0.000000 0.000000 
#    y 0.000000 1.653550 0.000000 
#    z 0.000000 0.000000 1.714100 
# 
# From -- ./inp_files/65855.got.cif
#   From: 2010.05.17/outbox.cif.g08.bks.cpg/sg65_33_cif.got.tgz:65855.got - 2010.06.03 17:01:31.
