data_PCOD9488792
_publ_section_title
;
Structure prediction by ZEFSAII (Michael W. Deem and Ramdas Pophale) SiO2 
 PCOD9488792
Probable space group: C M M M
;
_chemical_formula_sum "Si O2"
_cell_formula_units_Z 104
_cell_length_a 30.054479
_cell_length_b 20.121871
_cell_length_c 9.853938
_cell_angle_alpha 90.000000
_cell_angle_beta 90.000000
_cell_angle_gamma 90.000000
_cell_volume 5959.192156
_symmetry_space_group_name_H-M "C M M M"
_symmetry_group_IT_number 65
_symmetry_cell_setting 'orthorhombic'
loop_
_space_group_symop_operation_xyz
x,y,z
-x,-y,z
x,-y,-z
-x,y,-z
-x,-y,-z
x,y,-z
-x,y,z
x,-y,z
1/2+x,1/2+y,z
1/2-x,1/2-y,z
1/2+x,1/2-y,-z
1/2-x,1/2+y,-z
1/2-x,1/2-y,-z
1/2+x,1/2+y,-z
1/2-x,1/2+y,z
1/2+x,1/2-y,z
loop_
_atom_site_type_symbol
_atom_site_label
_atom_site_fract_x
_atom_site_fract_y
_atom_site_fract_z
Si Si1 0.050813 0.923283 0.835049
Si Si2 0.945804 0.500000 0.846750
Si Si3 0.133313 0.295444 0.657573
Si Si4 0.279464 0.577719 0.155937
Si Si5 0.052358 0.380647 0.346427
Si Si6 0.865887 0.832961 0.162118
Si Si7 0.306836 0.075943 0.662166
O O1 0.089486 0.872484 0.792707
O O2 0.000000 0.906237 0.793578
O O3 0.059844 0.000000 0.793497
O O4 0.051365 0.923244 0.000000
O O5 0.933338 0.435162 0.762283
O O6 0.000000 0.500000 0.850701
O O7 0.929063 0.500000 0.000000
O O8 0.143440 0.279001 0.500000
O O9 0.081565 0.315390 0.667752
O O10 0.141705 0.234661 0.756461
O O11 0.159624 0.363606 0.691358
O O12 0.291543 0.500000 0.164506
O O13 0.322996 0.620681 0.184257
O O14 0.238691 0.589123 0.257236
O O15 0.265299 0.591020 0.000000
O O16 0.060048 0.406836 0.500000
O O17 0.000000 0.368339 0.331674
O O18 0.869614 0.820575 0.000000
O O19 0.299406 0.076511 0.500000
O O20 0.321855 0.000000 0.697281
#
# Coordination Sequence:
#
# PCOD9488792 Si02
#       7
#    16   8  16  16  16  16  16
#     4   8  14  27  50  79 107 136 173 212 248 293
#     4   9  17  29  47  73  99 121 155 209 263 299
#     4  10  22  36  51  73 103 138 173 211 256 304
#     4   9  18  34  56  79 102 130 165 207 255 306
#     4   9  18  33  52  71  94 131 175 210 246 299
#     4  10  20  33  51  77 108 137 168 207 253 303
#     4   9  19  36  56  75  96 127 169 215 258 301
#
# _framework density 17.452031000000002
#
# number of rings (size 3 to 8) (size 9 to 14) (size 15 to 20)
#    0.000    2.846    0.000    1.154    1.077    5.846 
#    0.000    3.077    0.000    1.385    0.000    1.077 
#    0.000    0.000    0.000    0.000    0.000    0.000 
#
# Total GULP energy -289722.154710 kJ/mol
# GULP energy per Si atom -5571.579898 kJ/mol
# Density = 1.741231 g / cm^3
# Si number density = 17.452031 Si / 1000 Ang^3
#
#
#
# Elastic Constant Matrix: (Units=GPa)
#
#
# Indices 1 2 3 4 5 6 
#
# 1 79.2291 67.7545 46.6229 0.0000 0.0000 0.0000
# 2 67.7545 102.0732 54.4060 0.0000 0.0000 0.0000
# 3 46.6229 54.4060 52.9411 0.0000 0.0000 0.0000
# 4 0.0000 0.0000 0.0000 21.9475 0.0000 0.0000
# 5 0.0000 0.0000 0.0000 0.0000 17.9710 0.0000
# 6 0.0000 0.0000 0.0000 0.0000 0.0000 10.1035
#
#
#
# Elastic Compliance Matrix: (Units=1/GPa)
#
#
# Indices 1 2 3 4 5 6 
#
# 1 0.033736 -0.014501 -0.014808 0.000000 0.000000 0.000000
# 2 -0.014501 0.027896 -0.015898 0.000000 0.000000 0.000000
# 3 -0.014808 -0.015898 0.048267 0.000000 0.000000 0.000000
# 4 0.000000 0.000000 0.000000 0.045563 0.000000 0.000000
# 5 0.000000 0.000000 0.000000 0.000000 0.055645 0.000000
# 6 0.000000 0.000000 0.000000 0.000000 0.000000 0.098976
#
#
# Mechanical properties :
#
#
# Convention : Reuss Voigt Hill
#
# Bulk Modulus (GPa) = 51.31741 63.53446 57.42594
# Shear Modulus (GPa) = 12.28529 14.36840 13.32684
#
# Velocity S-wave (km/s) = 2.65608 2.87245 2.76638
# Velocity P-wave (km/s) = 6.23498 6.89097 6.57117
#
# Compressibility (1/GPa) = 0.01948656
#
# Stress axis : x y z
#
# Youngs Moduli (GPa) = 29.64194 35.84775 20.71808
#
# Poissons Ratio (x) = 0.51982 0.30679
# Poissons Ratio (y) = 0.42983 0.32937
# Poissons Ratio (z) = 0.43893 0.56989
#
# Static dielectric constant tensor:
#      x y z
#    x 1.599490 0.000000 0.000000 
#    y 0.000000 1.586050 0.000000 
#    z 0.000000 0.000000 1.592100 
# 
# From -- ./inp_files/18644.got.cif
#   From: 2010.05.17/outbox.cif.g08.bks.cpg/sg65_10_cif.got.tgz:18644.got - 2010.06.03 17:01:31.
