data_PCOD9488145
_publ_section_title
;
Structure prediction by ZEFSAII (Michael W. Deem and Ramdas Pophale) SiO2 
 PCOD9488145
Probable space group: C M M M
;
_chemical_formula_sum "Si O2"
_cell_formula_units_Z 120
_cell_length_a 26.953986
_cell_length_b 8.714176
_cell_length_c 28.302474
_cell_angle_alpha 90.000000
_cell_angle_beta 90.000000
_cell_angle_gamma 90.000000
_cell_volume 6647.735412
_symmetry_space_group_name_H-M "C M M M"
_symmetry_group_IT_number 65
_symmetry_cell_setting 'orthorhombic'
loop_
_space_group_symop_operation_xyz
x,y,z
-x,-y,z
x,-y,-z
-x,y,-z
-x,-y,-z
x,y,-z
-x,y,z
x,-y,z
1/2+x,1/2+y,z
1/2-x,1/2-y,z
1/2+x,1/2-y,-z
1/2-x,1/2+y,-z
1/2-x,1/2-y,-z
1/2+x,1/2+y,-z
1/2-x,1/2+y,z
1/2+x,1/2-y,z
loop_
_atom_site_type_symbol
_atom_site_label
_atom_site_fract_x
_atom_site_fract_y
_atom_site_fract_z
Si Si1 0.101931 0.181408 0.401495
Si Si2 0.942724 0.313450 0.053132
Si Si3 0.368325 0.179197 0.698317
Si Si4 0.604573 0.814352 0.149000
Si Si5 0.696243 0.184478 0.784499
Si Si6 0.556932 0.673846 0.234561
Si Si7 0.800945 0.673807 0.556549
Si Si8 0.500000 0.184355 0.444288
O O1 0.118384 0.230770 0.348888
O O2 0.149050 0.235240 0.432201
O O3 0.050366 0.256771 0.419070
O O4 0.095669 0.000000 0.404125
O O5 0.942639 0.500000 0.052281
O O6 0.905524 0.268410 0.094998
O O7 0.000000 0.267905 0.063225
O O8 0.929989 0.261170 0.000000
O O9 0.323423 0.233598 0.732372
O O10 0.414460 0.205925 0.733152
O O11 0.361612 0.000000 0.687258
O O12 0.656285 0.772518 0.174949
O O13 0.563976 0.730925 0.181306
O O14 0.599548 0.000000 0.152351
O O15 0.750000 0.250000 0.794176
O O16 0.697607 0.000000 0.783524
O O17 0.500000 0.670806 0.247947
O O18 0.577116 0.500000 0.240152
O O19 0.796423 0.666586 0.500000
O O20 0.805354 0.500000 0.574854
O O21 0.750000 0.750000 0.574917
O O22 0.500000 0.230728 0.500000
O O23 0.500000 0.000000 0.442555
#
# Coordination Sequence:
#
# PCOD9488145 Si02
#       8
#    16  16  16  16  16  16  16   8
#     4  12  25  40  61  89 121 153 188 233 287 343
#     4   8  13  22  41  71 103 133 169 219 273 321
#     4  10  22  39  56  77 105 138 178 218 264 322
#     4   9  17  30  48  72  99 131 176 219 264 323
#     4   9  19  34  53  75  99 133 176 222 271 326
#     4  10  20  32  48  72 103 134 168 210 257 312
#     4  10  21  39  63  89 116 147 186 232 282 336
#     4  11  25  45  67  89 117 159 205 243 280 331
#
# _framework density 18.051259999999999
#
# number of rings (size 3 to 8) (size 9 to 14) (size 15 to 20)
#    0.000    2.200    0.000    4.600    0.933    7.733 
#    0.000    1.333    0.000    0.800    0.000    1.867 
#    0.000    0.000    0.000    0.000    0.000    0.267 
#
# Total GULP energy -334434.128613 kJ/mol
# GULP energy per Si atom -5573.902144 kJ/mol
# Density = 1.801017 g / cm^3
# Si number density = 18.051260 Si / 1000 Ang^3
#
#
#
# Elastic Constant Matrix: (Units=GPa)
#
#
# Indices 1 2 3 4 5 6 
#
# 1 103.4629 24.4704 35.5978 0.0000 0.0000 0.0000
# 2 24.4704 47.4156 20.6853 0.0000 0.0000 0.0000
# 3 35.5978 20.6853 91.7983 0.0000 0.0000 0.0000
# 4 0.0000 0.0000 0.0000 5.1423 0.0000 0.0000
# 5 0.0000 0.0000 0.0000 0.0000 13.3170 0.0000
# 6 0.0000 0.0000 0.0000 0.0000 0.0000 29.1620
#
#
#
# Elastic Compliance Matrix: (Units=1/GPa)
#
#
# Indices 1 2 3 4 5 6 
#
# 1 0.012000 -0.004617 -0.003613 0.000000 0.000000 0.000000
# 2 -0.004617 0.025166 -0.003880 0.000000 0.000000 0.000000
# 3 -0.003613 -0.003880 0.013169 0.000000 0.000000 0.000000
# 4 0.000000 0.000000 0.000000 0.194465 0.000000 0.000000
# 5 0.000000 0.000000 0.000000 0.000000 0.075092 0.000000
# 6 0.000000 0.000000 0.000000 0.000000 0.000000 0.034291
#
#
# Mechanical properties :
#
#
# Convention : Reuss Voigt Hill
#
# Bulk Modulus (GPa) = 38.29351 44.90934 41.60143
# Shear Modulus (GPa) = 12.91626 20.31913 16.61770
#
# Velocity S-wave (km/s) = 2.67785 3.35869 3.03740
# Velocity P-wave (km/s) = 5.55166 6.32249 5.94957
#
# Compressibility (1/GPa) = 0.02611408
#
# Stress axis : x y z
#
# Youngs Moduli (GPa) = 83.33023 39.73675 75.93616
#
# Poissons Ratio (x) = 0.18346 0.27437
# Poissons Ratio (y) = 0.38473 0.29466
# Poissons Ratio (z) = 0.30109 0.15419
#
# Static dielectric constant tensor:
#      x y z
#    x 1.608110 0.000000 0.000000 
#    y 0.000000 1.630300 0.000000 
#    z 0.000000 0.000000 1.658910 
# 
# From -- ./inp_files/76127.got.cif
#   From: 2010.05.17/outbox.cif.g08.bks.cpg/sg65_39_cif.got.tgz:76127.got - 2010.06.03 17:01:31.
