data_PCOD9488760
_publ_section_title
;
Structure prediction by ZEFSAII (Michael W. Deem and Ramdas Pophale) SiO2 
 PCOD9488760
Probable space group: C M M M
;
_chemical_formula_sum "Si O2"
_cell_formula_units_Z 120
_cell_length_a 9.306777
_cell_length_b 28.394077
_cell_length_c 26.055344
_cell_angle_alpha 90.000000
_cell_angle_beta 90.000000
_cell_angle_gamma 90.000000
_cell_volume 6885.315970
_symmetry_space_group_name_H-M "C M M M"
_symmetry_group_IT_number 65
_symmetry_cell_setting 'orthorhombic'
loop_
_space_group_symop_operation_xyz
x,y,z
-x,-y,z
x,-y,-z
-x,y,-z
-x,-y,-z
x,y,-z
-x,y,z
x,-y,z
1/2+x,1/2+y,z
1/2-x,1/2-y,z
1/2+x,1/2-y,-z
1/2-x,1/2+y,-z
1/2-x,1/2-y,-z
1/2+x,1/2+y,-z
1/2-x,1/2+y,z
1/2+x,1/2-y,z
loop_
_atom_site_type_symbol
_atom_site_label
_atom_site_fract_x
_atom_site_fract_y
_atom_site_fract_z
Si Si1 0.665047 0.944030 0.500000
Si Si2 0.832318 0.119259 0.702770
Si Si3 0.834045 0.555852 0.224791
Si Si4 0.169774 0.553783 0.061532
Si Si5 0.668129 0.384532 0.419842
Si Si6 0.671835 0.699630 0.215480
Si Si7 0.828204 0.885291 0.859250
Si Si8 0.659329 0.208498 0.440026
O O1 0.500000 0.925797 0.500000
O O2 0.748436 0.925572 0.550296
O O3 0.661747 0.000000 0.500000
O O4 0.725521 0.079995 0.724174
O O5 0.821197 0.118394 0.641656
O O6 0.797695 0.167812 0.733445
O O7 0.000000 0.108929 0.716208
O O8 0.825140 0.500000 0.227025
O O9 0.731921 0.576813 0.181225
O O10 0.000000 0.569083 0.215083
O O11 0.214899 0.500000 0.076941
O O12 0.255117 0.595942 0.088766
O O13 0.000000 0.557553 0.074192
O O14 0.183986 0.556372 0.000000
O O15 0.500000 0.385927 0.433326
O O16 0.745603 0.337609 0.438544
O O17 0.500000 0.707159 0.214005
O O18 0.750000 0.750000 0.215147
O O19 0.709695 0.665298 0.166933
O O20 0.000000 0.886893 0.863403
O O21 0.640471 0.220496 0.500000
O O22 0.500000 0.202120 0.417785
O O23 0.750000 0.250000 0.414292
#
# Coordination Sequence:
#
# PCOD9488760 Si02
#       8
#     8  16  16  16  16  16  16  16
#     4  11  25  43  60  79 106 141 181 223 263 309
#     4   9  21  38  54  78 108 136 169 213 265 319
#     4  10  20  33  51  76 104 136 175 216 260 314
#     4   9  18  32  50  76 112 150 187 229 275 323
#     4  11  22  38  60  82 108 139 173 216 266 320
#     4   9  19  36  55  77 106 137 174 218 266 318
#     4  10  20  33  51  77 108 142 181 225 270 320
#     4  10  20  34  54  79 107 135 165 201 248 303
#
# _framework density 17.428394000000001
#
# number of rings (size 3 to 8) (size 9 to 14) (size 15 to 20)
#    0.000    2.200    0.667    3.400    0.000    9.067 
#    0.000    4.667    0.000    0.400    0.000    0.000 
#    0.000    0.000    0.000    0.000    0.000    0.000 
#
# Total GULP energy -334320.824113 kJ/mol
# GULP energy per Si atom -5572.013735 kJ/mol
# Density = 1.738873 g / cm^3
# Si number density = 17.428394 Si / 1000 Ang^3
#
#
#
# Elastic Constant Matrix: (Units=GPa)
#
#
# Indices 1 2 3 4 5 6 
#
# 1 92.9342 52.4417 38.8672 0.0000 0.0000 0.0000
# 2 52.4417 98.8884 34.3476 0.0000 0.0000 0.0000
# 3 38.8672 34.3476 67.6475 0.0000 0.0000 0.0000
# 4 0.0000 0.0000 0.0000 36.3984 0.0000 0.0000
# 5 0.0000 0.0000 0.0000 0.0000 -52.0353 0.0000
# 6 0.0000 0.0000 0.0000 0.0000 0.0000 32.2616
#
#
#
# Elastic Compliance Matrix: (Units=1/GPa)
#
#
# Indices 1 2 3 4 5 6 
#
# 1 0.017401 -0.006988 -0.006450 0.000000 0.000000 0.000000
# 2 -0.006988 0.015084 -0.003644 0.000000 0.000000 0.000000
# 3 -0.006450 -0.003644 0.020338 0.000000 0.000000 0.000000
# 4 0.000000 0.000000 0.000000 0.027474 0.000000 0.000000
# 5 0.000000 0.000000 0.000000 0.000000 -0.019218 0.000000
# 6 0.000000 0.000000 0.000000 0.000000 0.000000 0.030997
#
#
# Mechanical properties :
#
#
# Convention : Reuss Voigt Hill
#
# Bulk Modulus (GPa) = 53.58959 56.75369 55.17164
# Shear Modulus (GPa) = 37.74779 12.24586 24.99683
#
# Velocity S-wave (km/s) = 4.65895 2.65361 3.79127
# Velocity P-wave (km/s) = 7.73022 6.48255 7.13371
#
# Compressibility (1/GPa) = 0.01866034
#
# Stress axis : x y z
#
# Youngs Moduli (GPa) = 57.46873 66.29693 49.16800
#
# Poissons Ratio (x) = 0.46326 0.31712
# Poissons Ratio (y) = 0.40157 0.17916
# Poissons Ratio (z) = 0.37066 0.24158
#
# Static dielectric constant tensor:
#      x y z
#    x 1.616370 0.000000 0.000000 
#    y 0.000000 1.593680 0.000000 
#    z 0.000000 0.000000 1.649810 
# 
# From -- ./inp_files/74010.got.cif
#   From: 2010.05.17/outbox.cif.g08.bks.cpg/sg65_38_cif.got.tgz:74010.got - 2010.06.03 17:01:31.
