data_PCOD9488427
_publ_section_title
;
Structure prediction by ZEFSAII (Michael W. Deem and Ramdas Pophale) SiO2 
 PCOD9488427
Probable space group: C M M M
;
_chemical_formula_sum "Si O2"
_cell_formula_units_Z 120
_cell_length_a 14.635814
_cell_length_b 28.002852
_cell_length_c 15.016945
_cell_angle_alpha 90.000000
_cell_angle_beta 90.000000
_cell_angle_gamma 90.000000
_cell_volume 6154.612816
_symmetry_space_group_name_H-M "C M M M"
_symmetry_group_IT_number 65
_symmetry_cell_setting 'orthorhombic'
loop_
_space_group_symop_operation_xyz
x,y,z
-x,-y,z
x,-y,-z
-x,y,-z
-x,-y,-z
x,y,-z
-x,y,z
x,-y,z
1/2+x,1/2+y,z
1/2-x,1/2-y,z
1/2+x,1/2-y,-z
1/2-x,1/2+y,-z
1/2-x,1/2-y,-z
1/2+x,1/2+y,-z
1/2-x,1/2+y,z
1/2+x,1/2-y,z
loop_
_atom_site_type_symbol
_atom_site_label
_atom_site_fract_x
_atom_site_fract_y
_atom_site_fract_z
Si Si1 0.099245 0.828041 0.177806
Si Si2 0.111130 0.000000 0.599794
Si Si3 0.702319 0.156871 0.898036
Si Si4 0.649487 0.229038 0.749832
Si Si5 0.890671 0.653875 0.399253
Si Si6 0.608328 0.051216 0.608263
Si Si7 0.606650 0.572684 0.251864
Si Si8 0.745108 0.947711 0.104675
O O1 0.188879 0.832491 0.116247
O O2 0.096303 0.776375 0.222572
O O3 0.112680 0.869981 0.250721
O O4 0.000000 0.837300 0.134234
O O5 0.136289 0.046229 0.658208
O O6 0.148837 0.000000 0.500000
O O7 0.000000 0.000000 0.593255
O O8 0.650589 0.191557 0.831122
O O9 0.688400 0.100618 0.877813
O O10 0.678034 0.166244 0.000000
O O11 0.750000 0.250000 0.737044
O O12 0.624925 0.198600 0.663750
O O13 0.856022 0.661244 0.500000
O O14 0.854040 0.602766 0.362156
O O15 0.000000 0.647699 0.405164
O O16 0.613445 0.052287 0.500000
O O17 0.500000 0.049811 0.630487
O O18 0.648380 0.000000 0.638381
O O19 0.500000 0.560348 0.237424
O O20 0.668317 0.555528 0.169836
O O21 0.701125 0.000000 0.117658
O O22 0.771691 0.944494 0.000000
#
# Coordination Sequence:
#
# PCOD9488427 Si02
#       8
#    16   8  16  16  16  16  16  16
#     4   9  18  31  49  71  96 124 159 206 252 287
#     4   9  16  26  41  61  89 127 162 188 224 281
#     4   9  19  34  50  70  98 131 164 197 241 297
#     4  10  20  33  49  68  96 131 167 199 240 285
#     4   9  17  30  50  74  97 122 155 197 242 285
#     4   7  10  19  38  65  94 118 140 176 230 285
#     4   9  16  27  42  65  95 123 152 195 244 287
#     4   9  16  27  46  70  93 121 155 193 239 292
#
# _framework density 19.497571000000001
#
# number of rings (size 3 to 8) (size 9 to 14) (size 15 to 20)
#    0.000    3.133    0.667    1.600    0.000    3.200 
#    0.000    4.667    0.000    8.400    0.000    0.000 
#    0.000    0.000    0.000   16.667    0.000    0.267 
#
# Total GULP energy -334036.760088 kJ/mol
# GULP energy per Si atom -5567.279335 kJ/mol
# Density = 1.945319 g / cm^3
# Si number density = 19.497571 Si / 1000 Ang^3
#
#
#
# Elastic Constant Matrix: (Units=GPa)
#
#
# Indices 1 2 3 4 5 6 
#
# 1 17.0003 7.0527 -1.6483 0.0000 0.0000 0.0000
# 2 7.0527 183.3355 59.2048 0.0000 0.0000 0.0000
# 3 -1.6483 59.2048 86.4404 0.0000 0.0000 0.0000
# 4 0.0000 0.0000 0.0000 21.1476 0.0000 0.0000
# 5 0.0000 0.0000 0.0000 0.0000 -9.7135 0.0000
# 6 0.0000 0.0000 0.0000 0.0000 0.0000 7.8664
#
#
#
# Elastic Compliance Matrix: (Units=1/GPa)
#
#
# Indices 1 2 3 4 5 6 
#
# 1 0.060606 -0.003473 0.003534 0.000000 0.000000 0.000000
# 2 -0.003473 0.007203 -0.004999 0.000000 0.000000 0.000000
# 3 0.003534 -0.004999 0.015060 0.000000 0.000000 0.000000
# 4 0.000000 0.000000 0.000000 0.047287 0.000000 0.000000
# 5 0.000000 0.000000 0.000000 0.000000 -0.102949 0.000000
# 6 0.000000 0.000000 0.000000 0.000000 0.000000 0.127123
#
#
# Mechanical properties :
#
#
# Convention : Reuss Voigt Hill
#
# Bulk Modulus (GPa) = 13.69998 46.22160 29.96079
# Shear Modulus (GPa) = 26.52019 18.67124 22.59571
#
# Velocity S-wave (km/s) = 3.69206 3.09790 3.40795
# Velocity P-wave (km/s) = 5.02164 6.04597 5.55746
#
# Compressibility (1/GPa) = 0.07299282
#
# Stress axis : x y z
#
# Youngs Moduli (GPa) = 16.50007 138.84008 66.39999
#
# Poissons Ratio (x) = 0.48216 -0.23467
# Poissons Ratio (y) = 0.05730 0.33196
# Poissons Ratio (z) = -0.05832 0.69411
#
# Static dielectric constant tensor:
#      x y z
#    x 1.728850 0.000000 0.000000 
#    y 0.000000 1.747600 0.000000 
#    z 0.000000 0.000000 1.658870 
# 
# From -- ./inp_files/44848.got.cif
#   From: 2010.05.17/outbox.cif.g08.bks.cpg/sg65_23_cif.got.tgz:44848.got - 2010.06.03 17:01:31.
