data_PCOD9488153
_publ_section_title
;
Structure prediction by ZEFSAII (Michael W. Deem and Ramdas Pophale) SiO2 
 PCOD9488153
Probable space group: C M M M
;
_chemical_formula_sum "Si O2"
_cell_formula_units_Z 64
_cell_length_a 42.670025
_cell_length_b 9.588358
_cell_length_c 9.414030
_cell_angle_alpha 90.000000
_cell_angle_beta 90.000000
_cell_angle_gamma 90.000000
_cell_volume 3851.613641
_symmetry_space_group_name_H-M "C M M M"
_symmetry_group_IT_number 65
_symmetry_cell_setting 'orthorhombic'
loop_
_space_group_symop_operation_xyz
x,y,z
-x,-y,z
x,-y,-z
-x,y,-z
-x,-y,-z
x,y,-z
-x,y,z
x,-y,z
1/2+x,1/2+y,z
1/2-x,1/2-y,z
1/2+x,1/2-y,-z
1/2-x,1/2+y,-z
1/2-x,1/2-y,-z
1/2+x,1/2+y,-z
1/2-x,1/2+y,z
1/2+x,1/2-y,z
loop_
_atom_site_type_symbol
_atom_site_label
_atom_site_fract_x
_atom_site_fract_y
_atom_site_fract_z
Si Si1 0.089232 0.832956 0.667677
Si Si2 0.151187 0.169751 0.836174
Si Si3 0.720336 0.339276 0.173269
Si Si4 0.463738 0.834307 0.168429
O O1 0.089838 0.806109 0.500000
O O2 0.121987 0.788612 0.740140
O O3 0.060696 0.753986 0.741937
O O4 0.086010 0.000000 0.689097
O O5 0.185776 0.214816 0.785517
O O6 0.152398 0.000000 0.836918
O O7 0.146393 0.213914 0.000000
O O8 0.723681 0.500000 0.218123
O O9 0.750000 0.250000 0.220926
O O10 0.720078 0.338622 0.000000
O O11 0.500000 0.800602 0.202598
O O12 0.459447 0.000000 0.192170
O O13 0.459223 0.808718 0.000000
#
# Coordination Sequence:
#
# PCOD9488153 Si02
#       4
#    16  16  16  16
#     4  10  20  32  48  72  99 126 158 195 233 275
#     4   8  14  26  44  64  88 120 154 188 230 277
#     4   8  13  22  38  60  84 110 143 185 231 274
#     4   9  19  36  55  73  94 122 156 192 232 280
#
# _framework density 16.616412
#
# number of rings (size 3 to 8) (size 9 to 14) (size 15 to 20)
#    0.000    3.250    0.000    3.000    0.000    3.000 
#    0.000    5.000    0.000    5.250    0.000    0.000 
#    0.000    0.000    0.000    0.000    0.000    0.000 
#
# Total GULP energy -178201.203615 kJ/mol
# GULP energy per Si atom -5568.787613 kJ/mol
# Density = 1.657859 g / cm^3
# Si number density = 16.616412 Si / 1000 Ang^3
#
#
#
# Elastic Constant Matrix: (Units=GPa)
#
#
# Indices 1 2 3 4 5 6 
#
# 1 203.4656 71.7171 94.0402 0.0000 0.0000 0.0000
# 2 71.7171 35.9914 41.5935 0.0000 0.0000 0.0000
# 3 94.0402 41.5935 64.5212 0.0000 0.0000 0.0000
# 4 0.0000 0.0000 0.0000 17.9853 0.0000 0.0000
# 5 0.0000 0.0000 0.0000 0.0000 -4.5490 0.0000
# 6 0.0000 0.0000 0.0000 0.0000 0.0000 30.1443
#
#
#
# Elastic Compliance Matrix: (Units=1/GPa)
#
#
# Indices 1 2 3 4 5 6 
#
# 1 0.018871 -0.022811 -0.012800 0.000000 0.000000 0.000000
# 2 -0.022811 0.136527 -0.054765 0.000000 0.000000 0.000000
# 3 -0.012800 -0.054765 0.069459 0.000000 0.000000 0.000000
# 4 0.000000 0.000000 0.000000 0.055601 0.000000 0.000000
# 5 0.000000 0.000000 0.000000 0.000000 -0.219828 0.000000
# 6 0.000000 0.000000 0.000000 0.000000 0.000000 0.033174
#
#
# Mechanical properties :
#
#
# Convention : Reuss Voigt Hill
#
# Bulk Modulus (GPa) = 22.67283 79.85332 51.26308
# Shear Modulus (GPa) = 17.28560 15.15795 16.22177
#
# Velocity S-wave (km/s) = 3.22882 3.02359 3.12789
# Velocity P-wave (km/s) = 5.25118 7.76857 6.63044
#
# Compressibility (1/GPa) = 0.04410565
#
# Stress axis : x y z
#
# Youngs Moduli (GPa) = 52.99091 7.32454 14.39692
#
# Poissons Ratio (x) = 0.16708 0.18428
# Poissons Ratio (y) = 1.20876 0.78845
# Poissons Ratio (z) = 0.67828 0.40113
#
# Static dielectric constant tensor:
#      x y z
#    x 1.569560 0.000000 0.000000 
#    y 0.000000 1.549870 0.000000 
#    z 0.000000 0.000000 1.541240 
# 
# From -- ./inp_files/17788.got.cif
#   From: 2010.05.17/outbox.cif.g08.bks.cpg/sg65_9_cif.got.tgz:17788.got - 2010.06.03 17:01:31.
