data_PCOD9488208
_publ_section_title
;
Structure prediction by ZEFSAII (Michael W. Deem and Ramdas Pophale) SiO2 
 PCOD9488208
Probable space group: C M M M
;
_chemical_formula_sum "Si O2"
_cell_formula_units_Z 104
_cell_length_a 28.660621
_cell_length_b 21.631144
_cell_length_c 7.867536
_cell_angle_alpha 90.000000
_cell_angle_beta 90.000000
_cell_angle_gamma 90.000000
_cell_volume 4877.573511
_symmetry_space_group_name_H-M "C M M M"
_symmetry_group_IT_number 65
_symmetry_cell_setting 'orthorhombic'
loop_
_space_group_symop_operation_xyz
x,y,z
-x,-y,z
x,-y,-z
-x,y,-z
-x,-y,-z
x,y,-z
-x,y,z
x,-y,z
1/2+x,1/2+y,z
1/2-x,1/2-y,z
1/2+x,1/2-y,-z
1/2-x,1/2+y,-z
1/2-x,1/2-y,-z
1/2+x,1/2+y,-z
1/2-x,1/2+y,z
1/2+x,1/2-y,z
loop_
_atom_site_type_symbol
_atom_site_label
_atom_site_fract_x
_atom_site_fract_y
_atom_site_fract_z
Si Si1 0.128572 0.902479 0.303637
Si Si2 0.704714 0.166835 0.805419
Si Si3 0.553119 0.837636 0.205711
Si Si4 0.128153 0.570915 0.299368
Si Si5 0.270829 0.433183 0.198645
Si Si6 0.631389 0.739171 0.793351
Si Si7 0.447199 0.500000 0.202985
O O1 0.138645 0.913727 0.500000
O O2 0.173718 0.927229 0.205637
O O3 0.124787 0.829924 0.268647
O O4 0.082456 0.940254 0.257079
O O5 0.663626 0.115337 0.799904
O O6 0.747380 0.128559 0.725431
O O7 0.679283 0.227454 0.732304
O O8 0.717437 0.182693 0.000000
O O9 0.500000 0.829754 0.262977
O O10 0.577164 0.900266 0.270116
O O11 0.587835 0.782250 0.258716
O O12 0.553348 0.838837 0.000000
O O13 0.139358 0.574834 0.500000
O O14 0.131324 0.500000 0.245121
O O15 0.256635 0.500000 0.273463
O O16 0.256888 0.434027 0.000000
O O17 0.633095 0.738770 0.000000
O O18 0.500000 0.500000 0.270293
O O19 0.449245 0.500000 0.000000
#
# Coordination Sequence:
#
# PCOD9488208 Si02
#       7
#    16  16  16  16  16  16   8
#     4  12  25  40  61  91 125 155 187 231 289 354
#     4   9  19  36  59  86 112 151 204 249 284 330
#     4   9  19  36  57  79 103 139 191 245 290 338
#     4  10  20  32  48  75 113 153 189 233 291 350
#     4  10  20  36  61  88 118 157 201 244 288 340
#     4   9  19  37  59  83 116 153 195 244 291 345
#     4  11  25  47  73  95 117 151 197 247 300 357
#
# _framework density 21.322077
#
# number of rings (size 3 to 8) (size 9 to 14) (size 15 to 20)
#    0.000    2.077    0.769    3.462    0.000    7.385 
#    0.000    6.154    0.000    0.000    0.000    0.000 
#    0.000    0.000    0.000    0.000    0.000    0.000 
#
# Total GULP energy -290332.388444 kJ/mol
# GULP energy per Si atom -5583.315162 kJ/mol
# Density = 2.127355 g / cm^3
# Si number density = 21.322077 Si / 1000 Ang^3
#
#
#
# Elastic Constant Matrix: (Units=GPa)
#
#
# Indices 1 2 3 4 5 6 
#
# 1 111.6274 44.8436 -3.5016 0.0000 0.0000 0.0000
# 2 44.8436 149.6973 1.9655 0.0000 0.0000 0.0000
# 3 -3.5016 1.9655 37.1945 0.0000 0.0000 0.0000
# 4 0.0000 0.0000 0.0000 132.4109 0.0000 0.0000
# 5 0.0000 0.0000 0.0000 0.0000 -27.3157 0.0000
# 6 0.0000 0.0000 0.0000 0.0000 0.0000 67.1049
#
#
#
# Elastic Compliance Matrix: (Units=1/GPa)
#
#
# Indices 1 2 3 4 5 6 
#
# 1 0.010231 -0.003080 0.001126 0.000000 0.000000 0.000000
# 2 -0.003080 0.007612 -0.000692 0.000000 0.000000 0.000000
# 3 0.001126 -0.000692 0.027028 0.000000 0.000000 0.000000
# 4 0.000000 0.000000 0.000000 0.007552 0.000000 0.000000
# 5 0.000000 0.000000 0.000000 0.000000 -0.036609 0.000000
# 6 0.000000 0.000000 0.000000 0.000000 0.000000 0.014902
#
#
# Mechanical properties :
#
#
# Convention : Reuss Voigt Hill
#
# Bulk Modulus (GPa) = 25.26577 42.79269 34.02923
# Shear Modulus (GPa) = 101.62427 51.45412 76.53920
#
# Velocity S-wave (km/s) = 6.91122 4.91775 5.99788
# Velocity P-wave (km/s) = 8.69264 7.23594 7.99753
#
# Compressibility (1/GPa) = 0.03957924
#
# Stress axis : x y z
#
# Youngs Moduli (GPa) = 97.74381 131.37580 36.99828
#
# Poissons Ratio (x) = 0.40458 -0.04166
# Poissons Ratio (y) = 0.30101 0.02561
# Poissons Ratio (z) = -0.11005 0.09093
#
# Static dielectric constant tensor:
#      x y z
#    x 1.780750 0.000000 0.000000 
#    y 0.000000 1.774860 0.000000 
#    z 0.000000 0.000000 1.793490 
# 
# From -- ./inp_files/16468.got.cif
#   From: 2010.05.17/outbox.cif.g08.bks.cpg/sg65_9_cif.got.tgz:16468.got - 2010.06.03 17:01:31.
