data_PCOD9488280
_publ_section_title
;
Structure prediction by ZEFSAII (Michael W. Deem and Ramdas Pophale) SiO2 
 PCOD9488280
Probable space group: C M M M
;
_chemical_formula_sum "Si O2"
_cell_formula_units_Z 88
_cell_length_a 7.771701
_cell_length_b 19.126749
_cell_length_c 31.449496
_cell_angle_alpha 90.000000
_cell_angle_beta 90.000000
_cell_angle_gamma 90.000000
_cell_volume 4674.885004
_symmetry_space_group_name_H-M "C M M M"
_symmetry_group_IT_number 65
_symmetry_cell_setting 'orthorhombic'
loop_
_space_group_symop_operation_xyz
x,y,z
-x,-y,z
x,-y,-z
-x,y,-z
-x,-y,-z
x,y,-z
-x,y,z
x,-y,z
1/2+x,1/2+y,z
1/2-x,1/2-y,z
1/2+x,1/2-y,-z
1/2-x,1/2+y,-z
1/2-x,1/2-y,-z
1/2+x,1/2+y,-z
1/2-x,1/2+y,z
1/2+x,1/2-y,z
loop_
_atom_site_type_symbol
_atom_site_label
_atom_site_fract_x
_atom_site_fract_y
_atom_site_fract_z
Si Si1 0.204276 0.831291 0.953604
Si Si2 0.206489 0.331541 0.697422
Si Si3 0.205643 0.578717 0.872141
Si Si4 0.210065 0.418434 0.222008
Si Si5 0.000000 0.084702 0.548292
Si Si6 0.296373 0.916327 0.613546
O O1 0.250000 0.750000 0.948844
O O2 0.259949 0.873722 0.912506
O O3 0.000000 0.837208 0.955438
O O4 0.274478 0.854765 0.000000
O O5 0.250000 0.250000 0.695688
O O6 0.273235 0.369340 0.740070
O O7 0.259853 0.373780 0.655338
O O8 0.000000 0.337364 0.698448
O O9 0.272552 0.500000 0.879203
O O10 0.267625 0.603121 0.825519
O O11 0.000000 0.574248 0.868335
O O12 0.257171 0.500000 0.228431
O O13 0.000000 0.416298 0.222735
O O14 0.829245 0.103659 0.574891
O O15 0.000000 0.111265 0.500000
O O16 0.000000 0.000000 0.546286
O O17 0.500000 0.903222 0.605200
O O18 0.278920 0.000000 0.621162
#
# Coordination Sequence:
#
# PCOD9488280 Si02
#       6
#    16  16  16  16   8  16
#     4  10  21  36  53  72  97 131 170 213 261 310
#     4  10  20  32  50  76 103 138 173 213 258 304
#     4   9  18  33  54  78 103 134 168 207 257 311
#     4   8  15  31  53  74 100 134 172 209 251 309
#     4   9  18  32  54  84 112 138 173 225 276 314
#     4   9  18  33  54  79 106 142 182 219 266 319
#
# _framework density 18.823992000000001
#
# number of rings (size 3 to 8) (size 9 to 14) (size 15 to 20)
#    0.000    2.818    0.000    2.182    1.273    5.091 
#    0.000    6.364    0.000    1.636    0.000    0.000 
#    0.000    0.000    0.000    0.000    0.000    0.000 
#
# Total GULP energy -245253.078623 kJ/mol
# GULP energy per Si atom -5573.933605 kJ/mol
# Density = 1.878115 g / cm^3
# Si number density = 18.823992 Si / 1000 Ang^3
#
#
#
# Elastic Constant Matrix: (Units=GPa)
#
#
# Indices 1 2 3 4 5 6 
#
# 1 45.2694 19.9243 49.5485 0.0000 0.0000 0.0000
# 2 19.9243 71.8754 97.4997 0.0000 0.0000 0.0000
# 3 49.5485 97.4997 228.9680 0.0000 0.0000 0.0000
# 4 0.0000 0.0000 0.0000 -13.9247 0.0000 0.0000
# 5 0.0000 0.0000 0.0000 0.0000 -6.7003 0.0000
# 6 0.0000 0.0000 0.0000 0.0000 0.0000 19.8336
#
#
#
# Elastic Compliance Matrix: (Units=1/GPa)
#
#
# Indices 1 2 3 4 5 6 
#
# 1 0.028984 0.001121 -0.006750 0.000000 0.000000 0.000000
# 2 0.001121 0.032984 -0.014288 0.000000 0.000000 0.000000
# 3 -0.006750 -0.014288 0.011912 0.000000 0.000000 0.000000
# 4 0.000000 0.000000 0.000000 -0.071815 0.000000 0.000000
# 5 0.000000 0.000000 0.000000 0.000000 -0.149246 0.000000
# 6 0.000000 0.000000 0.000000 0.000000 0.000000 0.050420
#
#
# Mechanical properties :
#
#
# Convention : Reuss Voigt Hill
#
# Bulk Modulus (GPa) = 29.37056 75.56196 52.46626
# Shear Modulus (GPa) = -109.69675 11.78440 -48.95617
#
# Velocity S-wave (km/s) = -7.64209 2.50478 -5.10527
# Velocity P-wave (km/s) = 7.88873 6.97091 2.61136
#
# Compressibility (1/GPa) = 0.03404770
#
# Stress axis : x y z
#
# Youngs Moduli (GPa) = 34.50170 30.31794 83.94797
#
# Poissons Ratio (x) = -0.03400 0.56662
# Poissons Ratio (y) = -0.03869 1.19944
# Poissons Ratio (z) = 0.23287 0.43318
#
# Static dielectric constant tensor:
#      x y z
#    x 1.704220 0.000000 0.000000 
#    y 0.000000 1.618650 0.000000 
#    z 0.000000 0.000000 1.676340 
# 
# From -- ./inp_files/70933.got.cif
#   From: 2010.05.17/outbox.cif.g08.bks.cpg/sg65_36_cif.got.tgz:70933.got - 2010.06.03 17:01:31.
