data_PCOD9488115
_publ_section_title
;
Structure prediction by ZEFSAII (Michael W. Deem and Ramdas Pophale) SiO2 
 PCOD9488115
Probable space group: C M M M
;
_chemical_formula_sum "Si O2"
_cell_formula_units_Z 84
_cell_length_a 7.255990
_cell_length_b 33.692075
_cell_length_c 15.469564
_cell_angle_alpha 90.000000
_cell_angle_beta 90.000000
_cell_angle_gamma 90.000000
_cell_volume 3781.834399
_symmetry_space_group_name_H-M "C M M M"
_symmetry_group_IT_number 65
_symmetry_cell_setting 'orthorhombic'
loop_
_space_group_symop_operation_xyz
x,y,z
-x,-y,z
x,-y,-z
-x,y,-z
-x,-y,-z
x,y,-z
-x,y,z
x,-y,z
1/2+x,1/2+y,z
1/2-x,1/2-y,z
1/2+x,1/2-y,-z
1/2-x,1/2+y,-z
1/2-x,1/2-y,-z
1/2+x,1/2+y,-z
1/2-x,1/2+y,z
1/2+x,1/2-y,z
loop_
_atom_site_type_symbol
_atom_site_label
_atom_site_fract_x
_atom_site_fract_y
_atom_site_fract_z
Si Si1 0.724925 0.000000 0.599731
Si Si2 0.250000 0.750000 0.000000
Si Si3 0.280695 0.203188 0.500000
Si Si4 0.223576 0.682005 0.863909
Si Si5 0.723825 0.908839 0.905500
Si Si6 0.724263 0.926639 0.717012
Si Si7 0.224232 0.336962 0.324570
O O1 0.783706 0.961276 0.653177
O O2 0.500000 0.000000 0.598868
O O3 0.783674 0.000000 0.500000
O O4 0.289879 0.716542 0.925209
O O5 0.500000 0.196422 0.500000
O O6 0.250000 0.250000 0.500000
O O7 0.210457 0.183304 0.412071
O O8 0.274268 0.637622 0.894443
O O9 0.278651 0.685027 0.763818
O O10 0.000000 0.683951 0.870485
O O11 0.500000 0.910046 0.905527
O O12 0.782562 0.930494 0.817360
O O13 0.784872 0.923138 0.000000
O O14 0.500000 0.927101 0.717338
O O15 0.779239 0.882959 0.684426
O O16 0.000000 0.336702 0.324540
#
# Coordination Sequence:
#
# PCOD9488115 Si02
#       7
#     8   4   8  16  16  16  16
#     4   9  16  22  31  49  73  95 122 166 206 245
#     4  12  18  20  40  56  72  94 128 168 214 244
#     4  10  20  32  48  65  85 113 151 190 222 258
#     4   9  17  27  36  53  76  98 129 168 205 245
#     4   8  12  22  36  45  61  91 123 156 190 229
#     4   8  14  23  35  51  71  98 130 160 200 249
#     4   8  16  29  43  56  77 109 141 173 209 259
#
# _framework density 22.211442000000002
#
# number of rings (size 3 to 8) (size 9 to 14) (size 15 to 20)
#    0.000    3.333    0.952    2.571    2.667    0.000 
#    0.000    0.476    0.000    2.857    0.000    0.000 
#    0.000    0.000    0.000    1.714    0.000    4.571 
#
# Total GULP energy -233966.580797 kJ/mol
# GULP energy per Si atom -5570.632876 kJ/mol
# Density = 2.216089 g / cm^3
# Si number density = 22.211442 Si / 1000 Ang^3
#
#
#
# Elastic Constant Matrix: (Units=GPa)
#
#
# Indices 1 2 3 4 5 6 
#
# 1 97.2291 2.0255 9.7792 0.0000 0.0000 0.0000
# 2 2.0255 123.0558 132.5720 0.0000 0.0000 0.0000
# 3 9.7792 132.5720 297.9816 0.0000 0.0000 0.0000
# 4 0.0000 0.0000 0.0000 39.5292 0.0000 0.0000
# 5 0.0000 0.0000 0.0000 0.0000 -38.0031 0.0000
# 6 0.0000 0.0000 0.0000 0.0000 0.0000 -35.4069
#
#
#
# Elastic Compliance Matrix: (Units=1/GPa)
#
#
# Indices 1 2 3 4 5 6 
#
# 1 0.010328 0.000375 -0.000506 0.000000 0.000000 0.000000
# 2 0.000375 0.015620 -0.006962 0.000000 0.000000 0.000000
# 3 -0.000506 -0.006962 0.006470 0.000000 0.000000 0.000000
# 4 0.000000 0.000000 0.000000 0.025298 0.000000 0.000000
# 5 0.000000 0.000000 0.000000 0.000000 -0.026314 0.000000
# 6 0.000000 0.000000 0.000000 0.000000 0.000000 -0.028243
#
#
# Mechanical properties :
#
#
# Convention : Reuss Voigt Hill
#
# Bulk Modulus (GPa) = 54.84605 89.66888 72.25747
# Shear Modulus (GPa) = 213.47034 18.14981 115.81007
#
# Velocity S-wave (km/s) = 9.81412 2.86166 7.22862
# Velocity P-wave (km/s) = 12.37614 7.16778 10.11301
#
# Compressibility (1/GPa) = 0.01823285
#
# Stress axis : x y z
#
# Youngs Moduli (GPa) = 96.82380 64.01867 154.56359
#
# Poissons Ratio (x) = -0.02399 0.07816
# Poissons Ratio (y) = -0.03629 1.07605
# Poissons Ratio (z) = 0.04896 0.44569
#
# Static dielectric constant tensor:
#      x y z
#    x 1.834020 0.000000 0.000000 
#    y 0.000000 1.742290 0.000000 
#    z 0.000000 0.000000 1.802670 
# 
# From -- ./inp_files/38870.got.cif
#   From: 2010.05.17/outbox.cif.g08.bks.cpg/sg65_20_cif.got.tgz:38870.got - 2010.06.03 17:01:31.
