data_PCOD9488894
_publ_section_title
;
Structure prediction by ZEFSAII (Michael W. Deem and Ramdas Pophale) SiO2 
 PCOD9488894
Probable space group: C M M M
;
_chemical_formula_sum "Si O2"
_cell_formula_units_Z 96
_cell_length_a 30.083762
_cell_length_b 19.295192
_cell_length_c 9.557349
_cell_angle_alpha 90.000000
_cell_angle_beta 90.000000
_cell_angle_gamma 90.000000
_cell_volume 5547.773143
_symmetry_space_group_name_H-M "C M M M"
_symmetry_group_IT_number 65
_symmetry_cell_setting 'orthorhombic'
loop_
_space_group_symop_operation_xyz
x,y,z
-x,-y,z
x,-y,-z
-x,y,-z
-x,-y,-z
x,y,-z
-x,y,z
x,-y,z
1/2+x,1/2+y,z
1/2-x,1/2-y,z
1/2+x,1/2-y,-z
1/2-x,1/2+y,-z
1/2-x,1/2-y,-z
1/2+x,1/2+y,-z
1/2-x,1/2+y,z
1/2+x,1/2-y,z
loop_
_atom_site_type_symbol
_atom_site_label
_atom_site_fract_x
_atom_site_fract_y
_atom_site_fract_z
Si Si1 0.448413 0.076442 0.832620
Si Si2 0.449828 0.419195 0.330154
Si Si3 0.615682 0.836229 0.657852
Si Si4 0.707708 0.081912 0.336767
Si Si5 0.773743 0.175540 0.832224
Si Si6 0.134537 0.173500 0.664205
O O1 0.500000 0.082504 0.793993
O O2 0.419683 0.135711 0.765669
O O3 0.432362 0.000000 0.786548
O O4 0.445726 0.078584 0.000000
O O5 0.450392 0.416483 0.500000
O O6 0.500000 0.397760 0.284232
O O7 0.443593 0.500000 0.290785
O O8 0.407799 0.372373 0.287578
O O9 0.600925 0.852992 0.500000
O O10 0.661916 0.876211 0.681317
O O11 0.621868 0.754344 0.668288
O O12 0.721502 0.091323 0.500000
O O13 0.742849 0.115991 0.232808
O O14 0.701696 0.000000 0.312892
O O15 0.750000 0.250000 0.799658
O O16 0.821503 0.167650 0.758095
O O17 0.777499 0.170747 0.000000
O O18 0.144100 0.155980 0.500000
#
# Coordination Sequence:
#
# PCOD9488894 Si02
#       6
#    16  16  16  16  16  16
#     4   9  19  35  52  71 100 140 181 219 264 321
#     4   8  15  30  53  82 114 144 178 223 273 327
#     4  10  20  33  52  79 108 137 174 225 276 324
#     4  10  21  37  57  80 107 142 183 225 274 332
#     4  11  23  38  56  79 110 148 185 227 279 334
#     4  10  20  34  57  84 110 144 182 224 275 329
#
# _framework density 17.30424
#
# number of rings (size 3 to 8) (size 9 to 14) (size 15 to 20)
#    0.000    2.333    1.667    2.000    0.000    5.000 
#    0.000    4.167    0.000    0.500    0.000    1.167 
#    0.000    0.000    0.000    0.000    0.000    0.000 
#
# Total GULP energy -267589.342703 kJ/mol
# GULP energy per Si atom -5574.777973 kJ/mol
# Density = 1.726485 g / cm^3
# Si number density = 17.304240 Si / 1000 Ang^3
#
#
#
# Elastic Constant Matrix: (Units=GPa)
#
#
# Indices 1 2 3 4 5 6 
#
# 1 107.7687 61.7142 54.2004 0.0000 0.0000 0.0000
# 2 61.7142 89.4439 34.9838 0.0000 0.0000 0.0000
# 3 54.2004 34.9838 44.7262 0.0000 0.0000 0.0000
# 4 0.0000 0.0000 0.0000 22.4361 0.0000 0.0000
# 5 0.0000 0.0000 0.0000 0.0000 29.3917 0.0000
# 6 0.0000 0.0000 0.0000 0.0000 0.0000 35.9106
#
#
#
# Elastic Compliance Matrix: (Units=1/GPa)
#
#
# Indices 1 2 3 4 5 6 
#
# 1 0.027720 -0.008627 -0.026845 0.000000 0.000000 0.000000
# 2 -0.008627 0.018793 -0.004245 0.000000 0.000000 0.000000
# 3 -0.026845 -0.004245 0.058210 0.000000 0.000000 0.000000
# 4 0.000000 0.000000 0.000000 0.044571 0.000000 0.000000
# 5 0.000000 0.000000 0.000000 0.000000 0.034023 0.000000
# 6 0.000000 0.000000 0.000000 0.000000 0.000000 0.027847
#
#
# Mechanical properties :
#
#
# Convention : Reuss Voigt Hill
#
# Bulk Modulus (GPa) = 39.54159 60.41509 49.97834
# Shear Modulus (GPa) = 16.72090 23.61703 20.16897
#
# Velocity S-wave (km/s) = 3.11189 3.69834 3.41772
# Velocity P-wave (km/s) = 5.98433 7.29563 6.67227
#
# Compressibility (1/GPa) = 0.02528983
#
# Stress axis : x y z
#
# Youngs Moduli (GPa) = 36.07473 53.21172 17.17927
#
# Poissons Ratio (x) = 0.45904 0.46117
# Poissons Ratio (y) = 0.31121 0.07293
# Poissons Ratio (z) = 0.96841 0.22590
#
# Static dielectric constant tensor:
#      x y z
#    x 1.578730 0.000000 0.000000 
#    y 0.000000 1.582380 0.000000 
#    z 0.000000 0.000000 1.577120 
# 
# From -- ./inp_files/12207.got.cif
#   From: 2010.05.17/outbox.cif.g08.bks.cpg/sg65_7_cif.got.tgz:12207.got - 2010.06.03 17:01:31.
