data_PCOD9488927
_publ_section_title
;
Structure prediction by ZEFSAII (Michael W. Deem and Ramdas Pophale) SiO2 
 PCOD9488927
Probable space group: C M M M
;
_chemical_formula_sum "Si O2"
_cell_formula_units_Z 88
_cell_length_a 22.397236
_cell_length_b 23.159932
_cell_length_c 9.546000
_cell_angle_alpha 90.000000
_cell_angle_beta 90.000000
_cell_angle_gamma 90.000000
_cell_volume 4951.686445
_symmetry_space_group_name_H-M "C M M M"
_symmetry_group_IT_number 65
_symmetry_cell_setting 'orthorhombic'
loop_
_space_group_symop_operation_xyz
x,y,z
-x,-y,z
x,-y,-z
-x,y,-z
-x,-y,-z
x,y,-z
-x,y,z
x,-y,z
1/2+x,1/2+y,z
1/2-x,1/2-y,z
1/2+x,1/2-y,-z
1/2-x,1/2+y,-z
1/2-x,1/2-y,-z
1/2+x,1/2+y,-z
1/2-x,1/2+y,z
1/2+x,1/2-y,z
loop_
_atom_site_type_symbol
_atom_site_label
_atom_site_fract_x
_atom_site_fract_y
_atom_site_fract_z
Si Si1 0.123742 0.371526 0.833706
Si Si2 0.745286 0.065800 0.165489
Si Si3 0.428786 0.567394 0.155956
Si Si4 0.318278 0.234155 0.665672
Si Si5 0.340805 0.636148 0.336421
Si Si6 0.500000 0.067503 0.170556
O O1 0.175607 0.419446 0.817441
O O2 0.148597 0.315825 0.751069
O O3 0.060146 0.398012 0.787586
O O4 0.119628 0.357866 0.000000
O O5 0.784475 0.111099 0.251493
O O6 0.758086 0.000000 0.208864
O O7 0.758962 0.070961 0.000000
O O8 0.500000 0.571236 0.164604
O O9 0.412423 0.500000 0.165815
O O10 0.396893 0.602445 0.275650
O O11 0.410562 0.587709 0.000000
O O12 0.316088 0.218668 0.500000
O O13 0.250000 0.250000 0.708626
O O14 0.350129 0.295751 0.682744
O O15 0.330893 0.625592 0.500000
O O16 0.500000 0.000000 0.216209
O O17 0.500000 0.066123 0.000000
#
# Coordination Sequence:
#
# PCOD9488927 Si02
#       6
#    16  16  16  16  16   8
#     4  10  20  35  59  86 111 145 190 232 275 334
#     4  10  20  33  52  81 113 142 176 223 279 333
#     4   9  19  37  58  79 107 142 176 216 271 328
#     4  10  21  39  57  75 109 150 182 222 278 330
#     4  11  22  35  54  79 107 143 186 226 272 328
#     4   9  18  36  61  89 121 151 184 235 294 343
#
# _framework density 17.771723000000001
#
# number of rings (size 3 to 8) (size 9 to 14) (size 15 to 20)
#    0.000    2.091    1.818    2.182    0.000    7.273 
#    1.636    1.364    0.000    2.182    0.000    0.000 
#    0.000    0.000    0.000    0.000    0.000    0.000 
#
# Total GULP energy -245418.462989 kJ/mol
# GULP energy per Si atom -5577.692341 kJ/mol
# Density = 1.773127 g / cm^3
# Si number density = 17.771723 Si / 1000 Ang^3
#
#
#
# Elastic Constant Matrix: (Units=GPa)
#
#
# Indices 1 2 3 4 5 6 
#
# 1 95.7140 57.1154 32.1488 0.0000 0.0000 0.0000
# 2 57.1154 101.3164 55.5481 0.0000 0.0000 0.0000
# 3 32.1488 55.5481 49.1631 0.0000 0.0000 0.0000
# 4 0.0000 0.0000 0.0000 16.6864 0.0000 0.0000
# 5 0.0000 0.0000 0.0000 0.0000 -24.3429 0.0000
# 6 0.0000 0.0000 0.0000 0.0000 0.0000 177.2288
#
#
#
# Elastic Compliance Matrix: (Units=1/GPa)
#
#
# Indices 1 2 3 4 5 6 
#
# 1 0.015753 -0.008495 -0.000703 0.000000 0.000000 0.000000
# 2 -0.008495 0.030519 -0.028927 0.000000 0.000000 0.000000
# 3 -0.000703 -0.028927 0.053484 0.000000 0.000000 0.000000
# 4 0.000000 0.000000 0.000000 0.059929 0.000000 0.000000
# 5 0.000000 0.000000 0.000000 0.000000 -0.041080 0.000000
# 6 0.000000 0.000000 0.000000 0.000000 0.000000 0.005642
#
#
# Mechanical properties :
#
#
# Convention : Reuss Voigt Hill
#
# Bulk Modulus (GPa) = 42.54292 59.53533 51.03913
# Shear Modulus (GPa) = 23.99993 40.67319 32.33656
#
# Velocity S-wave (km/s) = 3.67884 4.78917 4.27025
# Velocity P-wave (km/s) = 6.48349 8.00964 7.28663
#
# Compressibility (1/GPa) = 0.02350568
#
# Stress axis : x y z
#
# Youngs Moduli (GPa) = 63.47902 32.76658 18.69714
#
# Poissons Ratio (x) = 0.27836 0.01314
# Poissons Ratio (y) = 0.53928 0.54086
# Poissons Ratio (z) = 0.04461 0.94785
#
# Static dielectric constant tensor:
#      x y z
#    x 1.626770 0.000000 0.000000 
#    y 0.000000 1.597020 0.000000 
#    z 0.000000 0.000000 1.594570 
# 
# From -- ./inp_files/11769.got.cif
#   From: 2010.05.17/outbox.cif.g08.bks.cpg/sg65_6_cif.got.tgz:11769.got - 2010.06.03 17:01:31.
