data_PCOD9488391
_publ_section_title
;
Structure prediction by ZEFSAII (Michael W. Deem and Ramdas Pophale) SiO2 
 PCOD9488391
Probable space group: C M M M
;
_chemical_formula_sum "Si O2"
_cell_formula_units_Z 64
_cell_length_a 8.789978
_cell_length_b 28.871677
_cell_length_c 14.028705
_cell_angle_alpha 90.000000
_cell_angle_beta 90.000000
_cell_angle_gamma 90.000000
_cell_volume 3560.224474
_symmetry_space_group_name_H-M "C M M M"
_symmetry_group_IT_number 65
_symmetry_cell_setting 'orthorhombic'
loop_
_space_group_symop_operation_xyz
x,y,z
-x,-y,z
x,-y,-z
-x,y,-z
-x,-y,-z
x,y,-z
-x,y,z
x,-y,z
1/2+x,1/2+y,z
1/2-x,1/2-y,z
1/2+x,1/2-y,-z
1/2-x,1/2+y,-z
1/2-x,1/2-y,-z
1/2+x,1/2+y,-z
1/2-x,1/2+y,z
1/2+x,1/2-y,z
loop_
_atom_site_type_symbol
_atom_site_label
_atom_site_fract_x
_atom_site_fract_y
_atom_site_fract_z
Si Si1 0.826599 0.702312 0.886448
Si Si2 0.819779 0.555420 0.107999
Si Si3 0.178084 0.128985 0.237800
Si Si4 0.682182 0.199353 0.388811
O O1 0.750000 0.750000 0.855628
O O2 0.718814 0.662144 0.850642
O O3 0.000000 0.697355 0.850277
O O4 0.834081 0.702179 0.000000
O O5 0.802706 0.500000 0.114541
O O6 0.742708 0.580656 0.197534
O O7 0.000000 0.566481 0.110931
O O8 0.766254 0.568891 0.000000
O O9 0.256216 0.157035 0.324704
O O10 0.000000 0.125613 0.256064
O O11 0.722245 0.191732 0.500000
O O12 0.500000 0.201738 0.380911
O O13 0.750000 0.250000 0.362286
#
# Coordination Sequence:
#
# PCOD9488391 Si02
#       4
#    16  16  16  16
#     4  10  20  33  48  68  99 137 175 214 255 304
#     4   9  19  37  59  81 107 141 181 224 268 315
#     4  12  23  33  51  78 108 140 174 215 263 317
#     4  10  21  38  59  81 107 140 179 223 269 318
#
# _framework density 17.976393999999999
#
# number of rings (size 3 to 8) (size 9 to 14) (size 15 to 20)
#    0.000    1.750    0.000    6.000    0.000    7.000 
#    0.000    1.250    0.000    0.750    0.000    5.250 
#    0.000    0.000    0.000    0.000    0.000    0.000 
#
# Total GULP energy -178503.843919 kJ/mol
# GULP energy per Si atom -5578.245122 kJ/mol
# Density = 1.793548 g / cm^3
# Si number density = 17.976394 Si / 1000 Ang^3
#
#
#
# Elastic Constant Matrix: (Units=GPa)
#
#
# Indices 1 2 3 4 5 6 
#
# 1 78.5147 33.6658 42.6726 0.0000 0.0000 0.0000
# 2 33.6658 60.7626 42.6436 0.0000 0.0000 0.0000
# 3 42.6726 42.6436 117.6705 0.0000 0.0000 0.0000
# 4 0.0000 0.0000 0.0000 30.7204 0.0000 0.0000
# 5 0.0000 0.0000 0.0000 0.0000 10.2972 0.0000
# 6 0.0000 0.0000 0.0000 0.0000 0.0000 26.3868
#
#
#
# Elastic Compliance Matrix: (Units=1/GPa)
#
#
# Indices 1 2 3 4 5 6 
#
# 1 0.017944 -0.007209 -0.003895 0.000000 0.000000 0.000000
# 2 -0.007209 0.024967 -0.006434 0.000000 0.000000 0.000000
# 3 -0.003895 -0.006434 0.012242 0.000000 0.000000 0.000000
# 4 0.000000 0.000000 0.000000 0.032552 0.000000 0.000000
# 5 0.000000 0.000000 0.000000 0.000000 0.097113 0.000000
# 6 0.000000 0.000000 0.000000 0.000000 0.000000 0.037898
#
#
# Mechanical properties :
#
#
# Convention : Reuss Voigt Hill
#
# Bulk Modulus (GPa) = 49.80403 54.99022 52.39712
# Shear Modulus (GPa) = 18.90476 22.67862 20.79169
#
# Velocity S-wave (km/s) = 3.24642 3.55572 3.40459
# Velocity P-wave (km/s) = 6.46666 6.89305 6.68326
#
# Compressibility (1/GPa) = 0.02007870
#
# Stress axis : x y z
#
# Youngs Moduli (GPa) = 55.72788 40.05345 81.68344
#
# Poissons Ratio (x) = 0.28873 0.31816
# Poissons Ratio (y) = 0.40172 0.52553
# Poissons Ratio (z) = 0.21706 0.25769
#
# Static dielectric constant tensor:
#      x y z
#    x 1.634690 0.000000 0.000000 
#    y 0.000000 1.575970 0.000000 
#    z 0.000000 0.000000 1.647980 
# 
# From -- ./inp_files/36811.got.cif
#   From: 2010.05.17/outbox.cif.g08.bks.cpg/sg65_19_cif.got.tgz:36811.got - 2010.06.03 17:01:31.
