data_PCOD9488378
_publ_section_title
;
Structure prediction by ZEFSAII (Michael W. Deem and Ramdas Pophale) SiO2 
 PCOD9488378
Probable space group: C M M M
;
_chemical_formula_sum "Si O2"
_cell_formula_units_Z 104
_cell_length_a 27.922558
_cell_length_b 8.665684
_cell_length_c 27.436228
_cell_angle_alpha 90.000000
_cell_angle_beta 90.000000
_cell_angle_gamma 90.000000
_cell_volume 6638.690975
_symmetry_space_group_name_H-M "C M M M"
_symmetry_group_IT_number 65
_symmetry_cell_setting 'orthorhombic'
loop_
_space_group_symop_operation_xyz
x,y,z
-x,-y,z
x,-y,-z
-x,y,-z
-x,-y,-z
x,y,-z
-x,y,z
x,-y,z
1/2+x,1/2+y,z
1/2-x,1/2-y,z
1/2+x,1/2-y,-z
1/2-x,1/2+y,-z
1/2-x,1/2-y,-z
1/2+x,1/2+y,-z
1/2-x,1/2+y,z
1/2+x,1/2-y,z
loop_
_atom_site_type_symbol
_atom_site_label
_atom_site_fract_x
_atom_site_fract_y
_atom_site_fract_z
Si Si1 0.899730 0.187135 0.397677
Si Si2 0.304045 0.816238 0.154123
Si Si3 0.646510 0.314860 0.249319
Si Si4 0.554822 0.815108 0.300327
Si Si5 0.195798 0.814976 0.053257
Si Si6 0.698055 0.685124 0.349148
Si Si7 0.444648 0.311919 0.500000
O O1 0.931767 0.256129 0.354407
O O2 0.844903 0.231318 0.385481
O O3 0.918133 0.236447 0.450548
O O4 0.902714 0.000000 0.394617
O O5 0.250000 0.750000 0.158993
O O6 0.334503 0.758644 0.199831
O O7 0.325066 0.755778 0.102639
O O8 0.301249 0.000000 0.153181
O O9 0.647691 0.500000 0.245797
O O10 0.593637 0.260050 0.264438
O O11 0.680598 0.267997 0.294887
O O12 0.500000 0.773951 0.288973
O O13 0.559654 0.000000 0.298793
O O14 0.250000 0.750000 0.052037
O O15 0.197479 0.000000 0.057609
O O16 0.174184 0.776505 0.000000
O O17 0.700551 0.500000 0.349611
O O18 0.750000 0.750000 0.360634
O O19 0.444627 0.500000 0.500000
O O20 0.500000 0.262019 0.500000
#
# Coordination Sequence:
#
# PCOD9488378 Si02
#       7
#    16  16  16  16  16  16   8
#     4   9  18  32  49  70  92 116 151 188 222 266
#     4  11  20  29  43  64  93 126 159 195 234 275
#     4  10  20  33  48  67  90 118 155 193 229 270
#     4  10  20  33  49  70  95 120 145 178 226 280
#     4   9  16  26  40  58  83 118 159 198 234 273
#     4   9  18  30  45  64  87 117 149 183 220 261
#     4   9  16  28  50  73  89 111 147 191 232 269
#
# _framework density 15.66574
#
# number of rings (size 3 to 8) (size 9 to 14) (size 15 to 20)
#    0.000    2.385    0.000    5.538    0.000    7.077 
#    0.000    0.769    0.000    1.385    0.000    0.000 
#    0.000    0.615    0.000    6.462    0.000    2.769 
#
# Total GULP energy -289909.754068 kJ/mol
# GULP energy per Si atom -5575.187578 kJ/mol
# Density = 1.563008 g / cm^3
# Si number density = 15.665740 Si / 1000 Ang^3
#
#
#
# Elastic Constant Matrix: (Units=GPa)
#
#
# Indices 1 2 3 4 5 6 
#
# 1 94.8506 29.8671 65.0960 0.0000 0.0000 0.0000
# 2 29.8671 56.1046 43.8751 0.0000 0.0000 0.0000
# 3 65.0960 43.8751 156.8530 0.0000 0.0000 0.0000
# 4 0.0000 0.0000 0.0000 19.4358 0.0000 0.0000
# 5 0.0000 0.0000 0.0000 0.0000 16.5243 0.0000
# 6 0.0000 0.0000 0.0000 0.0000 0.0000 23.0131
#
#
#
# Elastic Compliance Matrix: (Units=1/GPa)
#
#
# Indices 1 2 3 4 5 6 
#
# 1 0.015448 -0.004109 -0.005262 0.000000 0.000000 0.000000
# 2 -0.004109 0.023907 -0.004982 0.000000 0.000000 0.000000
# 3 -0.005262 -0.004982 0.009953 0.000000 0.000000 0.000000
# 4 0.000000 0.000000 0.000000 0.051451 0.000000 0.000000
# 5 0.000000 0.000000 0.000000 0.000000 0.060517 0.000000
# 6 0.000000 0.000000 0.000000 0.000000 0.000000 0.043453
#
#
# Mechanical properties :
#
#
# Convention : Reuss Voigt Hill
#
# Bulk Modulus (GPa) = 48.53793 65.05385 56.79589
# Shear Modulus (GPa) = 20.80711 23.05932 21.93321
#
# Velocity S-wave (km/s) = 3.64839 3.84077 3.74582
# Velocity P-wave (km/s) = 6.98559 7.82848 7.41901
#
# Compressibility (1/GPa) = 0.02060244
#
# Stress axis : x y z
#
# Youngs Moduli (GPa) = 64.73411 41.82817 100.47525
#
# Poissons Ratio (x) = 0.17186 0.52867
# Poissons Ratio (y) = 0.26598 0.50059
# Poissons Ratio (z) = 0.34061 0.20840
#
# Static dielectric constant tensor:
#      x y z
#    x 1.505050 0.000000 0.000000 
#    y 0.000000 1.525390 0.000000 
#    z 0.000000 0.000000 1.538410 
# 
# From -- ./inp_files/76253.got.cif
#   From: 2010.05.17/outbox.cif.g08.bks.cpg/sg65_39_cif.got.tgz:76253.got - 2010.06.03 17:01:31.
