data_PCOD9488619
_publ_section_title
;
Structure prediction by ZEFSAII (Michael W. Deem and Ramdas Pophale) SiO2 
 PCOD9488619
Probable space group: C M M M
;
_chemical_formula_sum "Si O2"
_cell_formula_units_Z 88
_cell_length_a 9.308828
_cell_length_b 16.723848
_cell_length_c 29.826155
_cell_angle_alpha 90.000000
_cell_angle_beta 90.000000
_cell_angle_gamma 90.000000
_cell_volume 4643.318646
_symmetry_space_group_name_H-M "C M M M"
_symmetry_group_IT_number 65
_symmetry_cell_setting 'orthorhombic'
loop_
_space_group_symop_operation_xyz
x,y,z
-x,-y,z
x,-y,-z
-x,y,-z
-x,-y,-z
x,y,-z
-x,y,z
x,-y,z
1/2+x,1/2+y,z
1/2-x,1/2-y,z
1/2+x,1/2-y,-z
1/2-x,1/2+y,-z
1/2-x,1/2-y,-z
1/2+x,1/2+y,-z
1/2-x,1/2+y,z
1/2+x,1/2-y,z
loop_
_atom_site_type_symbol
_atom_site_label
_atom_site_fract_x
_atom_site_fract_y
_atom_site_fract_z
Si Si1 0.825950 0.090632 0.000000
Si Si2 0.668065 0.402777 0.363287
Si Si3 0.331600 0.902627 0.450914
Si Si4 0.667578 0.597696 0.736017
Si Si5 0.326930 0.665768 0.095263
Si Si6 0.837618 0.404473 0.822624
O O1 0.784562 0.133008 0.953851
O O2 0.000000 0.088538 0.000000
O O3 0.772371 0.000000 0.000000
O O4 0.500000 0.383641 0.367114
O O5 0.679425 0.500000 0.363513
O O6 0.751252 0.372526 0.406822
O O7 0.717476 0.376669 0.313694
O O8 0.276600 0.876131 0.500000
O O9 0.500000 0.883396 0.448120
O O10 0.321083 0.000000 0.450688
O O11 0.500000 0.619966 0.741992
O O12 0.670626 0.500000 0.736342
O O13 0.764547 0.626800 0.776995
O O14 0.500000 0.670287 0.097609
O O15 0.250000 0.750000 0.101031
O O16 0.263693 0.612647 0.135179
O O17 0.847355 0.500000 0.817990
O O18 0.000000 0.373117 0.829109
#
# Coordination Sequence:
#
# PCOD9488619 Si02
#       6
#     8  16  16  16  16  16
#     4   9  19  36  59  85 108 135 172 207 242 288
#     4   8  13  20  30  45  65  91 128 175 224 274
#     4   8  13  19  25  35  55  86 125 169 218 272
#     4   8  14  25  40  58  81 110 145 187 237 288
#     4  11  22  37  57  79 107 139 170 205 245 291
#     4  10  20  33  50  74 101 128 164 207 248 294
#
# _framework density 18.951962000000002
#
# number of rings (size 3 to 8) (size 9 to 14) (size 15 to 20)
#    0.000    3.000    0.000    3.545    0.000    2.909 
#    0.000    6.818    0.000    3.273    0.000    0.000 
#    0.000    0.000    0.000    0.000    0.000    0.909 
#
# Total GULP energy -245112.341052 kJ/mol
# GULP energy per Si atom -5570.735024 kJ/mol
# Density = 1.890883 g / cm^3
# Si number density = 18.951962 Si / 1000 Ang^3
#
#
#
# Elastic Constant Matrix: (Units=GPa)
#
#
# Indices 1 2 3 4 5 6 
#
# 1 76.7858 7.9863 76.3161 0.0000 0.0000 0.0000
# 2 7.9863 7.2537 3.1767 0.0000 0.0000 0.0000
# 3 76.3161 3.1767 186.7375 0.0000 0.0000 0.0000
# 4 0.0000 0.0000 0.0000 -13.6092 0.0000 0.0000
# 5 0.0000 0.0000 0.0000 0.0000 -96.5990 0.0000
# 6 0.0000 0.0000 0.0000 0.0000 0.0000 8.5742
#
#
#
# Elastic Compliance Matrix: (Units=1/GPa)
#
#
# Indices 1 2 3 4 5 6 
#
# 1 0.025391 -0.023587 -0.009976 0.000000 0.000000 0.000000
# 2 -0.023587 0.160805 0.006904 0.000000 0.000000 0.000000
# 3 -0.009976 0.006904 0.009314 0.000000 0.000000 0.000000
# 4 0.000000 0.000000 0.000000 -0.073480 0.000000 0.000000
# 5 0.000000 0.000000 0.000000 0.000000 -0.010352 0.000000
# 6 0.000000 0.000000 0.000000 0.000000 0.000000 0.116629
#
#
# Mechanical properties :
#
#
# Convention : Reuss Voigt Hill
#
# Bulk Modulus (GPa) = 7.03265 49.52616 28.27940
# Shear Modulus (GPa) = 15.19652 -8.10694 3.54479
#
# Velocity S-wave (km/s) = 2.83476 -2.07049 1.36911
# Velocity P-wave (km/s) = 3.79912 4.52475 4.17772
#
# Compressibility (1/GPa) = 0.14219395
#
# Stress axis : x y z
#
# Youngs Moduli (GPa) = 39.38408 6.21870 107.35969
#
# Poissons Ratio (x) = 0.14668 1.07097
# Poissons Ratio (y) = 0.92894 -0.74119
# Poissons Ratio (z) = 0.39288 -0.04293
#
# Static dielectric constant tensor:
#      x y z
#    x 1.641390 0.000000 0.000000 
#    y 0.000000 1.684410 0.000000 
#    z 0.000000 0.000000 1.730070 
# 
# From -- ./inp_files/76558.got.cif
#   From: 2010.05.17/outbox.cif.g08.bks.cpg/sg65_39_cif.got.tgz:76558.got - 2010.06.03 17:01:31.
