data_PCOD9488989
_publ_section_title
;
Structure prediction by ZEFSAII (Michael W. Deem and Ramdas Pophale) SiO2 
 PCOD9488989
Probable space group: C M M M
;
_chemical_formula_sum "Si O2"
_cell_formula_units_Z 96
_cell_length_a 17.283033
_cell_length_b 27.196110
_cell_length_c 10.800329
_cell_angle_alpha 90.000000
_cell_angle_beta 90.000000
_cell_angle_gamma 90.000000
_cell_volume 5076.492320
_symmetry_space_group_name_H-M "C M M M"
_symmetry_group_IT_number 65
_symmetry_cell_setting 'orthorhombic'
loop_
_space_group_symop_operation_xyz
x,y,z
-x,-y,z
x,-y,-z
-x,y,-z
-x,-y,-z
x,y,-z
-x,y,z
x,-y,z
1/2+x,1/2+y,z
1/2-x,1/2-y,z
1/2+x,1/2-y,-z
1/2-x,1/2+y,-z
1/2-x,1/2-y,-z
1/2+x,1/2+y,-z
1/2-x,1/2+y,z
1/2+x,1/2-y,z
loop_
_atom_site_type_symbol
_atom_site_label
_atom_site_fract_x
_atom_site_fract_y
_atom_site_fract_z
Si Si1 0.587446 0.500000 0.855378
Si Si2 0.331713 0.227582 0.850253
Si Si3 0.342636 0.059255 0.646621
Si Si4 0.172384 0.909764 0.264182
Si Si5 0.909630 0.625838 0.145302
Si Si6 0.086359 0.824068 0.851168
Si Si7 0.090675 0.056198 0.500000
O O1 0.500000 0.500000 0.797319
O O2 0.637488 0.547208 0.820458
O O3 0.576940 0.500000 0.000000
O O4 0.250000 0.250000 0.805723
O O5 0.357280 0.172716 0.816200
O O6 0.396271 0.267883 0.816292
O O7 0.327667 0.226511 0.000000
O O8 0.355905 0.071974 0.500000
O O9 0.258027 0.077877 0.690305
O O10 0.397123 0.084090 0.750670
O O11 0.345574 0.000000 0.654481
O O12 0.154457 0.858412 0.199574
O O13 0.119233 0.914241 0.383542
O O14 0.000000 0.640266 0.144593
O O15 0.890629 0.612189 0.000000
O O16 0.000000 0.839809 0.811078
O O17 0.088102 0.827397 0.000000
O O18 0.000000 0.051735 0.500000
O O19 0.124130 0.000000 0.500000
#
# Coordination Sequence:
#
# PCOD9488989 Si02
#       7
#     8  16  16  16  16  16   8
#     4  11  22  33  49  79 118 156 198 251 309 364
#     4   9  17  33  59  91 123 156 193 235 291 358
#     4  11  24  43  63  87 120 158 204 255 309 369
#     4  12  21  36  54  77 114 155 203 248 294 353
#     4  10  22  41  67  97 126 157 198 249 304 362
#     4  10  20  33  53  84 121 157 194 240 294 353
#     4  11  20  32  52  72  98 151 211 253 291 345
#
# _framework density 18.910696000000002
#
# number of rings (size 3 to 8) (size 9 to 14) (size 15 to 20)
#    0.000    1.500    2.500    3.500    0.000    7.000 
#    0.000    1.667    1.833    1.500    0.000    0.000 
#    0.000    0.000    0.000    0.000    0.000    0.000 
#
# Total GULP energy -267612.060220 kJ/mol
# GULP energy per Si atom -5575.251255 kJ/mol
# Density = 1.886765 g / cm^3
# Si number density = 18.910696 Si / 1000 Ang^3
#
#
#
# Elastic Constant Matrix: (Units=GPa)
#
#
# Indices 1 2 3 4 5 6 
#
# 1 70.0295 17.9301 26.1482 0.0000 0.0000 0.0000
# 2 17.9301 91.6893 38.6091 0.0000 0.0000 0.0000
# 3 26.1482 38.6091 84.9955 0.0000 0.0000 0.0000
# 4 0.0000 0.0000 0.0000 23.9895 0.0000 0.0000
# 5 0.0000 0.0000 0.0000 0.0000 51.9016 0.0000
# 6 0.0000 0.0000 0.0000 0.0000 0.0000 31.4711
#
#
#
# Elastic Compliance Matrix: (Units=1/GPa)
#
#
# Indices 1 2 3 4 5 6 
#
# 1 0.016262 -0.001327 -0.004400 0.000000 0.000000 0.000000
# 2 -0.001327 0.013594 -0.005767 0.000000 0.000000 0.000000
# 3 -0.004400 -0.005767 0.015739 0.000000 0.000000 0.000000
# 4 0.000000 0.000000 0.000000 0.041685 0.000000 0.000000
# 5 0.000000 0.000000 0.000000 0.000000 0.019267 0.000000
# 6 0.000000 0.000000 0.000000 0.000000 0.000000 0.031775
#
#
# Mechanical properties :
#
#
# Convention : Reuss Voigt Hill
#
# Bulk Modulus (GPa) = 44.23451 45.78769 45.01110
# Shear Modulus (GPa) = 29.61263 32.40756 31.01009
#
# Velocity S-wave (km/s) = 3.96146 4.14420 4.05386
# Velocity P-wave (km/s) = 6.66080 6.86763 6.76501
#
# Compressibility (1/GPa) = 0.02260678
#
# Stress axis : x y z
#
# Youngs Moduli (GPa) = 61.49118 73.56017 63.53824
#
# Poissons Ratio (x) = 0.09764 0.27957
# Poissons Ratio (y) = 0.08162 0.36642
# Poissons Ratio (z) = 0.27057 0.42421
#
# Static dielectric constant tensor:
#      x y z
#    x 1.684280 0.000000 0.000000 
#    y 0.000000 1.702200 0.000000 
#    z 0.000000 0.000000 1.635810 
# 
# From -- ./inp_files/27156.got.cif
#   From: 2010.05.17/outbox.cif.g08.bks.cpg/sg65_14_cif.got.tgz:27156.got - 2010.06.03 17:01:31.
