data_PCOD9488660
_publ_section_title
;
Structure prediction by ZEFSAII (Michael W. Deem and Ramdas Pophale) SiO2 
 PCOD9488660
Probable space group: C M M M
;
_chemical_formula_sum "Si O2"
_cell_formula_units_Z 96
_cell_length_a 18.625226
_cell_length_b 20.852112
_cell_length_c 14.247742
_cell_angle_alpha 90.000000
_cell_angle_beta 90.000000
_cell_angle_gamma 90.000000
_cell_volume 5533.471053
_symmetry_space_group_name_H-M "C M M M"
_symmetry_group_IT_number 65
_symmetry_cell_setting 'orthorhombic'
loop_
_space_group_symop_operation_xyz
x,y,z
-x,-y,z
x,-y,-z
-x,y,-z
-x,-y,-z
x,y,-z
-x,y,z
x,-y,z
1/2+x,1/2+y,z
1/2-x,1/2-y,z
1/2+x,1/2-y,-z
1/2-x,1/2+y,-z
1/2-x,1/2-y,-z
1/2+x,1/2+y,-z
1/2-x,1/2+y,z
1/2+x,1/2-y,z
loop_
_atom_site_type_symbol
_atom_site_label
_atom_site_fract_x
_atom_site_fract_y
_atom_site_fract_z
Si Si1 0.413807 0.669216 0.390719
Si Si2 0.311817 0.574392 0.714377
Si Si3 0.582337 0.838893 0.105190
Si Si4 0.915578 0.696294 0.308225
Si Si5 0.337656 0.072078 0.388287
Si Si6 0.277129 0.076465 0.105435
O O1 0.397935 0.656667 0.500000
O O2 0.500000 0.666356 0.378321
O O3 0.374185 0.618715 0.324783
O O4 0.389506 0.741084 0.363077
O O5 0.334330 0.500000 0.724307
O O6 0.245428 0.576140 0.641506
O O7 0.277037 0.597166 0.812845
O O8 0.500000 0.864086 0.111720
O O9 0.592242 0.794327 0.195989
O O10 0.644583 0.891706 0.114159
O O11 0.589371 0.810495 0.000000
O O12 0.877807 0.630678 0.338854
O O13 0.000000 0.689108 0.328843
O O14 0.345800 0.077562 0.500000
O O15 0.362495 0.000000 0.359767
O O16 0.285147 0.000000 0.115194
O O17 0.250674 0.090606 0.000000
#
# Coordination Sequence:
#
# PCOD9488660 Si02
#       6
#    16  16  16  16  16  16
#     4  10  22  39  58  79 102 134 179 228 275 321
#     4  10  20  36  56  79 107 136 170 220 277 325
#     4   9  17  30  50  76 107 144 183 220 257 302
#     4  10  20  35  53  75 109 145 177 217 262 310
#     4  10  20  33  50  75 106 141 179 215 257 313
#     4   9  17  31  52  78 109 143 178 217 262 313
#
# _framework density 17.348965
#
# number of rings (size 3 to 8) (size 9 to 14) (size 15 to 20)
#    0.000    2.333    1.667    1.000    0.000    3.667 
#    0.000    7.500    0.000    3.500    0.000    2.333 
#    0.000    0.000    0.000    0.000    0.000    0.000 
#
# Total GULP energy -267418.069115 kJ/mol
# GULP energy per Si atom -5571.209773 kJ/mol
# Density = 1.730948 g / cm^3
# Si number density = 17.348965 Si / 1000 Ang^3
#
#
#
# Elastic Constant Matrix: (Units=GPa)
#
#
# Indices 1 2 3 4 5 6 
#
# 1 41.7699 31.3510 39.9583 0.0000 0.0000 0.0000
# 2 31.3510 60.2898 32.0490 0.0000 0.0000 0.0000
# 3 39.9583 32.0490 110.5401 0.0000 0.0000 0.0000
# 4 0.0000 0.0000 0.0000 23.3906 0.0000 0.0000
# 5 0.0000 0.0000 0.0000 0.0000 29.5644 0.0000
# 6 0.0000 0.0000 0.0000 0.0000 0.0000 28.9493
#
#
#
# Elastic Compliance Matrix: (Units=1/GPa)
#
#
# Indices 1 2 3 4 5 6 
#
# 1 0.050852 -0.019709 -0.012668 0.000000 0.000000 0.000000
# 2 -0.019709 0.027248 -0.000775 0.000000 0.000000 0.000000
# 3 -0.012668 -0.000775 0.013850 0.000000 0.000000 0.000000
# 4 0.000000 0.000000 0.000000 0.042752 0.000000 0.000000
# 5 0.000000 0.000000 0.000000 0.000000 0.033824 0.000000
# 6 0.000000 0.000000 0.000000 0.000000 0.000000 0.034543
#
#
# Mechanical properties :
#
#
# Convention : Reuss Voigt Hill
#
# Bulk Modulus (GPa) = 38.99356 46.59071 42.79213
# Shear Modulus (GPa) = 17.99053 23.66363 20.82708
#
# Velocity S-wave (km/s) = 3.22371 3.69722 3.46855
# Velocity P-wave (km/s) = 6.03168 6.71857 6.38437
#
# Compressibility (1/GPa) = 0.02564526
#
# Stress axis : x y z
#
# Youngs Moduli (GPa) = 19.66480 36.70025 72.19969
#
# Poissons Ratio (x) = 0.72334 0.91461
# Poissons Ratio (y) = 0.38758 0.05598
# Poissons Ratio (z) = 0.24911 0.02846
#
# Static dielectric constant tensor:
#      x y z
#    x 1.566720 0.000000 0.000000 
#    y 0.000000 1.575080 0.000000 
#    z 0.000000 0.000000 1.626970 
# 
# From -- ./inp_files/40335.got.cif
#   From: 2010.05.17/outbox.cif.g08.bks.cpg/sg65_21_cif.got.tgz:40335.got - 2010.06.03 17:01:31.
