data_PCOD9488129
_publ_section_title
;
Structure prediction by ZEFSAII (Michael W. Deem and Ramdas Pophale) SiO2 
 PCOD9488129
Probable space group: C M M M
;
_chemical_formula_sum "Si O2"
_cell_formula_units_Z 72
_cell_length_a 13.918052
_cell_length_b 13.760018
_cell_length_c 17.850469
_cell_angle_alpha 90.000000
_cell_angle_beta 90.000000
_cell_angle_gamma 90.000000
_cell_volume 3418.590551
_symmetry_space_group_name_H-M "C M M M"
_symmetry_group_IT_number 65
_symmetry_cell_setting 'orthorhombic'
loop_
_space_group_symop_operation_xyz
x,y,z
-x,-y,z
x,-y,-z
-x,y,-z
-x,-y,-z
x,y,-z
-x,y,z
x,-y,z
1/2+x,1/2+y,z
1/2-x,1/2-y,z
1/2+x,1/2-y,-z
1/2-x,1/2+y,-z
1/2-x,1/2-y,-z
1/2+x,1/2+y,-z
1/2-x,1/2+y,z
1/2+x,1/2-y,z
loop_
_atom_site_type_symbol
_atom_site_label
_atom_site_fract_x
_atom_site_fract_y
_atom_site_fract_z
Si Si1 0.892917 0.291483 0.241991
Si Si2 0.618139 0.000000 0.793820
Si Si3 0.891222 0.882569 0.500000
Si Si4 0.357767 0.289711 0.084030
Si Si5 0.118388 0.888819 0.665171
Si Si6 0.786925 0.000000 0.911298
O O1 0.855175 0.400584 0.248678
O O2 0.899706 0.268689 0.153369
O O3 0.848387 0.195728 0.278995
O O4 0.000000 0.296636 0.274276
O O5 0.500000 0.000000 0.806983
O O6 0.686583 0.000000 0.866878
O O7 0.848269 0.860210 0.418865
O O8 0.000000 0.842640 0.500000
O O9 0.898084 0.000000 0.500000
O O10 0.250000 0.250000 0.079794
O O11 0.348965 0.403534 0.103854
O O12 0.397838 0.278894 0.000000
O O13 0.000000 0.891740 0.664555
O O14 0.147372 0.000000 0.683233
O O15 0.765513 0.000000 0.000000
#
# Coordination Sequence:
#
# PCOD9488129 Si02
#       6
#    16   8   8  16  16   8
#     4  10  20  32  48  71  99 127 158 196 237 282
#     4  10  20  33  48  68  95 126 161 201 237 273
#     4   7  10  20  40  65  92 121 151 185 230 276
#     4  10  20  34  50  67  92 125 162 202 240 282
#     4   8  14  25  43  68  96 123 152 191 235 279
#     4  10  20  35  51  68  91 120 160 205 245 285
#
# _framework density 21.061312999999998
#
# number of rings (size 3 to 8) (size 9 to 14) (size 15 to 20)
#    0.000    2.778    2.222    1.333    1.556    0.667 
#    0.000    2.222    0.000    2.667    0.000    5.444 
#    0.000    0.000    0.000    0.000    0.000    0.000 
#
# Total GULP energy -200474.659852 kJ/mol
# GULP energy per Si atom -5568.740551 kJ/mol
# Density = 2.101338 g / cm^3
# Si number density = 21.061313 Si / 1000 Ang^3
#
#
#
# Elastic Constant Matrix: (Units=GPa)
#
#
# Indices 1 2 3 4 5 6 
#
# 1 53.0134 11.2947 0.0082 0.0000 0.0000 0.0000
# 2 11.2947 183.2689 62.1500 0.0000 0.0000 0.0000
# 3 0.0082 62.1500 91.5306 0.0000 0.0000 0.0000
# 4 0.0000 0.0000 0.0000 20.4369 0.0000 0.0000
# 5 0.0000 0.0000 0.0000 0.0000 5.2634 0.0000
# 6 0.0000 0.0000 0.0000 0.0000 0.0000 -41.4648
#
#
#
# Elastic Compliance Matrix: (Units=1/GPa)
#
#
# Indices 1 2 3 4 5 6 
#
# 1 0.019190 -0.001536 0.001041 0.000000 0.000000 0.000000
# 2 -0.001536 0.007212 -0.004897 0.000000 0.000000 0.000000
# 3 0.001041 -0.004897 0.014250 0.000000 0.000000 0.000000
# 4 0.000000 0.000000 0.000000 0.048931 0.000000 0.000000
# 5 0.000000 0.000000 0.000000 0.000000 0.189993 0.000000
# 6 0.000000 0.000000 0.000000 0.000000 0.000000 -0.024117
#
#
# Mechanical properties :
#
#
# Convention : Reuss Voigt Hill
#
# Bulk Modulus (GPa) = 33.47921 52.74652 43.11287
# Shear Modulus (GPa) = 18.10297 13.80442 15.95369
#
# Velocity S-wave (km/s) = 2.93497 2.56293 2.75524
# Velocity P-wave (km/s) = 5.23602 5.81866 5.53501
#
# Compressibility (1/GPa) = 0.02986929
#
# Stress axis : x y z
#
# Youngs Moduli (GPa) = 52.11001 138.66459 70.17519
#
# Poissons Ratio (x) = 0.21295 -0.07306
# Poissons Ratio (y) = 0.08003 0.34362
# Poissons Ratio (z) = -0.05425 0.67899
#
# Static dielectric constant tensor:
#      x y z
#    x 1.879930 0.000000 0.000000 
#    y 0.000000 1.790000 0.000000 
#    z 0.000000 0.000000 1.782790 
# 
# From -- ./inp_files/55550.got.cif
#   From: 2010.05.17/outbox.cif.g08.bks.cpg/sg65_28_cif.got.tgz:55550.got - 2010.06.03 17:01:31.
