data_PCOD9488031
_publ_section_title
;
Structure prediction by ZEFSAII (Michael W. Deem and Ramdas Pophale) SiO2 
 PCOD9488031
Probable space group: C M M M
;
_chemical_formula_sum "Si O2"
_cell_formula_units_Z 120
_cell_length_a 22.226534
_cell_length_b 18.479713
_cell_length_c 16.729557
_cell_angle_alpha 90.000000
_cell_angle_beta 90.000000
_cell_angle_gamma 90.000000
_cell_volume 6871.497729
_symmetry_space_group_name_H-M "C M M M"
_symmetry_group_IT_number 65
_symmetry_cell_setting 'orthorhombic'
loop_
_space_group_symop_operation_xyz
x,y,z
-x,-y,z
x,-y,-z
-x,y,-z
-x,-y,-z
x,y,-z
-x,y,z
x,-y,z
1/2+x,1/2+y,z
1/2-x,1/2-y,z
1/2+x,1/2-y,-z
1/2-x,1/2+y,-z
1/2-x,1/2-y,-z
1/2+x,1/2+y,-z
1/2-x,1/2+y,z
1/2+x,1/2-y,z
loop_
_atom_site_type_symbol
_atom_site_label
_atom_site_fract_x
_atom_site_fract_y
_atom_site_fract_z
Si Si1 0.751022 0.584656 0.181411
Si Si2 0.674174 0.421324 0.661629
Si Si3 0.374864 0.163395 0.152760
Si Si4 0.566763 0.381697 0.771682
Si Si5 0.318397 0.265352 0.593438
Si Si6 0.928208 0.583092 0.000000
Si Si7 0.932723 0.278545 0.695072
Si Si8 0.647869 0.672799 0.095101
O O1 0.748441 0.500000 0.158439
O O2 0.725882 0.589889 0.271736
O O3 0.817011 0.616832 0.175760
O O4 0.708003 0.633132 0.125569
O O5 0.681752 0.500000 0.622706
O O6 0.613881 0.422033 0.715481
O O7 0.672079 0.351401 0.605951
O O8 0.417822 0.170655 0.229583
O O9 0.354832 0.244615 0.126905
O O10 0.405997 0.125458 0.077886
O O11 0.500000 0.412105 0.773464
O O12 0.564210 0.301832 0.732657
O O13 0.594653 0.370154 0.859366
O O14 0.320166 0.246626 0.500000
O O15 0.250000 0.250000 0.623634
O O16 0.373595 0.225066 0.638365
O O17 0.905905 0.500000 0.000000
O O18 0.000000 0.581841 0.000000
O O19 0.000000 0.293892 0.661161
O O20 0.642924 0.671987 0.000000
#
# Coordination Sequence:
#
# PCOD9488031 Si02
#       8
#    16  16  16  16  16   8  16  16
#     4  10  21  34  51  72 102 140 179 227 282 332
#     4   9  18  33  51  74 103 137 176 218 262 315
#     4  11  20  35  55  75 100 142 189 226 273 336
#     4   8  16  30  47  68  95 130 173 218 263 308
#     4  10  20  34  55  84 114 143 175 220 275 330
#     4  11  24  38  51  76 113 141 171 228 288 332
#     4   9  18  33  54  77 103 139 180 223 267 321
#     4  10  20  32  46  73 100 133 180 236 274 321
#
# _framework density 17.463442000000001
#
# number of rings (size 3 to 8) (size 9 to 14) (size 15 to 20)
#    0.000    2.333    0.667    2.800    0.933    2.400 
#    0.000    0.000    0.000    0.000    0.000    7.467 
#    0.000    0.000    0.000   16.933    0.000    0.000 
#
# Total GULP energy -334384.416323 kJ/mol
# GULP energy per Si atom -5573.073605 kJ/mol
# Density = 1.742369 g / cm^3
# Si number density = 17.463442 Si / 1000 Ang^3
#
#
#
# Elastic Constant Matrix: (Units=GPa)
#
#
# Indices 1 2 3 4 5 6 
#
# 1 124.3308 27.3175 33.7858 0.0000 0.0000 0.0000
# 2 27.3175 76.2245 13.7491 0.0000 0.0000 0.0000
# 3 33.7858 13.7491 49.8879 0.0000 0.0000 0.0000
# 4 0.0000 0.0000 0.0000 -18.1770 0.0000 0.0000
# 5 0.0000 0.0000 0.0000 0.0000 13.2261 0.0000
# 6 0.0000 0.0000 0.0000 0.0000 0.0000 42.9561
#
#
#
# Elastic Compliance Matrix: (Units=1/GPa)
#
#
# Indices 1 2 3 4 5 6 
#
# 1 0.010312 -0.002563 -0.006277 0.000000 0.000000 0.000000
# 2 -0.002563 0.014443 -0.002244 0.000000 0.000000 0.000000
# 3 -0.006277 -0.002244 0.024915 0.000000 0.000000 0.000000
# 4 0.000000 0.000000 0.000000 -0.055015 0.000000 0.000000
# 5 0.000000 0.000000 0.000000 0.000000 0.075608 0.000000
# 6 0.000000 0.000000 0.000000 0.000000 0.000000 0.023280
#
#
# Mechanical properties :
#
#
# Convention : Reuss Voigt Hill
#
# Bulk Modulus (GPa) = 36.36445 44.46087 40.41266
# Shear Modulus (GPa) = 40.03888 19.30710 29.67299
#
# Velocity S-wave (km/s) = 4.79344 3.32862 4.12655
# Velocity P-wave (km/s) = 7.17666 6.34725 6.77466
#
# Compressibility (1/GPa) = 0.02749939
#
# Stress axis : x y z
#
# Youngs Moduli (GPa) = 96.97388 69.23943 40.13702
#
# Poissons Ratio (x) = 0.17749 0.25195
# Poissons Ratio (y) = 0.24858 0.09008
# Poissons Ratio (z) = 0.60873 0.15540
#
# Static dielectric constant tensor:
#      x y z
#    x 1.615440 0.000000 0.000000 
#    y 0.000000 1.601150 0.000000 
#    z 0.000000 0.000000 1.574300 
# 
# From -- ./inp_files/44672.got.cif
#   From: 2010.05.17/outbox.cif.g08.bks.cpg/sg65_23_cif.got.tgz:44672.got - 2010.06.03 17:01:31.
