data_PCOD9488295
_publ_section_title
;
Structure prediction by ZEFSAII (Michael W. Deem and Ramdas Pophale) SiO2 
 PCOD9488295
Probable space group: C M M M
;
_chemical_formula_sum "Si O2"
_cell_formula_units_Z 112
_cell_length_a 15.614597
_cell_length_b 25.584821
_cell_length_c 15.226057
_cell_angle_alpha 90.000000
_cell_angle_beta 90.000000
_cell_angle_gamma 90.000000
_cell_volume 6082.759057
_symmetry_space_group_name_H-M "C M M M"
_symmetry_group_IT_number 65
_symmetry_cell_setting 'orthorhombic'
loop_
_space_group_symop_operation_xyz
x,y,z
-x,-y,z
x,-y,-z
-x,y,-z
-x,-y,-z
x,y,-z
-x,y,z
x,-y,z
1/2+x,1/2+y,z
1/2-x,1/2-y,z
1/2+x,1/2-y,-z
1/2-x,1/2+y,-z
1/2-x,1/2-y,-z
1/2+x,1/2+y,-z
1/2-x,1/2+y,z
1/2+x,1/2-y,z
loop_
_atom_site_type_symbol
_atom_site_label
_atom_site_fract_x
_atom_site_fract_y
_atom_site_fract_z
Si Si1 0.602600 0.143931 0.792303
Si Si2 0.711759 0.939455 0.099680
Si Si3 0.403209 0.666088 0.757759
Si Si4 0.353038 0.750324 0.897986
Si Si5 0.095560 0.939940 0.848334
Si Si6 0.097488 0.333366 0.403624
Si Si7 0.659347 0.278957 0.405132
O O1 0.500000 0.132667 0.795527
O O2 0.661001 0.100770 0.839678
O O3 0.616576 0.199230 0.842488
O O4 0.631658 0.147801 0.690268
O O5 0.815236 0.932435 0.100297
O O6 0.695870 0.000000 0.124662
O O7 0.681940 0.931448 0.000000
O O8 0.500000 0.680013 0.732855
O O9 0.381976 0.698522 0.845870
O O10 0.399192 0.604784 0.775591
O O11 0.345380 0.684300 0.677945
O O12 0.250000 0.750000 0.898156
O O13 0.381926 0.751864 0.000000
O O14 0.000000 0.932974 0.890740
O O15 0.097245 0.000000 0.817357
O O16 0.137788 0.345604 0.500000
O O17 0.096626 0.270441 0.396857
O O18 0.000000 0.352417 0.407111
O O19 0.645316 0.304666 0.500000
O O20 0.750000 0.250000 0.405534
#
# Coordination Sequence:
#
# PCOD9488295 Si02
#       7
#    16  16  16  16  16  16  16
#     4  11  22  36  57  84 117 155 188 227 283 341
#     4  10  22  39  59  83 110 147 195 241 285 335
#     4  11  21  33  53  78 107 143 179 224 279 334
#     4  11  23  36  51  75 109 148 186 225 274 331
#     4   9  20  38  59  82 107 142 191 243 293 340
#     4   9  18  33  53  78 109 144 182 222 266 321
#     4  10  20  32  50  80 112 144 181 223 272 329
#
# _framework density 18.412697999999999
#
# number of rings (size 3 to 8) (size 9 to 14) (size 15 to 20)
#    0.000    1.857    1.429    2.571    2.000    5.143 
#    0.000    3.571    0.000    0.857    0.000    6.000 
#    0.000    0.000    0.000    0.000    0.000    0.286 
#
# Total GULP energy -312019.946046 kJ/mol
# GULP energy per Si atom -5571.784751 kJ/mol
# Density = 1.837079 g / cm^3
# Si number density = 18.412698 Si / 1000 Ang^3
#
#
#
# Elastic Constant Matrix: (Units=GPa)
#
#
# Indices 1 2 3 4 5 6 
#
# 1 79.0178 32.6067 32.9794 0.0000 0.0000 0.0000
# 2 32.6067 83.4251 67.4251 0.0000 0.0000 0.0000
# 3 32.9794 67.4251 150.5285 0.0000 0.0000 0.0000
# 4 0.0000 0.0000 0.0000 -9.9571 0.0000 0.0000
# 5 0.0000 0.0000 0.0000 0.0000 25.7079 0.0000
# 6 0.0000 0.0000 0.0000 0.0000 0.0000 30.1786
#
#
#
# Elastic Compliance Matrix: (Units=1/GPa)
#
#
# Indices 1 2 3 4 5 6 
#
# 1 0.015194 -0.005091 -0.001048 0.000000 0.000000 0.000000
# 2 -0.005091 0.020495 -0.008065 0.000000 0.000000 0.000000
# 3 -0.001048 -0.008065 0.010485 0.000000 0.000000 0.000000
# 4 0.000000 0.000000 0.000000 -0.100431 0.000000 0.000000
# 5 0.000000 0.000000 0.000000 0.000000 0.038899 0.000000
# 6 0.000000 0.000000 0.000000 0.000000 0.000000 0.033136
#
#
# Mechanical properties :
#
#
# Convention : Reuss Voigt Hill
#
# Bulk Modulus (GPa) = 56.28923 64.33265 60.31094
# Shear Modulus (GPa) = 95.95564 21.18323 58.56943
#
# Velocity S-wave (km/s) = 7.22682 3.39554 5.64609
# Velocity P-wave (km/s) = 10.01365 7.09845 8.67932
#
# Compressibility (1/GPa) = 0.01776539
#
# Stress axis : x y z
#
# Youngs Moduli (GPa) = 65.81627 48.79344 95.37219
#
# Poissons Ratio (x) = 0.24842 0.09998
# Poissons Ratio (y) = 0.33508 0.76913
# Poissons Ratio (z) = 0.06900 0.39350
#
# Static dielectric constant tensor:
#      x y z
#    x 1.717520 0.000000 0.000000 
#    y 0.000000 1.606680 0.000000 
#    z 0.000000 0.000000 1.647530 
# 
# From -- ./inp_files/40819.got.cif
#   From: 2010.05.17/outbox.cif.g08.bks.cpg/sg65_21_cif.got.tgz:40819.got - 2010.06.03 17:01:31.
