data_PCOD9488569
_publ_section_title
;
Structure prediction by ZEFSAII (Michael W. Deem and Ramdas Pophale) SiO2 
 PCOD9488569
Probable space group: C M M M
;
_chemical_formula_sum "Si O2"
_cell_formula_units_Z 96
_cell_length_a 8.918763
_cell_length_b 26.546011
_cell_length_c 19.170248
_cell_angle_alpha 90.000000
_cell_angle_beta 90.000000
_cell_angle_gamma 90.000000
_cell_volume 4538.701538
_symmetry_space_group_name_H-M "C M M M"
_symmetry_group_IT_number 65
_symmetry_cell_setting 'orthorhombic'
loop_
_space_group_symop_operation_xyz
x,y,z
-x,-y,z
x,-y,-z
-x,y,-z
-x,-y,-z
x,y,-z
-x,y,z
x,-y,z
1/2+x,1/2+y,z
1/2-x,1/2-y,z
1/2+x,1/2-y,-z
1/2-x,1/2+y,-z
1/2-x,1/2-y,-z
1/2+x,1/2+y,-z
1/2-x,1/2+y,z
1/2+x,1/2-y,z
loop_
_atom_site_type_symbol
_atom_site_label
_atom_site_fract_x
_atom_site_fract_y
_atom_site_fract_z
Si Si1 0.831793 0.299623 0.417565
Si Si2 0.321106 0.911051 0.279162
Si Si3 0.821055 0.092400 0.421317
Si Si4 0.819630 0.838100 0.922610
Si Si5 0.678286 0.198153 0.780664
Si Si6 0.820784 0.945231 0.136167
O O1 0.851577 0.290840 0.500000
O O2 0.750000 0.250000 0.390438
O O3 0.731670 0.349502 0.414946
O O4 0.000000 0.307343 0.387800
O O5 0.500000 0.915251 0.281762
O O6 0.252512 0.930553 0.351899
O O7 0.282182 0.851790 0.264102
O O8 0.257597 0.938512 0.210979
O O9 0.774801 0.075248 0.500000
O O10 0.000000 0.088223 0.417505
O O11 0.739900 0.811131 0.858628
O O12 0.784316 0.897430 0.911613
O O13 0.000000 0.832005 0.916397
O O14 0.774044 0.821734 0.000000
O O15 0.500000 0.202315 0.782582
O O16 0.750000 0.250000 0.755993
O O17 0.000000 0.943355 0.147517
O O18 0.782807 0.000000 0.106333
#
# Coordination Sequence:
#
# PCOD9488569 Si02
#       6
#    16  16  16  16  16  16
#     4   9  16  26  40  59  86 120 158 200 246 298
#     4  10  21  36  54  77 105 138 178 223 269 321
#     4  10  20  33  50  72  98 130 168 213 269 327
#     4   9  18  33  54  82 115 147 179 217 260 308
#     4  10  21  36  54  76 104 143 188 228 266 309
#     4   9  18  34  57  83 110 141 176 215 262 316
#
# _framework density 21.151423999999999
#
# number of rings (size 3 to 8) (size 9 to 14) (size 15 to 20)
#    0.000    2.500    0.000    2.000    0.000    7.000 
#    0.000    3.333    0.000    0.500    0.000    8.167 
#    0.000    0.000    0.000    0.000    0.000    0.000 
#
# Total GULP energy -267913.243952 kJ/mol
# GULP energy per Si atom -5581.525916 kJ/mol
# Density = 2.110328 g / cm^3
# Si number density = 21.151424 Si / 1000 Ang^3
#
#
#
# Elastic Constant Matrix: (Units=GPa)
#
#
# Indices 1 2 3 4 5 6 
#
# 1 32.5144 6.1369 27.7918 0.0000 0.0000 0.0000
# 2 6.1369 45.1186 -4.5870 0.0000 0.0000 0.0000
# 3 27.7918 -4.5870 150.7276 0.0000 0.0000 0.0000
# 4 0.0000 0.0000 0.0000 -16.5561 0.0000 0.0000
# 5 0.0000 0.0000 0.0000 0.0000 16.3733 0.0000
# 6 0.0000 0.0000 0.0000 0.0000 0.0000 15.0896
#
#
#
# Elastic Compliance Matrix: (Units=1/GPa)
#
#
# Indices 1 2 3 4 5 6 
#
# 1 0.038014 -0.005901 -0.007189 0.000000 0.000000 0.000000
# 2 -0.005901 0.023149 0.001793 0.000000 0.000000 0.000000
# 3 -0.007189 0.001793 0.008015 0.000000 0.000000 0.000000
# 4 0.000000 0.000000 0.000000 -0.060401 0.000000 0.000000
# 5 0.000000 0.000000 0.000000 0.000000 0.061075 0.000000
# 6 0.000000 0.000000 0.000000 0.000000 0.000000 0.066271
#
#
# Mechanical properties :
#
#
# Convention : Reuss Voigt Hill
#
# Bulk Modulus (GPa) = 21.46744 31.89377 26.68060
# Shear Modulus (GPa) = 28.69520 16.24930 22.47225
#
# Velocity S-wave (km/s) = 3.68728 2.77471 3.26305
# Velocity P-wave (km/s) = 5.31972 5.03755 5.18056
#
# Compressibility (1/GPa) = 0.04658217
#
# Stress axis : x y z
#
# Youngs Moduli (GPa) = 26.30597 43.19883 124.77326
#
# Poissons Ratio (x) = 0.25494 0.89697
# Poissons Ratio (y) = 0.15524 -0.22367
# Poissons Ratio (z) = 0.18911 -0.07744
#
# Static dielectric constant tensor:
#      x y z
#    x 1.709720 0.000000 0.000000 
#    y 0.000000 1.784140 0.000000 
#    z 0.000000 0.000000 1.783690 
# 
# From -- ./inp_files/60282.got.cif
#   From: 2010.05.17/outbox.cif.g08.bks.cpg/sg65_31_cif.got.tgz:60282.got - 2010.06.03 17:01:31.
