data_PCOD9488100
_publ_section_title
;
Structure prediction by ZEFSAII (Michael W. Deem and Ramdas Pophale) SiO2 
 PCOD9488100
Probable space group: C M M M
;
_chemical_formula_sum "Si O2"
_cell_formula_units_Z 96
_cell_length_a 23.549037
_cell_length_b 20.024662
_cell_length_c 11.821345
_cell_angle_alpha 90.000000
_cell_angle_beta 90.000000
_cell_angle_gamma 90.000000
_cell_volume 5574.491255
_symmetry_space_group_name_H-M "C M M M"
_symmetry_group_IT_number 65
_symmetry_cell_setting 'orthorhombic'
loop_
_space_group_symop_operation_xyz
x,y,z
-x,-y,z
x,-y,-z
-x,y,-z
-x,-y,-z
x,y,-z
-x,y,z
x,-y,z
1/2+x,1/2+y,z
1/2-x,1/2-y,z
1/2+x,1/2-y,-z
1/2-x,1/2+y,-z
1/2-x,1/2-y,-z
1/2+x,1/2+y,-z
1/2-x,1/2+y,z
1/2+x,1/2-y,z
loop_
_atom_site_type_symbol
_atom_site_label
_atom_site_fract_x
_atom_site_fract_y
_atom_site_fract_z
Si Si1 0.390761 0.310550 0.133725
Si Si2 0.238275 0.174535 0.862931
Si Si3 0.568575 0.172306 0.752100
Si Si4 0.933267 0.073435 0.730048
Si Si5 0.430315 0.641828 0.500000
Si Si6 0.340548 0.077937 0.136922
Si Si7 0.068543 0.295398 0.500000
O O1 0.327411 0.334907 0.165807
O O2 0.411161 0.243953 0.197897
O O3 0.427589 0.373460 0.170293
O O4 0.392105 0.296557 0.000000
O O5 0.250000 0.250000 0.823954
O O6 0.285234 0.121042 0.825272
O O7 0.241984 0.174591 0.000000
O O8 0.500000 0.167056 0.764878
O O9 0.603865 0.114989 0.815226
O O10 0.583928 0.171184 0.618819
O O11 0.910460 0.105010 0.613463
O O12 0.000000 0.066186 0.709539
O O13 0.909213 0.000000 0.754318
O O14 0.500000 0.642810 0.500000
O O15 0.411538 0.718634 0.500000
O O16 0.337123 0.000000 0.169470
O O17 0.342575 0.080702 0.000000
O O18 0.000000 0.292792 0.500000
#
# Coordination Sequence:
#
# PCOD9488100 Si02
#       7
#    16  16  16  16   8  16   8
#     4  11  21  32  52  79 109 143 180 220 269 325
#     4   9  17  33  55  77 103 139 181 219 255 307
#     4  11  21  35  56  83 112 143 180 224 274 328
#     4  10  20  32  47  71 105 142 179 221 270 320
#     4   9  15  30  51  70  94 134 186 232 264 304
#     4  10  21  37  58  84 112 144 182 224 270 321
#     4   9  18  33  55  79 102 136 187 230 259 312
#
# _framework density 17.221302000000001
#
# number of rings (size 3 to 8) (size 9 to 14) (size 15 to 20)
#    0.000    2.000    3.333    1.250    0.000    4.667 
#    0.000    3.750    0.000    4.500    0.000    0.000 
#    0.000    0.000    0.000    0.000    0.000    0.000 
#
# Total GULP energy -267327.529703 kJ/mol
# GULP energy per Si atom -5569.323535 kJ/mol
# Density = 1.718211 g / cm^3
# Si number density = 17.221302 Si / 1000 Ang^3
#
#
#
# Elastic Constant Matrix: (Units=GPa)
#
#
# Indices 1 2 3 4 5 6 
#
# 1 77.7984 46.1956 24.3816 0.0000 0.0000 0.0000
# 2 46.1956 124.8447 23.5757 0.0000 0.0000 0.0000
# 3 24.3816 23.5757 54.5860 0.0000 0.0000 0.0000
# 4 0.0000 0.0000 0.0000 12.5498 0.0000 0.0000
# 5 0.0000 0.0000 0.0000 0.0000 -6.5797 0.0000
# 6 0.0000 0.0000 0.0000 0.0000 0.0000 22.6436
#
#
#
# Elastic Compliance Matrix: (Units=1/GPa)
#
#
# Indices 1 2 3 4 5 6 
#
# 1 0.017916 -0.005573 -0.005596 0.000000 0.000000 0.000000
# 2 -0.005573 0.010455 -0.002026 0.000000 0.000000 0.000000
# 3 -0.005596 -0.002026 0.021694 0.000000 0.000000 0.000000
# 4 0.000000 0.000000 0.000000 0.079683 0.000000 0.000000
# 5 0.000000 0.000000 0.000000 0.000000 -0.151983 0.000000
# 6 0.000000 0.000000 0.000000 0.000000 0.000000 0.044163
#
#
# Mechanical properties :
#
#
# Convention : Reuss Voigt Hill
#
# Bulk Modulus (GPa) = 42.23710 49.50387 45.87049
# Shear Modulus (GPa) = 88.95397 16.59449 52.77423
#
# Velocity S-wave (km/s) = 7.19483 3.10756 5.54177
# Velocity P-wave (km/s) = 9.67471 6.45632 8.22448
#
# Compressibility (1/GPa) = 0.02367587
#
# Stress axis : x y z
#
# Youngs Moduli (GPa) = 55.81450 95.65115 46.09520
#
# Poissons Ratio (x) = 0.53305 0.25794
# Poissons Ratio (y) = 0.31105 0.09340
# Poissons Ratio (z) = 0.31232 0.19381
#
# Static dielectric constant tensor:
#      x y z
#    x 1.663500 0.000000 0.000000 
#    y 0.000000 1.603700 0.000000 
#    z 0.000000 0.000000 1.589090 
# 
# From -- ./inp_files/29081.got.cif
#   From: 2010.05.17/outbox.cif.g08.bks.cpg/sg65_15_cif.got.tgz:29081.got - 2010.06.03 17:01:31.
