data_PCOD9488976
_publ_section_title
;
Structure prediction by ZEFSAII (Michael W. Deem and Ramdas Pophale) SiO2 
 PCOD9488976
Probable space group: C M M M
;
_chemical_formula_sum "Si O2"
_cell_formula_units_Z 56
_cell_length_a 8.351231
_cell_length_b 21.420859
_cell_length_c 15.262200
_cell_angle_alpha 90.000000
_cell_angle_beta 90.000000
_cell_angle_gamma 90.000000
_cell_volume 2730.263226
_symmetry_space_group_name_H-M "C M M M"
_symmetry_group_IT_number 65
_symmetry_cell_setting 'orthorhombic'
loop_
_space_group_symop_operation_xyz
x,y,z
-x,-y,z
x,-y,-z
-x,y,-z
-x,-y,-z
x,y,-z
-x,y,z
x,-y,z
1/2+x,1/2+y,z
1/2-x,1/2-y,z
1/2+x,1/2-y,-z
1/2-x,1/2+y,-z
1/2-x,1/2-y,-z
1/2+x,1/2+y,-z
1/2-x,1/2+y,z
1/2+x,1/2-y,z
loop_
_atom_site_type_symbol
_atom_site_label
_atom_site_fract_x
_atom_site_fract_y
_atom_site_fract_z
Si Si1 0.808592 0.681412 0.500000
Si Si2 0.805969 0.500000 0.395409
Si Si3 0.311578 0.679558 0.866709
Si Si4 0.808663 0.425896 0.000000
Si Si5 0.193866 0.629427 0.684691
O O1 0.750000 0.750000 0.500000
O O2 0.751239 0.655611 0.408392
O O3 0.000000 0.672403 0.500000
O O4 0.751182 0.500000 0.500000
O O5 0.763486 0.557923 0.333584
O O6 0.000000 0.500000 0.404066
O O7 0.500000 0.680368 0.882260
O O8 0.250000 0.750000 0.888974
O O9 0.271381 0.664557 0.765749
O O10 0.242113 0.619571 0.919403
O O11 0.751359 0.500000 0.000000
O O12 0.000000 0.429964 0.000000
O O13 0.000000 0.634974 0.693988
#
# Coordination Sequence:
#
# PCOD9488976 Si02
#       5
#     8   8  16   8  16
#     4  10  20  33  53  81 119 162 213 267 314 371
#     4   9  16  32  59  88 121 166 217 267 320 382
#     4  12  26  45  69  98 134 172 215 267 324 385
#     4  11  26  49  76 103 131 167 210 257 318 391
#     4  10  20  36  60  91 125 167 217 265 319 380
#
# _framework density 20.510845
#
# number of rings (size 3 to 8) (size 9 to 14) (size 15 to 20)
#    0.000    1.429    1.429    4.286    2.000    4.571 
#    0.000    0.000    0.000    0.857    0.000    0.000 
#    0.000    0.000    0.000    0.000    0.000    0.000 
#
# Total GULP energy -155956.432632 kJ/mol
# GULP energy per Si atom -5569.872594 kJ/mol
# Density = 2.046416 g / cm^3
# Si number density = 20.510845 Si / 1000 Ang^3
#
#
#
# Elastic Constant Matrix: (Units=GPa)
#
#
# Indices 1 2 3 4 5 6 
#
# 1 62.8396 40.8672 22.8806 0.0000 0.0000 0.0000
# 2 40.8672 198.6648 61.6769 0.0000 0.0000 0.0000
# 3 22.8806 61.6769 124.2272 0.0000 0.0000 0.0000
# 4 0.0000 0.0000 0.0000 11.3559 0.0000 0.0000
# 5 0.0000 0.0000 0.0000 0.0000 52.0536 0.0000
# 6 0.0000 0.0000 0.0000 0.0000 0.0000 20.0846
#
#
#
# Elastic Compliance Matrix: (Units=1/GPa)
#
#
# Indices 1 2 3 4 5 6 
#
# 1 0.018711 -0.003286 -0.001815 0.000000 0.000000 0.000000
# 2 -0.003286 0.006528 -0.002636 0.000000 0.000000 0.000000
# 3 -0.001815 -0.002636 0.009693 0.000000 0.000000 0.000000
# 4 0.000000 0.000000 0.000000 0.088060 0.000000 0.000000
# 5 0.000000 0.000000 0.000000 0.000000 0.019211 0.000000
# 6 0.000000 0.000000 0.000000 0.000000 0.000000 0.049789
#
#
# Mechanical properties :
#
#
# Convention : Reuss Voigt Hill
#
# Bulk Modulus (GPa) = 51.39065 70.73123 61.06094
# Shear Modulus (GPa) = 23.36986 34.05261 28.71123
#
# Velocity S-wave (km/s) = 3.37915 4.07901 3.74546
# Velocity P-wave (km/s) = 6.35095 7.53286 6.96702
#
# Compressibility (1/GPa) = 0.01945879
#
# Stress axis : x y z
#
# Youngs Moduli (GPa) = 53.44410 153.19160 103.17040
#
# Poissons Ratio (x) = 0.50332 0.18726
# Poissons Ratio (y) = 0.17559 0.27194
# Poissons Ratio (z) = 0.09700 0.40378
#
# Static dielectric constant tensor:
#      x y z
#    x 1.733460 0.000000 0.000000 
#    y 0.000000 1.543350 0.000000 
#    z 0.000000 0.000000 1.725200 
# 
# From -- ./inp_files/35587.got.cif
#   From: 2010.05.17/outbox.cif.g08.bks.cpg/sg65_18_cif.got.tgz:35587.got - 2010.06.03 17:01:31.
