data_PCOD9488287
_publ_section_title
;
Structure prediction by ZEFSAII (Michael W. Deem and Ramdas Pophale) SiO2 
 PCOD9488287
Probable space group: C M M M
;
_chemical_formula_sum "Si O2"
_cell_formula_units_Z 96
_cell_length_a 8.892217
_cell_length_b 24.232483
_cell_length_c 25.742857
_cell_angle_alpha 90.000000
_cell_angle_beta 90.000000
_cell_angle_gamma 90.000000
_cell_volume 5547.083628
_symmetry_space_group_name_H-M "C M M M"
_symmetry_group_IT_number 65
_symmetry_cell_setting 'orthorhombic'
loop_
_space_group_symop_operation_xyz
x,y,z
-x,-y,z
x,-y,-z
-x,y,-z
-x,-y,-z
x,y,-z
-x,y,z
x,-y,z
1/2+x,1/2+y,z
1/2-x,1/2-y,z
1/2+x,1/2-y,-z
1/2-x,1/2+y,-z
1/2-x,1/2-y,-z
1/2+x,1/2+y,-z
1/2-x,1/2+y,z
1/2+x,1/2-y,z
loop_
_atom_site_type_symbol
_atom_site_label
_atom_site_fract_x
_atom_site_fract_y
_atom_site_fract_z
Si Si1 0.818982 0.190883 0.059767
Si Si2 0.681464 0.500000 0.306414
Si Si3 0.818411 0.112734 0.846719
Si Si4 0.681046 0.381643 0.351905
Si Si5 0.679495 0.808990 0.439249
Si Si6 0.319412 0.310406 0.251091
Si Si7 0.820690 0.500000 0.808919
O O1 0.750000 0.250000 0.074696
O O2 0.775242 0.143448 0.100093
O O3 0.000000 0.195615 0.061691
O O4 0.775094 0.179319 0.000000
O O5 0.500000 0.500000 0.298583
O O6 0.721178 0.444410 0.337385
O O7 0.756381 0.500000 0.249853
O O8 0.778184 0.153163 0.798961
O O9 0.000000 0.105410 0.845940
O O10 0.740864 0.054475 0.837236
O O11 0.500000 0.379002 0.357261
O O12 0.756370 0.356756 0.402890
O O13 0.725081 0.343287 0.303015
O O14 0.717283 0.817887 0.500000
O O15 0.500000 0.805732 0.434371
O O16 0.750000 0.750000 0.423515
O O17 0.500000 0.305583 0.251348
O O18 0.250000 0.250000 0.249287
O O19 0.000000 0.500000 0.807562
#
# Coordination Sequence:
#
# PCOD9488287 Si02
#       7
#    16   8  16  16  16  16   8
#     4   9  18  33  56  84 111 144 184 224 272 326
#     4  10  20  40  61  78 109 149 184 218 268 327
#     4  10  20  37  56  74 107 149 183 220 269 327
#     4  10  20  35  57  81 106 141 183 222 266 323
#     4  10  21  37  57  81 111 146 182 223 272 322
#     4  10  20  32  50  77 107 139 172 214 269 322
#     4  12  24  36  55  82 107 139 186 232 274 321
#
# _framework density 17.306391000000001
#
# number of rings (size 3 to 8) (size 9 to 14) (size 15 to 20)
#    0.000    2.000    1.667    2.250    0.000    5.000 
#    0.000    0.833    0.000    5.000    0.000    0.000 
#    0.000    0.000    0.000    0.000    0.000    0.000 
#
# Total GULP energy -268020.087813 kJ/mol
# GULP energy per Si atom -5583.751829 kJ/mol
# Density = 1.726700 g / cm^3
# Si number density = 17.306391 Si / 1000 Ang^3
#
#
#
# Elastic Constant Matrix: (Units=GPa)
#
#
# Indices 1 2 3 4 5 6 
#
# 1 28.0891 54.5575 42.3961 0.0000 0.0000 0.0000
# 2 54.5575 189.6276 94.3046 0.0000 0.0000 0.0000
# 3 42.3961 94.3046 108.9795 0.0000 0.0000 0.0000
# 4 0.0000 0.0000 0.0000 25.1753 0.0000 0.0000
# 5 0.0000 0.0000 0.0000 0.0000 18.7057 0.0000
# 6 0.0000 0.0000 0.0000 0.0000 0.0000 31.9619
#
#
#
# Elastic Compliance Matrix: (Units=1/GPa)
#
#
# Indices 1 2 3 4 5 6 
#
# 1 0.115748 -0.019148 -0.028459 0.000000 0.000000 0.000000
# 2 -0.019148 0.012425 -0.003303 0.000000 0.000000 0.000000
# 3 -0.028459 -0.003303 0.023105 0.000000 0.000000 0.000000
# 4 0.000000 0.000000 0.000000 0.039721 0.000000 0.000000
# 5 0.000000 0.000000 0.000000 0.000000 0.053460 0.000000
# 6 0.000000 0.000000 0.000000 0.000000 0.000000 0.031287
#
#
# Mechanical properties :
#
#
# Convention : Reuss Voigt Hill
#
# Bulk Modulus (GPa) = 20.21932 78.80141 49.51037
# Shear Modulus (GPa) = 12.68863 24.19780 18.44322
#
# Velocity S-wave (km/s) = 2.71066 3.74331 3.26803
# Velocity P-wave (km/s) = 4.63739 8.01967 6.55059
#
# Compressibility (1/GPa) = 0.04945764
#
# Stress axis : x y z
#
# Youngs Moduli (GPa) = 8.63947 80.48183 43.27976
#
# Poissons Ratio (x) = 1.54110 1.23171
# Poissons Ratio (y) = 0.16543 0.14294
# Poissons Ratio (z) = 0.24587 0.26581
#
# Static dielectric constant tensor:
#      x y z
#    x 1.581230 0.000000 0.000000 
#    y 0.000000 1.556450 0.000000 
#    z 0.000000 0.000000 1.583290 
# 
# From -- ./inp_files/67882.got.cif
#   From: 2010.05.17/outbox.cif.g08.bks.cpg/sg65_34_cif.got.tgz:67882.got - 2010.06.03 17:01:31.
