data_PCOD9488366
_publ_section_title
;
Structure prediction by ZEFSAII (Michael W. Deem and Ramdas Pophale) SiO2 
 PCOD9488366
Probable space group: C M M M
;
_chemical_formula_sum "Si O2"
_cell_formula_units_Z 96
_cell_length_a 7.681505
_cell_length_b 28.219764
_cell_length_c 25.316494
_cell_angle_alpha 90.000000
_cell_angle_beta 90.000000
_cell_angle_gamma 90.000000
_cell_volume 5487.862943
_symmetry_space_group_name_H-M "C M M M"
_symmetry_group_IT_number 65
_symmetry_cell_setting 'orthorhombic'
loop_
_space_group_symop_operation_xyz
x,y,z
-x,-y,z
x,-y,-z
-x,y,-z
-x,-y,-z
x,y,-z
-x,y,z
x,-y,z
1/2+x,1/2+y,z
1/2-x,1/2-y,z
1/2+x,1/2-y,-z
1/2-x,1/2+y,-z
1/2-x,1/2-y,-z
1/2+x,1/2+y,-z
1/2-x,1/2+y,z
1/2+x,1/2-y,z
loop_
_atom_site_type_symbol
_atom_site_label
_atom_site_fract_x
_atom_site_fract_y
_atom_site_fract_z
Si Si1 0.208729 0.552456 0.886528
Si Si2 0.789670 0.102825 0.779089
Si Si3 0.209072 0.647856 0.941434
Si Si4 0.705272 0.303347 0.834705
Si Si5 0.290708 0.443094 0.556802
Si Si6 0.286850 0.555300 0.672003
O O1 0.276767 0.500000 0.898940
O O2 0.244766 0.566249 0.825829
O O3 0.275571 0.596461 0.921420
O O4 0.000000 0.551285 0.893480
O O5 0.721310 0.153997 0.798681
O O6 0.726640 0.085086 0.722322
O O7 0.000000 0.104684 0.776140
O O8 0.247325 0.685069 0.895289
O O9 0.000000 0.644573 0.944100
O O10 0.274399 0.659466 0.000000
O O11 0.500000 0.307673 0.831169
O O12 0.750000 0.250000 0.819791
O O13 0.222572 0.425218 0.500000
O O14 0.500000 0.435896 0.556197
O O15 0.263860 0.500000 0.557218
O O16 0.227268 0.426615 0.614241
O O17 0.500000 0.555991 0.671454
O O18 0.237273 0.500000 0.678062
#
# Coordination Sequence:
#
# PCOD9488366 Si02
#       6
#    16  16  16  16  16  16
#     4   9  17  28  42  61  85 111 135 159 188 222
#     4   9  17  28  42  60  80 103 133 166 198 235
#     4   9  18  32  48  65  84 105 130 159 190 228
#     4  10  20  33  48  63  79 100 126 160 203 246
#     4   7   9  13  22  40  70 106 136 157 181 216
#     4   8  12  18  31  52  78 107 134 158 186 222
#
# _framework density 17.493148999999999
#
# number of rings (size 3 to 8) (size 9 to 14) (size 15 to 20)
#    0.000    3.333    0.000    2.500    0.000    2.667 
#    0.000    1.667    0.000    0.000    0.000    4.667 
#    0.000    1.333    0.000    6.667    0.000    6.000 
#
# Total GULP energy -267242.023718 kJ/mol
# GULP energy per Si atom -5567.542161 kJ/mol
# Density = 1.745333 g / cm^3
# Si number density = 17.493149 Si / 1000 Ang^3
#
#
#
# Elastic Constant Matrix: (Units=GPa)
#
#
# Indices 1 2 3 4 5 6 
#
# 1 29.3684 2.8546 4.3625 0.0000 0.0000 0.0000
# 2 2.8546 63.5445 21.7934 0.0000 0.0000 0.0000
# 3 4.3625 21.7934 112.3485 0.0000 0.0000 0.0000
# 4 0.0000 0.0000 0.0000 11.1388 0.0000 0.0000
# 5 0.0000 0.0000 0.0000 0.0000 14.8057 0.0000
# 6 0.0000 0.0000 0.0000 0.0000 0.0000 1.0766
#
#
#
# Elastic Compliance Matrix: (Units=1/GPa)
#
#
# Indices 1 2 3 4 5 6 
#
# 1 0.034328 -0.001162 -0.001107 0.000000 0.000000 0.000000
# 2 -0.001162 0.016898 -0.003233 0.000000 0.000000 0.000000
# 3 -0.001107 -0.003233 0.009571 0.000000 0.000000 0.000000
# 4 0.000000 0.000000 0.000000 0.089776 0.000000 0.000000
# 5 0.000000 0.000000 0.000000 0.000000 0.067542 0.000000
# 6 0.000000 0.000000 0.000000 0.000000 0.000000 0.928853
#
#
# Mechanical properties :
#
#
# Convention : Reuss Voigt Hill
#
# Bulk Modulus (GPa) = 20.08372 29.25360 24.66866
# Shear Modulus (GPa) = 4.25688 17.15428 10.70558
#
# Velocity S-wave (km/s) = 1.56165 3.13490 2.47652
# Velocity P-wave (km/s) = 3.84155 5.46467 4.72335
#
# Compressibility (1/GPa) = 0.04979156
#
# Stress axis : x y z
#
# Youngs Moduli (GPa) = 29.13100 59.17891 104.48272
#
# Poissons Ratio (x) = 0.06878 0.11571
# Poissons Ratio (y) = 0.03386 0.33776
# Poissons Ratio (z) = 0.03226 0.19131
#
# Static dielectric constant tensor:
#      x y z
#    x 1.643360 0.000000 0.000000 
#    y 0.000000 1.536260 0.000000 
#    z 0.000000 0.000000 1.642160 
# 
# From -- ./inp_files/68035.got.cif
#   From: 2010.05.17/outbox.cif.g08.bks.cpg/sg65_35_cif.got.tgz:68035.got - 2010.06.03 17:01:31.
