data_PCOD9488437
_publ_section_title
;
Structure prediction by ZEFSAII (Michael W. Deem and Ramdas Pophale) SiO2 
 PCOD9488437
Probable space group: C M M M
;
_chemical_formula_sum "Si O2"
_cell_formula_units_Z 72
_cell_length_a 7.843644
_cell_length_b 19.811148
_cell_length_c 24.310911
_cell_angle_alpha 90.000000
_cell_angle_beta 90.000000
_cell_angle_gamma 90.000000
_cell_volume 3777.711167
_symmetry_space_group_name_H-M "C M M M"
_symmetry_group_IT_number 65
_symmetry_cell_setting 'orthorhombic'
loop_
_space_group_symop_operation_xyz
x,y,z
-x,-y,z
x,-y,-z
-x,y,-z
-x,-y,-z
x,y,-z
-x,y,z
x,-y,z
1/2+x,1/2+y,z
1/2-x,1/2-y,z
1/2+x,1/2-y,-z
1/2-x,1/2+y,-z
1/2-x,1/2-y,-z
1/2+x,1/2+y,-z
1/2-x,1/2+y,z
1/2+x,1/2-y,z
loop_
_atom_site_type_symbol
_atom_site_label
_atom_site_fract_x
_atom_site_fract_y
_atom_site_fract_z
Si Si1 0.790947 0.577865 0.000000
Si Si2 0.202455 0.918152 0.559158
Si Si3 0.705509 0.172697 0.900983
Si Si4 0.297398 0.826773 0.222809
Si Si5 0.704599 0.576674 0.677907
O O1 0.734210 0.619492 0.053732
O O2 0.736627 0.500000 0.000000
O O3 0.000000 0.577913 0.000000
O O4 0.275297 0.895386 0.500000
O O5 0.270941 0.896070 0.618733
O O6 0.000000 0.902475 0.557784
O O7 0.215707 0.000000 0.560277
O O8 0.500000 0.168496 0.899917
O O9 0.750000 0.250000 0.915570
O O10 0.770665 0.159300 0.838949
O O11 0.500000 0.831244 0.219611
O O12 0.250000 0.750000 0.236701
O O13 0.240432 0.877140 0.270128
O O14 0.500000 0.572717 0.672166
O O15 0.768311 0.500000 0.686278
#
# Coordination Sequence:
#
# PCOD9488437 Si02
#       5
#     8  16  16  16  16
#     4   9  17  30  49  73  98 121 148 184 226 271
#     4   7  10  19  38  64  91 118 150 187 226 272
#     4   9  18  32  51  71  90 119 156 192 228 269
#     4  10  20  33  49  69  94 125 161 198 235 277
#     4   9  17  29  47  72  99 125 154 191 236 282
#
# _framework density 19.059159999999999
#
# number of rings (size 3 to 8) (size 9 to 14) (size 15 to 20)
#    0.000    3.222    0.000    3.000    0.000    2.222 
#    0.000    2.222    0.000    2.667    0.000    3.111 
#    0.000    0.000    0.000    0.000    0.000    0.000 
#
# Total GULP energy -200464.081910 kJ/mol
# GULP energy per Si atom -5568.446720 kJ/mol
# Density = 1.901578 g / cm^3
# Si number density = 19.059160 Si / 1000 Ang^3
#
#
#
# Elastic Constant Matrix: (Units=GPa)
#
#
# Indices 1 2 3 4 5 6 
#
# 1 21.7037 3.7326 10.9391 0.0000 0.0000 0.0000
# 2 3.7326 104.1000 123.8935 0.0000 0.0000 0.0000
# 3 10.9391 123.8935 201.0700 0.0000 0.0000 0.0000
# 4 0.0000 0.0000 0.0000 514.6776 0.0000 0.0000
# 5 0.0000 0.0000 0.0000 0.0000 16.9970 0.0000
# 6 0.0000 0.0000 0.0000 0.0000 0.0000 13.6474
#
#
#
# Elastic Compliance Matrix: (Units=1/GPa)
#
#
# Indices 1 2 3 4 5 6 
#
# 1 0.048117 0.005213 -0.005830 0.000000 0.000000 0.000000
# 2 0.005213 0.036587 -0.022828 0.000000 0.000000 0.000000
# 3 -0.005830 -0.022828 0.019356 0.000000 0.000000 0.000000
# 4 0.000000 0.000000 0.000000 0.001943 0.000000 0.000000
# 5 0.000000 0.000000 0.000000 0.000000 0.058834 0.000000
# 6 0.000000 0.000000 0.000000 0.000000 0.000000 0.073274
#
#
# Mechanical properties :
#
#
# Convention : Reuss Voigt Hill
#
# Bulk Modulus (GPa) = 17.49111 67.11156 42.30133
# Shear Modulus (GPa) = 16.44423 121.61830 69.03126
#
# Velocity S-wave (km/s) = 2.94053 7.99684 6.02479
# Velocity P-wave (km/s) = 4.55260 10.97974 8.40478
#
# Compressibility (1/GPa) = 0.05717191
#
# Stress axis : x y z
#
# Youngs Moduli (GPa) = 20.78265 27.33181 51.66260
#
# Poissons Ratio (x) = -0.14249 0.30120
# Poissons Ratio (y) = -0.10835 1.17934
# Poissons Ratio (z) = 0.12117 0.62392
#
# Static dielectric constant tensor:
#      x y z
#    x 1.700800 0.000000 0.000000 
#    y 0.000000 1.606580 0.000000 
#    z 0.000000 0.000000 1.732050 
# 
# From -- ./inp_files/59238.got.cif
#   From: 2010.05.17/outbox.cif.g08.bks.cpg/sg65_30_cif.got.tgz:59238.got - 2010.06.03 17:01:31.
