data_PCOD9488523
_publ_section_title
;
Structure prediction by ZEFSAII (Michael W. Deem and Ramdas Pophale) SiO2 
 PCOD9488523
Probable space group: C M M M
;
_chemical_formula_sum "Si O2"
_cell_formula_units_Z 104
_cell_length_a 18.993860
_cell_length_b 7.538066
_cell_length_c 35.192442
_cell_angle_alpha 90.000000
_cell_angle_beta 90.000000
_cell_angle_gamma 90.000000
_cell_volume 5038.747222
_symmetry_space_group_name_H-M "C M M M"
_symmetry_group_IT_number 65
_symmetry_cell_setting 'orthorhombic'
loop_
_space_group_symop_operation_xyz
x,y,z
-x,-y,z
x,-y,-z
-x,y,-z
-x,-y,-z
x,y,-z
-x,y,z
x,-y,z
1/2+x,1/2+y,z
1/2-x,1/2-y,z
1/2+x,1/2-y,-z
1/2-x,1/2+y,-z
1/2-x,1/2-y,-z
1/2+x,1/2+y,-z
1/2-x,1/2+y,z
1/2+x,1/2-y,z
loop_
_atom_site_type_symbol
_atom_site_label
_atom_site_fract_x
_atom_site_fract_y
_atom_site_fract_z
Si Si1 0.167350 0.787234 0.311299
Si Si2 0.668268 0.287297 0.542653
Si Si3 0.919368 0.212440 0.239156
Si Si4 0.919709 0.712983 0.154415
Si Si5 0.333742 0.787513 0.000000
Si Si6 0.833023 0.286775 0.917490
Si Si7 0.581216 0.717349 0.615026
O O1 0.250000 0.750000 0.312466
O O2 0.129770 0.719667 0.272976
O O3 0.126537 0.722901 0.348746
O O4 0.159818 0.000000 0.311250
O O5 0.653888 0.218661 0.500000
O O6 0.660339 0.500000 0.541301
O O7 0.750000 0.250000 0.551609
O O8 0.617907 0.222069 0.576049
O O9 0.892145 0.248466 0.196681
O O10 0.000000 0.280669 0.241944
O O11 0.923202 0.000000 0.243001
O O12 0.922223 0.500000 0.151146
O O13 0.874131 0.781532 0.119251
O O14 0.000000 0.780265 0.152584
O O15 0.250000 0.750000 0.000000
O O16 0.359067 0.720013 0.958911
O O17 0.343981 0.000000 0.000000
O O18 0.841016 0.500000 0.918166
O O19 0.750000 0.250000 0.914151
O O20 0.500000 0.771372 0.617820
O O21 0.582124 0.500000 0.614888
#
# Coordination Sequence:
#
# PCOD9488523 Si02
#       7
#    16  16  16  16   8  16  16
#     4  10  20  33  50  71  94 120 151 189 231 273
#     4   9  17  29  47  71  97 125 156 191 232 276
#     4   9  18  33  51  68  87 116 154 189 221 264
#     4   9  18  32  48  67  93 122 149 181 225 272
#     4   8  14  26  43  63  87 115 147 182 220 260
#     4   9  17  29  46  67  90 117 150 186 222 263
#     4   9  17  30  49  71  94 122 157 195 231 268
#
# _framework density 20.640051
#
# number of rings (size 3 to 8) (size 9 to 14) (size 15 to 20)
#    0.000    2.923    0.000    0.923    0.000    4.000 
#    0.000    5.000    0.000    5.077    0.000    2.154 
#    0.000    8.615    0.000    0.000    0.000    0.000 
#
# Total GULP energy -290050.089674 kJ/mol
# GULP energy per Si atom -5577.886340 kJ/mol
# Density = 2.059307 g / cm^3
# Si number density = 20.640051 Si / 1000 Ang^3
#
#
#
# Elastic Constant Matrix: (Units=GPa)
#
#
# Indices 1 2 3 4 5 6 
#
# 1 118.6561 -0.4786 130.9279 0.0000 0.0000 0.0000
# 2 -0.4786 52.8226 7.4494 0.0000 0.0000 0.0000
# 3 130.9279 7.4494 240.9914 0.0000 0.0000 0.0000
# 4 0.0000 0.0000 0.0000 12.7612 0.0000 0.0000
# 5 0.0000 0.0000 0.0000 0.0000 112.2092 0.0000
# 6 0.0000 0.0000 0.0000 0.0000 0.0000 18.7661
#
#
#
# Elastic Compliance Matrix: (Units=1/GPa)
#
#
# Indices 1 2 3 4 5 6 
#
# 1 0.021216 0.001826 -0.011583 0.000000 0.000000 0.000000
# 2 0.001826 0.019171 -0.001584 0.000000 0.000000 0.000000
# 3 -0.011583 -0.001584 0.010491 0.000000 0.000000 0.000000
# 4 0.000000 0.000000 0.000000 0.078363 0.000000 0.000000
# 5 0.000000 0.000000 0.000000 0.000000 0.008912 0.000000
# 6 0.000000 0.000000 0.000000 0.000000 0.000000 0.053288
#
#
# Mechanical properties :
#
#
# Convention : Reuss Voigt Hill
#
# Bulk Modulus (GPa) = 35.46695 76.47418 55.97056
# Shear Modulus (GPa) = 22.36919 47.05205 34.71062
#
# Velocity S-wave (km/s) = 3.29565 4.77975 4.10532
# Velocity P-wave (km/s) = 5.63050 8.22150 7.04612
#
# Compressibility (1/GPa) = 0.02819526
#
# Stress axis : x y z
#
# Youngs Moduli (GPa) = 47.13491 52.16135 95.31751
#
# Poissons Ratio (x) = -0.09523 1.10403
# Poissons Ratio (y) = -0.08605 0.15103
# Poissons Ratio (z) = 0.54595 0.08265
#
# Static dielectric constant tensor:
#      x y z
#    x 1.688980 0.000000 0.000000 
#    y 0.000000 1.708680 0.000000 
#    z 0.000000 0.000000 1.758730 
# 
# From -- ./inp_files/77661.got.cif
#   From: 2010.05.17/outbox.cif.g08.bks.cpg/sg65_39_cif.got.tgz:77661.got - 2010.06.03 17:01:31.
