data_PCOD9488835
_publ_section_title
;
Structure prediction by ZEFSAII (Michael W. Deem and Ramdas Pophale) SiO2 
 PCOD9488835
Probable space group: C M M M
;
_chemical_formula_sum "Si O2"
_cell_formula_units_Z 88
_cell_length_a 8.871961
_cell_length_b 28.677831
_cell_length_c 19.164036
_cell_angle_alpha 90.000000
_cell_angle_beta 90.000000
_cell_angle_gamma 90.000000
_cell_volume 4875.878815
_symmetry_space_group_name_H-M "C M M M"
_symmetry_group_IT_number 65
_symmetry_cell_setting 'orthorhombic'
loop_
_space_group_symop_operation_xyz
x,y,z
-x,-y,z
x,-y,-z
-x,y,-z
-x,-y,-z
x,y,-z
-x,y,z
x,-y,z
1/2+x,1/2+y,z
1/2-x,1/2-y,z
1/2+x,1/2-y,-z
1/2-x,1/2+y,-z
1/2-x,1/2-y,-z
1/2+x,1/2+y,-z
1/2-x,1/2+y,z
1/2+x,1/2-y,z
loop_
_atom_site_type_symbol
_atom_site_label
_atom_site_fract_x
_atom_site_fract_y
_atom_site_fract_z
Si Si1 0.818781 0.554784 0.578001
Si Si2 0.317861 0.605059 0.289368
Si Si3 0.181999 0.197834 0.073966
Si Si4 0.818721 0.198972 0.772389
Si Si5 0.825417 0.443011 0.000000
Si Si6 0.178558 0.055903 0.853985
O O1 0.771567 0.570114 0.500000
O O2 0.780902 0.500000 0.584643
O O3 0.746680 0.582293 0.641448
O O4 0.000000 0.558560 0.581508
O O5 0.500000 0.602158 0.290739
O O6 0.273886 0.659215 0.281673
O O7 0.267576 0.578768 0.218296
O O8 0.250000 0.250000 0.073408
O O9 0.224476 0.179679 0.150205
O O10 0.000000 0.200067 0.073336
O O11 0.229732 0.175550 0.000000
O O12 0.750000 0.250000 0.762265
O O13 0.000000 0.203376 0.771287
O O14 0.751002 0.427911 0.926913
O O15 0.813497 0.500000 0.000000
O O16 0.000000 0.430348 0.000000
O O17 0.000000 0.065414 0.859694
O O18 0.199756 0.000000 0.848595
#
# Coordination Sequence:
#
# PCOD9488835 Si02
#       6
#    16  16  16  16   8  16
#     4   9  19  36  57  82 111 139 165 197 246 310
#     4  10  20  33  51  79 107 133 171 214 255 305
#     4   8  13  23  40  60  83 115 156 202 251 296
#     4   9  18  32  48  70  99 132 172 215 258 304
#     4   9  17  29  45  65  92 129 172 213 250 291
#     4   9  17  30  47  68  97 132 167 204 250 304
#
# _framework density 18.048029
#
# number of rings (size 3 to 8) (size 9 to 14) (size 15 to 20)
#    0.000    3.000    0.000    1.364    0.000    4.000 
#    1.636    2.727    0.000    0.545    0.000    0.000 
#    0.000    0.000    0.000    0.000    0.000    0.000 
#
# Total GULP energy -245168.726773 kJ/mol
# GULP energy per Si atom -5572.016518 kJ/mol
# Density = 1.800695 g / cm^3
# Si number density = 18.048029 Si / 1000 Ang^3
#
#
#
# Elastic Constant Matrix: (Units=GPa)
#
#
# Indices 1 2 3 4 5 6 
#
# 1 10.5298 38.6406 43.0176 0.0000 0.0000 0.0000
# 2 38.6406 68.5866 89.4489 0.0000 0.0000 0.0000
# 3 43.0176 89.4489 181.8393 0.0000 0.0000 0.0000
# 4 0.0000 0.0000 0.0000 35.1701 0.0000 0.0000
# 5 0.0000 0.0000 0.0000 0.0000 24.2597 0.0000
# 6 0.0000 0.0000 0.0000 0.0000 0.0000 14.7333
#
#
#
# Elastic Compliance Matrix: (Units=1/GPa)
#
#
# Indices 1 2 3 4 5 6 
#
# 1 -0.082820 0.058883 -0.009372 0.000000 0.000000 0.000000
# 2 0.058883 -0.001190 -0.013345 0.000000 0.000000 0.000000
# 3 -0.009372 -0.013345 0.014281 0.000000 0.000000 0.000000
# 4 0.000000 0.000000 0.000000 0.028433 0.000000 0.000000
# 5 0.000000 0.000000 0.000000 0.000000 0.041221 0.000000
# 6 0.000000 0.000000 0.000000 0.000000 0.000000 0.067873
#
#
# Mechanical properties :
#
#
# Convention : Reuss Voigt Hill
#
# Bulk Modulus (GPa) = 384.23594 67.01889 225.62741
# Shear Modulus (GPa) = -1364.24485 20.82254 -671.71115
#
# Velocity S-wave (km/s) = -27.52341 3.40034 -19.31289
# Velocity P-wave (km/s) = 28.22573 7.25470 19.28810
#
# Compressibility (1/GPa) = 0.00260257
#
# Stress axis : x y z
#
# Youngs Moduli (GPa) = -12.07440 -840.58181 70.02335
#
# Poissons Ratio (x) = 49.49559 0.65628
# Poissons Ratio (y) = 0.71097 0.93443
# Poissons Ratio (z) = -0.11317 -11.21724
#
# Static dielectric constant tensor:
#      x y z
#    x 1.613590 0.000000 0.000000 
#    y 0.000000 1.681810 0.000000 
#    z 0.000000 0.000000 1.625930 
# 
# From -- ./inp_files/50462.got.cif
#   From: 2010.05.17/outbox.cif.g08.bks.cpg/sg65_26_cif.got.tgz:50462.got - 2010.06.03 17:01:31.
