data_PCOD9488887
_publ_section_title
;
Structure prediction by ZEFSAII (Michael W. Deem and Ramdas Pophale) SiO2 
 PCOD9488887
Probable space group: C M M M
;
_chemical_formula_sum "Si O2"
_cell_formula_units_Z 104
_cell_length_a 30.070008
_cell_length_b 9.049886
_cell_length_c 20.147946
_cell_angle_alpha 90.000000
_cell_angle_beta 90.000000
_cell_angle_gamma 90.000000
_cell_volume 5482.863455
_symmetry_space_group_name_H-M "C M M M"
_symmetry_group_IT_number 65
_symmetry_cell_setting 'orthorhombic'
loop_
_space_group_symop_operation_xyz
x,y,z
-x,-y,z
x,-y,-z
-x,y,-z
-x,-y,-z
x,y,-z
-x,y,z
x,-y,z
1/2+x,1/2+y,z
1/2-x,1/2-y,z
1/2+x,1/2-y,-z
1/2-x,1/2+y,-z
1/2-x,1/2-y,-z
1/2+x,1/2+y,-z
1/2-x,1/2+y,z
1/2+x,1/2-y,z
loop_
_atom_site_type_symbol
_atom_site_label
_atom_site_fract_x
_atom_site_fract_y
_atom_site_fract_z
Si Si1 0.447617 0.672674 0.185978
Si Si2 0.703735 0.327317 0.732583
Si Si3 0.701400 0.821255 0.500000
Si Si4 0.296411 0.673485 0.107908
Si Si5 0.356523 0.177626 0.627674
Si Si6 0.450291 0.822170 0.670738
Si Si7 0.112077 0.675498 0.074415
O O1 0.500000 0.683075 0.168870
O O2 0.435435 0.500000 0.190926
O O3 0.442390 0.749566 0.257415
O O4 0.418150 0.750347 0.130348
O O5 0.705478 0.500000 0.716009
O O6 0.750000 0.250000 0.713180
O O7 0.699086 0.313406 0.811915
O O8 0.664387 0.249510 0.693119
O O9 0.750000 0.750000 0.500000
O O10 0.673035 0.777484 0.564808
O O11 0.705616 0.000000 0.500000
O O12 0.295901 0.500000 0.091084
O O13 0.250000 0.750000 0.088915
O O14 0.338879 0.754906 0.078325
O O15 0.408667 0.217016 0.624280
O O16 0.353486 0.000000 0.633042
O O17 0.500000 0.778926 0.648041
O O18 0.450056 0.000000 0.678527
O O19 0.114769 0.500000 0.085605
O O20 0.094162 0.701145 0.000000
#
# Coordination Sequence:
#
# PCOD9488887 Si02
#       7
#    16  16   8  16  16  16  16
#     4  10  21  37  58  84 112 141 175 220 273 325
#     4  10  20  33  52  79 106 133 171 218 268 320
#     4  10  22  38  53  75 109 147 186 224 263 312
#     4  10  21  37  57  80 107 139 177 224 276 328
#     4  10  20  34  53  77 108 144 180 220 264 311
#     4   9  18  34  57  83 109 139 176 218 267 321
#     4  11  24  39  55  77 106 142 183 224 268 322
#
# _framework density 18.968191000000001
#
# number of rings (size 3 to 8) (size 9 to 14) (size 15 to 20)
#    0.000    2.000    0.000    3.231    0.000    9.538 
#    0.000    1.923    0.000    2.308    0.000    0.000 
#    0.000    4.308    0.000    0.000    0.000    0.000 
#
# Total GULP energy -290467.596302 kJ/mol
# GULP energy per Si atom -5585.915314 kJ/mol
# Density = 1.892502 g / cm^3
# Si number density = 18.968191 Si / 1000 Ang^3
#
#
#
# Elastic Constant Matrix: (Units=GPa)
#
#
# Indices 1 2 3 4 5 6 
#
# 1 135.5397 42.1036 56.2484 0.0000 0.0000 0.0000
# 2 42.1036 43.0673 28.0491 0.0000 0.0000 0.0000
# 3 56.2484 28.0491 47.7132 0.0000 0.0000 0.0000
# 4 0.0000 0.0000 0.0000 13.7152 0.0000 0.0000
# 5 0.0000 0.0000 0.0000 0.0000 -4.4383 0.0000
# 6 0.0000 0.0000 0.0000 0.0000 0.0000 31.0417
#
#
#
# Elastic Compliance Matrix: (Units=1/GPa)
#
#
# Indices 1 2 3 4 5 6 
#
# 1 0.015116 -0.005140 -0.014798 0.000000 0.000000 0.000000
# 2 -0.005140 0.039373 -0.017087 0.000000 0.000000 0.000000
# 3 -0.014798 -0.017087 0.048449 0.000000 0.000000 0.000000
# 4 0.000000 0.000000 0.000000 0.072912 0.000000 0.000000
# 5 0.000000 0.000000 0.000000 0.000000 -0.225311 0.000000
# 6 0.000000 0.000000 0.000000 0.000000 0.000000 0.032215
#
#
# Mechanical properties :
#
#
# Convention : Reuss Voigt Hill
#
# Bulk Modulus (GPa) = 34.61694 53.23582 43.92638
# Shear Modulus (GPa) = 75.26649 14.72498 44.99573
#
# Velocity S-wave (km/s) = 6.30607 2.78924 4.87577
# Velocity P-wave (km/s) = 8.44462 6.20483 7.40984
#
# Compressibility (1/GPa) = 0.02888759
#
# Stress axis : x y z
#
# Youngs Moduli (GPa) = 66.15663 25.39844 20.64036
#
# Poissons Ratio (x) = 0.13054 0.30544
# Poissons Ratio (y) = 0.34002 0.35268
# Poissons Ratio (z) = 0.97900 0.43398
#
# Static dielectric constant tensor:
#      x y z
#    x 1.663720 0.000000 0.000000 
#    y 0.000000 1.631590 0.000000 
#    z 0.000000 0.000000 1.645240 
# 
# From -- ./inp_files/66376.got.cif
#   From: 2010.05.17/outbox.cif.g08.bks.cpg/sg65_34_cif.got.tgz:66376.got - 2010.06.03 17:01:31.
