data_PCOD9488655
_publ_section_title
;
Structure prediction by ZEFSAII (Michael W. Deem and Ramdas Pophale) SiO2 
 PCOD9488655
Probable space group: C M M M
;
_chemical_formula_sum "Si O2"
_cell_formula_units_Z 104
_cell_length_a 19.721871
_cell_length_b 26.021632
_cell_length_c 9.727377
_cell_angle_alpha 90.000000
_cell_angle_beta 90.000000
_cell_angle_gamma 90.000000
_cell_volume 4992.043861
_symmetry_space_group_name_H-M "C M M M"
_symmetry_group_IT_number 65
_symmetry_cell_setting 'orthorhombic'
loop_
_space_group_symop_operation_xyz
x,y,z
-x,-y,z
x,-y,-z
-x,y,-z
-x,-y,-z
x,y,-z
-x,y,z
x,-y,z
1/2+x,1/2+y,z
1/2-x,1/2-y,z
1/2+x,1/2-y,-z
1/2-x,1/2+y,-z
1/2-x,1/2-y,-z
1/2+x,1/2+y,-z
1/2-x,1/2+y,z
1/2+x,1/2-y,z
loop_
_atom_site_type_symbol
_atom_site_label
_atom_site_fract_x
_atom_site_fract_y
_atom_site_fract_z
Si Si1 0.079161 0.909222 0.653495
Si Si2 0.424455 0.083085 0.161542
Si Si3 0.916678 0.000000 0.844585
Si Si4 0.106415 0.793313 0.340841
Si Si5 0.292917 0.056139 0.337037
Si Si6 0.615447 0.199890 0.839288
Si Si7 0.258194 0.830454 0.658324
O O1 0.110598 0.912949 0.500000
O O2 0.106261 0.949812 0.761512
O O3 0.081379 0.850065 0.697603
O O4 0.000000 0.922635 0.639024
O O5 0.500000 0.065416 0.200924
O O6 0.362921 0.062374 0.252737
O O7 0.421980 0.145251 0.173227
O O8 0.413666 0.070750 0.000000
O O9 0.000000 0.000000 0.850493
O O10 0.892063 0.000000 0.000000
O O11 0.087686 0.783775 0.500000
O O12 0.084095 0.747412 0.243367
O O13 0.187785 0.800661 0.333721
O O14 0.307793 0.056366 0.500000
O O15 0.250157 0.108306 0.313365
O O16 0.262881 0.000000 0.303562
O O17 0.687663 0.189747 0.766492
O O18 0.622023 0.212059 0.000000
O O19 0.283507 0.825004 0.500000
#
# Coordination Sequence:
#
# PCOD9488655 Si02
#       7
#    16  16   8  16  16  16  16
#     4   9  18  33  51  72  99 129 162 201 245 293
#     4   9  19  35  52  72 100 134 170 202 240 298
#     4   9  17  31  51  71  93 125 161 195 236 285
#     4  10  20  33  50  75 100 129 167 205 246 296
#     4   9  18  33  52  74 100 129 163 207 253 293
#     4  10  20  33  51  73  98 131 165 204 249 292
#     4   9  18  34  52  71  97 130 166 204 245 295
#
# _framework density 20.833148999999999
#
# number of rings (size 3 to 8) (size 9 to 14) (size 15 to 20)
#    0.000    2.692    0.000    1.154    0.000    6.154 
#    1.385    1.538    0.000    0.000    0.000    0.000 
#    0.000    0.000    0.000    0.000    0.000    0.000 
#
# Total GULP energy -290225.369215 kJ/mol
# GULP energy per Si atom -5581.257100 kJ/mol
# Density = 2.078573 g / cm^3
# Si number density = 20.833149 Si / 1000 Ang^3
#
#
#
# Elastic Constant Matrix: (Units=GPa)
#
#
# Indices 1 2 3 4 5 6 
#
# 1 47.2885 -2.8385 11.2434 0.0000 0.0000 0.0000
# 2 -2.8385 140.6347 71.0286 0.0000 0.0000 0.0000
# 3 11.2434 71.0286 73.7096 0.0000 0.0000 0.0000
# 4 0.0000 0.0000 0.0000 24.4350 0.0000 0.0000
# 5 0.0000 0.0000 0.0000 0.0000 10.2644 0.0000
# 6 0.0000 0.0000 0.0000 0.0000 0.0000 292.6086
#
#
#
# Elastic Compliance Matrix: (Units=1/GPa)
#
#
# Indices 1 2 3 4 5 6 
#
# 1 0.023265 0.004406 -0.007795 0.000000 0.000000 0.000000
# 2 0.004406 0.014687 -0.014825 0.000000 0.000000 0.000000
# 3 -0.007795 -0.014825 0.029041 0.000000 0.000000 0.000000
# 4 0.000000 0.000000 0.000000 0.040925 0.000000 0.000000
# 5 0.000000 0.000000 0.000000 0.000000 0.097424 0.000000
# 6 0.000000 0.000000 0.000000 0.000000 0.000000 0.003418
#
#
# Mechanical properties :
#
#
# Convention : Reuss Voigt Hill
#
# Bulk Modulus (GPa) = 32.71571 46.72219 39.71895
# Shear Modulus (GPa) = 19.57902 77.60821 48.59361
#
# Velocity S-wave (km/s) = 3.06894 6.11009 4.83485
# Velocity P-wave (km/s) = 5.31937 8.50018 7.09044
#
# Compressibility (1/GPa) = 0.03056635
#
# Stress axis : x y z
#
# Youngs Moduli (GPa) = 42.98373 68.08737 34.43349
#
# Poissons Ratio (x) = -0.30002 0.26840
# Poissons Ratio (y) = -0.18940 0.51047
# Poissons Ratio (z) = 0.33505 1.00939
#
# Static dielectric constant tensor:
#      x y z
#    x 1.767020 0.000000 0.000000 
#    y 0.000000 1.782860 0.000000 
#    z 0.000000 0.000000 1.701450 
# 
# From -- ./inp_files/16780.got.cif
#   From: 2010.05.17/outbox.cif.g08.bks.cpg/sg65_9_cif.got.tgz:16780.got - 2010.06.03 17:01:31.
