data_PCOD9488828
_publ_section_title
;
Structure prediction by ZEFSAII (Michael W. Deem and Ramdas Pophale) SiO2 
 PCOD9488828
Probable space group: C M M M
;
_chemical_formula_sum "Si O2"
_cell_formula_units_Z 112
_cell_length_a 24.083957
_cell_length_b 17.202406
_cell_length_c 12.794774
_cell_angle_alpha 90.000000
_cell_angle_beta 90.000000
_cell_angle_gamma 90.000000
_cell_volume 5300.900540
_symmetry_space_group_name_H-M "C M M M"
_symmetry_group_IT_number 65
_symmetry_cell_setting 'orthorhombic'
loop_
_space_group_symop_operation_xyz
x,y,z
-x,-y,z
x,-y,-z
-x,y,-z
-x,-y,-z
x,y,-z
-x,y,z
x,-y,z
1/2+x,1/2+y,z
1/2-x,1/2-y,z
1/2+x,1/2-y,-z
1/2-x,1/2+y,-z
1/2-x,1/2-y,-z
1/2+x,1/2+y,-z
1/2-x,1/2+y,z
1/2+x,1/2-y,z
loop_
_atom_site_type_symbol
_atom_site_label
_atom_site_fract_x
_atom_site_fract_y
_atom_site_fract_z
Si Si1 0.667214 0.914137 0.770920
Si Si2 0.438213 0.277872 0.294525
Si Si3 0.435718 0.887987 0.381051
Si Si4 0.253752 0.659612 0.619352
Si Si5 0.156078 0.252907 0.121141
Si Si6 0.821763 0.915044 0.880737
Si Si7 0.372565 0.413641 0.661019
O O1 0.609826 0.912737 0.704013
O O2 0.716362 0.896712 0.688768
O O3 0.672409 0.840879 0.848595
O O4 0.671022 0.000000 0.818098
O O5 0.500000 0.280540 0.250786
O O6 0.434023 0.205230 0.371892
O O7 0.393837 0.263630 0.202302
O O8 0.422956 0.356034 0.355043
O O9 0.422481 0.911406 0.500000
O O10 0.500000 0.910706 0.358471
O O11 0.233470 0.657931 0.500000
O O12 0.250000 0.750000 0.653738
O O13 0.316469 0.628908 0.624006
O O14 0.197092 0.176491 0.131840
O O15 0.139364 0.253749 0.000000
O O16 0.865134 0.920413 0.786766
O O17 0.790728 0.000000 0.870958
O O18 0.842610 0.916025 0.000000
O O19 0.376883 0.500000 0.618732
#
# Coordination Sequence:
#
# PCOD9488828 Si02
#       7
#    16  16  16  16  16  16  16
#     4  11  23  37  55  82 116 152 193 236 281 345
#     4   9  18  33  54  80 110 146 190 235 280 339
#     4   9  18  34  56  79 104 138 182 234 288 336
#     4  11  23  39  59  80 107 147 194 245 299 352
#     4   9  18  34  55  80 113 149 185 230 282 334
#     4   8  14  28  52  78 103 134 174 222 275 327
#     4  10  20  33  51  78 112 146 183 231 289 352
#
# _framework density 21.128485999999999
#
# number of rings (size 3 to 8) (size 9 to 14) (size 15 to 20)
#    0.000    2.429    0.000    3.429    0.000    4.857 
#    0.000    1.429    0.000    6.857    0.000   17.000 
#    0.000    0.000    0.000    0.000    0.000    0.143 
#
# Total GULP energy -311756.528054 kJ/mol
# GULP energy per Si atom -5567.080858 kJ/mol
# Density = 2.108040 g / cm^3
# Si number density = 21.128486 Si / 1000 Ang^3
#
#
#
# Elastic Constant Matrix: (Units=GPa)
#
#
# Indices 1 2 3 4 5 6 
#
# 1 66.5742 30.7873 12.0880 0.0000 0.0000 0.0000
# 2 30.7873 232.2566 30.0382 0.0000 0.0000 0.0000
# 3 12.0880 30.0382 72.3149 0.0000 0.0000 0.0000
# 4 0.0000 0.0000 0.0000 -6.4529 0.0000 0.0000
# 5 0.0000 0.0000 0.0000 0.0000 -2.7380 0.0000
# 6 0.0000 0.0000 0.0000 0.0000 0.0000 1.6011
#
#
#
# Elastic Compliance Matrix: (Units=1/GPa)
#
#
# Indices 1 2 3 4 5 6 
#
# 1 0.016251 -0.001905 -0.001925 0.000000 0.000000 0.000000
# 2 -0.001905 0.004773 -0.001664 0.000000 0.000000 0.000000
# 3 -0.001925 -0.001664 0.014842 0.000000 0.000000 0.000000
# 4 0.000000 0.000000 0.000000 -0.154970 0.000000 0.000000
# 5 0.000000 0.000000 0.000000 0.000000 -0.365230 0.000000
# 6 0.000000 0.000000 0.000000 0.000000 0.000000 0.624556
#
#
# Mechanical properties :
#
#
# Convention : Reuss Voigt Hill
#
# Bulk Modulus (GPa) = 40.19784 57.44143 48.81964
# Shear Modulus (GPa) = 31.34714 18.36420 24.85567
#
# Velocity S-wave (km/s) = 3.85599 2.95136 3.43360
# Velocity P-wave (km/s) = 6.23631 6.23376 6.23504
#
# Compressibility (1/GPa) = 0.02487696
#
# Stress axis : x y z
#
# Youngs Moduli (GPa) = 61.53289 209.49492 67.37846
#
# Poissons Ratio (x) = 0.39914 0.12971
# Poissons Ratio (y) = 0.11724 0.11214
# Poissons Ratio (z) = 0.11846 0.34866
#
# Static dielectric constant tensor:
#      x y z
#    x 1.740940 0.000000 0.000000 
#    y 0.000000 1.861850 0.000000 
#    z 0.000000 0.000000 1.750760 
# 
# From -- ./inp_files/45792.got.cif
#   From: 2010.05.17/outbox.cif.g08.bks.cpg/sg65_23_cif.got.tgz:45792.got - 2010.06.03 17:01:31.
