data_PCOD9488173
_publ_section_title
;
Structure prediction by ZEFSAII (Michael W. Deem and Ramdas Pophale) SiO2 
 PCOD9488173
Probable space group: C M M M
;
_chemical_formula_sum "Si O2"
_cell_formula_units_Z 104
_cell_length_a 30.012925
_cell_length_b 8.296459
_cell_length_c 20.823702
_cell_angle_alpha 90.000000
_cell_angle_beta 90.000000
_cell_angle_gamma 90.000000
_cell_volume 5185.122658
_symmetry_space_group_name_H-M "C M M M"
_symmetry_group_IT_number 65
_symmetry_cell_setting 'orthorhombic'
loop_
_space_group_symop_operation_xyz
x,y,z
-x,-y,z
x,-y,-z
-x,y,-z
-x,-y,-z
x,y,-z
-x,y,z
x,-y,z
1/2+x,1/2+y,z
1/2-x,1/2-y,z
1/2+x,1/2-y,-z
1/2-x,1/2+y,-z
1/2-x,1/2-y,-z
1/2+x,1/2+y,-z
1/2-x,1/2+y,z
1/2+x,1/2-y,z
loop_
_atom_site_type_symbol
_atom_site_label
_atom_site_fract_x
_atom_site_fract_y
_atom_site_fract_z
Si Si1 0.108669 0.193635 0.069595
Si Si2 0.798784 0.693192 0.884256
Si Si3 0.051430 0.804076 0.810967
Si Si4 0.949373 0.194428 0.665031
Si Si5 0.641278 0.807369 0.379541
Si Si6 0.198958 0.191208 0.500000
Si Si7 0.201080 0.305765 0.263601
O O1 0.160362 0.236719 0.076465
O O2 0.082955 0.257472 0.132341
O O3 0.103953 0.000000 0.070332
O O4 0.091915 0.251737 0.000000
O O5 0.800324 0.500000 0.886005
O O6 0.750000 0.750000 0.905412
O O7 0.804941 0.749135 0.809881
O O8 0.060991 0.748748 0.738230
O O9 0.000000 0.764686 0.825062
O O10 0.054660 0.000000 0.809656
O O11 0.909750 0.250953 0.619499
O O12 0.000000 0.246658 0.649218
O O13 0.949600 0.000000 0.665710
O O14 0.671743 0.750152 0.437946
O O15 0.664156 0.746968 0.313391
O O16 0.641794 0.000000 0.378823
O O17 0.250000 0.250000 0.500000
O O18 0.199771 0.000000 0.500000
O O19 0.200396 0.500000 0.262965
O O20 0.250000 0.250000 0.285206
#
# Coordination Sequence:
#
# PCOD9488173 Si02
#       7
#    16  16  16  16  16   8  16
#     4  10  20  32  48  73 103 136 177 222 268 321
#     4  10  20  35  53  73  99 132 172 219 271 324
#     4   8  15  30  53  80 109 141 178 222 271 322
#     4   9  18  34  57  84 112 144 184 228 276 328
#     4  11  22  37  58  85 116 149 185 224 270 321
#     4  12  26  44  63  86 119 156 192 225 261 311
#     4   9  19  33  52  79 106 133 170 218 269 322
#
# _framework density 20.057383999999999
#
# number of rings (size 3 to 8) (size 9 to 14) (size 15 to 20)
#    0.000    2.308    0.000    3.923    0.000    4.308 
#    0.000    1.923    0.000    3.692    0.000    1.077 
#    0.000    0.000    0.000    0.000    0.000    0.000 
#
# Total GULP energy -290286.514262 kJ/mol
# GULP energy per Si atom -5582.432967 kJ/mol
# Density = 2.001173 g / cm^3
# Si number density = 20.057384 Si / 1000 Ang^3
#
#
#
# Elastic Constant Matrix: (Units=GPa)
#
#
# Indices 1 2 3 4 5 6 
#
# 1 133.9762 10.4537 64.5398 0.0000 0.0000 0.0000
# 2 10.4537 18.1513 12.0956 0.0000 0.0000 0.0000
# 3 64.5398 12.0956 59.8558 0.0000 0.0000 0.0000
# 4 0.0000 0.0000 0.0000 8.2874 0.0000 0.0000
# 5 0.0000 0.0000 0.0000 0.0000 -13.0838 0.0000
# 6 0.0000 0.0000 0.0000 0.0000 0.0000 25.1938
#
#
#
# Elastic Compliance Matrix: (Units=1/GPa)
#
#
# Indices 1 2 3 4 5 6 
#
# 1 0.015635 0.002577 -0.017379 0.000000 0.000000 0.000000
# 2 0.002577 0.064090 -0.015729 0.000000 0.000000 0.000000
# 3 -0.017379 -0.015729 0.038624 0.000000 0.000000 0.000000
# 4 0.000000 0.000000 0.000000 0.120665 0.000000 0.000000
# 5 0.000000 0.000000 0.000000 0.000000 -0.076431 0.000000
# 6 0.000000 0.000000 0.000000 0.000000 0.000000 0.039692
#
#
# Mechanical properties :
#
#
# Convention : Reuss Voigt Hill
#
# Bulk Modulus (GPa) = 17.45633 42.90682 30.18158
# Shear Modulus (GPa) = 17.70311 12.40576 15.05444
#
# Velocity S-wave (km/s) = 2.97412 2.48969 2.74262
# Velocity P-wave (km/s) = 4.52945 5.45007 5.01095
#
# Compressibility (1/GPa) = 0.05728580
#
# Stress axis : x y z
#
# Youngs Moduli (GPa) = 63.95939 15.60295 25.89033
#
# Poissons Ratio (x) = -0.04020 0.44995
# Poissons Ratio (y) = -0.16480 0.40724
# Poissons Ratio (z) = 1.11156 0.24543
#
# Static dielectric constant tensor:
#      x y z
#    x 1.783330 0.000000 0.000000 
#    y 0.000000 1.691820 0.000000 
#    z 0.000000 0.000000 1.758200 
# 
# From -- ./inp_files/65923.got.cif
#   From: 2010.05.17/outbox.cif.g08.bks.cpg/sg65_33_cif.got.tgz:65923.got - 2010.06.03 17:01:31.
