data_PCOD9488871
_publ_section_title
;
Structure prediction by ZEFSAII (Michael W. Deem and Ramdas Pophale) SiO2 
 PCOD9488871
Probable space group: C M M M
;
_chemical_formula_sum "Si O2"
_cell_formula_units_Z 96
_cell_length_a 28.252053
_cell_length_b 19.781747
_cell_length_c 7.591742
_cell_angle_alpha 90.000000
_cell_angle_beta 90.000000
_cell_angle_gamma 90.000000
_cell_volume 4242.834542
_symmetry_space_group_name_H-M "C M M M"
_symmetry_group_IT_number 65
_symmetry_cell_setting 'orthorhombic'
loop_
_space_group_symop_operation_xyz
x,y,z
-x,-y,z
x,-y,-z
-x,y,-z
-x,-y,-z
x,y,-z
-x,y,z
x,-y,z
1/2+x,1/2+y,z
1/2-x,1/2-y,z
1/2+x,1/2-y,-z
1/2-x,1/2+y,-z
1/2-x,1/2-y,-z
1/2+x,1/2+y,-z
1/2-x,1/2+y,z
1/2+x,1/2-y,z
loop_
_atom_site_type_symbol
_atom_site_label
_atom_site_fract_x
_atom_site_fract_y
_atom_site_fract_z
Si Si1 0.399909 0.284816 0.793219
Si Si2 0.749125 0.077731 0.713343
Si Si3 0.445294 0.575175 0.712639
Si Si4 0.295880 0.287235 0.206545
Si Si5 0.143290 0.420855 0.713628
Si Si6 0.051521 0.655322 0.295531
O O1 0.413615 0.362712 0.771710
O O2 0.347442 0.270808 0.718160
O O3 0.438153 0.235102 0.709757
O O4 0.399846 0.269607 0.000000
O O5 0.749685 0.078408 0.500000
O O6 0.785955 0.132958 0.777745
O O7 0.696063 0.098877 0.773659
O O8 0.757376 0.000000 0.767854
O O9 0.445021 0.575225 0.500000
O O10 0.500000 0.585132 0.768877
O O11 0.430167 0.500000 0.770658
O O12 0.250000 0.250000 0.285372
O O13 0.297779 0.269455 0.000000
O O14 0.144351 0.414514 0.500000
O O15 0.137354 0.500000 0.754082
O O16 0.098326 0.379735 0.781909
O O17 0.049680 0.633956 0.500000
O O18 0.000000 0.640175 0.216923
#
# Coordination Sequence:
#
# PCOD9488871 Si02
#       6
#    16  16  16  16  16  16
#     4  11  23  36  52  75 103 136 172 211 256 303
#     4   9  18  33  54  79 104 132 168 208 252 303
#     4   9  19  37  59  80 103 133 168 206 250 302
#     4  10  22  38  53  72 101 136 174 214 254 300
#     4   8  15  30  52  78 107 135 166 208 253 297
#     4  10  20  33  52  78 105 135 172 211 251 298
#
# _framework density 22.626383000000001
#
# number of rings (size 3 to 8) (size 9 to 14) (size 15 to 20)
#    0.000    2.500    0.000    3.500    0.000    6.000 
#    0.000    5.833    0.000    1.500    0.000    1.167 
#    0.000    0.000    0.000    0.000    0.000    0.000 
#
# Total GULP energy -268089.237756 kJ/mol
# GULP energy per Si atom -5585.192453 kJ/mol
# Density = 2.257488 g / cm^3
# Si number density = 22.626383 Si / 1000 Ang^3
#
#
#
# Elastic Constant Matrix: (Units=GPa)
#
#
# Indices 1 2 3 4 5 6 
#
# 1 68.7934 1.7551 1.3440 0.0000 0.0000 0.0000
# 2 1.7551 34.4253 -9.6295 0.0000 0.0000 0.0000
# 3 1.3440 -9.6295 54.2881 0.0000 0.0000 0.0000
# 4 0.0000 0.0000 0.0000 40.3375 0.0000 0.0000
# 5 0.0000 0.0000 0.0000 0.0000 5.6641 0.0000
# 6 0.0000 0.0000 0.0000 0.0000 0.0000 38.3299
#
#
#
# Elastic Compliance Matrix: (Units=1/GPa)
#
#
# Indices 1 2 3 4 5 6 
#
# 1 0.014569 -0.000888 -0.000518 0.000000 0.000000 0.000000
# 2 -0.000888 0.030619 0.005453 0.000000 0.000000 0.000000
# 3 -0.000518 0.005453 0.019400 0.000000 0.000000 0.000000
# 4 0.000000 0.000000 0.000000 0.024791 0.000000 0.000000
# 5 0.000000 0.000000 0.000000 0.000000 0.176552 0.000000
# 6 0.000000 0.000000 0.000000 0.000000 0.000000 0.026089
#
#
# Mechanical properties :
#
#
# Convention : Reuss Voigt Hill
#
# Bulk Modulus (GPa) = 13.75838 16.04954 14.90396
# Shear Modulus (GPa) = 16.22570 27.80213 22.01392
#
# Velocity S-wave (km/s) = 2.68080 3.50915 3.12257
# Velocity P-wave (km/s) = 3.95931 4.85052 4.42740
#
# Compressibility (1/GPa) = 0.07268300
#
# Stress axis : x y z
#
# Youngs Moduli (GPa) = 68.63869 32.65946 51.54548
#
# Poissons Ratio (x) = 0.02899 0.02671
# Poissons Ratio (y) = 0.06093 -0.28108
# Poissons Ratio (z) = 0.03556 -0.17810
#
# Static dielectric constant tensor:
#      x y z
#    x 1.846010 0.000000 0.000000 
#    y 0.000000 1.825410 0.000000 
#    z 0.000000 0.000000 1.866140 
# 
# From -- ./inp_files/16323.got.cif
#   From: 2010.05.17/outbox.cif.g08.bks.cpg/sg65_9_cif.got.tgz:16323.got - 2010.06.03 17:01:31.
