data_PCOD9488824
_publ_section_title
;
Structure prediction by ZEFSAII (Michael W. Deem and Ramdas Pophale) SiO2 
 PCOD9488824
Probable space group: C M M M
;
_chemical_formula_sum "Si O2"
_cell_formula_units_Z 104
_cell_length_a 23.134391
_cell_length_b 28.248587
_cell_length_c 9.362853
_cell_angle_alpha 90.000000
_cell_angle_beta 90.000000
_cell_angle_gamma 90.000000
_cell_volume 6118.754175
_symmetry_space_group_name_H-M "C M M M"
_symmetry_group_IT_number 65
_symmetry_cell_setting 'orthorhombic'
loop_
_space_group_symop_operation_xyz
x,y,z
-x,-y,z
x,-y,-z
-x,y,-z
-x,-y,-z
x,y,-z
-x,y,z
x,-y,z
1/2+x,1/2+y,z
1/2-x,1/2-y,z
1/2+x,1/2-y,-z
1/2-x,1/2+y,-z
1/2-x,1/2-y,-z
1/2+x,1/2+y,-z
1/2-x,1/2+y,z
1/2+x,1/2-y,z
loop_
_atom_site_type_symbol
_atom_site_label
_atom_site_fract_x
_atom_site_fract_y
_atom_site_fract_z
Si Si1 0.933377 0.946031 0.673509
Si Si2 0.566896 0.725891 0.166498
Si Si3 0.569493 0.907307 0.334666
Si Si4 0.371796 0.824961 0.164577
Si Si5 0.929613 0.500000 0.163091
Si Si6 0.366764 0.352469 0.328285
Si Si7 0.239822 0.804661 0.831967
O O1 0.933654 0.946064 0.500000
O O2 0.888758 0.904887 0.716132
O O3 0.000000 0.935590 0.717843
O O4 0.919343 0.000000 0.718989
O O5 0.500000 0.739274 0.185680
O O6 0.607031 0.771459 0.191435
O O7 0.585151 0.684133 0.271114
O O8 0.574502 0.711539 0.000000
O O9 0.584359 0.913345 0.500000
O O10 0.500000 0.903975 0.323765
O O11 0.597178 0.860721 0.269339
O O12 0.588756 0.952950 0.245232
O O13 0.302928 0.827855 0.178032
O O14 0.387967 0.835897 0.000000
O O15 0.000000 0.500000 0.163369
O O16 0.910140 0.500000 0.000000
O O17 0.362046 0.350994 0.500000
O O18 0.307933 0.333279 0.256127
O O19 0.250000 0.750000 0.785504
O O20 0.222563 0.802843 0.000000
#
# Coordination Sequence:
#
# PCOD9488824 Si02
#       7
#    16  16  16  16   8  16  16
#     4   8  15  30  52  78 109 143 176 212 261 323
#     4  10  20  34  52  75 106 142 176 212 259 316
#     4  10  20  33  51  78 111 139 165 211 273 321
#     4  10  20  35  55  74  96 136 184 222 255 309
#     4   9  17  31  53  77 101 135 177 211 244 305
#     4  11  21  32  53  82 109 136 174 223 271 320
#     4  10  20  38  58  73  98 140 185 221 257 307
#
# _framework density 16.996922999999999
#
# number of rings (size 3 to 8) (size 9 to 14) (size 15 to 20)
#    0.000    2.231    1.538    2.538    0.000    4.923 
#    0.000    0.000    1.692    1.846    0.000    5.385 
#    0.000    0.000    0.000    0.000    0.000    0.000 
#
# Total GULP energy -289970.681011 kJ/mol
# GULP energy per Si atom -5576.359250 kJ/mol
# Density = 1.695824 g / cm^3
# Si number density = 16.996923 Si / 1000 Ang^3
#
#
#
# Elastic Constant Matrix: (Units=GPa)
#
#
# Indices 1 2 3 4 5 6 
#
# 1 76.7918 44.6537 34.9814 0.0000 0.0000 0.0000
# 2 44.6537 109.7769 60.8246 0.0000 0.0000 0.0000
# 3 34.9814 60.8246 74.3338 0.0000 0.0000 0.0000
# 4 0.0000 0.0000 0.0000 25.3618 0.0000 0.0000
# 5 0.0000 0.0000 0.0000 0.0000 26.9775 0.0000
# 6 0.0000 0.0000 0.0000 0.0000 0.0000 17.4316
#
#
#
# Elastic Compliance Matrix: (Units=1/GPa)
#
#
# Indices 1 2 3 4 5 6 
#
# 1 0.017842 -0.004766 -0.004496 0.000000 0.000000 0.000000
# 2 -0.004766 0.017938 -0.012435 0.000000 0.000000 0.000000
# 3 -0.004496 -0.012435 0.025744 0.000000 0.000000 0.000000
# 4 0.000000 0.000000 0.000000 0.039429 0.000000 0.000000
# 5 0.000000 0.000000 0.000000 0.000000 0.037068 0.000000
# 6 0.000000 0.000000 0.000000 0.000000 0.000000 0.057367
#
#
# Mechanical properties :
#
#
# Convention : Reuss Voigt Hill
#
# Bulk Modulus (GPa) = 55.16128 60.20243 57.68186
# Shear Modulus (GPa) = 20.42260 21.98371 21.20315
#
# Velocity S-wave (km/s) = 3.47009 3.60028 3.53579
# Velocity P-wave (km/s) = 6.96990 7.26493 7.11894
#
# Compressibility (1/GPa) = 0.01812866
#
# Stress axis : x y z
#
# Youngs Moduli (GPa) = 56.04754 55.74727 38.84392
#
# Poissons Ratio (x) = 0.26570 0.17466
# Poissons Ratio (y) = 0.26713 0.48303
# Poissons Ratio (z) = 0.25201 0.69322
#
# Static dielectric constant tensor:
#      x y z
#    x 1.578670 0.000000 0.000000 
#    y 0.000000 1.568920 0.000000 
#    z 0.000000 0.000000 1.567540 
# 
# From -- ./inp_files/14744.got.cif
#   From: 2010.05.17/outbox.cif.g08.bks.cpg/sg65_8_cif.got.tgz:14744.got - 2010.06.03 17:01:31.
