data_PCOD9488885
_publ_section_title
;
Structure prediction by ZEFSAII (Michael W. Deem and Ramdas Pophale) SiO2 
 PCOD9488885
Probable space group: C M M M
;
_chemical_formula_sum "Si O2"
_cell_formula_units_Z 104
_cell_length_a 8.774101
_cell_length_b 22.355139
_cell_length_c 31.664655
_cell_angle_alpha 90.000000
_cell_angle_beta 90.000000
_cell_angle_gamma 90.000000
_cell_volume 6210.903255
_symmetry_space_group_name_H-M "C M M M"
_symmetry_group_IT_number 65
_symmetry_cell_setting 'orthorhombic'
loop_
_space_group_symop_operation_xyz
x,y,z
-x,-y,z
x,-y,-z
-x,y,-z
-x,-y,-z
x,y,-z
-x,y,z
x,-y,z
1/2+x,1/2+y,z
1/2-x,1/2-y,z
1/2+x,1/2-y,-z
1/2-x,1/2+y,-z
1/2-x,1/2-y,-z
1/2+x,1/2+y,-z
1/2-x,1/2+y,z
1/2+x,1/2-y,z
loop_
_atom_site_type_symbol
_atom_site_label
_atom_site_fract_x
_atom_site_fract_y
_atom_site_fract_z
Si Si1 0.672415 0.071903 0.500000
Si Si2 0.817318 0.378934 0.918567
Si Si3 0.317894 0.683276 0.745403
Si Si4 0.817549 0.683192 0.169335
Si Si5 0.816080 0.817963 0.649697
Si Si6 0.816215 0.070166 0.409751
Si Si7 0.817078 0.000000 0.949937
Si Si8 0.181595 0.185140 0.000000
O O1 0.500000 0.096155 0.500000
O O2 0.759103 0.086261 0.456764
O O3 0.662706 0.000000 0.500000
O O4 0.776472 0.352184 0.873041
O O5 0.752015 0.444086 0.925952
O O6 0.744024 0.343873 0.957429
O O7 0.000000 0.377609 0.922328
O O8 0.500000 0.684730 0.749772
O O9 0.250000 0.750000 0.745975
O O10 0.246898 0.654512 0.787396
O O11 0.280558 0.662265 0.698070
O O12 0.750000 0.750000 0.165281
O O13 0.000000 0.687179 0.172485
O O14 0.750000 0.750000 0.642264
O O15 0.767243 0.874047 0.620177
O O16 0.000000 0.812144 0.646249
O O17 0.000000 0.068992 0.408829
O O18 0.767431 0.000000 0.400254
O O19 0.000000 0.000000 0.948734
O O20 0.773666 0.000000 0.000000
O O21 0.250000 0.250000 0.000000
O O22 0.000000 0.182969 0.000000
#
# Coordination Sequence:
#
# PCOD9488885 Si02
#       8
#     8  16  16  16  16  16   8   8
#     4   9  17  29  46  71 100 129 167 213 256 303
#     4  11  23  38  57  78 102 135 169 205 248 296
#     4   9  16  28  48  72 100 131 164 203 246 293
#     4  10  20  33  52  79 105 133 166 202 248 296
#     4   9  18  31  49  75 102 133 171 211 255 304
#     4   9  17  31  51  72  97 132 171 211 254 305
#     4  11  23  39  59  81 100 130 172 210 244 289
#     4  12  24  37  54  79 108 134 162 202 250 300
#
# _framework density 16.744747
#
# number of rings (size 3 to 8) (size 9 to 14) (size 15 to 20)
#    0.000    2.154    0.769    3.923    0.000    6.154 
#    0.000    0.385    1.692    0.000    0.000    0.000 
#    0.000    0.000    0.000    0.000    0.000    0.000 
#
# Total GULP energy -289531.155816 kJ/mol
# GULP energy per Si atom -5567.906843 kJ/mol
# Density = 1.670663 g / cm^3
# Si number density = 16.744747 Si / 1000 Ang^3
#
#
#
# Elastic Constant Matrix: (Units=GPa)
#
#
# Indices 1 2 3 4 5 6 
#
# 1 47.2197 32.3196 53.1701 0.0000 0.0000 0.0000
# 2 32.3196 110.3900 84.3868 0.0000 0.0000 0.0000
# 3 53.1701 84.3868 180.7473 0.0000 0.0000 0.0000
# 4 0.0000 0.0000 0.0000 45.0020 0.0000 0.0000
# 5 0.0000 0.0000 0.0000 0.0000 23.1268 0.0000
# 6 0.0000 0.0000 0.0000 0.0000 0.0000 19.5087
#
#
#
# Elastic Compliance Matrix: (Units=1/GPa)
#
#
# Indices 1 2 3 4 5 6 
#
# 1 0.032481 -0.003429 -0.007954 0.000000 0.000000 0.000000
# 2 -0.003429 0.014448 -0.005737 0.000000 0.000000 0.000000
# 3 -0.007954 -0.005737 0.010551 0.000000 0.000000 0.000000
# 4 0.000000 0.000000 0.000000 0.022221 0.000000 0.000000
# 5 0.000000 0.000000 0.000000 0.000000 0.043240 0.000000
# 6 0.000000 0.000000 0.000000 0.000000 0.000000 0.051259
#
#
# Mechanical properties :
#
#
# Convention : Reuss Voigt Hill
#
# Bulk Modulus (GPa) = 43.02924 75.34554 59.18739
# Shear Modulus (GPa) = 23.12817 28.75953 25.94385
#
# Velocity S-wave (km/s) = 3.72051 4.14880 3.94048
# Velocity P-wave (km/s) = 6.64900 8.24889 7.49178
#
# Compressibility (1/GPa) = 0.02324001
#
# Stress axis : x y z
#
# Youngs Moduli (GPa) = 30.78730 69.21254 94.78085
#
# Poissons Ratio (x) = 0.23736 0.75386
# Poissons Ratio (y) = 0.10558 0.54373
# Poissons Ratio (z) = 0.24487 0.39705
#
# Static dielectric constant tensor:
#      x y z
#    x 1.566000 0.000000 0.000000 
#    y 0.000000 1.524200 0.000000 
#    z 0.000000 0.000000 1.561950 
# 
# From -- ./inp_files/77048.got.cif
#   From: 2010.05.17/outbox.cif.g08.bks.cpg/sg65_39_cif.got.tgz:77048.got - 2010.06.03 17:01:31.
