data_PCOD9488318
_publ_section_title
;
Structure prediction by ZEFSAII (Michael W. Deem and Ramdas Pophale) SiO2 
 PCOD9488318
Probable space group: C M M M
;
_chemical_formula_sum "Si O2"
_cell_formula_units_Z 60
_cell_length_a 14.588124
_cell_length_b 34.634410
_cell_length_c 7.777888
_cell_angle_alpha 90.000000
_cell_angle_beta 90.000000
_cell_angle_gamma 90.000000
_cell_volume 3929.786217
_symmetry_space_group_name_H-M "C M M M"
_symmetry_group_IT_number 65
_symmetry_cell_setting 'orthorhombic'
loop_
_space_group_symop_operation_xyz
x,y,z
-x,-y,z
x,-y,-z
-x,y,-z
-x,-y,-z
x,y,-z
-x,y,z
x,-y,z
1/2+x,1/2+y,z
1/2-x,1/2-y,z
1/2+x,1/2-y,-z
1/2-x,1/2+y,-z
1/2-x,1/2-y,-z
1/2+x,1/2+y,-z
1/2-x,1/2+y,z
1/2+x,1/2-y,z
loop_
_atom_site_type_symbol
_atom_site_label
_atom_site_fract_x
_atom_site_fract_y
_atom_site_fract_z
Si Si1 0.500000 0.289495 0.696554
Si Si2 0.000000 0.728454 0.000000
Si Si3 0.611259 0.500000 0.800360
Si Si4 0.792978 0.706347 0.000000
Si Si5 0.188996 0.164426 0.696348
Si Si6 0.106837 0.915482 0.209264
O O1 0.500000 0.275358 0.500000
O O2 0.409785 0.315219 0.721798
O O3 0.500000 0.255622 0.832796
O O4 0.097140 0.707050 0.000000
O O5 0.500000 0.500000 0.800283
O O6 0.636967 0.541882 0.728104
O O7 0.640681 0.500000 0.000000
O O8 0.750000 0.750000 0.000000
O O9 0.755637 0.683832 0.833485
O O10 0.218324 0.171022 0.500000
O O11 0.169559 0.119284 0.727684
O O12 0.000000 0.909284 0.261000
O O13 0.107537 0.915671 0.000000
#
# Coordination Sequence:
#
# PCOD9488318 Si02
#       6
#     8   4   8   8  16  16
#     4  10  20  32  52  77 101 129 165 206 241 286
#     4  12  24  40  56  72  94 122 166 210 264 302
#     4   7  12  22  37  67  99 136 172 201 235 276
#     4  12  24  38  56  73  95 127 165 211 257 299
#     4  11  21  33  51  77 103 133 171 205 241 290
#     4   9  15  25  46  69 102 139 173 204 237 281
#
# _framework density 15.268006
#
# number of rings (size 3 to 8) (size 9 to 14) (size 15 to 20)
#    0.000    2.000    5.333    1.600    0.000    1.600 
#    0.000    0.667    0.000    2.400    0.000    0.000 
#    0.000    2.133    0.000    2.400    0.000    0.000 
#
# Total GULP energy -167252.574878 kJ/mol
# GULP energy per Si atom -5575.085829 kJ/mol
# Density = 1.523325 g / cm^3
# Si number density = 15.268006 Si / 1000 Ang^3
#
#
#
# Elastic Constant Matrix: (Units=GPa)
#
#
# Indices 1 2 3 4 5 6 
#
# 1 78.0239 51.8036 52.3886 0.0000 0.0000 0.0000
# 2 51.8036 125.6946 57.2410 0.0000 0.0000 0.0000
# 3 52.3886 57.2410 78.3914 0.0000 0.0000 0.0000
# 4 0.0000 0.0000 0.0000 36.0085 0.0000 0.0000
# 5 0.0000 0.0000 0.0000 0.0000 5.6606 0.0000
# 6 0.0000 0.0000 0.0000 0.0000 0.0000 7.5271
#
#
#
# Elastic Compliance Matrix: (Units=1/GPa)
#
#
# Indices 1 2 3 4 5 6 
#
# 1 0.024495 -0.003956 -0.013481 0.000000 0.000000 0.000000
# 2 -0.003956 0.012558 -0.006526 0.000000 0.000000 0.000000
# 3 -0.013481 -0.006526 0.026531 0.000000 0.000000 0.000000
# 4 0.000000 0.000000 0.000000 0.027771 0.000000 0.000000
# 5 0.000000 0.000000 0.000000 0.000000 0.176661 0.000000
# 6 0.000000 0.000000 0.000000 0.000000 0.000000 0.132853
#
#
# Mechanical properties :
#
#
# Convention : Reuss Voigt Hill
#
# Bulk Modulus (GPa) = 63.86622 67.21958 65.54290
# Shear Modulus (GPa) = 11.01283 17.88434 14.44858
#
# Velocity S-wave (km/s) = 2.68862 3.42623 3.07959
# Velocity P-wave (km/s) = 7.18047 7.73137 7.46100
#
# Compressibility (1/GPa) = 0.01565773
#
# Stress axis : x y z
#
# Youngs Moduli (GPa) = 40.82450 79.62912 37.69129
#
# Poissons Ratio (x) = 0.31502 0.50813
# Poissons Ratio (y) = 0.16150 0.24598
# Poissons Ratio (z) = 0.55037 0.51967
#
# Static dielectric constant tensor:
#      x y z
#    x 1.480370 0.000000 0.000000 
#    y 0.000000 1.536840 0.000000 
#    z 0.000000 0.000000 1.542890 
# 
# From -- ./inp_files/4808.got.cif
#   From: 2010.05.17/outbox.cif.g08.bks.cpg/sg65_3_cif.got.tgz:4808.got - 2010.06.03 17:01:31.
