data_PCOD9488159
_publ_section_title
;
Structure prediction by ZEFSAII (Michael W. Deem and Ramdas Pophale) SiO2 
 PCOD9488159
Probable space group: C M M M
;
_chemical_formula_sum "Si O2"
_cell_formula_units_Z 96
_cell_length_a 7.467267
_cell_length_b 31.276329
_cell_length_c 19.752372
_cell_angle_alpha 90.000000
_cell_angle_beta 90.000000
_cell_angle_gamma 90.000000
_cell_volume 4613.140791
_symmetry_space_group_name_H-M "C M M M"
_symmetry_group_IT_number 65
_symmetry_cell_setting 'orthorhombic'
loop_
_space_group_symop_operation_xyz
x,y,z
-x,-y,z
x,-y,-z
-x,y,-z
-x,-y,-z
x,y,-z
-x,y,z
x,-y,z
1/2+x,1/2+y,z
1/2-x,1/2-y,z
1/2+x,1/2-y,-z
1/2-x,1/2+y,-z
1/2-x,1/2-y,-z
1/2+x,1/2+y,-z
1/2-x,1/2+y,z
1/2+x,1/2-y,z
loop_
_atom_site_type_symbol
_atom_site_label
_atom_site_fract_x
_atom_site_fract_y
_atom_site_fract_z
Si Si1 0.785847 0.700835 0.423334
Si Si2 0.788921 0.372878 0.826548
Si Si3 0.215915 0.951252 0.923411
Si Si4 0.280212 0.124884 0.673095
Si Si5 0.218146 0.548670 0.576854
Si Si6 0.714587 0.798700 0.076827
O O1 0.716469 0.693664 0.500000
O O2 0.750000 0.750000 0.404849
O O3 0.721449 0.666613 0.368802
O O4 0.000000 0.695653 0.426661
O O5 0.771162 0.416659 0.868400
O O6 0.717233 0.375425 0.750458
O O7 0.713888 0.334293 0.872082
O O8 0.000000 0.364200 0.819011
O O9 0.000000 0.951694 0.924377
O O10 0.275246 0.000000 0.909298
O O11 0.275724 0.939725 0.000000
O O12 0.500000 0.124496 0.673536
O O13 0.222690 0.083145 0.631353
O O14 0.272277 0.559963 0.500000
O O15 0.274692 0.500000 0.590951
O O16 0.000000 0.548778 0.577112
O O17 0.500000 0.803815 0.073348
O O18 0.750000 0.750000 0.098349
O O19 0.784128 0.804080 0.000000
#
# Coordination Sequence:
#
# PCOD9488159 Si02
#       6
#    16  16  16  16  16  16
#     4   9  17  30  48  68  92 125 164 203 240 279
#     4  10  20  32  48  73 102 127 154 195 245 291
#     4   9  19  36  55  73  95 126 163 198 232 279
#     4   9  17  28  42  64  95 126 153 186 234 285
#     4   8  13  22  38  60  86 118 155 190 222 262
#     4   9  18  32  48  66  89 118 153 191 230 275
#
# _framework density 20.810119
#
# number of rings (size 3 to 8) (size 9 to 14) (size 15 to 20)
#    0.000    3.000    0.000    2.000    0.000    5.333 
#    0.000    5.000    0.000    0.000    0.000    0.000 
#    0.000    0.000    0.000   11.500    0.000   10.333 
#
# Total GULP energy -267911.008233 kJ/mol
# GULP energy per Si atom -5581.479338 kJ/mol
# Density = 2.076275 g / cm^3
# Si number density = 20.810119 Si / 1000 Ang^3
#
#
#
# Elastic Constant Matrix: (Units=GPa)
#
#
# Indices 1 2 3 4 5 6 
#
# 1 58.8173 -3.7361 4.6818 0.0000 0.0000 0.0000
# 2 -3.7361 170.1558 155.2359 0.0000 0.0000 0.0000
# 3 4.6818 155.2359 197.1967 0.0000 0.0000 0.0000
# 4 0.0000 0.0000 0.0000 20.0113 0.0000 0.0000
# 5 0.0000 0.0000 0.0000 0.0000 -24.1184 0.0000
# 6 0.0000 0.0000 0.0000 0.0000 0.0000 16.2310
#
#
#
# Elastic Compliance Matrix: (Units=1/GPa)
#
#
# Indices 1 2 3 4 5 6 
#
# 1 0.017374 0.002689 -0.002529 0.000000 0.000000 0.000000
# 2 0.002689 0.021270 -0.016808 0.000000 0.000000 0.000000
# 3 -0.002529 -0.016808 0.018363 0.000000 0.000000 0.000000
# 4 0.000000 0.000000 0.000000 0.049972 0.000000 0.000000
# 5 0.000000 0.000000 0.000000 0.000000 -0.041462 0.000000
# 6 0.000000 0.000000 0.000000 0.000000 0.000000 0.061610
#
#
# Mechanical properties :
#
#
# Convention : Reuss Voigt Hill
#
# Bulk Modulus (GPa) = 42.17610 82.05922 62.11766
# Shear Modulus (GPa) = 29.70403 20.42400 25.06402
#
# Velocity S-wave (km/s) = 3.78217 3.13620 3.47423
# Velocity P-wave (km/s) = 6.27568 7.25481 6.78294
#
# Compressibility (1/GPa) = 0.02371011
#
# Stress axis : x y z
#
# Youngs Moduli (GPa) = 57.55750 47.01378 54.45813
#
# Poissons Ratio (x) = -0.12642 0.13774
# Poissons Ratio (y) = -0.15477 0.91534
# Poissons Ratio (z) = 0.14558 0.79021
#
# Static dielectric constant tensor:
#      x y z
#    x 1.799290 0.000000 0.000000 
#    y 0.000000 1.710230 0.000000 
#    z 0.000000 0.000000 1.726630 
# 
# From -- ./inp_files/51682.got.cif
#   From: 2010.05.17/outbox.cif.g08.bks.cpg/sg65_26_cif.got.tgz:51682.got - 2010.06.03 17:01:31.
