data_PCOD9488076
_publ_section_title
;
Structure prediction by ZEFSAII (Michael W. Deem and Ramdas Pophale) SiO2 
 PCOD9488076
Probable space group: C M M M
;
_chemical_formula_sum "Si O2"
_cell_formula_units_Z 80
_cell_length_a 28.128282
_cell_length_b 14.402111
_cell_length_c 11.966888
_cell_angle_alpha 90.000000
_cell_angle_beta 90.000000
_cell_angle_gamma 90.000000
_cell_volume 4847.865784
_symmetry_space_group_name_H-M "C M M M"
_symmetry_group_IT_number 65
_symmetry_cell_setting 'orthorhombic'
loop_
_space_group_symop_operation_xyz
x,y,z
-x,-y,z
x,-y,-z
-x,y,-z
-x,-y,-z
x,y,-z
-x,y,z
x,-y,z
1/2+x,1/2+y,z
1/2-x,1/2-y,z
1/2+x,1/2-y,-z
1/2-x,1/2+y,-z
1/2-x,1/2-y,-z
1/2+x,1/2+y,-z
1/2-x,1/2+y,z
1/2+x,1/2-y,z
loop_
_atom_site_type_symbol
_atom_site_label
_atom_site_fract_x
_atom_site_fract_y
_atom_site_fract_z
Si Si1 0.813132 0.605878 0.271072
Si Si2 0.757276 0.639453 0.500000
Si Si3 0.943902 0.106869 0.866824
Si Si4 0.353053 0.605496 0.500000
Si Si5 0.279636 0.611245 0.129769
Si Si6 0.364414 0.706778 0.733038
O O1 0.829278 0.500000 0.253180
O O2 0.785857 0.611656 0.389652
O O3 0.772742 0.629327 0.179070
O O4 0.853429 0.683955 0.270897
O O5 0.750000 0.750000 0.500000
O O6 0.704320 0.600054 0.500000
O O7 0.910775 0.177198 0.801168
O O8 0.000000 0.119131 0.845075
O O9 0.931141 0.000000 0.836888
O O10 0.936531 0.115992 0.000000
O O11 0.371829 0.500000 0.500000
O O12 0.367104 0.661994 0.610349
O O13 0.287236 0.500000 0.137721
O O14 0.319072 0.660874 0.204594
O O15 0.283322 0.638173 0.000000
#
# Coordination Sequence:
#
# PCOD9488076 Si02
#       6
#    16   8  16   8  16  16
#     4  11  22  34  48  69 103 143 180 215 248 291
#     4  12  18  35  51  70 102 146 186 215 248 291
#     4   9  19  37  60  83 104 128 163 210 266 326
#     4  12  22  31  49  78 107 135 170 211 254 304
#     4  10  20  32  47  70 100 133 168 208 256 306
#     4  12  21  33  52  75 102 136 174 210 254 307
#
# _framework density 16.502106999999999
#
# number of rings (size 3 to 8) (size 9 to 14) (size 15 to 20)
#    0.000    1.200    4.000    4.500    0.000    4.000 
#    0.000    0.500    0.000    2.400    0.000    1.400 
#    0.000    3.200    0.000    0.000    0.000    0.000 
#
# Total GULP energy -223510.593175 kJ/mol
# GULP energy per Si atom -5587.764829 kJ/mol
# Density = 1.646455 g / cm^3
# Si number density = 16.502107 Si / 1000 Ang^3
#
#
#
# Elastic Constant Matrix: (Units=GPa)
#
#
# Indices 1 2 3 4 5 6 
#
# 1 54.1215 42.6514 25.3673 0.0000 0.0000 0.0000
# 2 42.6514 99.2406 39.2000 0.0000 0.0000 0.0000
# 3 25.3673 39.2000 86.5506 0.0000 0.0000 0.0000
# 4 0.0000 0.0000 0.0000 -9.1528 0.0000 0.0000
# 5 0.0000 0.0000 0.0000 0.0000 13.8141 0.0000
# 6 0.0000 0.0000 0.0000 0.0000 0.0000 20.7782
#
#
#
# Elastic Compliance Matrix: (Units=1/GPa)
#
#
# Indices 1 2 3 4 5 6 
#
# 1 0.028761 -0.010999 -0.003448 0.000000 0.000000 0.000000
# 2 -0.010999 0.016478 -0.004240 0.000000 0.000000 0.000000
# 3 -0.003448 -0.004240 0.014485 0.000000 0.000000 0.000000
# 4 0.000000 0.000000 0.000000 -0.109256 0.000000 0.000000
# 5 0.000000 0.000000 0.000000 0.000000 0.072390 0.000000
# 6 0.000000 0.000000 0.000000 0.000000 0.000000 0.048127
#
#
# Mechanical properties :
#
#
# Convention : Reuss Voigt Hill
#
# Bulk Modulus (GPa) = 44.74085 50.48333 47.61209
# Shear Modulus (GPa) = 43.17485 13.93417 28.55451
#
# Velocity S-wave (km/s) = 5.12055 2.90899 4.16427
# Velocity P-wave (km/s) = 7.88233 6.47622 7.21362
#
# Compressibility (1/GPa) = 0.02235094
#
# Stress axis : x y z
#
# Youngs Moduli (GPa) = 34.76943 60.68635 69.03839
#
# Poissons Ratio (x) = 0.66748 0.23805
# Poissons Ratio (y) = 0.38242 0.29269
# Poissons Ratio (z) = 0.11989 0.25728
#
# Static dielectric constant tensor:
#      x y z
#    x 1.520360 0.000000 0.000000 
#    y 0.000000 1.581470 0.000000 
#    z 0.000000 0.000000 1.557660 
# 
# From -- ./inp_files/30448.got.cif
#   From: 2010.05.17/outbox.cif.g08.bks.cpg/sg65_16_cif.got.tgz:30448.got - 2010.06.03 17:01:31.
