data_PCOD9488388
_publ_section_title
;
Structure prediction by ZEFSAII (Michael W. Deem and Ramdas Pophale) SiO2 
 PCOD9488388
Probable space group: C M M M
;
_chemical_formula_sum "Si O2"
_cell_formula_units_Z 120
_cell_length_a 29.066293
_cell_length_b 28.605408
_cell_length_c 8.760934
_cell_angle_alpha 90.000000
_cell_angle_beta 90.000000
_cell_angle_gamma 90.000000
_cell_volume 7284.306349
_symmetry_space_group_name_H-M "C M M M"
_symmetry_group_IT_number 65
_symmetry_cell_setting 'orthorhombic'
loop_
_space_group_symop_operation_xyz
x,y,z
-x,-y,z
x,-y,-z
-x,y,-z
-x,-y,-z
x,y,-z
-x,y,z
x,-y,z
1/2+x,1/2+y,z
1/2-x,1/2-y,z
1/2+x,1/2-y,-z
1/2-x,1/2+y,-z
1/2-x,1/2-y,-z
1/2+x,1/2+y,-z
1/2-x,1/2+y,z
1/2+x,1/2-y,z
loop_
_atom_site_type_symbol
_atom_site_label
_atom_site_fract_x
_atom_site_fract_y
_atom_site_fract_z
Si Si1 0.384462 0.635235 0.817390
Si Si2 0.052732 0.054516 0.315881
Si Si3 0.306192 0.206922 0.185156
Si Si4 0.053847 0.782948 0.318730
Si Si5 0.793358 0.815163 0.185817
Si Si6 0.443890 0.000000 0.823894
Si Si7 0.944710 0.403847 0.327026
Si Si8 0.091796 0.311858 0.181343
O O1 0.409401 0.589648 0.749778
O O2 0.415330 0.679591 0.769333
O O3 0.332516 0.648469 0.763560
O O4 0.383700 0.631091 0.000000
O O5 0.053930 0.057397 0.500000
O O6 0.000000 0.067124 0.269000
O O7 0.060292 0.000000 0.273958
O O8 0.259785 0.180722 0.236821
O O9 0.305959 0.261721 0.229973
O O10 0.354855 0.186119 0.230665
O O11 0.304381 0.206853 0.000000
O O12 0.061337 0.788024 0.500000
O O13 0.067471 0.731069 0.266034
O O14 0.000000 0.791052 0.287769
O O15 0.793891 0.816573 0.000000
O O16 0.428262 0.953109 0.739944
O O17 0.500000 0.000000 0.821202
O O18 0.429793 0.000000 0.000000
O O19 0.928301 0.396587 0.500000
O O20 0.931016 0.360638 0.222797
O O21 0.000000 0.405970 0.331096
O O22 0.089795 0.303001 0.000000
#
# Coordination Sequence:
#
# PCOD9488388 Si02
#       8
#    16  16  16  16  16   8  16  16
#     4  11  20  31  51  78 100 123 161 208 250 287
#     4   9  19  36  54  71  97 135 171 200 241 301
#     4   8  14  27  47  69  96 127 158 195 239 286
#     4  11  23  35  45  62  97 141 171 192 231 292
#     4   8  14  27  47  71  97 124 155 194 242 290
#     4   9  17  31  51  73  93 117 159 209 241 267
#     4  10  20  33  48  68  98 134 163 191 239 297
#     4  11  20  31  49  73  96 124 165 208 243 277
#
# _framework density 16.473772
#
# number of rings (size 3 to 8) (size 9 to 14) (size 15 to 20)
#    0.000    2.333    1.333    3.800    0.000    6.400 
#    0.000    0.667    0.000    4.000    1.733    0.000 
#    0.000    0.000    0.000    0.000    0.000    0.000 
#
# Total GULP energy -334430.814753 kJ/mol
# GULP energy per Si atom -5573.846913 kJ/mol
# Density = 1.643628 g / cm^3
# Si number density = 16.473772 Si / 1000 Ang^3
#
#
#
# Elastic Constant Matrix: (Units=GPa)
#
#
# Indices 1 2 3 4 5 6 
#
# 1 53.3530 14.1492 14.8570 0.0000 0.0000 0.0000
# 2 14.1492 60.5251 1.3344 0.0000 0.0000 0.0000
# 3 14.8570 1.3344 18.6142 0.0000 0.0000 0.0000
# 4 0.0000 0.0000 0.0000 26.4151 0.0000 0.0000
# 5 0.0000 0.0000 0.0000 0.0000 -4.1249 0.0000
# 6 0.0000 0.0000 0.0000 0.0000 0.0000 12.0877
#
#
#
# Elastic Compliance Matrix: (Units=1/GPa)
#
#
# Indices 1 2 3 4 5 6 
#
# 1 0.025865 -0.005600 -0.020243 0.000000 0.000000 0.000000
# 2 -0.005600 0.017761 0.003197 0.000000 0.000000 0.000000
# 3 -0.020243 0.003197 0.069650 0.000000 0.000000 0.000000
# 4 0.000000 0.000000 0.000000 0.037857 0.000000 0.000000
# 5 0.000000 0.000000 0.000000 0.000000 -0.242427 0.000000
# 6 0.000000 0.000000 0.000000 0.000000 0.000000 0.082728
#
#
# Mechanical properties :
#
#
# Convention : Reuss Voigt Hill
#
# Bulk Modulus (GPa) = 14.70949 21.46370 18.08659
# Shear Modulus (GPa) = 84.19063 13.68570 48.93817
#
# Velocity S-wave (km/s) = 7.15659 2.88541 5.45630
# Velocity P-wave (km/s) = 8.78849 4.91509 7.12024
#
# Compressibility (1/GPa) = 0.06798331
#
# Stress axis : x y z
#
# Youngs Moduli (GPa) = 38.66190 56.30379 14.35741
#
# Poissons Ratio (x) = 0.31532 0.29064
# Poissons Ratio (y) = 0.21652 -0.04590
# Poissons Ratio (z) = 0.78263 -0.17999
#
# Static dielectric constant tensor:
#      x y z
#    x 1.574250 0.000000 0.000000 
#    y 0.000000 1.530530 0.000000 
#    z 0.000000 0.000000 1.565300 
# 
# From -- ./inp_files/17063.got.cif
#   From: 2010.05.17/outbox.cif.g08.bks.cpg/sg65_9_cif.got.tgz:17063.got - 2010.06.03 17:01:31.
