data_PCOD9488825
_publ_section_title
;
Structure prediction by ZEFSAII (Michael W. Deem and Ramdas Pophale) SiO2 
 PCOD9488825
Probable space group: C M M M
;
_chemical_formula_sum "Si O2"
_cell_formula_units_Z 104
_cell_length_a 8.632571
_cell_length_b 24.551076
_cell_length_c 26.530905
_cell_angle_alpha 90.000000
_cell_angle_beta 90.000000
_cell_angle_gamma 90.000000
_cell_volume 5622.930999
_symmetry_space_group_name_H-M "C M M M"
_symmetry_group_IT_number 65
_symmetry_cell_setting 'orthorhombic'
loop_
_space_group_symop_operation_xyz
x,y,z
-x,-y,z
x,-y,-z
-x,y,-z
-x,-y,-z
x,y,-z
-x,y,z
x,-y,z
1/2+x,1/2+y,z
1/2-x,1/2-y,z
1/2+x,1/2-y,-z
1/2-x,1/2+y,-z
1/2-x,1/2-y,-z
1/2+x,1/2+y,-z
1/2-x,1/2+y,z
1/2+x,1/2-y,z
loop_
_atom_site_type_symbol
_atom_site_label
_atom_site_fract_x
_atom_site_fract_y
_atom_site_fract_z
Si Si1 0.686237 0.810929 0.200313
Si Si2 0.313680 0.690247 0.688693
Si Si3 0.315395 0.188862 0.500000
Si Si4 0.688479 0.500000 0.441251
Si Si5 0.820510 0.395555 0.114239
Si Si6 0.815569 0.000000 0.059367
Si Si7 0.326339 0.695495 0.940484
Si Si8 0.312738 0.618969 0.592866
O O1 0.500000 0.808134 0.197852
O O2 0.750000 0.750000 0.189337
O O3 0.742259 0.823255 0.256939
O O4 0.736132 0.859645 0.162414
O O5 0.500000 0.693431 0.692985
O O6 0.250000 0.750000 0.673919
O O7 0.272818 0.646020 0.646314
O O8 0.500000 0.191103 0.500000
O O9 0.250000 0.250000 0.500000
O O10 0.256313 0.156000 0.451319
O O11 0.500000 0.500000 0.441029
O O12 0.736851 0.500000 0.500000
O O13 0.737784 0.556335 0.415045
O O14 0.736044 0.448415 0.092796
O O15 0.792487 0.352176 0.070191
O O16 0.000000 0.408625 0.122415
O O17 0.000000 0.000000 0.055518
O O18 0.757667 0.000000 0.000000
O O19 0.500000 0.685241 0.920184
O O20 0.250000 0.750000 0.919796
O O21 0.341987 0.701650 0.000000
O O22 0.500000 0.620324 0.588188
#
# Coordination Sequence:
#
# PCOD9488825 Si02
#       8
#    16  16   8   8  16   8  16  16
#     4  10  21  37  59  86 116 148 186 231 285 343
#     4  10  20  34  56  83 113 147 187 233 285 343
#     4  12  24  35  52  79 111 146 186 234 289 350
#     4   9  16  32  59  80 105 147 186 225 271 324
#     4  11  23  38  58  83 110 146 188 232 281 337
#     4  11  25  43  62  85 114 152 195 239 287 338
#     4  10  20  33  51  78 111 144 178 221 274 331
#     4  10  20  36  57  82 111 148 192 235 284 341
#
# _framework density 18.495691000000001
#
# number of rings (size 3 to 8) (size 9 to 14) (size 15 to 20)
#    0.000    1.692    0.769    5.077    0.000    9.538 
#    0.000    1.538    0.000    0.923    0.000    0.000 
#    0.000    0.000    0.000    0.000    0.000    0.000 
#
# Total GULP energy -290042.453993 kJ/mol
# GULP energy per Si atom -5577.739500 kJ/mol
# Density = 1.845359 g / cm^3
# Si number density = 18.495691 Si / 1000 Ang^3
#
#
#
# Elastic Constant Matrix: (Units=GPa)
#
#
# Indices 1 2 3 4 5 6 
#
# 1 39.5088 35.9921 44.2726 0.0000 0.0000 0.0000
# 2 35.9921 175.8050 87.0399 0.0000 0.0000 0.0000
# 3 44.2726 87.0399 146.0515 0.0000 0.0000 0.0000
# 4 0.0000 0.0000 0.0000 44.3401 0.0000 0.0000
# 5 0.0000 0.0000 0.0000 0.0000 52.9234 0.0000
# 6 0.0000 0.0000 0.0000 0.0000 0.0000 25.9062
#
#
#
# Elastic Compliance Matrix: (Units=1/GPa)
#
#
# Indices 1 2 3 4 5 6 
#
# 1 0.039458 -0.003059 -0.010138 0.000000 0.000000 0.000000
# 2 -0.003059 0.008306 -0.004023 0.000000 0.000000 0.000000
# 3 -0.010138 -0.004023 0.012317 0.000000 0.000000 0.000000
# 4 0.000000 0.000000 0.000000 0.022553 0.000000 0.000000
# 5 0.000000 0.000000 0.000000 0.000000 0.018895 0.000000
# 6 0.000000 0.000000 0.000000 0.000000 0.000000 0.038601
#
#
# Mechanical properties :
#
#
# Convention : Reuss Voigt Hill
#
# Bulk Modulus (GPa) = 38.99840 77.33048 58.16444
# Shear Modulus (GPa) = 27.30504 37.57131 32.43818
#
# Velocity S-wave (km/s) = 3.84642 4.51194 4.19241
# Velocity P-wave (km/s) = 6.39199 8.30929 7.41289
#
# Compressibility (1/GPa) = 0.02564208
#
# Stress axis : x y z
#
# Youngs Moduli (GPa) = 25.34359 120.39510 81.18624
#
# Poissons Ratio (x) = 0.36827 0.82306
# Poissons Ratio (y) = 0.07752 0.32659
# Poissons Ratio (z) = 0.25693 0.48432
#
# Static dielectric constant tensor:
#      x y z
#    x 1.658320 0.000000 0.000000 
#    y 0.000000 1.663460 0.000000 
#    z 0.000000 0.000000 1.649960 
# 
# From -- ./inp_files/73645.got.cif
#   From: 2010.05.17/outbox.cif.g08.bks.cpg/sg65_37_cif.got.tgz:73645.got - 2010.06.03 17:01:31.
