data_PCOD9488138
_publ_section_title
;
Structure prediction by ZEFSAII (Michael W. Deem and Ramdas Pophale) SiO2 
 PCOD9488138
Probable space group: C M M M
;
_chemical_formula_sum "Si O2"
_cell_formula_units_Z 80
_cell_length_a 17.693482
_cell_length_b 28.592017
_cell_length_c 9.217153
_cell_angle_alpha 90.000000
_cell_angle_beta 90.000000
_cell_angle_gamma 90.000000
_cell_volume 4662.887082
_symmetry_space_group_name_H-M "C M M M"
_symmetry_group_IT_number 65
_symmetry_cell_setting 'orthorhombic'
loop_
_space_group_symop_operation_xyz
x,y,z
-x,-y,z
x,-y,-z
-x,y,-z
-x,-y,-z
x,y,-z
-x,y,z
x,-y,z
1/2+x,1/2+y,z
1/2-x,1/2-y,z
1/2+x,1/2-y,-z
1/2-x,1/2+y,-z
1/2-x,1/2-y,-z
1/2+x,1/2+y,-z
1/2-x,1/2+y,z
1/2+x,1/2-y,z
loop_
_atom_site_type_symbol
_atom_site_label
_atom_site_fract_x
_atom_site_fract_y
_atom_site_fract_z
Si Si1 0.415456 0.556648 0.834568
Si Si2 0.589312 0.788433 0.328810
Si Si3 0.678770 0.285757 0.164308
Si Si4 0.236873 0.055211 0.671590
Si Si5 0.701197 0.859966 0.825979
O O1 0.500000 0.573253 0.795359
O O2 0.418960 0.500000 0.838825
O O3 0.347633 0.567399 0.726800
O O4 0.398279 0.572288 0.000000
O O5 0.605583 0.791792 0.500000
O O6 0.500000 0.793067 0.305884
O O7 0.618965 0.738688 0.268286
O O8 0.635455 0.828616 0.244360
O O9 0.750000 0.250000 0.159510
O O10 0.719216 0.333677 0.208786
O O11 0.648935 0.289784 0.000000
O O12 0.243484 0.062837 0.500000
O O13 0.293181 0.088728 0.758750
O O14 0.249022 0.000000 0.701121
O O15 0.693708 0.860302 0.000000
#
# Coordination Sequence:
#
# PCOD9488138 Si02
#       5
#    16  16  16  16  16
#     4   8  14  26  44  64  87 118 157 200 244 290
#     4  10  20  33  52  79 107 133 162 200 250 305
#     4   8  16  31  50  73  98 125 160 199 240 290
#     4  10  20  32  48  72 101 134 173 217 262 304
#     4  10  20  34  53  75 100 134 173 210 250 297
#
# _framework density 17.156752999999998
#
# number of rings (size 3 to 8) (size 9 to 14) (size 15 to 20)
#    0.000    2.800    0.000    3.600    0.000    7.600 
#    0.000    3.000    0.000    1.800    0.000    4.200 
#    0.000    0.000    0.000    0.000    0.000    0.000 
#
# Total GULP energy -222841.365582 kJ/mol
# GULP energy per Si atom -5571.034140 kJ/mol
# Density = 1.711770 g / cm^3
# Si number density = 17.156753 Si / 1000 Ang^3
#
#
#
# Elastic Constant Matrix: (Units=GPa)
#
#
# Indices 1 2 3 4 5 6 
#
# 1 69.4622 36.0707 64.2815 0.0000 0.0000 0.0000
# 2 36.0707 77.2423 56.8511 0.0000 0.0000 0.0000
# 3 64.2815 56.8511 98.9250 0.0000 0.0000 0.0000
# 4 0.0000 0.0000 0.0000 23.5643 0.0000 0.0000
# 5 0.0000 0.0000 0.0000 0.0000 34.4595 0.0000
# 6 0.0000 0.0000 0.0000 0.0000 0.0000 17.1638
#
#
#
# Elastic Compliance Matrix: (Units=1/GPa)
#
#
# Indices 1 2 3 4 5 6 
#
# 1 0.036134 0.000706 -0.023886 0.000000 0.000000 0.000000
# 2 0.000706 0.022450 -0.013361 0.000000 0.000000 0.000000
# 3 -0.023886 -0.013361 0.033308 0.000000 0.000000 0.000000
# 4 0.000000 0.000000 0.000000 0.042437 0.000000 0.000000
# 5 0.000000 0.000000 0.000000 0.000000 0.029020 0.000000
# 6 0.000000 0.000000 0.000000 0.000000 0.000000 0.058262
#
#
# Mechanical properties :
#
#
# Convention : Reuss Voigt Hill
#
# Bulk Modulus (GPa) = 53.15902 62.22621 57.69261
# Shear Modulus (GPa) = 16.61347 20.93262 18.77304
#
# Velocity S-wave (km/s) = 3.11518 3.49675 3.31147
# Velocity P-wave (km/s) = 6.63255 7.25610 6.95132
#
# Compressibility (1/GPa) = 0.01881148
#
# Stress axis : x y z
#
# Youngs Moduli (GPa) = 27.67506 44.54314 30.02301
#
# Poissons Ratio (x) = -0.03146 0.71712
# Poissons Ratio (y) = -0.01955 0.40113
# Poissons Ratio (z) = 0.66103 0.59513
#
# Static dielectric constant tensor:
#      x y z
#    x 1.571220 0.000000 0.000000 
#    y 0.000000 1.610770 0.000000 
#    z 0.000000 0.000000 1.575280 
# 
# From -- ./inp_files/9651.got.cif
#   From: 2010.05.17/outbox.cif.g08.bks.cpg/sg65_5_cif.got.tgz:9651.got - 2010.06.03 17:01:31.
