data_PCOD9488246
_publ_section_title
;
Structure prediction by ZEFSAII (Michael W. Deem and Ramdas Pophale) SiO2 
 PCOD9488246
Probable space group: C M M M
;
_chemical_formula_sum "Si O2"
_cell_formula_units_Z 72
_cell_length_a 15.181249
_cell_length_b 8.862587
_cell_length_c 26.228883
_cell_angle_alpha 90.000000
_cell_angle_beta 90.000000
_cell_angle_gamma 90.000000
_cell_volume 3528.968736
_symmetry_space_group_name_H-M "C M M M"
_symmetry_group_IT_number 65
_symmetry_cell_setting 'orthorhombic'
loop_
_space_group_symop_operation_xyz
x,y,z
-x,-y,z
x,-y,-z
-x,y,-z
-x,-y,-z
x,y,-z
-x,y,z
x,-y,z
1/2+x,1/2+y,z
1/2-x,1/2-y,z
1/2+x,1/2-y,-z
1/2-x,1/2+y,-z
1/2-x,1/2-y,-z
1/2+x,1/2+y,-z
1/2-x,1/2+y,z
1/2+x,1/2-y,z
loop_
_atom_site_type_symbol
_atom_site_label
_atom_site_fract_x
_atom_site_fract_y
_atom_site_fract_z
Si Si1 0.500000 0.816661 0.441955
Si Si2 0.151981 0.318239 0.635592
Si Si3 0.607637 0.675850 0.943904
Si Si4 0.604322 0.833181 0.842238
Si Si5 0.653020 0.320894 0.739461
O O1 0.500000 0.761339 0.500000
O O2 0.413176 0.773889 0.410099
O O3 0.500000 0.000000 0.443371
O O4 0.157875 0.500000 0.638486
O O5 0.250000 0.250000 0.628943
O O6 0.113086 0.255381 0.688927
O O7 0.500000 0.679844 0.943375
O O8 0.632119 0.500000 0.939339
O O9 0.640481 0.766839 0.895023
O O10 0.634999 0.732468 0.000000
O O11 0.500000 0.847816 0.850063
O O12 0.614299 0.726101 0.793692
O O13 0.641451 0.000000 0.831028
O O14 0.654143 0.500000 0.733438
O O15 0.750000 0.250000 0.740743
#
# Coordination Sequence:
#
# PCOD9488246 Si02
#       5
#     8  16  16  16  16
#     4   9  20  38  61  89 121 159 198 235 284 343
#     4  10  20  37  60  86 117 155 196 240 289 344
#     4   8  14  26  44  67  98 135 175 220 270 323
#     4  10  20  32  49  76 107 138 177 223 273 328
#     4  11  22  37  56  78 107 142 181 225 278 335
#
# _framework density 20.402560000000001
#
# number of rings (size 3 to 8) (size 9 to 14) (size 15 to 20)
#    0.000    2.333    0.000    5.333    1.556    2.222 
#    0.000    3.889    0.000    5.333    0.000    0.000 
#    0.000    0.000    0.000    0.000    0.000    0.000 
#
# Total GULP energy -200870.175363 kJ/mol
# GULP energy per Si atom -5579.727093 kJ/mol
# Density = 2.035612 g / cm^3
# Si number density = 20.402560 Si / 1000 Ang^3
#
#
#
# Elastic Constant Matrix: (Units=GPa)
#
#
# Indices 1 2 3 4 5 6 
#
# 1 56.6735 23.2089 44.6614 0.0000 0.0000 0.0000
# 2 23.2089 113.4851 65.4634 0.0000 0.0000 0.0000
# 3 44.6614 65.4634 193.7117 0.0000 0.0000 0.0000
# 4 0.0000 0.0000 0.0000 -190.5393 0.0000 0.0000
# 5 0.0000 0.0000 0.0000 0.0000 -47.5727 0.0000
# 6 0.0000 0.0000 0.0000 0.0000 0.0000 18.0608
#
#
#
# Elastic Compliance Matrix: (Units=1/GPa)
#
#
# Indices 1 2 3 4 5 6 
#
# 1 0.021903 -0.001946 -0.004392 0.000000 0.000000 0.000000
# 2 -0.001946 0.011118 -0.003309 0.000000 0.000000 0.000000
# 3 -0.004392 -0.003309 0.007293 0.000000 0.000000 0.000000
# 4 0.000000 0.000000 0.000000 -0.005248 0.000000 0.000000
# 5 0.000000 0.000000 0.000000 0.000000 -0.021020 0.000000
# 6 0.000000 0.000000 0.000000 0.000000 0.000000 0.055368
#
#
# Mechanical properties :
#
#
# Convention : Reuss Voigt Hill
#
# Bulk Modulus (GPa) = 47.57162 70.05975 58.81569
# Shear Modulus (GPa) = 52.23851 -28.64113 11.79869
#
# Velocity S-wave (km/s) = 5.06552 -3.75080 2.40738
# Velocity P-wave (km/s) = 7.58813 3.95667 6.05124
#
# Compressibility (1/GPa) = 0.02102094
#
# Stress axis : x y z
#
# Youngs Moduli (GPa) = 45.65560 89.94196 137.11473
#
# Poissons Ratio (x) = 0.17500 0.60226
# Poissons Ratio (y) = 0.08883 0.45368
# Poissons Ratio (z) = 0.20054 0.29760
#
# Static dielectric constant tensor:
#      x y z
#    x 1.746850 0.000000 0.000000 
#    y 0.000000 1.713320 0.000000 
#    z 0.000000 0.000000 1.754010 
# 
# From -- ./inp_files/74623.got.cif
#   From: 2010.05.17/outbox.cif.g08.bks.cpg/sg65_38_cif.got.tgz:74623.got - 2010.06.03 17:01:31.
