data_PCOD9488797
_publ_section_title
;
Structure prediction by ZEFSAII (Michael W. Deem and Ramdas Pophale) SiO2 
 PCOD9488797
Probable space group: C M M M
;
_chemical_formula_sum "Si O2"
_cell_formula_units_Z 104
_cell_length_a 8.815504
_cell_length_b 29.091381
_cell_length_c 23.635670
_cell_angle_alpha 90.000000
_cell_angle_beta 90.000000
_cell_angle_gamma 90.000000
_cell_volume 6061.490136
_symmetry_space_group_name_H-M "C M M M"
_symmetry_group_IT_number 65
_symmetry_cell_setting 'orthorhombic'
loop_
_space_group_symop_operation_xyz
x,y,z
-x,-y,z
x,-y,-z
-x,y,-z
-x,-y,-z
x,y,-z
-x,y,z
x,-y,z
1/2+x,1/2+y,z
1/2-x,1/2-y,z
1/2+x,1/2-y,-z
1/2-x,1/2+y,-z
1/2-x,1/2-y,-z
1/2+x,1/2+y,-z
1/2-x,1/2+y,z
1/2+x,1/2-y,z
loop_
_atom_site_type_symbol
_atom_site_label
_atom_site_fract_x
_atom_site_fract_y
_atom_site_fract_z
Si Si1 0.817325 0.199140 0.500000
Si Si2 0.318671 0.052484 0.649915
Si Si3 0.320327 0.447376 0.774611
Si Si4 0.682344 0.138825 0.830375
Si Si5 0.681977 0.644462 0.612989
Si Si6 0.318181 0.199019 0.280526
Si Si7 0.682918 0.199897 0.935402
O O1 0.750000 0.250000 0.500000
O O2 0.772516 0.171422 0.443732
O O3 0.000000 0.202571 0.500000
O O4 0.500000 0.057227 0.647833
O O5 0.263786 0.059163 0.714624
O O6 0.241466 0.092325 0.613747
O O7 0.278442 0.000000 0.633756
O O8 0.500000 0.441604 0.765335
O O9 0.292792 0.500000 0.792906
O O10 0.259993 0.409605 0.817767
O O11 0.500000 0.132797 0.831256
O O12 0.718306 0.172478 0.777713
O O13 0.730565 0.163131 0.888488
O O14 0.500000 0.644663 0.617338
O O15 0.751310 0.670466 0.667083
O O16 0.500000 0.201377 0.285816
O O17 0.250000 0.250000 0.280079
O O18 0.500000 0.203056 0.933233
O O19 0.750000 0.250000 0.922215
O O20 0.726659 0.188108 0.000000
#
# Coordination Sequence:
#
# PCOD9488797 Si02
#       7
#     8  16  16  16  16  16  16
#     4  10  24  42  59  80 105 141 184 223 263 314
#     4  10  20  35  56  82 111 141 174 215 266 322
#     4  10  20  33  52  79 108 139 176 217 264 321
#     4  10  20  33  51  77 108 140 176 219 267 317
#     4  11  22  38  58  80 107 140 180 222 266 316
#     4  11  22  34  50  76 108 139 174 217 269 319
#     4   9  18  33  52  75 105 143 184 221 260 310
#
# _framework density 17.157496999999999
#
# number of rings (size 3 to 8) (size 9 to 14) (size 15 to 20)
#    0.000    1.846    1.538    2.769    0.000    5.538 
#    0.000    0.385    0.000    2.769    0.000    3.231 
#    0.000    0.000    0.000    0.000    0.000    0.000 
#
# Total GULP energy -290388.269282 kJ/mol
# GULP energy per Si atom -5584.389794 kJ/mol
# Density = 1.711845 g / cm^3
# Si number density = 17.157497 Si / 1000 Ang^3
#
#
#
# Elastic Constant Matrix: (Units=GPa)
#
#
# Indices 1 2 3 4 5 6 
#
# 1 38.7191 48.8134 37.8732 0.0000 0.0000 0.0000
# 2 48.8134 152.8704 77.6651 0.0000 0.0000 0.0000
# 3 37.8732 77.6651 103.1019 0.0000 0.0000 0.0000
# 4 0.0000 0.0000 0.0000 32.1836 0.0000 0.0000
# 5 0.0000 0.0000 0.0000 0.0000 20.4893 0.0000
# 6 0.0000 0.0000 0.0000 0.0000 0.0000 35.7551
#
#
#
# Elastic Compliance Matrix: (Units=1/GPa)
#
#
# Indices 1 2 3 4 5 6 
#
# 1 0.048907 -0.010513 -0.010046 0.000000 0.000000 0.000000
# 2 -0.010513 0.012857 -0.005823 0.000000 0.000000 0.000000
# 3 -0.010046 -0.005823 0.017776 0.000000 0.000000 0.000000
# 4 0.000000 0.000000 0.000000 0.031072 0.000000 0.000000
# 5 0.000000 0.000000 0.000000 0.000000 0.048806 0.000000
# 6 0.000000 0.000000 0.000000 0.000000 0.000000 0.027968
#
#
# Mechanical properties :
#
#
# Convention : Reuss Voigt Hill
#
# Bulk Modulus (GPa) = 37.34733 69.26607 53.30670
# Shear Modulus (GPa) = 20.07426 26.37493 23.22459
#
# Velocity S-wave (km/s) = 3.42424 3.92500 3.68314
# Velocity P-wave (km/s) = 6.11952 7.81020 7.01597
#
# Compressibility (1/GPa) = 0.02677567
#
# Stress axis : x y z
#
# Youngs Moduli (GPa) = 20.44683 77.78056 56.25566
#
# Poissons Ratio (x) = 0.81768 0.56517
# Poissons Ratio (y) = 0.21495 0.32758
# Poissons Ratio (z) = 0.20542 0.45292
#
# Static dielectric constant tensor:
#      x y z
#    x 1.566030 0.000000 0.000000 
#    y 0.000000 1.572310 0.000000 
#    z 0.000000 0.000000 1.565050 
# 
# From -- ./inp_files/60819.got.cif
#   From: 2010.05.17/outbox.cif.g08.bks.cpg/sg65_31_cif.got.tgz:60819.got - 2010.06.03 17:01:31.
