data_PCOD9488314
_publ_section_title
;
Structure prediction by ZEFSAII (Michael W. Deem and Ramdas Pophale) SiO2 
 PCOD9488314
Probable space group: C M M M
;
_chemical_formula_sum "Si O2"
_cell_formula_units_Z 88
_cell_length_a 23.305745
_cell_length_b 23.341174
_cell_length_c 7.790491
_cell_angle_alpha 90.000000
_cell_angle_beta 90.000000
_cell_angle_gamma 90.000000
_cell_volume 4237.898165
_symmetry_space_group_name_H-M "C M M M"
_symmetry_group_IT_number 65
_symmetry_cell_setting 'orthorhombic'
loop_
_space_group_symop_operation_xyz
x,y,z
-x,-y,z
x,-y,-z
-x,y,-z
-x,-y,-z
x,y,-z
-x,y,z
x,-y,z
1/2+x,1/2+y,z
1/2-x,1/2-y,z
1/2+x,1/2-y,-z
1/2-x,1/2+y,-z
1/2-x,1/2-y,-z
1/2+x,1/2+y,-z
1/2-x,1/2+y,z
1/2+x,1/2-y,z
loop_
_atom_site_type_symbol
_atom_site_label
_atom_site_fract_x
_atom_site_fract_y
_atom_site_fract_z
Si Si1 0.218542 0.936961 0.292577
Si Si2 0.374032 0.217586 0.803080
Si Si3 0.000000 0.855038 0.696440
Si Si4 0.654298 0.097112 0.204646
Si Si5 0.375240 0.651303 0.295606
Si Si6 0.000000 0.716618 0.304114
Si Si7 0.433359 0.000000 0.210484
O O1 0.219535 0.934355 0.500000
O O2 0.283739 0.930036 0.233209
O O3 0.176859 0.886793 0.228200
O O4 0.197091 0.000000 0.242210
O O5 0.344450 0.161821 0.722833
O O6 0.366292 0.280579 0.725707
O O7 0.441465 0.201537 0.789790
O O8 0.356355 0.223724 0.000000
O O9 0.062214 0.867263 0.776896
O O10 0.000000 0.877528 0.500000
O O11 0.000000 0.785768 0.686137
O O12 0.603409 0.055606 0.267816
O O13 0.644984 0.102823 0.000000
O O14 0.379002 0.641709 0.500000
O O15 0.000000 0.694963 0.500000
O O16 0.500000 0.000000 0.264047
O O17 0.432979 0.000000 0.000000
#
# Coordination Sequence:
#
# PCOD9488314 Si02
#       7
#    16  16   8  16  16   8   8
#     4  10  21  37  56  77 105 141 183 228 273 326
#     4  10  20  32  51  82 111 138 179 231 272 315
#     4   7  12  27  50  73  98 129 168 204 244 310
#     4  10  21  36  56  79 106 142 183 225 272 324
#     4   9  18  34  55  78 107 144 179 218 274 331
#     4   9  17  31  51  75 109 149 179 208 263 332
#     4   9  18  34  57  79 103 140 183 224 266 317
#
# _framework density 20.765011000000001
#
# number of rings (size 3 to 8) (size 9 to 14) (size 15 to 20)
#    0.000    2.636    0.909    1.909    1.273    2.909 
#    0.000    4.091    0.000    3.273    0.000    0.000 
#    0.000    5.818    0.000    0.000    0.000    0.000 
#
# Total GULP energy -245192.477598 kJ/mol
# GULP energy per Si atom -5572.556309 kJ/mol
# Density = 2.071775 g / cm^3
# Si number density = 20.765011 Si / 1000 Ang^3
#
#
#
# Elastic Constant Matrix: (Units=GPa)
#
#
# Indices 1 2 3 4 5 6 
#
# 1 117.1850 70.9759 1.1658 0.0000 0.0000 0.0000
# 2 70.9759 113.1957 -0.1547 0.0000 0.0000 0.0000
# 3 1.1658 -0.1547 25.8408 0.0000 0.0000 0.0000
# 4 0.0000 0.0000 0.0000 12.5868 0.0000 0.0000
# 5 0.0000 0.0000 0.0000 0.0000 18.1608 0.0000
# 6 0.0000 0.0000 0.0000 0.0000 0.0000 356.1000
#
#
#
# Elastic Compliance Matrix: (Units=1/GPa)
#
#
# Indices 1 2 3 4 5 6 
#
# 1 0.013770 -0.008635 -0.000673 0.000000 0.000000 0.000000
# 2 -0.008635 0.014249 0.000475 0.000000 0.000000 0.000000
# 3 -0.000673 0.000475 0.038732 0.000000 0.000000 0.000000
# 4 0.000000 0.000000 0.000000 0.079448 0.000000 0.000000
# 5 0.000000 0.000000 0.000000 0.000000 0.055064 0.000000
# 6 0.000000 0.000000 0.000000 0.000000 0.000000 0.002808
#
#
# Mechanical properties :
#
#
# Convention : Reuss Voigt Hill
#
# Bulk Modulus (GPa) = 20.37289 44.46618 32.41954
# Shear Modulus (GPa) = 20.99962 89.65181 55.32572
#
# Velocity S-wave (km/s) = 3.18354 6.57786 5.16736
# Velocity P-wave (km/s) = 4.83174 8.89671 7.15881
#
# Compressibility (1/GPa) = 0.04908484
#
# Stress axis : x y z
#
# Youngs Moduli (GPa) = 72.62002 70.17877 25.81865
#
# Poissons Ratio (x) = 0.60601 0.01737
# Poissons Ratio (y) = 0.62709 -0.01226
# Poissons Ratio (z) = 0.04887 -0.03333
#
# Static dielectric constant tensor:
#      x y z
#    x 1.752660 0.000000 0.000000 
#    y 0.000000 1.753830 0.000000 
#    z 0.000000 0.000000 1.784470 
# 
# From -- ./inp_files/11904.got.cif
#   From: 2010.05.17/outbox.cif.g08.bks.cpg/sg65_6_cif.got.tgz:11904.got - 2010.06.03 17:01:31.
