data_PCOD9488375
_publ_section_title
;
Structure prediction by ZEFSAII (Michael W. Deem and Ramdas Pophale) SiO2 
 PCOD9488375
Probable space group: C M M M
;
_chemical_formula_sum "Si O2"
_cell_formula_units_Z 80
_cell_length_a 14.882074
_cell_length_b 8.850813
_cell_length_c 27.704942
_cell_angle_alpha 90.000000
_cell_angle_beta 90.000000
_cell_angle_gamma 90.000000
_cell_volume 3649.252129
_symmetry_space_group_name_H-M "C M M M"
_symmetry_group_IT_number 65
_symmetry_cell_setting 'orthorhombic'
loop_
_space_group_symop_operation_xyz
x,y,z
-x,-y,z
x,-y,-z
-x,y,-z
-x,-y,-z
x,y,-z
-x,y,z
x,-y,z
1/2+x,1/2+y,z
1/2-x,1/2-y,z
1/2+x,1/2-y,-z
1/2-x,1/2+y,-z
1/2-x,1/2-y,-z
1/2+x,1/2+y,-z
1/2-x,1/2+y,z
1/2+x,1/2-y,z
loop_
_atom_site_type_symbol
_atom_site_label
_atom_site_fract_x
_atom_site_fract_y
_atom_site_fract_z
Si Si1 0.892168 0.682174 0.051744
Si Si2 0.606007 0.333389 0.747197
Si Si3 0.349093 0.178950 0.350990
Si Si4 0.889816 0.676106 0.156269
Si Si5 0.149055 0.818937 0.447079
O O1 0.879585 0.500000 0.052366
O O2 0.859954 0.738819 0.103913
O O3 0.000000 0.706360 0.051110
O O4 0.857277 0.740752 0.000000
O O5 0.500000 0.349248 0.755449
O O6 0.644677 0.500000 0.736695
O O7 0.613746 0.227972 0.700669
O O8 0.642649 0.265059 0.796846
O O9 0.250000 0.250000 0.350437
O O10 0.393889 0.249729 0.398924
O O11 0.347219 0.000000 0.355813
O O12 0.864626 0.500000 0.160428
O O13 0.000000 0.678922 0.155874
O O14 0.108632 0.785574 0.500000
O O15 0.250000 0.750000 0.448806
O O16 0.153985 0.000000 0.442038
#
# Coordination Sequence:
#
# PCOD9488375 Si02
#       5
#    16  16  16  16  16
#     4   7   9  14  27  49  76 105 138 178 222 265
#     4  10  20  33  48  66  92 126 161 195 233 278
#     4  11  21  33  51  73  98 124 154 193 233 274
#     4   8  13  22  37  57  81 111 149 188 225 269
#     4   9  16  27  45  69  96 123 151 184 224 270
#
# _framework density 21.9223
#
# number of rings (size 3 to 8) (size 9 to 14) (size 15 to 20)
#    0.000    3.000    0.000    6.000    0.000    2.400 
#    0.000    0.000    0.000    1.200    0.000    8.400 
#    0.000    0.800    0.000    2.200    0.000    5.600 
#
# Total GULP energy -222901.086820 kJ/mol
# GULP energy per Si atom -5572.527171 kJ/mol
# Density = 2.187240 g / cm^3
# Si number density = 21.922300 Si / 1000 Ang^3
#
#
#
# Elastic Constant Matrix: (Units=GPa)
#
#
# Indices 1 2 3 4 5 6 
#
# 1 46.4532 5.1200 12.3781 0.0000 0.0000 0.0000
# 2 5.1200 109.4958 79.5203 0.0000 0.0000 0.0000
# 3 12.3781 79.5203 249.1355 0.0000 0.0000 0.0000
# 4 0.0000 0.0000 0.0000 25.1249 0.0000 0.0000
# 5 0.0000 0.0000 0.0000 0.0000 3.5024 0.0000
# 6 0.0000 0.0000 0.0000 0.0000 0.0000 5.7450
#
#
#
# Elastic Compliance Matrix: (Units=1/GPa)
#
#
# Indices 1 2 3 4 5 6 
#
# 1 0.021824 -0.000303 -0.000987 0.000000 0.000000 0.000000
# 2 -0.000303 0.011893 -0.003781 0.000000 0.000000 0.000000
# 3 -0.000987 -0.003781 0.005270 0.000000 0.000000 0.000000
# 4 0.000000 0.000000 0.000000 0.039801 0.000000 0.000000
# 5 0.000000 0.000000 0.000000 0.000000 0.285515 0.000000
# 6 0.000000 0.000000 0.000000 0.000000 0.000000 0.174065
#
#
# Mechanical properties :
#
#
# Convention : Reuss Voigt Hill
#
# Bulk Modulus (GPa) = 34.67081 66.56905 50.61993
# Shear Modulus (GPa) = 8.95857 27.41221 18.18539
#
# Velocity S-wave (km/s) = 2.02370 3.53997 2.88330
# Velocity P-wave (km/s) = 4.61629 6.86588 5.85024
#
# Compressibility (1/GPa) = 0.02884271
#
# Stress axis : x y z
#
# Youngs Moduli (GPa) = 45.82195 84.08431 189.76185
#
# Poissons Ratio (x) = 0.02550 0.18739
# Poissons Ratio (y) = 0.01390 0.71748
# Poissons Ratio (z) = 0.04525 0.31792
#
# Static dielectric constant tensor:
#      x y z
#    x 1.978680 0.000000 0.000000 
#    y 0.000000 1.763240 0.000000 
#    z 0.000000 0.000000 1.891700 
# 
# From -- ./inp_files/75024.got.cif
#   From: 2010.05.17/outbox.cif.g08.bks.cpg/sg65_38_cif.got.tgz:75024.got - 2010.06.03 17:01:31.
