data_PCOD9488376
_publ_section_title
;
Structure prediction by ZEFSAII (Michael W. Deem and Ramdas Pophale) SiO2 
 PCOD9488376
Probable space group: C M M M
;
_chemical_formula_sum "Si O2"
_cell_formula_units_Z 104
_cell_length_a 23.936343
_cell_length_b 14.867557
_cell_length_c 15.124665
_cell_angle_alpha 90.000000
_cell_angle_beta 90.000000
_cell_angle_gamma 90.000000
_cell_volume 5382.489309
_symmetry_space_group_name_H-M "C M M M"
_symmetry_group_IT_number 65
_symmetry_cell_setting 'orthorhombic'
loop_
_space_group_symop_operation_xyz
x,y,z
-x,-y,z
x,-y,-z
-x,y,-z
-x,-y,-z
x,y,-z
-x,y,z
x,-y,z
1/2+x,1/2+y,z
1/2-x,1/2-y,z
1/2+x,1/2-y,-z
1/2-x,1/2+y,-z
1/2-x,1/2-y,-z
1/2+x,1/2+y,-z
1/2-x,1/2+y,z
1/2+x,1/2-y,z
loop_
_atom_site_type_symbol
_atom_site_label
_atom_site_fract_x
_atom_site_fract_y
_atom_site_fract_z
Si Si1 0.663962 0.105014 0.098152
Si Si2 0.062164 0.389540 0.215975
Si Si3 0.893202 0.607965 0.597225
Si Si4 0.738966 0.856747 0.402838
Si Si5 0.621913 0.609592 0.102967
Si Si6 0.730488 0.352541 0.214394
Si Si7 0.500000 0.395429 0.107401
O O1 0.612228 0.143701 0.153645
O O2 0.721154 0.107495 0.152588
O O3 0.650467 0.000000 0.088169
O O4 0.670252 0.144742 0.000000
O O5 0.063902 0.500000 0.217121
O O6 0.074234 0.359424 0.316557
O O7 0.000000 0.363709 0.186866
O O8 0.910342 0.642569 0.500000
O O9 0.899726 0.500000 0.595275
O O10 0.827319 0.627222 0.608741
O O11 0.754702 0.893547 0.500000
O O12 0.750000 0.750000 0.407050
O O13 0.768443 0.891280 0.313870
O O14 0.621043 0.500000 0.104400
O O15 0.671759 0.640224 0.165586
O O16 0.560404 0.642685 0.132797
O O17 0.631378 0.634976 0.000000
O O18 0.750000 0.250000 0.222815
O O19 0.500000 0.500000 0.135883
O O20 0.500000 0.395797 0.000000
#
# Coordination Sequence:
#
# PCOD9488376 Si02
#       7
#    16  16  16  16  16  16   8
#     4  10  20  33  48  66  92 126 162 196 228 268
#     4   9  17  29  45  65  90 121 158 197 232 269
#     4   9  16  27  46  70  93 116 146 191 241 280
#     4   9  18  32  48  66  89 120 152 185 230 282
#     4   9  17  30  50  74  98 126 158 193 234 279
#     4  11  21  31  48  72  98 124 152 191 238 282
#     4   7  12  26  48  72  95 119 154 196 231 270
#
# _framework density 19.321916000000002
#
# number of rings (size 3 to 8) (size 9 to 14) (size 15 to 20)
#    0.000    2.692    1.538    1.846    0.000    3.692 
#    0.000    3.077    1.692    0.000    0.000    0.538 
#    0.000    1.846    0.000    0.000    0.000    0.000 
#
# Total GULP energy -289800.371964 kJ/mol
# GULP energy per Si atom -5573.084076 kJ/mol
# Density = 1.927794 g / cm^3
# Si number density = 19.321916 Si / 1000 Ang^3
#
#
#
# Elastic Constant Matrix: (Units=GPa)
#
#
# Indices 1 2 3 4 5 6 
#
# 1 155.3194 1.7439 90.2707 0.0000 0.0000 0.0000
# 2 1.7439 32.0432 5.1346 0.0000 0.0000 0.0000
# 3 90.2707 5.1346 156.4415 0.0000 0.0000 0.0000
# 4 0.0000 0.0000 0.0000 6.6327 0.0000 0.0000
# 5 0.0000 0.0000 0.0000 0.0000 21.8824 0.0000
# 6 0.0000 0.0000 0.0000 0.0000 0.0000 -0.7834
#
#
#
# Elastic Compliance Matrix: (Units=1/GPa)
#
#
# Indices 1 2 3 4 5 6 
#
# 1 0.009691 0.000371 -0.005604 0.000000 0.000000 0.000000
# 2 0.000371 0.031387 -0.001244 0.000000 0.000000 0.000000
# 3 -0.005604 -0.001244 0.009667 0.000000 0.000000 0.000000
# 4 0.000000 0.000000 0.000000 0.150769 0.000000 0.000000
# 5 0.000000 0.000000 0.000000 0.000000 0.045699 0.000000
# 6 0.000000 0.000000 0.000000 0.000000 0.000000 -1.276427
#
#
# Mechanical properties :
#
#
# Convention : Reuss Voigt Hill
#
# Bulk Modulus (GPa) = 26.46219 59.78918 43.12569
# Shear Modulus (GPa) = -4.98176 21.98997 8.50411
#
# Velocity S-wave (km/s) = -1.60745 3.37721 2.10020
# Velocity P-wave (km/s) = 3.20624 6.79840 5.31499
#
# Compressibility (1/GPa) = 0.03778977
#
# Stress axis : x y z
#
# Youngs Moduli (GPa) = 103.18423 31.86028 103.44629
#
# Poissons Ratio (x) = -0.01181 0.57975
# Poissons Ratio (y) = -0.03824 0.12869
# Poissons Ratio (z) = 0.57828 0.03963
#
# Static dielectric constant tensor:
#      x y z
#    x 1.662820 0.000000 0.000000 
#    y 0.000000 1.714030 0.000000 
#    z 0.000000 0.000000 1.721620 
# 
# From -- ./inp_files/45954.got.cif
#   From: 2010.05.17/outbox.cif.g08.bks.cpg/sg65_23_cif.got.tgz:45954.got - 2010.06.03 17:01:31.
