data_PCOD9488508
_publ_section_title
;
Structure prediction by ZEFSAII (Michael W. Deem and Ramdas Pophale) SiO2 
 PCOD9488508
Probable space group: C M M M
;
_chemical_formula_sum "Si O2"
_cell_formula_units_Z 72
_cell_length_a 14.209670
_cell_length_b 29.562928
_cell_length_c 8.854922
_cell_angle_alpha 90.000000
_cell_angle_beta 90.000000
_cell_angle_gamma 90.000000
_cell_volume 3719.770773
_symmetry_space_group_name_H-M "C M M M"
_symmetry_group_IT_number 65
_symmetry_cell_setting 'orthorhombic'
loop_
_space_group_symop_operation_xyz
x,y,z
-x,-y,z
x,-y,-z
-x,y,-z
-x,-y,-z
x,y,-z
-x,y,z
x,-y,z
1/2+x,1/2+y,z
1/2-x,1/2-y,z
1/2+x,1/2-y,-z
1/2-x,1/2+y,-z
1/2-x,1/2-y,-z
1/2+x,1/2+y,-z
1/2-x,1/2+y,z
1/2+x,1/2-y,z
loop_
_atom_site_type_symbol
_atom_site_label
_atom_site_fract_x
_atom_site_fract_y
_atom_site_fract_z
Si Si1 0.107019 0.632532 0.184121
Si Si2 0.109219 0.000000 0.319208
Si Si3 0.293350 0.587507 0.180106
Si Si4 0.613971 0.674215 0.674216
Si Si5 0.114461 0.732804 0.825391
O O1 0.184897 0.596081 0.226844
O O2 0.138955 0.682858 0.234003
O O3 0.000000 0.623854 0.234109
O O4 0.105368 0.634704 0.000000
O O5 0.159961 0.955345 0.258143
O O6 0.111416 0.000000 0.500000
O O7 0.000000 0.000000 0.270441
O O8 0.347100 0.633309 0.226515
O O9 0.297113 0.581802 0.000000
O O10 0.641374 0.667832 0.500000
O O11 0.500000 0.673442 0.681839
O O12 0.645603 0.723301 0.734246
O O13 0.000000 0.732862 0.825175
O O14 0.143938 0.737008 0.000000
#
# Coordination Sequence:
#
# PCOD9488508 Si02
#       5
#    16   8  16  16  16
#     4   8  16  33  56  82 112 144 179 221 267 312
#     4  11  25  45  64  81 108 142 171 211 272 331
#     4  11  22  36  59  86 107 135 180 228 270 318
#     4  10  20  33  49  74 112 152 185 222 271 323
#     4   8  14  28  51  76 105 144 186 224 261 307
#
# _framework density 19.356031000000002
#
# number of rings (size 3 to 8) (size 9 to 14) (size 15 to 20)
#    0.000    2.556    0.000    3.667    0.000    5.778 
#    0.000    7.222    0.000    8.667    0.000    0.000 
#    0.000    0.000    0.000    0.000    0.000    0.000 
#
# Total GULP energy -200993.334363 kJ/mol
# GULP energy per Si atom -5583.148177 kJ/mol
# Density = 1.931198 g / cm^3
# Si number density = 19.356031 Si / 1000 Ang^3
#
#
#
# Elastic Constant Matrix: (Units=GPa)
#
#
# Indices 1 2 3 4 5 6 
#
# 1 114.8281 79.6327 28.9398 0.0000 0.0000 0.0000
# 2 79.6327 138.1362 31.5952 0.0000 0.0000 0.0000
# 3 28.9398 31.5952 39.3688 0.0000 0.0000 0.0000
# 4 0.0000 0.0000 0.0000 102.7839 0.0000 0.0000
# 5 0.0000 0.0000 0.0000 0.0000 9.9368 0.0000
# 6 0.0000 0.0000 0.0000 0.0000 0.0000 35.2978
#
#
#
# Elastic Compliance Matrix: (Units=1/GPa)
#
#
# Indices 1 2 3 4 5 6 
#
# 1 0.015304 -0.007654 -0.005107 0.000000 0.000000 0.000000
# 2 -0.007654 0.012695 -0.004562 0.000000 0.000000 0.000000
# 3 -0.005107 -0.004562 0.032816 0.000000 0.000000 0.000000
# 4 0.000000 0.000000 0.000000 0.009729 0.000000 0.000000
# 5 0.000000 0.000000 0.000000 0.000000 0.100636 0.000000
# 6 0.000000 0.000000 0.000000 0.000000 0.000000 0.028330
#
#
# Mechanical properties :
#
#
# Convention : Reuss Voigt Hill
#
# Bulk Modulus (GPa) = 38.21318 63.62982 50.92150
# Shear Modulus (GPa) = 20.58634 39.74806 30.16720
#
# Velocity S-wave (km/s) = 3.26477 4.53650 3.95212
# Velocity P-wave (km/s) = 5.83067 7.77075 6.86954
#
# Compressibility (1/GPa) = 0.02616898
#
# Stress axis : x y z
#
# Youngs Moduli (GPa) = 65.34226 78.76986 30.47303
#
# Poissons Ratio (x) = 0.60293 0.15562
# Poissons Ratio (y) = 0.50015 0.13901
# Poissons Ratio (z) = 0.33370 0.35933
#
# Static dielectric constant tensor:
#      x y z
#    x 1.727920 0.000000 0.000000 
#    y 0.000000 1.644060 0.000000 
#    z 0.000000 0.000000 1.647030 
# 
# From -- ./inp_files/7215.got.cif
#   From: 2010.05.17/outbox.cif.g08.bks.cpg/sg65_4_cif.got.tgz:7215.got - 2010.06.03 17:01:31.
