data_PCOD9488222
_publ_section_title
;
Structure prediction by ZEFSAII (Michael W. Deem and Ramdas Pophale) SiO2 
 PCOD9488222
Probable space group: C M M M
;
_chemical_formula_sum "Si O2"
_cell_formula_units_Z 88
_cell_length_a 26.081110
_cell_length_b 20.449942
_cell_length_c 9.485533
_cell_angle_alpha 90.000000
_cell_angle_beta 90.000000
_cell_angle_gamma 90.000000
_cell_volume 5059.177196
_symmetry_space_group_name_H-M "C M M M"
_symmetry_group_IT_number 65
_symmetry_cell_setting 'orthorhombic'
loop_
_space_group_symop_operation_xyz
x,y,z
-x,-y,z
x,-y,-z
-x,y,-z
-x,-y,-z
x,y,-z
-x,y,z
x,-y,z
1/2+x,1/2+y,z
1/2-x,1/2-y,z
1/2+x,1/2-y,-z
1/2-x,1/2+y,-z
1/2-x,1/2-y,-z
1/2+x,1/2+y,-z
1/2-x,1/2+y,z
1/2+x,1/2-y,z
loop_
_atom_site_type_symbol
_atom_site_label
_atom_site_fract_x
_atom_site_fract_y
_atom_site_fract_z
Si Si1 0.873699 0.771010 0.666634
Si Si2 0.836620 0.500000 0.838301
Si Si3 0.785175 0.873442 0.664439
Si Si4 0.288276 0.500000 0.839597
Si Si5 0.437620 0.500000 0.661175
Si Si6 0.561771 0.628507 0.163041
Si Si7 0.835655 0.628507 0.667286
O O1 0.886888 0.776428 0.500000
O O2 0.820331 0.810319 0.686385
O O3 0.914372 0.808383 0.762422
O O4 0.865218 0.695202 0.701174
O O5 0.774206 0.500000 0.838657
O O6 0.852142 0.565591 0.756180
O O7 0.853794 0.500000 0.000000
O O8 0.789272 0.892375 0.500000
O O9 0.725209 0.860114 0.692911
O O10 0.802910 0.934113 0.758730
O O11 0.306321 0.500000 0.000000
O O12 0.500000 0.500000 0.655462
O O13 0.418576 0.500000 0.500000
O O14 0.422902 0.564838 0.746359
O O15 0.500000 0.631843 0.165522
O O16 0.577925 0.622562 0.000000
O O17 0.841151 0.615433 0.500000
#
# Coordination Sequence:
#
# PCOD9488222 Si02
#       7
#    16   8  16   8   8  16  16
#     4  10  20  32  49  73  97 124 160 199 239 283
#     4   9  17  29  46  68  94 125 161 197 231 275
#     4   9  17  30  47  67  94 127 161 197 235 276
#     4   9  17  28  42  63  92 128 167 200 231 270
#     4   9  17  32  55  76  93 120 161 206 245 280
#     4  10  21  36  52  71  97 128 161 198 241 287
#     4   9  17  31  50  71  96 126 159 195 235 280
#
# _framework density 17.394134000000001
#
# number of rings (size 3 to 8) (size 9 to 14) (size 15 to 20)
#    0.000    2.636    0.000    1.909    0.000    8.727 
#    0.000    0.909    0.000    5.455    0.000    0.636 
#    0.000    5.091    0.000    0.000    0.000    0.000 
#
# Total GULP energy -245555.890951 kJ/mol
# GULP energy per Si atom -5580.815703 kJ/mol
# Density = 1.735454 g / cm^3
# Si number density = 17.394134 Si / 1000 Ang^3
#
#
#
# Elastic Constant Matrix: (Units=GPa)
#
#
# Indices 1 2 3 4 5 6 
#
# 1 31.8139 30.2849 34.9912 0.0000 0.0000 0.0000
# 2 30.2849 156.2311 98.9438 0.0000 0.0000 0.0000
# 3 34.9912 98.9438 112.9695 0.0000 0.0000 0.0000
# 4 0.0000 0.0000 0.0000 0.8690 0.0000 0.0000
# 5 0.0000 0.0000 0.0000 0.0000 18.8647 0.0000
# 6 0.0000 0.0000 0.0000 0.0000 0.0000 -171.3677
#
#
#
# Elastic Compliance Matrix: (Units=1/GPa)
#
#
# Indices 1 2 3 4 5 6 
#
# 1 0.047678 0.000248 -0.014985 0.000000 0.000000 0.000000
# 2 0.000248 0.014375 -0.012667 0.000000 0.000000 0.000000
# 3 -0.014985 -0.012667 0.024588 0.000000 0.000000 0.000000
# 4 0.000000 0.000000 0.000000 1.150765 0.000000 0.000000
# 5 0.000000 0.000000 0.000000 0.000000 0.053009 0.000000
# 6 0.000000 0.000000 0.000000 0.000000 0.000000 -0.005835
#
#
# Mechanical properties :
#
#
# Convention : Reuss Voigt Hill
#
# Bulk Modulus (GPa) = 31.41410 69.93938 50.67674
# Shear Modulus (GPa) = 3.70371 -21.20716 -8.75173
#
# Velocity S-wave (km/s) = 1.46079 -3.49551 -2.24552
# Velocity P-wave (km/s) = 4.57653 4.89943 4.74073
#
# Compressibility (1/GPa) = 0.03183284
#
# Stress axis : x y z
#
# Youngs Moduli (GPa) = 20.97383 69.56533 40.67035
#
# Poissons Ratio (x) = -0.01726 0.60946
# Poissons Ratio (y) = -0.00520 0.51518
# Poissons Ratio (z) = 0.31430 0.88119
#
# Static dielectric constant tensor:
#      x y z
#    x 1.597730 0.000000 0.000000 
#    y 0.000000 1.566690 0.000000 
#    z 0.000000 0.000000 1.586100 
# 
# From -- ./inp_files/12692.got.cif
#   From: 2010.05.17/outbox.cif.g08.bks.cpg/sg65_7_cif.got.tgz:12692.got - 2010.06.03 17:01:31.
