data_PCOD9488796
_publ_section_title
;
Structure prediction by ZEFSAII (Michael W. Deem and Ramdas Pophale) SiO2 
 PCOD9488796
Probable space group: C M M M
;
_chemical_formula_sum "Si O2"
_cell_formula_units_Z 64
_cell_length_a 11.891023
_cell_length_b 28.042862
_cell_length_c 7.992817
_cell_angle_alpha 90.000000
_cell_angle_beta 90.000000
_cell_angle_gamma 90.000000
_cell_volume 2665.271305
_symmetry_space_group_name_H-M "C M M M"
_symmetry_group_IT_number 65
_symmetry_cell_setting 'orthorhombic'
loop_
_space_group_symop_operation_xyz
x,y,z
-x,-y,z
x,-y,-z
-x,y,-z
-x,-y,-z
x,y,-z
-x,y,z
x,-y,z
1/2+x,1/2+y,z
1/2-x,1/2-y,z
1/2+x,1/2-y,-z
1/2-x,1/2+y,-z
1/2-x,1/2-y,-z
1/2+x,1/2+y,-z
1/2-x,1/2+y,z
1/2+x,1/2-y,z
loop_
_atom_site_type_symbol
_atom_site_label
_atom_site_fract_x
_atom_site_fract_y
_atom_site_fract_z
Si Si1 0.374663 0.442626 0.194668
Si Si2 0.623821 0.289160 0.192038
Si Si3 0.623362 0.920849 0.193682
Si Si4 0.154899 0.318475 0.309928
O O1 0.500000 0.427661 0.261963
O O2 0.378334 0.500000 0.192485
O O3 0.248675 0.431795 0.267109
O O4 0.371604 0.425329 0.000000
O O5 0.500000 0.308366 0.209209
O O6 0.710598 0.316162 0.305803
O O7 0.622716 0.233129 0.237539
O O8 0.660451 0.293992 0.000000
O O9 0.500000 0.937598 0.262625
O O10 0.618472 0.863540 0.204731
O O11 0.626614 0.936824 0.000000
O O12 0.117562 0.323043 0.500000
#
# Coordination Sequence:
#
# PCOD9488796 Si02
#       4
#    16  16  16  16
#     4   8  15  30  53  80 107 134 168 214 267 319
#     4  10  20  35  55  75  98 133 178 226 273 320
#     4  10  20  33  51  77 108 140 176 219 266 318
#     4  11  22  34  50  73 104 140 177 219 266 317
#
# _framework density 24.012566
#
# number of rings (size 3 to 8) (size 9 to 14) (size 15 to 20)
#    0.000    2.250    0.000    6.000    0.000    7.000 
#    0.000    5.000    0.000    0.750    0.000    3.500 
#    0.000    0.000    0.000    0.000    0.000    0.000 
#
# Total GULP energy -178341.980629 kJ/mol
# GULP energy per Si atom -5573.186895 kJ/mol
# Density = 2.395791 g / cm^3
# Si number density = 24.012566 Si / 1000 Ang^3
#
#
#
# Elastic Constant Matrix: (Units=GPa)
#
#
# Indices 1 2 3 4 5 6 
#
# 1 271.6168 20.5373 23.5282 0.0000 0.0000 0.0000
# 2 20.5373 59.3100 -1.4974 0.0000 0.0000 0.0000
# 3 23.5282 -1.4974 61.1883 0.0000 0.0000 0.0000
# 4 0.0000 0.0000 0.0000 -80.3353 0.0000 0.0000
# 5 0.0000 0.0000 0.0000 0.0000 -68.9445 0.0000
# 6 0.0000 0.0000 0.0000 0.0000 0.0000 11.8033
#
#
#
# Elastic Compliance Matrix: (Units=1/GPa)
#
#
# Indices 1 2 3 4 5 6 
#
# 1 0.003921 -0.001397 -0.001542 0.000000 0.000000 0.000000
# 2 -0.001397 0.017368 0.000962 0.000000 0.000000 0.000000
# 3 -0.001542 0.000962 0.016959 0.000000 0.000000 0.000000
# 4 0.000000 0.000000 0.000000 -0.012448 0.000000 0.000000
# 5 0.000000 0.000000 0.000000 0.000000 -0.014504 0.000000
# 6 0.000000 0.000000 0.000000 0.000000 0.000000 0.084722
#
#
# Mechanical properties :
#
#
# Convention : Reuss Voigt Hill
#
# Bulk Modulus (GPa) = 29.15795 53.02792 41.09294
# Shear Modulus (GPa) = 44.88219 -4.19214 20.34502
#
# Velocity S-wave (km/s) = 4.32801 -1.32273 2.91394
# Velocity P-wave (km/s) = 6.09465 4.44956 5.33588
#
# Compressibility (1/GPa) = 0.03429596
#
# Stress axis : x y z
#
# Youngs Moduli (GPa) = 255.04924 57.57569 58.96441
#
# Poissons Ratio (x) = 0.08041 0.09091
# Poissons Ratio (y) = 0.35620 -0.05673
# Poissons Ratio (z) = 0.39324 -0.05539
#
# Static dielectric constant tensor:
#      x y z
#    x 2.063030 0.000000 0.000000 
#    y 0.000000 1.869840 0.000000 
#    z 0.000000 0.000000 1.857710 
# 
# From -- ./inp_files/4881.got.cif
#   From: 2010.05.17/outbox.cif.g08.bks.cpg/sg65_3_cif.got.tgz:4881.got - 2010.06.03 17:01:31.
