data_PCOD9488499
_publ_section_title
;
Structure prediction by ZEFSAII (Michael W. Deem and Ramdas Pophale) SiO2 
 PCOD9488499
Probable space group: C M M M
;
_chemical_formula_sum "Si O2"
_cell_formula_units_Z 88
_cell_length_a 7.693585
_cell_length_b 18.573049
_cell_length_c 31.319552
_cell_angle_alpha 90.000000
_cell_angle_beta 90.000000
_cell_angle_gamma 90.000000
_cell_volume 4475.355117
_symmetry_space_group_name_H-M "C M M M"
_symmetry_group_IT_number 65
_symmetry_cell_setting 'orthorhombic'
loop_
_space_group_symop_operation_xyz
x,y,z
-x,-y,z
x,-y,-z
-x,y,-z
-x,-y,-z
x,y,-z
-x,y,z
x,-y,z
1/2+x,1/2+y,z
1/2-x,1/2-y,z
1/2+x,1/2-y,-z
1/2-x,1/2+y,-z
1/2-x,1/2-y,-z
1/2+x,1/2+y,-z
1/2-x,1/2+y,z
1/2+x,1/2-y,z
loop_
_atom_site_type_symbol
_atom_site_label
_atom_site_fract_x
_atom_site_fract_y
_atom_site_fract_z
Si Si1 0.790705 0.833789 0.131079
Si Si2 0.000000 0.087387 0.451443
Si Si3 0.711987 0.583624 0.047606
Si Si4 0.706234 0.165861 0.299311
Si Si5 0.206926 0.918886 0.213744
Si Si6 0.294750 0.086354 0.614800
O O1 0.750000 0.750000 0.134491
O O2 0.726037 0.867936 0.086710
O O3 0.723400 0.877048 0.172313
O O4 0.000000 0.840845 0.130686
O O5 0.828713 0.107541 0.424499
O O6 0.000000 0.114222 0.500000
O O7 0.000000 0.000000 0.453238
O O8 0.500000 0.585473 0.047525
O O9 0.760755 0.500000 0.054081
O O10 0.768834 0.605975 0.000000
O O11 0.500000 0.158410 0.299644
O O12 0.750000 0.250000 0.298825
O O13 0.768242 0.126154 0.256763
O O14 0.767719 0.126944 0.342548
O O15 0.000000 0.924744 0.207491
O O16 0.277432 0.000000 0.217636
O O17 0.500000 0.101523 0.607322
O O18 0.278920 0.000000 0.621292
#
# Coordination Sequence:
#
# PCOD9488499 Si02
#       6
#    16   8  16  16  16  16
#     4  10  20  33  49  73 104 135 170 214 263 322
#     4   9  18  32  56  88 116 148 189 235 286 336
#     4   8  14  27  49  73  95 125 170 220 265 312
#     4  11  23  37  55  81 109 144 181 223 270 325
#     4  10  21  36  55  77 103 137 176 220 270 323
#     4   9  19  35  55  82 114 148 188 236 284 334
#
# _framework density 19.663243000000001
#
# number of rings (size 3 to 8) (size 9 to 14) (size 15 to 20)
#    0.000    2.455    0.000    2.727    2.545    6.182 
#    0.000    1.818    0.000    2.182    0.000    1.273 
#    0.000    0.000    0.000    0.000    0.000    0.000 
#
# Total GULP energy -245585.079081 kJ/mol
# GULP energy per Si atom -5581.479070 kJ/mol
# Density = 1.961849 g / cm^3
# Si number density = 19.663243 Si / 1000 Ang^3
#
#
#
# Elastic Constant Matrix: (Units=GPa)
#
#
# Indices 1 2 3 4 5 6 
#
# 1 50.1031 21.9931 41.4062 0.0000 0.0000 0.0000
# 2 21.9931 116.2542 103.9112 0.0000 0.0000 0.0000
# 3 41.4062 103.9112 218.3861 0.0000 0.0000 0.0000
# 4 0.0000 0.0000 0.0000 -4.1944 0.0000 0.0000
# 5 0.0000 0.0000 0.0000 0.0000 -122.7034 0.0000
# 6 0.0000 0.0000 0.0000 0.0000 0.0000 17.9084
#
#
#
# Elastic Compliance Matrix: (Units=1/GPa)
#
#
# Indices 1 2 3 4 5 6 
#
# 1 0.023711 -0.000813 -0.004109 0.000000 0.000000 0.000000
# 2 -0.000813 0.014995 -0.006981 0.000000 0.000000 0.000000
# 3 -0.004109 -0.006981 0.008680 0.000000 0.000000 0.000000
# 4 0.000000 0.000000 0.000000 -0.238416 0.000000 0.000000
# 5 0.000000 0.000000 0.000000 0.000000 -0.008150 0.000000
# 6 0.000000 0.000000 0.000000 0.000000 0.000000 0.055840
#
#
# Mechanical properties :
#
#
# Convention : Reuss Voigt Hill
#
# Bulk Modulus (GPa) = 42.40741 79.92935 61.16838
# Shear Modulus (GPa) = -44.77332 -7.30236 -26.03784
#
# Velocity S-wave (km/s) = -4.77698 -1.92919 -3.64289
# Velocity P-wave (km/s) = 2.96856 5.98122 3.67169
#
# Compressibility (1/GPa) = 0.02358078
#
# Stress axis : x y z
#
# Youngs Moduli (GPa) = 42.17381 66.68754 115.21229
#
# Poissons Ratio (x) = 0.05423 0.47338
# Poissons Ratio (y) = 0.03430 0.80427
# Poissons Ratio (z) = 0.17328 0.46553
#
# Static dielectric constant tensor:
#      x y z
#    x 1.732140 0.000000 0.000000 
#    y 0.000000 1.652250 0.000000 
#    z 0.000000 0.000000 1.685320 
# 
# From -- ./inp_files/76706.got.cif
#   From: 2010.05.17/outbox.cif.g08.bks.cpg/sg65_39_cif.got.tgz:76706.got - 2010.06.03 17:01:31.
