data_PCOD9488627
_publ_section_title
;
Structure prediction by ZEFSAII (Michael W. Deem and Ramdas Pophale) SiO2 
 PCOD9488627
Probable space group: C M M M
;
_chemical_formula_sum "Si O2"
_cell_formula_units_Z 96
_cell_length_a 15.155380
_cell_length_b 18.710288
_cell_length_c 19.039031
_cell_angle_alpha 90.000000
_cell_angle_beta 90.000000
_cell_angle_gamma 90.000000
_cell_volume 5398.736656
_symmetry_space_group_name_H-M "C M M M"
_symmetry_group_IT_number 65
_symmetry_cell_setting 'orthorhombic'
loop_
_space_group_symop_operation_xyz
x,y,z
-x,-y,z
x,-y,-z
-x,y,-z
-x,-y,-z
x,y,-z
-x,y,z
x,-y,z
1/2+x,1/2+y,z
1/2-x,1/2-y,z
1/2+x,1/2-y,-z
1/2-x,1/2+y,-z
1/2-x,1/2-y,-z
1/2+x,1/2+y,-z
1/2-x,1/2+y,z
1/2+x,1/2-y,z
loop_
_atom_site_type_symbol
_atom_site_label
_atom_site_fract_x
_atom_site_fract_y
_atom_site_fract_z
Si Si1 0.238399 0.164432 0.818184
Si Si2 0.137316 0.919597 0.580173
Si Si3 0.903995 0.178970 0.704763
Si Si4 0.350301 0.082809 0.576989
Si Si5 0.398358 0.415698 0.084351
Si Si6 0.599353 0.848469 0.725021
O O1 0.250000 0.250000 0.831236
O O2 0.175000 0.151296 0.751646
O O3 0.181958 0.127558 0.879928
O O4 0.332115 0.136599 0.788278
O O5 0.107356 0.912749 0.500000
O O6 0.102439 0.857573 0.629465
O O7 0.243721 0.914778 0.579388
O O8 0.113919 0.000000 0.605216
O O9 0.894446 0.264156 0.706710
O O10 0.000000 0.161394 0.735018
O O11 0.377111 0.113938 0.500000
O O12 0.382722 0.115216 0.649911
O O13 0.376940 0.000000 0.576242
O O14 0.500000 0.393237 0.102948
O O15 0.390592 0.500000 0.102502
O O16 0.391939 0.409494 0.000000
O O17 0.500000 0.864881 0.747696
#
# Coordination Sequence:
#
# PCOD9488627 Si02
#       6
#    16  16  16  16  16  16
#     4  10  20  35  55  79 112 147 179 217 264 314
#     4   9  18  32  49  70  98 132 172 221 276 333
#     4  10  20  33  50  74 102 135 174 215 264 322
#     4   9  18  33  51  69  92 127 176 231 279 319
#     4   9  19  37  62  92 121 145 173 214 263 316
#     4  10  21  35  51  74 103 136 180 227 268 313
#
# _framework density 17.781938
#
# number of rings (size 3 to 8) (size 9 to 14) (size 15 to 20)
#    0.000    2.500    1.667    2.000    0.000    4.333 
#    0.000    5.000    0.000    0.500    0.000    1.167 
#    0.000    0.000    0.000    0.000    0.000    0.000 
#
# Total GULP energy -267257.411525 kJ/mol
# GULP energy per Si atom -5567.862740 kJ/mol
# Density = 1.774147 g / cm^3
# Si number density = 17.781938 Si / 1000 Ang^3
#
#
#
# Elastic Constant Matrix: (Units=GPa)
#
#
# Indices 1 2 3 4 5 6 
#
# 1 126.1642 41.3621 50.5118 0.0000 0.0000 0.0000
# 2 41.3621 23.4645 33.9320 0.0000 0.0000 0.0000
# 3 50.5118 33.9320 77.4901 0.0000 0.0000 0.0000
# 4 0.0000 0.0000 0.0000 27.8815 0.0000 0.0000
# 5 0.0000 0.0000 0.0000 0.0000 119.4383 0.0000
# 6 0.0000 0.0000 0.0000 0.0000 0.0000 15.1520
#
#
#
# Elastic Compliance Matrix: (Units=1/GPa)
#
#
# Indices 1 2 3 4 5 6 
#
# 1 0.019917 -0.044534 0.006518 0.000000 0.000000 0.000000
# 2 -0.044534 0.215777 -0.065456 0.000000 0.000000 0.000000
# 3 0.006518 -0.065456 0.037318 0.000000 0.000000 0.000000
# 4 0.000000 0.000000 0.000000 0.035866 0.000000 0.000000
# 5 0.000000 0.000000 0.000000 0.000000 0.008373 0.000000
# 6 0.000000 0.000000 0.000000 0.000000 0.000000 0.065998
#
#
# Mechanical properties :
#
#
# Convention : Reuss Voigt Hill
#
# Bulk Modulus (GPa) = 15.13611 53.19228 34.16419
# Shear Modulus (GPa) = 8.16706 39.24856 23.70781
#
# Velocity S-wave (km/s) = 2.14543 4.70320 3.65533
# Velocity P-wave (km/s) = 3.82984 7.71181 6.08850
#
# Compressibility (1/GPa) = 0.06606716
#
# Stress axis : x y z
#
# Youngs Moduli (GPa) = 50.20895 4.63442 26.79652
#
# Poissons Ratio (x) = 0.20639 -0.17467
# Poissons Ratio (y) = 2.23603 1.75400
# Poissons Ratio (z) = -0.32728 0.30335
#
# Static dielectric constant tensor:
#      x y z
#    x 1.655310 0.000000 0.000000 
#    y 0.000000 1.604800 0.000000 
#    z 0.000000 0.000000 1.602870 
# 
# From -- ./inp_files/40382.got.cif
#   From: 2010.05.17/outbox.cif.g08.bks.cpg/sg65_21_cif.got.tgz:40382.got - 2010.06.03 17:01:31.
