data_PCOD9488539
_publ_section_title
;
Structure prediction by ZEFSAII (Michael W. Deem and Ramdas Pophale) SiO2 
 PCOD9488539
Probable space group: C M M M
;
_chemical_formula_sum "Si O2"
_cell_formula_units_Z 80
_cell_length_a 18.864397
_cell_length_b 8.213354
_cell_length_c 28.594543
_cell_angle_alpha 90.000000
_cell_angle_beta 90.000000
_cell_angle_gamma 90.000000
_cell_volume 4430.437651
_symmetry_space_group_name_H-M "C M M M"
_symmetry_group_IT_number 65
_symmetry_cell_setting 'orthorhombic'
loop_
_space_group_symop_operation_xyz
x,y,z
-x,-y,z
x,-y,-z
-x,y,-z
-x,-y,-z
x,y,-z
-x,y,z
x,-y,z
1/2+x,1/2+y,z
1/2-x,1/2-y,z
1/2+x,1/2-y,-z
1/2-x,1/2+y,-z
1/2-x,1/2-y,-z
1/2+x,1/2+y,-z
1/2-x,1/2+y,z
1/2+x,1/2-y,z
loop_
_atom_site_type_symbol
_atom_site_label
_atom_site_fract_x
_atom_site_fract_y
_atom_site_fract_z
Si Si1 0.086167 0.500000 0.946345
Si Si2 0.418435 0.196412 0.599502
Si Si3 0.831061 0.693526 0.688197
Si Si4 0.168992 0.806884 0.210680
Si Si5 0.585442 0.690351 0.116399
Si Si6 0.917873 0.194135 0.500000
O O1 0.107082 0.667401 0.919871
O O2 0.000000 0.500000 0.946709
O O3 0.110593 0.500000 0.000000
O O4 0.500000 0.254821 0.601845
O O5 0.375666 0.258385 0.644380
O O6 0.386992 0.246662 0.549236
O O7 0.419634 0.000000 0.600880
O O8 0.831831 0.500000 0.685229
O O9 0.750000 0.750000 0.685245
O O10 0.858070 0.739685 0.739774
O O11 0.250000 0.750000 0.203588
O O12 0.121238 0.767098 0.165971
O O13 0.170556 0.000000 0.215202
O O14 0.500000 0.695054 0.120401
O O15 0.604065 0.500000 0.104556
O O16 0.000000 0.255197 0.500000
O O17 0.918462 0.000000 0.500000
#
# Coordination Sequence:
#
# PCOD9488539 Si02
#       6
#     8  16  16  16  16   8
#     4   9  18  32  54  82 108 140 175 212 264 310
#     4   9  18  33  51  71  95 126 162 201 247 296
#     4  10  20  33  50  71  99 130 165 204 247 301
#     4  10  20  33  52  75 100 137 173 207 255 307
#     4   9  19  34  52  79 109 137 175 219 260 305
#     4   9  17  29  48  73  96 121 157 199 246 299
#
# _framework density 18.056906000000001
#
# number of rings (size 3 to 8) (size 9 to 14) (size 15 to 20)
#    0.000    2.600    0.000    2.700    2.800    4.000 
#    0.000    2.500    0.000    0.600    0.000    0.000 
#    0.000    0.000    0.000    0.000    0.000    0.000 
#
# Total GULP energy -222872.582151 kJ/mol
# GULP energy per Si atom -5571.814554 kJ/mol
# Density = 1.801581 g / cm^3
# Si number density = 18.056906 Si / 1000 Ang^3
#
#
#
# Elastic Constant Matrix: (Units=GPa)
#
#
# Indices 1 2 3 4 5 6 
#
# 1 22.8111 22.5578 49.0961 0.0000 0.0000 0.0000
# 2 22.5578 64.2000 77.2168 0.0000 0.0000 0.0000
# 3 49.0961 77.2168 190.0065 0.0000 0.0000 0.0000
# 4 0.0000 0.0000 0.0000 20.0116 0.0000 0.0000
# 5 0.0000 0.0000 0.0000 0.0000 -17.0585 0.0000
# 6 0.0000 0.0000 0.0000 0.0000 0.0000 14.4708
#
#
#
# Elastic Compliance Matrix: (Units=1/GPa)
#
#
# Indices 1 2 3 4 5 6 
#
# 1 0.100825 -0.008005 -0.022799 0.000000 0.000000 0.000000
# 2 -0.008005 0.031105 -0.010572 0.000000 0.000000 0.000000
# 3 -0.022799 -0.010572 0.015451 0.000000 0.000000 0.000000
# 4 0.000000 0.000000 0.000000 0.049971 0.000000 0.000000
# 5 0.000000 0.000000 0.000000 0.000000 -0.058622 0.000000
# 6 0.000000 0.000000 0.000000 0.000000 0.000000 0.069105
#
#
# Mechanical properties :
#
#
# Convention : Reuss Voigt Hill
#
# Bulk Modulus (GPa) = 15.47320 63.86210 39.66765
# Shear Modulus (GPa) = 16.01895 12.02789 14.02342
#
# Velocity S-wave (km/s) = 2.98172 2.58371 2.78982
# Velocity P-wave (km/s) = 4.52127 6.65918 5.69151
#
# Compressibility (1/GPa) = 0.06462787
#
# Stress axis : x y z
#
# Youngs Moduli (GPa) = 9.91815 32.14933 64.72215
#
# Poissons Ratio (x) = 0.25734 1.47563
# Poissons Ratio (y) = 0.07939 0.68427
# Poissons Ratio (z) = 0.22613 0.33989
#
# Static dielectric constant tensor:
#      x y z
#    x 1.611820 0.000000 0.000000 
#    y 0.000000 1.627020 0.000000 
#    z 0.000000 0.000000 1.642000 
# 
# From -- ./inp_files/70808.got.cif
#   From: 2010.05.17/outbox.cif.g08.bks.cpg/sg65_36_cif.got.tgz:70808.got - 2010.06.03 17:01:31.
