data_PCOD9488897
_publ_section_title
;
Structure prediction by ZEFSAII (Michael W. Deem and Ramdas Pophale) SiO2 
 PCOD9488897
Probable space group: C M M M
;
_chemical_formula_sum "Si O2"
_cell_formula_units_Z 104
_cell_length_a 23.786485
_cell_length_b 24.242929
_cell_length_c 7.741536
_cell_angle_alpha 90.000000
_cell_angle_beta 90.000000
_cell_angle_gamma 90.000000
_cell_volume 4464.188219
_symmetry_space_group_name_H-M "C M M M"
_symmetry_group_IT_number 65
_symmetry_cell_setting 'orthorhombic'
loop_
_space_group_symop_operation_xyz
x,y,z
-x,-y,z
x,-y,-z
-x,y,-z
-x,-y,-z
x,y,-z
-x,y,z
x,-y,z
1/2+x,1/2+y,z
1/2-x,1/2-y,z
1/2+x,1/2-y,-z
1/2-x,1/2+y,-z
1/2-x,1/2-y,-z
1/2+x,1/2+y,-z
1/2-x,1/2+y,z
1/2+x,1/2-y,z
loop_
_atom_site_type_symbol
_atom_site_label
_atom_site_fract_x
_atom_site_fract_y
_atom_site_fract_z
Si Si1 0.182607 0.086908 0.194880
Si Si2 0.438943 0.384238 0.795581
Si Si3 0.082159 0.240754 0.304503
Si Si4 0.601933 0.858954 0.296107
Si Si5 0.000000 0.436660 0.208132
Si Si6 0.805886 0.440499 0.296313
Si Si7 0.208456 0.205643 0.697703
O O1 0.119261 0.088697 0.274642
O O2 0.238286 0.061820 0.278927
O O3 0.199205 0.151140 0.195635
O O4 0.178719 0.065607 0.000000
O O5 0.500000 0.402229 0.725271
O O6 0.436367 0.317412 0.777188
O O7 0.438173 0.395990 0.000000
O O8 0.059603 0.240578 0.500000
O O9 0.076548 0.301425 0.222257
O O10 0.148951 0.234681 0.314930
O O11 0.610627 0.846609 0.500000
O O12 0.554788 0.905189 0.275163
O O13 0.659651 0.887303 0.227189
O O14 0.000000 0.500000 0.263332
O O15 0.000000 0.434457 0.000000
O O16 0.818531 0.440963 0.500000
O O17 0.824642 0.500000 0.222413
O O18 0.226918 0.190778 0.500000
O O19 0.250000 0.250000 0.773122
#
# Coordination Sequence:
#
# PCOD9488897 Si02
#       7
#    16  16  16  16   8  16  16
#     4  10  20  33  52  79 108 139 176 222 275 326
#     4   9  19  35  53  75 109 150 185 216 258 321
#     4   9  18  30  48  77 106 133 171 217 258 304
#     4  10  21  38  59  81 106 140 182 226 270 321
#     4  11  25  41  55  75 105 141 183 231 280 323
#     4  10  21  38  60  82 105 138 182 229 278 331
#     4   9  16  29  49  71 101 139 174 210 255 312
#
# _framework density 23.296510000000001
#
# number of rings (size 3 to 8) (size 9 to 14) (size 15 to 20)
#    0.000    2.385    0.000    2.077    1.077    6.462 
#    0.000    3.077    0.000    0.462    0.000    3.231 
#    0.000    0.000    0.000    0.000    0.000    0.000 
#
# Total GULP energy -289832.943679 kJ/mol
# GULP energy per Si atom -5573.710455 kJ/mol
# Density = 2.324349 g / cm^3
# Si number density = 23.296510 Si / 1000 Ang^3
#
#
#
# Elastic Constant Matrix: (Units=GPa)
#
#
# Indices 1 2 3 4 5 6 
#
# 1 130.8372 1.0793 -6.4409 0.0000 0.0000 0.0000
# 2 1.0793 56.1535 0.8852 0.0000 0.0000 0.0000
# 3 -6.4409 0.8852 40.3580 0.0000 0.0000 0.0000
# 4 0.0000 0.0000 0.0000 17.5284 0.0000 0.0000
# 5 0.0000 0.0000 0.0000 0.0000 16.8239 0.0000
# 6 0.0000 0.0000 0.0000 0.0000 0.0000 32.5562
#
#
#
# Elastic Compliance Matrix: (Units=1/GPa)
#
#
# Indices 1 2 3 4 5 6 
#
# 1 0.007705 -0.000168 0.001233 0.000000 0.000000 0.000000
# 2 -0.000168 0.017818 -0.000418 0.000000 0.000000 0.000000
# 3 0.001233 -0.000418 0.024984 0.000000 0.000000 0.000000
# 4 0.000000 0.000000 0.000000 0.057050 0.000000 0.000000
# 5 0.000000 0.000000 0.000000 0.000000 0.059439 0.000000
# 6 0.000000 0.000000 0.000000 0.000000 0.000000 0.030716
#
#
# Mechanical properties :
#
#
# Convention : Reuss Voigt Hill
#
# Bulk Modulus (GPa) = 19.30351 24.26623 21.78487
# Shear Modulus (GPa) = 23.39897 28.83670 26.11784
#
# Velocity S-wave (km/s) = 3.17266 3.52207 3.35192
# Velocity P-wave (km/s) = 4.66101 5.19412 4.93477
#
# Compressibility (1/GPa) = 0.05180406
#
# Stress axis : x y z
#
# Youngs Moduli (GPa) = 129.78272 56.12256 40.02526
#
# Poissons Ratio (x) = 0.00940 -0.04937
# Poissons Ratio (y) = 0.02174 0.01671
# Poissons Ratio (z) = -0.16007 0.02344
#
# Static dielectric constant tensor:
#      x y z
#    x 1.913280 0.000000 0.000000 
#    y 0.000000 1.916820 0.000000 
#    z 0.000000 0.000000 1.885150 
# 
# From -- ./inp_files/14708.got.cif
#   From: 2010.05.17/outbox.cif.g08.bks.cpg/sg65_8_cif.got.tgz:14708.got - 2010.06.03 17:01:31.
