data_PCOD9488640
_publ_section_title
;
Structure prediction by ZEFSAII (Michael W. Deem and Ramdas Pophale) SiO2 
 PCOD9488640
Probable space group: C M M M
;
_chemical_formula_sum "Si O2"
_cell_formula_units_Z 80
_cell_length_a 23.562020
_cell_length_b 15.473444
_cell_length_c 11.593401
_cell_angle_alpha 90.000000
_cell_angle_beta 90.000000
_cell_angle_gamma 90.000000
_cell_volume 4226.787025
_symmetry_space_group_name_H-M "C M M M"
_symmetry_group_IT_number 65
_symmetry_cell_setting 'orthorhombic'
loop_
_space_group_symop_operation_xyz
x,y,z
-x,-y,z
x,-y,-z
-x,y,-z
-x,-y,-z
x,y,-z
-x,y,z
x,-y,z
1/2+x,1/2+y,z
1/2-x,1/2-y,z
1/2+x,1/2-y,-z
1/2-x,1/2+y,-z
1/2-x,1/2-y,-z
1/2+x,1/2+y,-z
1/2-x,1/2+y,z
1/2+x,1/2-y,z
loop_
_atom_site_type_symbol
_atom_site_label
_atom_site_fract_x
_atom_site_fract_y
_atom_site_fract_z
Si Si1 0.000000 0.603262 0.685476
Si Si2 0.340207 0.092216 0.861986
Si Si3 0.595120 0.103980 0.500000
Si Si4 0.273813 0.103762 0.500000
Si Si5 0.730504 0.347707 0.251449
Si Si6 0.000000 0.248193 0.863929
Si Si7 0.876588 0.214075 0.861694
O O1 0.055795 0.626228 0.609469
O O2 0.000000 0.500000 0.704180
O O3 0.000000 0.660884 0.798323
O O4 0.275299 0.095761 0.819673
O O5 0.366712 0.184428 0.827884
O O6 0.365088 0.000000 0.818451
O O7 0.342998 0.090801 0.000000
O O8 0.660194 0.136186 0.500000
O O9 0.598955 0.000000 0.500000
O O10 0.241573 0.133438 0.614785
O O11 0.275883 0.000000 0.500000
O O12 0.750000 0.250000 0.227457
O O13 0.666446 0.347423 0.206424
O O14 0.057609 0.197486 0.837765
O O15 0.000000 0.266860 0.000000
O O16 0.865583 0.207600 0.000000
#
# Coordination Sequence:
#
# PCOD9488640 Si02
#       7
#     8  16   8   8  16   8  16
#     4   9  18  33  51  71 101 146 186 214 248 296
#     4   9  17  30  50  76 104 137 174 210 255 310
#     4   8  18  34  50  69  98 140 182 213 248 292
#     4  11  22  35  53  78 107 134 172 227 271 310
#     4  10  20  33  50  74 103 139 176 211 261 313
#     4  10  21  34  50  76 103 137 177 216 260 305
#     4   9  19  35  52  73 106 140 175 217 260 311
#
# _framework density 18.926905999999999
#
# number of rings (size 3 to 8) (size 9 to 14) (size 15 to 20)
#    0.000    2.600    0.000    2.100    5.600    3.400 
#    0.000    2.000    0.000    0.000    0.000    3.500 
#    0.000   11.200    0.000    0.000    0.000    0.000 
#
# Total GULP energy -223006.784725 kJ/mol
# GULP energy per Si atom -5575.169618 kJ/mol
# Density = 1.888383 g / cm^3
# Si number density = 18.926906 Si / 1000 Ang^3
#
#
#
# Elastic Constant Matrix: (Units=GPa)
#
#
# Indices 1 2 3 4 5 6 
#
# 1 158.1081 9.9118 56.8840 0.0000 0.0000 0.0000
# 2 9.9118 23.0832 -0.8254 0.0000 0.0000 0.0000
# 3 56.8840 -0.8254 35.9871 0.0000 0.0000 0.0000
# 4 0.0000 0.0000 0.0000 17.7793 0.0000 0.0000
# 5 0.0000 0.0000 0.0000 0.0000 12.6162 0.0000
# 6 0.0000 0.0000 0.0000 0.0000 0.0000 18.0947
#
#
#
# Elastic Compliance Matrix: (Units=1/GPa)
#
#
# Indices 1 2 3 4 5 6 
#
# 1 0.015939 -0.007751 -0.025373 0.000000 0.000000 0.000000
# 2 -0.007751 0.047127 0.013333 0.000000 0.000000 0.000000
# 3 -0.025373 0.013333 0.068199 0.000000 0.000000 0.000000
# 4 0.000000 0.000000 0.000000 0.056245 0.000000 0.000000
# 5 0.000000 0.000000 0.000000 0.000000 0.079263 0.000000
# 6 0.000000 0.000000 0.000000 0.000000 0.000000 0.055265
#
#
# Mechanical properties :
#
#
# Convention : Reuss Voigt Hill
#
# Bulk Modulus (GPa) = 10.90701 38.79102 24.84902
# Shear Modulus (GPa) = 12.74921 19.77858 16.26390
#
# Velocity S-wave (km/s) = 2.59820 3.23615 2.93456
# Velocity P-wave (km/s) = 3.84397 5.87394 4.96383
#
# Compressibility (1/GPa) = 0.09168412
#
# Stress axis : x y z
#
# Youngs Moduli (GPa) = 62.73825 21.21939 14.66289
#
# Poissons Ratio (x) = 0.16448 0.37204
# Poissons Ratio (y) = 0.48631 -0.19551
# Poissons Ratio (z) = 1.59183 -0.28293
#
# Static dielectric constant tensor:
#      x y z
#    x 1.726690 0.000000 0.000000 
#    y 0.000000 1.650580 0.000000 
#    z 0.000000 0.000000 1.753360 
# 
# From -- ./inp_files/30737.got.cif
#   From: 2010.05.17/outbox.cif.g08.bks.cpg/sg65_16_cif.got.tgz:30737.got - 2010.06.03 17:01:31.
