data_PCOD9488481
_publ_section_title
;
Structure prediction by ZEFSAII (Michael W. Deem and Ramdas Pophale) SiO2 
 PCOD9488481
Probable space group: C M M M
;
_chemical_formula_sum "Si O2"
_cell_formula_units_Z 120
_cell_length_a 30.075064
_cell_length_b 9.150536
_cell_length_c 25.747953
_cell_angle_alpha 90.000000
_cell_angle_beta 90.000000
_cell_angle_gamma 90.000000
_cell_volume 7085.912772
_symmetry_space_group_name_H-M "C M M M"
_symmetry_group_IT_number 65
_symmetry_cell_setting 'orthorhombic'
loop_
_space_group_symop_operation_xyz
x,y,z
-x,-y,z
x,-y,-z
-x,y,-z
-x,-y,-z
x,y,-z
-x,y,z
x,-y,z
1/2+x,1/2+y,z
1/2-x,1/2-y,z
1/2+x,1/2-y,-z
1/2-x,1/2+y,-z
1/2-x,1/2-y,-z
1/2+x,1/2+y,-z
1/2-x,1/2+y,z
1/2+x,1/2-y,z
loop_
_atom_site_type_symbol
_atom_site_label
_atom_site_fract_x
_atom_site_fract_y
_atom_site_fract_z
Si Si1 0.701942 0.824824 0.500000
Si Si2 0.051137 0.174989 0.261937
Si Si3 0.204272 0.170609 0.087022
Si Si4 0.552252 0.670886 0.860546
Si Si5 0.201736 0.675573 0.385885
Si Si6 0.638628 0.824829 0.710233
Si Si7 0.296197 0.328584 0.212105
Si Si8 0.885494 0.327273 0.057963
O O1 0.750000 0.750000 0.500000
O O2 0.682730 0.785912 0.556618
O O3 0.706688 0.000000 0.500000
O O4 0.057441 0.206130 0.200393
O O5 0.089009 0.261626 0.292061
O O6 0.000000 0.211793 0.275256
O O7 0.056476 0.000000 0.268396
O O8 0.250000 0.250000 0.072409
O O9 0.199469 0.182137 0.149822
O O10 0.161729 0.247871 0.062942
O O11 0.206037 0.000000 0.073540
O O12 0.500000 0.687023 0.872797
O O13 0.564333 0.500000 0.867105
O O14 0.582233 0.766314 0.897948
O O15 0.208085 0.500000 0.383914
O O16 0.250000 0.750000 0.379316
O O17 0.167933 0.714836 0.340210
O O18 0.663762 0.751275 0.758875
O O19 0.638070 0.000000 0.715636
O O20 0.294888 0.500000 0.225915
O O21 0.250000 0.250000 0.227035
O O22 0.879131 0.500000 0.064451
O O23 0.903783 0.300151 0.000000
#
# Coordination Sequence:
#
# PCOD9488481 Si02
#       8
#     8  16  16  16  16  16  16  16
#     4   8  14  28  46  62  89 130 171 209 244 277
#     4   9  19  36  55  74  97 126 160 197 240 290
#     4  10  21  37  56  74  94 125 164 201 237 281
#     4   9  19  37  59  79  98 123 157 195 236 287
#     4   9  18  30  45  68  98 133 171 207 242 282
#     4  11  21  30  45  73 104 131 161 199 244 291
#     4  10  20  33  49  71  99 130 162 195 235 285
#     4  11  24  38  52  74 102 128 156 193 237 285
#
# _framework density 16.935009999999998
#
# number of rings (size 3 to 8) (size 9 to 14) (size 15 to 20)
#    0.000    2.267    0.000    3.600    0.000    9.600 
#    0.000    2.667    0.000    0.000    0.000    0.467 
#    0.000    3.733    0.000    0.000    0.000    0.000 
#
# Total GULP energy -334844.727634 kJ/mol
# GULP energy per Si atom -5580.745461 kJ/mol
# Density = 1.689647 g / cm^3
# Si number density = 16.935010 Si / 1000 Ang^3
#
#
#
# Elastic Constant Matrix: (Units=GPa)
#
#
# Indices 1 2 3 4 5 6 
#
# 1 87.9568 46.6750 45.0727 0.0000 0.0000 0.0000
# 2 46.6750 60.1376 41.3868 0.0000 0.0000 0.0000
# 3 45.0727 41.3868 51.4848 0.0000 0.0000 0.0000
# 4 0.0000 0.0000 0.0000 17.3361 0.0000 0.0000
# 5 0.0000 0.0000 0.0000 0.0000 28.1501 0.0000
# 6 0.0000 0.0000 0.0000 0.0000 0.0000 33.1220
#
#
#
# Elastic Compliance Matrix: (Units=1/GPa)
#
#
# Indices 1 2 3 4 5 6 
#
# 1 0.022503 -0.008746 -0.012670 0.000000 0.000000 0.000000
# 2 -0.008746 0.040618 -0.024995 0.000000 0.000000 0.000000
# 3 -0.012670 -0.024995 0.050607 0.000000 0.000000 0.000000
# 4 0.000000 0.000000 0.000000 0.057683 0.000000 0.000000
# 5 0.000000 0.000000 0.000000 0.000000 0.035524 0.000000
# 6 0.000000 0.000000 0.000000 0.000000 0.000000 0.030191
#
#
# Mechanical properties :
#
#
# Convention : Reuss Voigt Hill
#
# Bulk Modulus (GPa) = 47.82969 51.76092 49.79531
# Shear Modulus (GPa) = 14.84050 20.15128 17.49589
#
# Velocity S-wave (km/s) = 2.96348 3.45326 3.21770
# Velocity P-wave (km/s) = 6.32566 6.82135 6.57818
#
# Compressibility (1/GPa) = 0.02090751
#
# Stress axis : x y z
#
# Youngs Moduli (GPa) = 44.43893 24.61970 19.76002
#
# Poissons Ratio (x) = 0.21532 0.25035
# Poissons Ratio (y) = 0.38866 0.49389
# Poissons Ratio (z) = 0.56303 0.61536
#
# Static dielectric constant tensor:
#      x y z
#    x 1.552620 0.000000 0.000000 
#    y 0.000000 1.561230 0.000000 
#    z 0.000000 0.000000 1.593560 
# 
# From -- ./inp_files/76190.got.cif
#   From: 2010.05.17/outbox.cif.g08.bks.cpg/sg65_39_cif.got.tgz:76190.got - 2010.06.03 17:01:31.
