data_PCOD9488517
_publ_section_title
;
Structure prediction by ZEFSAII (Michael W. Deem and Ramdas Pophale) SiO2 
 PCOD9488517
Probable space group: C M M M
;
_chemical_formula_sum "Si O2"
_cell_formula_units_Z 104
_cell_length_a 27.795916
_cell_length_b 8.973594
_cell_length_c 27.173741
_cell_angle_alpha 90.000000
_cell_angle_beta 90.000000
_cell_angle_gamma 90.000000
_cell_volume 6777.926246
_symmetry_space_group_name_H-M "C M M M"
_symmetry_group_IT_number 65
_symmetry_cell_setting 'orthorhombic'
loop_
_space_group_symop_operation_xyz
x,y,z
-x,-y,z
x,-y,-z
-x,y,-z
-x,-y,-z
x,y,-z
-x,y,z
x,-y,z
1/2+x,1/2+y,z
1/2-x,1/2-y,z
1/2+x,1/2-y,-z
1/2-x,1/2+y,-z
1/2-x,1/2-y,-z
1/2+x,1/2+y,-z
1/2-x,1/2+y,z
1/2+x,1/2-y,z
loop_
_atom_site_type_symbol
_atom_site_label
_atom_site_fract_x
_atom_site_fract_y
_atom_site_fract_z
Si Si1 0.107743 0.179108 0.745423
Si Si2 0.556088 0.679381 0.845257
Si Si3 0.698293 0.823429 0.697120
Si Si4 0.854326 0.677192 0.593448
Si Si5 0.803142 0.178520 0.500000
Si Si6 0.944312 0.821048 0.643450
Si Si7 0.941850 0.323885 0.946103
O O1 0.085314 0.227917 0.797187
O O2 0.158315 0.254048 0.732874
O O3 0.072202 0.212465 0.699551
O O4 0.113456 0.000000 0.746555
O O5 0.500000 0.724314 0.839665
O O6 0.557127 0.500000 0.847115
O O7 0.575122 0.742300 0.896986
O O8 0.750000 0.750000 0.703439
O O9 0.678623 0.796223 0.641730
O O10 0.701278 0.000000 0.704242
O O11 0.855565 0.500000 0.583939
O O12 0.831593 0.763574 0.547799
O O13 0.907025 0.737659 0.607994
O O14 0.750000 0.250000 0.500000
O O15 0.799554 0.000000 0.500000
O O16 0.000000 0.780963 0.636034
O O17 0.939465 0.000000 0.636788
O O18 0.931910 0.500000 0.942583
O O19 0.000000 0.306872 0.946552
O O20 0.924582 0.270514 0.000000
#
# Coordination Sequence:
#
# PCOD9488517 Si02
#       7
#    16  16  16  16   8  16  16
#     4   9  17  29  45  66  93 122 152 187 225 268
#     4   9  16  25  39  61  88 118 152 188 224 261
#     4  10  20  33  50  70  92 119 149 182 223 270
#     4  10  21  36  53  75 100 124 153 188 226 269
#     4  12  24  38  57  78  99 122 150 187 231 277
#     4   9  17  31  51  72  96 128 161 190 224 268
#     4   8  14  24  36  51  76 113 153 189 226 266
#
# _framework density 15.343926
#
# number of rings (size 3 to 8) (size 9 to 14) (size 15 to 20)
#    0.000    2.615    0.000    3.000    0.000    6.154 
#    0.000    1.923    0.000    5.077    0.000    0.000 
#    0.000    0.615    0.000    2.000    0.000    2.923 
#
# Total GULP energy -289865.654017 kJ/mol
# GULP energy per Si atom -5574.339500 kJ/mol
# Density = 1.530900 g / cm^3
# Si number density = 15.343926 Si / 1000 Ang^3
#
#
#
# Elastic Constant Matrix: (Units=GPa)
#
#
# Indices 1 2 3 4 5 6 
#
# 1 115.4080 49.1837 69.2293 0.0000 0.0000 0.0000
# 2 49.1837 48.4969 61.9208 0.0000 0.0000 0.0000
# 3 69.2293 61.9208 137.5440 0.0000 0.0000 0.0000
# 4 0.0000 0.0000 0.0000 24.7724 0.0000 0.0000
# 5 0.0000 0.0000 0.0000 0.0000 14.5165 0.0000
# 6 0.0000 0.0000 0.0000 0.0000 0.0000 23.5902
#
#
#
# Elastic Compliance Matrix: (Units=1/GPa)
#
#
# Indices 1 2 3 4 5 6 
#
# 1 0.015427 -0.013480 -0.001697 0.000000 0.000000 0.000000
# 2 -0.013480 0.060273 -0.020350 0.000000 0.000000 0.000000
# 3 -0.001697 -0.020350 0.017285 0.000000 0.000000 0.000000
# 4 0.000000 0.000000 0.000000 0.040368 0.000000 0.000000
# 5 0.000000 0.000000 0.000000 0.000000 0.068887 0.000000
# 6 0.000000 0.000000 0.000000 0.000000 0.000000 0.042390
#
#
# Mechanical properties :
#
#
# Convention : Reuss Voigt Hill
#
# Bulk Modulus (GPa) = 45.59116 73.56850 59.57983
# Shear Modulus (GPa) = 15.48020 20.65015 18.06518
#
# Velocity S-wave (km/s) = 3.17973 3.67252 3.43498
# Velocity P-wave (km/s) = 6.57710 8.12611 7.39229
#
# Compressibility (1/GPa) = 0.02193408
#
# Stress axis : x y z
#
# Youngs Moduli (GPa) = 64.82041 16.59126 57.85216
#
# Poissons Ratio (x) = 0.22364 0.09815
# Poissons Ratio (y) = 0.87375 1.17726
# Poissons Ratio (z) = 0.10997 0.33762
#
# Static dielectric constant tensor:
#      x y z
#    x 1.482700 0.000000 0.000000 
#    y 0.000000 1.511890 0.000000 
#    z 0.000000 0.000000 1.515040 
# 
# From -- ./inp_files/75788.got.cif
#   From: 2010.05.17/outbox.cif.g08.bks.cpg/sg65_38_cif.got.tgz:75788.got - 2010.06.03 17:01:31.
