data_PCOD9488224
_publ_section_title
;
Structure prediction by ZEFSAII (Michael W. Deem and Ramdas Pophale) SiO2 
 PCOD9488224
Probable space group: C M M M
;
_chemical_formula_sum "Si O2"
_cell_formula_units_Z 88
_cell_length_a 18.682003
_cell_length_b 20.316067
_cell_length_c 13.673110
_cell_angle_alpha 90.000000
_cell_angle_beta 90.000000
_cell_angle_gamma 90.000000
_cell_volume 5189.558137
_symmetry_space_group_name_H-M "C M M M"
_symmetry_group_IT_number 65
_symmetry_cell_setting 'orthorhombic'
loop_
_space_group_symop_operation_xyz
x,y,z
-x,-y,z
x,-y,-z
-x,y,-z
-x,-y,-z
x,y,-z
-x,y,z
x,-y,z
1/2+x,1/2+y,z
1/2-x,1/2-y,z
1/2+x,1/2-y,-z
1/2-x,1/2+y,-z
1/2-x,1/2-y,-z
1/2+x,1/2+y,-z
1/2-x,1/2+y,z
1/2+x,1/2-y,z
loop_
_atom_site_type_symbol
_atom_site_label
_atom_site_fract_x
_atom_site_fract_y
_atom_site_fract_z
Si Si1 0.654686 0.366303 0.115737
Si Si2 0.764049 0.922219 0.617323
Si Si3 0.418184 0.500000 0.880916
Si Si4 0.916922 0.270946 0.115650
Si Si5 0.423479 0.578381 0.381848
Si Si6 0.713916 0.819207 0.242364
O O1 0.621699 0.434529 0.151677
O O2 0.599064 0.306725 0.129573
O O3 0.729148 0.347462 0.164494
O O4 0.666349 0.372685 0.000000
O O5 0.757296 0.918575 0.500000
O O6 0.844541 0.897044 0.645072
O O7 0.710768 0.873372 0.672524
O O8 0.757365 0.000000 0.643564
O O9 0.500000 0.500000 0.849028
O O10 0.418881 0.500000 0.000000
O O11 0.860444 0.306084 0.186824
O O12 0.000000 0.285632 0.135023
O O13 0.902392 0.285077 0.000000
O O14 0.425303 0.584788 0.500000
O O15 0.500000 0.605545 0.344553
O O16 0.422839 0.500000 0.362470
O O17 0.750000 0.750000 0.276045
#
# Coordination Sequence:
#
# PCOD9488224 Si02
#       6
#    16  16   8  16  16  16
#     4   9  17  29  47  73 104 136 165 195 237 295
#     4   9  18  32  50  70  95 131 173 212 255 307
#     4   9  16  26  42  68 104 140 166 189 226 284
#     4   9  17  32  54  75  98 132 170 208 252 302
#     4   7  10  20  40  64  90 120 153 188 226 275
#     4  10  20  32  49  74 102 130 168 214 251 296
#
# _framework density 16.957127
#
# number of rings (size 3 to 8) (size 9 to 14) (size 15 to 20)
#    0.000    3.182    0.000    2.727    1.273    4.727 
#    0.000    4.545    0.000    1.091    0.000    2.545 
#    0.000    0.000    0.000    0.000    0.000    0.000 
#
# Total GULP energy -245178.377813 kJ/mol
# GULP energy per Si atom -5572.235859 kJ/mol
# Density = 1.691853 g / cm^3
# Si number density = 16.957127 Si / 1000 Ang^3
#
#
#
# Elastic Constant Matrix: (Units=GPa)
#
#
# Indices 1 2 3 4 5 6 
#
# 1 87.5290 48.6123 39.5350 0.0000 0.0000 0.0000
# 2 48.6123 91.3131 42.2851 0.0000 0.0000 0.0000
# 3 39.5350 42.2851 68.5224 0.0000 0.0000 0.0000
# 4 0.0000 0.0000 0.0000 26.6606 0.0000 0.0000
# 5 0.0000 0.0000 0.0000 0.0000 18.4964 0.0000
# 6 0.0000 0.0000 0.0000 0.0000 0.0000 15.8931
#
#
#
# Elastic Compliance Matrix: (Units=1/GPa)
#
#
# Indices 1 2 3 4 5 6 
#
# 1 0.017944 -0.006663 -0.006242 0.000000 0.000000 0.000000
# 2 -0.006663 0.017807 -0.007144 0.000000 0.000000 0.000000
# 3 -0.006242 -0.007144 0.022604 0.000000 0.000000 0.000000
# 4 0.000000 0.000000 0.000000 0.037509 0.000000 0.000000
# 5 0.000000 0.000000 0.000000 0.000000 0.054065 0.000000
# 6 0.000000 0.000000 0.000000 0.000000 0.000000 0.062920
#
#
# Mechanical properties :
#
#
# Convention : Reuss Voigt Hill
#
# Bulk Modulus (GPa) = 54.77245 56.46991 55.62118
# Shear Modulus (GPa) = 19.30263 20.00548 19.65406
#
# Velocity S-wave (km/s) = 3.37756 3.43850 3.40817
# Velocity P-wave (km/s) = 6.89791 7.00987 6.95412
#
# Compressibility (1/GPa) = 0.01825735
#
# Stress axis : x y z
#
# Youngs Moduli (GPa) = 55.72776 56.15859 44.24025
#
# Poissons Ratio (x) = 0.37416 0.27614
# Poissons Ratio (y) = 0.37129 0.31607
# Poissons Ratio (z) = 0.34784 0.40122
#
# Static dielectric constant tensor:
#      x y z
#    x 1.574500 0.000000 0.000000 
#    y 0.000000 1.563700 0.000000 
#    z 0.000000 0.000000 1.629700 
# 
# From -- ./inp_files/42460.got.cif
#   From: 2010.05.17/outbox.cif.g08.bks.cpg/sg65_22_cif.got.tgz:42460.got - 2010.06.03 17:01:31.
