data_PCOD9488150
_publ_section_title
;
Structure prediction by ZEFSAII (Michael W. Deem and Ramdas Pophale) SiO2 
 PCOD9488150
Probable space group: C M M M
;
_chemical_formula_sum "Si O2"
_cell_formula_units_Z 80
_cell_length_a 14.675590
_cell_length_b 9.426663
_cell_length_c 27.126698
_cell_angle_alpha 90.000000
_cell_angle_beta 90.000000
_cell_angle_gamma 90.000000
_cell_volume 3752.757349
_symmetry_space_group_name_H-M "C M M M"
_symmetry_group_IT_number 65
_symmetry_cell_setting 'orthorhombic'
loop_
_space_group_symop_operation_xyz
x,y,z
-x,-y,z
x,-y,-z
-x,y,-z
-x,-y,-z
x,y,-z
-x,y,z
x,-y,z
1/2+x,1/2+y,z
1/2-x,1/2-y,z
1/2+x,1/2-y,-z
1/2-x,1/2+y,-z
1/2-x,1/2-y,-z
1/2+x,1/2+y,-z
1/2-x,1/2+y,z
1/2+x,1/2-y,z
loop_
_atom_site_type_symbol
_atom_site_label
_atom_site_fract_x
_atom_site_fract_y
_atom_site_fract_z
Si Si1 0.888850 0.164405 0.554041
Si Si2 0.611494 0.835699 0.241749
Si Si3 0.653788 0.830465 0.054216
Si Si4 0.106505 0.157969 0.850409
Si Si5 0.611072 0.836143 0.648885
O O1 0.861413 0.220999 0.500000
O O2 0.857209 0.248628 0.601833
O O3 0.000000 0.167350 0.554693
O O4 0.861854 0.000000 0.557256
O O5 0.500000 0.837001 0.240704
O O6 0.644876 0.738035 0.197279
O O7 0.638098 0.784815 0.296525
O O8 0.639552 0.000000 0.235432
O O9 0.750000 0.750000 0.051702
O O10 0.610513 0.756777 0.101516
O O11 0.662393 0.000000 0.060930
O O12 0.609871 0.808518 0.000000
O O13 0.000000 0.140313 0.839935
O O14 0.146080 0.000000 0.858841
O O15 0.500000 0.833227 0.648213
O O16 0.638508 0.000000 0.644443
#
# Coordination Sequence:
#
# PCOD9488150 Si02
#       5
#    16  16  16  16  16
#     4   8  13  19  25  35  54  82 118 161 207 253
#     4   8  14  25  39  55  78 107 139 177 221 267
#     4  10  21  37  56  75  96 124 156 189 227 273
#     4  10  20  32  48  72  99 125 155 192 231 271
#     4   8  13  20  30  44  62  88 124 166 211 256
#
# _framework density 21.317658000000002
#
# number of rings (size 3 to 8) (size 9 to 14) (size 15 to 20)
#    0.000    3.200    0.000    3.000    0.000    4.000 
#    0.000    8.000    0.000    0.000    0.000    0.000 
#    0.000    0.000    0.000    0.000    0.000    1.000 
#
# Total GULP energy -222977.307124 kJ/mol
# GULP energy per Si atom -5574.432678 kJ/mol
# Density = 2.126914 g / cm^3
# Si number density = 21.317658 Si / 1000 Ang^3
#
#
#
# Elastic Constant Matrix: (Units=GPa)
#
#
# Indices 1 2 3 4 5 6 
#
# 1 45.0139 8.0986 9.4606 0.0000 0.0000 0.0000
# 2 8.0986 122.7282 122.8309 0.0000 0.0000 0.0000
# 3 9.4606 122.8309 242.6656 0.0000 0.0000 0.0000
# 4 0.0000 0.0000 0.0000 40.7076 0.0000 0.0000
# 5 0.0000 0.0000 0.0000 0.0000 8.3407 0.0000
# 6 0.0000 0.0000 0.0000 0.0000 0.0000 7.2494
#
#
#
# Elastic Compliance Matrix: (Units=1/GPa)
#
#
# Indices 1 2 3 4 5 6 
#
# 1 0.022490 -0.001229 -0.000255 0.000000 0.000000 0.000000
# 2 -0.001229 0.016581 -0.008345 0.000000 0.000000 0.000000
# 3 -0.000255 -0.008345 0.008355 0.000000 0.000000 0.000000
# 4 0.000000 0.000000 0.000000 0.024565 0.000000 0.000000
# 5 0.000000 0.000000 0.000000 0.000000 0.119894 0.000000
# 6 0.000000 0.000000 0.000000 0.000000 0.000000 0.137942
#
#
# Mechanical properties :
#
#
# Convention : Reuss Voigt Hill
#
# Bulk Modulus (GPa) = 36.01230 76.79867 56.40548
# Shear Modulus (GPa) = 13.93761 29.26072 21.59917
#
# Velocity S-wave (km/s) = 2.55974 3.70889 3.18654
# Velocity P-wave (km/s) = 5.06618 7.37870 6.32896
#
# Compressibility (1/GPa) = 0.02776829
#
# Stress axis : x y z
#
# Youngs Moduli (GPa) = 44.46414 60.30910 119.69069
#
# Poissons Ratio (x) = 0.07414 0.03047
# Poissons Ratio (y) = 0.05466 0.99883
# Poissons Ratio (z) = 0.01132 0.50328
#
# Static dielectric constant tensor:
#      x y z
#    x 1.909020 0.000000 0.000000 
#    y 0.000000 1.748050 0.000000 
#    z 0.000000 0.000000 1.788420 
# 
# From -- ./inp_files/72778.got.cif
#   From: 2010.05.17/outbox.cif.g08.bks.cpg/sg65_37_cif.got.tgz:72778.got - 2010.06.03 17:01:31.
