data_PCOD9488365
_publ_section_title
;
Structure prediction by ZEFSAII (Michael W. Deem and Ramdas Pophale) SiO2 
 PCOD9488365
Probable space group: C M M M
;
_chemical_formula_sum "Si O2"
_cell_formula_units_Z 80
_cell_length_a 28.492629
_cell_length_b 27.015147
_cell_length_c 7.304024
_cell_angle_alpha 90.000000
_cell_angle_beta 90.000000
_cell_angle_gamma 90.000000
_cell_volume 5622.145098
_symmetry_space_group_name_H-M "C M M M"
_symmetry_group_IT_number 65
_symmetry_cell_setting 'orthorhombic'
loop_
_space_group_symop_operation_xyz
x,y,z
-x,-y,z
x,-y,-z
-x,y,-z
-x,-y,-z
x,y,-z
-x,y,z
x,-y,z
1/2+x,1/2+y,z
1/2-x,1/2-y,z
1/2+x,1/2-y,-z
1/2-x,1/2+y,-z
1/2-x,1/2-y,-z
1/2+x,1/2+y,-z
1/2-x,1/2+y,z
1/2+x,1/2-y,z
loop_
_atom_site_type_symbol
_atom_site_label
_atom_site_fract_x
_atom_site_fract_y
_atom_site_fract_z
Si Si1 0.804186 0.643139 0.278608
Si Si2 0.867750 0.739196 0.720044
Si Si3 0.127720 0.442395 0.719319
Si Si4 0.554437 0.098477 0.000000
Si Si5 0.445541 0.217927 0.000000
Si Si6 0.218890 0.201555 0.278870
O O1 0.802131 0.642597 0.500000
O O2 0.838863 0.688861 0.232341
O O3 0.828879 0.592495 0.222282
O O4 0.751533 0.656388 0.214673
O O5 0.873348 0.739943 0.500000
O O6 0.833700 0.784621 0.778228
O O7 0.916451 0.737207 0.825436
O O8 0.121760 0.437211 0.500000
O O9 0.135442 0.500000 0.760555
O O10 0.082263 0.422682 0.825474
O O11 0.556869 0.158054 0.000000
O O12 0.500000 0.083830 0.000000
O O13 0.500000 0.232151 0.000000
O O14 0.216723 0.198859 0.500000
O O15 0.250000 0.250000 0.235128
#
# Coordination Sequence:
#
# PCOD9488365 Si02
#       6
#    16  16  16   8   8  16
#     4   8  13  25  43  62  82 100 123 158 193 236
#     4   9  16  29  45  59  79 103 127 160 197 234
#     4  10  20  33  48  62  77 102 132 164 207 249
#     4  11  23  36  46  56  73  99 135 181 221 243
#     4  11  22  31  42  60  78 102 137 170 206 244
#     4   7  11  21  41  63  80 100 121 148 192 233
#
# _framework density 14.229444000000001
#
# number of rings (size 3 to 8) (size 9 to 14) (size 15 to 20)
#    0.000    3.000    2.000    2.700    0.000    1.600 
#    0.000    8.500    0.000    0.000    0.000    0.000 
#    0.000    0.000    0.000    0.000    0.000    2.000 
#
# Total GULP energy -222695.586957 kJ/mol
# GULP energy per Si atom -5567.389674 kJ/mol
# Density = 1.419706 g / cm^3
# Si number density = 14.229444 Si / 1000 Ang^3
#
#
#
# Elastic Constant Matrix: (Units=GPa)
#
#
# Indices 1 2 3 4 5 6 
#
# 1 134.4748 67.0641 38.7237 0.0000 0.0000 0.0000
# 2 67.0641 60.2359 19.5512 0.0000 0.0000 0.0000
# 3 38.7237 19.5512 66.9134 0.0000 0.0000 0.0000
# 4 0.0000 0.0000 0.0000 11.0390 0.0000 0.0000
# 5 0.0000 0.0000 0.0000 0.0000 1092.0983 0.0000
# 6 0.0000 0.0000 0.0000 0.0000 0.0000 20.1077
#
#
#
# Elastic Compliance Matrix: (Units=1/GPa)
#
#
# Indices 1 2 3 4 5 6 
#
# 1 0.018162 -0.018570 -0.005084 0.000000 0.000000 0.000000
# 2 -0.018570 0.037328 -0.000160 0.000000 0.000000 0.000000
# 3 -0.005084 -0.000160 0.017934 0.000000 0.000000 0.000000
# 4 0.000000 0.000000 0.000000 0.090588 0.000000 0.000000
# 5 0.000000 0.000000 0.000000 0.000000 0.000916 0.000000
# 6 0.000000 0.000000 0.000000 0.000000 0.000000 0.049732
#
#
# Mechanical properties :
#
#
# Convention : Reuss Voigt Hill
#
# Bulk Modulus (GPa) = 38.76759 56.92246 47.84502
# Shear Modulus (GPa) = 18.45787 233.73466 126.09627
#
# Velocity S-wave (km/s) = 3.60552 12.83035 9.42384
# Velocity P-wave (km/s) = 6.68108 16.11151 12.33324
#
# Compressibility (1/GPa) = 0.02579474
#
# Stress axis : x y z
#
# Youngs Moduli (GPa) = 55.06144 26.78923 55.76030
#
# Poissons Ratio (x) = 0.49748 0.28351
# Poissons Ratio (y) = 1.02249 0.00893
# Poissons Ratio (z) = 0.27996 0.00429
#
# Static dielectric constant tensor:
#      x y z
#    x 1.470830 0.000000 0.000000 
#    y 0.000000 1.462960 0.000000 
#    z 0.000000 0.000000 1.533760 
# 
# From -- ./inp_files/12569.got.cif
#   From: 2010.05.17/outbox.cif.g08.bks.cpg/sg65_7_cif.got.tgz:12569.got - 2010.06.03 17:01:31.
