data_PCOD9488005
_publ_section_title
;
Structure prediction by ZEFSAII (Michael W. Deem and Ramdas Pophale) SiO2 
 PCOD9488005
Probable space group: C M M M
;
_chemical_formula_sum "Si O2"
_cell_formula_units_Z 88
_cell_length_a 28.839090
_cell_length_b 9.047960
_cell_length_c 21.536615
_cell_angle_alpha 90.000000
_cell_angle_beta 90.000000
_cell_angle_gamma 90.000000
_cell_volume 5619.655187
_symmetry_space_group_name_H-M "C M M M"
_symmetry_group_IT_number 65
_symmetry_cell_setting 'orthorhombic'
loop_
_space_group_symop_operation_xyz
x,y,z
-x,-y,z
x,-y,-z
-x,y,-z
-x,-y,-z
x,y,-z
-x,y,z
x,-y,z
1/2+x,1/2+y,z
1/2-x,1/2-y,z
1/2+x,1/2-y,-z
1/2-x,1/2+y,-z
1/2-x,1/2-y,-z
1/2+x,1/2+y,-z
1/2-x,1/2+y,z
1/2+x,1/2-y,z
loop_
_atom_site_type_symbol
_atom_site_label
_atom_site_fract_x
_atom_site_fract_y
_atom_site_fract_z
Si Si1 0.444632 0.675006 0.695427
Si Si2 0.800592 0.677510 0.000000
Si Si3 0.604415 0.822774 0.812164
Si Si4 0.199707 0.322326 0.136617
Si Si5 0.555830 0.675519 0.929975
Si Si6 0.443767 0.172814 0.568698
O O1 0.500000 0.703207 0.700585
O O2 0.437529 0.500000 0.699523
O O3 0.419286 0.755785 0.751612
O O4 0.428626 0.735118 0.628351
O O5 0.750000 0.750000 0.000000
O O6 0.819526 0.719741 0.067505
O O7 0.797530 0.500000 0.000000
O O8 0.658842 0.781448 0.816575
O O9 0.579293 0.761748 0.873824
O O10 0.601055 0.000000 0.811734
O O11 0.205535 0.500000 0.137776
O O12 0.250000 0.250000 0.146035
O O13 0.500000 0.692307 0.925917
O O14 0.565710 0.500000 0.924358
O O15 0.569860 0.723124 0.000000
O O16 0.427987 0.222632 0.500000
O O17 0.500000 0.180167 0.567873
O O18 0.431555 0.000000 0.576114
#
# Coordination Sequence:
#
# PCOD9488005 Si02
#       6
#    16   8  16  16  16  16
#     4  10  20  32  46  66  95 130 164 195 226 266
#     4   8  14  28  46  62  81 102 129 171 224 277
#     4  11  22  32  47  69  92 119 153 193 236 280
#     4   9  19  33  49  67  88 113 143 186 236 287
#     4   9  19  35  50  64  86 117 154 194 233 275
#     4   8  14  26  45  68  94 124 156 190 228 268
#
# _framework density 15.659323000000001
#
# number of rings (size 3 to 8) (size 9 to 14) (size 15 to 20)
#    0.000    2.727    0.000    2.727    1.273    5.818 
#    0.000    2.727    0.000    0.000    0.000    0.000 
#    0.000    0.727    0.000    2.364    0.000    2.909 
#
# Total GULP energy -245101.677085 kJ/mol
# GULP energy per Si atom -5570.492661 kJ/mol
# Density = 1.562368 g / cm^3
# Si number density = 15.659323 Si / 1000 Ang^3
#
#
#
# Elastic Constant Matrix: (Units=GPa)
#
#
# Indices 1 2 3 4 5 6 
#
# 1 53.6985 40.3596 57.9593 0.0000 0.0000 0.0000
# 2 40.3596 45.9224 64.6254 0.0000 0.0000 0.0000
# 3 57.9593 64.6254 143.8354 0.0000 0.0000 0.0000
# 4 0.0000 0.0000 0.0000 27.1728 0.0000 0.0000
# 5 0.0000 0.0000 0.0000 0.0000 9.9244 0.0000
# 6 0.0000 0.0000 0.0000 0.0000 0.0000 17.2728
#
#
#
# Elastic Compliance Matrix: (Units=1/GPa)
#
#
# Indices 1 2 3 4 5 6 
#
# 1 0.054938 -0.046584 -0.001207 0.000000 0.000000 0.000000
# 2 -0.046584 0.098720 -0.025584 0.000000 0.000000 0.000000
# 3 -0.001207 -0.025584 0.018934 0.000000 0.000000 0.000000
# 4 0.000000 0.000000 0.000000 0.036801 0.000000 0.000000
# 5 0.000000 0.000000 0.000000 0.000000 0.100762 0.000000
# 6 0.000000 0.000000 0.000000 0.000000 0.000000 0.057894
#
#
# Mechanical properties :
#
#
# Convention : Reuss Voigt Hill
#
# Bulk Modulus (GPa) = 38.69718 63.26054 50.97886
# Shear Modulus (GPa) = 9.55266 16.24147 12.89707
#
# Velocity S-wave (km/s) = 2.47256 3.22402 2.87296
# Velocity P-wave (km/s) = 5.73733 7.37189 6.60536
#
# Compressibility (1/GPa) = 0.02584168
#
# Stress axis : x y z
#
# Youngs Moduli (GPa) = 18.20238 10.12963 52.81577
#
# Poissons Ratio (x) = 0.47188 0.06377
# Poissons Ratio (y) = 0.84794 1.35123
# Poissons Ratio (z) = 0.02198 0.25916
#
# Static dielectric constant tensor:
#      x y z
#    x 1.508310 0.000000 0.000000 
#    y 0.000000 1.523220 0.000000 
#    z 0.000000 0.000000 1.536190 
# 
# From -- ./inp_files/60645.got.cif
#   From: 2010.05.17/outbox.cif.g08.bks.cpg/sg65_31_cif.got.tgz:60645.got - 2010.06.03 17:01:31.
