data_PCOD9488624
_publ_section_title
;
Structure prediction by ZEFSAII (Michael W. Deem and Ramdas Pophale) SiO2 
 PCOD9488624
Probable space group: C M M M
;
_chemical_formula_sum "Si O2"
_cell_formula_units_Z 96
_cell_length_a 20.622711
_cell_length_b 30.626485
_cell_length_c 7.836478
_cell_angle_alpha 90.000000
_cell_angle_beta 90.000000
_cell_angle_gamma 90.000000
_cell_volume 4949.528510
_symmetry_space_group_name_H-M "C M M M"
_symmetry_group_IT_number 65
_symmetry_cell_setting 'orthorhombic'
loop_
_space_group_symop_operation_xyz
x,y,z
-x,-y,z
x,-y,-z
-x,y,-z
-x,-y,-z
x,y,-z
-x,y,z
x,-y,z
1/2+x,1/2+y,z
1/2-x,1/2-y,z
1/2+x,1/2-y,-z
1/2-x,1/2+y,-z
1/2-x,1/2-y,-z
1/2+x,1/2+y,-z
1/2-x,1/2+y,z
1/2+x,1/2-y,z
loop_
_atom_site_type_symbol
_atom_site_label
_atom_site_fract_x
_atom_site_fract_y
_atom_site_fract_z
Si Si1 0.289166 0.706412 0.790833
Si Si2 0.572006 0.828293 0.700342
Si Si3 0.710003 0.450077 0.294071
Si Si4 0.928056 0.229764 0.800749
Si Si5 0.700247 0.127120 0.797655
Si Si6 0.430395 0.447043 0.296764
O O1 0.250000 0.750000 0.741005
O O2 0.363395 0.707767 0.728022
O O3 0.249080 0.664571 0.731472
O O4 0.291117 0.706337 0.000000
O O5 0.571172 0.818130 0.500000
O O6 0.500000 0.843636 0.751007
O O7 0.584170 0.781985 0.791377
O O8 0.628693 0.862429 0.732357
O O9 0.705839 0.451201 0.500000
O O10 0.718266 0.500000 0.235042
O O11 0.768579 0.419078 0.245248
O O12 0.639741 0.432446 0.229410
O O13 0.000000 0.221561 0.725506
O O14 0.931382 0.217683 0.000000
O O15 0.697556 0.131838 0.000000
O O16 0.431626 0.437827 0.500000
O O17 0.500000 0.431680 0.225006
O O18 0.429404 0.500000 0.280673
#
# Coordination Sequence:
#
# PCOD9488624 Si02
#       6
#    16  16  16  16  16  16
#     4   9  16  29  47  70 100 130 163 204 243 285
#     4  10  20  33  50  74 102 128 160 206 255 302
#     4   9  18  33  52  74 102 134 169 213 262 307
#     4   9  16  29  50  71  95 134 177 208 241 292
#     4  11  21  33  52  75 101 134 171 210 249 299
#     4   7  10  20  42  69  92 119 160 203 239 282
#
# _framework density 19.395788
#
# number of rings (size 3 to 8) (size 9 to 14) (size 15 to 20)
#    0.000    2.833    1.667    2.500    0.000    1.333 
#    0.000    3.333    0.000    2.000    0.000    5.833 
#    0.000    0.000    0.000    0.000    0.000    0.000 
#
# Total GULP energy -267496.767493 kJ/mol
# GULP energy per Si atom -5572.849323 kJ/mol
# Density = 1.935164 g / cm^3
# Si number density = 19.395788 Si / 1000 Ang^3
#
#
#
# Elastic Constant Matrix: (Units=GPa)
#
#
# Indices 1 2 3 4 5 6 
#
# 1 172.9338 47.7360 7.6134 0.0000 0.0000 0.0000
# 2 47.7360 47.1209 -0.0845 0.0000 0.0000 0.0000
# 3 7.6134 -0.0845 27.0787 0.0000 0.0000 0.0000
# 4 0.0000 0.0000 0.0000 15.6636 0.0000 0.0000
# 5 0.0000 0.0000 0.0000 0.0000 6.7517 0.0000
# 6 0.0000 0.0000 0.0000 0.0000 0.0000 22.3328
#
#
#
# Elastic Compliance Matrix: (Units=1/GPa)
#
#
# Indices 1 2 3 4 5 6 
#
# 1 0.008171 -0.008282 -0.002323 0.000000 0.000000 0.000000
# 2 -0.008282 0.029616 0.002421 0.000000 0.000000 0.000000
# 3 -0.002323 0.002421 0.037590 0.000000 0.000000 0.000000
# 4 0.000000 0.000000 0.000000 0.063842 0.000000 0.000000
# 5 0.000000 0.000000 0.000000 0.000000 0.148110 0.000000
# 6 0.000000 0.000000 0.000000 0.000000 0.000000 0.044777
#
#
# Mechanical properties :
#
#
# Convention : Reuss Voigt Hill
#
# Bulk Modulus (GPa) = 16.94649 39.74034 28.34341
# Shear Modulus (GPa) = 13.58162 21.74086 17.66124
#
# Velocity S-wave (km/s) = 2.64907 3.35163 3.02084
# Velocity P-wave (km/s) = 4.25593 5.95915 5.17805
#
# Compressibility (1/GPa) = 0.05900928
#
# Stress axis : x y z
#
# Youngs Moduli (GPa) = 122.38565 33.76531 26.60270
#
# Poissons Ratio (x) = 0.27963 0.06180
# Poissons Ratio (y) = 1.01356 -0.06440
# Poissons Ratio (z) = 0.28432 -0.08174
#
# Static dielectric constant tensor:
#      x y z
#    x 1.738730 0.000000 0.000000 
#    y 0.000000 1.655960 0.000000 
#    z 0.000000 0.000000 1.715200 
# 
# From -- ./inp_files/12316.got.cif
#   From: 2010.05.17/outbox.cif.g08.bks.cpg/sg65_7_cif.got.tgz:12316.got - 2010.06.03 17:01:31.
