data_PCOD9488047
_publ_section_title
;
Structure prediction by ZEFSAII (Michael W. Deem and Ramdas Pophale) SiO2 
 PCOD9488047
Probable space group: C M M M
;
_chemical_formula_sum "Si O2"
_cell_formula_units_Z 120
_cell_length_a 8.649763
_cell_length_b 28.930508
_cell_length_c 29.539026
_cell_angle_alpha 90.000000
_cell_angle_beta 90.000000
_cell_angle_gamma 90.000000
_cell_volume 7391.906057
_symmetry_space_group_name_H-M "C M M M"
_symmetry_group_IT_number 65
_symmetry_cell_setting 'orthorhombic'
loop_
_space_group_symop_operation_xyz
x,y,z
-x,-y,z
x,-y,-z
-x,y,-z
-x,-y,-z
x,y,-z
-x,y,z
x,-y,z
1/2+x,1/2+y,z
1/2-x,1/2-y,z
1/2+x,1/2-y,-z
1/2-x,1/2+y,-z
1/2-x,1/2-y,-z
1/2+x,1/2+y,-z
1/2-x,1/2+y,z
1/2+x,1/2-y,z
loop_
_atom_site_type_symbol
_atom_site_label
_atom_site_fract_x
_atom_site_fract_y
_atom_site_fract_z
Si Si1 0.813700 0.140916 0.264557
Si Si2 0.815671 0.198136 0.000000
Si Si3 0.186673 0.802329 0.548644
Si Si4 0.315452 0.447042 0.880405
Si Si5 0.183817 0.645525 0.086952
Si Si6 0.314375 0.301776 0.174417
Si Si7 0.812875 0.197826 0.647936
Si Si8 0.816388 0.552876 0.779810
O O1 0.773616 0.173017 0.221480
O O2 0.762055 0.165690 0.310669
O O3 0.741572 0.091042 0.255099
O O4 0.000000 0.136608 0.265575
O O5 0.750000 0.250000 0.000000
O O6 0.757100 0.171248 0.044234
O O7 0.000000 0.200099 0.000000
O O8 0.235582 0.823500 0.500000
O O9 0.250000 0.750000 0.548440
O O10 0.233815 0.820917 0.598024
O O11 0.000000 0.801124 0.548591
O O12 0.500000 0.442215 0.883917
O O13 0.272912 0.500000 0.891950
O O14 0.234723 0.407863 0.909953
O O15 0.266533 0.439504 0.828111
O O16 0.244872 0.670019 0.132514
O O17 0.000000 0.649176 0.084910
O O18 0.500000 0.301099 0.170327
O O19 0.250000 0.250000 0.174104
O O20 0.750000 0.250000 0.653083
O O21 0.000000 0.200303 0.649346
O O22 0.783910 0.500000 0.765773
O O23 0.000000 0.557528 0.786884
#
# Coordination Sequence:
#
# PCOD9488047 Si02
#       8
#    16   8  16  16  16  16  16  16
#     4  10  20  32  47  68  98 132 166 201 244 298
#     4  12  26  46  67  86 111 140 174 213 255 299
#     4   8  13  22  37  56  81 116 160 206 247 287
#     4  10  20  36  59  85 111 138 168 204 249 299
#     4  12  24  40  61  85 110 137 172 211 252 296
#     4  11  22  35  51  73 101 135 173 207 245 291
#     4   9  17  28  41  62  92 129 168 204 245 292
#     4  10  20  33  51  75 100 128 164 204 246 295
#
# _framework density 16.233972999999999
#
# number of rings (size 3 to 8) (size 9 to 14) (size 15 to 20)
#    0.000    1.867    1.333    3.800    0.000    2.667 
#    0.000    0.333    0.000    2.000    0.000    0.000 
#    0.000    0.533    0.000    6.667    0.000    1.067 
#
# Total GULP energy -334771.828406 kJ/mol
# GULP energy per Si atom -5579.530473 kJ/mol
# Density = 1.619702 g / cm^3
# Si number density = 16.233973 Si / 1000 Ang^3
#
#
#
# Elastic Constant Matrix: (Units=GPa)
#
#
# Indices 1 2 3 4 5 6 
#
# 1 57.4095 40.7194 46.9590 0.0000 0.0000 0.0000
# 2 40.7194 109.1709 68.0013 0.0000 0.0000 0.0000
# 3 46.9590 68.0013 143.9424 0.0000 0.0000 0.0000
# 4 0.0000 0.0000 0.0000 7.5986 0.0000 0.0000
# 5 0.0000 0.0000 0.0000 0.0000 10.2402 0.0000
# 6 0.0000 0.0000 0.0000 0.0000 0.0000 28.0989
#
#
#
# Elastic Compliance Matrix: (Units=1/GPa)
#
#
# Indices 1 2 3 4 5 6 
#
# 1 0.026574 -0.006393 -0.005649 0.000000 0.000000 0.000000
# 2 -0.006393 0.014517 -0.004773 0.000000 0.000000 0.000000
# 3 -0.005649 -0.004773 0.011045 0.000000 0.000000 0.000000
# 4 0.000000 0.000000 0.000000 0.131603 0.000000 0.000000
# 5 0.000000 0.000000 0.000000 0.000000 0.097655 0.000000
# 6 0.000000 0.000000 0.000000 0.000000 0.000000 0.035589
#
#
# Mechanical properties :
#
#
# Convention : Reuss Voigt Hill
#
# Bulk Modulus (GPa) = 54.03497 69.09801 61.56649
# Shear Modulus (GPa) = 14.01421 19.51040 16.76231
#
# Velocity S-wave (km/s) = 2.94132 3.47050 3.21681
# Velocity P-wave (km/s) = 6.70019 7.66259 7.19750
#
# Compressibility (1/GPa) = 0.01850653
#
# Stress axis : x y z
#
# Youngs Moduli (GPa) = 37.63089 68.88349 90.53961
#
# Poissons Ratio (x) = 0.44037 0.51148
# Poissons Ratio (y) = 0.24057 0.43211
# Poissons Ratio (z) = 0.21258 0.32876
#
# Static dielectric constant tensor:
#      x y z
#    x 1.528940 0.000000 0.000000 
#    y 0.000000 1.526390 0.000000 
#    z 0.000000 0.000000 1.561560 
# 
# From -- ./inp_files/73864.got.cif
#   From: 2010.05.17/outbox.cif.g08.bks.cpg/sg65_37_cif.got.tgz:73864.got - 2010.06.03 17:01:31.
