data_PCOD9488628
_publ_section_title
;
Structure prediction by ZEFSAII (Michael W. Deem and Ramdas Pophale) SiO2 
 PCOD9488628
Probable space group: C M M M
;
_chemical_formula_sum "Si O2"
_cell_formula_units_Z 88
_cell_length_a 8.816850
_cell_length_b 18.583455
_cell_length_c 29.864970
_cell_angle_alpha 90.000000
_cell_angle_beta 90.000000
_cell_angle_gamma 90.000000
_cell_volume 4893.301724
_symmetry_space_group_name_H-M "C M M M"
_symmetry_group_IT_number 65
_symmetry_cell_setting 'orthorhombic'
loop_
_space_group_symop_operation_xyz
x,y,z
-x,-y,z
x,-y,-z
-x,y,-z
-x,-y,-z
x,y,-z
-x,y,z
x,-y,z
1/2+x,1/2+y,z
1/2-x,1/2-y,z
1/2+x,1/2-y,-z
1/2-x,1/2+y,-z
1/2-x,1/2-y,-z
1/2+x,1/2+y,-z
1/2-x,1/2+y,z
1/2+x,1/2-y,z
loop_
_atom_site_type_symbol
_atom_site_label
_atom_site_fract_x
_atom_site_fract_y
_atom_site_fract_z
Si Si1 0.318096 0.330725 0.314470
Si Si2 0.822896 0.086502 0.857916
Si Si3 0.177694 0.587360 0.950630
Si Si4 0.314740 0.417749 0.500000
Si Si5 0.182810 0.170066 0.587007
Si Si6 0.820080 0.669993 0.776349
O O1 0.500000 0.327932 0.309945
O O2 0.250000 0.250000 0.315780
O O3 0.280106 0.361433 0.363650
O O4 0.247423 0.363457 0.269593
O O5 0.769825 0.111244 0.907249
O O6 0.727376 0.123966 0.819183
O O7 0.000000 0.102707 0.851415
O O8 0.803190 0.000000 0.855772
O O9 0.185853 0.500000 0.951169
O O10 0.000000 0.605922 0.945680
O O11 0.230053 0.612028 0.000000
O O12 0.264724 0.500000 0.500000
O O13 0.500000 0.417421 0.500000
O O14 0.265755 0.376991 0.544999
O O15 0.250000 0.250000 0.583478
O O16 0.000000 0.175750 0.585296
O O17 0.750000 0.750000 0.781107
O O18 0.000000 0.675872 0.772397
#
# Coordination Sequence:
#
# PCOD9488628 Si02
#       6
#    16  16  16   8  16  16
#     4   9  16  28  46  70  96 121 157 200 242 285
#     4  10  20  33  50  74 103 132 165 206 248 292
#     4   8  14  26  45  69  97 129 165 204 245 289
#     4   9  17  30  47  69  98 129 160 192 232 285
#     4   9  17  29  49  73  94 121 158 200 239 278
#     4  11  21  34  53  74  99 131 166 203 247 299
#
# _framework density 17.983768000000001
#
# number of rings (size 3 to 8) (size 9 to 14) (size 15 to 20)
#    0.000    2.636    0.000    4.636    0.000    2.182 
#    0.000    2.727    0.000    4.909    0.000    0.000 
#    0.000    0.000    0.000    0.000    0.000    0.000 
#
# Total GULP energy -245166.499867 kJ/mol
# GULP energy per Si atom -5571.965906 kJ/mol
# Density = 1.794284 g / cm^3
# Si number density = 17.983768 Si / 1000 Ang^3
#
#
#
# Elastic Constant Matrix: (Units=GPa)
#
#
# Indices 1 2 3 4 5 6 
#
# 1 79.0011 20.2185 61.0457 0.0000 0.0000 0.0000
# 2 20.2185 25.2333 37.3596 0.0000 0.0000 0.0000
# 3 61.0457 37.3596 178.5177 0.0000 0.0000 0.0000
# 4 0.0000 0.0000 0.0000 24.0852 0.0000 0.0000
# 5 0.0000 0.0000 0.0000 0.0000 31.3130 0.0000
# 6 0.0000 0.0000 0.0000 0.0000 0.0000 16.9182
#
#
#
# Elastic Compliance Matrix: (Units=1/GPa)
#
#
# Indices 1 2 3 4 5 6 
#
# 1 0.018200 -0.007779 -0.004596 0.000000 0.000000 0.000000
# 2 -0.007779 0.060747 -0.010053 0.000000 0.000000 0.000000
# 3 -0.004596 -0.010053 0.009277 0.000000 0.000000 0.000000
# 4 0.000000 0.000000 0.000000 0.041519 0.000000 0.000000
# 5 0.000000 0.000000 0.000000 0.000000 0.031936 0.000000
# 6 0.000000 0.000000 0.000000 0.000000 0.000000 0.059108
#
#
# Mechanical properties :
#
#
# Convention : Reuss Voigt Hill
#
# Bulk Modulus (GPa) = 23.05774 57.77773 40.41773
# Shear Modulus (GPa) = 17.85088 25.40517 21.62803
#
# Velocity S-wave (km/s) = 3.15399 3.76263 3.47167
# Velocity P-wave (km/s) = 5.11007 7.14661 6.21236
#
# Compressibility (1/GPa) = 0.04336938
#
# Stress axis : x y z
#
# Youngs Moduli (GPa) = 54.94486 16.46173 107.79233
#
# Poissons Ratio (x) = 0.12805 0.49539
# Poissons Ratio (y) = 0.42740 1.08363
# Poissons Ratio (z) = 0.25251 0.16549
#
# Static dielectric constant tensor:
#      x y z
#    x 1.604910 0.000000 0.000000 
#    y 0.000000 1.595370 0.000000 
#    z 0.000000 0.000000 1.664190 
# 
# From -- ./inp_files/76583.got.cif
#   From: 2010.05.17/outbox.cif.g08.bks.cpg/sg65_39_cif.got.tgz:76583.got - 2010.06.03 17:01:31.
