data_PCOD9488718
_publ_section_title
;
Structure prediction by ZEFSAII (Michael W. Deem and Ramdas Pophale) SiO2 
 PCOD9488718
Probable space group: C M M M
;
_chemical_formula_sum "Si O2"
_cell_formula_units_Z 80
_cell_length_a 15.578885
_cell_length_b 29.314115
_cell_length_c 7.640793
_cell_angle_alpha 90.000000
_cell_angle_beta 90.000000
_cell_angle_gamma 90.000000
_cell_volume 3489.406718
_symmetry_space_group_name_H-M "C M M M"
_symmetry_group_IT_number 65
_symmetry_cell_setting 'orthorhombic'
loop_
_space_group_symop_operation_xyz
x,y,z
-x,-y,z
x,-y,-z
-x,y,-z
-x,-y,-z
x,y,-z
-x,y,z
x,-y,z
1/2+x,1/2+y,z
1/2-x,1/2-y,z
1/2+x,1/2-y,-z
1/2-x,1/2+y,-z
1/2-x,1/2-y,-z
1/2+x,1/2+y,-z
1/2-x,1/2+y,z
1/2+x,1/2-y,z
loop_
_atom_site_type_symbol
_atom_site_label
_atom_site_fract_x
_atom_site_fract_y
_atom_site_fract_z
Si Si1 0.218214 0.049927 0.785631
Si Si2 0.902413 0.426289 0.201243
Si Si3 0.100353 0.326668 0.303366
Si Si4 0.097980 0.132145 0.207535
Si Si5 0.347604 0.266935 0.699155
O O1 0.316988 0.051693 0.720436
O O2 0.160407 0.092325 0.723127
O O3 0.181580 0.000000 0.742752
O O4 0.222573 0.052926 0.000000
O O5 0.876224 0.372619 0.204819
O O6 0.000000 0.432346 0.275204
O O7 0.908696 0.441203 0.000000
O O8 0.141138 0.326850 0.500000
O O9 0.110924 0.277630 0.214576
O O10 0.000000 0.331656 0.326771
O O11 0.137350 0.182835 0.229293
O O12 0.000000 0.131292 0.277459
O O13 0.091904 0.124281 0.000000
O O14 0.381382 0.268954 0.500000
O O15 0.250000 0.250000 0.696763
#
# Coordination Sequence:
#
# PCOD9488718 Si02
#       5
#    16  16  16  16  16
#     4   9  18  33  52  73  98 128 164 211 263 308
#     4   9  17  29  48  75 102 128 162 204 251 304
#     4   9  17  29  45  66  95 130 161 188 228 288
#     4  10  21  35  52  76 103 134 175 217 255 297
#     4  10  20  33  51  75 102 134 170 206 250 305
#
# _framework density 22.926532000000002
#
# number of rings (size 3 to 8) (size 9 to 14) (size 15 to 20)
#    0.000    2.600    0.000    1.800    0.000    3.200 
#    0.000    6.000    0.000    2.400    0.000    4.200 
#    0.000    0.000    0.000    0.000    0.000    0.000 
#
# Total GULP energy -222756.227617 kJ/mol
# GULP energy per Si atom -5568.905690 kJ/mol
# Density = 2.287435 g / cm^3
# Si number density = 22.926532 Si / 1000 Ang^3
#
#
#
# Elastic Constant Matrix: (Units=GPa)
#
#
# Indices 1 2 3 4 5 6 
#
# 1 115.2714 72.4770 4.9179 0.0000 0.0000 0.0000
# 2 72.4770 176.1300 0.0588 0.0000 0.0000 0.0000
# 3 4.9179 0.0588 46.0558 0.0000 0.0000 0.0000
# 4 0.0000 0.0000 0.0000 39.0758 0.0000 0.0000
# 5 0.0000 0.0000 0.0000 0.0000 -3.7089 0.0000
# 6 0.0000 0.0000 0.0000 0.0000 0.0000 13.5468
#
#
#
# Elastic Compliance Matrix: (Units=1/GPa)
#
#
# Indices 1 2 3 4 5 6 
#
# 1 0.011775 -0.004845 -0.001251 0.000000 0.000000 0.000000
# 2 -0.004845 0.007671 0.000508 0.000000 0.000000 0.000000
# 3 -0.001251 0.000508 0.021846 0.000000 0.000000 0.000000
# 4 0.000000 0.000000 0.000000 0.025591 0.000000 0.000000
# 5 0.000000 0.000000 0.000000 0.000000 -0.269621 0.000000
# 6 0.000000 0.000000 0.000000 0.000000 0.000000 0.073818
#
#
# Mechanical properties :
#
#
# Convention : Reuss Voigt Hill
#
# Bulk Modulus (GPa) = 33.20639 54.70719 43.95679
# Shear Modulus (GPa) = -46.42314 27.11629 -9.65342
#
# Velocity S-wave (km/s) = -4.50473 3.44284 -2.05420
# Velocity P-wave (km/s) = 3.54140 6.30222 3.68622
#
# Compressibility (1/GPa) = 0.03011469
#
# Stress axis : x y z
#
# Youngs Moduli (GPa) = 84.92732 130.35933 45.77553
#
# Poissons Ratio (x) = 0.63157 0.05727
# Poissons Ratio (y) = 0.41146 -0.02323
# Poissons Ratio (z) = 0.10626 -0.06616
#
# Static dielectric constant tensor:
#      x y z
#    x 2.003540 0.000000 0.000000 
#    y 0.000000 1.916730 0.000000 
#    z 0.000000 0.000000 1.914670 
# 
# From -- ./inp_files/9600.got.cif
#   From: 2010.05.17/outbox.cif.g08.bks.cpg/sg65_5_cif.got.tgz:9600.got - 2010.06.03 17:01:31.
