data_PCOD9488730
_publ_section_title
;
Structure prediction by ZEFSAII (Michael W. Deem and Ramdas Pophale) SiO2 
 PCOD9488730
Probable space group: C M M M
;
_chemical_formula_sum "Si O2"
_cell_formula_units_Z 96
_cell_length_a 29.998853
_cell_length_b 8.682261
_cell_length_c 19.334033
_cell_angle_alpha 90.000000
_cell_angle_beta 90.000000
_cell_angle_gamma 90.000000
_cell_volume 5035.701082
_symmetry_space_group_name_H-M "C M M M"
_symmetry_group_IT_number 65
_symmetry_cell_setting 'orthorhombic'
loop_
_space_group_symop_operation_xyz
x,y,z
-x,-y,z
x,-y,-z
-x,y,-z
-x,-y,-z
x,y,-z
-x,y,z
x,-y,z
1/2+x,1/2+y,z
1/2-x,1/2-y,z
1/2+x,1/2-y,-z
1/2-x,1/2+y,-z
1/2-x,1/2-y,-z
1/2+x,1/2+y,-z
1/2-x,1/2+y,z
1/2+x,1/2-y,z
loop_
_atom_site_type_symbol
_atom_site_label
_atom_site_fract_x
_atom_site_fract_y
_atom_site_fract_z
Si Si1 0.169075 0.814852 0.923040
Si Si2 0.570458 0.820444 0.077798
Si Si3 0.118043 0.321907 0.308186
Si Si4 0.549923 0.673019 0.786330
Si Si5 0.949249 0.814881 0.418837
Si Si6 0.702273 0.316119 0.229559
O O1 0.122777 0.722503 0.921460
O O2 0.193756 0.772713 0.851630
O O3 0.160457 0.000000 0.919779
O O4 0.189573 0.785724 0.000000
O O5 0.548891 0.708557 0.133026
O O6 0.563647 0.000000 0.095487
O O7 0.554343 0.796538 0.000000
O O8 0.126838 0.500000 0.320935
O O9 0.082562 0.295678 0.246749
O O10 0.090746 0.251004 0.372701
O O11 0.162921 0.243487 0.279492
O O12 0.500000 0.682461 0.758192
O O13 0.567160 0.500000 0.773158
O O14 0.942649 0.780243 0.500000
O O15 0.000000 0.761377 0.400902
O O16 0.949208 0.000000 0.410722
O O17 0.702771 0.500000 0.232413
O O18 0.750000 0.250000 0.250484
#
# Coordination Sequence:
#
# PCOD9488730 Si02
#       6
#    16  16  16  16  16  16
#     4   9  18  34  56  79 106 145 191 240 298 360
#     4  10  20  33  51  75 104 140 184 237 293 348
#     4  12  24  38  59  87 121 156 192 238 292 344
#     4  11  23  37  54  77 107 148 195 238 285 346
#     4   9  19  38  65  96 129 164 199 233 275 335
#     4  11  23  39  60  85 116 153 198 248 299 357
#
# _framework density 19.063879
#
# number of rings (size 3 to 8) (size 9 to 14) (size 15 to 20)
#    0.000    1.667    1.667    4.000    0.000    6.333 
#    0.000    2.500    0.000    0.500    0.000    0.000 
#    0.000    0.000    0.000    0.000    0.000    0.000 
#
# Total GULP energy -267860.802874 kJ/mol
# GULP energy per Si atom -5580.433393 kJ/mol
# Density = 1.902049 g / cm^3
# Si number density = 19.063879 Si / 1000 Ang^3
#
#
#
# Elastic Constant Matrix: (Units=GPa)
#
#
# Indices 1 2 3 4 5 6 
#
# 1 123.6138 36.4414 59.1719 0.0000 0.0000 0.0000
# 2 36.4414 45.1325 37.0995 0.0000 0.0000 0.0000
# 3 59.1719 37.0995 117.2584 0.0000 0.0000 0.0000
# 4 0.0000 0.0000 0.0000 23.6299 0.0000 0.0000
# 5 0.0000 0.0000 0.0000 0.0000 27.7202 0.0000
# 6 0.0000 0.0000 0.0000 0.0000 0.0000 20.2292
#
#
#
# Elastic Compliance Matrix: (Units=1/GPa)
#
#
# Indices 1 2 3 4 5 6 
#
# 1 0.011855 -0.006291 -0.003992 0.000000 0.000000 0.000000
# 2 -0.006291 0.033283 -0.007356 0.000000 0.000000 0.000000
# 3 -0.003992 -0.007356 0.012870 0.000000 0.000000 0.000000
# 4 0.000000 0.000000 0.000000 0.042319 0.000000 0.000000
# 5 0.000000 0.000000 0.000000 0.000000 0.036075 0.000000
# 6 0.000000 0.000000 0.000000 0.000000 0.000000 0.049434
#
#
# Mechanical properties :
#
#
# Convention : Reuss Voigt Hill
#
# Bulk Modulus (GPa) = 43.99342 61.27001 52.63172
# Shear Modulus (GPa) = 21.86362 24.53531 23.19947
#
# Velocity S-wave (km/s) = 3.39021 3.59138 3.49224
# Velocity P-wave (km/s) = 6.20094 7.02897 6.62790
#
# Compressibility (1/GPa) = 0.02273067
#
# Stress axis : x y z
#
# Youngs Moduli (GPa) = 84.35135 30.04536 77.69948
#
# Poissons Ratio (x) = 0.18900 0.31019
# Poissons Ratio (y) = 0.53062 0.57156
# Poissons Ratio (z) = 0.33674 0.22101
#
# Static dielectric constant tensor:
#      x y z
#    x 1.662430 0.000000 0.000000 
#    y 0.000000 1.637530 0.000000 
#    z 0.000000 0.000000 1.701420 
# 
# From -- ./inp_files/65746.got.cif
#   From: 2010.05.17/outbox.cif.g08.bks.cpg/sg65_33_cif.got.tgz:65746.got - 2010.06.03 17:01:31.
