data_PCOD9488570
_publ_section_title
;
Structure prediction by ZEFSAII (Michael W. Deem and Ramdas Pophale) SiO2 
 PCOD9488570
Probable space group: C M M M
;
_chemical_formula_sum "Si O2"
_cell_formula_units_Z 104
_cell_length_a 32.863133
_cell_length_b 20.756501
_cell_length_c 8.873761
_cell_angle_alpha 90.000000
_cell_angle_beta 90.000000
_cell_angle_gamma 90.000000
_cell_volume 6053.002269
_symmetry_space_group_name_H-M "C M M M"
_symmetry_group_IT_number 65
_symmetry_cell_setting 'orthorhombic'
loop_
_space_group_symop_operation_xyz
x,y,z
-x,-y,z
x,-y,-z
-x,y,-z
-x,-y,-z
x,y,-z
-x,y,z
x,-y,z
1/2+x,1/2+y,z
1/2-x,1/2-y,z
1/2+x,1/2-y,-z
1/2-x,1/2+y,-z
1/2-x,1/2-y,-z
1/2+x,1/2+y,-z
1/2-x,1/2+y,z
1/2+x,1/2-y,z
loop_
_atom_site_type_symbol
_atom_site_label
_atom_site_fract_x
_atom_site_fract_y
_atom_site_fract_z
Si Si1 0.062881 0.660861 0.175521
Si Si2 0.136098 0.819290 0.681615
Si Si3 0.805305 0.074778 0.820816
Si Si4 0.215713 0.574255 0.318977
Si Si5 0.842960 0.681503 0.822604
Si Si6 0.000000 0.575858 0.330045
Si Si7 0.955412 0.797392 0.681167
O O1 0.111142 0.654826 0.190954
O O2 0.039183 0.601242 0.243097
O O3 0.048060 0.723900 0.264073
O O4 0.053255 0.669549 0.000000
O O5 0.137653 0.817900 0.500000
O O6 0.162756 0.877069 0.746442
O O7 0.154128 0.751733 0.744540
O O8 0.088373 0.826346 0.729478
O O9 0.760991 0.083504 0.746515
O O10 0.817022 0.000000 0.797438
O O11 0.802555 0.086366 0.000000
O O12 0.216359 0.579014 0.500000
O O13 0.203210 0.500000 0.280026
O O14 0.187128 0.629902 0.251818
O O15 0.833365 0.689458 0.000000
O O16 0.000000 0.500000 0.336018
O O17 0.000000 0.602299 0.500000
O O18 0.955538 0.799639 0.500000
O O19 0.000000 0.822922 0.732448
#
# Coordination Sequence:
#
# PCOD9488570 Si02
#       7
#    16  16  16  16  16   8  16
#     4  10  20  33  50  72  98 131 171 217 265 310
#     4  10  20  34  55  84 113 141 179 223 268 319
#     4  10  21  38  59  81 108 142 178 218 268 326
#     4  10  21  37  57  80 106 140 183 226 270 323
#     4  10  21  36  54  79 111 142 177 223 272 322
#     4  11  23  35  47  65  93 133 178 221 266 315
#     4   9  17  31  53  78 105 137 170 209 259 314
#
# _framework density 17.181557000000002
#
# number of rings (size 3 to 8) (size 9 to 14) (size 15 to 20)
#    0.000    2.077    0.769    2.538    0.000    6.154 
#    0.000    6.154    0.000    0.462    0.000    3.231 
#    0.000    0.000    0.000    0.000    0.000    0.000 
#
# Total GULP energy -289977.470459 kJ/mol
# GULP energy per Si atom -5576.489817 kJ/mol
# Density = 1.714245 g / cm^3
# Si number density = 17.181557 Si / 1000 Ang^3
#
#
#
# Elastic Constant Matrix: (Units=GPa)
#
#
# Indices 1 2 3 4 5 6 
#
# 1 120.5559 78.9382 51.7397 0.0000 0.0000 0.0000
# 2 78.9382 89.4305 50.6722 0.0000 0.0000 0.0000
# 3 51.7397 50.6722 59.2659 0.0000 0.0000 0.0000
# 4 0.0000 0.0000 0.0000 26.1802 0.0000 0.0000
# 5 0.0000 0.0000 0.0000 0.0000 17.0930 0.0000
# 6 0.0000 0.0000 0.0000 0.0000 0.0000 33.5597
#
#
#
# Elastic Compliance Matrix: (Units=1/GPa)
#
#
# Indices 1 2 3 4 5 6 
#
# 1 0.020297 -0.015276 -0.004658 0.000000 0.000000 0.000000
# 2 -0.015276 0.033186 -0.015038 0.000000 0.000000 0.000000
# 3 -0.004658 -0.015038 0.033798 0.000000 0.000000 0.000000
# 4 0.000000 0.000000 0.000000 0.038197 0.000000 0.000000
# 5 0.000000 0.000000 0.000000 0.000000 0.058504 0.000000
# 6 0.000000 0.000000 0.000000 0.000000 0.000000 0.029798
#
#
# Mechanical properties :
#
#
# Convention : Reuss Voigt Hill
#
# Bulk Modulus (GPa) = 57.68470 70.21695 63.95083
# Shear Modulus (GPa) = 17.27105 21.22671 19.24888
#
# Velocity S-wave (km/s) = 3.17394 3.51869 3.35075
# Velocity P-wave (km/s) = 6.86137 7.58054 7.22990
#
# Compressibility (1/GPa) = 0.01733562
#
# Stress axis : x y z
#
# Youngs Moduli (GPa) = 49.26955 30.13289 29.58794
#
# Poissons Ratio (x) = 0.46031 0.13783
# Poissons Ratio (y) = 0.75263 0.44495
# Poissons Ratio (z) = 0.22951 0.45315
#
# Static dielectric constant tensor:
#      x y z
#    x 1.595310 0.000000 0.000000 
#    y 0.000000 1.550490 0.000000 
#    z 0.000000 0.000000 1.581450 
# 
# From -- ./inp_files/18619.got.cif
#   From: 2010.05.17/outbox.cif.g08.bks.cpg/sg65_10_cif.got.tgz:18619.got - 2010.06.03 17:01:31.
