data_PCOD9488042
_publ_section_title
;
Structure prediction by ZEFSAII (Michael W. Deem and Ramdas Pophale) SiO2 
 PCOD9488042
Probable space group: C M M M
;
_chemical_formula_sum "Si O2"
_cell_formula_units_Z 104
_cell_length_a 9.131671
_cell_length_b 30.410402
_cell_length_c 21.822425
_cell_angle_alpha 90.000000
_cell_angle_beta 90.000000
_cell_angle_gamma 90.000000
_cell_volume 6060.039109
_symmetry_space_group_name_H-M "C M M M"
_symmetry_group_IT_number 65
_symmetry_cell_setting 'orthorhombic'
loop_
_space_group_symop_operation_xyz
x,y,z
-x,-y,z
x,-y,-z
-x,y,-z
-x,-y,-z
x,y,-z
-x,y,z
x,-y,z
1/2+x,1/2+y,z
1/2-x,1/2-y,z
1/2+x,1/2-y,-z
1/2-x,1/2+y,-z
1/2-x,1/2-y,-z
1/2+x,1/2+y,-z
1/2-x,1/2+y,z
1/2+x,1/2-y,z
loop_
_atom_site_type_symbol
_atom_site_label
_atom_site_fract_x
_atom_site_fract_y
_atom_site_fract_z
Si Si1 0.175879 0.176463 0.931973
Si Si2 0.669776 0.616896 0.723184
Si Si3 0.333206 0.447115 0.500000
Si Si4 0.338850 0.452991 0.829932
Si Si5 0.332721 0.916409 0.067185
Si Si6 0.675979 0.051985 0.627722
Si Si7 0.677611 0.295476 0.205042
O O1 0.230421 0.126317 0.929497
O O2 0.223825 0.196665 0.866564
O O3 0.000000 0.178251 0.932089
O O4 0.225533 0.193637 0.000000
O O5 0.500000 0.620612 0.701947
O O6 0.670093 0.586491 0.783322
O O7 0.762254 0.588370 0.674854
O O8 0.719313 0.664353 0.749360
O O9 0.343278 0.500000 0.500000
O O10 0.500000 0.429688 0.500000
O O11 0.245452 0.436430 0.438264
O O12 0.500000 0.450860 0.859889
O O13 0.328640 0.500000 0.797324
O O14 0.215397 0.448623 0.880048
O O15 0.500000 0.901823 0.074665
O O16 0.317269 0.936504 0.000000
O O17 0.500000 0.053868 0.625868
O O18 0.714867 0.000000 0.641546
O O19 0.500000 0.293384 0.205481
O O20 0.750000 0.250000 0.225059
#
# Coordination Sequence:
#
# PCOD9488042 Si02
#       7
#    16  16   8  16  16  16  16
#     4   9  17  33  55  73  93 125 165 211 265 327
#     4  10  20  36  54  74 102 138 178 216 255 308
#     4   9  17  31  53  81 114 153 190 219 249 291
#     4  10  20  34  52  71  93 127 171 213 252 303
#     4  10  20  32  47  68  94 124 159 206 261 312
#     4  10  20  33  52  82 118 151 182 218 259 299
#     4  10  21  36  54  77 102 131 170 218 271 324
#
# _framework density 17.161605000000002
#
# number of rings (size 3 to 8) (size 9 to 14) (size 15 to 20)
#    0.000    2.231    1.538    1.615    0.000    6.154 
#    0.000    1.538    0.000    0.000    0.000    0.538 
#    0.000    0.000    0.000    0.000    0.000    0.000 
#
# Total GULP energy -289530.485144 kJ/mol
# GULP energy per Si atom -5567.893945 kJ/mol
# Density = 1.712254 g / cm^3
# Si number density = 17.161605 Si / 1000 Ang^3
#
#
#
# Elastic Constant Matrix: (Units=GPa)
#
#
# Indices 1 2 3 4 5 6 
#
# 1 34.9354 27.9091 42.4911 0.0000 0.0000 0.0000
# 2 27.9091 111.3317 47.7475 0.0000 0.0000 0.0000
# 3 42.4911 47.7475 92.7934 0.0000 0.0000 0.0000
# 4 0.0000 0.0000 0.0000 16.8746 0.0000 0.0000
# 5 0.0000 0.0000 0.0000 0.0000 14.8050 0.0000
# 6 0.0000 0.0000 0.0000 0.0000 0.0000 21.8982
#
#
#
# Elastic Compliance Matrix: (Units=1/GPa)
#
#
# Indices 1 2 3 4 5 6 
#
# 1 0.066414 -0.004627 -0.028031 0.000000 0.000000 0.000000
# 2 -0.004627 0.011848 -0.003978 0.000000 0.000000 0.000000
# 3 -0.028031 -0.003978 0.025659 0.000000 0.000000 0.000000
# 4 0.000000 0.000000 0.000000 0.059261 0.000000 0.000000
# 5 0.000000 0.000000 0.000000 0.000000 0.067545 0.000000
# 6 0.000000 0.000000 0.000000 0.000000 0.000000 0.045666
#
#
# Mechanical properties :
#
#
# Convention : Reuss Voigt Hill
#
# Bulk Modulus (GPa) = 32.62664 52.81732 42.72198
# Shear Modulus (GPa) = 13.89350 18.77640 16.33495
#
# Velocity S-wave (km/s) = 2.84838 3.31130 3.08852
# Velocity P-wave (km/s) = 5.46538 6.74261 6.13731
#
# Compressibility (1/GPa) = 0.03064980
#
# Stress axis : x y z
#
# Youngs Moduli (GPa) = 15.05703 84.40197 38.97274
#
# Poissons Ratio (x) = 0.39055 1.09244
# Poissons Ratio (y) = 0.06967 0.15502
# Poissons Ratio (z) = 0.42206 0.33572
#
# Static dielectric constant tensor:
#      x y z
#    x 1.596350 0.000000 0.000000 
#    y 0.000000 1.580350 0.000000 
#    z 0.000000 0.000000 1.594710 
# 
# From -- ./inp_files/60839.got.cif
#   From: 2010.05.17/outbox.cif.g08.bks.cpg/sg65_31_cif.got.tgz:60839.got - 2010.06.03 17:01:31.
