data_PCOD9488449
_publ_section_title
;
Structure prediction by ZEFSAII (Michael W. Deem and Ramdas Pophale) SiO2 
 PCOD9488449
Probable space group: C M M M
;
_chemical_formula_sum "Si O2"
_cell_formula_units_Z 88
_cell_length_a 19.820625
_cell_length_b 7.768861
_cell_length_c 29.229771
_cell_angle_alpha 90.000000
_cell_angle_beta 90.000000
_cell_angle_gamma 90.000000
_cell_volume 4500.907720
_symmetry_space_group_name_H-M "C M M M"
_symmetry_group_IT_number 65
_symmetry_cell_setting 'orthorhombic'
loop_
_space_group_symop_operation_xyz
x,y,z
-x,-y,z
x,-y,-z
-x,y,-z
-x,-y,-z
x,y,-z
-x,y,z
x,-y,z
1/2+x,1/2+y,z
1/2-x,1/2-y,z
1/2+x,1/2-y,-z
1/2-x,1/2+y,-z
1/2-x,1/2-y,-z
1/2+x,1/2+y,-z
1/2-x,1/2+y,z
1/2+x,1/2-y,z
loop_
_atom_site_type_symbol
_atom_site_label
_atom_site_fract_x
_atom_site_fract_y
_atom_site_fract_z
Si Si1 0.922224 0.211120 0.366624
Si Si2 0.673513 0.292948 0.448072
Si Si3 0.923761 0.293720 0.901315
Si Si4 0.417668 0.199290 0.000000
Si Si5 0.827571 0.792674 0.715791
Si Si6 0.827027 0.795675 0.181439
O O1 0.881279 0.268322 0.411592
O O2 0.880151 0.268694 0.322180
O O3 0.000000 0.265756 0.366213
O O4 0.922038 0.000000 0.366638
O O5 0.663880 0.227462 0.500000
O O6 0.668550 0.500000 0.449626
O O7 0.750000 0.250000 0.433671
O O8 0.928160 0.500000 0.906880
O O9 0.898289 0.224455 0.950669
O O10 0.876594 0.261443 0.858391
O O11 0.000000 0.228969 0.893239
O O12 0.500000 0.199150 0.000000
O O13 0.394733 0.000000 0.000000
O O14 0.750000 0.750000 0.704011
O O15 0.841192 0.726254 0.767307
O O16 0.832457 0.000000 0.716747
O O17 0.750000 0.750000 0.170235
O O18 0.832247 0.000000 0.184274
#
# Coordination Sequence:
#
# PCOD9488449 Si02
#       6
#    16  16  16   8  16  16
#     4   9  17  29  46  69  95 121 151 189 232 275
#     4   9  17  29  47  70  93 120 155 192 228 269
#     4   9  17  31  52  75  98 125 157 193 234 281
#     4   7  12  26  48  71  94 123 157 189 226 277
#     4   9  18  32  50  68  88 120 157 192 230 275
#     4  10  20  33  49  70  96 125 159 198 239 283
#
# _framework density 19.551611999999999
#
# number of rings (size 3 to 8) (size 9 to 14) (size 15 to 20)
#    0.000    3.000    0.000    2.182    0.000    2.182 
#    0.000    4.545    0.000    3.818    0.000    2.545 
#    0.000    0.000    0.000    0.000    0.000    0.000 
#
# Total GULP energy -245276.566194 kJ/mol
# GULP energy per Si atom -5574.467414 kJ/mol
# Density = 1.950711 g / cm^3
# Si number density = 19.551612 Si / 1000 Ang^3
#
#
#
# Elastic Constant Matrix: (Units=GPa)
#
#
# Indices 1 2 3 4 5 6 
#
# 1 151.5765 2.2466 139.9663 0.0000 0.0000 0.0000
# 2 2.2466 26.7544 8.5282 0.0000 0.0000 0.0000
# 3 139.9663 8.5282 180.0269 0.0000 0.0000 0.0000
# 4 0.0000 0.0000 0.0000 7.6386 0.0000 0.0000
# 5 0.0000 0.0000 0.0000 0.0000 39.6937 0.0000
# 6 0.0000 0.0000 0.0000 0.0000 0.0000 16.4334
#
#
#
# Elastic Compliance Matrix: (Units=1/GPa)
#
#
# Indices 1 2 3 4 5 6 
#
# 1 0.023794 0.003959 -0.018687 0.000000 0.000000 0.000000
# 2 0.003959 0.038609 -0.004907 0.000000 0.000000 0.000000
# 3 -0.018687 -0.004907 0.020316 0.000000 0.000000 0.000000
# 4 0.000000 0.000000 0.000000 0.130915 0.000000 0.000000
# 5 0.000000 0.000000 0.000000 0.000000 0.025193 0.000000
# 6 0.000000 0.000000 0.000000 0.000000 0.000000 0.060852
#
#
# Mechanical properties :
#
#
# Convention : Reuss Voigt Hill
#
# Bulk Modulus (GPa) = 23.01567 73.31554 48.16561
# Shear Modulus (GPa) = 14.14704 26.59424 20.37064
#
# Velocity S-wave (km/s) = 2.69285 3.69210 3.23133
# Velocity P-wave (km/s) = 4.63313 7.46695 6.21374
#
# Compressibility (1/GPa) = 0.04344866
#
# Stress axis : x y z
#
# Youngs Moduli (GPa) = 42.02693 25.90093 49.22279
#
# Poissons Ratio (x) = -0.10253 0.91982
# Poissons Ratio (y) = -0.16637 0.24152
# Poissons Ratio (z) = 0.78536 0.12709
#
# Static dielectric constant tensor:
#      x y z
#    x 1.629090 0.000000 0.000000 
#    y 0.000000 1.770320 0.000000 
#    z 0.000000 0.000000 1.727870 
# 
# From -- ./inp_files/77917.got.cif
#   From: 2010.05.17/outbox.cif.g08.bks.cpg/sg65_39_cif.got.tgz:77917.got - 2010.06.03 17:01:31.
