data_PCOD9488839
_publ_section_title
;
Structure prediction by ZEFSAII (Michael W. Deem and Ramdas Pophale) SiO2 
 PCOD9488839
Probable space group: C M M M
;
_chemical_formula_sum "Si O2"
_cell_formula_units_Z 72
_cell_length_a 18.614424
_cell_length_b 19.417104
_cell_length_c 9.047002
_cell_angle_alpha 90.000000
_cell_angle_beta 90.000000
_cell_angle_gamma 90.000000
_cell_volume 3269.932179
_symmetry_space_group_name_H-M "C M M M"
_symmetry_group_IT_number 65
_symmetry_cell_setting 'orthorhombic'
loop_
_space_group_symop_operation_xyz
x,y,z
-x,-y,z
x,-y,-z
-x,y,-z
-x,-y,-z
x,y,-z
-x,y,z
x,-y,z
1/2+x,1/2+y,z
1/2-x,1/2-y,z
1/2+x,1/2-y,-z
1/2-x,1/2+y,-z
1/2-x,1/2-y,-z
1/2+x,1/2+y,-z
1/2-x,1/2+y,z
1/2+x,1/2-y,z
loop_
_atom_site_type_symbol
_atom_site_label
_atom_site_fract_x
_atom_site_fract_y
_atom_site_fract_z
Si Si1 0.083606 0.000000 0.179382
Si Si2 0.353968 0.730974 0.328147
Si Si3 0.000000 0.232912 0.830232
Si Si4 0.147704 0.397343 0.327879
Si Si5 0.500000 0.100082 0.831035
Si Si6 0.793188 0.106459 0.176245
O O1 0.134927 0.935495 0.221252
O O2 0.000000 0.000000 0.231620
O O3 0.079716 0.000000 0.000000
O O4 0.344650 0.712522 0.500000
O O5 0.431018 0.711748 0.261411
O O6 0.350276 0.813508 0.318318
O O7 0.301334 0.684783 0.231300
O O8 0.000000 0.316154 0.835803
O O9 0.000000 0.207124 0.000000
O O10 0.147638 0.415751 0.500000
O O11 0.073359 0.419594 0.251670
O O12 0.220057 0.421448 0.248038
O O13 0.500000 0.076766 0.000000
O O14 0.787354 0.103190 0.000000
#
# Coordination Sequence:
#
# PCOD9488839 Si02
#       6
#     8  16   8  16   8  16
#     4   9  22  44  63  82 111 152 202 254 305 342
#     4  10  20  33  51  80 117 153 187 233 293 356
#     4   9  17  29  47  74 109 148 187 227 273 335
#     4  10  20  35  55  83 122 159 186 226 295 359
#     4   9  17  31  53  82 115 148 187 225 265 337
#     4  11  22  36  59  83 108 147 198 251 295 345
#
# _framework density 22.018805
#
# number of rings (size 3 to 8) (size 9 to 14) (size 15 to 20)
#    0.000    2.111    0.000    3.333    1.556    8.000 
#    0.000    2.222    0.000    3.333    0.000    4.667 
#    0.000    0.000    0.000    0.000    0.000    0.000 
#
# Total GULP energy -201111.950811 kJ/mol
# GULP energy per Si atom -5586.443078 kJ/mol
# Density = 2.196869 g / cm^3
# Si number density = 22.018805 Si / 1000 Ang^3
#
#
#
# Elastic Constant Matrix: (Units=GPa)
#
#
# Indices 1 2 3 4 5 6 
#
# 1 219.1976 33.7810 88.4638 0.0000 0.0000 0.0000
# 2 33.7810 101.3782 34.6099 0.0000 0.0000 0.0000
# 3 88.4638 34.6099 135.7204 0.0000 0.0000 0.0000
# 4 0.0000 0.0000 0.0000 -9.3096 0.0000 0.0000
# 5 0.0000 0.0000 0.0000 0.0000 32.5627 0.0000
# 6 0.0000 0.0000 0.0000 0.0000 0.0000 23.6639
#
#
#
# Elastic Compliance Matrix: (Units=1/GPa)
#
#
# Indices 1 2 3 4 5 6 
#
# 1 0.006243 -0.000757 -0.003876 0.000000 0.000000 0.000000
# 2 -0.000757 0.010896 -0.002285 0.000000 0.000000 0.000000
# 3 -0.003876 -0.002285 0.010477 0.000000 0.000000 0.000000
# 4 0.000000 0.000000 0.000000 -0.107416 0.000000 0.000000
# 5 0.000000 0.000000 0.000000 0.000000 0.030710 0.000000
# 6 0.000000 0.000000 0.000000 0.000000 0.000000 0.042258
#
#
# Mechanical properties :
#
#
# Convention : Reuss Voigt Hill
#
# Bulk Modulus (GPa) = 72.56924 85.55618 79.06271
# Shear Modulus (GPa) = 431.05593 29.34619 230.20106
#
# Velocity S-wave (km/s) = 14.00686 3.65468 10.23594
# Velocity P-wave (km/s) = 17.16447 7.53321 13.25459
#
# Compressibility (1/GPa) = 0.01377994
#
# Stress axis : x y z
#
# Youngs Moduli (GPa) = 160.17543 91.77283 95.44285
#
# Poissons Ratio (x) = 0.06947 0.36997
# Poissons Ratio (y) = 0.12125 0.21811
# Poissons Ratio (z) = 0.62089 0.20973
#
# Static dielectric constant tensor:
#      x y z
#    x 1.662110 0.000000 0.000000 
#    y 0.000000 1.845030 0.000000 
#    z 0.000000 0.000000 1.724810 
# 
# From -- ./inp_files/9320.got.cif
#   From: 2010.05.17/outbox.cif.g08.bks.cpg/sg65_5_cif.got.tgz:9320.got - 2010.06.03 17:01:31.
