data_PCOD9488033
_publ_section_title
;
Structure prediction by ZEFSAII (Michael W. Deem and Ramdas Pophale) SiO2 
 PCOD9488033
Probable space group: C M M M
;
_chemical_formula_sum "Si O2"
_cell_formula_units_Z 80
_cell_length_a 10.419921
_cell_length_b 14.588542
_cell_length_c 25.038284
_cell_angle_alpha 90.000000
_cell_angle_beta 90.000000
_cell_angle_gamma 90.000000
_cell_volume 3806.105985
_symmetry_space_group_name_H-M "C M M M"
_symmetry_group_IT_number 65
_symmetry_cell_setting 'orthorhombic'
loop_
_space_group_symop_operation_xyz
x,y,z
-x,-y,z
x,-y,-z
-x,y,-z
-x,-y,-z
x,y,-z
-x,y,z
x,-y,z
1/2+x,1/2+y,z
1/2-x,1/2-y,z
1/2+x,1/2-y,-z
1/2-x,1/2+y,-z
1/2-x,1/2-y,-z
1/2+x,1/2+y,-z
1/2-x,1/2+y,z
1/2+x,1/2-y,z
loop_
_atom_site_type_symbol
_atom_site_label
_atom_site_fract_x
_atom_site_fract_y
_atom_site_fract_z
Si Si1 0.860137 0.108119 0.141077
Si Si2 0.353706 0.111900 0.060362
Si Si3 0.346748 0.664271 0.737844
Si Si4 0.000000 0.140583 0.439543
Si Si5 0.000000 0.635993 0.562670
Si Si6 0.753933 0.862110 0.373611
O O1 0.744782 0.144390 0.105168
O O2 0.841387 0.117659 0.204487
O O3 0.000000 0.148776 0.128021
O O4 0.866162 0.000000 0.129519
O O5 0.500000 0.141243 0.070160
O O6 0.355387 0.000000 0.061311
O O7 0.316070 0.138402 0.000000
O O8 0.500000 0.685254 0.726875
O O9 0.250000 0.750000 0.743062
O O10 0.288034 0.610945 0.687014
O O11 0.126727 0.110382 0.409566
O O12 0.000000 0.110417 0.500000
O O13 0.000000 0.252425 0.439048
O O14 0.875580 0.608313 0.596963
O O15 0.000000 0.607200 0.500000
O O16 0.750000 0.750000 0.372386
#
# Coordination Sequence:
#
# PCOD9488033 Si02
#       6
#    16  16  16   8   8  16
#     4   9  18  32  49  71  98 124 155 194 232 272
#     4   8  14  26  45  70  98 124 151 187 232 277
#     4  10  20  32  47  67  93 127 160 191 229 275
#     4   9  14  22  36  54  79 111 144 179 226 274
#     4   9  16  24  36  56  83 113 146 183 228 276
#     4   9  16  25  37  56  83 115 148 183 225 274
#
# _framework density 21.018857000000001
#
# number of rings (size 3 to 8) (size 9 to 14) (size 15 to 20)
#    0.000    3.000    1.000    1.200    4.200    3.600 
#    0.000    2.000    0.000    0.600    0.000    0.000 
#    0.000    4.800    0.000    0.000    0.000    0.000 
#
# Total GULP energy -223019.183030 kJ/mol
# GULP energy per Si atom -5575.479576 kJ/mol
# Density = 2.097102 g / cm^3
# Si number density = 21.018857 Si / 1000 Ang^3
#
#
#
# Elastic Constant Matrix: (Units=GPa)
#
#
# Indices 1 2 3 4 5 6 
#
# 1 195.9402 8.4500 126.7009 0.0000 0.0000 0.0000
# 2 8.4500 61.1769 4.3676 0.0000 0.0000 0.0000
# 3 126.7009 4.3676 183.1212 0.0000 0.0000 0.0000
# 4 0.0000 0.0000 0.0000 11.8193 0.0000 0.0000
# 5 0.0000 0.0000 0.0000 0.0000 49.2237 0.0000
# 6 0.0000 0.0000 0.0000 0.0000 0.0000 -8.3206
#
#
#
# Elastic Compliance Matrix: (Units=1/GPa)
#
#
# Indices 1 2 3 4 5 6 
#
# 1 0.009277 -0.000825 -0.006399 0.000000 0.000000 0.000000
# 2 -0.000825 0.016447 0.000178 0.000000 0.000000 0.000000
# 3 -0.006399 0.000178 0.009884 0.000000 0.000000 0.000000
# 4 0.000000 0.000000 0.000000 0.084607 0.000000 0.000000
# 5 0.000000 0.000000 0.000000 0.000000 0.020315 0.000000
# 6 0.000000 0.000000 0.000000 0.000000 0.000000 -0.120183
#
#
# Mechanical properties :
#
#
# Convention : Reuss Voigt Hill
#
# Bulk Modulus (GPa) = 46.47369 79.91949 63.19659
# Shear Modulus (GPa) = 120.16074 30.59246 75.37660
#
# Velocity S-wave (km/s) = 7.56916 3.81921 5.99494
# Velocity P-wave (km/s) = 9.92714 7.58642 8.83464
#
# Compressibility (1/GPa) = 0.02151755
#
# Stress axis : x y z
#
# Youngs Moduli (GPa) = 107.79390 60.80056 101.17283
#
# Poissons Ratio (x) = 0.05013 0.64741
# Poissons Ratio (y) = 0.08888 -0.01803
# Poissons Ratio (z) = 0.68978 -0.01083
#
# Static dielectric constant tensor:
#      x y z
#    x 1.746750 0.000000 0.000000 
#    y 0.000000 1.829440 0.000000 
#    z 0.000000 0.000000 1.731520 
# 
# From -- ./inp_files/67794.got.cif
#   From: 2010.05.17/outbox.cif.g08.bks.cpg/sg65_34_cif.got.tgz:67794.got - 2010.06.03 17:01:31.
