data_PCOD9488232
_publ_section_title
;
Structure prediction by ZEFSAII (Michael W. Deem and Ramdas Pophale) SiO2 
 PCOD9488232
Probable space group: C M M M
;
_chemical_formula_sum "Si O2"
_cell_formula_units_Z 104
_cell_length_a 14.659089
_cell_length_b 19.932700
_cell_length_c 15.569183
_cell_angle_alpha 90.000000
_cell_angle_beta 90.000000
_cell_angle_gamma 90.000000
_cell_volume 4549.240903
_symmetry_space_group_name_H-M "C M M M"
_symmetry_group_IT_number 65
_symmetry_cell_setting 'orthorhombic'
loop_
_space_group_symop_operation_xyz
x,y,z
-x,-y,z
x,-y,-z
-x,y,-z
-x,-y,-z
x,y,-z
-x,y,z
x,-y,z
1/2+x,1/2+y,z
1/2-x,1/2-y,z
1/2+x,1/2-y,-z
1/2-x,1/2+y,-z
1/2-x,1/2-y,-z
1/2+x,1/2+y,-z
1/2-x,1/2+y,z
1/2+x,1/2-y,z
loop_
_atom_site_type_symbol
_atom_site_label
_atom_site_fract_x
_atom_site_fract_y
_atom_site_fract_z
Si Si1 0.300358 0.575674 0.645060
Si Si2 0.891037 0.787147 0.407832
Si Si3 0.401888 0.579067 0.000000
Si Si4 0.606006 0.739632 0.780445
Si Si5 0.398357 0.128202 0.896796
Si Si6 0.597393 0.081107 0.399054
Si Si7 0.207945 0.109937 0.830879
O O1 0.309777 0.500000 0.608337
O O2 0.355866 0.636379 0.603143
O O3 0.194017 0.597509 0.641637
O O4 0.324513 0.573366 0.745312
O O5 0.857605 0.760170 0.500000
O O6 0.870262 0.747222 0.320026
O O7 0.000000 0.788531 0.411747
O O8 0.348546 0.595987 0.084934
O O9 0.412055 0.500000 0.000000
O O10 0.500000 0.613721 0.000000
O O11 0.500000 0.712382 0.780811
O O12 0.603678 0.801554 0.845427
O O13 0.682186 0.686944 0.810259
O O14 0.500000 0.098633 0.884442
O O15 0.311970 0.091931 0.854649
O O16 0.384877 0.136133 0.000000
O O17 0.600810 0.098784 0.500000
O O18 0.500000 0.107330 0.363532
O O19 0.593223 0.000000 0.394559
#
# Coordination Sequence:
#
# PCOD9488232 Si02
#       7
#    16  16   8  16  16  16  16
#     4  10  20  32  49  75 108 148 190 232 275 322
#     4   9  18  33  53  79 113 151 188 228 277 336
#     4  11  24  40  58  81 111 149 188 226 274 331
#     4   9  19  34  55  85 114 142 184 234 287 343
#     4  10  21  37  59  86 112 139 181 237 290 344
#     4   8  14  26  45  68  93 125 171 224 270 311
#     4  11  21  36  56  79 111 148 186 234 281 335
#
# _framework density 22.860958
#
# number of rings (size 3 to 8) (size 9 to 14) (size 15 to 20)
#    0.000    2.385    0.769    2.308    1.077    3.077 
#    0.000    0.769    0.000   10.154    0.000    2.154 
#    0.000    0.000    0.000    0.000    0.000    0.000 
#
# Total GULP energy -290174.666372 kJ/mol
# GULP energy per Si atom -5580.282046 kJ/mol
# Density = 2.280893 g / cm^3
# Si number density = 22.860958 Si / 1000 Ang^3
#
#
#
# Elastic Constant Matrix: (Units=GPa)
#
#
# Indices 1 2 3 4 5 6 
#
# 1 78.8147 -3.0398 11.7289 0.0000 0.0000 0.0000
# 2 -3.0398 54.0967 -1.1624 0.0000 0.0000 0.0000
# 3 11.7289 -1.1624 124.8163 0.0000 0.0000 0.0000
# 4 0.0000 0.0000 0.0000 4.5108 0.0000 0.0000
# 5 0.0000 0.0000 0.0000 0.0000 30.7814 0.0000
# 6 0.0000 0.0000 0.0000 0.0000 0.0000 7.1781
#
#
#
# Elastic Compliance Matrix: (Units=1/GPa)
#
#
# Indices 1 2 3 4 5 6 
#
# 1 0.012894 0.000699 -0.001205 0.000000 0.000000 0.000000
# 2 0.000699 0.018527 0.000107 0.000000 0.000000 0.000000
# 3 -0.001205 0.000107 0.008126 0.000000 0.000000 0.000000
# 4 0.000000 0.000000 0.000000 0.221688 0.000000 0.000000
# 5 0.000000 0.000000 0.000000 0.000000 0.032487 0.000000
# 6 0.000000 0.000000 0.000000 0.000000 0.000000 0.139314
#
#
# Mechanical properties :
#
#
# Convention : Reuss Voigt Hill
#
# Bulk Modulus (GPa) = 25.80775 30.30901 28.05838
# Shear Modulus (GPa) = 11.19191 25.17413 18.18302
#
# Velocity S-wave (km/s) = 2.21501 3.32201 2.82330
# Velocity P-wave (km/s) = 4.22554 5.29161 4.78833
#
# Compressibility (1/GPa) = 0.03874805
#
# Stress axis : x y z
#
# Youngs Moduli (GPa) = 77.55376 53.97535 123.06148
#
# Poissons Ratio (x) = -0.03771 0.14831
# Poissons Ratio (y) = -0.05418 -0.01315
# Poissons Ratio (z) = 0.09346 -0.00577
#
# Static dielectric constant tensor:
#      x y z
#    x 1.949120 0.000000 0.000000 
#    y 0.000000 1.932710 0.000000 
#    z 0.000000 0.000000 1.860770 
# 
# From -- ./inp_files/40848.got.cif
#   From: 2010.05.17/outbox.cif.g08.bks.cpg/sg65_21_cif.got.tgz:40848.got - 2010.06.03 17:01:31.
