data_PCOD9488564
_publ_section_title
;
Structure prediction by ZEFSAII (Michael W. Deem and Ramdas Pophale) SiO2 
 PCOD9488564
Probable space group: C M M M
;
_chemical_formula_sum "Si O2"
_cell_formula_units_Z 96
_cell_length_a 24.349141
_cell_length_b 7.559248
_cell_length_c 20.796995
_cell_angle_alpha 90.000000
_cell_angle_beta 90.000000
_cell_angle_gamma 90.000000
_cell_volume 3827.919761
_symmetry_space_group_name_H-M "C M M M"
_symmetry_group_IT_number 65
_symmetry_cell_setting 'orthorhombic'
loop_
_space_group_symop_operation_xyz
x,y,z
-x,-y,z
x,-y,-z
-x,y,-z
-x,-y,-z
x,y,-z
-x,y,z
x,-y,z
1/2+x,1/2+y,z
1/2-x,1/2-y,z
1/2+x,1/2-y,-z
1/2-x,1/2+y,-z
1/2-x,1/2-y,-z
1/2+x,1/2+y,-z
1/2-x,1/2+y,z
1/2+x,1/2-y,z
loop_
_atom_site_type_symbol
_atom_site_label
_atom_site_fract_x
_atom_site_fract_y
_atom_site_fract_z
Si Si1 0.439140 0.797115 0.394136
Si Si2 0.441502 0.208679 0.104442
Si Si3 0.323182 0.702490 0.931377
Si Si4 0.813130 0.288961 0.425240
Si Si5 0.693047 0.289837 0.791110
Si Si6 0.579188 0.712757 0.747409
O O1 0.500000 0.723470 0.416717
O O2 0.375996 0.722932 0.405262
O O3 0.443854 0.792404 0.316859
O O4 0.437757 0.000000 0.417471
O O5 0.500000 0.272325 0.080053
O O6 0.388878 0.300432 0.075139
O O7 0.441047 0.234855 0.181701
O O8 0.436434 0.000000 0.091288
O O9 0.303146 0.500000 0.932258
O O10 0.306541 0.788050 0.863569
O O11 0.309046 0.785994 0.000000
O O12 0.810007 0.235260 0.500000
O O13 0.817221 0.500000 0.418985
O O14 0.750000 0.250000 0.399052
O O15 0.685489 0.500000 0.798520
O O16 0.750000 0.250000 0.759219
O O17 0.642382 0.226868 0.750648
O O18 0.573835 0.500000 0.742898
#
# Coordination Sequence:
#
# PCOD9488564 Si02
#       6
#    16  16  16  16  16  16
#     4  10  21  36  56  85 118 150 188 235 284 333
#     4  10  20  33  50  72  98 128 164 209 259 312
#     4   9  19  35  51  69  96 128 164 207 257 318
#     4   9  19  37  60  85 116 156 198 238 281 330
#     4   9  19  34  51  72  97 128 168 213 261 316
#     4  10  21  36  53  75 105 139 175 216 265 324
#
# _framework density 25.078893000000001
#
# number of rings (size 3 to 8) (size 9 to 14) (size 15 to 20)
#    0.000    2.500    0.000    2.500    0.000    9.667 
#    0.000    6.667    0.000    0.000    0.000    3.500 
#    0.000    0.000    0.000    0.000    0.000    0.000 
#
# Total GULP energy -267427.554626 kJ/mol
# GULP energy per Si atom -5571.407388 kJ/mol
# Density = 2.502181 g / cm^3
# Si number density = 25.078893 Si / 1000 Ang^3
#
#
#
# Elastic Constant Matrix: (Units=GPa)
#
#
# Indices 1 2 3 4 5 6 
#
# 1 267.5823 3.7606 35.8427 0.0000 0.0000 0.0000
# 2 3.7606 72.5562 -2.7568 0.0000 0.0000 0.0000
# 3 35.8427 -2.7568 93.1080 0.0000 0.0000 0.0000
# 4 0.0000 0.0000 0.0000 5.8294 0.0000 0.0000
# 5 0.0000 0.0000 0.0000 0.0000 -66.0970 0.0000
# 6 0.0000 0.0000 0.0000 0.0000 0.0000 10.1839
#
#
#
# Elastic Compliance Matrix: (Units=1/GPa)
#
#
# Indices 1 2 3 4 5 6 
#
# 1 0.003945 -0.000262 -0.001527 0.000000 0.000000 0.000000
# 2 -0.000262 0.013815 0.000510 0.000000 0.000000 0.000000
# 3 -0.001527 0.000510 0.011343 0.000000 0.000000 0.000000
# 4 0.000000 0.000000 0.000000 0.171544 0.000000 0.000000
# 5 0.000000 0.000000 0.000000 0.000000 -0.015129 0.000000
# 6 0.000000 0.000000 0.000000 0.000000 0.000000 0.098194
#
#
# Mechanical properties :
#
#
# Convention : Reuss Voigt Hill
#
# Bulk Modulus (GPa) = 37.67070 56.32660 46.99865
# Shear Modulus (GPa) = 16.94234 16.40993 16.67613
#
# Velocity S-wave (km/s) = 2.60198 2.56077 2.58145
# Velocity P-wave (km/s) = 4.90719 5.59034 5.25987
#
# Compressibility (1/GPa) = 0.02654583
#
# Stress axis : x y z
#
# Youngs Moduli (GPa) = 253.46361 72.38292 88.16025
#
# Poissons Ratio (x) = 0.01900 0.13458
# Poissons Ratio (y) = 0.06653 -0.04497
# Poissons Ratio (z) = 0.38693 -0.03692
#
# Static dielectric constant tensor:
#      x y z
#    x 2.050660 0.000000 0.000000 
#    y 0.000000 1.970880 0.000000 
#    z 0.000000 0.000000 1.950870 
# 
# From -- ./inp_files/71406.got.cif
#   From: 2010.05.17/outbox.cif.g08.bks.cpg/sg65_36_cif.got.tgz:71406.got - 2010.06.03 17:01:31.
