data_PCOD9488137
_publ_section_title
;
Structure prediction by ZEFSAII (Michael W. Deem and Ramdas Pophale) SiO2 
 PCOD9488137
Probable space group: C M M M
;
_chemical_formula_sum "Si O2"
_cell_formula_units_Z 116
_cell_length_a 29.825512
_cell_length_b 7.731093
_cell_length_c 25.965776
_cell_angle_alpha 90.000000
_cell_angle_beta 90.000000
_cell_angle_gamma 90.000000
_cell_volume 5987.287483
_symmetry_space_group_name_H-M "C M M M"
_symmetry_group_IT_number 65
_symmetry_cell_setting 'orthorhombic'
loop_
_space_group_symop_operation_xyz
x,y,z
-x,-y,z
x,-y,-z
-x,y,-z
-x,-y,-z
x,y,-z
-x,y,z
x,-y,z
1/2+x,1/2+y,z
1/2-x,1/2-y,z
1/2+x,1/2-y,-z
1/2-x,1/2+y,-z
1/2-x,1/2-y,-z
1/2+x,1/2+y,-z
1/2-x,1/2+y,z
1/2+x,1/2-y,z
loop_
_atom_site_type_symbol
_atom_site_label
_atom_site_fract_x
_atom_site_fract_y
_atom_site_fract_z
Si Si1 0.891396 0.703461 0.682002
Si Si2 0.062958 0.500000 0.500000
Si Si3 0.050584 0.288436 0.895143
Si Si4 0.802033 0.793458 0.269320
Si Si5 0.948570 0.710358 0.221890
Si Si6 0.948263 0.804419 0.585378
Si Si7 0.198243 0.795413 0.845417
Si Si8 0.139852 0.292878 0.944373
O O1 0.901414 0.500000 0.677907
O O2 0.838392 0.725798 0.690361
O O3 0.915237 0.771861 0.734038
O O4 0.913748 0.788902 0.632542
O O5 0.060768 0.346900 0.544625
O O6 0.050274 0.500000 0.895577
O O7 0.061807 0.234246 0.836456
O O8 0.089643 0.228756 0.932621
O O9 0.000000 0.232897 0.907325
O O10 0.750000 0.750000 0.279604
O O11 0.813411 0.723497 0.211550
O O12 0.805808 0.000000 0.268960
O O13 0.946958 0.500000 0.221281
O O14 0.000000 0.759554 0.233335
O O15 0.000000 0.782018 0.603655
O O16 0.945004 0.000000 0.563977
O O17 0.250000 0.750000 0.854605
O O18 0.169399 0.741604 0.894228
O O19 0.194195 0.000000 0.841350
O O20 0.137589 0.500000 0.947746
O O21 0.156392 0.227357 0.000000
#
# Coordination Sequence:
#
# PCOD9488137 Si02
#       8
#    16   4  16  16  16  16  16  16
#     4  11  20  32  54  84 120 156 192 231 287 344
#     4  12  23  42  64  86 124 172 218 258 298 348
#     4   8  14  26  44  68  98 133 175 218 264 318
#     4  10  21  37  56  81 111 141 181 229 286 350
#     4   8  14  24  42  70 104 142 179 217 264 330
#     4  11  23  38  59  89 126 167 212 258 299 342
#     4  10  21  37  57  77 101 135 172 218 276 342
#     4  10  20  32  48  72 100 130 171 223 276 329
#
# _framework density 19.374382000000001
#
# number of rings (size 3 to 8) (size 9 to 14) (size 15 to 20)
#    0.000    2.207    0.690    4.138    0.000    4.690 
#    0.000    1.379    0.000    0.414    0.000    5.310 
#    0.000    0.000    0.000    0.000    0.000    0.000 
#
# Total GULP energy -323133.321327 kJ/mol
# GULP energy per Si atom -5571.264161 kJ/mol
# Density = 1.933029 g / cm^3
# Si number density = 19.374382 Si / 1000 Ang^3
#
#
#
# Elastic Constant Matrix: (Units=GPa)
#
#
# Indices 1 2 3 4 5 6 
#
# 1 78.7273 11.8156 68.7989 0.0000 0.0000 0.0000
# 2 11.8156 76.3704 25.9015 0.0000 0.0000 0.0000
# 3 68.7989 25.9015 92.9486 0.0000 0.0000 0.0000
# 4 0.0000 0.0000 0.0000 14.8258 0.0000 0.0000
# 5 0.0000 0.0000 0.0000 0.0000 232.8329 0.0000
# 6 0.0000 0.0000 0.0000 0.0000 0.0000 -1.3884
#
#
#
# Elastic Compliance Matrix: (Units=1/GPa)
#
#
# Indices 1 2 3 4 5 6 
#
# 1 0.037008 0.003937 -0.028490 0.000000 0.000000 0.000000
# 2 0.003937 0.014880 -0.007060 0.000000 0.000000 0.000000
# 3 -0.028490 -0.007060 0.033814 0.000000 0.000000 0.000000
# 4 0.000000 0.000000 0.000000 0.067450 0.000000 0.000000
# 5 0.000000 0.000000 0.000000 0.000000 0.004295 0.000000
# 6 0.000000 0.000000 0.000000 0.000000 0.000000 -0.720242
#
#
# Mechanical properties :
#
#
# Convention : Reuss Voigt Hill
#
# Bulk Modulus (GPa) = 44.49443 51.23091 47.86267
# Shear Modulus (GPa) = -10.16100 58.68942 24.26421
#
# Velocity S-wave (km/s) = -2.29258 5.50981 3.54275
# Velocity P-wave (km/s) = 4.00094 8.18397 6.44146
#
# Compressibility (1/GPa) = 0.02247473
#
# Stress axis : x y z
#
# Youngs Moduli (GPa) = 27.02107 67.20629 29.57375
#
# Poissons Ratio (x) = -0.26458 0.84255
# Poissons Ratio (y) = -0.10638 0.20880
# Poissons Ratio (z) = 0.76983 0.47450
#
# Static dielectric constant tensor:
#      x y z
#    x 1.672100 0.000000 0.000000 
#    y 0.000000 1.720320 0.000000 
#    z 0.000000 0.000000 1.687730 
# 
# From -- ./inp_files/72274.got.cif
#   From: 2010.05.17/outbox.cif.g08.bks.cpg/sg65_37_cif.got.tgz:72274.got - 2010.06.03 17:01:31.
