data_PCOD9488914
_publ_section_title
;
Structure prediction by ZEFSAII (Michael W. Deem and Ramdas Pophale) SiO2 
 PCOD9488914
Probable space group: C M M M
;
_chemical_formula_sum "Si O2"
_cell_formula_units_Z 88
_cell_length_a 18.486856
_cell_length_b 9.098816
_cell_length_c 29.209106
_cell_angle_alpha 90.000000
_cell_angle_beta 90.000000
_cell_angle_gamma 90.000000
_cell_volume 4913.219941
_symmetry_space_group_name_H-M "C M M M"
_symmetry_group_IT_number 65
_symmetry_cell_setting 'orthorhombic'
loop_
_space_group_symop_operation_xyz
x,y,z
-x,-y,z
x,-y,-z
-x,y,-z
-x,-y,-z
x,y,-z
-x,y,z
x,-y,z
1/2+x,1/2+y,z
1/2-x,1/2-y,z
1/2+x,1/2-y,-z
1/2-x,1/2+y,-z
1/2-x,1/2-y,-z
1/2+x,1/2+y,-z
1/2-x,1/2+y,z
1/2+x,1/2-y,z
loop_
_atom_site_type_symbol
_atom_site_label
_atom_site_fract_x
_atom_site_fract_y
_atom_site_fract_z
Si Si1 0.413994 0.323406 0.326789
Si Si2 0.171415 0.677111 0.590666
Si Si3 0.917384 0.321731 0.500000
Si Si4 0.912038 0.830766 0.776281
Si Si5 0.171826 0.824948 0.051932
Si Si6 0.087206 0.330330 0.132019
O O1 0.500000 0.293962 0.331450
O O2 0.404321 0.500000 0.331625
O O3 0.369946 0.236760 0.364794
O O4 0.390701 0.283537 0.274899
O O5 0.177052 0.500000 0.591930
O O6 0.250000 0.750000 0.588208
O O7 0.125458 0.720920 0.545697
O O8 0.920045 0.500000 0.500000
O O9 0.000000 0.267600 0.500000
O O10 0.888263 0.732703 0.818818
O O11 0.000000 0.830018 0.775889
O O12 0.889611 0.000000 0.783366
O O13 0.250000 0.750000 0.057152
O O14 0.119804 0.762355 0.090667
O O15 0.178867 0.000000 0.056292
O O16 0.146051 0.792338 0.000000
O O17 0.108433 0.500000 0.127305
O O18 0.000000 0.321441 0.130893
#
# Coordination Sequence:
#
# PCOD9488914 Si02
#       6
#    16  16   8  16  16  16
#     4   9  18  34  56  81 108 138 175 218 262 311
#     4  11  22  36  55  78 109 145 178 217 264 313
#     4   9  19  36  57  81 106 135 176 221 264 314
#     4   8  15  30  52  76 104 138 173 213 261 310
#     4  10  21  37  56  76 101 136 176 217 263 317
#     4  10  20  33  52  80 111 140 173 216 262 309
#
# _framework density 17.910861000000001
#
# number of rings (size 3 to 8) (size 9 to 14) (size 15 to 20)
#    0.000    2.455    0.000    3.545    0.000    4.364 
#    0.000    5.909    0.000    7.636    0.000    0.000 
#    0.000    0.000    0.000    0.000    0.000    0.000 
#
# Total GULP energy -245477.378288 kJ/mol
# GULP energy per Si atom -5579.031325 kJ/mol
# Density = 1.787010 g / cm^3
# Si number density = 17.910861 Si / 1000 Ang^3
#
#
#
# Elastic Constant Matrix: (Units=GPa)
#
#
# Indices 1 2 3 4 5 6 
#
# 1 66.4882 44.9105 64.6158 0.0000 0.0000 0.0000
# 2 44.9105 79.2217 80.5417 0.0000 0.0000 0.0000
# 3 64.6158 80.5417 172.0996 0.0000 0.0000 0.0000
# 4 0.0000 0.0000 0.0000 26.8186 0.0000 0.0000
# 5 0.0000 0.0000 0.0000 0.0000 -52.0481 0.0000
# 6 0.0000 0.0000 0.0000 0.0000 0.0000 21.5798
#
#
#
# Elastic Compliance Matrix: (Units=1/GPa)
#
#
# Indices 1 2 3 4 5 6 
#
# 1 0.026994 -0.009536 -0.005672 0.000000 0.000000 0.000000
# 2 -0.009536 0.027449 -0.009265 0.000000 0.000000 0.000000
# 3 -0.005672 -0.009265 0.012276 0.000000 0.000000 0.000000
# 4 0.000000 0.000000 0.000000 0.037288 0.000000 0.000000
# 5 0.000000 0.000000 0.000000 0.000000 -0.019213 0.000000
# 6 0.000000 0.000000 0.000000 0.000000 0.000000 0.046340
#
#
# Mechanical properties :
#
#
# Convention : Reuss Voigt Hill
#
# Bulk Modulus (GPa) = 56.26961 77.54949 66.90955
# Shear Modulus (GPa) = 26.88106 7.78616 17.33361
#
# Velocity S-wave (km/s) = 3.87825 2.08725 3.11428
# Velocity P-wave (km/s) = 7.17907 7.01429 7.09716
#
# Compressibility (1/GPa) = 0.01777158
#
# Stress axis : x y z
#
# Youngs Moduli (GPa) = 37.04520 36.43183 81.45705
#
# Poissons Ratio (x) = 0.34742 0.46204
# Poissons Ratio (y) = 0.35327 0.75473
# Poissons Ratio (z) = 0.21013 0.33755
#
# Static dielectric constant tensor:
#      x y z
#    x 1.592500 0.000000 0.000000 
#    y 0.000000 1.596680 0.000000 
#    z 0.000000 0.000000 1.607020 
# 
# From -- ./inp_files/67572.got.cif
#   From: 2010.05.17/outbox.cif.g08.bks.cpg/sg65_34_cif.got.tgz:67572.got - 2010.06.03 17:01:31.
