data_PCOD9488109
_publ_section_title
;
Structure prediction by ZEFSAII (Michael W. Deem and Ramdas Pophale) SiO2 
 PCOD9488109
Probable space group: C M M M
;
_chemical_formula_sum "Si O2"
_cell_formula_units_Z 104
_cell_length_a 8.717125
_cell_length_b 27.464403
_cell_length_c 24.609586
_cell_angle_alpha 90.000000
_cell_angle_beta 90.000000
_cell_angle_gamma 90.000000
_cell_volume 5891.796587
_symmetry_space_group_name_H-M "C M M M"
_symmetry_group_IT_number 65
_symmetry_cell_setting 'orthorhombic'
loop_
_space_group_symop_operation_xyz
x,y,z
-x,-y,z
x,-y,-z
-x,y,-z
-x,-y,-z
x,y,-z
-x,y,z
x,-y,z
1/2+x,1/2+y,z
1/2-x,1/2-y,z
1/2+x,1/2-y,-z
1/2-x,1/2+y,-z
1/2-x,1/2-y,-z
1/2+x,1/2+y,-z
1/2-x,1/2+y,z
1/2+x,1/2-y,z
loop_
_atom_site_type_symbol
_atom_site_label
_atom_site_fract_x
_atom_site_fract_y
_atom_site_fract_z
Si Si1 0.180490 0.111352 0.663553
Si Si2 0.684833 0.056559 0.437645
Si Si3 0.186663 0.500000 0.063237
Si Si4 0.817650 0.698796 0.270341
Si Si5 0.819808 0.401707 0.876038
Si Si6 0.675366 0.442596 0.772959
Si Si7 0.817291 0.802311 0.148890
O O1 0.240584 0.091128 0.606817
O O2 0.270487 0.157206 0.687675
O O3 0.201004 0.070619 0.710446
O O4 0.000000 0.122687 0.660358
O O5 0.727154 0.068273 0.500000
O O6 0.500000 0.059463 0.433654
O O7 0.727940 0.000000 0.427597
O O8 0.238579 0.449398 0.091152
O O9 0.000000 0.500000 0.068064
O O10 0.226982 0.500000 0.000000
O O11 0.750000 0.750000 0.289905
O O12 0.741907 0.690599 0.211001
O O13 0.000000 0.701286 0.263406
O O14 0.790689 0.416192 0.813327
O O15 0.738518 0.349757 0.884168
O O16 0.000000 0.395932 0.886841
O O17 0.500000 0.427084 0.786747
O O18 0.687463 0.500000 0.780970
O O19 0.750000 0.750000 0.130636
O O20 0.000000 0.799753 0.149189
#
# Coordination Sequence:
#
# PCOD9488109 Si02
#       7
#    16  16   8  16  16  16  16
#     4  11  21  33  51  77 107 143 179 219 271 328
#     4   9  19  36  55  75 102 139 182 227 271 318
#     4   9  20  38  59  85 117 153 194 235 276 327
#     4  11  21  34  52  76 107 142 179 219 266 325
#     4  11  20  33  55  82 110 148 189 228 275 330
#     4  10  20  32  47  72 110 147 176 218 273 323
#     4  11  21  35  54  80 113 149 185 229 279 334
#
# _framework density 17.651661000000001
#
# number of rings (size 3 to 8) (size 9 to 14) (size 15 to 20)
#    0.000    1.615    2.308    5.538    0.000    1.846 
#    0.000    0.769    0.000    4.615    0.000    0.000 
#    0.000    0.000    0.000    0.000    0.000    0.000 
#
# Total GULP energy -290244.974255 kJ/mol
# GULP energy per Si atom -5581.634120 kJ/mol
# Density = 1.761149 g / cm^3
# Si number density = 17.651661 Si / 1000 Ang^3
#
#
#
# Elastic Constant Matrix: (Units=GPa)
#
#
# Indices 1 2 3 4 5 6 
#
# 1 92.1987 54.8364 22.2141 0.0000 0.0000 0.0000
# 2 54.8364 137.1220 43.6679 0.0000 0.0000 0.0000
# 3 22.2141 43.6679 54.8769 0.0000 0.0000 0.0000
# 4 0.0000 0.0000 0.0000 12.8522 0.0000 0.0000
# 5 0.0000 0.0000 0.0000 0.0000 -9.7013 0.0000
# 6 0.0000 0.0000 0.0000 0.0000 0.0000 27.6982
#
#
#
# Elastic Compliance Matrix: (Units=1/GPa)
#
#
# Indices 1 2 3 4 5 6 
#
# 1 0.014343 -0.005206 -0.001663 0.000000 0.000000 0.000000
# 2 -0.005206 0.011658 -0.007169 0.000000 0.000000 0.000000
# 3 -0.001663 -0.007169 0.024601 0.000000 0.000000 0.000000
# 4 0.000000 0.000000 0.000000 0.077808 0.000000 0.000000
# 5 0.000000 0.000000 0.000000 0.000000 -0.103079 0.000000
# 6 0.000000 0.000000 0.000000 0.000000 0.000000 0.036103
#
#
# Mechanical properties :
#
#
# Convention : Reuss Voigt Hill
#
# Bulk Modulus (GPa) = 44.39624 58.40383 51.40004
# Shear Modulus (GPa) = 51.53550 17.06843 34.30196
#
# Velocity S-wave (km/s) = 5.40918 3.11297 4.41304
# Velocity P-wave (km/s) = 8.01363 6.78819 7.42623
#
# Compressibility (1/GPa) = 0.02252443
#
# Stress axis : x y z
#
# Youngs Moduli (GPa) = 69.71821 85.77821 40.64919
#
# Poissons Ratio (x) = 0.44660 0.06761
# Poissons Ratio (y) = 0.36298 0.29142
# Poissons Ratio (z) = 0.11596 0.61496
#
# Static dielectric constant tensor:
#      x y z
#    x 1.610810 0.000000 0.000000 
#    y 0.000000 1.635490 0.000000 
#    z 0.000000 0.000000 1.571470 
# 
# From -- ./inp_files/68279.got.cif
#   From: 2010.05.17/outbox.cif.g08.bks.cpg/sg65_35_cif.got.tgz:68279.got - 2010.06.03 17:01:31.
