data_PCOD9488790
_publ_section_title
;
Structure prediction by ZEFSAII (Michael W. Deem and Ramdas Pophale) SiO2 
 PCOD9488790
Probable space group: C M M M
;
_chemical_formula_sum "Si O2"
_cell_formula_units_Z 80
_cell_length_a 8.545490
_cell_length_b 18.840236
_cell_length_c 26.340209
_cell_angle_alpha 90.000000
_cell_angle_beta 90.000000
_cell_angle_gamma 90.000000
_cell_volume 4240.748582
_symmetry_space_group_name_H-M "C M M M"
_symmetry_group_IT_number 65
_symmetry_cell_setting 'orthorhombic'
loop_
_space_group_symop_operation_xyz
x,y,z
-x,-y,z
x,-y,-z
-x,y,-z
-x,-y,-z
x,y,-z
-x,y,z
x,-y,z
1/2+x,1/2+y,z
1/2-x,1/2-y,z
1/2+x,1/2-y,-z
1/2-x,1/2+y,-z
1/2-x,1/2-y,-z
1/2+x,1/2+y,-z
1/2-x,1/2+y,z
1/2+x,1/2-y,z
loop_
_atom_site_type_symbol
_atom_site_label
_atom_site_fract_x
_atom_site_fract_y
_atom_site_fract_z
Si Si1 0.310723 0.081806 0.746768
Si Si2 0.814400 0.829587 0.348287
Si Si3 0.188733 0.417697 0.441572
Si Si4 0.809353 0.417982 0.942906
Si Si5 0.189437 0.329672 0.845816
O O1 0.500000 0.081685 0.745837
O O2 0.251896 0.123026 0.697498
O O3 0.261162 0.123189 0.797590
O O4 0.258301 0.000000 0.747143
O O5 0.750000 0.750000 0.344716
O O6 0.763445 0.865720 0.401002
O O7 0.000000 0.827579 0.344808
O O8 0.232152 0.402048 0.500000
O O9 0.231161 0.500000 0.430971
O O10 0.000000 0.412960 0.437952
O O11 0.763674 0.500000 0.933594
O O12 0.756287 0.366795 0.898003
O O13 0.000000 0.417051 0.942686
O O14 0.759045 0.397939 0.000000
O O15 0.250000 0.250000 0.841371
O O16 0.000000 0.328559 0.846253
#
# Coordination Sequence:
#
# PCOD9488790 Si02
#       5
#    16  16  16  16  16
#     4  10  21  38  59  80 105 139 179 224 273 326
#     4  12  25  39  57  82 113 147 183 225 272 322
#     4   9  19  38  63  88 115 148 184 222 267 320
#     4   8  14  27  49  75 101 132 175 223 264 309
#     4  10  20  33  51  77 107 139 175 216 266 321
#
# _framework density 18.864592999999999
#
# number of rings (size 3 to 8) (size 9 to 14) (size 15 to 20)
#    0.000    2.200    0.000    4.800    0.000    9.200 
#    0.000    1.000    0.000    1.800    0.000    1.400 
#    0.000    0.000    0.000    0.000    0.000    0.000 
#
# Total GULP energy -223391.547607 kJ/mol
# GULP energy per Si atom -5584.788690 kJ/mol
# Density = 1.882166 g / cm^3
# Si number density = 18.864593 Si / 1000 Ang^3
#
#
#
# Elastic Constant Matrix: (Units=GPa)
#
#
# Indices 1 2 3 4 5 6 
#
# 1 16.2818 33.6894 31.4324 0.0000 0.0000 0.0000
# 2 33.6894 187.7621 127.2207 0.0000 0.0000 0.0000
# 3 31.4324 127.2207 157.7641 0.0000 0.0000 0.0000
# 4 0.0000 0.0000 0.0000 -29.2348 0.0000 0.0000
# 5 0.0000 0.0000 0.0000 0.0000 -7.9767 0.0000
# 6 0.0000 0.0000 0.0000 0.0000 0.0000 27.2043
#
#
#
# Elastic Compliance Matrix: (Units=1/GPa)
#
#
# Indices 1 2 3 4 5 6 
#
# 1 0.108670 -0.010644 -0.013068 0.000000 0.000000 0.000000
# 2 -0.010644 0.012784 -0.008188 0.000000 0.000000 0.000000
# 3 -0.013068 -0.008188 0.015545 0.000000 0.000000 0.000000
# 4 0.000000 0.000000 0.000000 -0.034206 0.000000 0.000000
# 5 0.000000 0.000000 0.000000 0.000000 -0.125365 0.000000
# 6 0.000000 0.000000 0.000000 0.000000 0.000000 0.036759
#
#
# Mechanical properties :
#
#
# Convention : Reuss Voigt Hill
#
# Bulk Modulus (GPa) = 13.66138 82.94367 48.30252
# Shear Modulus (GPa) = 48.83475 9.29624 29.06550
#
# Velocity S-wave (km/s) = 5.09345 2.22229 3.92949
# Velocity P-wave (km/s) = 6.46904 7.11675 6.80061
#
# Compressibility (1/GPa) = 0.07319906
#
# Stress axis : x y z
#
# Youngs Moduli (GPa) = 9.20217 78.22558 64.32971
#
# Poissons Ratio (x) = 0.83263 0.84065
# Poissons Ratio (y) = 0.09795 0.52673
# Poissons Ratio (z) = 0.12025 0.64051
#
# Static dielectric constant tensor:
#      x y z
#    x 1.647060 0.000000 0.000000 
#    y 0.000000 1.623170 0.000000 
#    z 0.000000 0.000000 1.644140 
# 
# From -- ./inp_files/72803.got.cif
#   From: 2010.05.17/outbox.cif.g08.bks.cpg/sg65_37_cif.got.tgz:72803.got - 2010.06.03 17:01:31.
