data_PCOD9488121
_publ_section_title
;
Structure prediction by ZEFSAII (Michael W. Deem and Ramdas Pophale) SiO2 
 PCOD9488121
Probable space group: C M M M
;
_chemical_formula_sum "Si O2"
_cell_formula_units_Z 96
_cell_length_a 8.233904
_cell_length_b 28.050010
_cell_length_c 25.920383
_cell_angle_alpha 90.000000
_cell_angle_beta 90.000000
_cell_angle_gamma 90.000000
_cell_volume 5986.599899
_symmetry_space_group_name_H-M "C M M M"
_symmetry_group_IT_number 65
_symmetry_cell_setting 'orthorhombic'
loop_
_space_group_symop_operation_xyz
x,y,z
-x,-y,z
x,-y,-z
-x,y,-z
-x,-y,-z
x,y,-z
-x,y,z
x,-y,z
1/2+x,1/2+y,z
1/2-x,1/2-y,z
1/2+x,1/2-y,-z
1/2-x,1/2+y,-z
1/2-x,1/2-y,-z
1/2+x,1/2+y,-z
1/2-x,1/2+y,z
1/2+x,1/2-y,z
loop_
_atom_site_type_symbol
_atom_site_label
_atom_site_fract_x
_atom_site_fract_y
_atom_site_fract_z
Si Si1 0.192067 0.695515 0.000000
Si Si2 0.694753 0.102957 0.738595
Si Si3 0.500000 0.442132 0.559205
Si Si4 0.193515 0.196741 0.789451
Si Si5 0.190821 0.442451 0.371369
Si Si6 0.806173 0.852274 0.105396
Si Si7 0.196268 0.446346 0.156124
O O1 0.250000 0.750000 0.000000
O O2 0.250695 0.669181 0.948469
O O3 0.000000 0.695493 0.000000
O O4 0.500000 0.102616 0.741149
O O5 0.752244 0.156672 0.748838
O O6 0.736730 0.080753 0.683561
O O7 0.753907 0.071530 0.787328
O O8 0.500000 0.500000 0.558772
O O9 0.500000 0.425631 0.500000
O O10 0.667828 0.428392 0.588250
O O11 0.250000 0.250000 0.778302
O O12 0.256239 0.178861 0.845679
O O13 0.000000 0.196622 0.791443
O O14 0.194516 0.500000 0.366425
O O15 0.000000 0.430154 0.383710
O O16 0.750299 0.906229 0.115900
O O17 0.000000 0.851076 0.106885
O O18 0.253028 0.500000 0.145623
O O19 0.000000 0.446920 0.156928
#
# Coordination Sequence:
#
# PCOD9488121 Si02
#       7
#     8  16   8  16  16  16  16
#     4  12  24  38  57  76  93 118 154 199 243 291
#     4   9  17  29  47  70  97 129 162 200 239 287
#     4   9  18  30  44  66  98 136 174 211 249 287
#     4  10  20  32  48  69  96 128 156 190 239 295
#     4   9  17  29  46  69  98 134 171 207 247 289
#     4  10  21  36  52  73  98 124 158 196 240 285
#     4   9  17  31  51  73  99 130 162 195 237 290
#
# _framework density 16.035812
#
# number of rings (size 3 to 8) (size 9 to 14) (size 15 to 20)
#    0.000    2.417    0.000    2.750    1.167    6.000 
#    0.000    2.083    0.000    2.500    0.000    0.000 
#    0.000    0.667    0.333    0.000    0.000    0.000 
#
# Total GULP energy -267580.546458 kJ/mol
# GULP energy per Si atom -5574.594718 kJ/mol
# Density = 1.599931 g / cm^3
# Si number density = 16.035812 Si / 1000 Ang^3
#
#
#
# Elastic Constant Matrix: (Units=GPa)
#
#
# Indices 1 2 3 4 5 6 
#
# 1 54.3967 33.3805 52.0580 0.0000 0.0000 0.0000
# 2 33.3805 110.1827 59.9187 0.0000 0.0000 0.0000
# 3 52.0580 59.9187 115.7705 0.0000 0.0000 0.0000
# 4 0.0000 0.0000 0.0000 11.1527 0.0000 0.0000
# 5 0.0000 0.0000 0.0000 0.0000 25.5557 0.0000
# 6 0.0000 0.0000 0.0000 0.0000 0.0000 23.4376
#
#
#
# Elastic Compliance Matrix: (Units=1/GPa)
#
#
# Indices 1 2 3 4 5 6 
#
# 1 0.032825 -0.002669 -0.013379 0.000000 0.000000 0.000000
# 2 -0.002669 0.012848 -0.005450 0.000000 0.000000 0.000000
# 3 -0.013379 -0.005450 0.017474 0.000000 0.000000 0.000000
# 4 0.000000 0.000000 0.000000 0.089664 0.000000 0.000000
# 5 0.000000 0.000000 0.000000 0.000000 0.039130 0.000000
# 6 0.000000 0.000000 0.000000 0.000000 0.000000 0.042666
#
#
# Mechanical properties :
#
#
# Convention : Reuss Voigt Hill
#
# Bulk Modulus (GPa) = 49.62168 63.45159 56.53664
# Shear Modulus (GPa) = 17.58582 21.02873 19.30727
#
# Velocity S-wave (km/s) = 3.31518 3.62520 3.47365
# Velocity P-wave (km/s) = 6.75761 7.56157 7.17087
#
# Compressibility (1/GPa) = 0.02015248
#
# Stress axis : x y z
#
# Youngs Moduli (GPa) = 30.46465 77.83374 57.22690
#
# Poissons Ratio (x) = 0.20773 0.76563
# Poissons Ratio (y) = 0.08131 0.31186
# Poissons Ratio (z) = 0.40758 0.42416
#
# Static dielectric constant tensor:
#      x y z
#    x 1.559710 0.000000 0.000000 
#    y 0.000000 1.548050 0.000000 
#    z 0.000000 0.000000 1.388870 
# 
# From -- ./inp_files/68105.got.cif
#   From: 2010.05.17/outbox.cif.g08.bks.cpg/sg65_35_cif.got.tgz:68105.got - 2010.06.03 17:01:31.
