data_PCOD9488722
_publ_section_title
;
Structure prediction by ZEFSAII (Michael W. Deem and Ramdas Pophale) SiO2 
 PCOD9488722
Probable space group: C M M M
;
_chemical_formula_sum "Si O2"
_cell_formula_units_Z 88
_cell_length_a 27.396404
_cell_length_b 18.922175
_cell_length_c 7.394532
_cell_angle_alpha 90.000000
_cell_angle_beta 90.000000
_cell_angle_gamma 90.000000
_cell_volume 3833.322068
_symmetry_space_group_name_H-M "C M M M"
_symmetry_group_IT_number 65
_symmetry_cell_setting 'orthorhombic'
loop_
_space_group_symop_operation_xyz
x,y,z
-x,-y,z
x,-y,-z
-x,y,-z
-x,-y,-z
x,y,-z
-x,y,z
x,-y,z
1/2+x,1/2+y,z
1/2-x,1/2-y,z
1/2+x,1/2-y,-z
1/2-x,1/2+y,-z
1/2-x,1/2-y,-z
1/2+x,1/2+y,-z
1/2-x,1/2+y,z
1/2+x,1/2-y,z
loop_
_atom_site_type_symbol
_atom_site_label
_atom_site_fract_x
_atom_site_fract_y
_atom_site_fract_z
Si Si1 0.553696 0.731894 0.280382
Si Si2 0.724736 0.818410 0.295157
Si Si3 0.189615 0.918270 0.789905
Si Si4 0.942629 0.500000 0.279049
Si Si5 0.119193 0.361669 0.279235
Si Si6 0.077262 0.921766 0.707668
O O1 0.557762 0.727645 0.500000
O O2 0.500000 0.759571 0.237121
O O3 0.593295 0.788725 0.221921
O O4 0.558195 0.651489 0.212144
O O5 0.710766 0.796107 0.500000
O O6 0.750000 0.750000 0.206821
O O7 0.768274 0.873891 0.299649
O O8 0.675609 0.854048 0.219992
O O9 0.135762 0.912296 0.708773
O O10 0.203277 0.000000 0.780201
O O11 0.185806 0.897491 0.000000
O O12 0.943406 0.500000 0.500000
O O13 0.912178 0.569916 0.221587
O O14 0.000000 0.500000 0.223330
O O15 0.118449 0.365251 0.500000
O O16 0.060210 0.924614 0.500000
O O17 0.066840 0.000000 0.787289
#
# Coordination Sequence:
#
# PCOD9488722 Si02
#       6
#    16  16  16   8  16  16
#     4   9  16  27  45  69  98 129 161 202 250 296
#     4  10  20  33  51  75 103 134 169 210 255 309
#     4  10  21  35  51  72 100 134 171 209 253 304
#     4   9  16  26  40  62  95 131 165 201 244 299
#     4   9  17  27  42  66  97 131 164 198 247 303
#     4   9  17  30  49  73 100 132 168 204 246 298
#
# _framework density 22.956588
#
# number of rings (size 3 to 8) (size 9 to 14) (size 15 to 20)
#    0.000    2.636    0.000    2.182    1.273    6.909 
#    0.000    1.818    0.000    0.545    0.000    2.545 
#    0.000    2.909    0.000    0.000    0.000    0.000 
#
# Total GULP energy -245508.452797 kJ/mol
# GULP energy per Si atom -5579.737564 kJ/mol
# Density = 2.290434 g / cm^3
# Si number density = 22.956588 Si / 1000 Ang^3
#
#
#
# Elastic Constant Matrix: (Units=GPa)
#
#
# Indices 1 2 3 4 5 6 
#
# 1 127.9990 64.9096 4.4690 0.0000 0.0000 0.0000
# 2 64.9096 109.7765 13.9703 0.0000 0.0000 0.0000
# 3 4.4690 13.9703 79.0396 0.0000 0.0000 0.0000
# 4 0.0000 0.0000 0.0000 -14.5948 0.0000 0.0000
# 5 0.0000 0.0000 0.0000 0.0000 26.5687 0.0000
# 6 0.0000 0.0000 0.0000 0.0000 0.0000 39.5795
#
#
#
# Elastic Compliance Matrix: (Units=1/GPa)
#
#
# Indices 1 2 3 4 5 6 
#
# 1 0.011182 -0.006681 0.000549 0.000000 0.000000 0.000000
# 2 -0.006681 0.013311 -0.001975 0.000000 0.000000 0.000000
# 3 0.000549 -0.001975 0.012970 0.000000 0.000000 0.000000
# 4 0.000000 0.000000 0.000000 -0.068518 0.000000 0.000000
# 5 0.000000 0.000000 0.000000 0.000000 0.037638 0.000000
# 6 0.000000 0.000000 0.000000 0.000000 0.000000 0.025266
#
#
# Mechanical properties :
#
#
# Convention : Reuss Voigt Hill
#
# Bulk Modulus (GPa) = 47.06426 53.72368 50.39397
# Shear Modulus (GPa) = 90.66658 25.87508 58.27083
#
# Velocity S-wave (km/s) = 6.29131 3.36092 5.04363
# Velocity P-wave (km/s) = 8.56271 6.20598 7.47777
#
# Compressibility (1/GPa) = 0.02124754
#
# Stress axis : x y z
#
# Youngs Moduli (GPa) = 89.43261 75.12358 77.10135
#
# Poissons Ratio (x) = 0.50193 -0.04231
# Poissons Ratio (y) = 0.59753 0.15228
# Poissons Ratio (z) = -0.04907 0.14837
#
# Static dielectric constant tensor:
#      x y z
#    x 1.453890 0.000000 0.000000 
#    y 0.000000 1.850860 0.000000 
#    z 0.000000 0.000000 1.906710 
# 
# From -- ./inp_files/10080.got.cif
#   From: 2010.05.17/outbox.cif.g08.bks.cpg/sg65_6_cif.got.tgz:10080.got - 2010.06.03 17:01:31.
