data_PCOD9488735
_publ_section_title
;
Structure prediction by ZEFSAII (Michael W. Deem and Ramdas Pophale) SiO2 
 PCOD9488735
Probable space group: C M M M
;
_chemical_formula_sum "Si O2"
_cell_formula_units_Z 72
_cell_length_a 24.399609
_cell_length_b 7.671784
_cell_length_c 18.386624
_cell_angle_alpha 90.000000
_cell_angle_beta 90.000000
_cell_angle_gamma 90.000000
_cell_volume 3441.765117
_symmetry_space_group_name_H-M "C M M M"
_symmetry_group_IT_number 65
_symmetry_cell_setting 'orthorhombic'
loop_
_space_group_symop_operation_xyz
x,y,z
-x,-y,z
x,-y,-z
-x,y,-z
-x,-y,-z
x,y,-z
-x,y,z
x,-y,z
1/2+x,1/2+y,z
1/2-x,1/2-y,z
1/2+x,1/2-y,-z
1/2-x,1/2+y,-z
1/2-x,1/2-y,-z
1/2+x,1/2+y,-z
1/2-x,1/2+y,z
1/2+x,1/2-y,z
loop_
_atom_site_type_symbol
_atom_site_label
_atom_site_fract_x
_atom_site_fract_y
_atom_site_fract_z
Si Si1 0.114577 0.713327 0.082502
Si Si2 0.000000 0.713081 0.323464
Si Si3 0.500000 0.787870 0.153506
Si Si4 0.685724 0.294726 0.500000
Si Si5 0.380444 0.207176 0.355670
Si Si6 0.313723 0.790451 0.216301
O O1 0.114702 0.500000 0.081699
O O2 0.159710 0.771641 0.140842
O O3 0.055081 0.767580 0.112630
O O4 0.123663 0.771586 0.000000
O O5 0.057108 0.774173 0.358541
O O6 0.000000 0.500000 0.326607
O O7 0.000000 0.762765 0.238166
O O8 0.500000 0.000000 0.153212
O O9 0.681556 0.500000 0.500000
O O10 0.750000 0.250000 0.500000
O O11 0.654759 0.231346 0.572021
O O12 0.348077 0.277626 0.285361
O O13 0.385210 0.000000 0.344200
O O14 0.250000 0.750000 0.223036
O O15 0.319035 0.000000 0.216429
#
# Coordination Sequence:
#
# PCOD9488735 Si02
#       6
#    16   8   8   8  16  16
#     4   9  16  26  44  74 109 141 176 224 277 320
#     4   9  16  30  56  84 111 143 182 224 269 325
#     4   9  13  24  46  76 108 138 175 222 273 319
#     4  12  26  43  62  85 113 144 182 226 271 324
#     4  10  20  37  60  85 113 145 182 225 273 327
#     4  10  20  33  51  75 106 144 185 226 269 321
#
# _framework density 20.919497
#
# number of rings (size 3 to 8) (size 9 to 14) (size 15 to 20)
#    0.000    2.222    2.222    2.000    0.000    4.889 
#    0.000    2.778    0.000    0.000    0.000    0.778 
#    0.000    1.778    0.000    0.000    0.000    0.000 
#
# Total GULP energy -201052.155311 kJ/mol
# GULP energy per Si atom -5584.782092 kJ/mol
# Density = 2.087188 g / cm^3
# Si number density = 20.919497 Si / 1000 Ang^3
#
#
#
# Elastic Constant Matrix: (Units=GPa)
#
#
# Indices 1 2 3 4 5 6 
#
# 1 220.1944 3.7147 110.3805 0.0000 0.0000 0.0000
# 2 3.7147 33.1323 -6.1182 0.0000 0.0000 0.0000
# 3 110.3805 -6.1182 156.8951 0.0000 0.0000 0.0000
# 4 0.0000 0.0000 0.0000 -14.9476 0.0000 0.0000
# 5 0.0000 0.0000 0.0000 0.0000 25.0764 0.0000
# 6 0.0000 0.0000 0.0000 0.0000 0.0000 16.0058
#
#
#
# Elastic Compliance Matrix: (Units=1/GPa)
#
#
# Indices 1 2 3 4 5 6 
#
# 1 0.007113 -0.001734 -0.005072 0.000000 0.000000 0.000000
# 2 -0.001734 0.030824 0.002422 0.000000 0.000000 0.000000
# 3 -0.005072 0.002422 0.010036 0.000000 0.000000 0.000000
# 4 0.000000 0.000000 0.000000 -0.066901 0.000000 0.000000
# 5 0.000000 0.000000 0.000000 0.000000 0.039878 0.000000
# 6 0.000000 0.000000 0.000000 0.000000 0.000000 0.062477
#
#
# Mechanical properties :
#
#
# Convention : Reuss Voigt Hill
#
# Bulk Modulus (GPa) = 25.50691 69.57509 47.54100
# Shear Modulus (GPa) = 47.49933 25.37660 36.43796
#
# Velocity S-wave (km/s) = 4.77023 3.48668 4.17804
# Velocity P-wave (km/s) = 6.52376 7.03846 6.78599
#
# Compressibility (1/GPa) = 0.03920506
#
# Stress axis : x y z
#
# Youngs Moduli (GPa) = 140.58348 32.44262 99.63709
#
# Poissons Ratio (x) = 0.05626 0.50536
# Poissons Ratio (y) = 0.24378 -0.24132
# Poissons Ratio (z) = 0.71304 -0.07857
#
# Static dielectric constant tensor:
#      x y z
#    x 1.714820 0.000000 0.000000 
#    y 0.000000 1.806580 0.000000 
#    z 0.000000 0.000000 1.626830 
# 
# From -- ./inp_files/56507.got.cif
#   From: 2010.05.17/outbox.cif.g08.bks.cpg/sg65_29_cif.got.tgz:56507.got - 2010.06.03 17:01:31.
