data_PCOD9488763
_publ_section_title
;
Structure prediction by ZEFSAII (Michael W. Deem and Ramdas Pophale) SiO2 
 PCOD9488763
Probable space group: C M M M
;
_chemical_formula_sum "Si O2"
_cell_formula_units_Z 96
_cell_length_a 27.577875
_cell_length_b 20.534078
_cell_length_c 7.440457
_cell_angle_alpha 90.000000
_cell_angle_beta 90.000000
_cell_angle_gamma 90.000000
_cell_volume 4213.428391
_symmetry_space_group_name_H-M "C M M M"
_symmetry_group_IT_number 65
_symmetry_cell_setting 'orthorhombic'
loop_
_space_group_symop_operation_xyz
x,y,z
-x,-y,z
x,-y,-z
-x,y,-z
-x,-y,-z
x,y,-z
-x,y,z
x,-y,z
1/2+x,1/2+y,z
1/2-x,1/2-y,z
1/2+x,1/2-y,-z
1/2-x,1/2+y,-z
1/2-x,1/2-y,-z
1/2+x,1/2+y,-z
1/2-x,1/2+y,z
1/2+x,1/2-y,z
loop_
_atom_site_type_symbol
_atom_site_label
_atom_site_fract_x
_atom_site_fract_y
_atom_site_fract_z
Si Si1 0.858149 0.575192 0.281751
Si Si2 0.095126 0.791431 0.791033
Si Si3 0.295170 0.705932 0.282794
Si Si4 0.947301 0.657670 0.707602
Si Si5 0.747919 0.426735 0.719199
Si Si6 0.557118 0.428268 0.781800
O O1 0.856413 0.580736 0.500000
O O2 0.868582 0.500000 0.238441
O O3 0.900661 0.621302 0.212869
O O4 0.803117 0.589165 0.223489
O O5 0.151470 0.772930 0.772802
O O6 0.063266 0.734438 0.708023
O O7 0.085211 0.864067 0.718189
O O8 0.081964 0.792564 0.000000
O O9 0.294483 0.707743 0.500000
O O10 0.250000 0.750000 0.221845
O O11 0.286304 0.631699 0.222447
O O12 0.949441 0.636185 0.500000
O O13 0.000000 0.644196 0.788820
O O14 0.747663 0.427362 0.500000
O O15 0.735600 0.500000 0.777889
O O16 0.500000 0.421704 0.737224
O O17 0.573843 0.500000 0.719104
O O18 0.560286 0.429438 0.000000
#
# Coordination Sequence:
#
# PCOD9488763 Si02
#       6
#    16  16  16  16  16  16
#     4   8  14  27  49  76 103 130 164 205 245 288
#     4  11  22  34  51  75 102 132 168 210 254 300
#     4  10  20  34  52  72  97 131 168 205 248 298
#     4  10  20  33  51  76 105 136 170 208 249 294
#     4   8  14  26  46  71  97 126 160 199 245 295
#     4   8  15  30  51  72  95 127 167 206 244 292
#
# _framework density 22.784295
#
# number of rings (size 3 to 8) (size 9 to 14) (size 15 to 20)
#    0.000    2.833    0.000    3.500    0.000    5.000 
#    0.000    1.667    0.000    2.000    0.000    9.333 
#    0.000    0.000    0.000    0.000    0.000    0.000 
#
# Total GULP energy -268021.773530 kJ/mol
# GULP energy per Si atom -5583.786949 kJ/mol
# Density = 2.273244 g / cm^3
# Si number density = 22.784295 Si / 1000 Ang^3
#
#
#
# Elastic Constant Matrix: (Units=GPa)
#
#
# Indices 1 2 3 4 5 6 
#
# 1 47.3203 3.7428 -8.2434 0.0000 0.0000 0.0000
# 2 3.7428 34.4973 -6.3026 0.0000 0.0000 0.0000
# 3 -8.2434 -6.3026 68.6868 0.0000 0.0000 0.0000
# 4 0.0000 0.0000 0.0000 -6.4323 0.0000 0.0000
# 5 0.0000 0.0000 0.0000 0.0000 -6.1351 0.0000
# 6 0.0000 0.0000 0.0000 0.0000 0.0000 39.6944
#
#
#
# Elastic Compliance Matrix: (Units=1/GPa)
#
#
# Indices 1 2 3 4 5 6 
#
# 1 0.021707 -0.001911 0.002430 0.000000 0.000000 0.000000
# 2 -0.001911 0.029650 0.002491 0.000000 0.000000 0.000000
# 3 0.002430 0.002491 0.015079 0.000000 0.000000 0.000000
# 4 0.000000 0.000000 0.000000 -0.155465 0.000000 0.000000
# 5 0.000000 0.000000 0.000000 0.000000 -0.162997 0.000000
# 6 0.000000 0.000000 0.000000 0.000000 0.000000 0.025192
#
#
# Mechanical properties :
#
#
# Convention : Reuss Voigt Hill
#
# Bulk Modulus (GPa) = 13.80146 14.32201 14.06174
# Shear Modulus (GPa) = -23.95766 16.17924 -3.88921
#
# Velocity S-wave (km/s) = -3.24620 2.66767 -1.30793
# Velocity P-wave (km/s) = 2.82486 3.97343 1.97590
#
# Compressibility (1/GPa) = 0.07245609
#
# Stress axis : x y z
#
# Youngs Moduli (GPa) = 46.06809 33.72647 66.31719
#
# Poissons Ratio (x) = 0.06446 -0.16114
# Poissons Ratio (y) = 0.08805 -0.16522
# Poissons Ratio (z) = -0.11193 -0.08402
#
# Static dielectric constant tensor:
#      x y z
#    x 1.813590 0.000000 0.000000 
#    y 0.000000 1.842490 0.000000 
#    z 0.000000 0.000000 1.897330 
# 
# From -- ./inp_files/12308.got.cif
#   From: 2010.05.17/outbox.cif.g08.bks.cpg/sg65_7_cif.got.tgz:12308.got - 2010.06.03 17:01:31.
