data_PCOD9488347
_publ_section_title
;
Structure prediction by ZEFSAII (Michael W. Deem and Ramdas Pophale) SiO2 
 PCOD9488347
Probable space group: C M M M
;
_chemical_formula_sum "Si O2"
_cell_formula_units_Z 104
_cell_length_a 8.832435
_cell_length_b 28.952834
_cell_length_c 27.014698
_cell_angle_alpha 90.000000
_cell_angle_beta 90.000000
_cell_angle_gamma 90.000000
_cell_volume 6908.307290
_symmetry_space_group_name_H-M "C M M M"
_symmetry_group_IT_number 65
_symmetry_cell_setting 'orthorhombic'
loop_
_space_group_symop_operation_xyz
x,y,z
-x,-y,z
x,-y,-z
-x,y,-z
-x,-y,-z
x,y,-z
-x,y,z
x,-y,z
1/2+x,1/2+y,z
1/2-x,1/2-y,z
1/2+x,1/2-y,-z
1/2-x,1/2+y,-z
1/2-x,1/2-y,-z
1/2+x,1/2+y,-z
1/2-x,1/2+y,z
1/2+x,1/2-y,z
loop_
_atom_site_type_symbol
_atom_site_label
_atom_site_fract_x
_atom_site_fract_y
_atom_site_fract_z
Si Si1 0.826738 0.056129 0.155954
Si Si2 0.678117 0.056033 0.054412
Si Si3 0.818092 0.301265 0.500000
Si Si4 0.320051 0.945577 0.259099
Si Si5 0.818298 0.111024 0.348805
Si Si6 0.816015 0.054025 0.554824
Si Si7 0.317907 0.801385 0.390950
O O1 0.763789 0.072799 0.103169
O O2 0.729217 0.068976 0.203851
O O3 0.000000 0.070307 0.162975
O O4 0.822965 0.000000 0.153984
O O5 0.500000 0.066909 0.058445
O O6 0.689126 0.000000 0.054326
O O7 0.733066 0.071612 0.000000
O O8 0.750000 0.250000 0.500000
O O9 0.772418 0.319941 0.446269
O O10 0.000000 0.299152 0.500000
O O11 0.500000 0.941161 0.264578
O O12 0.236489 0.916059 0.300596
O O13 0.280332 0.000000 0.264888
O O14 0.765187 0.082680 0.397668
O O15 0.748452 0.161961 0.352809
O O16 0.000000 0.113545 0.349651
O O17 0.764204 0.069954 0.500000
O O18 0.000000 0.055824 0.554452
O O19 0.774324 0.000000 0.560053
O O20 0.500000 0.799142 0.388279
O O21 0.250000 0.750000 0.385401
#
# Coordination Sequence:
#
# PCOD9488347 Si02
#       7
#    16  16   8  16  16  16  16
#     4   9  16  25  38  56  78 105 140 183 225 260
#     4   8  13  21  33  50  74 105 140 176 215 259
#     4   8  16  30  48  66  85 108 131 160 198 245
#     4  10  20  33  47  62  84 115 150 187 225 264
#     4  11  21  31  48  70  89 113 143 178 218 264
#     4   8  15  28  44  63  87 112 138 170 209 254
#     4  10  20  35  51  69  91 114 139 171 211 259
#
# _framework density 15.05434
#
# number of rings (size 3 to 8) (size 9 to 14) (size 15 to 20)
#    0.000    2.769    0.000    3.231    1.077    4.308 
#    0.000    1.538    0.000    0.000    0.000    3.231 
#    0.000    0.000    0.000    0.000    0.000    0.769 
#
# Total GULP energy -289611.259991 kJ/mol
# GULP energy per Si atom -5569.447308 kJ/mol
# Density = 1.502008 g / cm^3
# Si number density = 15.054340 Si / 1000 Ang^3
#
#
#
# Elastic Constant Matrix: (Units=GPa)
#
#
# Indices 1 2 3 4 5 6 
#
# 1 42.5221 23.7428 35.8702 0.0000 0.0000 0.0000
# 2 23.7428 47.5217 41.9478 0.0000 0.0000 0.0000
# 3 35.8702 41.9478 105.1348 0.0000 0.0000 0.0000
# 4 0.0000 0.0000 0.0000 5.1634 0.0000 0.0000
# 5 0.0000 0.0000 0.0000 0.0000 25.5910 0.0000
# 6 0.0000 0.0000 0.0000 0.0000 0.0000 13.7213
#
#
#
# Elastic Compliance Matrix: (Units=1/GPa)
#
#
# Indices 1 2 3 4 5 6 
#
# 1 0.036503 -0.011183 -0.007993 0.000000 0.000000 0.000000
# 2 -0.011183 0.035909 -0.010512 0.000000 0.000000 0.000000
# 3 -0.007993 -0.010512 0.016433 0.000000 0.000000 0.000000
# 4 0.000000 0.000000 0.000000 0.193669 0.000000 0.000000
# 5 0.000000 0.000000 0.000000 0.000000 0.039076 0.000000
# 6 0.000000 0.000000 0.000000 0.000000 0.000000 0.072879
#
#
# Mechanical properties :
#
#
# Convention : Reuss Voigt Hill
#
# Bulk Modulus (GPa) = 33.93203 44.25557 39.09380
# Shear Modulus (GPa) = 10.78356 15.13634 12.95995
#
# Velocity S-wave (km/s) = 2.67930 3.17432 2.93726
# Velocity P-wave (km/s) = 5.67099 6.54951 6.12602
#
# Compressibility (1/GPa) = 0.02947068
#
# Stress axis : x y z
#
# Youngs Moduli (GPa) = 27.39466 27.84797 60.85409
#
# Poissons Ratio (x) = 0.31142 0.48638
# Poissons Ratio (y) = 0.30635 0.63970
# Poissons Ratio (z) = 0.21895 0.29274
#
# Static dielectric constant tensor:
#      x y z
#    x 1.500450 0.000000 0.000000 
#    y 0.000000 1.476580 0.000000 
#    z 0.000000 0.000000 1.520800 
# 
# From -- ./inp_files/73754.got.cif
#   From: 2010.05.17/outbox.cif.g08.bks.cpg/sg65_37_cif.got.tgz:73754.got - 2010.06.03 17:01:31.
