data_PCOD9488141
_publ_section_title
;
Structure prediction by ZEFSAII (Michael W. Deem and Ramdas Pophale) SiO2 
 PCOD9488141
Probable space group: C M M M
;
_chemical_formula_sum "Si O2"
_cell_formula_units_Z 80
_cell_length_a 27.925703
_cell_length_b 13.407618
_cell_length_c 13.739630
_cell_angle_alpha 90.000000
_cell_angle_beta 90.000000
_cell_angle_gamma 90.000000
_cell_volume 5144.353219
_symmetry_space_group_name_H-M "C M M M"
_symmetry_group_IT_number 65
_symmetry_cell_setting 'orthorhombic'
loop_
_space_group_symop_operation_xyz
x,y,z
-x,-y,z
x,-y,-z
-x,y,-z
-x,-y,-z
x,y,-z
-x,y,z
x,-y,z
1/2+x,1/2+y,z
1/2-x,1/2-y,z
1/2+x,1/2-y,-z
1/2-x,1/2+y,-z
1/2-x,1/2-y,-z
1/2+x,1/2+y,-z
1/2-x,1/2+y,z
1/2+x,1/2-y,z
loop_
_atom_site_type_symbol
_atom_site_label
_atom_site_fract_x
_atom_site_fract_y
_atom_site_fract_z
Si Si1 0.884412 0.719773 0.616103
Si Si2 0.943009 0.884032 0.733587
Si Si3 0.135355 0.500000 0.382125
Si Si4 0.703955 0.688104 0.278793
Si Si5 0.748440 0.000000 0.382742
Si Si6 0.133695 0.118538 0.890279
O O1 0.888656 0.723790 0.500000
O O2 0.919960 0.800955 0.663323
O O3 0.889288 0.604000 0.648755
O O4 0.831300 0.751797 0.649692
O O5 0.917514 0.867325 0.837684
O O6 0.000000 0.875216 0.737435
O O7 0.931383 0.000000 0.704605
O O8 0.134656 0.500000 0.500000
O O9 0.191895 0.500000 0.355094
O O10 0.750000 0.750000 0.248480
O O11 0.724265 0.594032 0.337414
O O12 0.672621 0.660583 0.184705
O O13 0.751182 0.000000 0.500000
O O14 0.141636 0.000000 0.894985
O O15 0.135761 0.158723 0.000000
#
# Coordination Sequence:
#
# PCOD9488141 Si02
#       6
#    16  16   8  16   8  16
#     4  10  20  32  48  72 102 136 169 206 246 289
#     4   9  19  35  53  75  99 124 161 205 255 311
#     4   9  18  32  47  67  98 136 178 208 233 277
#     4  11  20  31  48  72 101 136 173 204 241 289
#     4  11  20  30  45  70 104 138 173 206 237 279
#     4   9  18  33  51  72  99 127 159 205 257 302
#
# _framework density 15.551031999999999
#
# number of rings (size 3 to 8) (size 9 to 14) (size 15 to 20)
#    0.000    2.200    3.000    0.600    1.400    2.400 
#    0.000    3.500    0.000    1.800    0.000    6.300 
#    0.000    6.400    0.000    0.000    0.000    0.000 
#
# Total GULP energy -222770.307300 kJ/mol
# GULP energy per Si atom -5569.257683 kJ/mol
# Density = 1.551564 g / cm^3
# Si number density = 15.551032 Si / 1000 Ang^3
#
#
#
# Elastic Constant Matrix: (Units=GPa)
#
#
# Indices 1 2 3 4 5 6 
#
# 1 90.2244 48.2694 34.6593 0.0000 0.0000 0.0000
# 2 48.2694 107.3429 46.7638 0.0000 0.0000 0.0000
# 3 34.6593 46.7638 92.5427 0.0000 0.0000 0.0000
# 4 0.0000 0.0000 0.0000 6.0167 0.0000 0.0000
# 5 0.0000 0.0000 0.0000 0.0000 5.0359 0.0000
# 6 0.0000 0.0000 0.0000 0.0000 0.0000 23.9539
#
#
#
# Elastic Compliance Matrix: (Units=1/GPa)
#
#
# Indices 1 2 3 4 5 6 
#
# 1 0.015164 -0.005571 -0.002864 0.000000 0.000000 0.000000
# 2 -0.005571 0.013993 -0.004984 0.000000 0.000000 0.000000
# 3 -0.002864 -0.004984 0.014397 0.000000 0.000000 0.000000
# 4 0.000000 0.000000 0.000000 0.166203 0.000000 0.000000
# 5 0.000000 0.000000 0.000000 0.000000 0.198573 0.000000
# 6 0.000000 0.000000 0.000000 0.000000 0.000000 0.041747
#
#
# Mechanical properties :
#
#
# Convention : Reuss Voigt Hill
#
# Bulk Modulus (GPa) = 59.82692 61.05502 60.44097
# Shear Modulus (GPa) = 10.36296 17.69581 14.02938
#
# Velocity S-wave (km/s) = 2.58424 3.37696 3.00684
# Velocity P-wave (km/s) = 6.88907 7.38590 7.14181
#
# Compressibility (1/GPa) = 0.01671488
#
# Stress axis : x y z
#
# Youngs Moduli (GPa) = 65.94432 71.46661 69.45850
#
# Poissons Ratio (x) = 0.39816 0.19894
# Poissons Ratio (y) = 0.36739 0.34619
# Poissons Ratio (z) = 0.18887 0.35620
#
# Static dielectric constant tensor:
#      x y z
#    x 1.505300 0.000000 0.000000 
#    y 0.000000 1.547930 0.000000 
#    z 0.000000 0.000000 1.502850 
# 
# From -- ./inp_files/38588.got.cif
#   From: 2010.05.17/outbox.cif.g08.bks.cpg/sg65_20_cif.got.tgz:38588.got - 2010.06.03 17:01:31.
