data_PCOD9488311
_publ_section_title
;
Structure prediction by ZEFSAII (Michael W. Deem and Ramdas Pophale) SiO2 
 PCOD9488311
Probable space group: C M M M
;
_chemical_formula_sum "Si O2"
_cell_formula_units_Z 112
_cell_length_a 13.909443
_cell_length_b 16.360742
_cell_length_c 24.184459
_cell_angle_alpha 90.000000
_cell_angle_beta 90.000000
_cell_angle_gamma 90.000000
_cell_volume 5503.628514
_symmetry_space_group_name_H-M "C M M M"
_symmetry_group_IT_number 65
_symmetry_cell_setting 'orthorhombic'
loop_
_space_group_symop_operation_xyz
x,y,z
-x,-y,z
x,-y,-z
-x,y,-z
-x,-y,-z
x,y,-z
-x,y,z
x,-y,z
1/2+x,1/2+y,z
1/2-x,1/2-y,z
1/2+x,1/2-y,-z
1/2-x,1/2+y,-z
1/2-x,1/2-y,-z
1/2+x,1/2+y,-z
1/2-x,1/2+y,z
1/2+x,1/2-y,z
loop_
_atom_site_type_symbol
_atom_site_label
_atom_site_fract_x
_atom_site_fract_y
_atom_site_fract_z
Si Si1 0.784538 0.660634 0.831796
Si Si2 0.691278 0.901934 0.279751
Si Si3 0.392194 0.599055 0.329728
Si Si4 0.292798 0.340196 0.438386
Si Si5 0.386495 0.229249 0.938913
Si Si6 0.396532 0.096805 0.606726
Si Si7 0.611142 0.408341 0.891232
O O1 0.750000 0.750000 0.814042
O O2 0.842424 0.625490 0.780389
O O3 0.838949 0.678690 0.889339
O O4 0.692444 0.603952 0.844867
O O5 0.802884 0.876990 0.290392
O O6 0.631704 0.869968 0.332380
O O7 0.688304 0.000000 0.281422
O O8 0.500000 0.623553 0.312699
O O9 0.390245 0.500000 0.333368
O O10 0.364822 0.634251 0.389986
O O11 0.333446 0.347654 0.500000
O O12 0.250000 0.250000 0.430035
O O13 0.194941 0.391537 0.431882
O O14 0.500000 0.214256 0.937412
O O15 0.374520 0.327218 0.928729
O O16 0.350219 0.207631 0.000000
O O17 0.500000 0.130136 0.587915
O O18 0.405758 0.000000 0.612946
O O19 0.500000 0.403352 0.871301
O O20 0.622057 0.500000 0.915776
#
# Coordination Sequence:
#
# PCOD9488311 Si02
#       7
#    16  16  16  16  16  16  16
#     4  10  20  32  51  78 107 139 173 209 257 315
#     4   9  18  33  52  76 105 134 169 216 265 311
#     4   9  19  36  57  80 106 139 178 218 262 311
#     4  10  21  35  51  76 111 145 176 214 259 308
#     4   9  19  36  55  75 103 138 173 211 256 308
#     4   9  19  36  56  76  99 132 176 223 266 305
#     4   9  18  32  51  77 105 132 168 213 258 306
#
# _framework density 20.350210000000001
#
# number of rings (size 3 to 8) (size 9 to 14) (size 15 to 20)
#    0.000    2.714    0.000    1.714    0.000    8.571 
#    0.000    5.714    0.000    2.571    0.000    4.000 
#    0.000    0.000    0.000    0.000    0.000    0.000 
#
# Total GULP energy -311953.733127 kJ/mol
# GULP energy per Si atom -5570.602377 kJ/mol
# Density = 2.030389 g / cm^3
# Si number density = 20.350210 Si / 1000 Ang^3
#
#
#
# Elastic Constant Matrix: (Units=GPa)
#
#
# Indices 1 2 3 4 5 6 
#
# 1 51.7546 19.0768 -14.0540 0.0000 0.0000 0.0000
# 2 19.0768 27.0889 23.5417 0.0000 0.0000 0.0000
# 3 -14.0540 23.5417 65.5309 0.0000 0.0000 0.0000
# 4 0.0000 0.0000 0.0000 -3.1563 0.0000 0.0000
# 5 0.0000 0.0000 0.0000 0.0000 11.2315 0.0000
# 6 0.0000 0.0000 0.0000 0.0000 0.0000 13.6163
#
#
#
# Elastic Compliance Matrix: (Units=1/GPa)
#
#
# Indices 1 2 3 4 5 6 
#
# 1 0.057140 -0.073990 0.038835 0.000000 0.000000 0.000000
# 2 -0.073990 0.149479 -0.069568 0.000000 0.000000 0.000000
# 3 0.038835 -0.069568 0.048581 0.000000 0.000000 0.000000
# 4 0.000000 0.000000 0.000000 -0.316831 0.000000 0.000000
# 5 0.000000 0.000000 0.000000 0.000000 0.089035 0.000000
# 6 0.000000 0.000000 0.000000 0.000000 0.000000 0.073441
#
#
# Mechanical properties :
#
#
# Convention : Reuss Voigt Hill
#
# Bulk Modulus (GPa) = 21.85538 22.38926 22.12232
# Shear Modulus (GPa) = 15.35896 12.05897 13.70897
#
# Velocity S-wave (km/s) = 2.75022 2.43692 2.59830
# Velocity P-wave (km/s) = 4.56595 4.35247 4.46049
#
# Compressibility (1/GPa) = 0.04575533
#
# Stress axis : x y z
#
# Youngs Moduli (GPa) = 17.50076 6.68988 20.58427
#
# Poissons Ratio (x) = 0.49498 -0.79939
# Poissons Ratio (y) = 1.29488 1.43201
# Poissons Ratio (z) = -0.67964 0.46540
#
# Static dielectric constant tensor:
#      x y z
#    x 1.718560 0.000000 0.000000 
#    y 0.000000 1.404170 0.000000 
#    z 0.000000 0.000000 1.720150 
# 
# From -- ./inp_files/74894.got.cif
#   From: 2010.05.17/outbox.cif.g08.bks.cpg/sg65_38_cif.got.tgz:74894.got - 2010.06.03 17:01:31.
