data_PCOD9488028
_publ_section_title
;
Structure prediction by ZEFSAII (Michael W. Deem and Ramdas Pophale) SiO2 
 PCOD9488028
Probable space group: C M M M
;
_chemical_formula_sum "Si O2"
_cell_formula_units_Z 104
_cell_length_a 18.641111
_cell_length_b 21.851843
_cell_length_c 14.492910
_cell_angle_alpha 90.000000
_cell_angle_beta 90.000000
_cell_angle_gamma 90.000000
_cell_volume 5903.580089
_symmetry_space_group_name_H-M "C M M M"
_symmetry_group_IT_number 65
_symmetry_cell_setting 'orthorhombic'
loop_
_space_group_symop_operation_xyz
x,y,z
-x,-y,z
x,-y,-z
-x,y,-z
-x,-y,-z
x,y,-z
-x,y,z
x,-y,z
1/2+x,1/2+y,z
1/2-x,1/2-y,z
1/2+x,1/2-y,-z
1/2-x,1/2+y,-z
1/2-x,1/2-y,-z
1/2+x,1/2+y,-z
1/2-x,1/2+y,z
1/2+x,1/2-y,z
loop_
_atom_site_type_symbol
_atom_site_label
_atom_site_fract_x
_atom_site_fract_y
_atom_site_fract_z
Si Si1 0.916750 0.233219 0.390785
Si Si2 0.784564 0.573930 0.756547
Si Si3 0.322887 0.614789 0.609919
Si Si4 0.844026 0.074320 0.893305
Si Si5 0.500000 0.571704 0.887371
Si Si6 0.913791 0.567885 0.500000
Si Si7 0.580827 0.500000 0.388017
Si Si8 0.084419 0.364326 0.691794
O O1 0.909300 0.249931 0.500000
O O2 0.861802 0.178822 0.371099
O O3 0.904731 0.292504 0.328123
O O4 0.000000 0.212889 0.379907
O O5 0.790698 0.500000 0.750617
O O6 0.749137 0.602073 0.664569
O O7 0.725647 0.590040 0.834182
O O8 0.861881 0.605511 0.764906
O O9 0.311765 0.610495 0.500000
O O10 0.376139 0.560068 0.639498
O O11 0.922253 0.097442 0.858378
O O12 0.848546 0.000000 0.891707
O O13 0.835672 0.092713 0.000000
O O14 0.500000 0.500000 0.862215
O O15 0.500000 0.573865 0.000000
O O16 0.881220 0.500000 0.500000
O O17 0.898410 0.602842 0.594183
O O18 0.000000 0.562450 0.500000
O O19 0.500000 0.500000 0.353621
O O20 0.578124 0.500000 0.500000
O O21 0.000000 0.374123 0.712006
#
# Coordination Sequence:
#
# PCOD9488028 Si02
#       8
#    16  16  16  16   8   8   8  16
#     4   9  17  33  53  70  93 133 184 225 253 289
#     4  11  22  33  47  75 107 137 169 206 262 314
#     4  10  20  32  46  70 103 139 170 204 250 300
#     4   8  15  30  50  73 102 134 167 206 251 303
#     4   7  10  22  46  70  93 125 163 201 244 293
#     4   9  16  28  46  69  92 122 162 211 270 309
#     4   9  16  30  46  62  94 140 176 195 230 296
#     4  10  20  34  51  71  95 129 178 226 263 301
#
# _framework density 17.616427999999999
#
# number of rings (size 3 to 8) (size 9 to 14) (size 15 to 20)
#    0.000    2.692    1.538    1.846    1.077    3.385 
#    2.769    1.538    0.000    0.462    0.000    4.308 
#    0.000    1.231    0.000    0.000    0.000    0.000 
#
# Total GULP energy -289848.162071 kJ/mol
# GULP energy per Si atom -5574.003117 kJ/mol
# Density = 1.757633 g / cm^3
# Si number density = 17.616428 Si / 1000 Ang^3
#
#
#
# Elastic Constant Matrix: (Units=GPa)
#
#
# Indices 1 2 3 4 5 6 
#
# 1 144.3615 49.5954 47.0281 0.0000 0.0000 0.0000
# 2 49.5954 63.2914 18.1235 0.0000 0.0000 0.0000
# 3 47.0281 18.1235 43.5697 0.0000 0.0000 0.0000
# 4 0.0000 0.0000 0.0000 6.5803 0.0000 0.0000
# 5 0.0000 0.0000 0.0000 0.0000 24.9752 0.0000
# 6 0.0000 0.0000 0.0000 0.0000 0.0000 25.9864
#
#
#
# Elastic Compliance Matrix: (Units=1/GPa)
#
#
# Indices 1 2 3 4 5 6 
#
# 1 0.012916 -0.006958 -0.011047 0.000000 0.000000 0.000000
# 2 -0.006958 0.021684 -0.001510 0.000000 0.000000 0.000000
# 3 -0.011047 -0.001510 0.035504 0.000000 0.000000 0.000000
# 4 0.000000 0.000000 0.000000 0.151968 0.000000 0.000000
# 5 0.000000 0.000000 0.000000 0.000000 0.040040 0.000000
# 6 0.000000 0.000000 0.000000 0.000000 0.000000 0.038482
#
#
# Mechanical properties :
#
#
# Convention : Reuss Voigt Hill
#
# Bulk Modulus (GPa) = 32.18049 53.41295 42.79672
# Shear Modulus (GPa) = 14.28644 20.60676 17.44660
#
# Velocity S-wave (km/s) = 2.85085 3.42387 3.15041
# Velocity P-wave (km/s) = 5.39846 6.78353 6.13024
#
# Compressibility (1/GPa) = 0.03107473
#
# Stress axis : x y z
#
# Youngs Moduli (GPa) = 77.42177 46.11596 28.16584
#
# Poissons Ratio (x) = 0.32087 0.31116
# Poissons Ratio (y) = 0.53869 0.04253
# Poissons Ratio (z) = 0.85530 0.06963
#
# Static dielectric constant tensor:
#      x y z
#    x 1.651120 0.000000 0.000000 
#    y 0.000000 1.586710 0.000000 
#    z 0.000000 0.000000 1.618250 
# 
# From -- ./inp_files/43131.got.cif
#   From: 2010.05.17/outbox.cif.g08.bks.cpg/sg65_22_cif.got.tgz:43131.got - 2010.06.03 17:01:31.
