data_PCOD9488002
_publ_section_title
;
Structure prediction by ZEFSAII (Michael W. Deem and Ramdas Pophale) SiO2 
 PCOD9488002
Probable space group: C M M M
;
_chemical_formula_sum "Si O2"
_cell_formula_units_Z 88
_cell_length_a 28.209367
_cell_length_b 8.709500
_cell_length_c 21.813476
_cell_angle_alpha 90.000000
_cell_angle_beta 90.000000
_cell_angle_gamma 90.000000
_cell_volume 5359.341617
_symmetry_space_group_name_H-M "C M M M"
_symmetry_group_IT_number 65
_symmetry_cell_setting 'orthorhombic'
loop_
_space_group_symop_operation_xyz
x,y,z
-x,-y,z
x,-y,-z
-x,y,-z
-x,-y,-z
x,y,-z
-x,y,z
x,-y,z
1/2+x,1/2+y,z
1/2-x,1/2-y,z
1/2+x,1/2-y,-z
1/2-x,1/2+y,-z
1/2-x,1/2-y,-z
1/2+x,1/2+y,-z
1/2-x,1/2+y,z
1/2+x,1/2-y,z
loop_
_atom_site_type_symbol
_atom_site_label
_atom_site_fract_x
_atom_site_fract_y
_atom_site_fract_z
Si Si1 0.055167 0.316123 0.500000
Si Si2 0.602718 0.314531 0.378404
Si Si3 0.352808 0.685489 0.813461
Si Si4 0.801677 0.815048 0.687637
Si Si5 0.552890 0.686808 0.251958
Si Si6 0.197282 0.316368 0.069152
O O1 0.055274 0.500000 0.500000
O O2 0.082196 0.256210 0.560078
O O3 0.000000 0.263758 0.500000
O O4 0.601942 0.500000 0.383411
O O5 0.656302 0.269028 0.359166
O O6 0.569884 0.271210 0.320326
O O7 0.351722 0.500000 0.816693
O O8 0.319091 0.730634 0.756090
O O9 0.405806 0.734765 0.794467
O O10 0.335310 0.753351 0.876958
O O11 0.750000 0.750000 0.674026
O O12 0.799735 0.000000 0.686878
O O13 0.500000 0.742172 0.238885
O O14 0.552354 0.500000 0.250666
O O15 0.199481 0.500000 0.072525
O O16 0.250000 0.250000 0.077960
O O17 0.181815 0.272934 0.000000
#
# Coordination Sequence:
#
# PCOD9488002 Si02
#       6
#     8  16  16  16  16  16
#     4  11  23  35  48  71 100 123 148 189 238 281
#     4   9  18  33  52  72  93 122 160 192 223 273
#     4   9  17  29  47  72  98 122 152 191 232 274
#     4   9  18  31  48  72  98 123 154 191 229 273
#     4   8  14  27  49  74  96 119 152 194 233 269
#     4  10  20  32  46  66  93 124 157 191 228 273
#
# _framework density 16.419927000000001
#
# number of rings (size 3 to 8) (size 9 to 14) (size 15 to 20)
#    0.000    2.818    0.000    4.091    0.000    5.455 
#    0.000    3.182    0.000    2.182    0.000    3.818 
#    0.000    0.000    0.000    0.000    0.000    0.000 
#
# Total GULP energy -245257.554281 kJ/mol
# GULP energy per Si atom -5574.035325 kJ/mol
# Density = 1.638255 g / cm^3
# Si number density = 16.419927 Si / 1000 Ang^3
#
#
#
# Elastic Constant Matrix: (Units=GPa)
#
#
# Indices 1 2 3 4 5 6 
#
# 1 156.0211 31.8155 97.1485 0.0000 0.0000 0.0000
# 2 31.8155 19.4683 36.4252 0.0000 0.0000 0.0000
# 3 97.1485 36.4252 156.3838 0.0000 0.0000 0.0000
# 4 0.0000 0.0000 0.0000 21.1397 0.0000 0.0000
# 5 0.0000 0.0000 0.0000 0.0000 17.8913 0.0000
# 6 0.0000 0.0000 0.0000 0.0000 0.0000 21.4757
#
#
#
# Elastic Compliance Matrix: (Units=1/GPa)
#
#
# Indices 1 2 3 4 5 6 
#
# 1 0.011365 -0.009507 -0.004846 0.000000 0.000000 0.000000
# 2 -0.009507 0.098993 -0.017152 0.000000 0.000000 0.000000
# 3 -0.004846 -0.017152 0.013400 0.000000 0.000000 0.000000
# 4 0.000000 0.000000 0.000000 0.047304 0.000000 0.000000
# 5 0.000000 0.000000 0.000000 0.000000 0.055893 0.000000
# 6 0.000000 0.000000 0.000000 0.000000 0.000000 0.046564
#
#
# Mechanical properties :
#
#
# Convention : Reuss Voigt Hill
#
# Bulk Modulus (GPa) = 16.46119 73.62797 45.04458
# Shear Modulus (GPa) = 14.01429 23.20026 18.60727
#
# Velocity S-wave (km/s) = 2.92463 3.76298 3.36997
# Velocity P-wave (km/s) = 4.63158 7.98862 6.52953
#
# Compressibility (1/GPa) = 0.06074896
#
# Stress axis : x y z
#
# Youngs Moduli (GPa) = 87.98592 10.10177 74.62634
#
# Poissons Ratio (x) = 0.09603 0.36165
# Poissons Ratio (y) = 0.83644 1.27998
# Poissons Ratio (z) = 0.42639 0.17326
#
# Static dielectric constant tensor:
#      x y z
#    x 1.552380 0.000000 0.000000 
#    y 0.000000 1.559410 0.000000 
#    z 0.000000 0.000000 1.533130 
# 
# From -- ./inp_files/57955.got.cif
#   From: 2010.05.17/outbox.cif.g08.bks.cpg/sg65_29_cif.got.tgz:57955.got - 2010.06.03 17:01:31.
