data_PCOD9488814
_publ_section_title
;
Structure prediction by ZEFSAII (Michael W. Deem and Ramdas Pophale) SiO2 
 PCOD9488814
Probable space group: C M M M
;
_chemical_formula_sum "Si O2"
_cell_formula_units_Z 80
_cell_length_a 8.879059
_cell_length_b 18.724649
_cell_length_c 26.581170
_cell_angle_alpha 90.000000
_cell_angle_beta 90.000000
_cell_angle_gamma 90.000000
_cell_volume 4419.312578
_symmetry_space_group_name_H-M "C M M M"
_symmetry_group_IT_number 65
_symmetry_cell_setting 'orthorhombic'
loop_
_space_group_symop_operation_xyz
x,y,z
-x,-y,z
x,-y,-z
-x,y,-z
-x,-y,-z
x,y,-z
-x,y,z
x,-y,z
1/2+x,1/2+y,z
1/2-x,1/2-y,z
1/2+x,1/2-y,-z
1/2-x,1/2+y,-z
1/2-x,1/2-y,-z
1/2+x,1/2+y,-z
1/2-x,1/2+y,z
1/2+x,1/2-y,z
loop_
_atom_site_type_symbol
_atom_site_label
_atom_site_fract_x
_atom_site_fract_y
_atom_site_fract_z
Si Si1 0.322444 0.585539 0.057286
Si Si2 0.824452 0.414035 0.340782
Si Si3 0.179376 0.171234 0.749057
Si Si4 0.179135 0.671448 0.853210
Si Si5 0.323950 0.586725 0.555629
O O1 0.500000 0.602066 0.064731
O O2 0.306241 0.500000 0.060859
O O3 0.225750 0.624085 0.099408
O O4 0.282305 0.606541 0.000000
O O5 0.807331 0.500000 0.338270
O O6 0.727216 0.377258 0.297642
O O7 0.770409 0.389900 0.396168
O O8 0.000000 0.396884 0.333445
O O9 0.250000 0.250000 0.741965
O O10 0.249288 0.142607 0.801300
O O11 0.000000 0.176441 0.753443
O O12 0.250000 0.750000 0.860178
O O13 0.000000 0.676593 0.848075
O O14 0.273153 0.610975 0.500000
O O15 0.500000 0.605779 0.561780
O O16 0.317325 0.500000 0.555034
#
# Coordination Sequence:
#
# PCOD9488814 Si02
#       5
#    16  16  16  16  16
#     4   9  19  37  59  82 110 143 177 214 259 310
#     4  10  20  33  51  78 109 138 174 218 260 307
#     4  11  22  38  58  77 103 138 176 217 264 317
#     4  11  22  37  57  80 107 138 176 219 261 309
#     4   8  14  26  45  70 101 136 173 213 258 307
#
# _framework density 18.102364000000001
#
# number of rings (size 3 to 8) (size 9 to 14) (size 15 to 20)
#    0.000    2.200    0.000    6.600    0.000    3.600 
#    0.000    3.000    0.000    0.600    0.000    0.000 
#    0.000    0.000    0.000    0.000    0.000    0.000 
#
# Total GULP energy -223220.927842 kJ/mol
# GULP energy per Si atom -5580.523196 kJ/mol
# Density = 1.806116 g / cm^3
# Si number density = 18.102364 Si / 1000 Ang^3
#
#
#
# Elastic Constant Matrix: (Units=GPa)
#
#
# Indices 1 2 3 4 5 6 
#
# 1 147.2075 33.5238 88.0811 0.0000 0.0000 0.0000
# 2 33.5238 14.6348 36.0687 0.0000 0.0000 0.0000
# 3 88.0811 36.0687 148.7161 0.0000 0.0000 0.0000
# 4 0.0000 0.0000 0.0000 84.5479 0.0000 0.0000
# 5 0.0000 0.0000 0.0000 0.0000 34.6352 0.0000
# 6 0.0000 0.0000 0.0000 0.0000 0.0000 22.7344
#
#
#
# Elastic Compliance Matrix: (Units=1/GPa)
#
#
# Indices 1 2 3 4 5 6 
#
# 1 0.014303 -0.029546 -0.001305 0.000000 0.000000 0.000000
# 2 -0.029546 0.230904 -0.038502 0.000000 0.000000 0.000000
# 3 -0.001305 -0.038502 0.016835 0.000000 0.000000 0.000000
# 4 0.000000 0.000000 0.000000 0.011828 0.000000 0.000000
# 5 0.000000 0.000000 0.000000 0.000000 0.028872 0.000000
# 6 0.000000 0.000000 0.000000 0.000000 0.000000 0.043986
#
#
# Mechanical properties :
#
#
# Convention : Reuss Voigt Hill
#
# Bulk Modulus (GPa) = 8.10805 69.54506 38.82656
# Shear Modulus (GPa) = 9.49583 38.57584 24.03583
#
# Velocity S-wave (km/s) = 2.29282 4.62127 3.64782
# Velocity P-wave (km/s) = 3.39088 8.18388 6.26394
#
# Compressibility (1/GPa) = 0.12333419
#
# Stress axis : x y z
#
# Youngs Moduli (GPa) = 69.91673 4.33081 59.39878
#
# Poissons Ratio (x) = 0.12796 0.07753
# Poissons Ratio (y) = 2.06578 2.28699
# Poissons Ratio (z) = 0.09126 0.16675
#
# Static dielectric constant tensor:
#      x y z
#    x 1.604710 0.000000 0.000000 
#    y 0.000000 1.604490 0.000000 
#    z 0.000000 0.000000 1.628800 
# 
# From -- ./inp_files/72826.got.cif
#   From: 2010.05.17/outbox.cif.g08.bks.cpg/sg65_37_cif.got.tgz:72826.got - 2010.06.03 17:01:31.
