data_PCOD9488538
_publ_section_title
;
Structure prediction by ZEFSAII (Michael W. Deem and Ramdas Pophale) SiO2 
 PCOD9488538
Probable space group: C M M M
;
_chemical_formula_sum "Si O2"
_cell_formula_units_Z 88
_cell_length_a 9.206899
_cell_length_b 19.875224
_cell_length_c 29.827767
_cell_angle_alpha 90.000000
_cell_angle_beta 90.000000
_cell_angle_gamma 90.000000
_cell_volume 5458.158624
_symmetry_space_group_name_H-M "C M M M"
_symmetry_group_IT_number 65
_symmetry_cell_setting 'orthorhombic'
loop_
_space_group_symop_operation_xyz
x,y,z
-x,-y,z
x,-y,-z
-x,y,-z
-x,-y,-z
x,y,-z
-x,y,z
x,-y,z
1/2+x,1/2+y,z
1/2-x,1/2-y,z
1/2+x,1/2-y,-z
1/2-x,1/2+y,-z
1/2-x,1/2-y,-z
1/2+x,1/2+y,-z
1/2-x,1/2+y,z
1/2+x,1/2-y,z
loop_
_atom_site_type_symbol
_atom_site_label
_atom_site_fract_x
_atom_site_fract_y
_atom_site_fract_z
Si Si1 0.332163 0.576711 0.866187
Si Si2 0.826765 0.678451 0.301463
Si Si3 0.173740 0.819338 0.448076
Si Si4 0.823178 0.000000 0.050695
Si Si5 0.325281 0.421071 0.630259
Si Si6 0.171384 0.679956 0.803811
O O1 0.500000 0.599601 0.865590
O O2 0.329437 0.500000 0.847874
O O3 0.284105 0.563945 0.917946
O O4 0.234283 0.624073 0.836681
O O5 0.750000 0.750000 0.311778
O O6 0.756972 0.619848 0.331111
O O7 0.801577 0.664100 0.248687
O O8 0.000000 0.683942 0.309017
O O9 0.214330 0.831973 0.500000
O O10 0.250000 0.750000 0.433485
O O11 0.209478 0.881343 0.415744
O O12 0.000000 0.809514 0.446290
O O13 0.000000 0.000000 0.049786
O O14 0.769576 0.000000 0.000000
O O15 0.500000 0.416297 0.637046
O O16 0.287421 0.500000 0.628681
O O17 0.250000 0.750000 0.813498
O O18 0.000000 0.687214 0.809641
#
# Coordination Sequence:
#
# PCOD9488538 Si02
#       6
#    16  16  16   8  16  16
#     4   8  16  29  48  74 100 129 163 200 243 289
#     4  10  21  36  53  72  95 129 168 205 247 295
#     4   9  18  33  53  75  98 126 162 202 243 291
#     4   7  12  26  49  75 101 131 167 203 242 291
#     4  10  21  35  51  74 102 132 164 201 246 292
#     4  10  20  33  50  71  98 130 165 206 250 296
#
# _framework density 16.122653
#
# number of rings (size 3 to 8) (size 9 to 14) (size 15 to 20)
#    0.545    2.273    0.000    1.636    0.000    6.182 
#    0.000    5.455    0.000    1.636    0.000    3.818 
#    0.000    0.000    0.000    0.000    0.000    0.000 
#
# Total GULP energy -244977.876373 kJ/mol
# GULP energy per Si atom -5567.679008 kJ/mol
# Density = 1.608596 g / cm^3
# Si number density = 16.122653 Si / 1000 Ang^3
#
#
#
# Elastic Constant Matrix: (Units=GPa)
#
#
# Indices 1 2 3 4 5 6 
#
# 1 48.4209 55.9250 57.9891 0.0000 0.0000 0.0000
# 2 55.9250 127.4326 89.5508 0.0000 0.0000 0.0000
# 3 57.9891 89.5508 108.1594 0.0000 0.0000 0.0000
# 4 0.0000 0.0000 0.0000 25.3689 0.0000 0.0000
# 5 0.0000 0.0000 0.0000 0.0000 19.5180 0.0000
# 6 0.0000 0.0000 0.0000 0.0000 0.0000 31.2204
#
#
#
# Elastic Compliance Matrix: (Units=1/GPa)
#
#
# Indices 1 2 3 4 5 6 
#
# 1 0.061899 -0.009191 -0.025577 0.000000 0.000000 0.000000
# 2 -0.009191 0.020130 -0.011739 0.000000 0.000000 0.000000
# 3 -0.025577 -0.011739 0.032678 0.000000 0.000000 0.000000
# 4 0.000000 0.000000 0.000000 0.039418 0.000000 0.000000
# 5 0.000000 0.000000 0.000000 0.000000 0.051235 0.000000
# 6 0.000000 0.000000 0.000000 0.000000 0.000000 0.032030
#
#
# Mechanical properties :
#
#
# Convention : Reuss Voigt Hill
#
# Bulk Modulus (GPa) = 46.09836 76.77139 61.43487
# Shear Modulus (GPa) = 14.80883 20.59133 17.70008
#
# Velocity S-wave (km/s) = 3.03398 3.57763 3.31696
# Velocity P-wave (km/s) = 6.39748 8.04900 7.27029
#
# Compressibility (1/GPa) = 0.02169275
#
# Stress axis : x y z
#
# Youngs Moduli (GPa) = 16.15535 49.67599 30.60162
#
# Poissons Ratio (x) = 0.45659 0.78269
# Poissons Ratio (y) = 0.14849 0.35924
# Poissons Ratio (z) = 0.41320 0.58316
#
# Static dielectric constant tensor:
#      x y z
#    x 1.534600 0.000000 0.000000 
#    y 0.000000 1.514890 0.000000 
#    z 0.000000 0.000000 1.554760 
# 
# From -- ./inp_files/76799.got.cif
#   From: 2010.05.17/outbox.cif.g08.bks.cpg/sg65_39_cif.got.tgz:76799.got - 2010.06.03 17:01:31.
