data_PCOD9488938
_publ_section_title
;
Structure prediction by ZEFSAII (Michael W. Deem and Ramdas Pophale) SiO2 
 PCOD9488938
Probable space group: C M M M
;
_chemical_formula_sum "Si O2"
_cell_formula_units_Z 42
_cell_length_a 33.642288
_cell_length_b 8.208369
_cell_length_c 7.346459
_cell_angle_alpha 90.000000
_cell_angle_beta 90.000000
_cell_angle_gamma 90.000000
_cell_volume 2028.712266
_symmetry_space_group_name_H-M "C M M M"
_symmetry_group_IT_number 65
_symmetry_cell_setting 'orthorhombic'
loop_
_space_group_symop_operation_xyz
x,y,z
-x,-y,z
x,-y,-z
-x,y,-z
-x,-y,-z
x,y,-z
-x,y,z
x,-y,z
1/2+x,1/2+y,z
1/2-x,1/2-y,z
1/2+x,1/2-y,-z
1/2-x,1/2+y,-z
1/2-x,1/2-y,-z
1/2+x,1/2+y,-z
1/2-x,1/2+y,z
1/2+x,1/2-y,z
loop_
_atom_site_type_symbol
_atom_site_label
_atom_site_fract_x
_atom_site_fract_y
_atom_site_fract_z
Si Si1 0.574888 0.500000 0.224071
Si Si2 0.377445 0.822561 0.212975
Si Si3 0.792616 0.184991 0.280536
Si Si4 0.500000 0.500000 0.500000
O O1 0.599772 0.338094 0.278251
O O2 0.534735 0.500000 0.338985
O O3 0.569889 0.500000 0.000000
O O4 0.330348 0.792687 0.229985
O O5 0.387817 0.000000 0.292313
O O6 0.386904 0.829870 0.000000
O O7 0.791209 0.182754 0.500000
O O8 0.750000 0.250000 0.216837
O O9 0.799076 0.000000 0.217227
#
# Coordination Sequence:
#
# PCOD9488938 Si02
#       4
#     8  16  16   2
#     4  10  23  45  67  96 133 161 204 265 317 380
#     4  10  21  38  61  87 120 166 207 250 313 372
#     4  10  20  33  52  82 122 164 212 262 307 358
#     4  12  26  44  78 102 120 166 206 252 330 406
#
# _framework density 20.70279
#
# number of rings (size 3 to 8) (size 9 to 14) (size 15 to 20)
#    0.000    1.905    1.905    1.429    2.667    3.048 
#    0.000    1.905    0.000    4.571    0.000    0.000 
#    0.000    0.000    0.000    0.000    0.000    0.000 
#
# Total GULP energy -116970.080436 kJ/mol
# GULP energy per Si atom -5570.003830 kJ/mol
# Density = 2.065567 g / cm^3
# Si number density = 20.702790 Si / 1000 Ang^3
#
#
#
# Elastic Constant Matrix: (Units=GPa)
#
#
# Indices 1 2 3 4 5 6 
#
# 1 155.3473 81.2872 16.7659 0.0000 0.0000 0.0000
# 2 81.2872 199.1568 24.8304 0.0000 0.0000 0.0000
# 3 16.7659 24.8304 94.1236 0.0000 0.0000 0.0000
# 4 0.0000 0.0000 0.0000 -50.4088 0.0000 0.0000
# 5 0.0000 0.0000 0.0000 0.0000 33.3565 0.0000
# 6 0.0000 0.0000 0.0000 0.0000 0.0000 -3.2782
#
#
#
# Elastic Compliance Matrix: (Units=1/GPa)
#
#
# Indices 1 2 3 4 5 6 
#
# 1 0.008218 -0.003280 -0.000599 0.000000 0.000000 0.000000
# 2 -0.003280 0.006501 -0.001131 0.000000 0.000000 0.000000
# 3 -0.000599 -0.001131 0.011029 0.000000 0.000000 0.000000
# 4 0.000000 0.000000 0.000000 -0.019838 0.000000 0.000000
# 5 0.000000 0.000000 0.000000 0.000000 0.029979 0.000000
# 6 0.000000 0.000000 0.000000 0.000000 0.000000 -0.305049
#
#
# Mechanical properties :
#
#
# Convention : Reuss Voigt Hill
#
# Bulk Modulus (GPa) = 63.57304 77.15497 70.36400
# Shear Modulus (GPa) = -19.69294 17.65018 -1.02138
#
# Velocity S-wave (km/s) = -3.08753 2.92302 -0.70315
# Velocity P-wave (km/s) = 4.25014 6.98146 5.77947
#
# Compressibility (1/GPa) = 0.01572994
#
# Stress axis : x y z
#
# Youngs Moduli (GPa) = 121.68633 153.82928 90.66782
#
# Poissons Ratio (x) = 0.50449 0.05428
# Poissons Ratio (y) = 0.39907 0.10252
# Poissons Ratio (z) = 0.07285 0.17394
#
# Static dielectric constant tensor:
#      x y z
#    x 1.676030 0.000000 0.000000 
#    y 0.000000 1.770090 0.000000 
#    z 0.000000 0.000000 1.787980 
# 
# From -- ./inp_files/2891.got.cif
#   From: 2010.05.17/outbox.cif.g08.bks.cpg/sg65_2_cif.got.tgz:2891.got - 2010.06.03 17:01:31.
