data_PCOD9488604
_publ_section_title
;
Structure prediction by ZEFSAII (Michael W. Deem and Ramdas Pophale) SiO2 
 PCOD9488604
Probable space group: C M M M
;
_chemical_formula_sum "Si O2"
_cell_formula_units_Z 80
_cell_length_a 28.827350
_cell_length_b 16.448990
_cell_length_c 8.921139
_cell_angle_alpha 90.000000
_cell_angle_beta 90.000000
_cell_angle_gamma 90.000000
_cell_volume 4230.232755
_symmetry_space_group_name_H-M "C M M M"
_symmetry_group_IT_number 65
_symmetry_cell_setting 'orthorhombic'
loop_
_space_group_symop_operation_xyz
x,y,z
-x,-y,z
x,-y,-z
-x,y,-z
-x,-y,-z
x,y,-z
-x,y,z
x,-y,z
1/2+x,1/2+y,z
1/2-x,1/2-y,z
1/2+x,1/2-y,-z
1/2-x,1/2+y,-z
1/2-x,1/2-y,-z
1/2+x,1/2+y,-z
1/2-x,1/2+y,z
1/2+x,1/2-y,z
loop_
_atom_site_type_symbol
_atom_site_label
_atom_site_fract_x
_atom_site_fract_y
_atom_site_fract_z
Si Si1 0.221777 0.595136 0.665397
Si Si2 0.944278 0.091832 0.822779
Si Si3 0.390132 0.258953 0.678654
Si Si4 0.124418 0.594484 0.178999
Si Si5 0.206084 0.811490 0.173724
O O1 0.217067 0.635048 0.500000
O O2 0.219350 0.500000 0.644987
O O3 0.177721 0.611004 0.771815
O O4 0.270686 0.614051 0.740575
O O5 0.922115 0.166919 0.734948
O O6 0.000000 0.094699 0.808507
O O7 0.929375 0.000000 0.775733
O O8 0.933138 0.100066 0.000000
O O9 0.389911 0.254337 0.500000
O O10 0.402697 0.169486 0.744982
O O11 0.339180 0.281188 0.741849
O O12 0.113143 0.500000 0.222043
O O13 0.120598 0.600198 0.000000
O O14 0.250000 0.750000 0.179546
O O15 0.195116 0.826670 0.000000
#
# Coordination Sequence:
#
# PCOD9488604 Si02
#       5
#    16  16  16  16  16
#     4  10  20  33  50  73 103 141 186 237 292 345
#     4   9  20  42  70  95 120 153 194 242 297 359
#     4  12  24  36  58  88 120 156 193 241 300 359
#     4  10  20  35  55  79 110 151 198 241 281 335
#     4  11  22  35  52  74 106 151 198 242 286 338
#
# _framework density 18.911489
#
# number of rings (size 3 to 8) (size 9 to 14) (size 15 to 20)
#    0.000    1.600    2.000    4.200    0.000    4.800 
#    0.000    1.000    0.000    0.600    0.000    4.200 
#    0.000    0.000    0.000    0.000    0.000    0.000 
#
# Total GULP energy -222968.575070 kJ/mol
# GULP energy per Si atom -5574.214377 kJ/mol
# Density = 1.886845 g / cm^3
# Si number density = 18.911489 Si / 1000 Ang^3
#
#
#
# Elastic Constant Matrix: (Units=GPa)
#
#
# Indices 1 2 3 4 5 6 
#
# 1 32.8972 42.1482 30.0442 0.0000 0.0000 0.0000
# 2 42.1482 137.6427 67.2124 0.0000 0.0000 0.0000
# 3 30.0442 67.2124 126.3494 0.0000 0.0000 0.0000
# 4 0.0000 0.0000 0.0000 20.5186 0.0000 0.0000
# 5 0.0000 0.0000 0.0000 0.0000 45.3603 0.0000
# 6 0.0000 0.0000 0.0000 0.0000 0.0000 27.0583
#
#
#
# Elastic Compliance Matrix: (Units=1/GPa)
#
#
# Indices 1 2 3 4 5 6 
#
# 1 0.052539 -0.013493 -0.005316 0.000000 0.000000 0.000000
# 2 -0.013493 0.013280 -0.003856 0.000000 0.000000 0.000000
# 3 -0.005316 -0.003856 0.011230 0.000000 0.000000 0.000000
# 4 0.000000 0.000000 0.000000 0.048736 0.000000 0.000000
# 5 0.000000 0.000000 0.000000 0.000000 0.022046 0.000000
# 6 0.000000 0.000000 0.000000 0.000000 0.000000 0.036957
#
#
# Mechanical properties :
#
#
# Convention : Reuss Voigt Hill
#
# Bulk Modulus (GPa) = 31.52552 63.96654 47.74603
# Shear Modulus (GPa) = 20.77369 29.08642 24.93006
#
# Velocity S-wave (km/s) = 3.31791 3.92603 3.63471
# Velocity P-wave (km/s) = 5.60217 7.37897 6.55109
#
# Compressibility (1/GPa) = 0.03172034
#
# Stress axis : x y z
#
# Youngs Moduli (GPa) = 19.03347 75.30332 89.04966
#
# Poissons Ratio (x) = 1.01603 0.47336
# Poissons Ratio (y) = 0.25681 0.34336
# Poissons Ratio (z) = 0.10118 0.29036
#
# Static dielectric constant tensor:
#      x y z
#    x 1.632600 0.000000 0.000000 
#    y 0.000000 1.743290 0.000000 
#    z 0.000000 0.000000 1.665510 
# 
# From -- ./inp_files/16056.got.cif
#   From: 2010.05.17/outbox.cif.g08.bks.cpg/sg65_9_cif.got.tgz:16056.got - 2010.06.03 17:01:31.
