data_PCOD9488852
_publ_section_title
;
Structure prediction by ZEFSAII (Michael W. Deem and Ramdas Pophale) SiO2 
 PCOD9488852
Probable space group: C M M M
;
_chemical_formula_sum "Si O2"
_cell_formula_units_Z 120
_cell_length_a 28.214119
_cell_length_b 27.726379
_cell_length_c 8.881641
_cell_angle_alpha 90.000000
_cell_angle_beta 90.000000
_cell_angle_gamma 90.000000
_cell_volume 6947.888880
_symmetry_space_group_name_H-M "C M M M"
_symmetry_group_IT_number 65
_symmetry_cell_setting 'orthorhombic'
loop_
_space_group_symop_operation_xyz
x,y,z
-x,-y,z
x,-y,-z
-x,y,-z
-x,-y,-z
x,y,-z
-x,y,z
x,-y,z
1/2+x,1/2+y,z
1/2-x,1/2-y,z
1/2+x,1/2-y,-z
1/2-x,1/2+y,-z
1/2-x,1/2-y,-z
1/2+x,1/2+y,-z
1/2-x,1/2+y,z
1/2+x,1/2-y,z
loop_
_atom_site_type_symbol
_atom_site_label
_atom_site_fract_x
_atom_site_fract_y
_atom_site_fract_z
Si Si1 0.782856 0.100281 0.820965
Si Si2 0.228878 0.698521 0.180070
Si Si3 0.055060 0.708587 0.179853
Si Si4 0.361886 0.150395 0.679932
Si Si5 0.190779 0.445836 0.318647
Si Si6 0.944544 0.188195 0.680788
Si Si7 0.114008 0.093749 0.682101
Si Si8 0.945612 0.000000 0.683535
O O1 0.765868 0.155267 0.790476
O O2 0.741493 0.067152 0.752463
O O3 0.833594 0.090852 0.748475
O O4 0.784990 0.093590 0.000000
O O5 0.250000 0.750000 0.224617
O O6 0.180663 0.684872 0.264269
O O7 0.219675 0.699346 0.000000
O O8 0.089822 0.668967 0.247946
O O9 0.068655 0.761464 0.242086
O O10 0.000000 0.700615 0.222133
O O11 0.058616 0.708724 0.000000
O O12 0.365301 0.152227 0.500000
O O13 0.345656 0.096438 0.725928
O O14 0.195417 0.443637 0.500000
O O15 0.176300 0.500000 0.276696
O O16 0.940807 0.193739 0.500000
O O17 0.912015 0.143379 0.727172
O O18 0.000000 0.178024 0.715094
O O19 0.116705 0.093321 0.500000
O O20 0.082442 0.047987 0.729458
O O21 0.946658 0.000000 0.500000
O O22 0.000000 0.000000 0.735127
#
# Coordination Sequence:
#
# PCOD9488852 Si02
#       8
#    16  16  16  16  16  16  16   8
#     4  10  21  34  49  75 107 138 173 213 257 308
#     4   9  19  35  52  72 103 143 177 208 252 311
#     4  10  21  36  55  79 109 145 179 211 254 314
#     4  10  20  34  55  83 108 135 173 219 265 310
#     4   9  19  37  59  79 104 137 173 214 260 315
#     4   9  18  33  52  75 102 133 174 223 268 310
#     4  10  20  33  52  76 101 132 172 222 272 318
#     4   9  18  34  55  75  95 129 177 223 270 321
#
# _framework density 17.271433999999999
#
# number of rings (size 3 to 8) (size 9 to 14) (size 15 to 20)
#    0.000    2.467    0.000    1.600    2.800    4.533 
#    0.000    0.000    0.000    2.000    0.000    2.800 
#    0.000    0.000    0.000    0.000    0.000    0.000 
#
# Total GULP energy -334825.695022 kJ/mol
# GULP energy per Si atom -5580.428250 kJ/mol
# Density = 1.723212 g / cm^3
# Si number density = 17.271434 Si / 1000 Ang^3
#
#
#
# Elastic Constant Matrix: (Units=GPa)
#
#
# Indices 1 2 3 4 5 6 
#
# 1 124.2553 86.9875 38.4084 0.0000 0.0000 0.0000
# 2 86.9875 143.9572 40.1596 0.0000 0.0000 0.0000
# 3 38.4084 40.1596 21.6665 0.0000 0.0000 0.0000
# 4 0.0000 0.0000 0.0000 13.6241 0.0000 0.0000
# 5 0.0000 0.0000 0.0000 0.0000 25.6273 0.0000
# 6 0.0000 0.0000 0.0000 0.0000 0.0000 13.9820
#
#
#
# Elastic Compliance Matrix: (Units=1/GPa)
#
#
# Indices 1 2 3 4 5 6 
#
# 1 0.019019 -0.004321 -0.025705 0.000000 0.000000 0.000000
# 2 -0.004321 0.015366 -0.020821 0.000000 0.000000 0.000000
# 3 -0.025705 -0.020821 0.130314 0.000000 0.000000 0.000000
# 4 0.000000 0.000000 0.000000 0.073399 0.000000 0.000000
# 5 0.000000 0.000000 0.000000 0.000000 0.039021 0.000000
# 6 0.000000 0.000000 0.000000 0.000000 0.000000 0.071520
#
#
# Mechanical properties :
#
#
# Convention : Reuss Voigt Hill
#
# Bulk Modulus (GPa) = 15.87195 68.99889 42.43542
# Shear Modulus (GPa) = 10.60813 18.93491 14.77152
#
# Velocity S-wave (km/s) = 2.48100 3.31465 2.92765
# Velocity P-wave (km/s) = 4.17334 7.39498 6.00427
#
# Compressibility (1/GPa) = 0.06300422
#
# Stress axis : x y z
#
# Youngs Moduli (GPa) = 52.57926 65.07756 7.67375
#
# Poissons Ratio (x) = 0.28123 0.19725
# Poissons Ratio (y) = 0.22722 0.15978
# Poissons Ratio (z) = 1.35155 1.35499
#
# Static dielectric constant tensor:
#      x y z
#    x 1.559540 0.000000 0.000000 
#    y 0.000000 1.585170 0.000000 
#    z 0.000000 0.000000 1.575050 
# 
# From -- ./inp_files/17117.got.cif
#   From: 2010.05.17/outbox.cif.g08.bks.cpg/sg65_9_cif.got.tgz:17117.got - 2010.06.03 17:01:31.
