data_PCOD9488111
_publ_section_title
;
Structure prediction by ZEFSAII (Michael W. Deem and Ramdas Pophale) SiO2 
 PCOD9488111
Probable space group: C M M M
;
_chemical_formula_sum "Si O2"
_cell_formula_units_Z 128
_cell_length_a 18.495652
_cell_length_b 15.251169
_cell_length_c 23.847881
_cell_angle_alpha 90.000000
_cell_angle_beta 90.000000
_cell_angle_gamma 90.000000
_cell_volume 6727.017771
_symmetry_space_group_name_H-M "C M M M"
_symmetry_group_IT_number 65
_symmetry_cell_setting 'orthorhombic'
loop_
_space_group_symop_operation_xyz
x,y,z
-x,-y,z
x,-y,-z
-x,y,-z
-x,-y,-z
x,y,-z
-x,y,z
x,-y,z
1/2+x,1/2+y,z
1/2-x,1/2-y,z
1/2+x,1/2-y,-z
1/2-x,1/2+y,-z
1/2-x,1/2-y,-z
1/2+x,1/2+y,-z
1/2-x,1/2+y,z
1/2+x,1/2-y,z
loop_
_atom_site_type_symbol
_atom_site_label
_atom_site_fract_x
_atom_site_fract_y
_atom_site_fract_z
Si Si1 0.765165 0.393390 0.936651
Si Si2 0.156659 0.651654 0.217499
Si Si3 0.086610 0.395864 0.665501
Si Si4 0.088444 0.100737 0.626979
Si Si5 0.078399 0.101649 0.747210
Si Si6 0.920202 0.603427 0.893198
Si Si7 0.693938 0.652128 0.176009
Si Si8 0.411978 0.771859 0.437075
O O1 0.762805 0.500000 0.930115
O O2 0.848314 0.364389 0.925144
O O3 0.714650 0.352168 0.888918
O O4 0.744431 0.371796 0.000000
O O5 0.127259 0.638417 0.279259
O O6 0.099868 0.614992 0.172269
O O7 0.236085 0.611202 0.207130
O O8 0.174024 0.751174 0.198722
O O9 0.099272 0.500000 0.659306
O O10 0.109345 0.341633 0.610470
O O11 0.000000 0.383047 0.673150
O O12 0.112599 0.134944 0.688910
O O13 0.109859 0.173951 0.582201
O O14 0.000000 0.100297 0.629214
O O15 0.111354 0.000000 0.615730
O O16 0.123488 0.103229 0.803464
O O17 0.000000 0.144272 0.755233
O O18 0.069551 0.000000 0.732959
O O19 0.923890 0.500000 0.905628
O O20 0.000000 0.641086 0.905471
O O21 0.386910 0.791888 0.500000
O O22 0.500000 0.772874 0.437934
#
# Coordination Sequence:
#
# PCOD9488111 Si02
#       8
#    16  16  16  16  16  16  16  16
#     4   9  18  33  53  75 100 134 171 203 242 298
#     4  10  20  32  47  73 100 127 165 206 260 316
#     4  10  20  33  51  75 104 140 179 220 265 311
#     4   8  14  25  42  67  98 130 168 216 269 321
#     4   9  17  29  47  71  96 123 157 201 257 312
#     4   9  17  30  49  73 101 131 165 208 254 301
#     4  10  20  33  49  73 102 130 163 207 255 308
#     4   9  17  28  43  67 101 140 178 214 255 305
#
# _framework density 19.027747000000002
#
# number of rings (size 3 to 8) (size 9 to 14) (size 15 to 20)
#    0.000    2.750    0.000    2.625    0.000    5.250 
#    0.000    8.750    0.000    0.375    0.000    8.750 
#    0.000    6.000    0.000    0.125    0.000    0.000 
#
# Total GULP energy -356315.277424 kJ/mol
# GULP energy per Si atom -5567.426210 kJ/mol
# Density = 1.898444 g / cm^3
# Si number density = 19.027747 Si / 1000 Ang^3
#
#
#
# Elastic Constant Matrix: (Units=GPa)
#
#
# Indices 1 2 3 4 5 6 
#
# 1 29.9959 17.6075 38.7718 0.0000 0.0000 0.0000
# 2 17.6075 71.7685 51.5886 0.0000 0.0000 0.0000
# 3 38.7718 51.5886 173.4069 0.0000 0.0000 0.0000
# 4 0.0000 0.0000 0.0000 18.6805 0.0000 0.0000
# 5 0.0000 0.0000 0.0000 0.0000 11.1354 0.0000
# 6 0.0000 0.0000 0.0000 0.0000 0.0000 13.1491
#
#
#
# Elastic Compliance Matrix: (Units=1/GPa)
#
#
# Indices 1 2 3 4 5 6 
#
# 1 0.048371 -0.005207 -0.009266 0.000000 0.000000 0.000000
# 2 -0.005207 0.018284 -0.004275 0.000000 0.000000 0.000000
# 3 -0.009266 -0.004275 0.009111 0.000000 0.000000 0.000000
# 4 0.000000 0.000000 0.000000 0.053532 0.000000 0.000000
# 5 0.000000 0.000000 0.000000 0.000000 0.089803 0.000000
# 6 0.000000 0.000000 0.000000 0.000000 0.000000 0.076051
#
#
# Mechanical properties :
#
#
# Convention : Reuss Voigt Hill
#
# Bulk Modulus (GPa) = 26.13034 54.56746 40.34890
# Shear Modulus (GPa) = 14.47574 19.73990 17.10782
#
# Velocity S-wave (km/s) = 2.76120 3.22441 3.00175
# Velocity P-wave (km/s) = 4.89164 6.52706 5.76761
#
# Compressibility (1/GPa) = 0.03826969
#
# Stress axis : x y z
#
# Youngs Moduli (GPa) = 20.67334 54.69161 109.76235
#
# Poissons Ratio (x) = 0.28475 1.01710
# Poissons Ratio (y) = 0.10764 0.46929
# Poissons Ratio (z) = 0.19157 0.23383
#
# Static dielectric constant tensor:
#      x y z
#    x 1.702150 0.000000 0.000000 
#    y 0.000000 1.805440 0.000000 
#    z 0.000000 0.000000 1.673740 
# 
# From -- ./inp_files/64862.got.cif
#   From: 2010.05.17/outbox.cif.g08.bks.cpg/sg65_33_cif.got.tgz:64862.got - 2010.06.03 17:01:31.
