data_PCOD9488692
_publ_section_title
;
Structure prediction by ZEFSAII (Michael W. Deem and Ramdas Pophale) SiO2 
 PCOD9488692
Probable space group: C M M M
;
_chemical_formula_sum "Si O2"
_cell_formula_units_Z 112
_cell_length_a 27.528867
_cell_length_b 16.313179
_cell_length_c 13.974253
_cell_angle_alpha 90.000000
_cell_angle_beta 90.000000
_cell_angle_gamma 90.000000
_cell_volume 6275.604142
_symmetry_space_group_name_H-M "C M M M"
_symmetry_group_IT_number 65
_symmetry_cell_setting 'orthorhombic'
loop_
_space_group_symop_operation_xyz
x,y,z
-x,-y,z
x,-y,-z
-x,y,-z
-x,-y,-z
x,y,-z
-x,y,z
x,-y,z
1/2+x,1/2+y,z
1/2-x,1/2-y,z
1/2+x,1/2-y,-z
1/2-x,1/2+y,-z
1/2-x,1/2-y,-z
1/2+x,1/2+y,-z
1/2-x,1/2+y,z
1/2+x,1/2-y,z
loop_
_atom_site_type_symbol
_atom_site_label
_atom_site_fract_x
_atom_site_fract_y
_atom_site_fract_z
Si Si1 0.810089 0.588947 0.385821
Si Si2 0.941591 0.000000 0.609759
Si Si3 0.057005 0.820074 0.309830
Si Si4 0.598891 0.677191 0.109387
Si Si5 0.147796 0.758701 0.610298
Si Si6 0.444393 0.500000 0.112426
Si Si7 0.295615 0.409363 0.300716
Si Si8 0.286419 0.326031 0.891133
O O1 0.817382 0.588492 0.500000
O O2 0.827059 0.500000 0.348215
O O3 0.834771 0.671680 0.349077
O O4 0.753060 0.594440 0.363468
O O5 0.930263 0.915809 0.665784
O O6 0.921697 0.000000 0.500000
O O7 0.000000 0.000000 0.600996
O O8 0.071093 0.790062 0.202618
O O9 0.090309 0.768043 0.380541
O O10 0.000000 0.811645 0.324107
O O11 0.587661 0.580665 0.126412
O O12 0.656145 0.696524 0.113342
O O13 0.582156 0.696493 0.000000
O O14 0.163426 0.765550 0.500000
O O15 0.170754 0.834561 0.667394
O O16 0.500000 0.500000 0.157070
O O17 0.453303 0.500000 0.000000
O O18 0.317602 0.500000 0.311828
O O19 0.280268 0.392993 0.191284
O O20 0.250000 0.250000 0.872736
O O21 0.277372 0.354588 0.000000
#
# Coordination Sequence:
#
# PCOD9488692 Si02
#       8
#    16   8  16  16  16   8  16  16
#     4   9  19  37  59  82 106 136 177 226 276 321
#     4   9  19  35  50  66 101 149 187 221 262 317
#     4  11  22  34  50  74 105 142 184 224 267 323
#     4  10  20  33  51  73  99 137 183 227 273 324
#     4  11  22  35  55  79 109 145 180 222 268 322
#     4   9  17  29  47  71 101 137 176 222 268 311
#     4  11  22  34  54  82 112 144 180 221 265 325
#     4  10  21  36  53  73 104 145 187 231 276 323
#
# _framework density 17.846886999999999
#
# number of rings (size 3 to 8) (size 9 to 14) (size 15 to 20)
#    0.000    1.857    1.429    3.000    2.000    4.571 
#    0.000    0.000    0.000    0.429    0.000    2.000 
#    0.000    0.000    0.000    1.286    0.000    0.000 
#
# Total GULP energy -311994.342079 kJ/mol
# GULP energy per Si atom -5571.327537 kJ/mol
# Density = 1.780627 g / cm^3
# Si number density = 17.846887 Si / 1000 Ang^3
#
#
#
# Elastic Constant Matrix: (Units=GPa)
#
#
# Indices 1 2 3 4 5 6 
#
# 1 86.3127 54.1752 2.0210 0.0000 0.0000 0.0000
# 2 54.1752 104.8095 27.6722 0.0000 0.0000 0.0000
# 3 2.0210 27.6722 70.5991 0.0000 0.0000 0.0000
# 4 0.0000 0.0000 0.0000 16.2522 0.0000 0.0000
# 5 0.0000 0.0000 0.0000 0.0000 16.2809 0.0000
# 6 0.0000 0.0000 0.0000 0.0000 0.0000 38.5416
#
#
#
# Elastic Compliance Matrix: (Units=1/GPa)
#
#
# Indices 1 2 3 4 5 6 
#
# 1 0.017881 -0.010158 0.003470 0.000000 0.000000 0.000000
# 2 -0.010158 0.016414 -0.006143 0.000000 0.000000 0.000000
# 3 0.003470 -0.006143 0.016473 0.000000 0.000000 0.000000
# 4 0.000000 0.000000 0.000000 0.061530 0.000000 0.000000
# 5 0.000000 0.000000 0.000000 0.000000 0.061421 0.000000
# 6 0.000000 0.000000 0.000000 0.000000 0.000000 0.025946
#
#
# Mechanical properties :
#
#
# Convention : Reuss Voigt Hill
#
# Bulk Modulus (GPa) = 39.83343 47.71758 43.77551
# Shear Modulus (GPa) = 21.39531 26.07180 23.73356
#
# Velocity S-wave (km/s) = 3.46616 3.82627 3.65066
# Velocity P-wave (km/s) = 6.19573 6.80556 6.50779
#
# Compressibility (1/GPa) = 0.02510454
#
# Stress axis : x y z
#
# Youngs Moduli (GPa) = 55.92644 60.92430 60.70573
#
# Poissons Ratio (x) = 0.61890 -0.21064
# Poissons Ratio (y) = 0.56813 0.37290
# Poissons Ratio (z) = -0.19406 0.37425
#
# Static dielectric constant tensor:
#      x y z
#    x 1.606220 0.000000 0.000000 
#    y 0.000000 1.632270 0.000000 
#    z 0.000000 0.000000 1.681900 
# 
# From -- ./inp_files/47089.got.cif
#   From: 2010.05.17/outbox.cif.g08.bks.cpg/sg65_24_cif.got.tgz:47089.got - 2010.06.03 17:01:31.
