data_PCOD9488689
_publ_section_title
;
Structure prediction by ZEFSAII (Michael W. Deem and Ramdas Pophale) SiO2 
 PCOD9488689
Probable space group: C M M M
;
_chemical_formula_sum "Si O2"
_cell_formula_units_Z 88
_cell_length_a 28.274134
_cell_length_b 8.561680
_cell_length_c 19.621015
_cell_angle_alpha 90.000000
_cell_angle_beta 90.000000
_cell_angle_gamma 90.000000
_cell_volume 4749.739304
_symmetry_space_group_name_H-M "C M M M"
_symmetry_group_IT_number 65
_symmetry_cell_setting 'orthorhombic'
loop_
_space_group_symop_operation_xyz
x,y,z
-x,-y,z
x,-y,-z
-x,y,-z
-x,-y,-z
x,y,-z
-x,y,z
x,-y,z
1/2+x,1/2+y,z
1/2-x,1/2-y,z
1/2+x,1/2-y,-z
1/2-x,1/2+y,-z
1/2-x,1/2-y,-z
1/2+x,1/2+y,-z
1/2-x,1/2+y,z
1/2+x,1/2-y,z
loop_
_atom_site_type_symbol
_atom_site_label
_atom_site_fract_x
_atom_site_fract_y
_atom_site_fract_z
Si Si1 0.607648 0.189707 0.076833
Si Si2 0.644044 0.685729 0.712931
Si Si3 0.301427 0.186144 0.837482
Si Si4 0.946390 0.311446 0.790706
Si Si5 0.000000 0.675979 0.417423
Si Si6 0.601704 0.311817 0.422482
O O1 0.657100 0.241711 0.111260
O O2 0.566552 0.227484 0.130768
O O3 0.609293 0.000000 0.074003
O O4 0.601494 0.247672 0.000000
O O5 0.651061 0.500000 0.714507
O O6 0.682633 0.763453 0.761682
O O7 0.593461 0.728669 0.746228
O O8 0.639223 0.739302 0.634542
O O9 0.250000 0.250000 0.854569
O O10 0.300624 0.000000 0.840452
O O11 0.941263 0.500000 0.783001
O O12 0.000000 0.268772 0.773578
O O13 0.950862 0.758718 0.400237
O O14 0.000000 0.500000 0.389871
O O15 0.000000 0.669892 0.500000
O O16 0.610176 0.255861 0.500000
O O17 0.601784 0.500000 0.423697
#
# Coordination Sequence:
#
# PCOD9488689 Si02
#       6
#    16  16  16  16   8  16
#     4   8  15  29  49  74 102 130 163 201 241 289
#     4  10  20  33  51  73  97 129 168 207 249 295
#     4  10  20  35  55  77 101 127 158 199 248 298
#     4   9  18  31  47  70 101 137 172 207 245 284
#     4   9  17  27  41  65  95 127 162 199 240 285
#     4   9  18  32  48  67  95 130 167 206 248 293
#
# _framework density 18.527332000000001
#
# number of rings (size 3 to 8) (size 9 to 14) (size 15 to 20)
#    0.000    2.818    0.000    2.455    1.273    3.636 
#    0.000    1.818    0.000   13.636    0.000    5.091 
#    0.000    0.000    0.000    0.000    0.000    0.000 
#
# Total GULP energy -245261.603227 kJ/mol
# GULP energy per Si atom -5574.127346 kJ/mol
# Density = 1.848516 g / cm^3
# Si number density = 18.527332 Si / 1000 Ang^3
#
#
#
# Elastic Constant Matrix: (Units=GPa)
#
#
# Indices 1 2 3 4 5 6 
#
# 1 26.5512 -0.0019 -20.6220 0.0000 0.0000 0.0000
# 2 -0.0019 14.9808 2.1619 0.0000 0.0000 0.0000
# 3 -20.6220 2.1619 71.9003 0.0000 0.0000 0.0000
# 4 0.0000 0.0000 0.0000 11.5777 0.0000 0.0000
# 5 0.0000 0.0000 0.0000 0.0000 14.3117 0.0000
# 6 0.0000 0.0000 0.0000 0.0000 0.0000 24.5819
#
#
#
# Elastic Compliance Matrix: (Units=1/GPa)
#
#
# Indices 1 2 3 4 5 6 
#
# 1 0.048518 -0.002011 0.013976 0.000000 0.000000 0.000000
# 2 -0.002011 0.067126 -0.002595 0.000000 0.000000 0.000000
# 3 0.013976 -0.002595 0.017995 0.000000 0.000000 0.000000
# 4 0.000000 0.000000 0.000000 0.086373 0.000000 0.000000
# 5 0.000000 0.000000 0.000000 0.000000 0.069873 0.000000
# 6 0.000000 0.000000 0.000000 0.000000 0.000000 0.040680
#
#
# Mechanical properties :
#
#
# Convention : Reuss Voigt Hill
#
# Bulk Modulus (GPa) = 6.56255 8.50093 7.53174
# Shear Modulus (GPa) = 13.78860 18.88719 16.33789
#
# Velocity S-wave (km/s) = 2.73102 3.19630 2.97278
# Velocity P-wave (km/s) = 3.67347 4.26850 3.98212
#
# Compressibility (1/GPa) = 0.15237970
#
# Stress axis : x y z
#
# Youngs Moduli (GPa) = 20.61089 14.89725 55.57191
#
# Poissons Ratio (x) = 0.02995 -0.77668
# Poissons Ratio (y) = 0.04144 0.14421
# Poissons Ratio (z) = -0.28806 0.03866
#
# Static dielectric constant tensor:
#      x y z
#    x 1.607870 0.000000 0.000000 
#    y 0.000000 1.639670 0.000000 
#    z 0.000000 0.000000 1.693060 
# 
# From -- ./inp_files/60693.got.cif
#   From: 2010.05.17/outbox.cif.g08.bks.cpg/sg65_31_cif.got.tgz:60693.got - 2010.06.03 17:01:31.
