data_PCOD9488358
_publ_section_title
;
Structure prediction by ZEFSAII (Michael W. Deem and Ramdas Pophale) SiO2 
 PCOD9488358
Probable space group: C M M M
;
_chemical_formula_sum "Si O2"
_cell_formula_units_Z 104
_cell_length_a 8.833096
_cell_length_b 28.616618
_cell_length_c 24.763660
_cell_angle_alpha 90.000000
_cell_angle_beta 90.000000
_cell_angle_gamma 90.000000
_cell_volume 6259.592900
_symmetry_space_group_name_H-M "C M M M"
_symmetry_group_IT_number 65
_symmetry_cell_setting 'orthorhombic'
loop_
_space_group_symop_operation_xyz
x,y,z
-x,-y,z
x,-y,-z
-x,y,-z
-x,-y,-z
x,y,-z
-x,y,z
x,-y,z
1/2+x,1/2+y,z
1/2-x,1/2-y,z
1/2+x,1/2-y,-z
1/2-x,1/2+y,-z
1/2-x,1/2-y,-z
1/2+x,1/2+y,-z
1/2-x,1/2+y,z
1/2+x,1/2-y,z
loop_
_atom_site_type_symbol
_atom_site_label
_atom_site_fract_x
_atom_site_fract_y
_atom_site_fract_z
Si Si1 0.177545 0.556385 0.613791
Si Si2 0.682008 0.301196 0.675926
Si Si3 0.680234 0.056190 0.941080
Si Si4 0.317235 0.302395 0.442829
Si Si5 0.317816 0.445559 0.170350
Si Si6 0.316777 0.603618 0.719812
Si Si7 0.673899 0.442838 0.500000
O O1 0.193945 0.500000 0.616606
O O2 0.254222 0.577824 0.666833
O O3 0.249803 0.571546 0.556485
O O4 0.000000 0.567604 0.613403
O O5 0.500000 0.296653 0.676476
O O6 0.750000 0.250000 0.684419
O O7 0.727856 0.320177 0.616074
O O8 0.726679 0.341866 0.716735
O O9 0.500000 0.063430 0.938091
O O10 0.756312 0.073868 0.886363
O O11 0.705612 0.000000 0.941535
O O12 0.733693 0.073798 0.000000
O O13 0.269932 0.324908 0.500000
O O14 0.500000 0.300385 0.442979
O O15 0.250000 0.250000 0.443598
O O16 0.500000 0.443932 0.168764
O O17 0.272172 0.500000 0.174832
O O18 0.265841 0.419456 0.224302
O O19 0.500000 0.600760 0.717344
O O20 0.676700 0.500000 0.500000
O O21 0.500000 0.427107 0.500000
#
# Coordination Sequence:
#
# PCOD9488358 Si02
#       7
#    16  16  16  16  16  16   8
#     4  10  20  33  49  69  93 119 150 192 236 276
#     4   9  18  32  48  65  86 114 148 188 233 279
#     4   8  14  25  41  62  90 123 155 185 218 259
#     4   8  13  23  40  59  77  97 124 162 211 265
#     4   9  17  28  43  64  92 125 158 192 223 257
#     4  10  20  33  47  67  93 123 158 192 230 277
#     4   9  17  31  51  69  86 115 152 189 233 281
#
# _framework density 16.614498000000001
#
# number of rings (size 3 to 8) (size 9 to 14) (size 15 to 20)
#    0.000    3.000    0.000    1.615    0.000    4.000 
#    1.385    3.077    0.000    0.000    0.000    0.000 
#    0.000    0.615    0.000    1.385    0.000    2.462 
#
# Total GULP energy -289601.450583 kJ/mol
# GULP energy per Si atom -5569.258665 kJ/mol
# Density = 1.657668 g / cm^3
# Si number density = 16.614498 Si / 1000 Ang^3
#
#
#
# Elastic Constant Matrix: (Units=GPa)
#
#
# Indices 1 2 3 4 5 6 
#
# 1 19.6944 20.6789 39.7879 0.0000 0.0000 0.0000
# 2 20.6789 47.9588 58.2309 0.0000 0.0000 0.0000
# 3 39.7879 58.2309 174.0000 0.0000 0.0000 0.0000
# 4 0.0000 0.0000 0.0000 13.8371 0.0000 0.0000
# 5 0.0000 0.0000 0.0000 0.0000 21.0620 0.0000
# 6 0.0000 0.0000 0.0000 0.0000 0.0000 11.7696
#
#
#
# Elastic Compliance Matrix: (Units=1/GPa)
#
#
# Indices 1 2 3 4 5 6 
#
# 1 0.115051 -0.029755 -0.016350 0.000000 0.000000 0.000000
# 2 -0.029755 0.042819 -0.007526 0.000000 0.000000 0.000000
# 3 -0.016350 -0.007526 0.012004 0.000000 0.000000 0.000000
# 4 0.000000 0.000000 0.000000 0.072269 0.000000 0.000000
# 5 0.000000 0.000000 0.000000 0.000000 0.047479 0.000000
# 6 0.000000 0.000000 0.000000 0.000000 0.000000 0.084964
#
#
# Mechanical properties :
#
#
# Convention : Reuss Voigt Hill
#
# Bulk Modulus (GPa) = 15.97156 53.22764 34.59960
# Shear Modulus (GPa) = 9.94590 17.53078 13.73834
#
# Velocity S-wave (km/s) = 2.44934 3.25183 2.87869
# Velocity P-wave (km/s) = 4.19916 6.79747 5.64971
#
# Compressibility (1/GPa) = 0.06261129
#
# Stress axis : x y z
#
# Youngs Moduli (GPa) = 8.69182 23.35428 83.30253
#
# Poissons Ratio (x) = 0.69491 1.36202
# Poissons Ratio (y) = 0.25863 0.62691
# Poissons Ratio (z) = 0.14211 0.17576
#
# Static dielectric constant tensor:
#      x y z
#    x 1.563640 0.000000 0.000000 
#    y 0.000000 1.588230 0.000000 
#    z 0.000000 0.000000 1.586530 
# 
# From -- ./inp_files/68538.got.cif
#   From: 2010.05.17/outbox.cif.g08.bks.cpg/sg65_35_cif.got.tgz:68538.got - 2010.06.03 17:01:31.
