data_PCOD9488500
_publ_section_title
;
Structure prediction by ZEFSAII (Michael W. Deem and Ramdas Pophale) SiO2 
 PCOD9488500
Probable space group: C M M M
;
_chemical_formula_sum "Si O2"
_cell_formula_units_Z 88
_cell_length_a 8.885188
_cell_length_b 18.258186
_cell_length_c 29.579419
_cell_angle_alpha 90.000000
_cell_angle_beta 90.000000
_cell_angle_gamma 90.000000
_cell_volume 4798.592686
_symmetry_space_group_name_H-M "C M M M"
_symmetry_group_IT_number 65
_symmetry_cell_setting 'orthorhombic'
loop_
_space_group_symop_operation_xyz
x,y,z
-x,-y,z
x,-y,-z
-x,y,-z
-x,-y,-z
x,y,-z
-x,y,z
x,-y,z
1/2+x,1/2+y,z
1/2-x,1/2-y,z
1/2+x,1/2-y,-z
1/2-x,1/2+y,-z
1/2-x,1/2-y,-z
1/2+x,1/2+y,-z
1/2-x,1/2+y,z
1/2+x,1/2-y,z
loop_
_atom_site_type_symbol
_atom_site_label
_atom_site_fract_x
_atom_site_fract_y
_atom_site_fract_z
Si Si1 0.676323 0.412024 0.051150
Si Si2 0.821227 0.669359 0.866277
Si Si3 0.178949 0.830808 0.773759
Si Si4 0.324617 0.589398 0.598234
Si Si5 0.183554 0.085098 0.500000
Si Si6 0.673675 0.088297 0.308778
O O1 0.500000 0.392801 0.058081
O O2 0.687188 0.500000 0.053129
O O3 0.775112 0.376478 0.089972
O O4 0.718315 0.389277 0.000000
O O5 0.750000 0.750000 0.871395
O O6 0.749473 0.637839 0.820137
O O7 0.000000 0.674470 0.861433
O O8 0.250000 0.750000 0.768413
O O9 0.225847 0.877845 0.730563
O O10 0.000000 0.825540 0.778121
O O11 0.500000 0.609333 0.604420
O O12 0.320106 0.500000 0.596414
O O13 0.270943 0.616472 0.548784
O O14 0.229788 0.612331 0.641624
O O15 0.000000 0.084855 0.500000
O O16 0.232139 0.000000 0.500000
O O17 0.500000 0.109312 0.301795
O O18 0.683882 0.000000 0.307336
#
# Coordination Sequence:
#
# PCOD9488500 Si02
#       6
#    16  16  16  16   8  16
#     4   9  19  37  59  82 110 143 177 213 254 301
#     4  11  22  37  57  80 107 137 172 214 257 303
#     4  11  22  38  58  77 101 133 171 213 258 309
#     4   8  13  23  40  63  92 127 166 206 250 298
#     4   7  10  18  35  59  88 123 162 203 246 295
#     4  10  20  33  49  73 105 136 169 211 255 300
#
# _framework density 18.338709999999999
#
# number of rings (size 3 to 8) (size 9 to 14) (size 15 to 20)
#    0.000    2.455    0.000    6.545    0.000    2.909 
#    0.000    1.364    0.000    2.727    0.000    0.636 
#    0.000    0.000    0.000    0.000    0.000    0.000 
#
# Total GULP energy -245368.050589 kJ/mol
# GULP energy per Si atom -5576.546604 kJ/mol
# Density = 1.829697 g / cm^3
# Si number density = 18.338710 Si / 1000 Ang^3
#
#
#
# Elastic Constant Matrix: (Units=GPa)
#
#
# Indices 1 2 3 4 5 6 
#
# 1 132.5924 22.2218 78.7657 0.0000 0.0000 0.0000
# 2 22.2218 8.3621 28.4989 0.0000 0.0000 0.0000
# 3 78.7657 28.4989 162.6967 0.0000 0.0000 0.0000
# 4 0.0000 0.0000 0.0000 116.8669 0.0000 0.0000
# 5 0.0000 0.0000 0.0000 0.0000 28.6237 0.0000
# 6 0.0000 0.0000 0.0000 0.0000 0.0000 19.5946
#
#
#
# Elastic Compliance Matrix: (Units=1/GPa)
#
#
# Indices 1 2 3 4 5 6 
#
# 1 0.013624 -0.034058 -0.000630 0.000000 0.000000 0.000000
# 2 -0.034058 0.381869 -0.050402 0.000000 0.000000 0.000000
# 3 -0.000630 -0.050402 0.015280 0.000000 0.000000 0.000000
# 4 0.000000 0.000000 0.000000 0.008557 0.000000 0.000000
# 5 0.000000 0.000000 0.000000 0.000000 0.034936 0.000000
# 6 0.000000 0.000000 0.000000 0.000000 0.000000 0.051034
#
#
# Mechanical properties :
#
#
# Convention : Reuss Voigt Hill
#
# Bulk Modulus (GPa) = 4.15640 62.51378 33.33509
# Shear Modulus (GPa) = 6.61657 44.62803 25.62230
#
# Velocity S-wave (km/s) = 1.90153 4.93845 3.74193
# Velocity P-wave (km/s) = 2.66317 8.16579 6.07341
#
# Compressibility (1/GPa) = 0.24059283
#
# Stress axis : x y z
#
# Youngs Moduli (GPa) = 73.39933 2.61870 65.44469
#
# Poissons Ratio (x) = 0.08919 0.04123
# Poissons Ratio (y) = 2.49985 3.29854
# Poissons Ratio (z) = 0.04624 0.13199
#
# Static dielectric constant tensor:
#      x y z
#    x 1.614780 0.000000 0.000000 
#    y 0.000000 1.620290 0.000000 
#    z 0.000000 0.000000 1.658600 
# 
# From -- ./inp_files/67546.got.cif
#   From: 2010.05.17/outbox.cif.g08.bks.cpg/sg65_34_cif.got.tgz:67546.got - 2010.06.03 17:01:31.
