data_PCOD9488745
_publ_section_title
;
Structure prediction by ZEFSAII (Michael W. Deem and Ramdas Pophale) SiO2 
 PCOD9488745
Probable space group: C M M M
;
_chemical_formula_sum "Si O2"
_cell_formula_units_Z 80
_cell_length_a 26.377773
_cell_length_b 19.042762
_cell_length_c 7.558004
_cell_angle_alpha 90.000000
_cell_angle_beta 90.000000
_cell_angle_gamma 90.000000
_cell_volume 3796.428137
_symmetry_space_group_name_H-M "C M M M"
_symmetry_group_IT_number 65
_symmetry_cell_setting 'orthorhombic'
loop_
_space_group_symop_operation_xyz
x,y,z
-x,-y,z
x,-y,-z
-x,y,-z
-x,-y,-z
x,y,-z
-x,y,z
x,-y,z
1/2+x,1/2+y,z
1/2-x,1/2-y,z
1/2+x,1/2-y,-z
1/2-x,1/2+y,-z
1/2-x,1/2-y,-z
1/2+x,1/2+y,-z
1/2-x,1/2+y,z
1/2+x,1/2-y,z
loop_
_atom_site_type_symbol
_atom_site_label
_atom_site_fract_x
_atom_site_fract_y
_atom_site_fract_z
Si Si1 0.846833 0.580808 0.283416
Si Si2 0.056917 0.333058 0.289973
Si Si3 0.153217 0.079117 0.709914
Si Si4 0.248493 0.830726 0.716622
Si Si5 0.557067 0.328261 0.788789
O O1 0.847282 0.581411 0.500000
O O2 0.842834 0.500000 0.228249
O O3 0.898730 0.617255 0.220938
O O4 0.798395 0.626512 0.229251
O O5 0.054036 0.345939 0.500000
O O6 0.070584 0.251160 0.266448
O O7 0.000000 0.343411 0.216632
O O8 0.162088 0.073655 0.500000
O O9 0.198308 0.128518 0.778655
O O10 0.099393 0.116761 0.732989
O O11 0.153936 0.000000 0.782762
O O12 0.247913 0.829683 0.500000
O O13 0.250000 0.750000 0.774655
O O14 0.500000 0.343090 0.721439
O O15 0.555248 0.329093 0.000000
#
# Coordination Sequence:
#
# PCOD9488745 Si02
#       5
#    16  16  16  16  16
#     4   9  16  26  44  73 106 134 161 200 249 294
#     4   9  17  30  50  75 101 130 166 206 244 285
#     4  10  20  33  51  76 103 129 161 203 247 290
#     4   9  16  27  46  72 101 132 165 200 240 288
#     4  10  21  36  53  72  96 129 167 204 244 294
#
# _framework density 21.072437999999998
#
# number of rings (size 3 to 8) (size 9 to 14) (size 15 to 20)
#    0.000    2.600    0.000    2.400    0.000    8.000 
#    0.000    4.000    0.000    6.000    0.000    2.800 
#    0.000    0.000    0.000    0.000    0.000    0.000 
#
# Total GULP energy -223383.740995 kJ/mol
# GULP energy per Si atom -5584.593525 kJ/mol
# Density = 2.102448 g / cm^3
# Si number density = 21.072438 Si / 1000 Ang^3
#
#
#
# Elastic Constant Matrix: (Units=GPa)
#
#
# Indices 1 2 3 4 5 6 
#
# 1 162.1875 148.8025 1.9434 0.0000 0.0000 0.0000
# 2 148.8025 222.4022 0.5999 0.0000 0.0000 0.0000
# 3 1.9434 0.5999 48.8184 0.0000 0.0000 0.0000
# 4 0.0000 0.0000 0.0000 -31.6766 0.0000 0.0000
# 5 0.0000 0.0000 0.0000 0.0000 -17.1547 0.0000
# 6 0.0000 0.0000 0.0000 0.0000 0.0000 -3.6775
#
#
#
# Elastic Compliance Matrix: (Units=1/GPa)
#
#
# Indices 1 2 3 4 5 6 
#
# 1 0.015980 -0.010690 -0.000505 0.000000 0.000000 0.000000
# 2 -0.010690 0.011648 0.000282 0.000000 0.000000 0.000000
# 3 -0.000505 0.000282 0.020501 0.000000 0.000000 0.000000
# 4 0.000000 0.000000 0.000000 -0.031569 0.000000 0.000000
# 5 0.000000 0.000000 0.000000 0.000000 -0.058293 0.000000
# 6 0.000000 0.000000 0.000000 0.000000 0.000000 -0.271921
#
#
# Mechanical properties :
#
#
# Convention : Reuss Voigt Hill
#
# Bulk Modulus (GPa) = 38.01782 81.78886 59.90334
# Shear Modulus (GPa) = -17.66398 8.30239 -4.68080
#
# Velocity S-wave (km/s) = -2.89840 1.98708 -1.49202
# Velocity P-wave (km/s) = 2.62292 6.64546 5.05182
#
# Compressibility (1/GPa) = 0.02630346
#
# Stress axis : x y z
#
# Youngs Moduli (GPa) = 62.57960 85.85138 48.77879
#
# Poissons Ratio (x) = 0.91776 0.02462
# Poissons Ratio (y) = 0.66898 -0.01378
# Poissons Ratio (z) = 0.03159 -0.02425
#
# Static dielectric constant tensor:
#      x y z
#    x 1.735600 0.000000 0.000000 
#    y 0.000000 1.715900 0.000000 
#    z 0.000000 0.000000 1.786530 
# 
# From -- ./inp_files/9597.got.cif
#   From: 2010.05.17/outbox.cif.g08.bks.cpg/sg65_5_cif.got.tgz:9597.got - 2010.06.03 17:01:31.
