data_PCOD9488725
_publ_section_title
;
Structure prediction by ZEFSAII (Michael W. Deem and Ramdas Pophale) SiO2 
 PCOD9488725
Probable space group: C M M M
;
_chemical_formula_sum "Si O2"
_cell_formula_units_Z 80
_cell_length_a 16.185212
_cell_length_b 30.016919
_cell_length_c 7.429325
_cell_angle_alpha 90.000000
_cell_angle_beta 90.000000
_cell_angle_gamma 90.000000
_cell_volume 3609.390433
_symmetry_space_group_name_H-M "C M M M"
_symmetry_group_IT_number 65
_symmetry_cell_setting 'orthorhombic'
loop_
_space_group_symop_operation_xyz
x,y,z
-x,-y,z
x,-y,-z
-x,y,-z
-x,-y,-z
x,y,-z
-x,y,z
x,-y,z
1/2+x,1/2+y,z
1/2-x,1/2-y,z
1/2+x,1/2-y,-z
1/2-x,1/2+y,-z
1/2-x,1/2-y,-z
1/2+x,1/2+y,-z
1/2-x,1/2+y,z
1/2+x,1/2-y,z
loop_
_atom_site_type_symbol
_atom_site_label
_atom_site_fract_x
_atom_site_fract_y
_atom_site_fract_z
Si Si1 0.860053 0.548668 0.210836
Si Si2 0.251058 0.301418 0.220256
Si Si3 0.909868 0.355386 0.779917
Si Si4 0.665502 0.549196 0.715833
Si Si5 0.091004 0.856250 0.788837
O O1 0.880916 0.500000 0.288589
O O2 0.899436 0.593652 0.283648
O O3 0.760738 0.554054 0.223651
O O4 0.882124 0.547075 0.000000
O O5 0.250000 0.250000 0.273933
O O6 0.168134 0.326613 0.279129
O O7 0.332370 0.327734 0.284152
O O8 0.251287 0.302688 0.000000
O O9 0.000000 0.338015 0.727847
O O10 0.907135 0.356164 0.000000
O O11 0.665472 0.549455 0.500000
O O12 0.636630 0.500000 0.775895
O O13 0.613579 0.591557 0.776078
O O14 0.000000 0.848041 0.711166
O O15 0.086927 0.845105 0.000000
#
# Coordination Sequence:
#
# PCOD9488725 Si02
#       5
#    16  16  16  16  16
#     4   9  16  28  48  72 100 132 166 204 246 296
#     4   9  17  30  48  72 104 134 162 204 254 298
#     4   9  16  26  44  72 101 127 159 200 247 295
#     4  10  20  33  51  75 103 136 173 210 251 299
#     4  10  20  34  53  77 104 135 171 208 250 301
#
# _framework density 22.164406
#
# number of rings (size 3 to 8) (size 9 to 14) (size 15 to 20)
#    0.000    2.600    2.000    0.600    0.000    3.200 
#    0.000    8.000    0.000    1.200    0.000    2.800 
#    0.000    0.000    0.000    0.000    0.000    0.000 
#
# Total GULP energy -223357.612681 kJ/mol
# GULP energy per Si atom -5583.940317 kJ/mol
# Density = 2.211396 g / cm^3
# Si number density = 22.164406 Si / 1000 Ang^3
#
#
#
# Elastic Constant Matrix: (Units=GPa)
#
#
# Indices 1 2 3 4 5 6 
#
# 1 192.0909 116.4571 2.7510 0.0000 0.0000 0.0000
# 2 116.4571 165.1898 0.7865 0.0000 0.0000 0.0000
# 3 2.7510 0.7865 72.4561 0.0000 0.0000 0.0000
# 4 0.0000 0.0000 0.0000 40.2285 0.0000 0.0000
# 5 0.0000 0.0000 0.0000 0.0000 -46.9886 0.0000
# 6 0.0000 0.0000 0.0000 0.0000 0.0000 -3.0023
#
#
#
# Elastic Compliance Matrix: (Units=1/GPa)
#
#
# Indices 1 2 3 4 5 6 
#
# 1 0.009097 -0.006412 -0.000276 0.000000 0.000000 0.000000
# 2 -0.006412 0.010574 0.000129 0.000000 0.000000 0.000000
# 3 -0.000276 0.000129 0.013811 0.000000 0.000000 0.000000
# 4 0.000000 0.000000 0.000000 0.024858 0.000000 0.000000
# 5 0.000000 0.000000 0.000000 0.000000 -0.021282 0.000000
# 6 0.000000 0.000000 0.000000 0.000000 0.000000 -0.333081
#
#
# Mechanical properties :
#
#
# Convention : Reuss Voigt Hill
#
# Bulk Modulus (GPa) = 49.10926 74.41402 61.76164
# Shear Modulus (GPa) = -18.10822 18.69700 0.29439
#
# Velocity S-wave (km/s) = -2.86141 2.90756 0.36484
# Velocity P-wave (km/s) = 3.35976 6.70212 5.30125
#
# Compressibility (1/GPa) = 0.02036276
#
# Stress axis : x y z
#
# Youngs Moduli (GPa) = 109.92321 94.57570 72.40854
#
# Poissons Ratio (x) = 0.60643 0.01997
# Poissons Ratio (y) = 0.70485 -0.00932
# Poissons Ratio (z) = 0.03032 -0.01217
#
# Static dielectric constant tensor:
#      x y z
#    x 1.794130 0.000000 0.000000 
#    y 0.000000 1.757710 0.000000 
#    z 0.000000 0.000000 1.989480 
# 
# From -- ./inp_files/9903.got.cif
#   From: 2010.05.17/outbox.cif.g08.bks.cpg/sg65_5_cif.got.tgz:9903.got - 2010.06.03 17:01:31.
