data_PCOD9488637
_publ_section_title
;
Structure prediction by ZEFSAII (Michael W. Deem and Ramdas Pophale) SiO2 
 PCOD9488637
Probable space group: C M M M
;
_chemical_formula_sum "Si O2"
_cell_formula_units_Z 120
_cell_length_a 8.040031
_cell_length_b 26.865283
_cell_length_c 28.030453
_cell_angle_alpha 90.000000
_cell_angle_beta 90.000000
_cell_angle_gamma 90.000000
_cell_volume 6054.513606
_symmetry_space_group_name_H-M "C M M M"
_symmetry_group_IT_number 65
_symmetry_cell_setting 'orthorhombic'
loop_
_space_group_symop_operation_xyz
x,y,z
-x,-y,z
x,-y,-z
-x,y,-z
-x,-y,-z
x,y,-z
-x,y,z
x,-y,z
1/2+x,1/2+y,z
1/2-x,1/2-y,z
1/2+x,1/2-y,-z
1/2-x,1/2+y,-z
1/2-x,1/2-y,-z
1/2+x,1/2+y,-z
1/2-x,1/2+y,z
1/2+x,1/2-y,z
loop_
_atom_site_type_symbol
_atom_site_label
_atom_site_fract_x
_atom_site_fract_y
_atom_site_fract_z
Si Si1 0.700674 0.305059 0.054856
Si Si2 0.299445 0.400977 0.112128
Si Si3 0.699376 0.000000 0.054936
Si Si4 0.700805 0.443343 0.209848
Si Si5 0.302181 0.090137 0.314241
Si Si6 0.197207 0.661673 0.551614
Si Si7 0.199637 0.303339 0.347534
Si Si8 0.695530 0.554773 0.415304
O O1 0.500000 0.307285 0.054037
O O2 0.750000 0.250000 0.071813
O O3 0.762727 0.350934 0.086632
O O4 0.759864 0.310428 0.000000
O O5 0.500000 0.397853 0.113932
O O6 0.257587 0.450230 0.081875
O O7 0.239666 0.408979 0.166358
O O8 0.500000 0.000000 0.054699
O O9 0.758950 0.000000 0.000000
O O10 0.500000 0.441293 0.211300
O O11 0.749273 0.500000 0.198315
O O12 0.763857 0.429858 0.262123
O O13 0.500000 0.087412 0.322813
O O14 0.247275 0.147799 0.318732
O O15 0.218614 0.061358 0.358234
O O16 0.269208 0.675218 0.500000
O O17 0.266494 0.689114 0.598354
O O18 0.220243 0.602670 0.560985
O O19 0.000000 0.671489 0.550397
O O20 0.250000 0.250000 0.328181
O O21 0.000000 0.304730 0.349533
O O22 0.500000 0.557143 0.426525
O O23 0.758802 0.500000 0.429315
#
# Coordination Sequence:
#
# PCOD9488637 Si02
#       8
#    16  16   8  16  16  16  16  16
#     4   9  18  33  55  80 105 140 186 230 272 319
#     4  10  20  37  57  79 109 148 188 225 271 332
#     4  11  23  35  51  81 117 149 183 229 280 325
#     4  10  20  35  55  80 109 140 175 217 263 313
#     4  10  21  36  54  77 103 134 172 214 260 315
#     4   9  19  35  52  73 104 138 171 209 256 313
#     4   9  19  35  54  76 101 130 169 215 261 310
#     4  10  20  33  50  74 103 134 172 217 258 302
#
# _framework density 19.819922999999999
#
# number of rings (size 3 to 8) (size 9 to 14) (size 15 to 20)
#    0.000    2.333    0.667    2.600    0.000    8.533 
#    0.000    3.333    0.000    3.200    0.000    0.000 
#    0.000    0.000    0.000    0.000    0.000    0.000 
#
# Total GULP energy -334872.545578 kJ/mol
# GULP energy per Si atom -5581.209093 kJ/mol
# Density = 1.977481 g / cm^3
# Si number density = 19.819923 Si / 1000 Ang^3
#
#
#
# Elastic Constant Matrix: (Units=GPa)
#
#
# Indices 1 2 3 4 5 6 
#
# 1 10.8960 0.7609 2.4641 0.0000 0.0000 0.0000
# 2 0.7609 92.3372 2.7148 0.0000 0.0000 0.0000
# 3 2.4641 2.7148 60.9647 0.0000 0.0000 0.0000
# 4 0.0000 0.0000 0.0000 1.3329 0.0000 0.0000
# 5 0.0000 0.0000 0.0000 0.0000 23.7930 0.0000
# 6 0.0000 0.0000 0.0000 0.0000 0.0000 23.4982
#
#
#
# Elastic Compliance Matrix: (Units=1/GPa)
#
#
# Indices 1 2 3 4 5 6 
#
# 1 0.092663 -0.000654 -0.003716 0.000000 0.000000 0.000000
# 2 -0.000654 0.010849 -0.000457 0.000000 0.000000 0.000000
# 3 -0.003716 -0.000457 0.016573 0.000000 0.000000 0.000000
# 4 0.000000 0.000000 0.000000 0.750271 0.000000 0.000000
# 5 0.000000 0.000000 0.000000 0.000000 0.042029 0.000000
# 6 0.000000 0.000000 0.000000 0.000000 0.000000 0.042556
#
#
# Mechanical properties :
#
#
# Convention : Reuss Voigt Hill
#
# Bulk Modulus (GPa) = 9.05543 19.56416 14.30979
# Shear Modulus (GPa) = 4.99298 20.27536 12.63417
#
# Velocity S-wave (km/s) = 1.58891 3.20187 2.52751
# Velocity P-wave (km/s) = 2.81868 4.85404 3.96905
#
# Compressibility (1/GPa) = 0.11043098
#
# Stress axis : x y z
#
# Youngs Moduli (GPa) = 10.79179 92.17709 60.33739
#
# Poissons Ratio (x) = 0.06031 0.22422
# Poissons Ratio (y) = 0.00706 0.02755
# Poissons Ratio (z) = 0.04010 0.04209
#
# Static dielectric constant tensor:
#      x y z
#    x 1.709840 0.000000 0.000000 
#    y 0.000000 1.693200 0.000000 
#    z 0.000000 0.000000 1.698800 
# 
# From -- ./inp_files/73949.got.cif
#   From: 2010.05.17/outbox.cif.g08.bks.cpg/sg65_37_cif.got.tgz:73949.got - 2010.06.03 17:01:31.
