data_PCOD9488526
_publ_section_title
;
Structure prediction by ZEFSAII (Michael W. Deem and Ramdas Pophale) SiO2 
 PCOD9488526
Probable space group: C M M M
;
_chemical_formula_sum "Si O2"
_cell_formula_units_Z 88
_cell_length_a 8.430802
_cell_length_b 25.580885
_cell_length_c 22.790393
_cell_angle_alpha 90.000000
_cell_angle_beta 90.000000
_cell_angle_gamma 90.000000
_cell_volume 4915.144266
_symmetry_space_group_name_H-M "C M M M"
_symmetry_group_IT_number 65
_symmetry_cell_setting 'orthorhombic'
loop_
_space_group_symop_operation_xyz
x,y,z
-x,-y,z
x,-y,-z
-x,y,-z
-x,-y,-z
x,y,-z
-x,y,z
x,-y,z
1/2+x,1/2+y,z
1/2-x,1/2-y,z
1/2+x,1/2-y,-z
1/2-x,1/2+y,-z
1/2-x,1/2-y,-z
1/2+x,1/2+y,-z
1/2-x,1/2+y,z
1/2+x,1/2-y,z
loop_
_atom_site_type_symbol
_atom_site_label
_atom_site_fract_x
_atom_site_fract_y
_atom_site_fract_z
Si Si1 0.806430 0.500000 0.066923
Si Si2 0.806376 0.500000 0.610868
Si Si3 0.310642 0.692761 0.203491
Si Si4 0.308291 0.887734 0.434649
Si Si5 0.808660 0.585431 0.839419
Si Si6 0.810300 0.192650 0.338094
Si Si7 0.306868 0.000000 0.254428
O O1 0.758652 0.448876 0.104272
O O2 0.000000 0.500000 0.066418
O O3 0.751181 0.500000 0.000000
O O4 0.756435 0.553047 0.579164
O O5 0.752889 0.500000 0.678650
O O6 0.000000 0.500000 0.611144
O O7 0.500000 0.694003 0.203869
O O8 0.250000 0.750000 0.185219
O O9 0.253864 0.643936 0.165259
O O10 0.253997 0.683559 0.270950
O O11 0.255466 0.871988 0.500000
O O12 0.500000 0.887089 0.434023
O O13 0.250070 0.850059 0.383484
O O14 0.757947 0.551045 0.782655
O O15 0.000000 0.587014 0.839189
O O16 0.750000 0.250000 0.355532
O O17 0.000000 0.192468 0.337731
O O18 0.500000 0.000000 0.254907
#
# Coordination Sequence:
#
# PCOD9488526 Si02
#       7
#     8   8  16  16  16  16   8
#     4   8  15  29  51  80 111 142 175 207 238 276
#     4   9  16  28  47  69  94 122 154 193 236 286
#     4  10  20  33  50  73 100 128 160 201 249 298
#     4  10  20  33  50  71  94 123 160 201 243 290
#     4   9  16  28  49  76 104 134 167 200 238 284
#     4  10  21  36  53  72  94 123 158 199 249 300
#     4   8  14  24  43  71  97 123 155 193 238 287
#
# _framework density 17.903849000000001
#
# number of rings (size 3 to 8) (size 9 to 14) (size 15 to 20)
#    0.000    2.636    0.000    3.545    0.000    5.455 
#    0.000    2.273    0.000    8.182    0.000    0.000 
#    0.000    0.000    0.000    0.000    0.000    0.000 
#
# Total GULP energy -245430.553436 kJ/mol
# GULP energy per Si atom -5577.967124 kJ/mol
# Density = 1.786310 g / cm^3
# Si number density = 17.903849 Si / 1000 Ang^3
#
#
#
# Elastic Constant Matrix: (Units=GPa)
#
#
# Indices 1 2 3 4 5 6 
#
# 1 16.5653 23.9238 16.9375 0.0000 0.0000 0.0000
# 2 23.9238 159.8189 62.5540 0.0000 0.0000 0.0000
# 3 16.9375 62.5540 86.2211 0.0000 0.0000 0.0000
# 4 0.0000 0.0000 0.0000 -76.0146 0.0000 0.0000
# 5 0.0000 0.0000 0.0000 0.0000 13.1526 0.0000
# 6 0.0000 0.0000 0.0000 0.0000 0.0000 21.5423
#
#
#
# Elastic Compliance Matrix: (Units=1/GPa)
#
#
# Indices 1 2 3 4 5 6 
#
# 1 0.082954 -0.008435 -0.010176 0.000000 0.000000 0.000000
# 2 -0.008435 0.009596 -0.005305 0.000000 0.000000 0.000000
# 3 -0.010176 -0.005305 0.017446 0.000000 0.000000 0.000000
# 4 0.000000 0.000000 0.000000 -0.013155 0.000000 0.000000
# 5 0.000000 0.000000 0.000000 0.000000 0.076030 0.000000
# 6 0.000000 0.000000 0.000000 0.000000 0.000000 0.046420
#
#
# Mechanical properties :
#
#
# Convention : Reuss Voigt Hill
#
# Bulk Modulus (GPa) = 16.08652 52.15955 34.12304
# Shear Modulus (GPa) = 17.37051 2.34874 9.85962
#
# Velocity S-wave (km/s) = 3.11820 1.14661 2.34924
# Velocity P-wave (km/s) = 4.68708 5.56321 5.14383
#
# Compressibility (1/GPa) = 0.06216384
#
# Stress axis : x y z
#
# Youngs Moduli (GPa) = 12.05494 104.20842 57.31951
#
# Poissons Ratio (x) = 0.87895 0.58330
# Poissons Ratio (y) = 0.10168 0.30409
# Poissons Ratio (z) = 0.12267 0.55284
#
# Static dielectric constant tensor:
#      x y z
#    x 1.620440 0.000000 0.000000 
#    y 0.000000 1.596210 0.000000 
#    z 0.000000 0.000000 1.608870 
# 
# From -- ./inp_files/59922.got.cif
#   From: 2010.05.17/outbox.cif.g08.bks.cpg/sg65_30_cif.got.tgz:59922.got - 2010.06.03 17:01:31.
