data_PCOD9488221
_publ_section_title
;
Structure prediction by ZEFSAII (Michael W. Deem and Ramdas Pophale) SiO2 
 PCOD9488221
Probable space group: C M M M
;
_chemical_formula_sum "Si O2"
_cell_formula_units_Z 88
_cell_length_a 8.042078
_cell_length_b 18.715125
_cell_length_c 31.683897
_cell_angle_alpha 90.000000
_cell_angle_beta 90.000000
_cell_angle_gamma 90.000000
_cell_volume 4768.695654
_symmetry_space_group_name_H-M "C M M M"
_symmetry_group_IT_number 65
_symmetry_cell_setting 'orthorhombic'
loop_
_space_group_symop_operation_xyz
x,y,z
-x,-y,z
x,-y,-z
-x,y,-z
-x,-y,-z
x,y,-z
-x,y,z
x,-y,z
1/2+x,1/2+y,z
1/2-x,1/2-y,z
1/2+x,1/2-y,-z
1/2-x,1/2+y,-z
1/2-x,1/2-y,-z
1/2+x,1/2+y,-z
1/2-x,1/2+y,z
1/2+x,1/2-y,z
loop_
_atom_site_type_symbol
_atom_site_label
_atom_site_fract_x
_atom_site_fract_y
_atom_site_fract_z
Si Si1 0.702931 0.082977 0.452979
Si Si2 0.000000 0.912891 0.048567
Si Si3 0.302329 0.581473 0.710349
Si Si4 0.192691 0.587421 0.893221
Si Si5 0.197767 0.668230 0.628114
Si Si6 0.300409 0.918414 0.800309
O O1 0.756457 0.106011 0.500000
O O2 0.500000 0.084789 0.452874
O O3 0.765258 0.130071 0.414174
O O4 0.750111 0.000000 0.447122
O O5 0.167790 0.890798 0.073205
O O6 0.000000 0.000000 0.048740
O O7 0.000000 0.889524 0.000000
O O8 0.500000 0.577187 0.710014
O O9 0.233318 0.500000 0.707529
O O10 0.248212 0.626396 0.670173
O O11 0.251160 0.614108 0.755667
O O12 0.191532 0.500000 0.891758
O O13 0.245126 0.612307 0.846061
O O14 0.000000 0.608424 0.901900
O O15 0.250000 0.750000 0.630189
O O16 0.000000 0.665178 0.625466
O O17 0.500000 0.921938 0.800973
O O18 0.233185 0.000000 0.799180
#
# Coordination Sequence:
#
# PCOD9488221 Si02
#       6
#    16   8  16  16  16  16
#     4   8  15  30  53  78  99 123 161 205 247 291
#     4   9  16  22  30  46  70 106 150 192 237 291
#     4  10  20  32  49  73  97 122 157 204 250 296
#     4   8  14  23  34  49  72 103 142 192 241 287
#     4  11  22  35  51  71 100 135 166 200 242 296
#     4   8  14  25  41  61  83 109 145 192 243 288
#
# _framework density 18.453683999999999
#
# number of rings (size 3 to 8) (size 9 to 14) (size 15 to 20)
#    0.000    3.000    0.000    3.273    1.273    2.545 
#    0.000    1.818    0.000    1.636    0.000    6.364 
#    0.000    0.000    0.000    0.000    0.000    0.909 
#
# Total GULP energy -245056.215201 kJ/mol
# GULP energy per Si atom -5569.459436 kJ/mol
# Density = 1.841168 g / cm^3
# Si number density = 18.453684 Si / 1000 Ang^3
#
#
#
# Elastic Constant Matrix: (Units=GPa)
#
#
# Indices 1 2 3 4 5 6 
#
# 1 56.0584 16.3804 65.1505 0.0000 0.0000 0.0000
# 2 16.3804 36.4420 59.4741 0.0000 0.0000 0.0000
# 3 65.1505 59.4741 220.8234 0.0000 0.0000 0.0000
# 4 0.0000 0.0000 0.0000 -3.7360 0.0000 0.0000
# 5 0.0000 0.0000 0.0000 0.0000 3.8434 0.0000
# 6 0.0000 0.0000 0.0000 0.0000 0.0000 5.0269
#
#
#
# Elastic Compliance Matrix: (Units=1/GPa)
#
#
# Indices 1 2 3 4 5 6 
#
# 1 0.027196 0.001553 -0.008442 0.000000 0.000000 0.000000
# 2 0.001553 0.049051 -0.013669 0.000000 0.000000 0.000000
# 3 -0.008442 -0.013669 0.010701 0.000000 0.000000 0.000000
# 4 0.000000 0.000000 0.000000 -0.267664 0.000000 0.000000
# 5 0.000000 0.000000 0.000000 0.000000 0.260188 0.000000
# 6 0.000000 0.000000 0.000000 0.000000 0.000000 0.198928
#
#
# Mechanical properties :
#
#
# Convention : Reuss Voigt Hill
#
# Bulk Modulus (GPa) = 21.81892 66.14820 43.98356
# Shear Modulus (GPa) = 14.93463 12.51479 13.72471
#
# Velocity S-wave (km/s) = 2.84791 2.60700 2.73011
# Velocity P-wave (km/s) = 4.76061 6.70711 5.81587
#
# Compressibility (1/GPa) = 0.04583179
#
# Stress axis : x y z
#
# Youngs Moduli (GPa) = 36.77019 20.38699 93.45187
#
# Poissons Ratio (x) = -0.03167 0.78893
# Poissons Ratio (y) = -0.05712 1.27740
# Poissons Ratio (z) = 0.31042 0.27867
#
# Static dielectric constant tensor:
#      x y z
#    x 1.640420 0.000000 0.000000 
#    y 0.000000 1.600780 0.000000 
#    z 0.000000 0.000000 1.670850 
# 
# From -- ./inp_files/73091.got.cif
#   From: 2010.05.17/outbox.cif.g08.bks.cpg/sg65_37_cif.got.tgz:73091.got - 2010.06.03 17:01:31.
