data_PCOD9488653
_publ_section_title
;
Structure prediction by ZEFSAII (Michael W. Deem and Ramdas Pophale) SiO2 
 PCOD9488653
Probable space group: C M M M
;
_chemical_formula_sum "Si O2"
_cell_formula_units_Z 104
_cell_length_a 27.823663
_cell_length_b 8.553341
_cell_length_c 24.479315
_cell_angle_alpha 90.000000
_cell_angle_beta 90.000000
_cell_angle_gamma 90.000000
_cell_volume 5825.716573
_symmetry_space_group_name_H-M "C M M M"
_symmetry_group_IT_number 65
_symmetry_cell_setting 'orthorhombic'
loop_
_space_group_symop_operation_xyz
x,y,z
-x,-y,z
x,-y,-z
-x,y,-z
-x,-y,-z
x,y,-z
-x,y,z
x,-y,z
1/2+x,1/2+y,z
1/2-x,1/2-y,z
1/2+x,1/2-y,-z
1/2-x,1/2+y,-z
1/2-x,1/2-y,-z
1/2+x,1/2+y,-z
1/2-x,1/2+y,z
1/2+x,1/2-y,z
loop_
_atom_site_type_symbol
_atom_site_label
_atom_site_fract_x
_atom_site_fract_y
_atom_site_fract_z
Si Si1 0.402331 0.187687 0.619507
Si Si2 0.553447 0.190061 0.268805
Si Si3 0.302441 0.687342 0.640266
Si Si4 0.000000 0.816653 0.565250
Si Si5 0.390451 0.812864 0.835728
Si Si6 0.698146 0.687265 0.767812
Si Si7 0.554811 0.311545 0.062731
O O1 0.412833 0.240221 0.681935
O O2 0.349169 0.253056 0.607145
O O3 0.450055 0.242568 0.587273
O O4 0.400578 0.000000 0.616782
O O5 0.500000 0.244749 0.280766
O O6 0.570395 0.239773 0.209418
O O7 0.553445 0.000000 0.269229
O O8 0.301645 0.500000 0.638907
O O9 0.250000 0.750000 0.622322
O O10 0.308241 0.738804 0.704242
O O11 0.000000 0.801354 0.500000
O O12 0.000000 0.000000 0.579912
O O13 0.341332 0.752561 0.809200
O O14 0.407007 0.750913 0.894105
O O15 0.389386 0.000000 0.837318
O O16 0.696781 0.500000 0.768388
O O17 0.750000 0.750000 0.784708
O O18 0.500000 0.260613 0.076700
O O19 0.555299 0.500000 0.064198
O O20 0.564261 0.263647 0.000000
#
# Coordination Sequence:
#
# PCOD9488653 Si02
#       7
#    16  16  16   8  16  16  16
#     4  11  20  35  59  84 114 151 191 234 280 334
#     4   9  17  29  46  74 109 142 172 214 270 322
#     4  10  20  34  54  82 116 153 192 233 282 338
#     4  11  25  43  61  85 119 157 198 241 282 329
#     4  11  20  31  51  77 107 139 176 220 272 330
#     4  10  20  33  50  74 107 144 181 220 266 324
#     4   9  19  36  54  72  99 137 180 224 269 319
#
# _framework density 17.851882
#
# number of rings (size 3 to 8) (size 9 to 14) (size 15 to 20)
#    0.000    1.923    2.308    3.000    0.000    3.077 
#    0.000    0.769    0.000    0.923    0.000    0.000 
#    0.000    0.000    0.000    0.000    0.000    0.000 
#
# Total GULP energy -289960.047340 kJ/mol
# GULP energy per Si atom -5576.154757 kJ/mol
# Density = 1.781125 g / cm^3
# Si number density = 17.851882 Si / 1000 Ang^3
#
#
#
# Elastic Constant Matrix: (Units=GPa)
#
#
# Indices 1 2 3 4 5 6 
#
# 1 152.0594 35.8304 27.7590 0.0000 0.0000 0.0000
# 2 35.8304 45.9184 19.0038 0.0000 0.0000 0.0000
# 3 27.7590 19.0038 36.2870 0.0000 0.0000 0.0000
# 4 0.0000 0.0000 0.0000 20.2041 0.0000 0.0000
# 5 0.0000 0.0000 0.0000 0.0000 19.7587 0.0000
# 6 0.0000 0.0000 0.0000 0.0000 0.0000 29.3978
#
#
#
# Elastic Compliance Matrix: (Units=1/GPa)
#
#
# Indices 1 2 3 4 5 6 
#
# 1 0.008459 -0.005008 -0.003848 0.000000 0.000000 0.000000
# 2 -0.005008 0.030769 -0.012283 0.000000 0.000000 0.000000
# 3 -0.003848 -0.012283 0.036935 0.000000 0.000000 0.000000
# 4 0.000000 0.000000 0.000000 0.049495 0.000000 0.000000
# 5 0.000000 0.000000 0.000000 0.000000 0.050611 0.000000
# 6 0.000000 0.000000 0.000000 0.000000 0.000000 0.034016
#
#
# Mechanical properties :
#
#
# Convention : Reuss Voigt Hill
#
# Bulk Modulus (GPa) = 29.51232 44.38348 36.94790
# Shear Modulus (GPa) = 18.94966 23.98356 21.46661
#
# Velocity S-wave (km/s) = 3.26159 3.66932 3.47145
# Velocity P-wave (km/s) = 5.54542 6.54736 6.06711
#
# Compressibility (1/GPa) = 0.03388416
#
# Stress axis : x y z
#
# Youngs Moduli (GPa) = 118.21832 32.50037 27.07490
#
# Poissons Ratio (x) = 0.16276 0.10419
# Poissons Ratio (y) = 0.59203 0.33256
# Poissons Ratio (z) = 0.45493 0.39920
#
# Static dielectric constant tensor:
#      x y z
#    x 1.621070 0.000000 0.000000 
#    y 0.000000 1.604980 0.000000 
#    z 0.000000 0.000000 1.597710 
# 
# From -- ./inp_files/71863.got.cif
#   From: 2010.05.17/outbox.cif.g08.bks.cpg/sg65_36_cif.got.tgz:71863.got - 2010.06.03 17:01:31.
