data_PCOD9488400
_publ_section_title
;
Structure prediction by ZEFSAII (Michael W. Deem and Ramdas Pophale) SiO2 
 PCOD9488400
Probable space group: C M M M
;
_chemical_formula_sum "Si O2"
_cell_formula_units_Z 104
_cell_length_a 8.640776
_cell_length_b 27.925577
_cell_length_c 24.653625
_cell_angle_alpha 90.000000
_cell_angle_beta 90.000000
_cell_angle_gamma 90.000000
_cell_volume 5948.886566
_symmetry_space_group_name_H-M "C M M M"
_symmetry_group_IT_number 65
_symmetry_cell_setting 'orthorhombic'
loop_
_space_group_symop_operation_xyz
x,y,z
-x,-y,z
x,-y,-z
-x,y,-z
-x,-y,-z
x,y,-z
-x,y,z
x,-y,z
1/2+x,1/2+y,z
1/2-x,1/2-y,z
1/2+x,1/2-y,-z
1/2-x,1/2+y,-z
1/2-x,1/2-y,-z
1/2+x,1/2+y,-z
1/2-x,1/2+y,z
1/2+x,1/2-y,z
loop_
_atom_site_type_symbol
_atom_site_label
_atom_site_fract_x
_atom_site_fract_y
_atom_site_fract_z
Si Si1 0.184792 0.103111 0.062879
Si Si2 0.811492 0.055363 0.561110
Si Si3 0.313083 0.395630 0.669483
Si Si4 0.813654 0.447489 0.229620
Si Si5 0.674711 0.000000 0.934278
Si Si6 0.814764 0.353203 0.164330
Si Si7 0.814653 0.198712 0.265490
O O1 0.253744 0.142503 0.103368
O O2 0.000000 0.103601 0.065884
O O3 0.243893 0.049977 0.079388
O O4 0.231084 0.110611 0.000000
O O5 0.760836 0.067969 0.500000
O O6 0.760188 0.090349 0.609196
O O7 0.000000 0.056046 0.560943
O O8 0.766552 0.000000 0.571967
O O9 0.500000 0.396174 0.670217
O O10 0.252443 0.435389 0.711313
O O11 0.263439 0.344386 0.694300
O O12 0.763247 0.500000 0.211029
O O13 0.765476 0.403828 0.191520
O O14 0.000000 0.446812 0.231957
O O15 0.500000 0.000000 0.911882
O O16 0.667421 0.000000 0.000000
O O17 0.745861 0.314135 0.205162
O O18 0.000000 0.349743 0.164592
O O19 0.750000 0.250000 0.282331
O O20 0.000000 0.199589 0.264765
#
# Coordination Sequence:
#
# PCOD9488400 Si02
#       7
#    16  16  16  16   8  16  16
#     4  10  20  33  48  69  99 132 166 204 244 288
#     4   8  13  22  40  69 103 135 166 201 239 278
#     4   9  17  29  47  71  95 123 163 206 244 287
#     4   9  18  30  43  64  96 130 159 193 238 286
#     4   9  17  29  45  65  91 129 173 207 236 277
#     4  10  20  33  51  73  97 126 162 200 243 296
#     4  10  20  35  54  74  96 121 157 204 256 307
#
# _framework density 17.482263
#
# number of rings (size 3 to 8) (size 9 to 14) (size 15 to 20)
#    0.000    2.692    0.000    2.538    1.077    4.000 
#    0.000    0.000    0.000    1.385    0.000    2.154 
#    0.000    0.000    0.000    0.000    0.000    0.462 
#
# Total GULP energy -289885.928186 kJ/mol
# GULP energy per Si atom -5574.729388 kJ/mol
# Density = 1.744247 g / cm^3
# Si number density = 17.482263 Si / 1000 Ang^3
#
#
#
# Elastic Constant Matrix: (Units=GPa)
#
#
# Indices 1 2 3 4 5 6 
#
# 1 21.1053 11.3962 16.7823 0.0000 0.0000 0.0000
# 2 11.3962 64.2602 27.8654 0.0000 0.0000 0.0000
# 3 16.7823 27.8654 105.4450 0.0000 0.0000 0.0000
# 4 0.0000 0.0000 0.0000 18.2665 0.0000 0.0000
# 5 0.0000 0.0000 0.0000 0.0000 10.9467 0.0000
# 6 0.0000 0.0000 0.0000 0.0000 0.0000 22.7600
#
#
#
# Elastic Compliance Matrix: (Units=1/GPa)
#
#
# Indices 1 2 3 4 5 6 
#
# 1 0.056874 -0.006959 -0.007213 0.000000 0.000000 0.000000
# 2 -0.006959 0.018427 -0.003762 0.000000 0.000000 0.000000
# 3 -0.007213 -0.003762 0.011626 0.000000 0.000000 0.000000
# 4 0.000000 0.000000 0.000000 0.054745 0.000000 0.000000
# 5 0.000000 0.000000 0.000000 0.000000 0.091352 0.000000
# 6 0.000000 0.000000 0.000000 0.000000 0.000000 0.043937
#
#
# Mechanical properties :
#
#
# Convention : Reuss Voigt Hill
#
# Bulk Modulus (GPa) = 19.58486 33.65537 26.62011
# Shear Modulus (GPa) = 15.15847 19.37908 17.26877
#
# Velocity S-wave (km/s) = 2.94781 3.33303 3.14632
# Velocity P-wave (km/s) = 4.77631 5.83995 5.33471
#
# Compressibility (1/GPa) = 0.05105986
#
# Stress axis : x y z
#
# Youngs Moduli (GPa) = 17.58260 54.26757 86.01535
#
# Poissons Ratio (x) = 0.37763 0.62043
# Poissons Ratio (y) = 0.12235 0.32360
# Poissons Ratio (z) = 0.12682 0.20416
#
# Static dielectric constant tensor:
#      x y z
#    x 1.586040 0.000000 0.000000 
#    y 0.000000 1.591450 0.000000 
#    z 0.000000 0.000000 1.626200 
# 
# From -- ./inp_files/68281.got.cif
#   From: 2010.05.17/outbox.cif.g08.bks.cpg/sg65_35_cif.got.tgz:68281.got - 2010.06.03 17:01:31.
