data_PCOD9488276
_publ_section_title
;
Structure prediction by ZEFSAII (Michael W. Deem and Ramdas Pophale) SiO2 
 PCOD9488276
Probable space group: C M M M
;
_chemical_formula_sum "Si O2"
_cell_formula_units_Z 88
_cell_length_a 23.302183
_cell_length_b 16.290754
_cell_length_c 12.191973
_cell_angle_alpha 90.000000
_cell_angle_beta 90.000000
_cell_angle_gamma 90.000000
_cell_volume 4628.196467
_symmetry_space_group_name_H-M "C M M M"
_symmetry_group_IT_number 65
_symmetry_cell_setting 'orthorhombic'
loop_
_space_group_symop_operation_xyz
x,y,z
-x,-y,z
x,-y,-z
-x,y,-z
-x,-y,-z
x,y,-z
-x,y,z
x,-y,z
1/2+x,1/2+y,z
1/2-x,1/2-y,z
1/2+x,1/2-y,-z
1/2-x,1/2+y,-z
1/2-x,1/2-y,-z
1/2+x,1/2+y,-z
1/2-x,1/2+y,z
1/2+x,1/2-y,z
loop_
_atom_site_type_symbol
_atom_site_label
_atom_site_fract_x
_atom_site_fract_y
_atom_site_fract_z
Si Si1 0.932384 0.098308 0.000000
Si Si2 0.589967 0.500000 0.371512
Si Si3 0.786452 0.830912 0.630399
Si Si4 0.070331 0.500000 0.874527
Si Si5 0.402840 0.659667 0.763294
Si Si6 0.067372 0.653889 0.269099
Si Si7 0.231113 0.000000 0.374380
Si Si8 0.430001 0.096409 0.500000
O O1 0.903690 0.130534 0.111254
O O2 0.000000 0.122437 0.000000
O O3 0.929888 0.000000 0.000000
O O4 0.573637 0.500000 0.500000
O O5 0.571215 0.583215 0.308078
O O6 0.660524 0.500000 0.368610
O O7 0.802032 0.841888 0.500000
O O8 0.750000 0.750000 0.638820
O O9 0.841702 0.826671 0.706238
O O10 0.751911 0.911785 0.669544
O O11 0.089670 0.416615 0.812891
O O12 0.000000 0.500000 0.876128
O O13 0.089472 0.500000 0.000000
O O14 0.429363 0.750622 0.761009
O O15 0.092441 0.639111 0.390318
O O16 0.000000 0.634362 0.277346
O O17 0.250180 0.000000 0.500000
O O18 0.500000 0.102414 0.500000
O O19 0.416313 0.000000 0.500000
#
# Coordination Sequence:
#
# PCOD9488276 Si02
#       8
#     8   8  16   8  16  16   8   8
#     4  11  24  42  59  81 117 159 208 260 298 343
#     4   9  18  33  53  79 110 148 193 230 279 364
#     4   9  18  34  58  88 116 145 186 236 287 354
#     4   9  18  33  50  69  95 136 186 226 263 325
#     4  11  21  36  58  83 112 154 196 238 297 353
#     4  10  20  32  50  75 103 140 183 231 283 340
#     4   7  12  26  50  74 105 144 174 209 264 333
#     4   9  16  30  48  67  98 137 177 220 276 339
#
# _framework density 19.013885999999999
#
# number of rings (size 3 to 8) (size 9 to 14) (size 15 to 20)
#    0.000    2.455    1.818    2.182    3.818    0.000 
#    0.000    1.364    0.000    2.182    0.000    0.000 
#    0.000    0.000    0.000    0.000    0.000    0.000 
#
# Total GULP energy -244997.710064 kJ/mol
# GULP energy per Si atom -5568.129774 kJ/mol
# Density = 1.897061 g / cm^3
# Si number density = 19.013886 Si / 1000 Ang^3
#
#
#
# Elastic Constant Matrix: (Units=GPa)
#
#
# Indices 1 2 3 4 5 6 
#
# 1 26.7913 17.8838 24.8679 0.0000 0.0000 0.0000
# 2 17.8838 156.0584 79.6030 0.0000 0.0000 0.0000
# 3 24.8679 79.6030 169.7371 0.0000 0.0000 0.0000
# 4 0.0000 0.0000 0.0000 31.9056 0.0000 0.0000
# 5 0.0000 0.0000 0.0000 0.0000 7.0174 0.0000
# 6 0.0000 0.0000 0.0000 0.0000 0.0000 14.0121
#
#
#
# Elastic Compliance Matrix: (Units=1/GPa)
#
#
# Indices 1 2 3 4 5 6 
#
# 1 0.043817 -0.002296 -0.005343 0.000000 0.000000 0.000000
# 2 -0.002296 0.008543 -0.003670 0.000000 0.000000 0.000000
# 3 -0.005343 -0.003670 0.008395 0.000000 0.000000 0.000000
# 4 0.000000 0.000000 0.000000 0.031342 0.000000 0.000000
# 5 0.000000 0.000000 0.000000 0.000000 0.142503 0.000000
# 6 0.000000 0.000000 0.000000 0.000000 0.000000 0.071367
#
#
# Mechanical properties :
#
#
# Convention : Reuss Voigt Hill
#
# Bulk Modulus (GPa) = 26.22059 66.36625 46.29342
# Shear Modulus (GPa) = 14.64992 25.93582 20.29287
#
# Velocity S-wave (km/s) = 2.77877 3.69731 3.27045
# Velocity P-wave (km/s) = 4.91076 7.29429 6.21781
#
# Compressibility (1/GPa) = 0.03813797
#
# Stress axis : x y z
#
# Youngs Moduli (GPa) = 22.82195 117.05430 119.11227
#
# Poissons Ratio (x) = 0.26876 0.63640
# Poissons Ratio (y) = 0.05240 0.43716
# Poissons Ratio (z) = 0.12193 0.42960
#
# Static dielectric constant tensor:
#      x y z
#    x 1.682890 0.000000 0.000000 
#    y 0.000000 1.724450 0.000000 
#    z 0.000000 0.000000 1.651690 
# 
# From -- ./inp_files/32308.got.cif
#   From: 2010.05.17/outbox.cif.g08.bks.cpg/sg65_17_cif.got.tgz:32308.got - 2010.06.03 17:01:31.
