data_PCOD9488220
_publ_section_title
;
Structure prediction by ZEFSAII (Michael W. Deem and Ramdas Pophale) SiO2 
 PCOD9488220
Probable space group: C M M M
;
_chemical_formula_sum "Si O2"
_cell_formula_units_Z 64
_cell_length_a 26.095599
_cell_length_b 18.428827
_cell_length_c 7.436280
_cell_angle_alpha 90.000000
_cell_angle_beta 90.000000
_cell_angle_gamma 90.000000
_cell_volume 3576.190929
_symmetry_space_group_name_H-M "C M M M"
_symmetry_group_IT_number 65
_symmetry_cell_setting 'orthorhombic'
loop_
_space_group_symop_operation_xyz
x,y,z
-x,-y,z
x,-y,-z
-x,y,-z
-x,-y,-z
x,y,-z
-x,y,z
x,-y,z
1/2+x,1/2+y,z
1/2-x,1/2-y,z
1/2+x,1/2-y,-z
1/2-x,1/2+y,-z
1/2-x,1/2-y,-z
1/2+x,1/2+y,-z
1/2-x,1/2+y,z
1/2+x,1/2-y,z
loop_
_atom_site_type_symbol
_atom_site_label
_atom_site_fract_x
_atom_site_fract_y
_atom_site_fract_z
Si Si1 0.704537 0.303184 0.291133
Si Si2 0.831205 0.914213 0.000000
Si Si3 0.439923 0.921449 0.718125
Si Si4 0.592631 0.764813 0.291018
Si Si5 0.056604 0.845886 0.000000
O O1 0.714189 0.322379 0.500000
O O2 0.750000 0.250000 0.229950
O O3 0.651798 0.258053 0.281494
O O4 0.694403 0.373518 0.170068
O O5 0.892574 0.896176 0.000000
O O6 0.823577 0.000000 0.000000
O O7 0.436795 0.922304 0.500000
O O8 0.500000 0.917440 0.764867
O O9 0.414227 0.846932 0.776559
O O10 0.420005 0.000000 0.780809
O O11 0.576188 0.761462 0.500000
O O12 0.562248 0.707446 0.171041
O O13 0.000000 0.880434 0.000000
#
# Coordination Sequence:
#
# PCOD9488220 Si02
#       5
#    16   8  16  16   8
#     4   9  18  34  56  78  99 128 168 210 250 298
#     4  10  21  36  54  76 105 137 165 206 262 310
#     4   8  13  22  38  60  87 120 153 185 229 284
#     4   9  17  30  48  69  95 127 163 205 250 295
#     4  10  20  32  49  73  96 126 173 215 249 300
#
# _framework density 17.896138000000001
#
# number of rings (size 3 to 8) (size 9 to 14) (size 15 to 20)
#    0.000    3.000    0.000    1.875    0.000    2.250 
#    0.000    1.875    0.000    6.750    0.000    7.000 
#    0.000    0.000    0.000    0.000    0.000    0.000 
#
# Total GULP energy -178308.251496 kJ/mol
# GULP energy per Si atom -5572.132859 kJ/mol
# Density = 1.785541 g / cm^3
# Si number density = 17.896138 Si / 1000 Ang^3
#
#
#
# Elastic Constant Matrix: (Units=GPa)
#
#
# Indices 1 2 3 4 5 6 
#
# 1 65.0453 34.5390 31.7752 0.0000 0.0000 0.0000
# 2 34.5390 155.6695 50.5194 0.0000 0.0000 0.0000
# 3 31.7752 50.5194 83.5944 0.0000 0.0000 0.0000
# 4 0.0000 0.0000 0.0000 10.5934 0.0000 0.0000
# 5 0.0000 0.0000 0.0000 0.0000 -1.1544 0.0000
# 6 0.0000 0.0000 0.0000 0.0000 0.0000 8.1911
#
#
#
# Elastic Compliance Matrix: (Units=1/GPa)
#
#
# Indices 1 2 3 4 5 6 
#
# 1 0.019574 -0.002399 -0.005991 0.000000 0.000000 0.000000
# 2 -0.002399 0.008285 -0.004095 0.000000 0.000000 0.000000
# 3 -0.005991 -0.004095 0.016715 0.000000 0.000000 0.000000
# 4 0.000000 0.000000 0.000000 0.094399 0.000000 0.000000
# 5 0.000000 0.000000 0.000000 0.000000 -0.866217 0.000000
# 6 0.000000 0.000000 0.000000 0.000000 0.000000 0.122084
#
#
# Mechanical properties :
#
#
# Convention : Reuss Voigt Hill
#
# Bulk Modulus (GPa) = 51.00889 59.77516 55.39202
# Shear Modulus (GPa) = -8.71603 16.02437 3.65417
#
# Velocity S-wave (km/s) = -2.20928 2.99559 1.43049
# Velocity P-wave (km/s) = 4.69646 6.74080 5.80926
#
# Compressibility (1/GPa) = 0.01960443
#
# Stress axis : x y z
#
# Youngs Moduli (GPa) = 51.08776 120.69827 59.82818
#
# Poissons Ratio (x) = 0.28954 0.35841
# Poissons Ratio (y) = 0.12255 0.24501
# Poissons Ratio (z) = 0.30605 0.49428
#
# Static dielectric constant tensor:
#      x y z
#    x 1.600180 0.000000 0.000000 
#    y 0.000000 1.591540 0.000000 
#    z 0.000000 0.000000 1.668250 
# 
# From -- ./inp_files/15642.got.cif
#   From: 2010.05.17/outbox.cif.g08.bks.cpg/sg65_8_cif.got.tgz:15642.got - 2010.06.03 17:01:31.
