data_PCOD9488370
_publ_section_title
;
Structure prediction by ZEFSAII (Michael W. Deem and Ramdas Pophale) SiO2 
 PCOD9488370
Probable space group: C M M M
;
_chemical_formula_sum "Si O2"
_cell_formula_units_Z 112
_cell_length_a 15.136609
_cell_length_b 26.926762
_cell_length_c 15.115336
_cell_angle_alpha 90.000000
_cell_angle_beta 90.000000
_cell_angle_gamma 90.000000
_cell_volume 6160.706652
_symmetry_space_group_name_H-M "C M M M"
_symmetry_group_IT_number 65
_symmetry_cell_setting 'orthorhombic'
loop_
_space_group_symop_operation_xyz
x,y,z
-x,-y,z
x,-y,-z
-x,y,-z
-x,-y,-z
x,y,-z
-x,y,z
x,-y,z
1/2+x,1/2+y,z
1/2-x,1/2-y,z
1/2+x,1/2-y,-z
1/2-x,1/2+y,-z
1/2-x,1/2-y,-z
1/2+x,1/2+y,-z
1/2-x,1/2+y,z
1/2+x,1/2-y,z
loop_
_atom_site_type_symbol
_atom_site_label
_atom_site_fract_x
_atom_site_fract_y
_atom_site_fract_z
Si Si1 0.145371 0.254732 0.213040
Si Si2 0.394053 0.886998 0.599440
Si Si3 0.395426 0.446842 0.107446
Si Si4 0.105119 0.840968 0.099515
Si Si5 0.347547 0.774087 0.596730
Si Si6 0.107703 0.556405 0.223174
Si Si7 0.393647 0.146460 0.899275
O O1 0.250000 0.250000 0.221607
O O2 0.117080 0.206754 0.158990
O O3 0.107961 0.256048 0.312630
O O4 0.126189 0.305018 0.159197
O O5 0.379248 0.906963 0.500000
O O6 0.500000 0.877303 0.607662
O O7 0.345898 0.833909 0.606274
O O8 0.368478 0.922927 0.679524
O O9 0.500000 0.448416 0.130089
O O10 0.356716 0.500000 0.136560
O O11 0.358639 0.393399 0.136587
O O12 0.390788 0.445371 0.000000
O O13 0.000000 0.848348 0.091605
O O14 0.139828 0.831928 0.000000
O O15 0.388877 0.763925 0.500000
O O16 0.250000 0.750000 0.593775
O O17 0.137581 0.500000 0.208415
O O18 0.137221 0.596610 0.150427
O O19 0.000000 0.555753 0.220400
O O20 0.500000 0.143522 0.903841
O O21 0.360209 0.150656 0.000000
#
# Coordination Sequence:
#
# PCOD9488370 Si02
#       7
#    16  16  16  16  16  16  16
#     4  11  21  31  46  67  90 117 148 186 231 269
#     4   9  16  27  46  71  96 119 145 185 237 283
#     4   7  10  19  37  60  84 109 138 172 208 246
#     4   9  17  28  43  65  92 121 150 180 215 258
#     4   9  18  32  48  66  87 115 149 182 223 278
#     4   9  17  29  45  66  91 118 153 195 231 268
#     4  10  20  33  48  65  89 124 161 192 223 263
#
# _framework density 18.179734
#
# number of rings (size 3 to 8) (size 9 to 14) (size 15 to 20)
#    0.000    2.857    1.429    2.143    0.000    3.429 
#    0.000    2.857    0.000    0.857    0.000    2.000 
#    0.000    0.571    0.000    3.571    0.000    0.429 
#
# Total GULP energy -311779.384729 kJ/mol
# GULP energy per Si atom -5567.489013 kJ/mol
# Density = 1.813836 g / cm^3
# Si number density = 18.179734 Si / 1000 Ang^3
#
#
#
# Elastic Constant Matrix: (Units=GPa)
#
#
# Indices 1 2 3 4 5 6 
#
# 1 35.0853 8.8750 9.3726 0.0000 0.0000 0.0000
# 2 8.8750 172.5817 88.5556 0.0000 0.0000 0.0000
# 3 9.3726 88.5556 146.6222 0.0000 0.0000 0.0000
# 4 0.0000 0.0000 0.0000 22.3159 0.0000 0.0000
# 5 0.0000 0.0000 0.0000 0.0000 11.5896 0.0000
# 6 0.0000 0.0000 0.0000 0.0000 0.0000 -39.0287
#
#
#
# Elastic Compliance Matrix: (Units=1/GPa)
#
#
# Indices 1 2 3 4 5 6 
#
# 1 0.029070 -0.000785 -0.001384 0.000000 0.000000 0.000000
# 2 -0.000785 0.008418 -0.005034 0.000000 0.000000 0.000000
# 3 -0.001384 -0.005034 0.009949 0.000000 0.000000 0.000000
# 4 0.000000 0.000000 0.000000 0.044811 0.000000 0.000000
# 5 0.000000 0.000000 0.000000 0.000000 0.086284 0.000000
# 6 0.000000 0.000000 0.000000 0.000000 0.000000 -0.025622
#
#
# Mechanical properties :
#
#
# Convention : Reuss Voigt Hill
#
# Bulk Modulus (GPa) = 30.27435 63.09951 46.68693
# Shear Modulus (GPa) = 28.03848 15.47444 21.75646
#
# Velocity S-wave (km/s) = 3.93146 2.92068 3.46315
# Velocity P-wave (km/s) = 6.10717 6.79396 6.45970
#
# Compressibility (1/GPa) = 0.03303126
#
# Stress axis : x y z
#
# Youngs Moduli (GPa) = 34.39945 118.79703 100.51174
#
# Poissons Ratio (x) = 0.09320 0.13915
# Poissons Ratio (y) = 0.02699 0.50597
# Poissons Ratio (z) = 0.04762 0.59801
#
# Static dielectric constant tensor:
#      x y z
#    x 1.639770 0.000000 0.000000 
#    y 0.000000 1.665140 0.000000 
#    z 0.000000 0.000000 1.662080 
# 
# From -- ./inp_files/41069.got.cif
#   From: 2010.05.17/outbox.cif.g08.bks.cpg/sg65_21_cif.got.tgz:41069.got - 2010.06.03 17:01:31.
