data_PCOD9488417
_publ_section_title
;
Structure prediction by ZEFSAII (Michael W. Deem and Ramdas Pophale) SiO2 
 PCOD9488417
Probable space group: C M M M
;
_chemical_formula_sum "Si O2"
_cell_formula_units_Z 104
_cell_length_a 8.210692
_cell_length_b 28.070956
_cell_length_c 27.789295
_cell_angle_alpha 90.000000
_cell_angle_beta 90.000000
_cell_angle_gamma 90.000000
_cell_volume 6404.931564
_symmetry_space_group_name_H-M "C M M M"
_symmetry_group_IT_number 65
_symmetry_cell_setting 'orthorhombic'
loop_
_space_group_symop_operation_xyz
x,y,z
-x,-y,z
x,-y,-z
-x,y,-z
-x,-y,-z
x,y,-z
-x,y,z
x,-y,z
1/2+x,1/2+y,z
1/2-x,1/2-y,z
1/2+x,1/2-y,-z
1/2-x,1/2+y,-z
1/2-x,1/2-y,-z
1/2+x,1/2+y,-z
1/2-x,1/2+y,z
1/2+x,1/2-y,z
loop_
_atom_site_type_symbol
_atom_site_label
_atom_site_fract_x
_atom_site_fract_y
_atom_site_fract_z
Si Si1 0.197230 0.805016 0.843425
Si Si2 0.803240 0.194681 0.051746
Si Si3 0.695080 0.100817 0.400740
Si Si4 0.196215 0.947233 0.696134
Si Si5 0.196756 0.148551 0.745156
Si Si6 0.805484 0.302650 0.351548
Si Si7 0.305371 0.445260 0.500000
O O1 0.250000 0.750000 0.839096
O O2 0.252188 0.823974 0.896038
O O3 0.256467 0.833690 0.796897
O O4 0.000000 0.806084 0.843017
O O5 0.750000 0.250000 0.051734
O O6 0.000000 0.192751 0.051635
O O7 0.746589 0.174262 0.000000
O O8 0.500000 0.100416 0.399173
O O9 0.759252 0.066725 0.358355
O O10 0.751347 0.154311 0.386343
O O11 0.750282 0.082187 0.452236
O O12 0.256254 0.903869 0.729433
O O13 0.000000 0.947858 0.699615
O O14 0.257501 0.000000 0.708034
O O15 0.244878 0.183950 0.701982
O O16 0.000000 0.147316 0.746717
O O17 0.750000 0.250000 0.365495
O O18 0.000000 0.303430 0.350834
O O19 0.243183 0.500000 0.500000
O O20 0.500000 0.447202 0.500000
#
# Coordination Sequence:
#
# PCOD9488417 Si02
#       7
#    16  16  16  16  16  16   8
#     4   9  16  24  35  53  77 105 136 169 205 244
#     4   8  13  21  32  46  67  97 132 167 202 241
#     4  10  21  35  51  72  94 115 142 174 207 246
#     4   9  17  30  47  65  86 112 140 170 208 253
#     4   9  17  28  42  61  85 111 140 175 211 249
#     4  10  20  33  49  68  90 117 147 175 205 244
#     4  11  23  37  54  75  96 117 142 173 210 251
#
# _framework density 16.237489
#
# number of rings (size 3 to 8) (size 9 to 14) (size 15 to 20)
#    0.000    2.692    0.000    2.077    0.000    6.462 
#    0.000    0.385    0.000    0.000    0.000    0.000 
#    0.000    0.615    0.000    8.615    0.000    0.000 
#
# Total GULP energy -289640.527519 kJ/mol
# GULP energy per Si atom -5570.010145 kJ/mol
# Density = 1.620053 g / cm^3
# Si number density = 16.237489 Si / 1000 Ang^3
#
#
#
# Elastic Constant Matrix: (Units=GPa)
#
#
# Indices 1 2 3 4 5 6 
#
# 1 10.0593 7.4480 5.7882 0.0000 0.0000 0.0000
# 2 7.4480 94.4756 59.6824 0.0000 0.0000 0.0000
# 3 5.7882 59.6824 155.1351 0.0000 0.0000 0.0000
# 4 0.0000 0.0000 0.0000 15.1797 0.0000 0.0000
# 5 0.0000 0.0000 0.0000 0.0000 7.8362 0.0000
# 6 0.0000 0.0000 0.0000 0.0000 0.0000 16.0306
#
#
#
# Elastic Compliance Matrix: (Units=1/GPa)
#
#
# Indices 1 2 3 4 5 6 
#
# 1 0.105685 -0.007716 -0.000975 0.000000 0.000000 0.000000
# 2 -0.007716 0.014546 -0.005308 0.000000 0.000000 0.000000
# 3 -0.000975 -0.005308 0.008525 0.000000 0.000000 0.000000
# 4 0.000000 0.000000 0.000000 0.065877 0.000000 0.000000
# 5 0.000000 0.000000 0.000000 0.000000 0.127613 0.000000
# 6 0.000000 0.000000 0.000000 0.000000 0.000000 0.062381
#
#
# Mechanical properties :
#
#
# Convention : Reuss Voigt Hill
#
# Bulk Modulus (GPa) = 9.92482 45.05635 27.49058
# Shear Modulus (GPa) = 11.20548 20.25939 15.73243
#
# Velocity S-wave (km/s) = 2.62982 3.53610 3.11609
# Velocity P-wave (km/s) = 3.91751 6.66938 5.46934
#
# Compressibility (1/GPa) = 0.10075752
#
# Stress axis : x y z
#
# Youngs Moduli (GPa) = 9.46212 68.74545 117.30849
#
# Poissons Ratio (x) = 0.53044 0.11434
# Poissons Ratio (y) = 0.07301 0.62271
# Poissons Ratio (z) = 0.00922 0.36492
#
# Static dielectric constant tensor:
#      x y z
#    x 1.562290 0.000000 0.000000 
#    y 0.000000 1.550350 0.000000 
#    z 0.000000 0.000000 1.571920 
# 
# From -- ./inp_files/73763.got.cif
#   From: 2010.05.17/outbox.cif.g08.bks.cpg/sg65_37_cif.got.tgz:73763.got - 2010.06.03 17:01:31.
