data_PCOD9488060
_publ_section_title
;
Structure prediction by ZEFSAII (Michael W. Deem and Ramdas Pophale) SiO2 
 PCOD9488060
Probable space group: C M M M
;
_chemical_formula_sum "Si O2"
_cell_formula_units_Z 104
_cell_length_a 9.078713
_cell_length_b 30.604660
_cell_length_c 23.384307
_cell_angle_alpha 90.000000
_cell_angle_beta 90.000000
_cell_angle_gamma 90.000000
_cell_volume 6497.351321
_symmetry_space_group_name_H-M "C M M M"
_symmetry_group_IT_number 65
_symmetry_cell_setting 'orthorhombic'
loop_
_space_group_symop_operation_xyz
x,y,z
-x,-y,z
x,-y,-z
-x,y,-z
-x,-y,-z
x,y,-z
-x,y,z
x,-y,z
1/2+x,1/2+y,z
1/2-x,1/2-y,z
1/2+x,1/2-y,-z
1/2-x,1/2+y,-z
1/2-x,1/2-y,-z
1/2+x,1/2+y,-z
1/2-x,1/2+y,z
1/2+x,1/2-y,z
loop_
_atom_site_type_symbol
_atom_site_label
_atom_site_fract_x
_atom_site_fract_y
_atom_site_fract_z
Si Si1 0.822740 0.051872 0.812941
Si Si2 0.823527 0.051654 0.500000
Si Si3 0.674806 0.884014 0.275127
Si Si4 0.324394 0.885258 0.410869
Si Si5 0.330054 0.294399 0.413878
Si Si6 0.176797 0.947502 0.061460
Si Si7 0.169150 0.206058 0.274791
O O1 0.746214 0.078404 0.762877
O O2 0.770712 0.067631 0.876211
O O3 0.000000 0.057376 0.809887
O O4 0.793515 0.000000 0.808361
O O5 0.753147 0.076327 0.445828
O O6 0.000000 0.057214 0.500000
O O7 0.790984 0.000000 0.500000
O O8 0.500000 0.882627 0.267242
O O9 0.702706 0.890446 0.342942
O O10 0.745831 0.837710 0.258126
O O11 0.500000 0.885188 0.420595
O O12 0.256226 0.838557 0.429280
O O13 0.500000 0.295950 0.432330
O O14 0.250000 0.250000 0.432927
O O15 0.330463 0.293092 0.344339
O O16 0.000000 0.940711 0.061203
O O17 0.198094 0.000000 0.061483
O O18 0.234819 0.930819 0.000000
O O19 0.250000 0.250000 0.255349
O O20 0.000000 0.204912 0.256040
#
# Coordination Sequence:
#
# PCOD9488060 Si02
#       7
#    16   8  16  16  16  16  16
#     4   9  17  28  43  65  93 125 160 197 236 276
#     4  11  25  43  60  75  90 113 151 199 245 285
#     4  10  20  32  47  69  97 127 157 190 230 276
#     4  10  21  37  55  73  94 122 156 192 232 279
#     4   9  16  28  49  76 103 127 150 179 221 274
#     4   7  10  19  37  60  85 115 153 194 232 271
#     4   9  16  27  45  68  94 123 154 188 227 273
#
# _framework density 16.006523000000001
#
# number of rings (size 3 to 8) (size 9 to 14) (size 15 to 20)
#    0.000    2.846    0.000    3.462    0.000    7.077 
#    0.000    3.462    0.000    0.462    0.000    2.154 
#    0.000    0.615    0.000    1.692    0.000    2.462 
#
# Total GULP energy -289748.026409 kJ/mol
# GULP energy per Si atom -5572.077431 kJ/mol
# Density = 1.597009 g / cm^3
# Si number density = 16.006523 Si / 1000 Ang^3
#
#
#
# Elastic Constant Matrix: (Units=GPa)
#
#
# Indices 1 2 3 4 5 6 
#
# 1 88.8613 75.2284 53.6933 0.0000 0.0000 0.0000
# 2 75.2284 116.9623 59.2127 0.0000 0.0000 0.0000
# 3 53.6933 59.2127 86.6488 0.0000 0.0000 0.0000
# 4 0.0000 0.0000 0.0000 -11.1017 0.0000 0.0000
# 5 0.0000 0.0000 0.0000 0.0000 3.9925 0.0000
# 6 0.0000 0.0000 0.0000 0.0000 0.0000 29.1866
#
#
#
# Elastic Compliance Matrix: (Units=1/GPa)
#
#
# Indices 1 2 3 4 5 6 
#
# 1 0.027642 -0.013925 -0.007613 0.000000 0.000000 0.000000
# 2 -0.013925 0.020087 -0.005098 0.000000 0.000000 0.000000
# 3 -0.007613 -0.005098 0.019742 0.000000 0.000000 0.000000
# 4 0.000000 0.000000 0.000000 -0.090076 0.000000 0.000000
# 5 0.000000 0.000000 0.000000 0.000000 0.250469 0.000000
# 6 0.000000 0.000000 0.000000 0.000000 0.000000 0.034262
#
#
# Mechanical properties :
#
#
# Convention : Reuss Voigt Hill
#
# Bulk Modulus (GPa) = 70.42549 74.30456 72.36503
# Shear Modulus (GPa) = 15.61861 11.37134 13.49497
#
# Velocity S-wave (km/s) = 3.12711 2.66826 2.90676
# Velocity P-wave (km/s) = 7.55857 7.48432 7.52154
#
# Compressibility (1/GPa) = 0.01419940
#
# Stress axis : x y z
#
# Youngs Moduli (GPa) = 36.17661 49.78387 50.65298
#
# Poissons Ratio (x) = 0.69323 0.38563
# Poissons Ratio (y) = 0.50375 0.25822
# Poissons Ratio (z) = 0.27542 0.25379
#
# Static dielectric constant tensor:
#      x y z
#    x 1.531190 0.000000 0.000000 
#    y 0.000000 1.509220 0.000000 
#    z 0.000000 0.000000 1.568250 
# 
# From -- ./inp_files/68161.got.cif
#   From: 2010.05.17/outbox.cif.g08.bks.cpg/sg65_35_cif.got.tgz:68161.got - 2010.06.03 17:01:31.
