data_PCOD9488416
_publ_section_title
;
Structure prediction by ZEFSAII (Michael W. Deem and Ramdas Pophale) SiO2 
 PCOD9488416
Probable space group: C M M M
;
_chemical_formula_sum "Si O2"
_cell_formula_units_Z 96
_cell_length_a 7.533150
_cell_length_b 18.471475
_cell_length_c 33.232541
_cell_angle_alpha 90.000000
_cell_angle_beta 90.000000
_cell_angle_gamma 90.000000
_cell_volume 4624.254639
_symmetry_space_group_name_H-M "C M M M"
_symmetry_group_IT_number 65
_symmetry_cell_setting 'orthorhombic'
loop_
_space_group_symop_operation_xyz
x,y,z
-x,-y,z
x,-y,-z
-x,y,-z
-x,-y,-z
x,y,-z
-x,y,z
x,-y,z
1/2+x,1/2+y,z
1/2-x,1/2-y,z
1/2+x,1/2-y,-z
1/2-x,1/2+y,-z
1/2-x,1/2-y,-z
1/2+x,1/2+y,-z
1/2-x,1/2+y,z
1/2+x,1/2-y,z
loop_
_atom_site_type_symbol
_atom_site_label
_atom_site_fract_x
_atom_site_fract_y
_atom_site_fract_z
Si Si1 0.713127 0.335594 0.630758
Si Si2 0.213106 0.415800 0.043204
Si Si3 0.782617 0.083604 0.710645
Si Si4 0.288637 0.417410 0.130933
Si Si5 0.212975 0.163707 0.456747
Si Si6 0.287140 0.665277 0.790681
O O1 0.500000 0.343835 0.629967
O O2 0.750000 0.250000 0.634877
O O3 0.779122 0.378215 0.669640
O O4 0.780318 0.361710 0.586854
O O5 0.274398 0.500000 0.044189
O O6 0.261343 0.384190 0.086513
O O7 0.000000 0.416755 0.042127
O O8 0.274593 0.384831 0.000000
O O9 0.721640 0.125911 0.750370
O O10 0.000000 0.085696 0.710437
O O11 0.730350 0.000000 0.712220
O O12 0.500000 0.422765 0.135956
O O13 0.217042 0.500000 0.131448
O O14 0.218421 0.371466 0.168327
O O15 0.280620 0.135353 0.500000
O O16 0.250000 0.250000 0.456761
O O17 0.000000 0.153763 0.456895
O O18 0.500000 0.656448 0.790690
O O19 0.250000 0.750000 0.789661
#
# Coordination Sequence:
#
# PCOD9488416 Si02
#       6
#    16  16  16  16  16  16
#     4   9  16  26  43  65  87 114 147 182 220 261
#     4   8  14  25  42  66  95 123 149 179 217 258
#     4   9  17  30  48  67  87 114 148 182 217 263
#     4   9  17  29  46  68  92 118 149 183 218 257
#     4   8  13  21  34  55  83 111 140 176 215 254
#     4  10  20  33  49  68  90 116 146 182 222 263
#
# _framework density 20.760103000000001
#
# number of rings (size 3 to 8) (size 9 to 14) (size 15 to 20)
#    0.000    3.167    0.000    1.500    0.000    3.000 
#    0.000    1.667    0.000    4.000    0.000    3.500 
#    0.000    0.000    0.000   27.000    0.000   12.667 
#
# Total GULP energy -267415.078785 kJ/mol
# GULP energy per Si atom -5571.147475 kJ/mol
# Density = 2.071285 g / cm^3
# Si number density = 20.760103 Si / 1000 Ang^3
#
#
#
# Elastic Constant Matrix: (Units=GPa)
#
#
# Indices 1 2 3 4 5 6 
#
# 1 53.1268 -1.8105 10.4341 0.0000 0.0000 0.0000
# 2 -1.8105 79.4974 98.1841 0.0000 0.0000 0.0000
# 3 10.4341 98.1841 291.7882 0.0000 0.0000 0.0000
# 4 0.0000 0.0000 0.0000 24.4538 0.0000 0.0000
# 5 0.0000 0.0000 0.0000 0.0000 19.6931 0.0000
# 6 0.0000 0.0000 0.0000 0.0000 0.0000 12.9294
#
#
#
# Elastic Compliance Matrix: (Units=1/GPa)
#
#
# Indices 1 2 3 4 5 6 
#
# 1 0.019178 0.002197 -0.001425 0.000000 0.000000 0.000000
# 2 0.002197 0.021776 -0.007406 0.000000 0.000000 0.000000
# 3 -0.001425 -0.007406 0.005970 0.000000 0.000000 0.000000
# 4 0.000000 0.000000 0.000000 0.040894 0.000000 0.000000
# 5 0.000000 0.000000 0.000000 0.000000 0.050779 0.000000
# 6 0.000000 0.000000 0.000000 0.000000 0.000000 0.077343
#
#
# Mechanical properties :
#
#
# Convention : Reuss Voigt Hill
#
# Bulk Modulus (GPa) = 29.71319 70.89198 50.30259
# Shear Modulus (GPa) = 20.79643 32.58890 26.69267
#
# Velocity S-wave (km/s) = 3.16848 3.96635 3.58965
# Velocity P-wave (km/s) = 5.26587 7.42955 6.43924
#
# Compressibility (1/GPa) = 0.03365508
#
# Stress axis : x y z
#
# Youngs Moduli (GPa) = 52.14420 45.92248 167.50072
#
# Poissons Ratio (x) = -0.10087 0.23867
# Poissons Ratio (y) = -0.11454 1.24050
# Poissons Ratio (z) = 0.07430 0.34010
#
# Static dielectric constant tensor:
#      x y z
#    x 1.783740 0.000000 0.000000 
#    y 0.000000 1.681680 0.000000 
#    z 0.000000 0.000000 1.810790 
# 
# From -- ./inp_files/74363.got.cif
#   From: 2010.05.17/outbox.cif.g08.bks.cpg/sg65_38_cif.got.tgz:74363.got - 2010.06.03 17:01:31.
