data_PCOD9488694
_publ_section_title
;
Structure prediction by ZEFSAII (Michael W. Deem and Ramdas Pophale) SiO2 
 PCOD9488694
Probable space group: C M M M
;
_chemical_formula_sum "Si O2"
_cell_formula_units_Z 120
_cell_length_a 28.525945
_cell_length_b 28.044251
_cell_length_c 7.948490
_cell_angle_alpha 90.000000
_cell_angle_beta 90.000000
_cell_angle_gamma 90.000000
_cell_volume 6358.702672
_symmetry_space_group_name_H-M "C M M M"
_symmetry_group_IT_number 65
_symmetry_cell_setting 'orthorhombic'
loop_
_space_group_symop_operation_xyz
x,y,z
-x,-y,z
x,-y,-z
-x,y,-z
-x,-y,-z
x,y,-z
-x,y,z
x,-y,z
1/2+x,1/2+y,z
1/2-x,1/2-y,z
1/2+x,1/2-y,-z
1/2-x,1/2+y,-z
1/2-x,1/2-y,-z
1/2+x,1/2+y,-z
1/2-x,1/2+y,z
1/2+x,1/2-y,z
loop_
_atom_site_type_symbol
_atom_site_label
_atom_site_fract_x
_atom_site_fract_y
_atom_site_fract_z
Si Si1 0.783813 0.101931 0.798846
Si Si2 0.235744 0.697788 0.205758
Si Si3 0.052951 0.707408 0.201936
Si Si4 0.359652 0.149341 0.798485
Si Si5 0.187815 0.446988 0.300211
Si Si6 0.945766 0.185279 0.703363
Si Si7 0.109930 0.093039 0.701891
Si Si8 0.945944 0.000000 0.706297
O O1 0.771148 0.155799 0.742302
O O2 0.741197 0.068821 0.738453
O O3 0.835427 0.088167 0.741929
O O4 0.782465 0.101249 0.000000
O O5 0.250000 0.750000 0.264537
O O6 0.184297 0.681055 0.262621
O O7 0.235476 0.698578 0.000000
O O8 0.091509 0.670266 0.267425
O O9 0.067875 0.761879 0.237742
O O10 0.000000 0.701161 0.269278
O O11 0.050507 0.702172 0.000000
O O12 0.346275 0.094753 0.763251
O O13 0.360584 0.154552 0.000000
O O14 0.182716 0.448441 0.500000
O O15 0.178866 0.500000 0.231224
O O16 0.945018 0.185476 0.500000
O O17 0.912377 0.142752 0.764775
O O18 0.000000 0.176820 0.755456
O O19 0.105073 0.093824 0.500000
O O20 0.080749 0.047518 0.763544
O O21 0.945291 0.000000 0.500000
O O22 0.000000 0.000000 0.757893
#
# Coordination Sequence:
#
# PCOD9488694 Si02
#       8
#    16  16  16  16  16  16  16   8
#     4  10  21  34  51  76 104 135 169 207 255 308
#     4   8  15  28  46  68  95 129 166 200 238 293
#     4   9  18  32  52  79 109 140 174 210 251 306
#     4   9  18  32  52  77 104 136 172 211 256 305
#     4  10  21  37  57  77 102 134 168 210 256 307
#     4   9  18  32  49  71 101 137 176 218 262 307
#     4  10  20  33  51  74 100 130 172 225 270 312
#     4   9  18  34  55  73  91 129 181 225 268 315
#
# _framework density 18.871773999999998
#
# number of rings (size 3 to 8) (size 9 to 14) (size 15 to 20)
#    0.000    2.733    0.000    2.000    2.800    3.733 
#    0.000    0.000    0.000    4.000    0.000    2.800 
#    0.000    0.000    0.000    0.000    0.000    0.000 
#
# Total GULP energy -334674.028645 kJ/mol
# GULP energy per Si atom -5577.900477 kJ/mol
# Density = 1.882882 g / cm^3
# Si number density = 18.871774 Si / 1000 Ang^3
#
#
#
# Elastic Constant Matrix: (Units=GPa)
#
#
# Indices 1 2 3 4 5 6 
#
# 1 133.4012 93.7756 4.9192 0.0000 0.0000 0.0000
# 2 93.7756 151.4549 0.8933 0.0000 0.0000 0.0000
# 3 4.9192 0.8933 11.4179 0.0000 0.0000 0.0000
# 4 0.0000 0.0000 0.0000 21.7184 0.0000 0.0000
# 5 0.0000 0.0000 0.0000 0.0000 15.1428 0.0000
# 6 0.0000 0.0000 0.0000 0.0000 0.0000 17.7931
#
#
#
# Elastic Compliance Matrix: (Units=1/GPa)
#
#
# Indices 1 2 3 4 5 6 
#
# 1 0.013574 -0.008374 -0.005193 0.000000 0.000000 0.000000
# 2 -0.008374 0.011772 0.002687 0.000000 0.000000 0.000000
# 3 -0.005193 0.002687 0.089609 0.000000 0.000000 0.000000
# 4 0.000000 0.000000 0.000000 0.046044 0.000000 0.000000
# 5 0.000000 0.000000 0.000000 0.000000 0.066038 0.000000
# 6 0.000000 0.000000 0.000000 0.000000 0.000000 0.056202
#
#
# Mechanical properties :
#
#
# Convention : Reuss Voigt Hill
#
# Bulk Modulus (GPa) = 10.73026 55.05002 32.89014
# Shear Modulus (GPa) = 14.87810 24.04323 19.46066
#
# Velocity S-wave (km/s) = 2.81085 3.57323 3.21472
# Velocity P-wave (km/s) = 4.02899 6.80131 5.58975
#
# Compressibility (1/GPa) = 0.09319440
#
# Stress axis : x y z
#
# Youngs Moduli (GPa) = 73.66831 84.94915 11.15959
#
# Poissons Ratio (x) = 0.71138 0.05795
# Poissons Ratio (y) = 0.61691 -0.02998
# Poissons Ratio (z) = 0.38257 -0.22824
#
# Static dielectric constant tensor:
#      x y z
#    x 1.683310 0.000000 0.000000 
#    y 0.000000 1.649800 0.000000 
#    z 0.000000 0.000000 1.681760 
# 
# From -- ./inp_files/17096.got.cif
#   From: 2010.05.17/outbox.cif.g08.bks.cpg/sg65_9_cif.got.tgz:17096.got - 2010.06.03 17:01:31.
