data_PCOD9488148
_publ_section_title
;
Structure prediction by ZEFSAII (Michael W. Deem and Ramdas Pophale) SiO2 
 PCOD9488148
Probable space group: C M M M
;
_chemical_formula_sum "Si O2"
_cell_formula_units_Z 104
_cell_length_a 23.999713
_cell_length_b 29.029537
_cell_length_c 8.484559
_cell_angle_alpha 90.000000
_cell_angle_beta 90.000000
_cell_angle_gamma 90.000000
_cell_volume 5911.196977
_symmetry_space_group_name_H-M "C M M M"
_symmetry_group_IT_number 65
_symmetry_cell_setting 'orthorhombic'
loop_
_space_group_symop_operation_xyz
x,y,z
-x,-y,z
x,-y,-z
-x,y,-z
-x,-y,-z
x,y,-z
-x,y,z
x,-y,z
1/2+x,1/2+y,z
1/2-x,1/2-y,z
1/2+x,1/2-y,-z
1/2-x,1/2+y,-z
1/2-x,1/2-y,-z
1/2+x,1/2+y,-z
1/2-x,1/2+y,z
1/2+x,1/2-y,z
loop_
_atom_site_type_symbol
_atom_site_label
_atom_site_fract_x
_atom_site_fract_y
_atom_site_fract_z
Si Si1 0.376159 0.225414 0.325610
Si Si2 0.268935 0.803779 0.823127
Si Si3 0.935639 0.099367 0.811957
Si Si4 0.567430 0.500000 0.680279
Si Si5 0.062911 0.297338 0.000000
Si Si6 0.066402 0.444704 0.671858
Si Si7 0.935206 0.407269 0.000000
Si Si8 0.342296 0.333023 0.679063
O O1 0.400313 0.214844 0.500000
O O2 0.319683 0.196018 0.298773
O O3 0.360883 0.279541 0.324356
O O4 0.410376 0.217788 0.165592
O O5 0.250000 0.750000 0.825899
O O6 0.215104 0.833231 0.776637
O O7 0.288368 0.815307 0.000000
O O8 0.917203 0.047831 0.763060
O O9 0.892157 0.136194 0.745729
O O10 0.000000 0.106567 0.755557
O O11 0.936400 0.102538 0.000000
O O12 0.500000 0.500000 0.680245
O O13 0.586890 0.500000 0.500000
O O14 0.063816 0.352539 0.000000
O O15 0.000000 0.280015 0.000000
O O16 0.088765 0.429326 0.500000
O O17 0.071175 0.500000 0.678981
O O18 0.089926 0.424241 0.834162
O O19 0.000000 0.433743 0.669782
O O20 0.000000 0.424385 0.000000
O O21 0.330661 0.347250 0.500000
#
# Coordination Sequence:
#
# PCOD9488148 Si02
#       8
#    16  16  16   8   8  16   8  16
#     4  10  21  37  54  73 101 137 177 226 279 323
#     4   9  16  30  55  79 100 125 159 211 273 321
#     4  10  20  32  48  72 105 145 183 221 268 321
#     4   9  17  31  49  67  97 141 181 219 263 316
#     4  11  24  37  49  68  99 142 186 217 253 310
#     4   8  13  22  39  63  88 112 140 182 237 287
#     4   9  17  28  41  59  87 123 157 192 229 278
#     4  10  20  32  51  79 104 131 173 221 272 321
#
# _framework density 17.593729
#
# number of rings (size 3 to 8) (size 9 to 14) (size 15 to 20)
#    0.000    2.538    0.769    2.308    2.154    6.154 
#    0.000    3.077    0.000    0.000    0.000    0.000 
#    4.615    0.000    1.846    0.000    0.308    0.000 
#
# Total GULP energy -289526.346278 kJ/mol
# GULP energy per Si atom -5567.814351 kJ/mol
# Density = 1.755368 g / cm^3
# Si number density = 17.593729 Si / 1000 Ang^3
#
#
#
# Elastic Constant Matrix: (Units=GPa)
#
#
# Indices 1 2 3 4 5 6 
#
# 1 62.9950 26.8114 31.6130 0.0000 0.0000 0.0000
# 2 26.8114 45.0556 29.7883 0.0000 0.0000 0.0000
# 3 31.6130 29.7883 149.9496 0.0000 0.0000 0.0000
# 4 0.0000 0.0000 0.0000 5.5568 0.0000 0.0000
# 5 0.0000 0.0000 0.0000 0.0000 8.1479 0.0000
# 6 0.0000 0.0000 0.0000 0.0000 0.0000 1.4891
#
#
#
# Elastic Compliance Matrix: (Units=1/GPa)
#
#
# Indices 1 2 3 4 5 6 
#
# 1 0.021949 -0.011514 -0.002340 0.000000 0.000000 0.000000
# 2 -0.011514 0.031591 -0.003848 0.000000 0.000000 0.000000
# 3 -0.002340 -0.003848 0.007927 0.000000 0.000000 0.000000
# 4 0.000000 0.000000 0.000000 0.179961 0.000000 0.000000
# 5 0.000000 0.000000 0.000000 0.000000 0.122731 0.000000
# 6 0.000000 0.000000 0.000000 0.000000 0.000000 0.671550
#
#
# Mechanical properties :
#
#
# Convention : Reuss Voigt Hill
#
# Bulk Modulus (GPa) = 38.37045 48.26950 43.31998
# Shear Modulus (GPa) = 4.63048 14.35792 9.49420
#
# Velocity S-wave (km/s) = 1.62407 2.85981 2.32553
# Velocity P-wave (km/s) = 5.03719 6.19677 5.64682
#
# Compressibility (1/GPa) = 0.02606172
#
# Stress axis : x y z
#
# Youngs Moduli (GPa) = 45.55975 31.65474 126.15571
#
# Poissons Ratio (x) = 0.36448 0.29521
# Poissons Ratio (y) = 0.52459 0.48547
# Poissons Ratio (z) = 0.10661 0.12181
#
# Static dielectric constant tensor:
#      x y z
#    x 1.603120 0.000000 0.000000 
#    y 0.000000 1.581100 0.000000 
#    z 0.000000 0.000000 1.676400 
# 
# From -- ./inp_files/14841.got.cif
#   From: 2010.05.17/outbox.cif.g08.bks.cpg/sg65_8_cif.got.tgz:14841.got - 2010.06.03 17:01:31.
