data_PCOD9488560
_publ_section_title
;
Structure prediction by ZEFSAII (Michael W. Deem and Ramdas Pophale) SiO2 
 PCOD9488560
Probable space group: C M M M
;
_chemical_formula_sum "Si O2"
_cell_formula_units_Z 104
_cell_length_a 7.729739
_cell_length_b 24.319175
_cell_length_c 25.362958
_cell_angle_alpha 90.000000
_cell_angle_beta 90.000000
_cell_angle_gamma 90.000000
_cell_volume 4767.751049
_symmetry_space_group_name_H-M "C M M M"
_symmetry_group_IT_number 65
_symmetry_cell_setting 'orthorhombic'
loop_
_space_group_symop_operation_xyz
x,y,z
-x,-y,z
x,-y,-z
-x,y,-z
-x,-y,-z
x,y,-z
-x,y,z
x,-y,z
1/2+x,1/2+y,z
1/2-x,1/2-y,z
1/2+x,1/2-y,-z
1/2-x,1/2+y,-z
1/2-x,1/2-y,-z
1/2+x,1/2+y,-z
1/2-x,1/2+y,z
1/2+x,1/2-y,z
loop_
_atom_site_type_symbol
_atom_site_label
_atom_site_fract_x
_atom_site_fract_y
_atom_site_fract_z
Si Si1 0.204816 0.691405 0.816052
Si Si2 0.301633 0.826312 0.302293
Si Si3 0.708604 0.439995 0.732308
Si Si4 0.806702 0.187940 0.416324
Si Si5 0.712196 0.500000 0.059806
Si Si6 0.701061 0.562727 0.436553
Si Si7 0.799784 0.921087 0.149018
O O1 0.250000 0.750000 0.838250
O O2 0.271605 0.689011 0.755431
O O3 0.284340 0.643799 0.850670
O O4 0.000000 0.682645 0.812805
O O5 0.500000 0.807559 0.306507
O O6 0.294667 0.892229 0.300322
O O7 0.199129 0.807514 0.352892
O O8 0.500000 0.431319 0.732540
O O9 0.744035 0.500000 0.711220
O O10 0.771960 0.437242 0.793319
O O11 0.750000 0.250000 0.434770
O O12 0.725284 0.125711 0.425362
O O13 0.000000 0.181997 0.436841
O O14 0.500000 0.500000 0.056388
O O15 0.769653 0.550821 0.096639
O O16 0.775445 0.500000 0.000000
O O17 0.701006 0.560732 0.500000
O O18 0.500000 0.564122 0.417113
O O19 0.767180 0.500000 0.420568
O O20 0.000000 0.937474 0.151675
#
# Coordination Sequence:
#
# PCOD9488560 Si02
#       7
#    16  16  16  16   8  16  16
#     4  10  20  33  50  72  97 131 173 214 255 301
#     4  10  21  34  48  71 104 140 177 216 261 308
#     4   9  16  28  47  70  99 137 178 215 253 303
#     4  11  22  35  54  80 110 143 177 217 266 320
#     4   9  16  28  51  81 107 131 163 203 250 305
#     4   8  16  34  59  83 105 133 175 224 268 313
#     4   9  16  29  49  73 101 132 166 205 248 297
#
# _framework density 21.813217000000002
#
# number of rings (size 3 to 8) (size 9 to 14) (size 15 to 20)
#    0.000    2.538    0.769    2.308    0.000    4.308 
#    0.000    1.923    0.000    4.154    0.000    4.308 
#    0.000    0.000    0.000    0.000    0.000    0.000 
#
# Total GULP energy -289559.929167 kJ/mol
# GULP energy per Si atom -5568.460176 kJ/mol
# Density = 2.176357 g / cm^3
# Si number density = 21.813217 Si / 1000 Ang^3
#
#
#
# Elastic Constant Matrix: (Units=GPa)
#
#
# Indices 1 2 3 4 5 6 
#
# 1 36.2685 12.6336 7.9377 0.0000 0.0000 0.0000
# 2 12.6336 217.6901 35.3318 0.0000 0.0000 0.0000
# 3 7.9377 35.3318 101.0672 0.0000 0.0000 0.0000
# 4 0.0000 0.0000 0.0000 16.0438 0.0000 0.0000
# 5 0.0000 0.0000 0.0000 0.0000 -10.3764 0.0000
# 6 0.0000 0.0000 0.0000 0.0000 0.0000 21.0231
#
#
#
# Elastic Compliance Matrix: (Units=1/GPa)
#
#
# Indices 1 2 3 4 5 6 
#
# 1 0.028432 -0.001365 -0.001756 0.000000 0.000000 0.000000
# 2 -0.001365 0.004936 -0.001618 0.000000 0.000000 0.000000
# 3 -0.001756 -0.001618 0.010598 0.000000 0.000000 0.000000
# 4 0.000000 0.000000 0.000000 0.062329 0.000000 0.000000
# 5 0.000000 0.000000 0.000000 0.000000 -0.096373 0.000000
# 6 0.000000 0.000000 0.000000 0.000000 0.000000 0.047567
#
#
# Mechanical properties :
#
#
# Convention : Reuss Voigt Hill
#
# Bulk Modulus (GPa) = 28.99613 51.87021 40.43317
# Shear Modulus (GPa) = 63.72460 25.27963 44.50211
#
# Velocity S-wave (km/s) = 5.41084 3.40797 4.52170
# Velocity P-wave (km/s) = 7.23588 6.27030 6.77033
#
# Compressibility (1/GPa) = 0.03448736
#
# Stress axis : x y z
#
# Youngs Moduli (GPa) = 35.17175 202.61192 94.35744
#
# Poissons Ratio (x) = 0.27658 0.16567
# Poissons Ratio (y) = 0.04801 0.15269
# Poissons Ratio (z) = 0.06175 0.32786
#
# Static dielectric constant tensor:
#      x y z
#    x 1.871990 0.000000 0.000000 
#    y 0.000000 1.893720 0.000000 
#    z 0.000000 0.000000 1.768980 
# 
# From -- ./inp_files/73602.got.cif
#   From: 2010.05.17/outbox.cif.g08.bks.cpg/sg65_37_cif.got.tgz:73602.got - 2010.06.03 17:01:31.
