data_PCOD9488888
_publ_section_title
;
Structure prediction by ZEFSAII (Michael W. Deem and Ramdas Pophale) SiO2 
 PCOD9488888
Probable space group: C M M M
;
_chemical_formula_sum "Si O2"
_cell_formula_units_Z 88
_cell_length_a 20.357143
_cell_length_b 25.982098
_cell_length_c 7.373841
_cell_angle_alpha 90.000000
_cell_angle_beta 90.000000
_cell_angle_gamma 90.000000
_cell_volume 3900.181453
_symmetry_space_group_name_H-M "C M M M"
_symmetry_group_IT_number 65
_symmetry_cell_setting 'orthorhombic'
loop_
_space_group_symop_operation_xyz
x,y,z
-x,-y,z
x,-y,-z
-x,y,-z
-x,-y,-z
x,y,-z
-x,y,z
x,-y,z
1/2+x,1/2+y,z
1/2-x,1/2-y,z
1/2+x,1/2-y,-z
1/2-x,1/2+y,-z
1/2-x,1/2-y,-z
1/2+x,1/2+y,-z
1/2-x,1/2+y,z
1/2+x,1/2-y,z
loop_
_atom_site_type_symbol
_atom_site_label
_atom_site_fract_x
_atom_site_fract_y
_atom_site_fract_z
Si Si1 0.072269 0.137123 0.780935
Si Si2 0.175239 0.945006 0.779684
Si Si3 0.181087 0.586660 0.220722
Si Si4 0.928096 0.256509 0.708154
Si Si5 0.922862 0.500000 0.221287
Si Si6 0.208020 0.297846 0.202218
O O1 0.131322 0.101991 0.715341
O O2 0.076186 0.194915 0.710998
O O3 0.000000 0.116122 0.733968
O O4 0.075464 0.140346 0.000000
O O5 0.251317 0.941515 0.730784
O O6 0.147649 0.000000 0.722894
O O7 0.173585 0.943200 0.000000
O O8 0.118989 0.551250 0.277586
O O9 0.196253 0.645331 0.283701
O O10 0.175764 0.589901 0.000000
O O11 0.924029 0.274079 0.500000
O O12 0.865818 0.277488 0.809700
O O13 0.000000 0.270974 0.780498
O O14 0.000000 0.500000 0.276736
O O15 0.922494 0.500000 0.000000
O O16 0.250000 0.250000 0.284798
O O17 0.237764 0.305871 0.000000
#
# Coordination Sequence:
#
# PCOD9488888 Si02
#       6
#    16  16  16  16   8  16
#     4   9  17  29  47  72 100 130 165 205 247 295
#     4   9  15  25  44  68  97 130 160 196 246 299
#     4   9  16  27  43  66  98 131 160 198 251 304
#     4  10  21  36  52  71  99 136 175 213 257 308
#     4   9  16  26  40  62  94 130 166 201 243 299
#     4  10  20  33  52  79 107 134 169 213 262 317
#
# _framework density 22.563051999999999
#
# number of rings (size 3 to 8) (size 9 to 14) (size 15 to 20)
#    0.000    2.636    0.909    1.636    0.000    5.455 
#    0.000    3.636    0.000    0.545    0.000    3.182 
#    0.000    2.182    0.000    0.000    0.000    0.000 
#
# Total GULP energy -245326.862680 kJ/mol
# GULP energy per Si atom -5575.610515 kJ/mol
# Density = 2.251170 g / cm^3
# Si number density = 22.563052 Si / 1000 Ang^3
#
#
#
# Elastic Constant Matrix: (Units=GPa)
#
#
# Indices 1 2 3 4 5 6 
#
# 1 104.4894 53.5765 7.6757 0.0000 0.0000 0.0000
# 2 53.5765 130.5629 2.3181 0.0000 0.0000 0.0000
# 3 7.6757 2.3181 77.3363 0.0000 0.0000 0.0000
# 4 0.0000 0.0000 0.0000 2.0335 0.0000 0.0000
# 5 0.0000 0.0000 0.0000 0.0000 -18.2963 0.0000
# 6 0.0000 0.0000 0.0000 0.0000 0.0000 43.8186
#
#
#
# Elastic Compliance Matrix: (Units=1/GPa)
#
#
# Indices 1 2 3 4 5 6 
#
# 1 0.012207 -0.004990 -0.001062 0.000000 0.000000 0.000000
# 2 -0.004990 0.009703 0.000204 0.000000 0.000000 0.000000
# 3 -0.001062 0.000204 0.013030 0.000000 0.000000 0.000000
# 4 0.000000 0.000000 0.000000 0.491761 0.000000 0.000000
# 5 0.000000 0.000000 0.000000 0.000000 -0.054656 0.000000
# 6 0.000000 0.000000 0.000000 0.000000 0.000000 0.022821
#
#
# Mechanical properties :
#
#
# Convention : Reuss Voigt Hill
#
# Bulk Modulus (GPa) = 43.02100 48.83661 45.92880
# Shear Modulus (GPa) = 9.72175 22.09904 15.91039
#
# Velocity S-wave (km/s) = 2.07799 3.13299 2.65835
# Velocity P-wave (km/s) = 4.98656 5.89737 5.46099
#
# Compressibility (1/GPa) = 0.02324446
#
# Stress axis : x y z
#
# Youngs Moduli (GPa) = 81.91927 103.05764 76.74710
#
# Poissons Ratio (x) = 0.51429 0.08150
# Poissons Ratio (y) = 0.40881 -0.01569
# Poissons Ratio (z) = 0.08700 -0.02107
#
# Static dielectric constant tensor:
#      x y z
#    x 1.801380 0.000000 0.000000 
#    y 0.000000 1.844810 0.000000 
#    z 0.000000 0.000000 1.420690 
# 
# From -- ./inp_files/11794.got.cif
#   From: 2010.05.17/outbox.cif.g08.bks.cpg/sg65_6_cif.got.tgz:11794.got - 2010.06.03 17:01:31.
