data_PCOD9488411
_publ_section_title
;
Structure prediction by ZEFSAII (Michael W. Deem and Ramdas Pophale) SiO2 
 PCOD9488411
Probable space group: C M M M
;
_chemical_formula_sum "Si O2"
_cell_formula_units_Z 88
_cell_length_a 26.497704
_cell_length_b 7.606080
_cell_length_c 23.754473
_cell_angle_alpha 90.000000
_cell_angle_beta 90.000000
_cell_angle_gamma 90.000000
_cell_volume 4787.563345
_symmetry_space_group_name_H-M "C M M M"
_symmetry_group_IT_number 65
_symmetry_cell_setting 'orthorhombic'
loop_
_space_group_symop_operation_xyz
x,y,z
-x,-y,z
x,-y,-z
-x,y,-z
-x,-y,-z
x,y,-z
-x,y,z
x,-y,z
1/2+x,1/2+y,z
1/2-x,1/2-y,z
1/2+x,1/2-y,-z
1/2-x,1/2+y,-z
1/2-x,1/2-y,-z
1/2+x,1/2+y,-z
1/2-x,1/2+y,z
1/2+x,1/2-y,z
loop_
_atom_site_type_symbol
_atom_site_label
_atom_site_fract_x
_atom_site_fract_y
_atom_site_fract_z
Si Si1 0.164009 0.793536 0.560631
Si Si2 0.561590 0.500000 0.935378
Si Si3 0.555878 0.213592 0.605454
Si Si4 0.560709 0.202013 0.150076
Si Si5 0.694264 0.709700 0.681817
Si Si6 0.911308 0.297371 0.272281
O O1 0.178094 0.716009 0.500000
O O2 0.103689 0.776839 0.570019
O O3 0.188590 0.720063 0.617550
O O4 0.176519 0.000000 0.559206
O O5 0.500000 0.500000 0.935908
O O6 0.577723 0.671201 0.900037
O O7 0.578381 0.500000 0.000000
O O8 0.500000 0.265471 0.586088
O O9 0.564428 0.275411 0.670173
O O10 0.558238 0.000000 0.605366
O O11 0.500000 0.196900 0.148589
O O12 0.575342 0.277006 0.211499
O O13 0.579028 0.000000 0.144624
O O14 0.686480 0.500000 0.680794
O O15 0.750000 0.750000 0.702762
O O16 0.648467 0.788509 0.717109
O O17 0.928646 0.500000 0.269598
#
# Coordination Sequence:
#
# PCOD9488411 Si02
#       6
#    16   8  16  16  16  16
#     4   9  19  34  47  61  84 114 150 188 229 281
#     4   9  18  30  44  68 104 142 177 209 235 267
#     4   9  17  29  45  65  89 116 148 187 232 277
#     4   9  17  29  47  71 100 137 173 204 239 278
#     4  10  20  33  49  67  88 115 145 187 243 292
#     4   9  17  30  48  68  92 121 152 193 236 283
#
# _framework density 18.380958
#
# number of rings (size 3 to 8) (size 9 to 14) (size 15 to 20)
#    0.000    2.818    0.000    1.091    1.273    4.727 
#    0.000    3.636    0.000    0.000    0.000    0.000 
#    0.000    0.727    0.364    0.000    0.000    0.000 
#
# Total GULP energy -245329.524024 kJ/mol
# GULP energy per Si atom -5575.671001 kJ/mol
# Density = 1.833912 g / cm^3
# Si number density = 18.380958 Si / 1000 Ang^3
#
#
#
# Elastic Constant Matrix: (Units=GPa)
#
#
# Indices 1 2 3 4 5 6 
#
# 1 37.0802 -12.2427 -19.3229 0.0000 0.0000 0.0000
# 2 -12.2427 60.2052 24.9458 0.0000 0.0000 0.0000
# 3 -19.3229 24.9458 91.4553 0.0000 0.0000 0.0000
# 4 0.0000 0.0000 0.0000 -0.9433 0.0000 0.0000
# 5 0.0000 0.0000 0.0000 0.0000 -7.9955 0.0000
# 6 0.0000 0.0000 0.0000 0.0000 0.0000 14.6573
#
#
#
# Elastic Compliance Matrix: (Units=1/GPa)
#
#
# Indices 1 2 3 4 5 6 
#
# 1 0.031165 0.004069 0.005475 0.000000 0.000000 0.000000
# 2 0.004069 0.019258 -0.004393 0.000000 0.000000 0.000000
# 3 0.005475 -0.004393 0.013289 0.000000 0.000000 0.000000
# 4 0.000000 0.000000 0.000000 -1.060106 0.000000 0.000000
# 5 0.000000 0.000000 0.000000 0.000000 -0.125070 0.000000
# 6 0.000000 0.000000 0.000000 0.000000 0.000000 0.068225
#
#
# Mechanical properties :
#
#
# Convention : Reuss Voigt Hill
#
# Bulk Modulus (GPa) = 13.51114 19.50012 16.50563
# Shear Modulus (GPa) = -4.81293 14.16774 4.67741
#
# Velocity S-wave (km/s) = -1.61991 2.77931 1.59694
# Velocity P-wave (km/s) = 1.96666 4.57508 3.52130
#
# Compressibility (1/GPa) = 0.07401299
#
# Stress axis : x y z
#
# Youngs Moduli (GPa) = 32.08733 51.92775 75.24846
#
# Poissons Ratio (x) = -0.21129 -0.41197
# Poissons Ratio (y) = -0.13056 0.33057
# Poissons Ratio (z) = -0.17567 0.22812
#
# Static dielectric constant tensor:
#      x y z
#    x 1.617530 0.000000 0.000000 
#    y 0.000000 1.702540 0.000000 
#    z 0.000000 0.000000 1.642860 
# 
# From -- ./inp_files/59837.got.cif
#   From: 2010.05.17/outbox.cif.g08.bks.cpg/sg65_30_cif.got.tgz:59837.got - 2010.06.03 17:01:31.
