data_PCOD9488212
_publ_section_title
;
Structure prediction by ZEFSAII (Michael W. Deem and Ramdas Pophale) SiO2 
 PCOD9488212
Probable space group: C M M M
;
_chemical_formula_sum "Si O2"
_cell_formula_units_Z 120
_cell_length_a 7.317014
_cell_length_b 26.942066
_cell_length_c 24.882744
_cell_angle_alpha 90.000000
_cell_angle_beta 90.000000
_cell_angle_gamma 90.000000
_cell_volume 4905.271536
_symmetry_space_group_name_H-M "C M M M"
_symmetry_group_IT_number 65
_symmetry_cell_setting 'orthorhombic'
loop_
_space_group_symop_operation_xyz
x,y,z
-x,-y,z
x,-y,-z
-x,y,-z
-x,-y,-z
x,y,-z
-x,y,z
x,-y,z
1/2+x,1/2+y,z
1/2-x,1/2-y,z
1/2+x,1/2-y,-z
1/2-x,1/2+y,-z
1/2-x,1/2-y,-z
1/2+x,1/2+y,-z
1/2-x,1/2+y,z
1/2+x,1/2-y,z
loop_
_atom_site_type_symbol
_atom_site_label
_atom_site_fract_x
_atom_site_fract_y
_atom_site_fract_z
Si Si1 0.282916 0.304691 0.600668
Si Si2 0.720956 0.942997 0.880864
Si Si3 0.722012 0.553368 0.673976
Si Si4 0.211029 0.155435 0.830471
Si Si5 0.217337 0.440120 0.000000
Si Si6 0.223282 0.160290 0.285232
Si Si7 0.277220 0.410232 0.558517
Si Si8 0.282200 0.691223 0.057300
O O1 0.500000 0.310678 0.603282
O O2 0.250000 0.250000 0.578423
O O3 0.215406 0.309276 0.662446
O O4 0.218815 0.352904 0.568242
O O5 0.500000 0.942823 0.881806
O O6 0.783487 0.904302 0.835997
O O7 0.778598 0.000000 0.872497
O O8 0.786020 0.925218 0.940604
O O9 0.500000 0.553729 0.674980
O O10 0.783269 0.500000 0.694994
O O11 0.778569 0.603252 0.703921
O O12 0.777382 0.560053 0.611574
O O13 0.288201 0.174216 0.774126
O O14 0.296254 0.172693 0.886479
O O15 0.000000 0.171600 0.831294
O O16 0.243411 0.500000 0.000000
O O17 0.000000 0.432060 0.000000
O O18 0.000000 0.161770 0.284219
O O19 0.216703 0.427758 0.500000
O O20 0.500000 0.411367 0.558162
O O21 0.500000 0.682540 0.057234
O O22 0.250000 0.750000 0.056437
O O23 0.211053 0.670953 0.000000
#
# Coordination Sequence:
#
# PCOD9488212 Si02
#       8
#    16  16  16  16   8  16  16  16
#     4   9  17  30  47  65  89 121 154 187 226 271
#     4   9  18  32  48  68  95 124 154 186 221 269
#     4   8  13  22  38  59  85 120 157 187 216 260
#     4  10  20  32  49  71  94 120 152 192 237 281
#     4   7  12  26  45  61  82 115 148 175 208 257
#     4   8  16  30  43  61  90 120 149 184 228 274
#     4   8  14  24  38  60  91 121 148 184 229 269
#     4   9  19  35  51  68  91 116 145 185 232 281
#
# _framework density 24.463477999999999
#
# number of rings (size 3 to 8) (size 9 to 14) (size 15 to 20)
#    0.000    3.400    0.000    2.400    0.933    2.400 
#    0.000    3.333    0.000    1.200    0.000    0.000 
#    0.000    4.800    0.000    4.800    0.000    5.333 
#
# Total GULP energy -334913.251255 kJ/mol
# GULP energy per Si atom -5581.887521 kJ/mol
# Density = 2.440780 g / cm^3
# Si number density = 24.463478 Si / 1000 Ang^3
#
#
#
# Elastic Constant Matrix: (Units=GPa)
#
#
# Indices 1 2 3 4 5 6 
#
# 1 102.6101 -10.4951 4.5807 0.0000 0.0000 0.0000
# 2 -10.4951 51.0803 -22.2417 0.0000 0.0000 0.0000
# 3 4.5807 -22.2417 95.2110 0.0000 0.0000 0.0000
# 4 0.0000 0.0000 0.0000 2.3217 0.0000 0.0000
# 5 0.0000 0.0000 0.0000 0.0000 -124.5415 0.0000
# 6 0.0000 0.0000 0.0000 0.0000 0.0000 11.6100
#
#
#
# Elastic Compliance Matrix: (Units=1/GPa)
#
#
# Indices 1 2 3 4 5 6 
#
# 1 0.009955 0.002045 -0.000001 0.000000 0.000000 0.000000
# 2 0.002045 0.022214 0.005091 0.000000 0.000000 0.000000
# 3 -0.000001 0.005091 0.011692 0.000000 0.000000 0.000000
# 4 0.000000 0.000000 0.000000 0.430714 0.000000 0.000000
# 5 0.000000 0.000000 0.000000 0.000000 -0.008029 0.000000
# 6 0.000000 0.000000 0.000000 0.000000 0.000000 0.086133
#
#
# Mechanical properties :
#
#
# Convention : Reuss Voigt Hill
#
# Bulk Modulus (GPa) = 17.20290 21.39881 19.30085
# Shear Modulus (GPa) = 8.96402 -3.65147 2.65628
#
# Velocity S-wave (km/s) = 1.91630 -1.22305 1.04315
# Velocity P-wave (km/s) = 3.45595 2.60226 3.05903
#
# Compressibility (1/GPa) = 0.05812975
#
# Stress axis : x y z
#
# Youngs Moduli (GPa) = 100.45380 45.01699 85.52637
#
# Poissons Ratio (x) = -0.09205 0.00011
# Poissons Ratio (y) = -0.20541 -0.43540
# Poissons Ratio (z) = 0.00013 -0.22918
#
# Static dielectric constant tensor:
#      x y z
#    x 1.932030 0.000000 0.000000 
#    y 0.000000 1.957600 0.000000 
#    z 0.000000 0.000000 1.950120 
# 
# From -- ./inp_files/69277.got.cif
#   From: 2010.05.17/outbox.cif.g08.bks.cpg/sg65_35_cif.got.tgz:69277.got - 2010.06.03 17:01:31.
