data_PCOD9488536
_publ_section_title
;
Structure prediction by ZEFSAII (Michael W. Deem and Ramdas Pophale) SiO2 
 PCOD9488536
Probable space group: C M M M
;
_chemical_formula_sum "Si O2"
_cell_formula_units_Z 80
_cell_length_a 18.237919
_cell_length_b 8.010140
_cell_length_c 28.785092
_cell_angle_alpha 90.000000
_cell_angle_beta 90.000000
_cell_angle_gamma 90.000000
_cell_volume 4205.164709
_symmetry_space_group_name_H-M "C M M M"
_symmetry_group_IT_number 65
_symmetry_cell_setting 'orthorhombic'
loop_
_space_group_symop_operation_xyz
x,y,z
-x,-y,z
x,-y,-z
-x,y,-z
-x,-y,-z
x,y,-z
-x,y,z
x,-y,z
1/2+x,1/2+y,z
1/2-x,1/2-y,z
1/2+x,1/2-y,-z
1/2-x,1/2+y,-z
1/2-x,1/2-y,-z
1/2+x,1/2+y,-z
1/2-x,1/2+y,z
1/2+x,1/2-y,z
loop_
_atom_site_type_symbol
_atom_site_label
_atom_site_fract_x
_atom_site_fract_y
_atom_site_fract_z
Si Si1 0.334323 0.798635 0.593228
Si Si2 0.584475 0.204357 0.500000
Si Si3 0.415076 0.798276 0.686063
Si Si4 0.910420 0.684778 0.885489
Si Si5 0.413649 0.302213 0.786360
Si Si6 0.589583 0.500000 0.053498
O O1 0.250000 0.750000 0.591426
O O2 0.375467 0.738880 0.546881
O O3 0.371364 0.738582 0.640978
O O4 0.340025 0.000000 0.593485
O O5 0.500000 0.255114 0.500000
O O6 0.586095 0.000000 0.500000
O O7 0.500000 0.742317 0.682387
O O8 0.383193 0.741054 0.735654
O O9 0.415224 0.000000 0.686250
O O10 0.889578 0.500000 0.901577
O O11 0.884373 0.714056 0.832526
O O12 0.000000 0.691671 0.884169
O O13 0.886712 0.834907 0.918686
O O14 0.500000 0.254493 0.783374
O O15 0.409767 0.500000 0.794145
O O16 0.500000 0.500000 0.053711
O O17 0.612960 0.500000 0.000000
#
# Coordination Sequence:
#
# PCOD9488536 Si02
#       6
#    16   8  16  16  16   8
#     4  10  20  33  50  71  97 127 158 195 240 299
#     4   9  17  32  55  77  94 121 164 208 246 283
#     4   9  17  29  45  66  89 115 153 199 240 284
#     4   9  15  23  35  50  72 105 145 192 243 292
#     4   9  15  24  39  59  82 107 139 187 242 290
#     4   9  16  24  32  46  72 106 150 199 241 289
#
# _framework density 19.024224
#
# number of rings (size 3 to 8) (size 9 to 14) (size 15 to 20)
#    0.000    2.800    1.000    1.500    0.000    6.000 
#    0.000    2.000    0.000    2.400    0.000    0.000 
#    0.000    0.000    0.000    0.000    0.000    1.000 
#
# Total GULP energy -222990.974585 kJ/mol
# GULP energy per Si atom -5574.774365 kJ/mol
# Density = 1.898092 g / cm^3
# Si number density = 19.024224 Si / 1000 Ang^3
#
#
#
# Elastic Constant Matrix: (Units=GPa)
#
#
# Indices 1 2 3 4 5 6 
#
# 1 45.1995 13.0899 43.1338 0.0000 0.0000 0.0000
# 2 13.0899 64.6592 70.6947 0.0000 0.0000 0.0000
# 3 43.1338 70.6947 186.8058 0.0000 0.0000 0.0000
# 4 0.0000 0.0000 0.0000 22.7443 0.0000 0.0000
# 5 0.0000 0.0000 0.0000 0.0000 -4.8112 0.0000
# 6 0.0000 0.0000 0.0000 0.0000 0.0000 12.5792
#
#
#
# Elastic Compliance Matrix: (Units=1/GPa)
#
#
# Indices 1 2 3 4 5 6 
#
# 1 0.028601 0.002440 -0.007527 0.000000 0.000000 0.000000
# 2 0.002440 0.026590 -0.010626 0.000000 0.000000 0.000000
# 3 -0.007527 -0.010626 0.011112 0.000000 0.000000 0.000000
# 4 0.000000 0.000000 0.000000 0.043967 0.000000 0.000000
# 5 0.000000 0.000000 0.000000 0.000000 -0.207850 0.000000
# 6 0.000000 0.000000 0.000000 0.000000 0.000000 0.079496
#
#
# Mechanical properties :
#
#
# Convention : Reuss Voigt Hill
#
# Bulk Modulus (GPa) = 28.67289 61.16682 44.91986
# Shear Modulus (GPa) = 200.25254 17.41886 108.83570
#
# Velocity S-wave (km/s) = 10.27085 3.02920 7.57187
# Velocity P-wave (km/s) = 12.48032 6.66758 10.00537
#
# Compressibility (1/GPa) = 0.03487615
#
# Stress axis : x y z
#
# Youngs Moduli (GPa) = 34.96395 37.60877 89.98880
#
# Poissons Ratio (x) = -0.09176 0.67738
# Poissons Ratio (y) = -0.08531 0.95621
# Poissons Ratio (z) = 0.26319 0.39963
#
# Static dielectric constant tensor:
#      x y z
#    x 1.619490 0.000000 0.000000 
#    y 0.000000 1.681080 0.000000 
#    z 0.000000 0.000000 1.675890 
# 
# From -- ./inp_files/75299.got.cif
#   From: 2010.05.17/outbox.cif.g08.bks.cpg/sg65_38_cif.got.tgz:75299.got - 2010.06.03 17:01:31.
