data_PCOD9488292
_publ_section_title
;
Structure prediction by ZEFSAII (Michael W. Deem and Ramdas Pophale) SiO2 
 PCOD9488292
Probable space group: C M M M
;
_chemical_formula_sum "Si O2"
_cell_formula_units_Z 88
_cell_length_a 19.646870
_cell_length_b 13.875102
_cell_length_c 18.569140
_cell_angle_alpha 90.000000
_cell_angle_beta 90.000000
_cell_angle_gamma 90.000000
_cell_volume 5061.990742
_symmetry_space_group_name_H-M "C M M M"
_symmetry_group_IT_number 65
_symmetry_cell_setting 'orthorhombic'
loop_
_space_group_symop_operation_xyz
x,y,z
-x,-y,z
x,-y,-z
-x,y,-z
-x,-y,-z
x,y,-z
-x,y,z
x,-y,z
1/2+x,1/2+y,z
1/2-x,1/2-y,z
1/2+x,1/2-y,-z
1/2-x,1/2+y,-z
1/2-x,1/2-y,-z
1/2+x,1/2+y,-z
1/2-x,1/2+y,z
1/2+x,1/2-y,z
loop_
_atom_site_type_symbol
_atom_site_label
_atom_site_fract_x
_atom_site_fract_y
_atom_site_fract_z
Si Si1 0.343435 0.611635 0.083325
Si Si2 0.920914 0.102986 0.219132
Si Si3 0.581975 0.249896 0.658782
Si Si4 0.698021 0.885917 0.695348
Si Si5 0.819987 0.886807 0.418047
Si Si6 0.750000 0.750000 0.178395
O O1 0.318580 0.500000 0.085889
O O2 0.409502 0.614647 0.134424
O O3 0.295577 0.685461 0.125288
O O4 0.353978 0.636159 0.000000
O O5 0.898849 0.191102 0.267991
O O6 0.000000 0.095721 0.234370
O O7 0.887340 0.000000 0.239677
O O8 0.500000 0.238141 0.653163
O O9 0.626808 0.153482 0.663271
O O10 0.615525 0.319249 0.598992
O O11 0.759112 0.866945 0.638271
O O12 0.714915 0.827048 0.767900
O O13 0.695356 0.000000 0.708462
O O14 0.796623 0.870938 0.500000
O O15 0.838421 0.000000 0.411016
#
# Coordination Sequence:
#
# PCOD9488292 Si02
#       6
#    16  16  16  16  16   8
#     4  10  20  32  50  79 111 139 172 220 280 337
#     4   9  17  31  52  76 104 139 179 218 263 327
#     4  11  21  35  55  82 114 149 185 228 280 330
#     4  11  22  37  59  83 107 146 193 235 275 327
#     4  10  21  38  60  86 114 145 186 232 277 331
#     4  12  19  36  55  78 104 142 184 234 275 326
#
# _framework density 17.384464999999999
#
# number of rings (size 3 to 8) (size 9 to 14) (size 15 to 20)
#    0.000    1.636    3.636    1.364    0.000    6.545 
#    0.000    2.727    0.000    0.000    0.000    3.818 
#    0.000    2.909    0.000    0.000    0.000    0.000 
#
# Total GULP energy -245081.580941 kJ/mol
# GULP energy per Si atom -5570.035930 kJ/mol
# Density = 1.734490 g / cm^3
# Si number density = 17.384465 Si / 1000 Ang^3
#
#
#
# Elastic Constant Matrix: (Units=GPa)
#
#
# Indices 1 2 3 4 5 6 
#
# 1 62.1829 31.1436 8.6036 0.0000 0.0000 0.0000
# 2 31.1436 92.8526 23.0646 0.0000 0.0000 0.0000
# 3 8.6036 23.0646 90.7738 0.0000 0.0000 0.0000
# 4 0.0000 0.0000 0.0000 17.8130 0.0000 0.0000
# 5 0.0000 0.0000 0.0000 0.0000 20.2813 0.0000
# 6 0.0000 0.0000 0.0000 0.0000 0.0000 14.7508
#
#
#
# Elastic Compliance Matrix: (Units=1/GPa)
#
#
# Indices 1 2 3 4 5 6 
#
# 1 0.019332 -0.006435 -0.000197 0.000000 0.000000 0.000000
# 2 -0.006435 0.013637 -0.002855 0.000000 0.000000 0.000000
# 3 -0.000197 -0.002855 0.011761 0.000000 0.000000 0.000000
# 4 0.000000 0.000000 0.000000 0.056139 0.000000 0.000000
# 5 0.000000 0.000000 0.000000 0.000000 0.049307 0.000000
# 6 0.000000 0.000000 0.000000 0.000000 0.000000 0.067793
#
#
# Mechanical properties :
#
#
# Convention : Reuss Voigt Hill
#
# Bulk Modulus (GPa) = 38.82771 41.27034 40.04903
# Shear Modulus (GPa) = 20.36429 22.76884 21.56657
#
# Velocity S-wave (km/s) = 3.42630 3.62294 3.52599
# Velocity P-wave (km/s) = 6.16732 6.42590 6.29794
#
# Compressibility (1/GPa) = 0.02575480
#
# Stress axis : x y z
#
# Youngs Moduli (GPa) = 51.72821 73.32790 85.03000
#
# Poissons Ratio (x) = 0.47187 0.01677
# Poissons Ratio (y) = 0.33288 0.24278
# Poissons Ratio (z) = 0.01020 0.20936
#
# Static dielectric constant tensor:
#      x y z
#    x 1.620210 0.000000 0.000000 
#    y 0.000000 1.633010 0.000000 
#    z 0.000000 0.000000 1.592720 
# 
# From -- ./inp_files/40239.got.cif
#   From: 2010.05.17/outbox.cif.g08.bks.cpg/sg65_21_cif.got.tgz:40239.got - 2010.06.03 17:01:31.
