data_PCOD9488929
_publ_section_title
;
Structure prediction by ZEFSAII (Michael W. Deem and Ramdas Pophale) SiO2 
 PCOD9488929
Probable space group: C M M M
;
_chemical_formula_sum "Si O2"
_cell_formula_units_Z 112
_cell_length_a 15.092307
_cell_length_b 14.421665
_cell_length_c 24.249956
_cell_angle_alpha 90.000000
_cell_angle_beta 90.000000
_cell_angle_gamma 90.000000
_cell_volume 5278.153167
_symmetry_space_group_name_H-M "C M M M"
_symmetry_group_IT_number 65
_symmetry_cell_setting 'orthorhombic'
loop_
_space_group_symop_operation_xyz
x,y,z
-x,-y,z
x,-y,-z
-x,y,-z
-x,-y,-z
x,y,-z
-x,y,z
x,-y,z
1/2+x,1/2+y,z
1/2-x,1/2-y,z
1/2+x,1/2-y,-z
1/2-x,1/2+y,-z
1/2-x,1/2-y,-z
1/2+x,1/2+y,-z
1/2-x,1/2+y,z
1/2+x,1/2-y,z
loop_
_atom_site_type_symbol
_atom_site_label
_atom_site_fract_x
_atom_site_fract_y
_atom_site_fract_z
Si Si1 0.140164 0.398421 0.343064
Si Si2 0.223087 0.141730 0.438176
Si Si3 0.395524 0.302441 0.837908
Si Si4 0.405799 0.309603 0.645414
Si Si5 0.710442 0.609694 0.936581
Si Si6 0.213337 0.108846 0.740099
Si Si7 0.101171 0.605160 0.878720
O O1 0.096884 0.500000 0.343364
O O2 0.213197 0.402060 0.392380
O O3 0.092625 0.302028 0.356234
O O4 0.186531 0.386744 0.282988
O O5 0.229117 0.105128 0.500000
O O6 0.250000 0.250000 0.439881
O O7 0.125815 0.145753 0.411792
O O8 0.500000 0.329727 0.830416
O O9 0.355896 0.335162 0.896697
O O10 0.325679 0.345516 0.794916
O O11 0.392970 0.190664 0.836737
O O12 0.500000 0.346411 0.662491
O O13 0.336893 0.338574 0.691354
O O14 0.689741 0.500000 0.931588
O O15 0.813918 0.618412 0.918483
O O16 0.700682 0.637943 0.000000
O O17 0.191187 0.000000 0.742001
O O18 0.109862 0.500000 0.855938
O O19 0.000000 0.611015 0.902691
#
# Coordination Sequence:
#
# PCOD9488929 Si02
#       7
#    16  16  16  16  16  16  16
#     4   9  19  35  55  79 107 144 187 228 271 322
#     4   8  15  30  51  73 101 141 185 222 257 306
#     4  11  23  38  60  87 113 146 186 229 282 340
#     4  10  20  33  52  81 114 143 175 223 281 334
#     4  10  22  39  59  85 116 149 185 228 279 333
#     4  10  21  39  60  78 102 140 186 229 267 318
#     4   9  20  39  60  83 112 146 186 229 272 326
#
# _framework density 21.219543000000002
#
# number of rings (size 3 to 8) (size 9 to 14) (size 15 to 20)
#    0.000    2.429    0.000    2.571    0.000    6.857 
#    0.000    5.714    0.000    1.714    0.000    8.000 
#    0.000    0.000    0.000    0.000    0.000    0.000 
#
# Total GULP energy -311985.053418 kJ/mol
# GULP energy per Si atom -5571.161668 kJ/mol
# Density = 2.117125 g / cm^3
# Si number density = 21.219543 Si / 1000 Ang^3
#
#
#
# Elastic Constant Matrix: (Units=GPa)
#
#
# Indices 1 2 3 4 5 6 
#
# 1 78.0651 25.5661 26.6458 0.0000 0.0000 0.0000
# 2 25.5661 86.8293 50.2027 0.0000 0.0000 0.0000
# 3 26.6458 50.2027 97.5095 0.0000 0.0000 0.0000
# 4 0.0000 0.0000 0.0000 358.8444 0.0000 0.0000
# 5 0.0000 0.0000 0.0000 0.0000 -95.1057 0.0000
# 6 0.0000 0.0000 0.0000 0.0000 0.0000 7.0314
#
#
#
# Elastic Compliance Matrix: (Units=1/GPa)
#
#
# Indices 1 2 3 4 5 6 
#
# 1 0.014602 -0.002837 -0.002530 0.000000 0.000000 0.000000
# 2 -0.002837 0.016949 -0.007951 0.000000 0.000000 0.000000
# 3 -0.002530 -0.007951 0.015040 0.000000 0.000000 0.000000
# 4 0.000000 0.000000 0.000000 0.002787 0.000000 0.000000
# 5 0.000000 0.000000 0.000000 0.000000 -0.010515 0.000000
# 6 0.000000 0.000000 0.000000 0.000000 0.000000 0.142219
#
#
# Mechanical properties :
#
#
# Convention : Reuss Voigt Hill
#
# Bulk Modulus (GPa) = 50.10895 51.91477 51.01186
# Shear Modulus (GPa) = 23.32404 64.81999 44.07201
#
# Velocity S-wave (km/s) = 3.31898 5.53296 4.56231
# Velocity P-wave (km/s) = 6.19300 8.08312 7.20035
#
# Compressibility (1/GPa) = 0.01995651
#
# Stress axis : x y z
#
# Youngs Moduli (GPa) = 68.48210 58.99952 66.48805
#
# Poissons Ratio (x) = 0.16738 0.16820
# Poissons Ratio (y) = 0.19428 0.52865
# Poissons Ratio (z) = 0.17324 0.46911
#
# Static dielectric constant tensor:
#      x y z
#    x 1.743070 0.000000 0.000000 
#    y 0.000000 1.803830 0.000000 
#    z 0.000000 0.000000 1.759580 
# 
# From -- ./inp_files/69963.got.cif
#   From: 2010.05.17/outbox.cif.g08.bks.cpg/sg65_35_cif.got.tgz:69963.got - 2010.06.03 17:01:31.
