data_PCOD9488980
_publ_section_title
;
Structure prediction by ZEFSAII (Michael W. Deem and Ramdas Pophale) SiO2 
 PCOD9488980
Probable space group: C M M M
;
_chemical_formula_sum "Si O2"
_cell_formula_units_Z 88
_cell_length_a 19.030664
_cell_length_b 14.771121
_cell_length_c 15.024987
_cell_angle_alpha 90.000000
_cell_angle_beta 90.000000
_cell_angle_gamma 90.000000
_cell_volume 4223.587561
_symmetry_space_group_name_H-M "C M M M"
_symmetry_group_IT_number 65
_symmetry_cell_setting 'orthorhombic'
loop_
_space_group_symop_operation_xyz
x,y,z
-x,-y,z
x,-y,-z
-x,y,-z
-x,-y,-z
x,y,-z
-x,y,z
x,-y,z
1/2+x,1/2+y,z
1/2-x,1/2-y,z
1/2+x,1/2-y,-z
1/2-x,1/2+y,-z
1/2-x,1/2-y,-z
1/2+x,1/2+y,-z
1/2-x,1/2+y,z
1/2+x,1/2-y,z
loop_
_atom_site_type_symbol
_atom_site_label
_atom_site_fract_x
_atom_site_fract_y
_atom_site_fract_z
Si Si1 0.237672 0.141179 0.097537
Si Si2 0.263821 0.400206 0.711420
Si Si3 0.623433 0.101469 0.395066
Si Si4 0.894464 0.224464 0.289457
Si Si5 0.000000 0.107454 0.397186
Si Si6 0.077748 0.169524 0.098706
O O1 0.250000 0.250000 0.098503
O O2 0.269497 0.104706 0.189095
O O3 0.153305 0.118847 0.102868
O O4 0.262294 0.109845 0.000000
O O5 0.298709 0.500000 0.704510
O O6 0.204751 0.396452 0.636321
O O7 0.315512 0.314756 0.707232
O O8 0.616963 0.117965 0.500000
O O9 0.591187 0.182347 0.338918
O O10 0.596862 0.000000 0.376332
O O11 0.935383 0.147469 0.342891
O O12 0.917381 0.229693 0.186835
O O13 0.000000 0.137798 0.500000
O O14 0.000000 0.000000 0.396010
O O15 0.000000 0.123187 0.103669
O O16 0.079658 0.213006 0.000000
#
# Coordination Sequence:
#
# PCOD9488980 Si02
#       6
#    16  16  16  16   8  16
#     4   9  17  30  50  77 110 148 191 239 290 343
#     4  10  20  33  53  82 113 147 187 230 282 345
#     4  10  22  39  59  84 111 142 190 244 289 344
#     4  11  20  37  59  81 111 154 187 232 290 345
#     4  11  24  38  54  82 116 149 190 236 282 340
#     4   9  17  31  54  82 111 149 193 233 279 343
#
# _framework density 20.835367999999999
#
# number of rings (size 3 to 8) (size 9 to 14) (size 15 to 20)
#    0.000    2.091    0.909    3.818    0.000    2.545 
#    0.000    2.273    0.000    5.455    0.000    1.273 
#    0.000    0.000    0.000    0.000    0.000    0.000 
#
# Total GULP energy -245029.751538 kJ/mol
# GULP energy per Si atom -5568.857990 kJ/mol
# Density = 2.078795 g / cm^3
# Si number density = 20.835368 Si / 1000 Ang^3
#
#
#
# Elastic Constant Matrix: (Units=GPa)
#
#
# Indices 1 2 3 4 5 6 
#
# 1 44.9117 0.1963 -4.0018 0.0000 0.0000 0.0000
# 2 0.1963 92.4361 51.8413 0.0000 0.0000 0.0000
# 3 -4.0018 51.8413 149.4079 0.0000 0.0000 0.0000
# 4 0.0000 0.0000 0.0000 4.0406 0.0000 0.0000
# 5 0.0000 0.0000 0.0000 0.0000 29.2643 0.0000
# 6 0.0000 0.0000 0.0000 0.0000 0.0000 14.8806
#
#
#
# Elastic Compliance Matrix: (Units=1/GPa)
#
#
# Indices 1 2 3 4 5 6 
#
# 1 0.022336 -0.000475 0.000763 0.000000 0.000000 0.000000
# 2 -0.000475 0.013442 -0.004677 0.000000 0.000000 0.000000
# 3 0.000763 -0.004677 0.008336 0.000000 0.000000 0.000000
# 4 0.000000 0.000000 0.000000 0.247488 0.000000 0.000000
# 5 0.000000 0.000000 0.000000 0.000000 0.034171 0.000000
# 6 0.000000 0.000000 0.000000 0.000000 0.000000 0.067202
#
#
# Mechanical properties :
#
#
# Convention : Reuss Voigt Hill
#
# Bulk Modulus (GPa) = 28.29954 42.53637 35.41796
# Shear Modulus (GPa) = 12.09096 25.55178 18.82137
#
# Velocity S-wave (km/s) = 2.41157 3.50575 3.00882
# Velocity P-wave (km/s) = 4.62236 6.07016 5.39504
#
# Compressibility (1/GPa) = 0.03533626
#
# Stress axis : x y z
#
# Youngs Moduli (GPa) = 44.77082 74.39222 119.95702
#
# Poissons Ratio (x) = 0.03537 -0.09156
# Poissons Ratio (y) = 0.02129 0.56103
# Poissons Ratio (z) = -0.03417 0.34793
#
# Static dielectric constant tensor:
#      x y z
#    x 1.852710 0.000000 0.000000 
#    y 0.000000 1.776650 0.000000 
#    z 0.000000 0.000000 1.739520 
# 
# From -- ./inp_files/43999.got.cif
#   From: 2010.05.17/outbox.cif.g08.bks.cpg/sg65_22_cif.got.tgz:43999.got - 2010.06.03 17:01:31.
