data_PCOD9488301
_publ_section_title
;
Structure prediction by ZEFSAII (Michael W. Deem and Ramdas Pophale) SiO2 
 PCOD9488301
Probable space group: C M M M
;
_chemical_formula_sum "Si O2"
_cell_formula_units_Z 72
_cell_length_a 17.667642
_cell_length_b 7.646241
_cell_length_c 28.296487
_cell_angle_alpha 90.000000
_cell_angle_beta 90.000000
_cell_angle_gamma 90.000000
_cell_volume 3822.602101
_symmetry_space_group_name_H-M "C M M M"
_symmetry_group_IT_number 65
_symmetry_cell_setting 'orthorhombic'
loop_
_space_group_symop_operation_xyz
x,y,z
-x,-y,z
x,-y,-z
-x,y,-z
-x,-y,-z
x,y,-z
-x,y,z
x,-y,z
1/2+x,1/2+y,z
1/2-x,1/2-y,z
1/2+x,1/2-y,-z
1/2-x,1/2+y,-z
1/2-x,1/2-y,-z
1/2+x,1/2+y,-z
1/2-x,1/2+y,z
1/2+x,1/2-y,z
loop_
_atom_site_type_symbol
_atom_site_label
_atom_site_fract_x
_atom_site_fract_y
_atom_site_fract_z
Si Si1 0.161800 0.790601 0.097120
Si Si2 0.412378 0.286079 0.000000
Si Si3 0.407808 0.700564 0.553197
Si Si4 0.592667 0.000000 0.375945
Si Si5 0.092283 0.500000 0.267691
Si Si6 0.908762 0.202870 0.195546
O O1 0.250000 0.750000 0.098378
O O2 0.126712 0.723415 0.048160
O O3 0.122818 0.729880 0.145461
O O4 0.150720 0.000000 0.096772
O O5 0.408186 0.500000 0.000000
O O6 0.500000 0.238093 0.000000
O O7 0.384862 0.754741 0.500000
O O8 0.500000 0.702717 0.553345
O O9 0.384468 0.500000 0.560837
O O10 0.382824 0.831390 0.593947
O O11 0.500000 0.000000 0.375298
O O12 0.618154 0.000000 0.321798
O O13 0.115526 0.670815 0.237964
O O14 0.000000 0.500000 0.268580
O O15 0.000000 0.205948 0.193020
O O16 0.885656 0.000000 0.202541
#
# Coordination Sequence:
#
# PCOD9488301 Si02
#       6
#    16   8  16   8   8  16
#     4  10  20  32  51  75  97 125 156 196 242 287
#     4   9  17  32  53  75 100 129 160 190 233 295
#     4   8  13  20  30  46  72 108 148 189 231 277
#     4   9  15  22  33  52  75 104 147 195 241 277
#     4   9  18  29  44  64  86 117 156 205 249 279
#     4   9  18  33  50  67  90 123 161 197 240 292
#
# _framework density 18.835336999999999
#
# number of rings (size 3 to 8) (size 9 to 14) (size 15 to 20)
#    0.000    3.000    0.000    2.000    1.556    4.889 
#    0.000    4.444    0.000    0.667    0.000    0.000 
#    0.000    0.000    0.000    0.000    0.000    4.444 
#
# Total GULP energy -200705.381680 kJ/mol
# GULP energy per Si atom -5575.149491 kJ/mol
# Density = 1.879247 g / cm^3
# Si number density = 18.835337 Si / 1000 Ang^3
#
#
#
# Elastic Constant Matrix: (Units=GPa)
#
#
# Indices 1 2 3 4 5 6 
#
# 1 18.5803 14.8527 31.7400 0.0000 0.0000 0.0000
# 2 14.8527 88.0001 96.4302 0.0000 0.0000 0.0000
# 3 31.7400 96.4302 227.7800 0.0000 0.0000 0.0000
# 4 0.0000 0.0000 0.0000 4.8463 0.0000 0.0000
# 5 0.0000 0.0000 0.0000 0.0000 -4.9517 0.0000
# 6 0.0000 0.0000 0.0000 0.0000 0.0000 11.3399
#
#
#
# Elastic Compliance Matrix: (Units=1/GPa)
#
#
# Indices 1 2 3 4 5 6 
#
# 1 0.070847 -0.002126 -0.008972 0.000000 0.000000 0.000000
# 2 -0.002126 0.021261 -0.008704 0.000000 0.000000 0.000000
# 3 -0.008972 -0.008704 0.009325 0.000000 0.000000 0.000000
# 4 0.000000 0.000000 0.000000 0.206342 0.000000 0.000000
# 5 0.000000 0.000000 0.000000 0.000000 -0.201951 0.000000
# 6 0.000000 0.000000 0.000000 0.000000 0.000000 0.088184
#
#
# Mechanical properties :
#
#
# Convention : Reuss Voigt Hill
#
# Bulk Modulus (GPa) = 16.17398 68.93404 42.55401
# Shear Modulus (GPa) = 19.66783 15.00274 17.33529
#
# Velocity S-wave (km/s) = 3.23491 2.82533 3.03703
# Velocity P-wave (km/s) = 4.74958 6.87903 5.91099
#
# Compressibility (1/GPa) = 0.06182770
#
# Stress axis : x y z
#
# Youngs Moduli (GPa) = 14.11502 47.03501 107.23368
#
# Poissons Ratio (x) = 0.09999 0.96211
# Poissons Ratio (y) = 0.03001 0.93341
# Poissons Ratio (z) = 0.12664 0.40941
#
# Static dielectric constant tensor:
#      x y z
#    x 1.611620 0.000000 0.000000 
#    y 0.000000 1.684050 0.000000 
#    z 0.000000 0.000000 1.642370 
# 
# From -- ./inp_files/70391.got.cif
#   From: 2010.05.17/outbox.cif.g08.bks.cpg/sg65_36_cif.got.tgz:70391.got - 2010.06.03 17:01:31.
