data_PCOD9488972
_publ_section_title
;
Structure prediction by ZEFSAII (Michael W. Deem and Ramdas Pophale) SiO2 
 PCOD9488972
Probable space group: C M M M
;
_chemical_formula_sum "Si O2"
_cell_formula_units_Z 88
_cell_length_a 27.770551
_cell_length_b 8.430908
_cell_length_c 22.675145
_cell_angle_alpha 90.000000
_cell_angle_beta 90.000000
_cell_angle_gamma 90.000000
_cell_volume 5308.953480
_symmetry_space_group_name_H-M "C M M M"
_symmetry_group_IT_number 65
_symmetry_cell_setting 'orthorhombic'
loop_
_space_group_symop_operation_xyz
x,y,z
-x,-y,z
x,-y,-z
-x,y,-z
-x,-y,-z
x,y,-z
-x,y,z
x,-y,z
1/2+x,1/2+y,z
1/2-x,1/2-y,z
1/2+x,1/2-y,-z
1/2-x,1/2+y,-z
1/2-x,1/2-y,-z
1/2+x,1/2+y,-z
1/2-x,1/2+y,z
1/2+x,1/2-y,z
loop_
_atom_site_type_symbol
_atom_site_label
_atom_site_fract_x
_atom_site_fract_y
_atom_site_fract_z
Si Si1 0.695849 0.188984 0.934547
Si Si2 0.197598 0.312203 0.300537
Si Si3 0.943220 0.000000 0.429378
Si Si4 0.445683 0.186685 0.236332
Si Si5 0.401088 0.811960 0.634030
Si Si6 0.649526 0.685171 0.182150
O O1 0.750000 0.250000 0.924552
O O2 0.663523 0.240323 0.880024
O O3 0.697219 0.000000 0.935756
O O4 0.680457 0.246050 0.000000
O O5 0.200016 0.500000 0.295073
O O6 0.250000 0.250000 0.317876
O O7 0.154169 0.278613 0.346193
O O8 0.181795 0.247651 0.236568
O O9 0.919614 0.165015 0.405526
O O10 0.939636 0.000000 0.500000
O O11 0.000000 0.000000 0.412836
O O12 0.500000 0.242976 0.227156
O O13 0.431589 0.196915 0.305277
O O14 0.405171 0.276931 0.200027
O O15 0.442834 0.000000 0.221027
O O16 0.404513 0.000000 0.613644
O O17 0.657586 0.500000 0.177966
#
# Coordination Sequence:
#
# PCOD9488972 Si02
#       6
#    16  16   8  16  16  16
#     4  10  20  34  51  69  94 132 172 211 256 307
#     4  10  20  33  53  81 108 141 177 217 271 321
#     4  11  24  38  58  86 112 146 187 227 270 318
#     4   9  18  33  53  76 103 135 171 214 266 318
#     4   9  20  37  56  82 114 146 179 224 273 324
#     4  11  21  31  47  74 108 136 168 214 261 314
#
# _framework density 16.575771
#
# number of rings (size 3 to 8) (size 9 to 14) (size 15 to 20)
#    0.000    2.091    0.000    4.909    6.364    2.909 
#    0.000    0.909    0.000    1.091    0.000    3.818 
#    0.000    0.000    0.000    0.000    0.000    0.000 
#
# Total GULP energy -245317.988294 kJ/mol
# GULP energy per Si atom -5575.408825 kJ/mol
# Density = 1.653804 g / cm^3
# Si number density = 16.575771 Si / 1000 Ang^3
#
#
#
# Elastic Constant Matrix: (Units=GPa)
#
#
# Indices 1 2 3 4 5 6 
#
# 1 106.4868 52.3351 40.5548 0.0000 0.0000 0.0000
# 2 52.3351 101.3694 54.7742 0.0000 0.0000 0.0000
# 3 40.5548 54.7742 70.5283 0.0000 0.0000 0.0000
# 4 0.0000 0.0000 0.0000 25.5516 0.0000 0.0000
# 5 0.0000 0.0000 0.0000 0.0000 13.8821 0.0000
# 6 0.0000 0.0000 0.0000 0.0000 0.0000 28.3183
#
#
#
# Elastic Compliance Matrix: (Units=1/GPa)
#
#
# Indices 1 2 3 4 5 6 
#
# 1 0.013195 -0.004674 -0.003957 0.000000 0.000000 0.000000
# 2 -0.004674 0.018654 -0.011799 0.000000 0.000000 0.000000
# 3 -0.003957 -0.011799 0.025618 0.000000 0.000000 0.000000
# 4 0.000000 0.000000 0.000000 0.039137 0.000000 0.000000
# 5 0.000000 0.000000 0.000000 0.000000 0.072035 0.000000
# 6 0.000000 0.000000 0.000000 0.000000 0.000000 0.035313
#
#
# Mechanical properties :
#
#
# Convention : Reuss Voigt Hill
#
# Bulk Modulus (GPa) = 60.22195 63.74583 61.98389
# Shear Modulus (GPa) = 19.97219 22.26509 21.11864
#
# Velocity S-wave (km/s) = 3.47494 3.66899 3.57328
# Velocity P-wave (km/s) = 7.24641 7.51594 7.38240
#
# Compressibility (1/GPa) = 0.01660524
#
# Stress axis : x y z
#
# Youngs Moduli (GPa) = 75.78548 53.60858 39.03510
#
# Poissons Ratio (x) = 0.25057 0.15448
# Poissons Ratio (y) = 0.35422 0.46059
# Poissons Ratio (z) = 0.29991 0.63255
#
# Static dielectric constant tensor:
#      x y z
#    x 1.564650 0.000000 0.000000 
#    y 0.000000 1.590250 0.000000 
#    z 0.000000 0.000000 1.556080 
# 
# From -- ./inp_files/65747.got.cif
#   From: 2010.05.17/outbox.cif.g08.bks.cpg/sg65_33_cif.got.tgz:65747.got - 2010.06.03 17:01:31.
