data_PCOD9488332
_publ_section_title
;
Structure prediction by ZEFSAII (Michael W. Deem and Ramdas Pophale) SiO2 
 PCOD9488332
Probable space group: C M M M
;
_chemical_formula_sum "Si O2"
_cell_formula_units_Z 72
_cell_length_a 17.625427
_cell_length_b 25.115930
_cell_length_c 7.685455
_cell_angle_alpha 90.000000
_cell_angle_beta 90.000000
_cell_angle_gamma 90.000000
_cell_volume 3402.189463
_symmetry_space_group_name_H-M "C M M M"
_symmetry_group_IT_number 65
_symmetry_cell_setting 'orthorhombic'
loop_
_space_group_symop_operation_xyz
x,y,z
-x,-y,z
x,-y,-z
-x,y,-z
-x,-y,-z
x,y,-z
-x,y,z
x,-y,z
1/2+x,1/2+y,z
1/2-x,1/2-y,z
1/2+x,1/2-y,-z
1/2-x,1/2+y,-z
1/2-x,1/2-y,-z
1/2+x,1/2+y,-z
1/2-x,1/2+y,z
1/2+x,1/2-y,z
loop_
_atom_site_type_symbol
_atom_site_label
_atom_site_fract_x
_atom_site_fract_y
_atom_site_fract_z
Si Si1 0.871744 0.144013 0.709280
Si Si2 0.701509 0.847770 0.296010
Si Si3 0.085405 0.561380 0.210426
Si Si4 0.416469 0.238203 0.286984
Si Si5 0.500000 0.559808 0.205441
O O1 0.869774 0.145885 0.500000
O O2 0.785290 0.141590 0.776225
O O3 0.905864 0.200660 0.767137
O O4 0.926005 0.094816 0.750908
O O5 0.712439 0.835342 0.500000
O O6 0.648510 0.899181 0.279715
O O7 0.652136 0.798746 0.223090
O O8 0.098254 0.500000 0.261451
O O9 0.000000 0.576499 0.266748
O O10 0.086969 0.563468 0.000000
O O11 0.415350 0.236884 0.500000
O O12 0.500000 0.218821 0.232583
O O13 0.500000 0.500000 0.282288
O O14 0.500000 0.554374 0.000000
#
# Coordination Sequence:
#
# PCOD9488332 Si02
#       5
#    16  16  16  16   8
#     4  10  20  37  59  83 112 145 181 225 279 338
#     4  10  20  32  54  88 116 139 178 230 279 330
#     4   9  19  36  54  72 103 149 191 224 267 326
#     4   9  16  30  55  84 114 146 178 215 268 329
#     4  11  25  43  61  81 107 145 194 243 286 327
#
# _framework density 21.162842000000001
#
# number of rings (size 3 to 8) (size 9 to 14) (size 15 to 20)
#    0.000    2.333    1.111    2.333    0.000    7.111 
#    0.000    6.667    0.000    2.667    0.000    0.000 
#    0.000    0.000    0.000    0.000    0.000    0.000 
#
# Total GULP energy -201003.812933 kJ/mol
# GULP energy per Si atom -5583.439248 kJ/mol
# Density = 2.111467 g / cm^3
# Si number density = 21.162842 Si / 1000 Ang^3
#
#
#
# Elastic Constant Matrix: (Units=GPa)
#
#
# Indices 1 2 3 4 5 6 
#
# 1 200.5163 105.0395 8.2587 0.0000 0.0000 0.0000
# 2 105.0395 146.7433 2.1857 0.0000 0.0000 0.0000
# 3 8.2587 2.1857 36.3718 0.0000 0.0000 0.0000
# 4 0.0000 0.0000 0.0000 35.5141 0.0000 0.0000
# 5 0.0000 0.0000 0.0000 0.0000 -9.3183 0.0000
# 6 0.0000 0.0000 0.0000 0.0000 0.0000 0.1647
#
#
#
# Elastic Compliance Matrix: (Units=1/GPa)
#
#
# Indices 1 2 3 4 5 6 
#
# 1 0.008058 -0.005746 -0.001484 0.000000 0.000000 0.000000
# 2 -0.005746 0.010918 0.000649 0.000000 0.000000 0.000000
# 3 -0.001484 0.000649 0.027792 0.000000 0.000000 0.000000
# 4 0.000000 0.000000 0.000000 0.028158 0.000000 0.000000
# 5 0.000000 0.000000 0.000000 0.000000 -0.107316 0.000000
# 6 0.000000 0.000000 0.000000 0.000000 0.000000 6.069995
#
#
# Mechanical properties :
#
#
# Convention : Reuss Voigt Hill
#
# Bulk Modulus (GPa) = 29.75798 68.28881 49.02340
# Shear Modulus (GPa) = 0.82481 23.14861 11.98671
#
# Velocity S-wave (km/s) = 0.62497 3.31090 2.38251
# Velocity P-wave (km/s) = 3.82266 6.85233 5.54829
#
# Compressibility (1/GPa) = 0.03360443
#
# Stress axis : x y z
#
# Youngs Moduli (GPa) = 124.09535 91.59165 35.98172
#
# Poissons Ratio (x) = 0.52629 0.05341
# Poissons Ratio (y) = 0.71306 -0.02334
# Poissons Ratio (z) = 0.18421 -0.05941
#
# Static dielectric constant tensor:
#      x y z
#    x 1.773650 0.000000 0.000000 
#    y 0.000000 1.749410 0.000000 
#    z 0.000000 0.000000 1.792680 
# 
# From -- ./inp_files/7327.got.cif
#   From: 2010.05.17/outbox.cif.g08.bks.cpg/sg65_4_cif.got.tgz:7327.got - 2010.06.03 17:01:31.
