data_PCOD9488324
_publ_section_title
;
Structure prediction by ZEFSAII (Michael W. Deem and Ramdas Pophale) SiO2 
 PCOD9488324
Probable space group: C M M M
;
_chemical_formula_sum "Si O2"
_cell_formula_units_Z 104
_cell_length_a 20.448859
_cell_length_b 15.076028
_cell_length_c 18.826249
_cell_angle_alpha 90.000000
_cell_angle_beta 90.000000
_cell_angle_gamma 90.000000
_cell_volume 5803.898572
_symmetry_space_group_name_H-M "C M M M"
_symmetry_group_IT_number 65
_symmetry_cell_setting 'orthorhombic'
loop_
_space_group_symop_operation_xyz
x,y,z
-x,-y,z
x,-y,-z
-x,y,-z
-x,-y,-z
x,y,-z
-x,y,z
x,-y,z
1/2+x,1/2+y,z
1/2-x,1/2-y,z
1/2+x,1/2-y,-z
1/2-x,1/2+y,-z
1/2-x,1/2-y,-z
1/2+x,1/2+y,-z
1/2-x,1/2+y,z
1/2+x,1/2-y,z
loop_
_atom_site_type_symbol
_atom_site_label
_atom_site_fract_x
_atom_site_fract_y
_atom_site_fract_z
Si Si1 0.810959 0.183640 0.421500
Si Si2 0.251919 0.107514 0.874508
Si Si3 0.193543 0.102947 0.729715
Si Si4 0.920536 0.500000 0.418436
Si Si5 0.923650 0.310525 0.364992
Si Si6 0.643782 0.749383 0.080664
Si Si7 0.072905 0.219963 0.220717
O O1 0.818050 0.141602 0.500000
O O2 0.750000 0.250000 0.425353
O O3 0.795292 0.125015 0.352392
O O4 0.876565 0.239404 0.402654
O O5 0.248452 0.125521 0.788948
O O6 0.312188 0.162592 0.906532
O O7 0.189501 0.161747 0.905958
O O8 0.251657 0.000000 0.886626
O O9 0.128601 0.152619 0.754949
O O10 0.182358 0.000000 0.737268
O O11 0.899816 0.500000 0.500000
O O12 0.899390 0.408675 0.383204
O O13 0.000000 0.500000 0.416122
O O14 0.922442 0.296051 0.280421
O O15 0.000000 0.300612 0.387858
O O16 0.589309 0.749097 0.141365
O O17 0.620387 0.747624 0.000000
O O18 0.000000 0.182235 0.225265
#
# Coordination Sequence:
#
# PCOD9488324 Si02
#       7
#    16  16  16   8  16  16  16
#     4  10  21  34  49  74 110 144 173 215 269 320
#     4   9  18  33  54  78 103 134 173 217 262 310
#     4   9  19  34  55  77  99 136 178 216 258 310
#     4   9  16  28  50  78 101 121 164 224 261 295
#     4   9  18  34  55  74  98 138 180 215 257 311
#     4  10  20  32  52  80 105 133 171 215 263 318
#     4   9  19  35  53  73 102 137 172 214 257 308
#
# _framework density 17.918990999999998
#
# number of rings (size 3 to 8) (size 9 to 14) (size 15 to 20)
#    0.000    2.692    0.000    1.385    6.462    3.077 
#    2.769    0.000    0.000    0.000    0.000    9.692 
#    0.000    0.000    0.000    0.000    0.000    0.000 
#
# Total GULP energy -289540.548702 kJ/mol
# GULP energy per Si atom -5568.087475 kJ/mol
# Density = 1.787821 g / cm^3
# Si number density = 17.918991 Si / 1000 Ang^3
#
#
#
# Elastic Constant Matrix: (Units=GPa)
#
#
# Indices 1 2 3 4 5 6 
#
# 1 30.1544 -5.9267 7.7191 0.0000 0.0000 0.0000
# 2 -5.9267 65.8510 19.6588 0.0000 0.0000 0.0000
# 3 7.7191 19.6588 143.4521 0.0000 0.0000 0.0000
# 4 0.0000 0.0000 0.0000 16.0910 0.0000 0.0000
# 5 0.0000 0.0000 0.0000 0.0000 477.5128 0.0000
# 6 0.0000 0.0000 0.0000 0.0000 0.0000 -2.3712
#
#
#
# Elastic Compliance Matrix: (Units=1/GPa)
#
#
# Indices 1 2 3 4 5 6 
#
# 1 0.034522 0.003818 -0.002381 0.000000 0.000000 0.000000
# 2 0.003818 0.016256 -0.002433 0.000000 0.000000 0.000000
# 3 -0.002381 -0.002433 0.007433 0.000000 0.000000 0.000000
# 4 0.000000 0.000000 0.000000 0.062147 0.000000 0.000000
# 5 0.000000 0.000000 0.000000 0.000000 0.002094 0.000000
# 6 0.000000 0.000000 0.000000 0.000000 0.000000 -0.421719
#
#
# Mechanical properties :
#
#
# Convention : Reuss Voigt Hill
#
# Bulk Modulus (GPa) = 17.78775 31.37333 24.58054
# Shear Modulus (GPa) = -17.95102 112.78025 47.41461
#
# Velocity S-wave (km/s) = -3.16854 7.94201 5.14956
# Velocity P-wave (km/s) = 1.85415 10.08202 7.00747
#
# Compressibility (1/GPa) = 0.05621848
#
# Stress axis : x y z
#
# Youngs Moduli (GPa) = 28.96663 61.51656 134.54385
#
# Poissons Ratio (x) = -0.23486 0.32033
# Poissons Ratio (y) = -0.11059 0.32736
# Poissons Ratio (z) = 0.06897 0.14968
#
# Static dielectric constant tensor:
#      x y z
#    x 1.643910 0.000000 0.000000 
#    y 0.000000 1.603150 0.000000 
#    z 0.000000 0.000000 1.664620 
# 
# From -- ./inp_files/55881.got.cif
#   From: 2010.05.17/outbox.cif.g08.bks.cpg/sg65_28_cif.got.tgz:55881.got - 2010.06.03 17:01:31.
