data_PCOD9488018
_publ_section_title
;
Structure prediction by ZEFSAII (Michael W. Deem and Ramdas Pophale) SiO2 
 PCOD9488018
Probable space group: C M M M
;
_chemical_formula_sum "Si O2"
_cell_formula_units_Z 104
_cell_length_a 26.597826
_cell_length_b 18.248478
_cell_length_c 13.847635
_cell_angle_alpha 90.000000
_cell_angle_beta 90.000000
_cell_angle_gamma 90.000000
_cell_volume 6721.224420
_symmetry_space_group_name_H-M "C M M M"
_symmetry_group_IT_number 65
_symmetry_cell_setting 'orthorhombic'
loop_
_space_group_symop_operation_xyz
x,y,z
-x,-y,z
x,-y,-z
-x,y,-z
-x,-y,-z
x,y,-z
-x,y,z
x,-y,z
1/2+x,1/2+y,z
1/2-x,1/2-y,z
1/2+x,1/2-y,-z
1/2-x,1/2+y,-z
1/2-x,1/2-y,-z
1/2+x,1/2+y,-z
1/2-x,1/2+y,z
1/2+x,1/2-y,z
loop_
_atom_site_type_symbol
_atom_site_label
_atom_site_fract_x
_atom_site_fract_y
_atom_site_fract_z
Si Si1 0.388167 0.087624 0.115661
Si Si2 0.056951 0.084038 0.382857
Si Si3 0.349319 0.684487 0.384055
Si Si4 0.056124 0.586195 0.383610
Si Si5 0.251447 0.584560 0.614624
Si Si6 0.000000 0.588075 0.113397
Si Si7 0.154604 0.658209 0.291537
O O1 0.444945 0.110054 0.148236
O O2 0.351352 0.136417 0.179525
O O3 0.381763 0.000000 0.134709
O O4 0.383910 0.096941 0.000000
O O5 0.056964 0.083155 0.500000
O O6 0.100113 0.140860 0.355562
O O7 0.000000 0.103167 0.352182
O O8 0.067690 0.000000 0.352353
O O9 0.351888 0.702073 0.500000
O O10 0.301616 0.631652 0.369763
O O11 0.342791 0.757263 0.321534
O O12 0.057670 0.591477 0.500000
O O13 0.059458 0.500000 0.358368
O O14 0.104221 0.626764 0.342074
O O15 0.000000 0.611794 0.353187
O O16 0.240889 0.586848 0.500000
O O17 0.259384 0.500000 0.642057
O O18 0.203684 0.618182 0.667670
O O19 0.000000 0.500000 0.120165
O O20 0.000000 0.606665 0.000000
#
# Coordination Sequence:
#
# PCOD9488018 Si02
#       7
#    16  16  16  16  16   8  16
#     4   9  18  32  49  68  90 120 161 204 240 279
#     4   8  14  27  47  67  89 123 164 197 225 265
#     4  10  20  32  46  68  99 129 155 192 238 280
#     4   9  18  30  41  58  90 129 161 183 209 261
#     4  10  20  34  51  68  89 124 169 203 227 269
#     4   7  12  26  46  64  83 111 150 193 229 263
#     4  12  21  29  46  70  95 122 153 194 245 290
#
# _framework density 15.473371
#
# number of rings (size 3 to 8) (size 9 to 14) (size 15 to 20)
#    0.000    2.538    0.000    5.538    1.077    4.923 
#    0.000    1.538    0.000    1.846    0.000    0.000 
#    0.000    1.846    0.000    1.692    0.000    0.154 
#
# Total GULP energy -289801.536824 kJ/mol
# GULP energy per Si atom -5573.106477 kJ/mol
# Density = 1.543815 g / cm^3
# Si number density = 15.473371 Si / 1000 Ang^3
#
#
#
# Elastic Constant Matrix: (Units=GPa)
#
#
# Indices 1 2 3 4 5 6 
#
# 1 94.8293 55.6847 44.3799 0.0000 0.0000 0.0000
# 2 55.6847 98.7605 47.6674 0.0000 0.0000 0.0000
# 3 44.3799 47.6674 56.1407 0.0000 0.0000 0.0000
# 4 0.0000 0.0000 0.0000 45.8954 0.0000 0.0000
# 5 0.0000 0.0000 0.0000 0.0000 20.3527 0.0000
# 6 0.0000 0.0000 0.0000 0.0000 0.0000 -37.5662
#
#
#
# Elastic Compliance Matrix: (Units=1/GPa)
#
#
# Indices 1 2 3 4 5 6 
#
# 1 0.018455 -0.005700 -0.009749 0.000000 0.000000 0.000000
# 2 -0.005700 0.018917 -0.011556 0.000000 0.000000 0.000000
# 3 -0.009749 -0.011556 0.035331 0.000000 0.000000 0.000000
# 4 0.000000 0.000000 0.000000 0.021789 0.000000 0.000000
# 5 0.000000 0.000000 0.000000 0.000000 0.049134 0.000000
# 6 0.000000 0.000000 0.000000 0.000000 0.000000 -0.026620
#
#
# Mechanical properties :
#
#
# Convention : Reuss Voigt Hill
#
# Bulk Modulus (GPa) = 53.49668 60.57720 57.03694
# Shear Modulus (GPa) = 28.20937 12.53628 20.37282
#
# Velocity S-wave (km/s) = 4.27440 2.84946 3.63249
# Velocity P-wave (km/s) = 7.68174 7.07532 7.38476
#
# Compressibility (1/GPa) = 0.01869275
#
# Stress axis : x y z
#
# Youngs Moduli (GPa) = 54.18594 52.86275 28.30392
#
# Poissons Ratio (x) = 0.30132 0.27594
# Poissons Ratio (y) = 0.30887 0.32707
# Poissons Ratio (z) = 0.52826 0.61087
#
# Static dielectric constant tensor:
#      x y z
#    x 1.527380 0.000000 0.000000 
#    y 0.000000 1.506100 0.000000 
#    z 0.000000 0.000000 1.525260 
# 
# From -- ./inp_files/45951.got.cif
#   From: 2010.05.17/outbox.cif.g08.bks.cpg/sg65_23_cif.got.tgz:45951.got - 2010.06.03 17:01:31.
