data_PCOD9488908
_publ_section_title
;
Structure prediction by ZEFSAII (Michael W. Deem and Ramdas Pophale) SiO2 
 PCOD9488908
Probable space group: C M M M
;
_chemical_formula_sum "Si O2"
_cell_formula_units_Z 104
_cell_length_a 8.709521
_cell_length_b 30.480201
_cell_length_c 23.229564
_cell_angle_alpha 90.000000
_cell_angle_beta 90.000000
_cell_angle_gamma 90.000000
_cell_volume 6166.704751
_symmetry_space_group_name_H-M "C M M M"
_symmetry_group_IT_number 65
_symmetry_cell_setting 'orthorhombic'
loop_
_space_group_symop_operation_xyz
x,y,z
-x,-y,z
x,-y,-z
-x,y,-z
-x,-y,-z
x,y,-z
-x,y,z
x,-y,z
1/2+x,1/2+y,z
1/2-x,1/2-y,z
1/2+x,1/2-y,-z
1/2-x,1/2+y,-z
1/2-x,1/2-y,-z
1/2+x,1/2+y,-z
1/2-x,1/2+y,z
1/2+x,1/2-y,z
loop_
_atom_site_type_symbol
_atom_site_label
_atom_site_fract_x
_atom_site_fract_y
_atom_site_fract_z
Si Si1 0.316417 0.948070 0.622613
Si Si2 0.815142 0.203794 0.239648
Si Si3 0.185824 0.500000 0.933095
Si Si4 0.181216 0.171190 0.882639
Si Si5 0.680228 0.797731 0.000000
Si Si6 0.815135 0.420721 0.152404
Si Si7 0.676290 0.446898 0.500000
Si Si8 0.184349 0.103582 0.729733
O O1 0.500000 0.943954 0.627284
O O2 0.261646 0.934524 0.558779
O O3 0.234686 0.918316 0.670210
O O4 0.277840 0.000000 0.630609
O O5 0.750000 0.250000 0.262958
O O6 0.767333 0.199626 0.172381
O O7 0.771394 0.155759 0.265914
O O8 0.000000 0.205912 0.242229
O O9 0.226944 0.458527 0.893098
O O10 0.000000 0.500000 0.936874
O O11 0.241795 0.500000 0.000000
O O12 0.263576 0.180338 0.941885
O O13 0.222532 0.121967 0.866284
O O14 0.000000 0.177517 0.889593
O O15 0.750000 0.750000 0.000000
O O16 0.500000 0.795741 0.000000
O O17 0.765172 0.424376 0.219110
O O18 0.000000 0.414773 0.149957
O O19 0.673973 0.500000 0.500000
O O20 0.500000 0.431517 0.500000
O O21 0.000000 0.101663 0.737290
#
# Coordination Sequence:
#
# PCOD9488908 Si02
#       8
#    16  16   8  16   8  16   8  16
#     4  10  20  33  52  79 112 147 186 226 262 305
#     4   9  19  34  53  74 100 131 166 210 260 312
#     4   9  20  36  53  73  99 130 170 219 266 318
#     4  10  21  37  53  73 101 128 160 207 258 316
#     4  12  24  36  52  75  98 125 158 198 253 318
#     4  10  20  35  55  76 100 133 173 217 265 317
#     4   9  17  31  51  77 110 149 186 217 261 313
#     4  10  21  36  52  77 110 142 177 220 270 318
#
# _framework density 16.86476
#
# number of rings (size 3 to 8) (size 9 to 14) (size 15 to 20)
#    0.000    2.154    0.000    4.154    2.154    6.769 
#    0.000    1.154    0.000    1.846    0.000    0.538 
#    0.000    0.000    0.000    0.000    0.000    0.000 
#
# Total GULP energy -289815.344486 kJ/mol
# GULP energy per Si atom -5573.372009 kJ/mol
# Density = 1.682637 g / cm^3
# Si number density = 16.864760 Si / 1000 Ang^3
#
#
#
# Elastic Constant Matrix: (Units=GPa)
#
#
# Indices 1 2 3 4 5 6 
#
# 1 42.2563 7.6300 21.1464 0.0000 0.0000 0.0000
# 2 7.6300 69.0828 40.2213 0.0000 0.0000 0.0000
# 3 21.1464 40.2213 118.3992 0.0000 0.0000 0.0000
# 4 0.0000 0.0000 0.0000 22.4263 0.0000 0.0000
# 5 0.0000 0.0000 0.0000 0.0000 29.3458 0.0000
# 6 0.0000 0.0000 0.0000 0.0000 0.0000 25.6061
#
#
#
# Elastic Compliance Matrix: (Units=1/GPa)
#
#
# Indices 1 2 3 4 5 6 
#
# 1 0.025990 -0.000209 -0.004571 0.000000 0.000000 0.000000
# 2 -0.000209 0.018046 -0.006093 0.000000 0.000000 0.000000
# 3 -0.004571 -0.006093 0.011332 0.000000 0.000000 0.000000
# 4 0.000000 0.000000 0.000000 0.044590 0.000000 0.000000
# 5 0.000000 0.000000 0.000000 0.000000 0.034076 0.000000
# 6 0.000000 0.000000 0.000000 0.000000 0.000000 0.039053
#
#
# Mechanical properties :
#
#
# Convention : Reuss Voigt Hill
#
# Bulk Modulus (GPa) = 29.74228 40.85928 35.30078
# Shear Modulus (GPa) = 24.26687 26.19169 25.22928
#
# Velocity S-wave (km/s) = 3.79741 3.94514 3.87198
# Velocity P-wave (km/s) = 6.07463 6.71062 6.40053
#
# Compressibility (1/GPa) = 0.03362217
#
# Stress axis : x y z
#
# Youngs Moduli (GPa) = 38.47591 55.41408 88.24414
#
# Poissons Ratio (x) = 0.01160 0.40335
# Poissons Ratio (y) = 0.00805 0.53767
# Poissons Ratio (z) = 0.17587 0.33764
#
# Static dielectric constant tensor:
#      x y z
#    x 1.565980 0.000000 0.000000 
#    y 0.000000 1.626400 0.000000 
#    z 0.000000 0.000000 1.553760 
# 
# From -- ./inp_files/68587.got.cif
#   From: 2010.05.17/outbox.cif.g08.bks.cpg/sg65_35_cif.got.tgz:68587.got - 2010.06.03 17:01:31.
