data_PCOD9488901
_publ_section_title
;
Structure prediction by ZEFSAII (Michael W. Deem and Ramdas Pophale) SiO2 
 PCOD9488901
Probable space group: C M M M
;
_chemical_formula_sum "Si O2"
_cell_formula_units_Z 96
_cell_length_a 9.144191
_cell_length_b 18.481326
_cell_length_c 31.750393
_cell_angle_alpha 90.000000
_cell_angle_beta 90.000000
_cell_angle_gamma 90.000000
_cell_volume 5365.714018
_symmetry_space_group_name_H-M "C M M M"
_symmetry_group_IT_number 65
_symmetry_cell_setting 'orthorhombic'
loop_
_space_group_symop_operation_xyz
x,y,z
-x,-y,z
x,-y,-z
-x,y,-z
-x,-y,-z
x,y,-z
-x,y,z
x,-y,z
1/2+x,1/2+y,z
1/2-x,1/2-y,z
1/2+x,1/2-y,-z
1/2-x,1/2+y,-z
1/2-x,1/2-y,-z
1/2+x,1/2+y,-z
1/2-x,1/2+y,z
1/2+x,1/2-y,z
loop_
_atom_site_type_symbol
_atom_site_label
_atom_site_fract_x
_atom_site_fract_y
_atom_site_fract_z
Si Si1 0.829946 0.587913 0.546887
Si Si2 0.325859 0.171906 0.952089
Si Si3 0.330262 0.412943 0.878340
Si Si4 0.824673 0.671902 0.292978
Si Si5 0.326059 0.085202 0.792094
Si Si6 0.671655 0.412865 0.368217
O O1 0.783876 0.612163 0.500000
O O2 0.825764 0.500000 0.546366
O O3 0.731900 0.610967 0.586087
O O4 0.000000 0.608240 0.553259
O O5 0.500000 0.178846 0.946724
O O6 0.250000 0.250000 0.948216
O O7 0.258419 0.120739 0.916806
O O8 0.298169 0.145582 0.000000
O O9 0.500000 0.391485 0.880671
O O10 0.321585 0.500000 0.880370
O O11 0.261197 0.391057 0.833527
O O12 0.750000 0.750000 0.293284
O O13 0.789939 0.630915 0.249255
O O14 0.762200 0.625381 0.331595
O O15 0.000000 0.678015 0.296287
O O16 0.500000 0.091668 0.800133
O O17 0.295025 0.000000 0.784419
O O18 0.500000 0.396475 0.364237
O O19 0.689592 0.500000 0.365181
#
# Coordination Sequence:
#
# PCOD9488901 Si02
#       6
#    16  16  16  16  16  16
#     4   8  14  26  46  73 104 137 174 216 260 307
#     4  10  21  37  57  80 108 144 184 225 268 315
#     4  10  21  36  56  83 113 144 177 217 265 315
#     4  11  23  38  56  78 106 140 178 220 266 316
#     4   9  19  37  59  80 104 138 179 221 266 317
#     4  10  20  33  52  79 109 141 177 218 264 314
#
# _framework density 17.891375
#
# number of rings (size 3 to 8) (size 9 to 14) (size 15 to 20)
#    0.000    2.333    0.000    3.000    0.000    6.333 
#    0.000    6.667    0.000    0.500    0.000    0.000 
#    0.000    0.000    0.000    0.000    0.000    0.000 
#
# Total GULP energy -267873.556840 kJ/mol
# GULP energy per Si atom -5580.699101 kJ/mol
# Density = 1.785065 g / cm^3
# Si number density = 17.891375 Si / 1000 Ang^3
#
#
#
# Elastic Constant Matrix: (Units=GPa)
#
#
# Indices 1 2 3 4 5 6 
#
# 1 104.2105 45.4734 101.4319 0.0000 0.0000 0.0000
# 2 45.4734 34.0807 54.8296 0.0000 0.0000 0.0000
# 3 101.4319 54.8296 177.5734 0.0000 0.0000 0.0000
# 4 0.0000 0.0000 0.0000 -26.2003 0.0000 0.0000
# 5 0.0000 0.0000 0.0000 0.0000 27.9966 0.0000
# 6 0.0000 0.0000 0.0000 0.0000 0.0000 26.6166
#
#
#
# Elastic Compliance Matrix: (Units=1/GPa)
#
#
# Indices 1 2 3 4 5 6 
#
# 1 0.028910 -0.023858 -0.009147 0.000000 0.000000 0.000000
# 2 -0.023858 0.077996 -0.010455 0.000000 0.000000 0.000000
# 3 -0.009147 -0.010455 0.014084 0.000000 0.000000 0.000000
# 4 0.000000 0.000000 0.000000 -0.038168 0.000000 0.000000
# 5 0.000000 0.000000 0.000000 0.000000 0.035719 0.000000
# 6 0.000000 0.000000 0.000000 0.000000 0.000000 0.037570
#
#
# Mechanical properties :
#
#
# Convention : Reuss Voigt Hill
#
# Bulk Modulus (GPa) = 29.35123 79.92604 54.63863
# Shear Modulus (GPa) = 19.65502 13.29122 16.47312
#
# Velocity S-wave (km/s) = 3.31807 2.72855 3.03764
# Velocity P-wave (km/s) = 5.57856 7.39571 6.55045
#
# Compressibility (1/GPa) = 0.03407013
#
# Stress axis : x y z
#
# Youngs Moduli (GPa) = 34.59046 12.82120 71.00092
#
# Poissons Ratio (x) = 0.30589 0.64943
# Poissons Ratio (y) = 0.82527 0.74229
# Poissons Ratio (z) = 0.31639 0.13404
#
# Static dielectric constant tensor:
#      x y z
#    x 1.595520 0.000000 0.000000 
#    y 0.000000 1.593640 0.000000 
#    z 0.000000 0.000000 1.597740 
# 
# From -- ./inp_files/73129.got.cif
#   From: 2010.05.17/outbox.cif.g08.bks.cpg/sg65_37_cif.got.tgz:73129.got - 2010.06.03 17:01:31.
