data_PCOD9488510
_publ_section_title
;
Structure prediction by ZEFSAII (Michael W. Deem and Ramdas Pophale) SiO2 
 PCOD9488510
Probable space group: C M M M
;
_chemical_formula_sum "Si O2"
_cell_formula_units_Z 112
_cell_length_a 14.145258
_cell_length_b 24.849571
_cell_length_c 15.707491
_cell_angle_alpha 90.000000
_cell_angle_beta 90.000000
_cell_angle_gamma 90.000000
_cell_volume 5521.239523
_symmetry_space_group_name_H-M "C M M M"
_symmetry_group_IT_number 65
_symmetry_cell_setting 'orthorhombic'
loop_
_space_group_symop_operation_xyz
x,y,z
-x,-y,z
x,-y,-z
-x,y,-z
-x,-y,-z
x,y,-z
-x,y,z
x,-y,z
1/2+x,1/2+y,z
1/2-x,1/2-y,z
1/2+x,1/2-y,-z
1/2-x,1/2+y,-z
1/2-x,1/2-y,-z
1/2+x,1/2+y,-z
1/2-x,1/2+y,z
1/2+x,1/2-y,z
loop_
_atom_site_type_symbol
_atom_site_label
_atom_site_fract_x
_atom_site_fract_y
_atom_site_fract_z
Si Si1 0.781286 0.438156 0.661924
Si Si2 0.609970 0.378345 0.738403
Si Si3 0.860889 0.759177 0.721257
Si Si4 0.894642 0.339406 0.405118
Si Si5 0.106994 0.561748 0.159852
Si Si6 0.235523 0.135924 0.093357
Si Si7 0.395666 0.775015 0.093495
O O1 0.785411 0.500000 0.629382
O O2 0.675326 0.421730 0.690184
O O3 0.821477 0.388045 0.608197
O O4 0.848471 0.435728 0.745671
O O5 0.500000 0.392804 0.746804
O O6 0.616727 0.319783 0.692297
O O7 0.662275 0.370606 0.829864
O O8 0.750000 0.750000 0.723846
O O9 0.892796 0.708868 0.663580
O O10 0.896926 0.756626 0.818374
O O11 0.880879 0.316304 0.500000
O O12 0.000000 0.363479 0.400557
O O13 0.102494 0.500000 0.134265
O O14 0.182719 0.591418 0.102289
O O15 0.000000 0.583331 0.159812
O O16 0.302082 0.188641 0.100509
O O17 0.191619 0.133109 0.000000
O O18 0.500000 0.802508 0.091748
O O19 0.389251 0.747797 0.000000
#
# Coordination Sequence:
#
# PCOD9488510 Si02
#       7
#    16  16  16  16  16  16  16
#     4  10  21  40  63  89 121 158 201 253 305 360
#     4  11  23  39  60  86 115 161 219 265 305 354
#     4  12  21  40  64  88 125 171 210 255 311 368
#     4  11  24  41  66 101 134 162 194 240 307 385
#     4   9  17  30  52  80 109 148 197 247 305 373
#     4  10  20  33  49  75 115 158 201 252 312 371
#     4  10  20  33  54  85 120 160 204 252 311 378
#
# _framework density 20.285299999999999
#
# number of rings (size 3 to 8) (size 9 to 14) (size 15 to 20)
#    0.000    1.571    2.857    3.000    0.000    4.000 
#    0.000    1.429    0.000    0.429    0.000    5.000 
#    0.000    0.000    0.000    0.000    0.000    0.000 
#
# Total GULP energy -312139.018570 kJ/mol
# GULP energy per Si atom -5573.911046 kJ/mol
# Density = 2.023913 g / cm^3
# Si number density = 20.285300 Si / 1000 Ang^3
#
#
#
# Elastic Constant Matrix: (Units=GPa)
#
#
# Indices 1 2 3 4 5 6 
#
# 1 158.7512 24.3763 20.9314 0.0000 0.0000 0.0000
# 2 24.3763 89.1168 33.6674 0.0000 0.0000 0.0000
# 3 20.9314 33.6674 67.4120 0.0000 0.0000 0.0000
# 4 0.0000 0.0000 0.0000 0.5228 0.0000 0.0000
# 5 0.0000 0.0000 0.0000 0.0000 18.2201 0.0000
# 6 0.0000 0.0000 0.0000 0.0000 0.0000 19.7408
#
#
#
# Elastic Compliance Matrix: (Units=1/GPa)
#
#
# Indices 1 2 3 4 5 6 
#
# 1 0.006686 -0.001287 -0.001433 0.000000 0.000000 0.000000
# 2 -0.001287 0.014079 -0.006632 0.000000 0.000000 0.000000
# 3 -0.001433 -0.006632 0.018591 0.000000 0.000000 0.000000
# 4 0.000000 0.000000 0.000000 1.912847 0.000000 0.000000
# 5 0.000000 0.000000 0.000000 0.000000 0.054885 0.000000
# 6 0.000000 0.000000 0.000000 0.000000 0.000000 0.050657
#
#
# Mechanical properties :
#
#
# Convention : Reuss Voigt Hill
#
# Bulk Modulus (GPa) = 48.42214 52.58113 50.50164
# Shear Modulus (GPa) = 2.40000 23.45038 12.92519
#
# Velocity S-wave (km/s) = 1.08889 3.40373 2.52696
# Velocity P-wave (km/s) = 5.05008 6.43617 5.78479
#
# Compressibility (1/GPa) = 0.02065171
#
# Stress axis : x y z
#
# Youngs Moduli (GPa) = 149.57106 71.02923 53.78926
#
# Poissons Ratio (x) = 0.09144 0.07708
# Poissons Ratio (y) = 0.19256 0.35671
# Poissons Ratio (z) = 0.21433 0.47103
#
# Static dielectric constant tensor:
#      x y z
#    x 1.735510 0.000000 0.000000 
#    y 0.000000 1.754980 0.000000 
#    z 0.000000 0.000000 1.742240 
# 
# From -- ./inp_files/41141.got.cif
#   From: 2010.05.17/outbox.cif.g08.bks.cpg/sg65_21_cif.got.tgz:41141.got - 2010.06.03 17:01:31.
