data_PCOD9488180
_publ_section_title
;
Structure prediction by ZEFSAII (Michael W. Deem and Ramdas Pophale) SiO2 
 PCOD9488180
Probable space group: C M M M
;
_chemical_formula_sum "Si O2"
_cell_formula_units_Z 120
_cell_length_a 14.243878
_cell_length_b 18.013427
_cell_length_c 22.998508
_cell_angle_alpha 90.000000
_cell_angle_beta 90.000000
_cell_angle_gamma 90.000000
_cell_volume 5900.981482
_symmetry_space_group_name_H-M "C M M M"
_symmetry_group_IT_number 65
_symmetry_cell_setting 'orthorhombic'
loop_
_space_group_symop_operation_xyz
x,y,z
-x,-y,z
x,-y,-z
-x,y,-z
-x,-y,-z
x,y,-z
-x,y,z
x,-y,z
1/2+x,1/2+y,z
1/2-x,1/2-y,z
1/2+x,1/2-y,-z
1/2-x,1/2+y,-z
1/2-x,1/2-y,-z
1/2+x,1/2+y,-z
1/2-x,1/2+y,z
1/2+x,1/2-y,z
loop_
_atom_site_type_symbol
_atom_site_label
_atom_site_fract_x
_atom_site_fract_y
_atom_site_fract_z
Si Si1 0.603186 0.201101 0.772040
Si Si2 0.698573 0.588679 0.380669
Si Si3 0.109494 0.786621 0.065301
Si Si4 0.740098 0.374243 0.846068
Si Si5 0.609274 0.409408 0.500000
Si Si6 0.608745 0.624836 0.256216
Si Si7 0.103802 0.413277 0.334850
Si Si8 0.108582 0.392868 0.932789
O O1 0.500000 0.192649 0.800392
O O2 0.687663 0.178872 0.812607
O O3 0.610878 0.286049 0.752835
O O4 0.606847 0.143388 0.718772
O O5 0.688825 0.500000 0.383020
O O6 0.655097 0.618654 0.440205
O O7 0.648513 0.611210 0.320623
O O8 0.808895 0.605420 0.375443
O O9 0.170696 0.828618 0.112360
O O10 0.115587 0.697431 0.068259
O O11 0.000000 0.805965 0.072699
O O12 0.139736 0.808154 0.000000
O O13 0.675583 0.408189 0.794522
O O14 0.811397 0.418836 0.888105
O O15 0.617241 0.500000 0.500000
O O16 0.500000 0.391437 0.500000
O O17 0.500000 0.600574 0.251585
O O18 0.114868 0.500000 0.315810
O O19 0.000000 0.407214 0.361640
O O20 0.000000 0.412188 0.918239
O O21 0.124659 0.414639 0.000000
#
# Coordination Sequence:
#
# PCOD9488180 Si02
#       8
#    16  16  16  16   8  16  16  16
#     4  10  20  32  48  73 104 138 173 212 261 317
#     4  10  20  36  58  82 108 141 177 214 260 308
#     4   9  17  27  38  55  85 127 173 217 259 308
#     4  12  19  27  43  65  95 136 175 213 261 320
#     4   9  18  34  57  82 107 139 181 221 254 299
#     4  11  22  32  47  75 108 140 174 215 260 314
#     4   9  18  34  55  78 105 137 173 213 256 306
#     4   9  17  27  39  58  86 124 173 222 264 310
#
# _framework density 20.335599999999999
#
# number of rings (size 3 to 8) (size 9 to 14) (size 15 to 20)
#    0.000    2.067    1.333    4.800    0.000    4.000 
#    0.000    0.333    0.000    3.600    0.000    2.800 
#    0.000    8.533    0.000   30.933    0.000   16.533 
#
# Total GULP energy -334989.739939 kJ/mol
# GULP energy per Si atom -5583.162332 kJ/mol
# Density = 2.028932 g / cm^3
# Si number density = 20.335600 Si / 1000 Ang^3
#
#
#
# Elastic Constant Matrix: (Units=GPa)
#
#
# Indices 1 2 3 4 5 6 
#
# 1 166.1627 27.6903 107.6496 0.0000 0.0000 0.0000
# 2 27.6903 38.8507 21.9682 0.0000 0.0000 0.0000
# 3 107.6496 21.9682 163.4613 0.0000 0.0000 0.0000
# 4 0.0000 0.0000 0.0000 19.6801 0.0000 0.0000
# 5 0.0000 0.0000 0.0000 0.0000 37.7371 0.0000
# 6 0.0000 0.0000 0.0000 0.0000 0.0000 0.2226
#
#
#
# Elastic Compliance Matrix: (Units=1/GPa)
#
#
# Indices 1 2 3 4 5 6 
#
# 1 0.011062 -0.004075 -0.006738 0.000000 0.000000 0.000000
# 2 -0.004075 0.029357 -0.001262 0.000000 0.000000 0.000000
# 3 -0.006738 -0.001262 0.010724 0.000000 0.000000 0.000000
# 4 0.000000 0.000000 0.000000 0.050813 0.000000 0.000000
# 5 0.000000 0.000000 0.000000 0.000000 0.026499 0.000000
# 6 0.000000 0.000000 0.000000 0.000000 0.000000 4.492794
#
#
# Mechanical properties :
#
#
# Convention : Reuss Voigt Hill
#
# Bulk Modulus (GPa) = 37.04331 75.89899 56.47115
# Shear Modulus (GPa) = 1.07425 25.60572 13.33999
#
# Velocity S-wave (km/s) = 0.72761 3.55231 2.56401
# Velocity P-wave (km/s) = 4.35447 7.36406 6.04942
#
# Compressibility (1/GPa) = 0.02699543
#
# Stress axis : x y z
#
# Youngs Moduli (GPa) = 90.39800 34.06304 93.24564
#
# Poissons Ratio (x) = 0.13880 0.62825
# Poissons Ratio (y) = 0.36834 0.11768
# Poissons Ratio (z) = 0.60906 0.04299
#
# Static dielectric constant tensor:
#      x y z
#    x 1.763070 0.000000 0.000000 
#    y 0.000000 1.722460 0.000000 
#    z 0.000000 0.000000 1.734670 
# 
# From -- ./inp_files/63047.got.cif
#   From: 2010.05.17/outbox.cif.g08.bks.cpg/sg65_32_cif.got.tgz:63047.got - 2010.06.03 17:01:31.
