data_PCOD9488688
_publ_section_title
;
Structure prediction by ZEFSAII (Michael W. Deem and Ramdas Pophale) SiO2 
 PCOD9488688
Probable space group: C M M M
;
_chemical_formula_sum "Si O2"
_cell_formula_units_Z 104
_cell_length_a 8.127597
_cell_length_b 20.285796
_cell_length_c 36.228604
_cell_angle_alpha 90.000000
_cell_angle_beta 90.000000
_cell_angle_gamma 90.000000
_cell_volume 5973.182923
_symmetry_space_group_name_H-M "C M M M"
_symmetry_group_IT_number 65
_symmetry_cell_setting 'orthorhombic'
loop_
_space_group_symop_operation_xyz
x,y,z
-x,-y,z
x,-y,-z
-x,y,-z
-x,-y,-z
x,y,-z
-x,y,z
x,-y,z
1/2+x,1/2+y,z
1/2-x,1/2-y,z
1/2+x,1/2-y,-z
1/2-x,1/2+y,-z
1/2-x,1/2-y,-z
1/2+x,1/2+y,-z
1/2-x,1/2+y,z
1/2+x,1/2-y,z
loop_
_atom_site_type_symbol
_atom_site_label
_atom_site_fract_x
_atom_site_fract_y
_atom_site_fract_z
Si Si1 0.191217 0.419900 0.667859
Si Si2 0.201439 0.576111 0.749327
Si Si3 0.500000 0.080449 0.457368
Si Si4 0.198163 0.075119 0.958608
Si Si5 0.304068 0.824191 0.895978
Si Si6 0.301136 0.824695 0.187327
Si Si7 0.681653 0.580356 0.589029
O O1 0.192775 0.500000 0.668564
O O2 0.253043 0.400188 0.708425
O O3 0.288522 0.399163 0.631513
O O4 0.000000 0.400234 0.663565
O O5 0.252272 0.500000 0.754800
O O6 0.257182 0.623521 0.782103
O O7 0.000000 0.576002 0.748641
O O8 0.500000 0.100760 0.500000
O O9 0.664893 0.101781 0.435945
O O10 0.500000 0.000000 0.456674
O O11 0.249659 0.124537 0.926774
O O12 0.000000 0.073971 0.959392
O O13 0.254841 0.000000 0.951633
O O14 0.254452 0.094380 0.000000
O O15 0.500000 0.825191 0.894366
O O16 0.250000 0.750000 0.905240
O O17 0.241675 0.839461 0.854421
O O18 0.500000 0.827557 0.187101
O O19 0.250000 0.750000 0.196137
O O20 0.500000 0.601081 0.576400
O O21 0.684135 0.500000 0.588726
#
# Coordination Sequence:
#
# PCOD9488688 Si02
#       7
#    16  16   8  16  16  16  16
#     4   8  12  21  37  54  73  98 131 175 224 268
#     4   8  14  25  44  67  87 112 150 193 229 267
#     4   9  16  24  32  44  66  98 140 184 222 270
#     4   9  19  36  55  74  98 126 154 189 238 293
#     4  10  20  33  51  73  97 127 163 200 235 277
#     4   9  18  32  48  67  93 125 157 189 229 280
#     4   9  15  22  33  48  68  97 133 177 227 273
#
# _framework density 17.411152000000001
#
# number of rings (size 3 to 8) (size 9 to 14) (size 15 to 20)
#    0.000    3.154    0.769    1.846    0.000    2.462 
#    0.000    4.615    0.000    1.385    0.000    0.000 
#    0.000    0.000    0.000    0.000    0.000    0.769 
#
# Total GULP energy -289571.288770 kJ/mol
# GULP energy per Si atom -5568.678630 kJ/mol
# Density = 1.737152 g / cm^3
# Si number density = 17.411152 Si / 1000 Ang^3
#
#
#
# Elastic Constant Matrix: (Units=GPa)
#
#
# Indices 1 2 3 4 5 6 
#
# 1 59.0053 21.9380 50.7484 0.0000 0.0000 0.0000
# 2 21.9380 45.5593 72.4564 0.0000 0.0000 0.0000
# 3 50.7484 72.4564 161.1217 0.0000 0.0000 0.0000
# 4 0.0000 0.0000 0.0000 -5.8429 0.0000 0.0000
# 5 0.0000 0.0000 0.0000 0.0000 7.2659 0.0000
# 6 0.0000 0.0000 0.0000 0.0000 0.0000 12.9575
#
#
#
# Elastic Compliance Matrix: (Units=1/GPa)
#
#
# Indices 1 2 3 4 5 6 
#
# 1 0.023277 0.001585 -0.008044 0.000000 0.000000 0.000000
# 2 0.001585 0.077175 -0.035205 0.000000 0.000000 0.000000
# 3 -0.008044 -0.035205 0.024572 0.000000 0.000000 0.000000
# 4 0.000000 0.000000 0.000000 -0.171149 0.000000 0.000000
# 5 0.000000 0.000000 0.000000 0.000000 0.137628 0.000000
# 6 0.000000 0.000000 0.000000 0.000000 0.000000 0.077175
#
#
# Mechanical properties :
#
#
# Convention : Reuss Voigt Hill
#
# Bulk Modulus (GPa) = 23.98338 61.77467 42.87902
# Shear Modulus (GPa) = 18.80370 10.91236 14.85803
#
# Velocity S-wave (km/s) = 3.28987 2.50620 2.92441
# Velocity P-wave (km/s) = 5.31372 6.62810 6.00697
#
# Compressibility (1/GPa) = 0.04169555
#
# Stress axis : x y z
#
# Youngs Moduli (GPa) = 42.96095 12.95756 40.69707
#
# Poissons Ratio (x) = -0.02054 0.32738
# Poissons Ratio (y) = -0.06809 1.43273
# Poissons Ratio (z) = 0.34559 0.45617
#
# Static dielectric constant tensor:
#      x y z
#    x 1.619410 0.000000 0.000000 
#    y 0.000000 1.537690 0.000000 
#    z 0.000000 0.000000 1.614980 
# 
# From -- ./inp_files/73571.got.cif
#   From: 2010.05.17/outbox.cif.g08.bks.cpg/sg65_37_cif.got.tgz:73571.got - 2010.06.03 17:01:31.
