data_PCOD9488305
_publ_section_title
;
Structure prediction by ZEFSAII (Michael W. Deem and Ramdas Pophale) SiO2 
 PCOD9488305
Probable space group: C M M M
;
_chemical_formula_sum "Si O2"
_cell_formula_units_Z 80
_cell_length_a 7.530102
_cell_length_b 18.111020
_cell_length_c 30.928366
_cell_angle_alpha 90.000000
_cell_angle_beta 90.000000
_cell_angle_gamma 90.000000
_cell_volume 4217.943376
_symmetry_space_group_name_H-M "C M M M"
_symmetry_group_IT_number 65
_symmetry_cell_setting 'orthorhombic'
loop_
_space_group_symop_operation_xyz
x,y,z
-x,-y,z
x,-y,-z
-x,y,-z
-x,-y,-z
x,y,-z
-x,y,z
x,-y,z
1/2+x,1/2+y,z
1/2-x,1/2-y,z
1/2+x,1/2-y,-z
1/2-x,1/2+y,-z
1/2-x,1/2-y,-z
1/2+x,1/2+y,-z
1/2-x,1/2+y,z
1/2+x,1/2-y,z
loop_
_atom_site_type_symbol
_atom_site_label
_atom_site_fract_x
_atom_site_fract_y
_atom_site_fract_z
Si Si1 0.787997 0.336553 0.500000
Si Si2 0.000000 0.089800 0.755418
Si Si3 0.287697 0.163459 0.087433
Si Si4 0.208126 0.411286 0.588411
Si Si5 0.717402 0.914564 0.000000
Si Si6 0.500000 0.589818 0.343010
Si Si7 0.208247 0.588694 0.824044
O O1 0.750000 0.250000 0.500000
O O2 0.724333 0.373892 0.455714
O O3 0.000000 0.348500 0.500000
O O4 0.827945 0.111250 0.783412
O O5 0.000000 0.116815 0.706207
O O6 0.000000 0.000000 0.753701
O O7 0.500000 0.152456 0.087522
O O8 0.250000 0.250000 0.086868
O O9 0.220398 0.125520 0.043613
O O10 0.224882 0.126501 0.131907
O O11 0.221091 0.500000 0.583396
O O12 0.327932 0.388667 0.629015
O O13 0.000000 0.393214 0.594854
O O14 0.500000 0.911892 0.000000
O O15 0.768508 0.000000 0.000000
O O16 0.500000 0.500000 0.341329
O O17 0.221932 0.500000 0.829275
O O18 0.000000 0.606354 0.817513
#
# Coordination Sequence:
#
# PCOD9488305 Si02
#       7
#     8   8  16  16   8   8  16
#     4  10  21  33  50  78 104 142 177 213 256 308
#     4   9  18  32  53  81 107 131 168 221 270 310
#     4  10  20  32  51  77 102 138 172 211 258 311
#     4   9  18  33  52  76 107 139 175 217 257 306
#     4   9  17  32  53  75 104 137 172 210 253 313
#     4   9  18  31  52  81 105 134 171 213 272 316
#     4   9  18  33  53  77 103 135 175 215 260 310
#
# _framework density 18.96659
#
# number of rings (size 3 to 8) (size 9 to 14) (size 15 to 20)
#    0.000    2.700    0.000    1.200    2.800    4.400 
#    0.000    5.500    0.000    1.800    0.000    0.000 
#    0.000    0.000    0.000    0.000    0.000    0.000 
#
# Total GULP energy -223176.274912 kJ/mol
# GULP energy per Si atom -5579.406873 kJ/mol
# Density = 1.892342 g / cm^3
# Si number density = 18.966590 Si / 1000 Ang^3
#
#
#
# Elastic Constant Matrix: (Units=GPa)
#
#
# Indices 1 2 3 4 5 6 
#
# 1 85.1722 26.3889 78.7302 0.0000 0.0000 0.0000
# 2 26.3889 47.8488 63.0234 0.0000 0.0000 0.0000
# 3 78.7302 63.0234 236.0334 0.0000 0.0000 0.0000
# 4 0.0000 0.0000 0.0000 -12.6156 0.0000 0.0000
# 5 0.0000 0.0000 0.0000 0.0000 17.4871 0.0000
# 6 0.0000 0.0000 0.0000 0.0000 0.0000 18.4307
#
#
#
# Elastic Compliance Matrix: (Units=1/GPa)
#
#
# Indices 1 2 3 4 5 6 
#
# 1 0.017247 -0.002984 -0.004956 0.000000 0.000000 0.000000
# 2 -0.002984 0.032753 -0.007750 0.000000 0.000000 0.000000
# 3 -0.004956 -0.007750 0.007959 0.000000 0.000000 0.000000
# 4 0.000000 0.000000 0.000000 -0.079267 0.000000 0.000000
# 5 0.000000 0.000000 0.000000 0.000000 0.057185 0.000000
# 6 0.000000 0.000000 0.000000 0.000000 0.000000 0.054257
#
#
# Mechanical properties :
#
#
# Convention : Reuss Voigt Hill
#
# Bulk Modulus (GPa) = 37.62434 78.37103 57.99768
# Shear Modulus (GPa) = 38.35169 18.05459 28.20314
#
# Velocity S-wave (km/s) = 4.50162 3.08866 3.86034
# Velocity P-wave (km/s) = 6.84833 7.35731 7.10738
#
# Compressibility (1/GPa) = 0.02657854
#
# Stress axis : x y z
#
# Youngs Moduli (GPa) = 57.98277 30.53194 125.64259
#
# Poissons Ratio (x) = 0.09110 0.62267
# Poissons Ratio (y) = 0.17302 0.97373
# Poissons Ratio (z) = 0.28736 0.23662
#
# Static dielectric constant tensor:
#      x y z
#    x 1.697020 0.000000 0.000000 
#    y 0.000000 1.634060 0.000000 
#    z 0.000000 0.000000 1.644100 
# 
# From -- ./inp_files/72977.got.cif
#   From: 2010.05.17/outbox.cif.g08.bks.cpg/sg65_37_cif.got.tgz:72977.got - 2010.06.03 17:01:31.
