data_PCOD9488241
_publ_section_title
;
Structure prediction by ZEFSAII (Michael W. Deem and Ramdas Pophale) SiO2 
 PCOD9488241
Probable space group: C M M M
;
_chemical_formula_sum "Si O2"
_cell_formula_units_Z 88
_cell_length_a 9.183280
_cell_length_b 18.349119
_cell_length_c 29.205422
_cell_angle_alpha 90.000000
_cell_angle_beta 90.000000
_cell_angle_gamma 90.000000
_cell_volume 4921.262483
_symmetry_space_group_name_H-M "C M M M"
_symmetry_group_IT_number 65
_symmetry_cell_setting 'orthorhombic'
loop_
_space_group_symop_operation_xyz
x,y,z
-x,-y,z
x,-y,-z
-x,y,-z
-x,-y,-z
x,y,-z
-x,y,z
x,-y,z
1/2+x,1/2+y,z
1/2-x,1/2-y,z
1/2+x,1/2-y,-z
1/2-x,1/2+y,-z
1/2-x,1/2-y,-z
1/2+x,1/2+y,-z
1/2-x,1/2+y,z
1/2+x,1/2-y,z
loop_
_atom_site_type_symbol
_atom_site_label
_atom_site_fract_x
_atom_site_fract_y
_atom_site_fract_z
Si Si1 0.830760 0.912090 0.092786
Si Si2 0.668245 0.088820 0.000000
Si Si3 0.827072 0.671769 0.721919
Si Si4 0.331887 0.587936 0.357805
Si Si5 0.169543 0.588634 0.449060
Si Si6 0.673670 0.828604 0.826596
O O1 0.752328 0.888112 0.045835
O O2 0.745413 0.880598 0.136040
O O3 0.000000 0.889555 0.093312
O O4 0.826608 0.000000 0.093972
O O5 0.500000 0.112492 0.000000
O O6 0.668252 0.000000 0.000000
O O7 0.750000 0.750000 0.717412
O O8 0.760108 0.619217 0.684051
O O9 0.801557 0.645851 0.774203
O O10 0.000000 0.679441 0.715630
O O11 0.500000 0.610158 0.353743
O O12 0.325549 0.500000 0.357130
O O13 0.265237 0.613304 0.406324
O O14 0.216770 0.612558 0.500000
O O15 0.174512 0.500000 0.449245
O O16 0.000000 0.608746 0.442730
O O17 0.500000 0.822376 0.833536
O O18 0.750000 0.750000 0.830858
#
# Coordination Sequence:
#
# PCOD9488241 Si02
#       6
#    16   8  16  16  16  16
#     4  10  20  34  54  80 109 140 173 210 253 301
#     4   9  17  31  52  77 106 139 174 211 251 299
#     4  10  21  37  56  75  99 134 173 212 256 309
#     4  10  20  32  49  76 107 136 169 211 254 298
#     4   8  14  26  45  69  98 132 168 206 250 299
#     4  10  21  37  56  77 102 134 172 213 258 307
#
# _framework density 17.881591
#
# number of rings (size 3 to 8) (size 9 to 14) (size 15 to 20)
#    0.000    2.455    0.000    3.000    0.000    6.545 
#    0.000    5.909    0.000    0.545    0.000    0.000 
#    0.000    0.000    0.000    0.000    0.000    0.000 
#
# Total GULP energy -245432.537574 kJ/mol
# GULP energy per Si atom -5578.012218 kJ/mol
# Density = 1.784089 g / cm^3
# Si number density = 17.881591 Si / 1000 Ang^3
#
#
#
# Elastic Constant Matrix: (Units=GPa)
#
#
# Indices 1 2 3 4 5 6 
#
# 1 146.8475 28.6994 109.4189 0.0000 0.0000 0.0000
# 2 28.6994 10.2097 36.1412 0.0000 0.0000 0.0000
# 3 109.4189 36.1412 167.2990 0.0000 0.0000 0.0000
# 4 0.0000 0.0000 0.0000 -94.5162 0.0000 0.0000
# 5 0.0000 0.0000 0.0000 0.0000 33.3384 0.0000
# 6 0.0000 0.0000 0.0000 0.0000 0.0000 26.5323
#
#
#
# Elastic Compliance Matrix: (Units=1/GPa)
#
#
# Indices 1 2 3 4 5 6 
#
# 1 0.015476 -0.032610 -0.003077 0.000000 0.000000 0.000000
# 2 -0.032610 0.484999 -0.083445 0.000000 0.000000 0.000000
# 3 -0.003077 -0.083445 0.026016 0.000000 0.000000 0.000000
# 4 0.000000 0.000000 0.000000 -0.010580 0.000000 0.000000
# 5 0.000000 0.000000 0.000000 0.000000 0.029995 0.000000
# 6 0.000000 0.000000 0.000000 0.000000 0.000000 0.037690
#
#
# Mechanical properties :
#
#
# Convention : Reuss Voigt Hill
#
# Bulk Modulus (GPa) = 3.46950 74.76393 39.11671
# Shear Modulus (GPa) = 5.44701 3.07735 4.26218
#
# Velocity S-wave (km/s) = 1.74722 1.31328 1.54555
# Velocity P-wave (km/s) = 2.45251 6.64838 5.01078
#
# Compressibility (1/GPa) = 0.28822632
#
# Stress axis : x y z
#
# Youngs Moduli (GPa) = 64.61766 2.06186 38.43762
#
# Poissons Ratio (x) = 0.06724 0.11827
# Poissons Ratio (y) = 2.10718 3.20743
# Poissons Ratio (z) = 0.19882 0.17205
#
# Static dielectric constant tensor:
#      x y z
#    x 1.596850 0.000000 0.000000 
#    y 0.000000 1.594000 0.000000 
#    z 0.000000 0.000000 1.605690 
# 
# From -- ./inp_files/65153.got.cif
#   From: 2010.05.17/outbox.cif.g08.bks.cpg/sg65_33_cif.got.tgz:65153.got - 2010.06.03 17:01:31.
