data_PCOD9488841
_publ_section_title
;
Structure prediction by ZEFSAII (Michael W. Deem and Ramdas Pophale) SiO2 
 PCOD9488841
Probable space group: C M M M
;
_chemical_formula_sum "Si O2"
_cell_formula_units_Z 88
_cell_length_a 24.444976
_cell_length_b 22.631015
_cell_length_c 8.107721
_cell_angle_alpha 90.000000
_cell_angle_beta 90.000000
_cell_angle_gamma 90.000000
_cell_volume 4485.309780
_symmetry_space_group_name_H-M "C M M M"
_symmetry_group_IT_number 65
_symmetry_cell_setting 'orthorhombic'
loop_
_space_group_symop_operation_xyz
x,y,z
-x,-y,z
x,-y,-z
-x,y,-z
-x,-y,-z
x,y,-z
-x,y,z
x,-y,z
1/2+x,1/2+y,z
1/2-x,1/2-y,z
1/2+x,1/2-y,-z
1/2-x,1/2+y,-z
1/2-x,1/2-y,-z
1/2+x,1/2+y,-z
1/2-x,1/2+y,z
1/2+x,1/2-y,z
loop_
_atom_site_type_symbol
_atom_site_label
_atom_site_fract_x
_atom_site_fract_y
_atom_site_fract_z
Si Si1 0.738750 0.936234 0.800937
Si Si2 0.062498 0.000000 0.195879
Si Si3 0.935535 0.566064 0.697762
Si Si4 0.145292 0.101161 0.692642
Si Si5 0.151002 0.658306 0.806386
Si Si6 0.308361 0.724891 0.307042
O O1 0.797956 0.932996 0.721069
O O2 0.701554 0.882087 0.745219
O O3 0.713328 0.000000 0.762140
O O4 0.744359 0.932484 0.000000
O O5 0.097022 0.940968 0.241837
O O6 0.000000 0.000000 0.263348
O O7 0.058866 0.000000 0.000000
O O8 0.927070 0.568681 0.500000
O O9 0.919685 0.500000 0.754492
O O10 0.901287 0.617405 0.780630
O O11 0.000000 0.572716 0.727987
O O12 0.133666 0.109283 0.500000
O O13 0.162370 0.166126 0.764080
O O14 0.151321 0.719835 0.712452
O O15 0.158563 0.670281 0.000000
O O16 0.297699 0.711918 0.500000
O O17 0.250000 0.750000 0.237008
#
# Coordination Sequence:
#
# PCOD9488841 Si02
#       6
#    16   8  16  16  16  16
#     4  10  20  33  51  80 119 156 188 230 288 348
#     4  11  25  45  67  89 119 157 192 241 308 365
#     4   9  19  37  59  81 109 150 196 240 287 336
#     4  11  22  37  61  89 114 147 194 244 288 342
#     4  11  22  34  54  85 119 155 195 236 283 342
#     4  10  21  38  57  82 119 158 195 235 286 347
#
# _framework density 19.619603999999999
#
# number of rings (size 3 to 8) (size 9 to 14) (size 15 to 20)
#    0.000    1.727    2.727    2.455    0.000    4.727 
#    0.000    1.818    0.000    1.091    0.000    0.000 
#    0.000    0.000    0.000    0.000    0.000    0.000 
#
# Total GULP energy -245410.775482 kJ/mol
# GULP energy per Si atom -5577.517625 kJ/mol
# Density = 1.957495 g / cm^3
# Si number density = 19.619604 Si / 1000 Ang^3
#
#
#
# Elastic Constant Matrix: (Units=GPa)
#
#
# Indices 1 2 3 4 5 6 
#
# 1 93.3069 52.8996 16.3018 0.0000 0.0000 0.0000
# 2 52.8996 161.7439 15.3801 0.0000 0.0000 0.0000
# 3 16.3018 15.3801 16.7889 0.0000 0.0000 0.0000
# 4 0.0000 0.0000 0.0000 -6.9674 0.0000 0.0000
# 5 0.0000 0.0000 0.0000 0.0000 17.2876 0.0000
# 6 0.0000 0.0000 0.0000 0.0000 0.0000 -23.7991
#
#
#
# Elastic Compliance Matrix: (Units=1/GPa)
#
#
# Indices 1 2 3 4 5 6 
#
# 1 0.014768 -0.003797 -0.010861 0.000000 0.000000 0.000000
# 2 -0.003797 0.007749 -0.003412 0.000000 0.000000 0.000000
# 3 -0.010861 -0.003412 0.073234 0.000000 0.000000 0.000000
# 4 0.000000 0.000000 0.000000 -0.143525 0.000000 0.000000
# 5 0.000000 0.000000 0.000000 0.000000 0.057845 0.000000
# 6 0.000000 0.000000 0.000000 0.000000 0.000000 -0.042018
#
#
# Mechanical properties :
#
#
# Convention : Reuss Voigt Hill
#
# Bulk Modulus (GPa) = 16.77519 49.00029 32.88774
# Shear Modulus (GPa) = 207.79763 9.78808 108.79285
#
# Velocity S-wave (km/s) = 10.30258 2.23601 7.45463
# Velocity P-wave (km/s) = 12.25125 5.62990 9.53385
#
# Compressibility (1/GPa) = 0.05961183
#
# Stress axis : x y z
#
# Youngs Moduli (GPa) = 67.71602 129.05042 13.65478
#
# Poissons Ratio (x) = 0.49002 0.14830
# Poissons Ratio (y) = 0.25712 0.04659
# Poissons Ratio (z) = 0.73544 0.44029
#
# Static dielectric constant tensor:
#      x y z
#    x 1.688920 0.000000 0.000000 
#    y 0.000000 1.738790 0.000000 
#    z 0.000000 0.000000 1.703470 
# 
# From -- ./inp_files/11755.got.cif
#   From: 2010.05.17/outbox.cif.g08.bks.cpg/sg65_6_cif.got.tgz:11755.got - 2010.06.03 17:01:31.
