data_PCOD9488456
_publ_section_title
;
Structure prediction by ZEFSAII (Michael W. Deem and Ramdas Pophale) SiO2 
 PCOD9488456
Probable space group: C M M M
;
_chemical_formula_sum "Si O2"
_cell_formula_units_Z 72
_cell_length_a 7.748487
_cell_length_b 19.045941
_cell_length_c 24.092940
_cell_angle_alpha 90.000000
_cell_angle_beta 90.000000
_cell_angle_gamma 90.000000
_cell_volume 3555.569257
_symmetry_space_group_name_H-M "C M M M"
_symmetry_group_IT_number 65
_symmetry_cell_setting 'orthorhombic'
loop_
_space_group_symop_operation_xyz
x,y,z
-x,-y,z
x,-y,-z
-x,y,-z
-x,-y,-z
x,y,-z
-x,y,z
x,-y,z
1/2+x,1/2+y,z
1/2-x,1/2-y,z
1/2+x,1/2-y,-z
1/2-x,1/2+y,-z
1/2-x,1/2-y,-z
1/2+x,1/2+y,-z
1/2-x,1/2+y,z
1/2+x,1/2-y,z
loop_
_atom_site_type_symbol
_atom_site_label
_atom_site_fract_x
_atom_site_fract_y
_atom_site_fract_z
Si Si1 0.794379 0.420891 0.332045
Si Si2 0.700295 0.914615 0.000000
Si Si3 0.707828 0.831791 0.772359
Si Si4 0.705554 0.330408 0.437549
Si Si5 0.711645 0.918406 0.878912
O O1 0.723769 0.500000 0.331204
O O2 0.725744 0.372844 0.281931
O O3 0.767950 0.383181 0.390725
O O4 0.000000 0.425873 0.323620
O O5 0.774205 0.894530 0.940020
O O6 0.500000 0.891906 0.000000
O O7 0.700606 0.000000 0.000000
O O8 0.500000 0.837557 0.772548
O O9 0.750000 0.750000 0.770564
O O10 0.769568 0.869842 0.828467
O O11 0.774134 0.343694 0.500000
O O12 0.500000 0.335933 0.439595
O O13 0.750000 0.250000 0.422794
O O14 0.500000 0.917579 0.880577
O O15 0.760266 0.000000 0.869895
#
# Coordination Sequence:
#
# PCOD9488456 Si02
#       5
#    16   8  16  16  16
#     4  10  21  36  54  76 101 131 168 209 253 299
#     4   7  10  18  37  66  93 117 152 199 244 282
#     4  10  20  33  49  70  98 130 163 201 246 295
#     4  10  21  37  57  80 106 136 168 202 243 292
#     4   8  13  24  44  68  93 122 159 202 243 284
#
# _framework density 20.249922000000002
#
# number of rings (size 3 to 8) (size 9 to 14) (size 15 to 20)
#    0.000    2.778    0.000    3.333    0.000    7.556 
#    0.000    2.778    0.000    2.000    0.000    0.000 
#    0.000    2.667    0.000    0.000    0.000    0.000 
#
# Total GULP energy -200818.798246 kJ/mol
# GULP energy per Si atom -5578.299951 kJ/mol
# Density = 2.020383 g / cm^3
# Si number density = 20.249922 Si / 1000 Ang^3
#
#
#
# Elastic Constant Matrix: (Units=GPa)
#
#
# Indices 1 2 3 4 5 6 
#
# 1 30.4476 3.2034 6.3693 0.0000 0.0000 0.0000
# 2 3.2034 160.9984 131.5722 0.0000 0.0000 0.0000
# 3 6.3693 131.5722 184.5514 0.0000 0.0000 0.0000
# 4 0.0000 0.0000 0.0000 -48.1723 0.0000 0.0000
# 5 0.0000 0.0000 0.0000 0.0000 -42.4683 0.0000
# 6 0.0000 0.0000 0.0000 0.0000 0.0000 21.0750
#
#
#
# Elastic Compliance Matrix: (Units=1/GPa)
#
#
# Indices 1 2 3 4 5 6 
#
# 1 0.033111 0.000659 -0.001613 0.000000 0.000000 0.000000
# 2 0.000659 0.014895 -0.010642 0.000000 0.000000 0.000000
# 3 -0.001613 -0.010642 0.013061 0.000000 0.000000 0.000000
# 4 0.000000 0.000000 0.000000 -0.020759 0.000000 0.000000
# 5 0.000000 0.000000 0.000000 0.000000 -0.023547 0.000000
# 6 0.000000 0.000000 0.000000 0.000000 0.000000 0.047450
#
#
# Mechanical properties :
#
#
# Convention : Reuss Voigt Hill
#
# Bulk Modulus (GPa) = 26.40156 73.14303 49.77229
# Shear Modulus (GPa) = 49.98654 1.74372 25.86513
#
# Velocity S-wave (km/s) = 4.97377 0.92896 3.57780
# Velocity P-wave (km/s) = 6.78607 6.11140 6.45755
#
# Compressibility (1/GPa) = 0.03787655
#
# Stress axis : x y z
#
# Youngs Moduli (GPa) = 30.20119 67.13752 76.56396
#
# Poissons Ratio (x) = -0.04425 0.12347
# Poissons Ratio (y) = -0.01990 0.81477
# Poissons Ratio (z) = 0.04870 0.71446
#
# Static dielectric constant tensor:
#      x y z
#    x 1.763220 0.000000 0.000000 
#    y 0.000000 1.667090 0.000000 
#    z 0.000000 0.000000 1.744870 
# 
# From -- ./inp_files/59302.got.cif
#   From: 2010.05.17/outbox.cif.g08.bks.cpg/sg65_30_cif.got.tgz:59302.got - 2010.06.03 17:01:31.
