data_PCOD9488073
_publ_section_title
;
Structure prediction by ZEFSAII (Michael W. Deem and Ramdas Pophale) SiO2 
 PCOD9488073
Probable space group: C M M M
;
_chemical_formula_sum "Si O2"
_cell_formula_units_Z 96
_cell_length_a 25.462267
_cell_length_b 25.851675
_cell_length_c 9.060205
_cell_angle_alpha 90.000000
_cell_angle_beta 90.000000
_cell_angle_gamma 90.000000
_cell_volume 5963.809736
_symmetry_space_group_name_H-M "C M M M"
_symmetry_group_IT_number 65
_symmetry_cell_setting 'orthorhombic'
loop_
_space_group_symop_operation_xyz
x,y,z
-x,-y,z
x,-y,-z
-x,y,-z
-x,-y,-z
x,y,-z
-x,y,z
x,-y,z
1/2+x,1/2+y,z
1/2-x,1/2-y,z
1/2+x,1/2-y,-z
1/2-x,1/2+y,-z
1/2-x,1/2-y,-z
1/2+x,1/2+y,-z
1/2-x,1/2+y,z
1/2+x,1/2-y,z
loop_
_atom_site_type_symbol
_atom_site_label
_atom_site_fract_x
_atom_site_fract_y
_atom_site_fract_z
Si Si1 0.750207 0.312783 0.830379
Si Si2 0.141446 0.813515 0.323706
Si Si3 0.062406 0.107387 0.823886
Si Si4 0.936292 0.000000 0.330170
Si Si5 0.358584 0.808866 0.675720
Si Si6 0.562784 0.113502 0.176812
Si Si7 0.561638 0.000000 0.821254
O O1 0.750000 0.250000 0.830915
O O2 0.698012 0.328923 0.743351
O O3 0.804331 0.327169 0.750817
O O4 0.748913 0.330402 0.000000
O O5 0.141339 0.820326 0.500000
O O6 0.096273 0.847429 0.249284
O O7 0.134087 0.752294 0.292110
O O8 0.078979 0.052371 0.753926
O O9 0.000000 0.114429 0.794970
O O10 0.069767 0.106556 0.000000
O O11 0.918263 0.000000 0.500000
O O12 0.000000 0.000000 0.331682
O O13 0.354703 0.814331 0.500000
O O14 0.405939 0.842199 0.740222
O O15 0.500000 0.116553 0.201901
O O16 0.582220 0.056097 0.225780
O O17 0.570787 0.118085 0.000000
O O18 0.500000 0.000000 0.782041
O O19 0.563906 0.000000 0.000000
#
# Coordination Sequence:
#
# PCOD9488073 Si02
#       7
#    16  16  16   8  16  16   8
#     4   9  17  31  51  71  91 120 161 202 237 280
#     4  10  20  33  49  70  98 130 161 195 239 289
#     4  10  20  33  50  73 100 129 163 202 240 281
#     4   9  17  31  51  72  95 126 163 199 238 286
#     4  10  20  32  47  70 100 130 159 194 239 290
#     4   9  17  30  49  71  95 125 161 199 239 284
#     4   7  12  26  47  68  89 118 159 201 236 274
#
# _framework density 16.097093000000001
#
# number of rings (size 3 to 8) (size 9 to 14) (size 15 to 20)
#    0.000    2.667    0.000    3.250    0.000    7.000 
#    0.000    3.750    0.000    2.500    0.000    5.833 
#    0.000    0.000    0.000    0.000    0.000    0.000 
#
# Total GULP energy -267446.160271 kJ/mol
# GULP energy per Si atom -5571.795006 kJ/mol
# Density = 1.606046 g / cm^3
# Si number density = 16.097093 Si / 1000 Ang^3
#
#
#
# Elastic Constant Matrix: (Units=GPa)
#
#
# Indices 1 2 3 4 5 6 
#
# 1 73.0102 57.9687 61.9897 0.0000 0.0000 0.0000
# 2 57.9687 94.0871 66.7112 0.0000 0.0000 0.0000
# 3 61.9897 66.7112 92.0659 0.0000 0.0000 0.0000
# 4 0.0000 0.0000 0.0000 24.6490 0.0000 0.0000
# 5 0.0000 0.0000 0.0000 0.0000 25.1871 0.0000
# 6 0.0000 0.0000 0.0000 0.0000 0.0000 -4.6155
#
#
#
# Elastic Compliance Matrix: (Units=1/GPa)
#
#
# Indices 1 2 3 4 5 6 
#
# 1 0.036300 -0.010355 -0.016938 0.000000 0.000000 0.000000
# 2 -0.010355 0.024813 -0.011007 0.000000 0.000000 0.000000
# 3 -0.016938 -0.011007 0.030242 0.000000 0.000000 0.000000
# 4 0.000000 0.000000 0.000000 0.040570 0.000000 0.000000
# 5 0.000000 0.000000 0.000000 0.000000 0.039703 0.000000
# 6 0.000000 0.000000 0.000000 0.000000 0.000000 -0.216661
#
#
# Mechanical properties :
#
#
# Convention : Reuss Voigt Hill
#
# Bulk Modulus (GPa) = 67.77666 70.27802 69.02734
# Shear Modulus (GPa) = 137.04213 13.87703 75.45958
#
# Velocity S-wave (km/s) = 9.23686 2.93931 6.85416
# Velocity P-wave (km/s) = 12.48822 7.43458 10.27688
#
# Compressibility (1/GPa) = 0.01475434
#
# Stress axis : x y z
#
# Youngs Moduli (GPa) = 27.54833 40.30138 33.06659
#
# Poissons Ratio (x) = 0.41734 0.56007
# Poissons Ratio (y) = 0.28528 0.36397
# Poissons Ratio (z) = 0.46661 0.44360
#
# Static dielectric constant tensor:
#      x y z
#    x 1.518300 0.000000 0.000000 
#    y 0.000000 1.538680 0.000000 
#    z 0.000000 0.000000 1.536520 
# 
# From -- ./inp_files/14357.got.cif
#   From: 2010.05.17/outbox.cif.g08.bks.cpg/sg65_8_cif.got.tgz:14357.got - 2010.06.03 17:01:31.
