data_PCOD9488007
_publ_section_title
;
Structure prediction by ZEFSAII (Michael W. Deem and Ramdas Pophale) SiO2 
 PCOD9488007
Probable space group: C M M M
;
_chemical_formula_sum "Si O2"
_cell_formula_units_Z 80
_cell_length_a 8.928719
_cell_length_b 28.256048
_cell_length_c 19.732871
_cell_angle_alpha 90.000000
_cell_angle_beta 90.000000
_cell_angle_gamma 90.000000
_cell_volume 4978.412194
_symmetry_space_group_name_H-M "C M M M"
_symmetry_group_IT_number 65
_symmetry_cell_setting 'orthorhombic'
loop_
_space_group_symop_operation_xyz
x,y,z
-x,-y,z
x,-y,-z
-x,y,-z
-x,-y,-z
x,y,-z
-x,y,z
x,-y,z
1/2+x,1/2+y,z
1/2-x,1/2-y,z
1/2+x,1/2-y,-z
1/2-x,1/2+y,-z
1/2-x,1/2-y,-z
1/2+x,1/2+y,-z
1/2-x,1/2+y,z
1/2+x,1/2-y,z
loop_
_atom_site_type_symbol
_atom_site_label
_atom_site_fract_x
_atom_site_fract_y
_atom_site_fract_z
Si Si1 0.327052 0.379607 0.830227
Si Si2 0.321403 0.055589 0.284098
Si Si3 0.320730 0.197858 0.077173
Si Si4 0.335671 0.945839 0.919316
Si Si5 0.173421 0.942756 0.575016
O O1 0.500000 0.369704 0.816761
O O2 0.251840 0.406859 0.767095
O O3 0.245536 0.334168 0.862733
O O4 0.301431 0.417796 0.889606
O O5 0.500000 0.056648 0.277070
O O6 0.272676 0.069409 0.360323
O O7 0.273850 0.000000 0.272687
O O8 0.500000 0.200321 0.082656
O O9 0.250000 0.250000 0.080823
O O10 0.287214 0.179236 0.000000
O O11 0.500000 0.925704 0.898280
O O12 0.332269 0.000000 0.896090
O O13 0.333486 0.945536 0.000000
O O14 0.222377 0.926217 0.500000
O O15 0.000000 0.928291 0.585333
O O16 0.173942 0.000000 0.572593
#
# Coordination Sequence:
#
# PCOD9488007 Si02
#       5
#    16  16  16  16  16
#     4  12  23  32  46  68  94 123 155 192 236 284
#     4  10  20  32  46  66  95 131 168 203 238 278
#     4  10  21  38  58  76  94 117 149 192 241 291
#     4   9  18  32  47  62  84 117 155 192 230 273
#     4   8  14  26  44  65  91 124 160 197 236 277
#
# _framework density 16.069379000000001
#
# number of rings (size 3 to 8) (size 9 to 14) (size 15 to 20)
#    0.000    2.200    0.000    5.400    0.000    8.400 
#    0.000    3.000    0.000    0.000    0.000    0.000 
#    0.000    0.800    0.000    3.000    0.000    4.600 
#
# Total GULP energy -222872.274571 kJ/mol
# GULP energy per Si atom -5571.806864 kJ/mol
# Density = 1.603280 g / cm^3
# Si number density = 16.069379 Si / 1000 Ang^3
#
#
#
# Elastic Constant Matrix: (Units=GPa)
#
#
# Indices 1 2 3 4 5 6 
#
# 1 80.5041 34.9087 51.0725 0.0000 0.0000 0.0000
# 2 34.9087 60.7081 42.1781 0.0000 0.0000 0.0000
# 3 51.0725 42.1781 113.7723 0.0000 0.0000 0.0000
# 4 0.0000 0.0000 0.0000 29.9153 0.0000 0.0000
# 5 0.0000 0.0000 0.0000 0.0000 27.8024 0.0000
# 6 0.0000 0.0000 0.0000 0.0000 0.0000 22.2523
#
#
#
# Elastic Compliance Matrix: (Units=1/GPa)
#
#
# Indices 1 2 3 4 5 6 
#
# 1 0.019262 -0.006827 -0.006116 0.000000 0.000000 0.000000
# 2 -0.006827 0.024607 -0.006058 0.000000 0.000000 0.000000
# 3 -0.006116 -0.006058 0.013781 0.000000 0.000000 0.000000
# 4 0.000000 0.000000 0.000000 0.033428 0.000000 0.000000
# 5 0.000000 0.000000 0.000000 0.000000 0.035968 0.000000
# 6 0.000000 0.000000 0.000000 0.000000 0.000000 0.044939
#
#
# Mechanical properties :
#
#
# Convention : Reuss Voigt Hill
#
# Bulk Modulus (GPa) = 50.89497 56.81148 53.85322
# Shear Modulus (GPa) = 23.09100 24.44901 23.77000
#
# Velocity S-wave (km/s) = 3.79483 3.90483 3.85022
# Velocity P-wave (km/s) = 7.13735 7.46732 7.30420
#
# Compressibility (1/GPa) = 0.01964831
#
# Stress axis : x y z
#
# Youngs Moduli (GPa) = 51.91560 40.63946 72.56600
#
# Poissons Ratio (x) = 0.27745 0.44380
# Poissons Ratio (y) = 0.35443 0.43957
# Poissons Ratio (z) = 0.31750 0.24618
#
# Static dielectric constant tensor:
#      x y z
#    x 1.558130 0.000000 0.000000 
#    y 0.000000 1.539030 0.000000 
#    z 0.000000 0.000000 1.567860 
# 
# From -- ./inp_files/60524.got.cif
#   From: 2010.05.17/outbox.cif.g08.bks.cpg/sg65_31_cif.got.tgz:60524.got - 2010.06.03 17:01:31.
