data_PCOD9488229
_publ_section_title
;
Structure prediction by ZEFSAII (Michael W. Deem and Ramdas Pophale) SiO2 
 PCOD9488229
Probable space group: C M M M
;
_chemical_formula_sum "Si O2"
_cell_formula_units_Z 120
_cell_length_a 28.826437
_cell_length_b 7.760792
_cell_length_c 27.294068
_cell_angle_alpha 90.000000
_cell_angle_beta 90.000000
_cell_angle_gamma 90.000000
_cell_volume 6106.119216
_symmetry_space_group_name_H-M "C M M M"
_symmetry_group_IT_number 65
_symmetry_cell_setting 'orthorhombic'
loop_
_space_group_symop_operation_xyz
x,y,z
-x,-y,z
x,-y,-z
-x,y,-z
-x,-y,-z
x,y,-z
-x,y,z
x,-y,z
1/2+x,1/2+y,z
1/2-x,1/2-y,z
1/2+x,1/2-y,-z
1/2-x,1/2+y,-z
1/2-x,1/2-y,-z
1/2+x,1/2+y,-z
1/2-x,1/2+y,z
1/2+x,1/2-y,z
loop_
_atom_site_type_symbol
_atom_site_label
_atom_site_fract_x
_atom_site_fract_y
_atom_site_fract_z
Si Si1 0.948277 0.702205 0.748926
Si Si2 0.601287 0.295954 0.845636
Si Si3 0.197404 0.799048 0.194626
Si Si4 0.696409 0.206931 0.500000
Si Si5 0.053385 0.708089 0.945193
Si Si6 0.353451 0.210705 0.598552
Si Si7 0.948848 0.290210 0.556783
Si Si8 0.649516 0.208896 0.706501
O O1 0.950668 0.500000 0.736081
O O2 0.934293 0.716728 0.806167
O O3 0.902633 0.771254 0.720725
O O4 0.000000 0.775318 0.740260
O O5 0.600756 0.500000 0.835541
O O6 0.652982 0.223714 0.834593
O O7 0.585066 0.267346 0.900774
O O8 0.250000 0.750000 0.183117
O O9 0.184744 0.764581 0.251322
O O10 0.195444 0.000000 0.185364
O O11 0.750000 0.250000 0.500000
O O12 0.673746 0.271426 0.449519
O O13 0.689723 0.000000 0.500000
O O14 0.053385 0.500000 0.945022
O O15 0.000000 0.764169 0.937172
O O16 0.067407 0.764490 0.000000
O O17 0.406750 0.264022 0.590506
O O18 0.337118 0.266651 0.652001
O O19 0.351873 0.000000 0.598248
O O20 0.940548 0.240693 0.500000
O O21 0.949290 0.500000 0.557111
O O22 0.000000 0.231051 0.571403
O O23 0.648373 0.000000 0.707204
#
# Coordination Sequence:
#
# PCOD9488229 Si02
#       8
#    16  16  16   8  16  16  16  16
#     4   9  17  29  45  67  98 134 167 197 233 284
#     4  10  20  32  49  75 102 130 167 211 253 291
#     4  10  21  37  55  74  96 123 160 207 256 304
#     4  10  20  34  49  65  87 115 148 186 231 282
#     4   9  18  32  50  75 109 147 181 208 237 279
#     4   9  16  28  45  65  92 122 150 186 232 283
#     4   8  12  19  35  61  91 120 147 178 222 272
#     4   9  18  31  48  71  97 126 158 194 241 291
#
# _framework density 19.652415999999999
#
# number of rings (size 3 to 8) (size 9 to 14) (size 15 to 20)
#    0.000    2.800    0.667    2.000    0.000    5.067 
#    0.000    5.333    0.000    0.400    0.000    0.000 
#    0.000    2.133    0.000    0.000    0.000    0.133 
#
# Total GULP energy -334501.014743 kJ/mol
# GULP energy per Si atom -5575.016912 kJ/mol
# Density = 1.960769 g / cm^3
# Si number density = 19.652416 Si / 1000 Ang^3
#
#
#
# Elastic Constant Matrix: (Units=GPa)
#
#
# Indices 1 2 3 4 5 6 
#
# 1 82.3219 -1.0639 30.9049 0.0000 0.0000 0.0000
# 2 -1.0639 21.0737 -16.1646 0.0000 0.0000 0.0000
# 3 30.9049 -16.1646 88.1863 0.0000 0.0000 0.0000
# 4 0.0000 0.0000 0.0000 -16.2265 0.0000 0.0000
# 5 0.0000 0.0000 0.0000 0.0000 8.1967 0.0000
# 6 0.0000 0.0000 0.0000 0.0000 0.0000 9.0285
#
#
#
# Elastic Compliance Matrix: (Units=1/GPa)
#
#
# Indices 1 2 3 4 5 6 
#
# 1 0.014220 -0.003613 -0.005646 0.000000 0.000000 0.000000
# 2 -0.003613 0.056134 0.011555 0.000000 0.000000 0.000000
# 3 -0.005646 0.011555 0.015436 0.000000 0.000000 0.000000
# 4 0.000000 0.000000 0.000000 -0.061628 0.000000 0.000000
# 5 0.000000 0.000000 0.000000 0.000000 0.122001 0.000000
# 6 0.000000 0.000000 0.000000 0.000000 0.000000 0.110761
#
#
# Mechanical properties :
#
#
# Convention : Reuss Voigt Hill
#
# Bulk Modulus (GPa) = 11.06384 24.32608 17.69496
# Shear Modulus (GPa) = 17.70174 12.06009 14.88091
#
# Velocity S-wave (km/s) = 3.00449 2.47992 2.75472
# Velocity P-wave (km/s) = 4.20451 4.53928 4.37510
#
# Compressibility (1/GPa) = 0.09038454
#
# Stress axis : x y z
#
# Youngs Moduli (GPa) = 70.32237 17.81457 64.78243
#
# Poissons Ratio (x) = 0.06436 0.36574
# Poissons Ratio (y) = 0.25405 -0.74859
# Poissons Ratio (z) = 0.39702 -0.20585
#
# Static dielectric constant tensor:
#      x y z
#    x 1.706370 0.000000 0.000000 
#    y 0.000000 1.744080 0.000000 
#    z 0.000000 0.000000 1.685360 
# 
# From -- ./inp_files/76100.got.cif
#   From: 2010.05.17/outbox.cif.g08.bks.cpg/sg65_39_cif.got.tgz:76100.got - 2010.06.03 17:01:31.
