data_PCOD9488732
_publ_section_title
;
Structure prediction by ZEFSAII (Michael W. Deem and Ramdas Pophale) SiO2 
 PCOD9488732
Probable space group: C M M M
;
_chemical_formula_sum "Si O2"
_cell_formula_units_Z 88
_cell_length_a 7.566359
_cell_length_b 18.602999
_cell_length_c 31.252352
_cell_angle_alpha 90.000000
_cell_angle_beta 90.000000
_cell_angle_gamma 90.000000
_cell_volume 4398.986339
_symmetry_space_group_name_H-M "C M M M"
_symmetry_group_IT_number 65
_symmetry_cell_setting 'orthorhombic'
loop_
_space_group_symop_operation_xyz
x,y,z
-x,-y,z
x,-y,-z
-x,y,-z
-x,-y,-z
x,y,-z
-x,y,z
x,-y,z
1/2+x,1/2+y,z
1/2-x,1/2-y,z
1/2+x,1/2-y,-z
1/2-x,1/2+y,-z
1/2-x,1/2-y,-z
1/2+x,1/2+y,-z
1/2-x,1/2+y,z
1/2+x,1/2-y,z
loop_
_atom_site_type_symbol
_atom_site_label
_atom_site_fract_x
_atom_site_fract_y
_atom_site_fract_z
Si Si1 0.787860 0.665797 0.130292
Si Si2 0.791258 0.080749 0.689982
Si Si3 0.000000 0.415357 0.448836
Si Si4 0.211308 0.165117 0.394220
Si Si5 0.715418 0.916111 0.046836
Si Si6 0.290215 0.834349 0.775365
O O1 0.750000 0.750000 0.125708
O O2 0.718916 0.624750 0.088712
O O3 0.719638 0.644413 0.177507
O O4 0.000000 0.655597 0.130892
O O5 0.729047 0.131821 0.651532
O O6 0.769242 0.117773 0.735875
O O7 0.000000 0.074407 0.682932
O O8 0.715334 0.000000 0.688717
O O9 0.171797 0.376261 0.429177
O O10 0.000000 0.500000 0.437273
O O11 0.000000 0.409445 0.500000
O O12 0.250000 0.250000 0.395160
O O13 0.000000 0.154613 0.399969
O O14 0.500000 0.912435 0.047028
O O15 0.762292 0.000000 0.049517
O O16 0.773118 0.888480 0.000000
O O17 0.500000 0.841041 0.777167
O O18 0.250000 0.750000 0.768340
#
# Coordination Sequence:
#
# PCOD9488732 Si02
#       6
#    16  16   8  16  16  16
#     4   9  18  31  47  70  99 128 168 216 267 325
#     4  10  22  38  58  85 118 153 193 241 294 352
#     4  11  26  46  70 102 137 175 219 269 325 379
#     4  11  23  43  68  99 131 172 218 267 318 375
#     4   8  14  26  45  67  91 123 163 210 262 317
#     4  10  20  33  51  75 104 144 183 227 280 337
#
# _framework density 20.004608999999999
#
# number of rings (size 3 to 8) (size 9 to 14) (size 15 to 20)
#    0.000    2.273    0.909    2.182    1.273    5.455 
#    0.000    2.727    0.000    0.545    0.000    1.273 
#    0.000    0.000    0.000    0.000    0.000    0.000 
#
# Total GULP energy -245527.118123 kJ/mol
# GULP energy per Si atom -5580.161776 kJ/mol
# Density = 1.995908 g / cm^3
# Si number density = 20.004609 Si / 1000 Ang^3
#
#
#
# Elastic Constant Matrix: (Units=GPa)
#
#
# Indices 1 2 3 4 5 6 
#
# 1 77.9917 26.6853 33.1428 0.0000 0.0000 0.0000
# 2 26.6853 130.4774 102.7196 0.0000 0.0000 0.0000
# 3 33.1428 102.7196 173.6886 0.0000 0.0000 0.0000
# 4 0.0000 0.0000 0.0000 41.1355 0.0000 0.0000
# 5 0.0000 0.0000 0.0000 0.0000 -35.3103 0.0000
# 6 0.0000 0.0000 0.0000 0.0000 0.0000 3.7190
#
#
#
# Elastic Compliance Matrix: (Units=1/GPa)
#
#
# Indices 1 2 3 4 5 6 
#
# 1 0.014095 -0.001432 -0.001843 0.000000 0.000000 0.000000
# 2 -0.001432 0.014487 -0.008294 0.000000 0.000000 0.000000
# 3 -0.001843 -0.008294 0.011014 0.000000 0.000000 0.000000
# 4 0.000000 0.000000 0.000000 0.024310 0.000000 0.000000
# 5 0.000000 0.000000 0.000000 0.000000 -0.028320 0.000000
# 6 0.000000 0.000000 0.000000 0.000000 0.000000 0.268890
#
#
# Mechanical properties :
#
#
# Convention : Reuss Voigt Hill
#
# Bulk Modulus (GPa) = 60.76045 78.58366 69.67205
# Shear Modulus (GPa) = 15.01053 16.54951 15.78002
#
# Velocity S-wave (km/s) = 2.74223 2.87938 2.81164
# Velocity P-wave (km/s) = 6.36126 7.10088 6.74122
#
# Compressibility (1/GPa) = 0.01645807
#
# Stress axis : x y z
#
# Youngs Moduli (GPa) = 70.94765 69.02866 90.79162
#
# Poissons Ratio (x) = 0.09885 0.16729
# Poissons Ratio (y) = 0.10160 0.75304
# Poissons Ratio (z) = 0.13073 0.57254
#
# Static dielectric constant tensor:
#      x y z
#    x 1.755790 0.000000 0.000000 
#    y 0.000000 1.672870 0.000000 
#    z 0.000000 0.000000 1.722760 
# 
# From -- ./inp_files/76500.got.cif
#   From: 2010.05.17/outbox.cif.g08.bks.cpg/sg65_39_cif.got.tgz:76500.got - 2010.06.03 17:01:31.
