data_PCOD9488546
_publ_section_title
;
Structure prediction by ZEFSAII (Michael W. Deem and Ramdas Pophale) SiO2 
 PCOD9488546
Probable space group: C M M M
;
_chemical_formula_sum "Si O2"
_cell_formula_units_Z 112
_cell_length_a 27.566689
_cell_length_b 14.534435
_cell_length_c 14.738484
_cell_angle_alpha 90.000000
_cell_angle_beta 90.000000
_cell_angle_gamma 90.000000
_cell_volume 5905.213107
_symmetry_space_group_name_H-M "C M M M"
_symmetry_group_IT_number 65
_symmetry_cell_setting 'orthorhombic'
loop_
_space_group_symop_operation_xyz
x,y,z
-x,-y,z
x,-y,-z
-x,y,-z
-x,-y,-z
x,y,-z
-x,y,z
x,-y,z
1/2+x,1/2+y,z
1/2-x,1/2-y,z
1/2+x,1/2-y,-z
1/2-x,1/2+y,-z
1/2-x,1/2-y,-z
1/2+x,1/2+y,-z
1/2-x,1/2+y,z
1/2+x,1/2-y,z
loop_
_atom_site_type_symbol
_atom_site_label
_atom_site_fract_x
_atom_site_fract_y
_atom_site_fract_z
Si Si1 0.811298 0.895825 0.849276
Si Si2 0.389056 0.107869 0.610170
Si Si3 0.942861 0.236550 0.718486
Si Si4 0.296100 0.105946 0.109619
Si Si5 0.361298 0.395664 0.653434
Si Si6 0.300934 0.225496 0.398106
Si Si7 0.882278 0.739794 0.897416
O O1 0.756143 0.861343 0.855149
O O2 0.830774 0.898744 0.746864
O O3 0.849448 0.831460 0.899296
O O4 0.810860 0.000000 0.885549
O O5 0.392142 0.119551 0.500000
O O6 0.427294 0.173763 0.660118
O O7 0.336439 0.147816 0.640726
O O8 0.394395 0.000000 0.630078
O O9 0.913064 0.150127 0.677050
O O10 0.923138 0.250059 0.821131
O O11 0.000000 0.222766 0.716285
O O12 0.343179 0.163982 0.134856
O O13 0.302157 0.000000 0.137310
O O14 0.293138 0.110546 0.000000
O O15 0.364455 0.500000 0.618032
O O16 0.332515 0.318529 0.597710
O O17 0.288967 0.192724 0.500000
O O18 0.250000 0.250000 0.352120
O O19 0.899247 0.719253 0.000000
#
# Coordination Sequence:
#
# PCOD9488546 Si02
#       7
#    16  16  16  16  16  16  16
#     4   9  17  29  47  73 102 131 167 210 253 300
#     4   9  19  37  60  84 108 134 168 213 263 311
#     4  10  22  38  55  76 101 131 173 227 278 319
#     4   9  17  29  46  69  97 129 164 202 247 300
#     4   9  19  34  51  73 102 137 175 216 262 309
#     4   9  18  32  51  79 114 146 173 201 239 299
#     4  10  20  33  50  72 101 137 173 209 253 308
#
# _framework density 18.966293
#
# number of rings (size 3 to 8) (size 9 to 14) (size 15 to 20)
#    0.000    2.714    0.000    0.857    0.000    8.000 
#    0.000    3.571    0.000    0.000    0.000   11.000 
#    0.000    0.000    0.000    0.000    0.000    0.000 
#
# Total GULP energy -312183.191326 kJ/mol
# GULP energy per Si atom -5574.699845 kJ/mol
# Density = 1.892312 g / cm^3
# Si number density = 18.966293 Si / 1000 Ang^3
#
#
#
# Elastic Constant Matrix: (Units=GPa)
#
#
# Indices 1 2 3 4 5 6 
#
# 1 121.2617 27.4248 6.4000 0.0000 0.0000 0.0000
# 2 27.4248 101.5480 10.3062 0.0000 0.0000 0.0000
# 3 6.4000 10.3062 49.5719 0.0000 0.0000 0.0000
# 4 0.0000 0.0000 0.0000 15.8487 0.0000 0.0000
# 5 0.0000 0.0000 0.0000 0.0000 14.5826 0.0000
# 6 0.0000 0.0000 0.0000 0.0000 0.0000 12.3437
#
#
#
# Elastic Compliance Matrix: (Units=1/GPa)
#
#
# Indices 1 2 3 4 5 6 
#
# 1 0.008804 -0.002311 -0.000656 0.000000 0.000000 0.000000
# 2 -0.002311 0.010666 -0.001919 0.000000 0.000000 0.000000
# 3 -0.000656 -0.001919 0.020656 0.000000 0.000000 0.000000
# 4 0.000000 0.000000 0.000000 0.063097 0.000000 0.000000
# 5 0.000000 0.000000 0.000000 0.000000 0.068575 0.000000
# 6 0.000000 0.000000 0.000000 0.000000 0.000000 0.081013
#
#
# Mechanical properties :
#
#
# Convention : Reuss Voigt Hill
#
# Bulk Modulus (GPa) = 32.94463 40.07150 36.50806
# Shear Modulus (GPa) = 18.33503 23.77173 21.05338
#
# Velocity S-wave (km/s) = 3.11258 3.54413 3.33534
# Velocity P-wave (km/s) = 5.50684 6.15804 5.84152
#
# Compressibility (1/GPa) = 0.03035396
#
# Stress axis : x y z
#
# Youngs Moduli (GPa) = 113.58563 93.75159 48.41108
#
# Poissons Ratio (x) = 0.21667 0.03177
# Poissons Ratio (y) = 0.26250 0.09291
# Poissons Ratio (z) = 0.07453 0.17993
#
# Static dielectric constant tensor:
#      x y z
#    x 1.630190 0.000000 0.000000 
#    y 0.000000 1.675780 0.000000 
#    z 0.000000 0.000000 1.703610 
# 
# From -- ./inp_files/41106.got.cif
#   From: 2010.05.17/outbox.cif.g08.bks.cpg/sg65_21_cif.got.tgz:41106.got - 2010.06.03 17:01:31.
