data_PCOD9488664
_publ_section_title
;
Structure prediction by ZEFSAII (Michael W. Deem and Ramdas Pophale) SiO2 
 PCOD9488664
Probable space group: C M M M
;
_chemical_formula_sum "Si O2"
_cell_formula_units_Z 56
_cell_length_a 29.208290
_cell_length_b 8.430401
_cell_length_c 11.298485
_cell_angle_alpha 90.000000
_cell_angle_beta 90.000000
_cell_angle_gamma 90.000000
_cell_volume 2782.111799
_symmetry_space_group_name_H-M "C M M M"
_symmetry_group_IT_number 65
_symmetry_cell_setting 'orthorhombic'
loop_
_space_group_symop_operation_xyz
x,y,z
-x,-y,z
x,-y,-z
-x,y,-z
-x,-y,-z
x,y,-z
-x,y,z
x,-y,z
1/2+x,1/2+y,z
1/2-x,1/2-y,z
1/2+x,1/2-y,-z
1/2-x,1/2+y,-z
1/2-x,1/2-y,-z
1/2+x,1/2+y,-z
1/2-x,1/2+y,z
1/2+x,1/2-y,z
loop_
_atom_site_type_symbol
_atom_site_label
_atom_site_fract_x
_atom_site_fract_y
_atom_site_fract_z
Si Si1 0.632774 0.318578 0.291909
Si Si2 0.946664 0.806538 0.866154
Si Si3 0.197243 0.313009 0.500000
Si Si4 0.702862 0.180138 0.140610
O O1 0.625916 0.500000 0.328597
O O2 0.584728 0.250075 0.243312
O O3 0.665441 0.239033 0.389146
O O4 0.663394 0.300744 0.174692
O O5 0.000000 0.765252 0.850894
O O6 0.943550 0.000000 0.865928
O O7 0.932838 0.754185 0.000000
O O8 0.201670 0.500000 0.500000
O O9 0.250000 0.250000 0.500000
O O10 0.750000 0.250000 0.190304
O O11 0.694384 0.000000 0.183211
O O12 0.706780 0.171733 0.000000
#
# Coordination Sequence:
#
# PCOD9488664 Si02
#       4
#    16  16   8  16
#     4  11  21  35  57  83 110 143 186 233 281 330
#     4   8  15  30  55  88 121 149 180 223 274 327
#     4  12  26  44  61  78 107 147 192 239 285 338
#     4  10  20  33  50  75 108 143 179 221 273 334
#
# _framework density 20.128595000000001
#
# number of rings (size 3 to 8) (size 9 to 14) (size 15 to 20)
#    0.000    2.000    0.000    5.571    0.000    2.857 
#    0.000    0.714    0.000    7.714    0.000   10.000 
#    0.000    0.000    0.000    0.000    0.000    0.000 
#
# Total GULP energy -155947.981048 kJ/mol
# GULP energy per Si atom -5569.570752 kJ/mol
# Density = 2.008278 g / cm^3
# Si number density = 20.128595 Si / 1000 Ang^3
#
#
#
# Elastic Constant Matrix: (Units=GPa)
#
#
# Indices 1 2 3 4 5 6 
#
# 1 128.4158 18.0936 67.3874 0.0000 0.0000 0.0000
# 2 18.0936 51.1423 34.4751 0.0000 0.0000 0.0000
# 3 67.3874 34.4751 92.1642 0.0000 0.0000 0.0000
# 4 0.0000 0.0000 0.0000 25.5873 0.0000 0.0000
# 5 0.0000 0.0000 0.0000 0.0000 25.8875 0.0000
# 6 0.0000 0.0000 0.0000 0.0000 0.0000 14.4155
#
#
#
# Elastic Compliance Matrix: (Units=1/GPa)
#
#
# Indices 1 2 3 4 5 6 
#
# 1 0.012850 0.002390 -0.010289 0.000000 0.000000 0.000000
# 2 0.002390 0.026591 -0.011694 0.000000 0.000000 0.000000
# 3 -0.010289 -0.011694 0.022748 0.000000 0.000000 0.000000
# 4 0.000000 0.000000 0.000000 0.039082 0.000000 0.000000
# 5 0.000000 0.000000 0.000000 0.000000 0.038629 0.000000
# 6 0.000000 0.000000 0.000000 0.000000 0.000000 0.069370
#
#
# Mechanical properties :
#
#
# Convention : Reuss Voigt Hill
#
# Bulk Modulus (GPa) = 43.47560 56.84830 50.16195
# Shear Modulus (GPa) = 19.52185 23.29578 21.40882
#
# Velocity S-wave (km/s) = 3.11763 3.40567 3.26483
# Velocity P-wave (km/s) = 5.88263 6.61579 6.25995
#
# Compressibility (1/GPa) = 0.02300141
#
# Stress axis : x y z
#
# Youngs Moduli (GPa) = 77.82135 37.60714 43.96035
#
# Poissons Ratio (x) = -0.08988 0.45233
# Poissons Ratio (y) = -0.18599 0.51407
# Poissons Ratio (z) = 0.80074 0.43978
#
# Static dielectric constant tensor:
#      x y z
#    x 1.745820 0.000000 0.000000 
#    y 0.000000 1.738330 0.000000 
#    z 0.000000 0.000000 1.787560 
# 
# From -- ./inp_files/20453.got.cif
#   From: 2010.05.17/outbox.cif.g08.bks.cpg/sg65_11_cif.got.tgz:20453.got - 2010.06.03 17:01:31.
