data_PCOD9488815
_publ_section_title
;
Structure prediction by ZEFSAII (Michael W. Deem and Ramdas Pophale) SiO2 
 PCOD9488815
Probable space group: C M M M
;
_chemical_formula_sum "Si O2"
_cell_formula_units_Z 96
_cell_length_a 18.172866
_cell_length_b 23.308431
_cell_length_c 13.280526
_cell_angle_alpha 90.000000
_cell_angle_beta 90.000000
_cell_angle_gamma 90.000000
_cell_volume 5625.378394
_symmetry_space_group_name_H-M "C M M M"
_symmetry_group_IT_number 65
_symmetry_cell_setting 'orthorhombic'
loop_
_space_group_symop_operation_xyz
x,y,z
-x,-y,z
x,-y,-z
-x,y,-z
-x,-y,-z
x,y,-z
-x,y,z
x,-y,z
1/2+x,1/2+y,z
1/2-x,1/2-y,z
1/2+x,1/2-y,-z
1/2-x,1/2+y,-z
1/2-x,1/2-y,-z
1/2+x,1/2+y,-z
1/2-x,1/2+y,z
1/2+x,1/2-y,z
loop_
_atom_site_type_symbol
_atom_site_label
_atom_site_fract_x
_atom_site_fract_y
_atom_site_fract_z
Si Si1 0.821427 0.932537 0.880005
Si Si2 0.413235 0.666046 0.230089
Si Si3 0.710020 0.311804 0.383554
Si Si4 0.415092 0.785569 0.880150
Si Si5 0.915855 0.568693 0.389810
Si Si6 0.312769 0.122271 0.228395
O O1 0.876423 0.890145 0.820054
O O2 0.739304 0.913818 0.845869
O O3 0.833140 0.000000 0.857085
O O4 0.830129 0.924502 0.000000
O O5 0.500000 0.657627 0.246487
O O6 0.369725 0.684745 0.330906
O O7 0.402936 0.720281 0.155488
O O8 0.706472 0.329215 0.500000
O O9 0.750000 0.250000 0.379165
O O10 0.759525 0.351604 0.313175
O O11 0.500000 0.800664 0.852767
O O12 0.356706 0.827600 0.828626
O O13 0.408177 0.789278 0.000000
O O14 0.886915 0.588937 0.500000
O O15 0.916909 0.500000 0.393394
O O16 0.870761 0.586607 0.293011
O O17 0.000000 0.589161 0.381857
#
# Coordination Sequence:
#
# PCOD9488815 Si02
#       6
#    16  16  16  16  16  16
#     4  10  22  37  55  81 108 139 185 235 279 322
#     4  10  21  38  58  80 108 144 181 220 271 326
#     4  10  20  35  53  79 111 140 171 212 260 317
#     4  10  20  33  51  78 109 142 180 218 263 325
#     4   9  18  32  50  74 104 139 181 224 264 312
#     4  11  19  33  54  77 107 145 174 221 267 329
#
# _framework density 17.065518000000001
#
# number of rings (size 3 to 8) (size 9 to 14) (size 15 to 20)
#    0.000    2.000    1.667    3.000    0.000    1.667 
#    0.000    3.333    0.000    4.500    0.000   11.667 
#    0.000    0.000    0.000    0.000    0.000    0.000 
#
# Total GULP energy -267595.698209 kJ/mol
# GULP energy per Si atom -5574.910379 kJ/mol
# Density = 1.702668 g / cm^3
# Si number density = 17.065518 Si / 1000 Ang^3
#
#
#
# Elastic Constant Matrix: (Units=GPa)
#
#
# Indices 1 2 3 4 5 6 
#
# 1 110.7524 52.6151 55.1398 0.0000 0.0000 0.0000
# 2 52.6151 81.8713 43.8557 0.0000 0.0000 0.0000
# 3 55.1398 43.8557 101.3046 0.0000 0.0000 0.0000
# 4 0.0000 0.0000 0.0000 23.2639 0.0000 0.0000
# 5 0.0000 0.0000 0.0000 0.0000 25.1822 0.0000
# 6 0.0000 0.0000 0.0000 0.0000 0.0000 21.7182
#
#
#
# Elastic Compliance Matrix: (Units=1/GPa)
#
#
# Indices 1 2 3 4 5 6 
#
# 1 0.014793 -0.006762 -0.005124 0.000000 0.000000 0.000000
# 2 -0.006762 0.018993 -0.004542 0.000000 0.000000 0.000000
# 3 -0.005124 -0.004542 0.014627 0.000000 0.000000 0.000000
# 4 0.000000 0.000000 0.000000 0.042985 0.000000 0.000000
# 5 0.000000 0.000000 0.000000 0.000000 0.039711 0.000000
# 6 0.000000 0.000000 0.000000 0.000000 0.000000 0.046044
#
#
# Mechanical properties :
#
#
# Convention : Reuss Voigt Hill
#
# Bulk Modulus (GPa) = 64.28285 66.34996 65.31640
# Shear Modulus (GPa) = 23.23499 23.52071 23.37785
#
# Velocity S-wave (km/s) = 3.69388 3.71652 3.70522
# Velocity P-wave (km/s) = 7.47951 7.57500 7.52740
#
# Compressibility (1/GPa) = 0.01555625
#
# Stress axis : x y z
#
# Youngs Moduli (GPa) = 67.60103 52.65225 68.36863
#
# Poissons Ratio (x) = 0.35601 0.35035
# Poissons Ratio (y) = 0.45709 0.31051
# Poissons Ratio (z) = 0.34642 0.23913
#
# Static dielectric constant tensor:
#      x y z
#    x 1.592680 0.000000 0.000000 
#    y 0.000000 1.565160 0.000000 
#    z 0.000000 0.000000 1.566860 
# 
# From -- ./inp_files/27098.got.cif
#   From: 2010.05.17/outbox.cif.g08.bks.cpg/sg65_14_cif.got.tgz:27098.got - 2010.06.03 17:01:31.
