data_PCOD9488983
_publ_section_title
;
Structure prediction by ZEFSAII (Michael W. Deem and Ramdas Pophale) SiO2 
 PCOD9488983
Probable space group: C M M M
;
_chemical_formula_sum "Si O2"
_cell_formula_units_Z 120
_cell_length_a 28.125791
_cell_length_b 27.685272
_cell_length_c 8.916084
_cell_angle_alpha 90.000000
_cell_angle_beta 90.000000
_cell_angle_gamma 90.000000
_cell_volume 6942.688680
_symmetry_space_group_name_H-M "C M M M"
_symmetry_group_IT_number 65
_symmetry_cell_setting 'orthorhombic'
loop_
_space_group_symop_operation_xyz
x,y,z
-x,-y,z
x,-y,-z
-x,y,-z
-x,-y,-z
x,y,-z
-x,y,z
x,-y,z
1/2+x,1/2+y,z
1/2-x,1/2-y,z
1/2+x,1/2-y,-z
1/2-x,1/2+y,-z
1/2-x,1/2-y,-z
1/2+x,1/2+y,-z
1/2-x,1/2+y,z
1/2+x,1/2-y,z
loop_
_atom_site_type_symbol
_atom_site_label
_atom_site_fract_x
_atom_site_fract_y
_atom_site_fract_z
Si Si1 0.885913 0.093463 0.820122
Si Si2 0.554897 0.208483 0.319376
Si Si3 0.361923 0.147005 0.178445
Si Si4 0.315332 0.944838 0.319358
Si Si5 0.444498 0.320066 0.319619
Si Si6 0.554188 0.500000 0.817440
Si Si7 0.215328 0.896805 0.678864
Si Si8 0.261146 0.194976 0.179456
O O1 0.909954 0.142152 0.758460
O O2 0.833051 0.087477 0.757009
O O3 0.918078 0.048099 0.771446
O O4 0.884581 0.095085 0.000000
O O5 0.557990 0.205515 0.500000
O O6 0.500000 0.198727 0.277437
O O7 0.591925 0.172067 0.246893
O O8 0.565585 0.264321 0.277835
O O9 0.349717 0.094701 0.246514
O O10 0.315588 0.180203 0.212038
O O11 0.366295 0.143354 0.000000
O O12 0.319283 0.941642 0.500000
O O13 0.261179 0.929379 0.280510
O O14 0.324482 0.000000 0.273926
O O15 0.439934 0.323916 0.500000
O O16 0.500000 0.329982 0.282003
O O17 0.500000 0.500000 0.763965
O O18 0.553253 0.500000 0.000000
O O19 0.209732 0.897926 0.500000
O O20 0.228441 0.843014 0.733838
O O21 0.250000 0.250000 0.219724
O O22 0.253632 0.189278 0.000000
#
# Coordination Sequence:
#
# PCOD9488983 Si02
#       8
#    16  16  16  16  16   8  16  16
#     4  11  22  35  54  77 103 138 179 225 277 329
#     4   9  19  36  57  80 110 147 181 216 260 315
#     4  10  20  33  53  83 113 143 177 220 270 317
#     4   9  19  37  59  79 104 142 182 221 265 322
#     4   9  19  36  55  77 105 137 177 224 271 318
#     4   9  20  38  55  73  99 135 181 229 278 333
#     4  10  21  35  52  78 107 138 178 221 266 314
#     4   9  19  35  52  74 109 145 177 216 262 315
#
# _framework density 17.284369000000002
#
# number of rings (size 3 to 8) (size 9 to 14) (size 15 to 20)
#    0.000    2.467    0.000    2.400    2.800    3.200 
#    0.000    2.333    0.000    2.800    0.000    2.800 
#    0.000    0.000    0.000    0.000    0.000    0.000 
#
# Total GULP energy -334867.025028 kJ/mol
# GULP energy per Si atom -5581.117084 kJ/mol
# Density = 1.724503 g / cm^3
# Si number density = 17.284369 Si / 1000 Ang^3
#
#
#
# Elastic Constant Matrix: (Units=GPa)
#
#
# Indices 1 2 3 4 5 6 
#
# 1 122.1368 84.4206 43.6975 0.0000 0.0000 0.0000
# 2 84.4206 143.5572 43.8128 0.0000 0.0000 0.0000
# 3 43.6975 43.8128 31.7019 0.0000 0.0000 0.0000
# 4 0.0000 0.0000 0.0000 22.9951 0.0000 0.0000
# 5 0.0000 0.0000 0.0000 0.0000 24.6746 0.0000
# 6 0.0000 0.0000 0.0000 0.0000 0.0000 17.6998
#
#
#
# Elastic Compliance Matrix: (Units=1/GPa)
#
#
# Indices 1 2 3 4 5 6 
#
# 1 0.018199 -0.005268 -0.017804 0.000000 0.000000 0.000000
# 2 -0.005268 0.013572 -0.011495 0.000000 0.000000 0.000000
# 3 -0.017804 -0.011495 0.071972 0.000000 0.000000 0.000000
# 4 0.000000 0.000000 0.000000 0.043488 0.000000 0.000000
# 5 0.000000 0.000000 0.000000 0.000000 0.040528 0.000000
# 6 0.000000 0.000000 0.000000 0.000000 0.000000 0.056498
#
#
# Mechanical properties :
#
#
# Convention : Reuss Voigt Hill
#
# Bulk Modulus (GPa) = 28.89576 71.25084 50.07330
# Shear Modulus (GPa) = 15.38807 21.43823 18.41315
#
# Velocity S-wave (km/s) = 2.98701 3.52565 3.26744
# Velocity P-wave (km/s) = 5.35261 7.60827 6.57785
#
# Compressibility (1/GPa) = 0.03460715
#
# Stress axis : x y z
#
# Youngs Moduli (GPa) = 54.94852 73.67928 13.89437
#
# Poissons Ratio (x) = 0.38817 0.24738
# Poissons Ratio (y) = 0.28949 0.15972
# Poissons Ratio (z) = 0.97830 0.84698
#
# Static dielectric constant tensor:
#      x y z
#    x 1.569590 0.000000 0.000000 
#    y 0.000000 1.567430 0.000000 
#    z 0.000000 0.000000 1.574740 
# 
# From -- ./inp_files/17053.got.cif
#   From: 2010.05.17/outbox.cif.g08.bks.cpg/sg65_9_cif.got.tgz:17053.got - 2010.06.03 17:01:31.
