data_PCOD9488941
_publ_section_title
;
Structure prediction by ZEFSAII (Michael W. Deem and Ramdas Pophale) SiO2 
 PCOD9488941
Probable space group: C M M M
;
_chemical_formula_sum "Si O2"
_cell_formula_units_Z 88
_cell_length_a 23.263916
_cell_length_b 14.100071
_cell_length_c 14.597255
_cell_angle_alpha 90.000000
_cell_angle_beta 90.000000
_cell_angle_gamma 90.000000
_cell_volume 4788.233440
_symmetry_space_group_name_H-M "C M M M"
_symmetry_group_IT_number 65
_symmetry_cell_setting 'orthorhombic'
loop_
_space_group_symop_operation_xyz
x,y,z
-x,-y,z
x,-y,-z
-x,y,-z
-x,-y,-z
x,y,-z
-x,y,z
x,-y,z
1/2+x,1/2+y,z
1/2-x,1/2-y,z
1/2+x,1/2-y,-z
1/2-x,1/2+y,-z
1/2-x,1/2-y,-z
1/2+x,1/2+y,-z
1/2-x,1/2+y,z
1/2+x,1/2-y,z
loop_
_atom_site_type_symbol
_atom_site_label
_atom_site_fract_x
_atom_site_fract_y
_atom_site_fract_z
Si Si1 0.770893 0.141630 0.896039
Si Si2 0.113152 0.191948 0.203653
Si Si3 0.643461 0.385122 0.605427
Si Si4 0.000000 0.886844 0.107846
Si Si5 0.776879 0.614782 0.400095
Si Si6 0.659209 0.106075 0.217170
O O1 0.750000 0.250000 0.901622
O O2 0.829900 0.140948 0.838839
O O3 0.716974 0.097651 0.843425
O O4 0.779340 0.107453 0.000000
O O5 0.111097 0.165094 0.311230
O O6 0.056835 0.155036 0.153932
O O7 0.121340 0.304783 0.186165
O O8 0.625931 0.364450 0.500000
O O9 0.640118 0.500000 0.616443
O O10 0.710844 0.356332 0.614498
O O11 0.000000 0.000000 0.119658
O O12 0.000000 0.865637 0.000000
O O13 0.796178 0.648582 0.500000
O O14 0.775387 0.500000 0.402323
O O15 0.817835 0.638028 0.316860
O O16 0.633126 0.000000 0.221024
#
# Coordination Sequence:
#
# PCOD9488941 Si02
#       6
#    16  16  16   8  16  16
#     4   9  18  32  51  77 108 140 176 222 277 332
#     4  11  21  37  59  81 109 148 189 231 277 330
#     4   9  17  30  52  83 116 149 186 229 278 332
#     4  11  26  46  66  84 102 135 188 244 288 330
#     4   8  14  26  46  77 118 155 184 216 259 321
#     4  10  20  33  52  84 120 149 180 221 274 335
#
# _framework density 18.378385000000002
#
# number of rings (size 3 to 8) (size 9 to 14) (size 15 to 20)
#    0.000    2.455    1.818    2.182    0.000    2.545 
#    0.000    2.727    0.000    2.182    0.000    0.000 
#    0.000    4.364    0.000    0.000    0.000    0.000 
#
# Total GULP energy -245401.417389 kJ/mol
# GULP energy per Si atom -5577.304941 kJ/mol
# Density = 1.833655 g / cm^3
# Si number density = 18.378385 Si / 1000 Ang^3
#
#
#
# Elastic Constant Matrix: (Units=GPa)
#
#
# Indices 1 2 3 4 5 6 
#
# 1 79.5447 34.8647 52.9262 0.0000 0.0000 0.0000
# 2 34.8647 95.4034 41.3144 0.0000 0.0000 0.0000
# 3 52.9262 41.3144 122.1686 0.0000 0.0000 0.0000
# 4 0.0000 0.0000 0.0000 21.5943 0.0000 0.0000
# 5 0.0000 0.0000 0.0000 0.0000 17.1438 0.0000
# 6 0.0000 0.0000 0.0000 0.0000 0.0000 21.2371
#
#
#
# Elastic Compliance Matrix: (Units=1/GPa)
#
#
# Indices 1 2 3 4 5 6 
#
# 1 0.018839 -0.003925 -0.006834 0.000000 0.000000 0.000000
# 2 -0.003925 0.013098 -0.002729 0.000000 0.000000 0.000000
# 3 -0.006834 -0.002729 0.012069 0.000000 0.000000 0.000000
# 4 0.000000 0.000000 0.000000 0.046309 0.000000 0.000000
# 5 0.000000 0.000000 0.000000 0.000000 0.058330 0.000000
# 6 0.000000 0.000000 0.000000 0.000000 0.000000 0.047087
#
#
# Mechanical properties :
#
#
# Convention : Reuss Voigt Hill
#
# Bulk Modulus (GPa) = 58.72125 61.70306 60.21216
# Shear Modulus (GPa) = 21.89285 23.19581 22.54433
#
# Velocity S-wave (km/s) = 3.45516 3.55649 3.50619
# Velocity P-wave (km/s) = 6.92374 7.10714 7.01604
#
# Compressibility (1/GPa) = 0.01702961
#
# Stress axis : x y z
#
# Youngs Moduli (GPa) = 53.08099 76.34749 82.85704
#
# Poissons Ratio (x) = 0.29968 0.56626
# Poissons Ratio (y) = 0.20835 0.22611
# Poissons Ratio (z) = 0.36276 0.20835
#
# Static dielectric constant tensor:
#      x y z
#    x 1.578640 0.000000 0.000000 
#    y 0.000000 1.696010 0.000000 
#    z 0.000000 0.000000 1.678120 
# 
# From -- ./inp_files/40552.got.cif
#   From: 2010.05.17/outbox.cif.g08.bks.cpg/sg65_21_cif.got.tgz:40552.got - 2010.06.03 17:01:31.
