data_PCOD9488135
_publ_section_title
;
Structure prediction by ZEFSAII (Michael W. Deem and Ramdas Pophale) SiO2 
 PCOD9488135
Probable space group: C M M M
;
_chemical_formula_sum "Si O2"
_cell_formula_units_Z 64
_cell_length_a 9.395701
_cell_length_b 42.478811
_cell_length_c 7.404154
_cell_angle_alpha 90.000000
_cell_angle_beta 90.000000
_cell_angle_gamma 90.000000
_cell_volume 2955.132669
_symmetry_space_group_name_H-M "C M M M"
_symmetry_group_IT_number 65
_symmetry_cell_setting 'orthorhombic'
loop_
_space_group_symop_operation_xyz
x,y,z
-x,-y,z
x,-y,-z
-x,y,-z
-x,-y,-z
x,y,-z
-x,y,z
x,-y,z
1/2+x,1/2+y,z
1/2-x,1/2-y,z
1/2+x,1/2-y,-z
1/2-x,1/2+y,-z
1/2-x,1/2-y,-z
1/2+x,1/2+y,-z
1/2-x,1/2+y,z
1/2+x,1/2-y,z
loop_
_atom_site_type_symbol
_atom_site_label
_atom_site_fract_x
_atom_site_fract_y
_atom_site_fract_z
Si Si1 0.664136 0.718909 0.720691
Si Si2 0.164343 0.535351 0.220145
Si Si3 0.339212 0.595333 0.216560
Si Si4 0.338568 0.841824 0.715506
O O1 0.662743 0.718685 0.500000
O O2 0.500000 0.719459 0.778751
O O3 0.750000 0.750000 0.775696
O O4 0.746007 0.687614 0.782653
O O5 0.206163 0.500000 0.276096
O O6 0.264521 0.563447 0.283654
O O7 0.000000 0.540708 0.273512
O O8 0.166140 0.535567 0.000000
O O9 0.500000 0.599415 0.284932
O O10 0.242478 0.625564 0.253423
O O11 0.347261 0.592486 0.000000
O O12 0.348289 0.837709 0.500000
O O13 0.500000 0.842362 0.786403
#
# Coordination Sequence:
#
# PCOD9488135 Si02
#       4
#    16  16  16  16
#     4   9  16  27  45  69  96 124 156 196 238 279
#     4   8  14  26  45  68  93 122 157 196 236 278
#     4  10  20  32  48  72 100 129 160 195 238 287
#     4  10  20  33  50  72  97 127 163 200 239 283
#
# _framework density 21.657233000000002
#
# number of rings (size 3 to 8) (size 9 to 14) (size 15 to 20)
#    0.000    2.750    0.000    3.000    0.000    6.500 
#    0.000    2.500    0.000    1.500    0.000    5.250 
#    0.000    0.000    0.000    0.000    0.000    0.000 
#
# Total GULP energy -178785.540961 kJ/mol
# GULP energy per Si atom -5587.048155 kJ/mol
# Density = 2.160794 g / cm^3
# Si number density = 21.657233 Si / 1000 Ang^3
#
#
#
# Elastic Constant Matrix: (Units=GPa)
#
#
# Indices 1 2 3 4 5 6 
#
# 1 239.4877 158.7890 7.5937 0.0000 0.0000 0.0000
# 2 158.7890 224.6018 0.9235 0.0000 0.0000 0.0000
# 3 7.5937 0.9235 73.0530 0.0000 0.0000 0.0000
# 4 0.0000 0.0000 0.0000 17.7324 0.0000 0.0000
# 5 0.0000 0.0000 0.0000 0.0000 5.4826 0.0000
# 6 0.0000 0.0000 0.0000 0.0000 0.0000 46.7922
#
#
#
# Elastic Compliance Matrix: (Units=1/GPa)
#
#
# Indices 1 2 3 4 5 6 
#
# 1 0.007901 -0.005583 -0.000751 0.000000 0.000000 0.000000
# 2 -0.005583 0.008397 0.000474 0.000000 0.000000 0.000000
# 3 -0.000751 0.000474 0.013761 0.000000 0.000000 0.000000
# 4 0.000000 0.000000 0.000000 0.056394 0.000000 0.000000
# 5 0.000000 0.000000 0.000000 0.000000 0.182396 0.000000
# 6 0.000000 0.000000 0.000000 0.000000 0.000000 0.021371
#
#
# Mechanical properties :
#
#
# Convention : Reuss Voigt Hill
#
# Bulk Modulus (GPa) = 54.52453 96.86167 75.69310
# Shear Modulus (GPa) = 16.23102 38.65718 27.44410
#
# Velocity S-wave (km/s) = 2.74058 4.22946 3.56364
# Velocity P-wave (km/s) = 5.93676 8.28692 7.20826
#
# Compressibility (1/GPa) = 0.01834037
#
# Stress axis : x y z
#
# Youngs Moduli (GPa) = 126.56760 119.08685 72.67054
#
# Poissons Ratio (x) = 0.66483 0.05455
# Poissons Ratio (y) = 0.70659 -0.03446
# Poissons Ratio (z) = 0.09502 -0.05647
#
# Static dielectric constant tensor:
#      x y z
#    x 1.775250 0.000000 0.000000 
#    y 0.000000 1.733500 0.000000 
#    z 0.000000 0.000000 1.877350 
# 
# From -- ./inp_files/20927.got.cif
#   From: 2010.05.17/outbox.cif.g08.bks.cpg/sg65_11_cif.got.tgz:20927.got - 2010.06.03 17:01:31.
