data_PCOD9488910
_publ_section_title
;
Structure prediction by ZEFSAII (Michael W. Deem and Ramdas Pophale) SiO2 
 PCOD9488910
Probable space group: C M M M
;
_chemical_formula_sum "Si O2"
_cell_formula_units_Z 80
_cell_length_a 26.441839
_cell_length_b 10.044147
_cell_length_c 17.434233
_cell_angle_alpha 90.000000
_cell_angle_beta 90.000000
_cell_angle_gamma 90.000000
_cell_volume 4630.283287
_symmetry_space_group_name_H-M "C M M M"
_symmetry_group_IT_number 65
_symmetry_cell_setting 'orthorhombic'
loop_
_space_group_symop_operation_xyz
x,y,z
-x,-y,z
x,-y,-z
-x,y,-z
-x,-y,-z
x,y,-z
-x,y,z
x,-y,z
1/2+x,1/2+y,z
1/2-x,1/2-y,z
1/2+x,1/2-y,-z
1/2-x,1/2+y,-z
1/2-x,1/2-y,-z
1/2+x,1/2+y,-z
1/2-x,1/2+y,z
1/2+x,1/2-y,z
loop_
_atom_site_type_symbol
_atom_site_label
_atom_site_fract_x
_atom_site_fract_y
_atom_site_fract_z
Si Si1 0.141398 0.846295 0.413699
Si Si2 0.098251 0.250709 0.181893
Si Si3 0.559902 0.000000 0.091710
Si Si4 0.941197 0.341804 0.653995
Si Si5 0.560135 0.500000 0.087440
Si Si6 0.701253 0.658662 0.258359
O O1 0.161397 0.830713 0.500000
O O2 0.096132 0.743046 0.399183
O O3 0.182217 0.826879 0.346511
O O4 0.123143 0.000000 0.405522
O O5 0.088674 0.374381 0.126578
O O6 0.068808 0.285699 0.260482
O O7 0.076780 0.126236 0.136169
O O8 0.155159 0.214653 0.207064
O O9 0.500000 0.000000 0.114925
O O10 0.560996 0.000000 0.000000
O O11 0.929483 0.500000 0.652917
O O12 0.000000 0.325327 0.633722
O O13 0.500000 0.500000 0.082034
O O14 0.580430 0.500000 0.000000
O O15 0.709183 0.500000 0.244256
O O16 0.750000 0.750000 0.246030
#
# Coordination Sequence:
#
# PCOD9488910 Si02
#       6
#    16  16   8  16   8  16
#     4   9  20  38  56  81 115 145 183 235 289 344
#     4  11  21  38  57  85 121 153 193 241 283 338
#     4  11  22  36  59  91 124 157 189 227 283 343
#     4  10  20  33  52  79 113 156 197 231 274 332
#     4  11  22  36  59  89 120 155 189 229 285 345
#     4  10  22  39  62  86 109 147 195 242 292 340
#
# _framework density 17.277560000000001
#
# number of rings (size 3 to 8) (size 9 to 14) (size 15 to 20)
#    0.000    1.800    2.000    2.400    2.800    4.000 
#    0.000    2.000    0.000    3.600    0.000    0.000 
#    0.000    0.000    0.000    0.000    0.000    0.000 
#
# Total GULP energy -223146.803923 kJ/mol
# GULP energy per Si atom -5578.670098 kJ/mol
# Density = 1.723824 g / cm^3
# Si number density = 17.277560 Si / 1000 Ang^3
#
#
#
# Elastic Constant Matrix: (Units=GPa)
#
#
# Indices 1 2 3 4 5 6 
#
# 1 108.4306 66.5446 37.6925 0.0000 0.0000 0.0000
# 2 66.5446 145.0820 45.6085 0.0000 0.0000 0.0000
# 3 37.6925 45.6085 86.1449 0.0000 0.0000 0.0000
# 4 0.0000 0.0000 0.0000 35.1417 0.0000 0.0000
# 5 0.0000 0.0000 0.0000 0.0000 7.1312 0.0000
# 6 0.0000 0.0000 0.0000 0.0000 0.0000 33.3072
#
#
#
# Elastic Compliance Matrix: (Units=1/GPa)
#
#
# Indices 1 2 3 4 5 6 
#
# 1 0.013515 -0.005207 -0.003157 0.000000 0.000000 0.000000
# 2 -0.005207 0.010275 -0.003162 0.000000 0.000000 0.000000
# 3 -0.003157 -0.003162 0.014664 0.000000 0.000000 0.000000
# 4 0.000000 0.000000 0.000000 0.028456 0.000000 0.000000
# 5 0.000000 0.000000 0.000000 0.000000 0.140230 0.000000
# 6 0.000000 0.000000 0.000000 0.000000 0.000000 0.030024
#
#
# Mechanical properties :
#
#
# Convention : Reuss Voigt Hill
#
# Bulk Modulus (GPa) = 64.92245 71.03875 67.98060
# Shear Modulus (GPa) = 18.84319 27.77014 23.30667
#
# Velocity S-wave (km/s) = 3.30603 4.01346 3.67680
# Velocity P-wave (km/s) = 7.22709 7.91723 7.58002
#
# Compressibility (1/GPa) = 0.01540299
#
# Stress axis : x y z
#
# Youngs Moduli (GPa) = 73.99068 97.32671 68.19604
#
# Poissons Ratio (x) = 0.50674 0.21529
# Poissons Ratio (y) = 0.38524 0.21562
# Poissons Ratio (z) = 0.23359 0.30772
#
# Static dielectric constant tensor:
#      x y z
#    x 1.557180 0.000000 0.000000 
#    y 0.000000 1.562890 0.000000 
#    z 0.000000 0.000000 1.586080 
# 
# From -- ./inp_files/49964.got.cif
#   From: 2010.05.17/outbox.cif.g08.bks.cpg/sg65_25_cif.got.tgz:49964.got - 2010.06.03 17:01:31.
