data_PCOD9488149
_publ_section_title
;
Structure prediction by ZEFSAII (Michael W. Deem and Ramdas Pophale) SiO2 
 PCOD9488149
Probable space group: C M M M
;
_chemical_formula_sum "Si O2"
_cell_formula_units_Z 96
_cell_length_a 18.750207
_cell_length_b 25.435211
_cell_length_c 10.570143
_cell_angle_alpha 90.000000
_cell_angle_beta 90.000000
_cell_angle_gamma 90.000000
_cell_volume 5041.064731
_symmetry_space_group_name_H-M "C M M M"
_symmetry_group_IT_number 65
_symmetry_cell_setting 'orthorhombic'
loop_
_space_group_symop_operation_xyz
x,y,z
-x,-y,z
x,-y,-z
-x,y,-z
-x,-y,-z
x,y,-z
-x,y,z
x,-y,z
1/2+x,1/2+y,z
1/2-x,1/2-y,z
1/2+x,1/2-y,-z
1/2-x,1/2+y,-z
1/2-x,1/2-y,-z
1/2+x,1/2+y,-z
1/2-x,1/2+y,z
1/2+x,1/2-y,z
loop_
_atom_site_type_symbol
_atom_site_label
_atom_site_fract_x
_atom_site_fract_y
_atom_site_fract_z
Si Si1 0.139702 0.351402 0.147008
Si Si2 0.147537 0.440456 0.647355
Si Si3 0.418682 0.563474 0.141588
Si Si4 0.189933 0.913172 0.635767
Si Si5 0.720264 0.694444 0.733087
Si Si6 0.922353 0.238003 0.150383
O O1 0.124898 0.397536 0.248156
O O2 0.220099 0.329007 0.171062
O O3 0.090834 0.300294 0.170914
O O4 0.132556 0.367636 0.000000
O O5 0.130426 0.426543 0.500000
O O6 0.121549 0.500000 0.671279
O O7 0.234003 0.440891 0.655422
O O8 0.500000 0.581365 0.166063
O O9 0.420070 0.500000 0.138338
O O10 0.363580 0.578671 0.249296
O O11 0.398151 0.581826 0.000000
O O12 0.159855 0.929843 0.500000
O O13 0.209215 0.851654 0.634531
O O14 0.750000 0.750000 0.684213
O O15 0.644336 0.707010 0.794618
O O16 0.000000 0.222505 0.200933
O O17 0.921989 0.230175 0.000000
#
# Coordination Sequence:
#
# PCOD9488149 Si02
#       6
#    16  16  16  16  16  16
#     4   9  17  30  50  75  99 124 160 203 241 282
#     4   9  18  32  49  70  97 127 157 192 239 294
#     4   9  19  35  51  67  92 129 168 200 235 286
#     4  10  20  32  48  72  98 123 157 202 246 285
#     4   9  18  32  48  68  98 132 164 197 239 289
#     4   9  17  30  49  72  98 128 161 199 244 290
#
# _framework density 19.043596999999998
#
# number of rings (size 3 to 8) (size 9 to 14) (size 15 to 20)
#    0.000    2.833    0.000    1.500    0.000    8.000 
#    0.000    5.000    0.000    2.000    0.000    3.500 
#    0.000    0.000    0.000    0.000    0.000    0.000 
#
# Total GULP energy -267482.796875 kJ/mol
# GULP energy per Si atom -5572.558268 kJ/mol
# Density = 1.900025 g / cm^3
# Si number density = 19.043597 Si / 1000 Ang^3
#
#
#
# Elastic Constant Matrix: (Units=GPa)
#
#
# Indices 1 2 3 4 5 6 
#
# 1 39.8663 -6.5586 -7.8063 0.0000 0.0000 0.0000
# 2 -6.5586 88.0315 17.8252 0.0000 0.0000 0.0000
# 3 -7.8063 17.8252 61.7163 0.0000 0.0000 0.0000
# 4 0.0000 0.0000 0.0000 -22.4475 0.0000 0.0000
# 5 0.0000 0.0000 0.0000 0.0000 15.2530 0.0000
# 6 0.0000 0.0000 0.0000 0.0000 0.0000 4.3726
#
#
#
# Elastic Compliance Matrix: (Units=1/GPa)
#
#
# Indices 1 2 3 4 5 6 
#
# 1 0.025870 0.001343 0.002884 0.000000 0.000000 0.000000
# 2 0.001343 0.012135 -0.003335 0.000000 0.000000 0.000000
# 3 0.002884 -0.003335 0.017531 0.000000 0.000000 0.000000
# 4 0.000000 0.000000 0.000000 -0.044548 0.000000 0.000000
# 5 0.000000 0.000000 0.000000 0.000000 0.065561 0.000000
# 6 0.000000 0.000000 0.000000 0.000000 0.000000 0.228699
#
#
# Mechanical properties :
#
#
# Convention : Reuss Voigt Hill
#
# Bulk Modulus (GPa) = 17.44565 21.83718 19.64142
# Shear Modulus (GPa) = 15.50054 11.84587 13.67320
#
# Velocity S-wave (km/s) = 2.85608 2.49678 2.68245
# Velocity P-wave (km/s) = 4.47851 4.45013 4.46434
#
# Compressibility (1/GPa) = 0.05732088
#
# Stress axis : x y z
#
# Youngs Moduli (GPa) = 38.65539 82.40668 57.04120
#
# Poissons Ratio (x) = -0.11070 -0.16452
# Poissons Ratio (y) = -0.05193 0.19023
# Poissons Ratio (z) = -0.11149 0.27482
#
# Static dielectric constant tensor:
#      x y z
#    x 1.664240 0.000000 0.000000 
#    y 0.000000 1.701060 0.000000 
#    z 0.000000 0.000000 1.645460 
# 
# From -- ./inp_files/27376.got.cif
#   From: 2010.05.17/outbox.cif.g08.bks.cpg/sg65_14_cif.got.tgz:27376.got - 2010.06.03 17:01:31.
