data_PCOD9488859
_publ_section_title
;
Structure prediction by ZEFSAII (Michael W. Deem and Ramdas Pophale) SiO2 
 PCOD9488859
Probable space group: C M M M
;
_chemical_formula_sum "Si O2"
_cell_formula_units_Z 80
_cell_length_a 8.728957
_cell_length_b 27.309751
_cell_length_c 18.763405
_cell_angle_alpha 90.000000
_cell_angle_beta 90.000000
_cell_angle_gamma 90.000000
_cell_volume 4472.926350
_symmetry_space_group_name_H-M "C M M M"
_symmetry_group_IT_number 65
_symmetry_cell_setting 'orthorhombic'
loop_
_space_group_symop_operation_xyz
x,y,z
-x,-y,z
x,-y,-z
-x,y,-z
-x,-y,-z
x,y,-z
-x,y,z
x,-y,z
1/2+x,1/2+y,z
1/2-x,1/2-y,z
1/2+x,1/2-y,-z
1/2-x,1/2+y,-z
1/2-x,1/2-y,-z
1/2+x,1/2+y,-z
1/2-x,1/2+y,z
1/2+x,1/2-y,z
loop_
_atom_site_type_symbol
_atom_site_label
_atom_site_fract_x
_atom_site_fract_y
_atom_site_fract_z
Si Si1 0.183446 0.092016 0.333651
Si Si2 0.186977 0.500000 0.918516
Si Si3 0.184911 0.593024 0.826015
Si Si4 0.817155 0.700914 0.172380
Si Si5 0.683368 0.000000 0.582653
Si Si6 0.183323 0.799493 0.333115
O O1 0.242957 0.088349 0.252377
O O2 0.253698 0.048306 0.378872
O O3 0.223677 0.146643 0.362443
O O4 0.000000 0.088187 0.333325
O O5 0.234569 0.548580 0.876050
O O6 0.000000 0.500000 0.919298
O O7 0.239228 0.500000 0.000000
O O8 0.220977 0.647033 0.857204
O O9 0.000000 0.590730 0.817869
O O10 0.750000 0.750000 0.137399
O O11 0.749509 0.699540 0.252600
O O12 0.000000 0.705652 0.176174
O O13 0.500000 0.000000 0.587483
O O14 0.729042 0.000000 0.500000
O O15 0.250000 0.750000 0.367555
O O16 0.000000 0.795472 0.330162
#
# Coordination Sequence:
#
# PCOD9488859 Si02
#       6
#    16   8  16  16   8  16
#     4  10  20  33  52  77 102 129 161 199 242 288
#     4   9  17  30  48  68  90 119 158 203 246 286
#     4   9  17  29  48  73  97 123 158 199 240 285
#     4   9  15  23  38  63  93 122 152 188 232 279
#     4  11  24  39  54  72  96 129 166 203 244 288
#     4   9  16  26  43  70 100 127 155 189 233 281
#
# _framework density 17.885382
#
# number of rings (size 3 to 8) (size 9 to 14) (size 15 to 20)
#    0.000    2.600    0.000    3.900    0.000    4.800 
#    0.000    0.000    0.000    2.400    0.000    0.000 
#    0.000    0.000    0.000    0.000    0.000    5.400 
#
# Total GULP energy -222820.242869 kJ/mol
# GULP energy per Si atom -5570.506072 kJ/mol
# Density = 1.784467 g / cm^3
# Si number density = 17.885382 Si / 1000 Ang^3
#
#
#
# Elastic Constant Matrix: (Units=GPa)
#
#
# Indices 1 2 3 4 5 6 
#
# 1 43.1326 56.7353 21.1523 0.0000 0.0000 0.0000
# 2 56.7353 235.8571 72.4920 0.0000 0.0000 0.0000
# 3 21.1523 72.4920 58.5380 0.0000 0.0000 0.0000
# 4 0.0000 0.0000 0.0000 -5.1125 0.0000 0.0000
# 5 0.0000 0.0000 0.0000 0.0000 1.8306 0.0000
# 6 0.0000 0.0000 0.0000 0.0000 0.0000 32.8452
#
#
#
# Elastic Compliance Matrix: (Units=1/GPa)
#
#
# Indices 1 2 3 4 5 6 
#
# 1 0.034359 -0.007183 -0.003520 0.000000 0.000000 0.000000
# 2 -0.007183 0.008347 -0.007741 0.000000 0.000000 0.000000
# 3 -0.003520 -0.007741 0.027941 0.000000 0.000000 0.000000
# 4 0.000000 0.000000 0.000000 -0.195600 0.000000 0.000000
# 5 0.000000 0.000000 0.000000 0.000000 0.546254 0.000000
# 6 0.000000 0.000000 0.000000 0.000000 0.000000 0.030446
#
#
# Mechanical properties :
#
#
# Convention : Reuss Voigt Hill
#
# Bulk Modulus (GPa) = 29.62191 70.92078 50.27134
# Shear Modulus (GPa) = 10.00221 18.38920 14.19571
#
# Velocity S-wave (km/s) = 2.36739 3.20999 2.82033
# Velocity P-wave (km/s) = 4.90619 7.31284 6.22690
#
# Compressibility (1/GPa) = 0.03375880
#
# Stress axis : x y z
#
# Youngs Moduli (GPa) = 29.10442 119.80244 35.78926
#
# Poissons Ratio (x) = 0.86056 0.12598
# Poissons Ratio (y) = 0.20906 0.27705
# Poissons Ratio (z) = 0.10245 0.92742
#
# Static dielectric constant tensor:
#      x y z
#    x 1.600790 0.000000 0.000000 
#    y 0.000000 1.685030 0.000000 
#    z 0.000000 0.000000 1.559740 
# 
# From -- ./inp_files/50161.got.cif
#   From: 2010.05.17/outbox.cif.g08.bks.cpg/sg65_26_cif.got.tgz:50161.got - 2010.06.03 17:01:31.
