data_PCOD9488714
_publ_section_title
;
Structure prediction by ZEFSAII (Michael W. Deem and Ramdas Pophale) SiO2 
 PCOD9488714
Probable space group: C M M M
;
_chemical_formula_sum "Si O2"
_cell_formula_units_Z 104
_cell_length_a 19.091064
_cell_length_b 7.523345
_cell_length_c 35.177992
_cell_angle_alpha 90.000000
_cell_angle_beta 90.000000
_cell_angle_gamma 90.000000
_cell_volume 5052.567884
_symmetry_space_group_name_H-M "C M M M"
_symmetry_group_IT_number 65
_symmetry_cell_setting 'orthorhombic'
loop_
_space_group_symop_operation_xyz
x,y,z
-x,-y,z
x,-y,-z
-x,y,-z
-x,-y,-z
x,y,-z
-x,y,z
x,-y,z
1/2+x,1/2+y,z
1/2-x,1/2-y,z
1/2+x,1/2-y,-z
1/2-x,1/2+y,-z
1/2-x,1/2-y,-z
1/2+x,1/2+y,-z
1/2-x,1/2+y,z
1/2+x,1/2-y,z
loop_
_atom_site_type_symbol
_atom_site_label
_atom_site_fract_x
_atom_site_fract_y
_atom_site_fract_z
Si Si1 0.667728 0.213164 0.114132
Si Si2 0.167785 0.713275 0.198010
Si Si3 0.079795 0.286499 0.269279
Si Si4 0.580320 0.712643 0.645687
Si Si5 0.418534 0.783204 0.042013
Si Si6 0.418587 0.717610 0.500000
Si Si7 0.167478 0.213196 0.573894
O O1 0.750000 0.250000 0.109741
O O2 0.646150 0.280347 0.156069
O O3 0.625488 0.281872 0.077882
O O4 0.658395 0.000000 0.114723
O O5 0.159020 0.500000 0.197270
O O6 0.250000 0.750000 0.202540
O O7 0.125144 0.782251 0.234126
O O8 0.077454 0.500000 0.266132
O O9 0.106682 0.247488 0.311634
O O10 0.000000 0.219263 0.267266
O O11 0.500000 0.781138 0.642491
O O12 0.576251 0.500000 0.641517
O O13 0.630935 0.780542 0.612545
O O14 0.500000 0.733811 0.045790
O O15 0.416021 0.000000 0.042170
O O16 0.393671 0.726325 0.000000
O O17 0.418879 0.500000 0.500000
O O18 0.500000 0.772619 0.500000
O O19 0.376270 0.776767 0.462651
O O20 0.250000 0.250000 0.571578
O O21 0.160770 0.000000 0.573977
#
# Coordination Sequence:
#
# PCOD9488714 Si02
#       7
#    16  16  16  16  16   8  16
#     4   9  17  29  45  65  89 117 148 183 223 266
#     4   9  18  31  46  65  90 119 150 185 225 270
#     4   9  18  32  49  69  92 118 151 192 234 272
#     4   9  18  33  51  70  93 123 159 193 225 268
#     4   8  14  25  42  65  90 114 144 183 223 263
#     4   9  17  32  55  77  96 125 164 198 228 267
#     4  10  20  33  51  75 101 127 156 193 233 273
#
# _framework density 20.583593
#
# number of rings (size 3 to 8) (size 9 to 14) (size 15 to 20)
#    0.000    3.000    0.000    1.154    0.000    4.615 
#    0.000    6.154    0.000    2.308    0.000    5.385 
#    0.000    0.000    0.000    0.000    0.000    0.000 
#
# Total GULP energy -290058.150478 kJ/mol
# GULP energy per Si atom -5578.041355 kJ/mol
# Density = 2.053674 g / cm^3
# Si number density = 20.583593 Si / 1000 Ang^3
#
#
#
# Elastic Constant Matrix: (Units=GPa)
#
#
# Indices 1 2 3 4 5 6 
#
# 1 109.0495 0.2592 131.4667 0.0000 0.0000 0.0000
# 2 0.2592 53.7975 8.6295 0.0000 0.0000 0.0000
# 3 131.4667 8.6295 267.7563 0.0000 0.0000 0.0000
# 4 0.0000 0.0000 0.0000 1.2811 0.0000 0.0000
# 5 0.0000 0.0000 0.0000 0.0000 39.0698 0.0000
# 6 0.0000 0.0000 0.0000 0.0000 0.0000 17.4321
#
#
#
# Elastic Compliance Matrix: (Units=1/GPa)
#
#
# Indices 1 2 3 4 5 6 
#
# 1 0.022622 0.001681 -0.011162 0.000000 0.000000 0.000000
# 2 0.001681 0.018810 -0.001432 0.000000 0.000000 0.000000
# 3 -0.011162 -0.001432 0.009261 0.000000 0.000000 0.000000
# 4 0.000000 0.000000 0.000000 0.780554 0.000000 0.000000
# 5 0.000000 0.000000 0.000000 0.000000 0.025595 0.000000
# 6 0.000000 0.000000 0.000000 0.000000 0.000000 0.057365
#
#
# Mechanical properties :
#
#
# Convention : Reuss Voigt Hill
#
# Bulk Modulus (GPa) = 34.63894 79.03492 56.83693
# Shear Modulus (GPa) = 5.28734 30.90645 18.09690
#
# Velocity S-wave (km/s) = 1.60446 3.87913 2.96833
# Velocity P-wave (km/s) = 4.50526 7.65140 6.27859
#
# Compressibility (1/GPa) = 0.02886924
#
# Stress axis : x y z
#
# Youngs Moduli (GPa) = 44.20446 53.16379 107.97819
#
# Poissons Ratio (x) = -0.08939 1.20520
# Poissons Ratio (y) = -0.07432 0.15460
# Poissons Ratio (z) = 0.49339 0.07612
#
# Static dielectric constant tensor:
#      x y z
#    x 1.687670 0.000000 0.000000 
#    y 0.000000 1.797300 0.000000 
#    z 0.000000 0.000000 1.747820 
# 
# From -- ./inp_files/78068.got.cif
#   From: 2010.05.17/outbox.cif.g08.bks.cpg/sg65_40_cif.got.tgz:78068.got - 2010.06.03 17:01:31.
