data_PCOD9488755
_publ_section_title
;
Structure prediction by ZEFSAII (Michael W. Deem and Ramdas Pophale) SiO2 
 PCOD9488755
Probable space group: C M M M
;
_chemical_formula_sum "Si O2"
_cell_formula_units_Z 80
_cell_length_a 29.843298
_cell_length_b 15.657124
_cell_length_c 7.613744
_cell_angle_alpha 90.000000
_cell_angle_beta 90.000000
_cell_angle_gamma 90.000000
_cell_volume 3557.599676
_symmetry_space_group_name_H-M "C M M M"
_symmetry_group_IT_number 65
_symmetry_cell_setting 'orthorhombic'
loop_
_space_group_symop_operation_xyz
x,y,z
-x,-y,z
x,-y,-z
-x,y,-z
-x,-y,-z
x,y,-z
-x,y,z
x,-y,z
1/2+x,1/2+y,z
1/2-x,1/2-y,z
1/2+x,1/2-y,-z
1/2-x,1/2+y,-z
1/2-x,1/2-y,-z
1/2+x,1/2+y,-z
1/2-x,1/2+y,z
1/2+x,1/2-y,z
loop_
_atom_site_type_symbol
_atom_site_label
_atom_site_fract_x
_atom_site_fract_y
_atom_site_fract_z
Si Si1 0.195719 0.401477 0.199368
Si Si2 0.550112 0.267143 0.211787
Si Si3 0.219466 0.825216 0.698994
Si Si4 0.372194 0.402227 0.289707
Si Si5 0.400037 0.098879 0.784757
O O1 0.183574 0.500000 0.187585
O O2 0.242048 0.396179 0.300797
O O3 0.149192 0.365392 0.273298
O O4 0.202352 0.371087 0.000000
O O5 0.500000 0.286949 0.275112
O O6 0.586115 0.339873 0.257976
O O7 0.565431 0.172253 0.270284
O O8 0.549141 0.264144 0.000000
O O9 0.208906 0.797281 0.500000
O O10 0.250000 0.750000 0.779370
O O11 0.173747 0.858827 0.780946
O O12 0.366091 0.408588 0.500000
O O13 0.377829 0.500000 0.224600
O O14 0.408814 0.000000 0.728648
O O15 0.398998 0.097362 0.000000
#
# Coordination Sequence:
#
# PCOD9488755 Si02
#       5
#    16  16  16  16  16
#     4   9  17  29  47  72 101 134 168 197 234 294
#     4  10  21  36  56  82 106 131 173 229 278 315
#     4  10  20  33  51  76 104 133 168 212 259 306
#     4  10  22  39  56  75 104 144 184 218 260 318
#     4   8  15  30  52  79 112 144 171 205 257 324
#
# _framework density 22.487074
#
# number of rings (size 3 to 8) (size 9 to 14) (size 15 to 20)
#    0.000    2.600    0.000    3.000    0.000    4.000 
#    0.000    4.000    0.000    1.800    0.000    1.400 
#    0.000    0.000    0.000    0.000    0.000    0.000 
#
# Total GULP energy -222813.866047 kJ/mol
# GULP energy per Si atom -5570.346651 kJ/mol
# Density = 2.243589 g / cm^3
# Si number density = 22.487074 Si / 1000 Ang^3
#
#
#
# Elastic Constant Matrix: (Units=GPa)
#
#
# Indices 1 2 3 4 5 6 
#
# 1 199.7609 97.6838 7.4626 0.0000 0.0000 0.0000
# 2 97.6838 154.2401 10.0105 0.0000 0.0000 0.0000
# 3 7.4626 10.0105 46.4185 0.0000 0.0000 0.0000
# 4 0.0000 0.0000 0.0000 4.2007 0.0000 0.0000
# 5 0.0000 0.0000 0.0000 0.0000 424.4257 0.0000
# 6 0.0000 0.0000 0.0000 0.0000 0.0000 30.4707
#
#
#
# Elastic Compliance Matrix: (Units=1/GPa)
#
#
# Indices 1 2 3 4 5 6 
#
# 1 0.007253 -0.004582 -0.000178 0.000000 0.000000 0.000000
# 2 -0.004582 0.009470 -0.001306 0.000000 0.000000 0.000000
# 3 -0.000178 -0.001306 0.021853 0.000000 0.000000 0.000000
# 4 0.000000 0.000000 0.000000 0.238053 0.000000 0.000000
# 5 0.000000 0.000000 0.000000 0.000000 0.002356 0.000000
# 6 0.000000 0.000000 0.000000 0.000000 0.000000 0.032818
#
#
# Mechanical properties :
#
#
# Convention : Reuss Voigt Hill
#
# Bulk Modulus (GPa) = 37.81387 70.08148 53.94768
# Shear Modulus (GPa) = 15.02624 110.83694 62.93159
#
# Velocity S-wave (km/s) = 2.58779 7.02824 5.29589
# Velocity P-wave (km/s) = 5.07752 9.85365 7.83823
#
# Compressibility (1/GPa) = 0.02644532
#
# Stress axis : x y z
#
# Youngs Moduli (GPa) = 137.86800 105.59538 45.75967
#
# Poissons Ratio (x) = 0.48385 0.00814
# Poissons Ratio (y) = 0.63173 0.05975
# Poissons Ratio (z) = 0.02453 0.13787
#
# Static dielectric constant tensor:
#      x y z
#    x 1.941790 0.000000 0.000000 
#    y 0.000000 3.117640 0.000000 
#    z 0.000000 0.000000 1.903800 
# 
# From -- ./inp_files/16048.got.cif
#   From: 2010.05.17/outbox.cif.g08.bks.cpg/sg65_9_cif.got.tgz:16048.got - 2010.06.03 17:01:31.
