data_PCOD9488401
_publ_section_title
;
Structure prediction by ZEFSAII (Michael W. Deem and Ramdas Pophale) SiO2 
 PCOD9488401
Probable space group: C M M M
;
_chemical_formula_sum "Si O2"
_cell_formula_units_Z 104
_cell_length_a 31.415375
_cell_length_b 9.011885
_cell_length_c 22.433198
_cell_angle_alpha 90.000000
_cell_angle_beta 90.000000
_cell_angle_gamma 90.000000
_cell_volume 6351.101871
_symmetry_space_group_name_H-M "C M M M"
_symmetry_group_IT_number 65
_symmetry_cell_setting 'orthorhombic'
loop_
_space_group_symop_operation_xyz
x,y,z
-x,-y,z
x,-y,-z
-x,y,-z
-x,-y,-z
x,y,-z
-x,y,z
x,-y,z
1/2+x,1/2+y,z
1/2-x,1/2-y,z
1/2+x,1/2-y,-z
1/2-x,1/2+y,-z
1/2-x,1/2-y,-z
1/2+x,1/2+y,-z
1/2-x,1/2+y,z
1/2+x,1/2-y,z
loop_
_atom_site_type_symbol
_atom_site_label
_atom_site_fract_x
_atom_site_fract_y
_atom_site_fract_z
Si Si1 0.118675 0.323507 0.847955
Si Si2 0.449183 0.823380 0.624157
Si Si3 0.292568 0.669587 0.709584
Si Si4 0.549475 0.325724 0.071036
Si Si5 0.948373 0.170790 0.500000
Si Si6 0.386453 0.320244 0.282023
Si Si7 0.793354 0.171538 0.145252
O O1 0.121323 0.500000 0.840952
O O2 0.081536 0.275411 0.892576
O O3 0.109686 0.247027 0.784084
O O4 0.163892 0.259377 0.870693
O O5 0.500000 0.798766 0.631424
O O6 0.436057 0.755967 0.560183
O O7 0.422927 0.741585 0.675474
O O8 0.441847 0.000000 0.625692
O O9 0.290086 0.500000 0.690257
O O10 0.250000 0.750000 0.688701
O O11 0.339565 0.727326 0.693860
O O12 0.292060 0.672319 0.782140
O O13 0.500000 0.295601 0.085699
O O14 0.557755 0.500000 0.084406
O O15 0.554463 0.306198 0.000000
O O16 0.000000 0.168258 0.500000
O O17 0.933612 0.000000 0.500000
O O18 0.387036 0.500000 0.278695
O O19 0.750000 0.250000 0.124532
O O20 0.795475 0.000000 0.126417
#
# Coordination Sequence:
#
# PCOD9488401 Si02
#       7
#    16  16  16  16   8  16  16
#     4  11  21  32  49  74 103 132 161 198 246 295
#     4  10  20  33  49  71  99 129 163 204 246 287
#     4   8  15  26  42  64  90 121 156 194 233 276
#     4   9  19  37  58  75  92 121 163 206 246 291
#     4   9  17  31  51  71  92 125 166 201 237 285
#     4  10  20  33  48  70 100 132 166 201 241 291
#     4   9  16  28  46  69  97 128 162 197 236 285
#
# _framework density 16.375111
#
# number of rings (size 3 to 8) (size 9 to 14) (size 15 to 20)
#    0.000    2.538    0.000    4.385    0.000    7.385 
#    0.000    0.769    0.000    0.462    0.000    0.538 
#    0.000    0.000    0.000    0.000    0.000    0.000 
#
# Total GULP energy -289825.876238 kJ/mol
# GULP energy per Si atom -5573.574543 kJ/mol
# Density = 1.633784 g / cm^3
# Si number density = 16.375111 Si / 1000 Ang^3
#
#
#
# Elastic Constant Matrix: (Units=GPa)
#
#
# Indices 1 2 3 4 5 6 
#
# 1 98.2780 70.9111 42.5950 0.0000 0.0000 0.0000
# 2 70.9111 115.2927 39.1783 0.0000 0.0000 0.0000
# 3 42.5950 39.1783 35.4538 0.0000 0.0000 0.0000
# 4 0.0000 0.0000 0.0000 21.8516 0.0000 0.0000
# 5 0.0000 0.0000 0.0000 0.0000 -6.0722 0.0000
# 6 0.0000 0.0000 0.0000 0.0000 0.0000 29.8657
#
#
#
# Elastic Compliance Matrix: (Units=1/GPa)
#
#
# Indices 1 2 3 4 5 6 
#
# 1 0.025505 -0.008446 -0.021309 0.000000 0.000000 0.000000
# 2 -0.008446 0.016686 -0.008292 0.000000 0.000000 0.000000
# 3 -0.021309 -0.008292 0.062970 0.000000 0.000000 0.000000
# 4 0.000000 0.000000 0.000000 0.045763 0.000000 0.000000
# 5 0.000000 0.000000 0.000000 0.000000 -0.164686 0.000000
# 6 0.000000 0.000000 0.000000 0.000000 0.000000 0.033483
#
#
# Mechanical properties :
#
#
# Convention : Reuss Voigt Hill
#
# Bulk Modulus (GPa) = 34.40309 61.59927 48.00118
# Shear Modulus (GPa) = 47.39189 15.55170 31.47180
#
# Velocity S-wave (km/s) = 5.38556 3.08509 4.38874
# Velocity P-wave (km/s) = 7.72835 7.09857 7.42014
#
# Compressibility (1/GPa) = 0.02906716
#
# Stress axis : x y z
#
# Youngs Moduli (GPa) = 39.20868 59.93128 15.88061
#
# Poissons Ratio (x) = 0.50615 0.33840
# Poissons Ratio (y) = 0.33114 0.13168
# Poissons Ratio (z) = 0.83550 0.49695
#
# Static dielectric constant tensor:
#      x y z
#    x 1.559860 0.000000 0.000000 
#    y 0.000000 1.552260 0.000000 
#    z 0.000000 0.000000 1.523350 
# 
# From -- ./inp_files/66382.got.cif
#   From: 2010.05.17/outbox.cif.g08.bks.cpg/sg65_34_cif.got.tgz:66382.got - 2010.06.03 17:01:31.
