data_PCOD9488959
_publ_section_title
;
Structure prediction by ZEFSAII (Michael W. Deem and Ramdas Pophale) SiO2 
 PCOD9488959
Probable space group: C M M M
;
_chemical_formula_sum "Si O2"
_cell_formula_units_Z 80
_cell_length_a 7.712619
_cell_length_b 17.319011
_cell_length_c 29.582175
_cell_angle_alpha 90.000000
_cell_angle_beta 90.000000
_cell_angle_gamma 90.000000
_cell_volume 3951.437052
_symmetry_space_group_name_H-M "C M M M"
_symmetry_group_IT_number 65
_symmetry_cell_setting 'orthorhombic'
loop_
_space_group_symop_operation_xyz
x,y,z
-x,-y,z
x,-y,-z
-x,y,-z
-x,-y,-z
x,y,-z
-x,y,z
x,-y,z
1/2+x,1/2+y,z
1/2-x,1/2-y,z
1/2+x,1/2-y,-z
1/2-x,1/2+y,-z
1/2-x,1/2-y,-z
1/2+x,1/2+y,-z
1/2-x,1/2+y,z
1/2+x,1/2-y,z
loop_
_atom_site_type_symbol
_atom_site_label
_atom_site_fract_x
_atom_site_fract_y
_atom_site_fract_z
Si Si1 0.792979 0.838645 0.112497
Si Si2 0.293585 0.584653 0.204100
Si Si3 0.788472 0.500000 0.552495
Si Si4 0.500000 0.908652 0.949120
Si Si5 0.790779 0.339663 0.601216
Si Si6 0.704895 0.837050 0.703712
O O1 0.750000 0.750000 0.104710
O O2 0.736831 0.859264 0.163993
O O3 0.671622 0.884659 0.078238
O O4 0.000000 0.852880 0.107213
O O5 0.500000 0.580910 0.199602
O O6 0.218583 0.500000 0.195890
O O7 0.260604 0.609513 0.255337
O O8 0.738854 0.500000 0.500000
O O9 0.732271 0.417355 0.574530
O O10 0.000000 0.500000 0.555210
O O11 0.500000 0.000000 0.952229
O O12 0.500000 0.875329 0.000000
O O13 0.750000 0.250000 0.586617
O O14 0.724170 0.348507 0.652980
O O15 0.000000 0.342620 0.600854
O O16 0.500000 0.844887 0.699638
O O17 0.750000 0.750000 0.717206
#
# Coordination Sequence:
#
# PCOD9488959 Si02
#       6
#    16  16   8   8  16  16
#     4  11  23  43  67  96 129 169 211 266 317 375
#     4  10  22  37  56  85 121 158 199 244 298 364
#     4   9  18  34  57  81 109 151 195 245 299 360
#     4  11  26  46  70 100 131 167 215 267 322 384
#     4   9  19  35  55  80 113 147 193 245 297 359
#     4  10  20  33  53  79 110 151 193 241 293 355
#
# _framework density 20.245799000000002
#
# number of rings (size 3 to 8) (size 9 to 14) (size 15 to 20)
#    0.000    2.000    1.000    1.800    2.800    5.200 
#    0.000    1.500    0.000    0.600    0.000    0.000 
#    0.000    0.000    0.000    0.000    0.000    0.000 
#
# Total GULP energy -223006.723809 kJ/mol
# GULP energy per Si atom -5575.168095 kJ/mol
# Density = 2.019972 g / cm^3
# Si number density = 20.245799 Si / 1000 Ang^3
#
#
#
# Elastic Constant Matrix: (Units=GPa)
#
#
# Indices 1 2 3 4 5 6 
#
# 1 69.6736 26.4803 30.2020 0.0000 0.0000 0.0000
# 2 26.4803 126.6599 64.8488 0.0000 0.0000 0.0000
# 3 30.2020 64.8488 102.1118 0.0000 0.0000 0.0000
# 4 0.0000 0.0000 0.0000 46.4301 0.0000 0.0000
# 5 0.0000 0.0000 0.0000 0.0000 193.7285 0.0000
# 6 0.0000 0.0000 0.0000 0.0000 0.0000 -2.1670
#
#
#
# Elastic Compliance Matrix: (Units=1/GPa)
#
#
# Indices 1 2 3 4 5 6 
#
# 1 0.016634 -0.001421 -0.004018 0.000000 0.000000 0.000000
# 2 -0.001421 0.011821 -0.007087 0.000000 0.000000 0.000000
# 3 -0.004018 -0.007087 0.015482 0.000000 0.000000 0.000000
# 4 0.000000 0.000000 0.000000 0.021538 0.000000 0.000000
# 5 0.000000 0.000000 0.000000 0.000000 0.005162 0.000000
# 6 0.000000 0.000000 0.000000 0.000000 0.000000 -0.461464
#
#
# Mechanical properties :
#
#
# Convention : Reuss Voigt Hill
#
# Bulk Modulus (GPa) = 52.94753 60.16752 56.55752
# Shear Modulus (GPa) = -13.90893 59.39258 22.74183
#
# Velocity S-wave (km/s) = -2.62392 5.42213 3.35518
# Velocity P-wave (km/s) = 4.12665 8.30556 6.55788
#
# Compressibility (1/GPa) = 0.01888662
#
# Stress axis : x y z
#
# Youngs Moduli (GPa) = 60.11726 84.59866 64.59040
#
# Poissons Ratio (x) = 0.12018 0.25951
# Poissons Ratio (y) = 0.08540 0.45774
# Poissons Ratio (z) = 0.24154 0.59953
#
# Static dielectric constant tensor:
#      x y z
#    x 1.803720 0.000000 0.000000 
#    y 0.000000 1.725060 0.000000 
#    z 0.000000 0.000000 1.717860 
# 
# From -- ./inp_files/72951.got.cif
#   From: 2010.05.17/outbox.cif.g08.bks.cpg/sg65_37_cif.got.tgz:72951.got - 2010.06.03 17:01:31.
