data_PCOD9488632
_publ_section_title
;
Structure prediction by ZEFSAII (Michael W. Deem and Ramdas Pophale) SiO2 
 PCOD9488632
Probable space group: C M M M
;
_chemical_formula_sum "Si O2"
_cell_formula_units_Z 56
_cell_length_a 37.183496
_cell_length_b 9.281006
_cell_length_c 7.436513
_cell_angle_alpha 90.000000
_cell_angle_beta 90.000000
_cell_angle_gamma 90.000000
_cell_volume 2566.342492
_symmetry_space_group_name_H-M "C M M M"
_symmetry_group_IT_number 65
_symmetry_cell_setting 'orthorhombic'
loop_
_space_group_symop_operation_xyz
x,y,z
-x,-y,z
x,-y,-z
-x,y,-z
-x,-y,-z
x,y,-z
-x,y,z
x,-y,z
1/2+x,1/2+y,z
1/2-x,1/2-y,z
1/2+x,1/2-y,-z
1/2-x,1/2+y,-z
1/2-x,1/2-y,-z
1/2+x,1/2+y,-z
1/2-x,1/2+y,z
1/2+x,1/2-y,z
loop_
_atom_site_type_symbol
_atom_site_label
_atom_site_fract_x
_atom_site_fract_y
_atom_site_fract_z
Si Si1 0.570611 0.836359 0.784798
Si Si2 0.714079 0.833822 0.280194
Si Si3 0.500000 0.666256 0.220141
Si Si4 0.643590 0.336361 0.284817
O O1 0.535764 0.749454 0.719421
O O2 0.607081 0.749958 0.749682
O O3 0.572283 0.000000 0.715312
O O4 0.566789 0.845344 0.000000
O O5 0.713841 0.834332 0.500000
O O6 0.750000 0.750000 0.224728
O O7 0.678365 0.750745 0.218767
O O8 0.714254 0.000000 0.222929
O O9 0.500000 0.500000 0.276794
O O10 0.500000 0.666005 0.000000
O O11 0.647541 0.345401 0.500000
O O12 0.641883 0.500000 0.215356
#
# Coordination Sequence:
#
# PCOD9488632 Si02
#       4
#    16  16   8  16
#     4  10  20  34  53  76 101 130 165 204 246 294
#     4   9  16  27  45  69  97 129 165 204 244 288
#     4   9  17  31  52  75  98 127 164 204 244 289
#     4  10  20  33  50  74 103 133 166 205 248 293
#
# _framework density 21.820936
#
# number of rings (size 3 to 8) (size 9 to 14) (size 15 to 20)
#    0.000    2.429    0.000    3.000    0.000    8.571 
#    0.000    0.714    0.000    5.143    0.000    0.000 
#    0.000    0.000    0.000    0.000    0.000    0.000 
#
# Total GULP energy -156536.973216 kJ/mol
# GULP energy per Si atom -5590.606186 kJ/mol
# Density = 2.177127 g / cm^3
# Si number density = 21.820936 Si / 1000 Ang^3
#
#
#
# Elastic Constant Matrix: (Units=GPa)
#
#
# Indices 1 2 3 4 5 6 
#
# 1 270.1077 176.5310 -0.0301 0.0000 0.0000 0.0000
# 2 176.5310 289.4487 8.6516 0.0000 0.0000 0.0000
# 3 -0.0301 8.6516 68.5729 0.0000 0.0000 0.0000
# 4 0.0000 0.0000 0.0000 8.1723 0.0000 0.0000
# 5 0.0000 0.0000 0.0000 0.0000 23.2577 0.0000
# 6 0.0000 0.0000 0.0000 0.0000 0.0000 48.6749
#
#
#
# Elastic Compliance Matrix: (Units=1/GPa)
#
#
# Indices 1 2 3 4 5 6 
#
# 1 0.006172 -0.003778 0.000479 0.000000 0.000000 0.000000
# 2 -0.003778 0.005781 -0.000731 0.000000 0.000000 0.000000
# 3 0.000479 -0.000731 0.014675 0.000000 0.000000 0.000000
# 4 0.000000 0.000000 0.000000 0.122365 0.000000 0.000000
# 5 0.000000 0.000000 0.000000 0.000000 0.042997 0.000000
# 6 0.000000 0.000000 0.000000 0.000000 0.000000 0.020544
#
#
# Mechanical properties :
#
#
# Convention : Reuss Voigt Hill
#
# Bulk Modulus (GPa) = 53.85541 110.93714 82.39627
# Shear Modulus (GPa) = 22.04743 45.55275 33.80009
#
# Velocity S-wave (km/s) = 3.18210 4.57395 3.93997
# Velocity P-wave (km/s) = 6.18346 8.87946 7.65114
#
# Compressibility (1/GPa) = 0.01856824
#
# Stress axis : x y z
#
# Youngs Moduli (GPa) = 162.03154 172.97894 68.14095
#
# Poissons Ratio (x) = 0.65357 -0.03267
# Poissons Ratio (y) = 0.61221 0.04981
# Poissons Ratio (z) = -0.07768 0.12645
#
# Static dielectric constant tensor:
#      x y z
#    x 1.727050 0.000000 0.000000 
#    y 0.000000 1.767640 0.000000 
#    z 0.000000 0.000000 1.872310 
# 
# From -- ./inp_files/20777.got.cif
#   From: 2010.05.17/outbox.cif.g08.bks.cpg/sg65_11_cif.got.tgz:20777.got - 2010.06.03 17:01:31.
