data_PCOD9488202
_publ_section_title
;
Structure prediction by ZEFSAII (Michael W. Deem and Ramdas Pophale) SiO2 
 PCOD9488202
Probable space group: C M M M
;
_chemical_formula_sum "Si O2"
_cell_formula_units_Z 96
_cell_length_a 17.023587
_cell_length_b 29.863853
_cell_length_c 8.273103
_cell_angle_alpha 90.000000
_cell_angle_beta 90.000000
_cell_angle_gamma 90.000000
_cell_volume 4205.962004
_symmetry_space_group_name_H-M "C M M M"
_symmetry_group_IT_number 65
_symmetry_cell_setting 'orthorhombic'
loop_
_space_group_symop_operation_xyz
x,y,z
-x,-y,z
x,-y,-z
-x,y,-z
-x,-y,-z
x,y,-z
-x,y,z
x,-y,z
1/2+x,1/2+y,z
1/2-x,1/2-y,z
1/2+x,1/2-y,-z
1/2-x,1/2+y,-z
1/2-x,1/2-y,-z
1/2+x,1/2+y,-z
1/2-x,1/2+y,z
1/2+x,1/2-y,z
loop_
_atom_site_type_symbol
_atom_site_label
_atom_site_fract_x
_atom_site_fract_y
_atom_site_fract_z
Si Si1 0.626474 0.050400 0.685969
Si Si2 0.915339 0.741370 0.308928
Si Si3 0.788004 0.194028 0.685571
Si Si4 0.868362 0.648884 0.188829
Si Si5 0.408862 0.630512 0.811262
Si Si6 0.204789 0.950133 0.816786
O O1 0.601408 0.051334 0.500000
O O2 0.606210 0.098387 0.764629
O O3 0.721303 0.052212 0.699456
O O4 0.604627 0.000000 0.751467
O O5 0.914963 0.750243 0.500000
O O6 0.830526 0.760403 0.247739
O O7 0.912896 0.688259 0.281484
O O8 0.000000 0.758115 0.241101
O O9 0.761047 0.199773 0.500000
O O10 0.723023 0.163000 0.773864
O O11 0.867189 0.164777 0.693668
O O12 0.881567 0.654524 0.000000
O O13 0.500000 0.625947 0.782248
O O14 0.363270 0.584453 0.788306
O O15 0.397132 0.644605 0.000000
O O16 0.172640 0.000000 0.811798
O O17 0.237014 0.942240 0.000000
#
# Coordination Sequence:
#
# PCOD9488202 Si02
#       6
#    16  16  16  16  16  16
#     4  10  20  35  58  87 117 151 193 242 293 345
#     4  10  23  43  64  87 118 156 197 243 297 352
#     4  11  22  38  60  85 114 154 202 246 289 340
#     4  12  24  38  61  92 123 156 195 240 294 351
#     4  10  20  32  48  74 110 152 195 241 295 350
#     4   9  17  30  48  71 104 146 190 237 291 348
#
# _framework density 22.824742000000001
#
# number of rings (size 3 to 8) (size 9 to 14) (size 15 to 20)
#    0.000    1.667    1.667    3.500    0.000    6.000 
#    0.000    1.667    0.000    0.500    0.000    7.000 
#    0.000    0.000    0.000    0.000    0.000    0.000 
#
# Total GULP energy -267693.828618 kJ/mol
# GULP energy per Si atom -5576.954763 kJ/mol
# Density = 2.277279 g / cm^3
# Si number density = 22.824742 Si / 1000 Ang^3
#
#
#
# Elastic Constant Matrix: (Units=GPa)
#
#
# Indices 1 2 3 4 5 6 
#
# 1 89.7088 3.1265 1.6087 0.0000 0.0000 0.0000
# 2 3.1265 113.5282 12.5928 0.0000 0.0000 0.0000
# 3 1.6087 12.5928 32.1765 0.0000 0.0000 0.0000
# 4 0.0000 0.0000 0.0000 -8.9619 0.0000 0.0000
# 5 0.0000 0.0000 0.0000 0.0000 7.4920 0.0000
# 6 0.0000 0.0000 0.0000 0.0000 0.0000 9.4525
#
#
#
# Elastic Compliance Matrix: (Units=1/GPa)
#
#
# Indices 1 2 3 4 5 6 
#
# 1 0.011164 -0.000257 -0.000458 0.000000 0.000000 0.000000
# 2 -0.000257 0.009214 -0.003593 0.000000 0.000000 0.000000
# 3 -0.000458 -0.003593 0.032508 0.000000 0.000000 0.000000
# 4 0.000000 0.000000 0.000000 -0.111583 0.000000 0.000000
# 5 0.000000 0.000000 0.000000 0.000000 0.133476 0.000000
# 6 0.000000 0.000000 0.000000 0.000000 0.000000 0.105793
#
#
# Mechanical properties :
#
#
# Convention : Reuss Voigt Hill
#
# Bulk Modulus (GPa) = 22.58824 30.00775 26.29799
# Shear Modulus (GPa) = 24.51650 16.13553 20.32601
#
# Velocity S-wave (km/s) = 3.28093 2.66170 2.98740
# Velocity P-wave (km/s) = 4.92652 4.75624 4.84212
#
# Compressibility (1/GPa) = 0.04427082
#
# Stress axis : x y z
#
# Youngs Moduli (GPa) = 89.57099 108.53023 30.76188
#
# Poissons Ratio (x) = 0.02786 0.01408
# Poissons Ratio (y) = 0.02299 0.11053
# Poissons Ratio (z) = 0.04100 0.38997
#
# Static dielectric constant tensor:
#      x y z
#    x 1.911540 0.000000 0.000000 
#    y 0.000000 1.968510 0.000000 
#    z 0.000000 0.000000 1.850500 
# 
# From -- ./inp_files/12193.got.cif
#   From: 2010.05.17/outbox.cif.g08.bks.cpg/sg65_7_cif.got.tgz:12193.got - 2010.06.03 17:01:31.
