data_PCOD9488545
_publ_section_title
;
Structure prediction by ZEFSAII (Michael W. Deem and Ramdas Pophale) SiO2 
 PCOD9488545
Probable space group: C M M M
;
_chemical_formula_sum "Si O2"
_cell_formula_units_Z 88
_cell_length_a 20.104387
_cell_length_b 8.649238
_cell_length_c 28.656707
_cell_angle_alpha 90.000000
_cell_angle_beta 90.000000
_cell_angle_gamma 90.000000
_cell_volume 4983.046807
_symmetry_space_group_name_H-M "C M M M"
_symmetry_group_IT_number 65
_symmetry_cell_setting 'orthorhombic'
loop_
_space_group_symop_operation_xyz
x,y,z
-x,-y,z
x,-y,-z
-x,y,-z
-x,-y,-z
x,y,-z
-x,y,z
x,-y,z
1/2+x,1/2+y,z
1/2-x,1/2-y,z
1/2+x,1/2-y,-z
1/2-x,1/2+y,-z
1/2-x,1/2-y,-z
1/2+x,1/2+y,-z
1/2-x,1/2+y,z
1/2+x,1/2-y,z
loop_
_atom_site_type_symbol
_atom_site_label
_atom_site_fract_x
_atom_site_fract_y
_atom_site_fract_z
Si Si1 0.324993 0.684003 0.000000
Si Si2 0.176177 0.186926 0.367155
Si Si3 0.424234 0.813814 0.814240
Si Si4 0.923475 0.811548 0.552559
Si Si5 0.576807 0.186767 0.922355
Si Si6 0.823661 0.184791 0.738515
O O1 0.250000 0.750000 0.000000
O O2 0.368332 0.740818 0.044203
O O3 0.320947 0.500000 0.000000
O O4 0.250000 0.250000 0.375636
O O5 0.125392 0.241862 0.406778
O O6 0.156305 0.232200 0.314326
O O7 0.178199 0.000000 0.368588
O O8 0.500000 0.766585 0.803404
O O9 0.411021 0.771207 0.868221
O O10 0.373541 0.744493 0.777543
O O11 0.421069 0.000000 0.812029
O O12 0.903777 0.763898 0.500000
O O13 0.000000 0.764527 0.560416
O O14 0.922773 0.000000 0.553073
O O15 0.500000 0.230705 0.934119
O O16 0.580042 0.000000 0.926314
O O17 0.750000 0.250000 0.746765
O O18 0.821185 0.000000 0.739863
#
# Coordination Sequence:
#
# PCOD9488545 Si02
#       6
#     8  16  16  16  16  16
#     4  12  25  38  55  81 111 141 175 214 253 296
#     4   9  18  31  47  69  96 126 162 202 245 294
#     4   9  19  36  57  80 105 134 169 208 251 302
#     4   8  14  26  45  68  93 122 158 200 244 291
#     4   9  19  38  61  81 105 138 171 206 253 305
#     4  10  20  33  50  72 101 136 170 209 255 301
#
# _framework density 17.659879
#
# number of rings (size 3 to 8) (size 9 to 14) (size 15 to 20)
#    0.000    2.727    0.000    3.273    0.000    5.091 
#    0.000    3.636    0.000    0.545    0.000    1.273 
#    0.000    0.000    0.000    0.000    0.000    0.000 
#
# Total GULP energy -245367.462690 kJ/mol
# GULP energy per Si atom -5576.533243 kJ/mol
# Density = 1.761968 g / cm^3
# Si number density = 17.659879 Si / 1000 Ang^3
#
#
#
# Elastic Constant Matrix: (Units=GPa)
#
#
# Indices 1 2 3 4 5 6 
#
# 1 148.9991 43.0127 139.1021 0.0000 0.0000 0.0000
# 2 43.0127 26.7582 46.2350 0.0000 0.0000 0.0000
# 3 139.1021 46.2350 170.2060 0.0000 0.0000 0.0000
# 4 0.0000 0.0000 0.0000 14.6996 0.0000 0.0000
# 5 0.0000 0.0000 0.0000 0.0000 46.8879 0.0000
# 6 0.0000 0.0000 0.0000 0.0000 0.0000 27.7355
#
#
#
# Elastic Compliance Matrix: (Units=1/GPa)
#
#
# Indices 1 2 3 4 5 6 
#
# 1 0.029947 -0.011024 -0.021480 0.000000 0.000000 0.000000
# 2 -0.011024 0.074486 -0.011224 0.000000 0.000000 0.000000
# 3 -0.021480 -0.011224 0.026479 0.000000 0.000000 0.000000
# 4 0.000000 0.000000 0.000000 0.068029 0.000000 0.000000
# 5 0.000000 0.000000 0.000000 0.000000 0.021327 0.000000
# 6 0.000000 0.000000 0.000000 0.000000 0.000000 0.036055
#
#
# Mechanical properties :
#
#
# Convention : Reuss Voigt Hill
#
# Bulk Modulus (GPa) = 23.01176 89.18477 56.09827
# Shear Modulus (GPa) = 13.95624 25.70552 19.83088
#
# Velocity S-wave (km/s) = 2.81424 3.81936 3.35466
# Velocity P-wave (km/s) = 4.85991 8.37024 6.84397
#
# Compressibility (1/GPa) = 0.04345604
#
# Stress axis : x y z
#
# Youngs Moduli (GPa) = 33.39287 13.42533 37.76648
#
# Poissons Ratio (x) = 0.14800 0.81121
# Poissons Ratio (y) = 0.36811 0.42390
# Poissons Ratio (z) = 0.71726 0.15069
#
# Static dielectric constant tensor:
#      x y z
#    x 1.571350 0.000000 0.000000 
#    y 0.000000 1.595640 0.000000 
#    z 0.000000 0.000000 1.607000 
# 
# From -- ./inp_files/77876.got.cif
#   From: 2010.05.17/outbox.cif.g08.bks.cpg/sg65_39_cif.got.tgz:77876.got - 2010.06.03 17:01:31.
