data_PCOD9488485
_publ_section_title
;
Structure prediction by ZEFSAII (Michael W. Deem and Ramdas Pophale) SiO2 
 PCOD9488485
Probable space group: C M M M
;
_chemical_formula_sum "Si O2"
_cell_formula_units_Z 104
_cell_length_a 9.132710
_cell_length_b 19.164150
_cell_length_c 34.827177
_cell_angle_alpha 90.000000
_cell_angle_beta 90.000000
_cell_angle_gamma 90.000000
_cell_volume 6095.474263
_symmetry_space_group_name_H-M "C M M M"
_symmetry_group_IT_number 65
_symmetry_cell_setting 'orthorhombic'
loop_
_space_group_symop_operation_xyz
x,y,z
-x,-y,z
x,-y,-z
-x,y,-z
-x,-y,-z
x,y,-z
-x,y,z
x,-y,z
1/2+x,1/2+y,z
1/2-x,1/2-y,z
1/2+x,1/2-y,-z
1/2-x,1/2+y,-z
1/2-x,1/2-y,-z
1/2+x,1/2+y,-z
1/2-x,1/2+y,z
1/2+x,1/2-y,z
loop_
_atom_site_type_symbol
_atom_site_label
_atom_site_fract_x
_atom_site_fract_y
_atom_site_fract_z
Si Si1 0.827310 0.083819 0.656556
Si Si2 0.831209 0.415048 0.577694
Si Si3 0.172371 0.084600 0.957819
Si Si4 0.676018 0.918670 0.880384
Si Si5 0.324460 0.824724 0.809032
Si Si6 0.324357 0.825810 0.278322
Si Si7 0.669353 0.414814 0.500000
O O1 0.756835 0.105326 0.615814
O O2 0.743857 0.122198 0.690794
O O3 0.000000 0.099905 0.657245
O O4 0.810951 0.000000 0.660043
O O5 0.831590 0.500000 0.576991
O O6 0.752129 0.392092 0.538601
O O7 0.000000 0.392231 0.579219
O O8 0.256702 0.109284 0.920135
O O9 0.000000 0.100423 0.954567
O O10 0.185953 0.000000 0.958128
O O11 0.224278 0.109044 0.000000
O O12 0.500000 0.915637 0.883025
O O13 0.723072 0.876279 0.842848
O O14 0.717766 0.000000 0.876242
O O15 0.500000 0.816790 0.811573
O O16 0.250000 0.750000 0.814064
O O17 0.292769 0.849410 0.765571
O O18 0.500000 0.820598 0.282841
O O19 0.250000 0.750000 0.282973
O O20 0.670734 0.500000 0.500000
O O21 0.500000 0.393242 0.500000
#
# Coordination Sequence:
#
# PCOD9488485 Si02
#       7
#    16  16  16  16  16  16   8
#     4  10  20  33  49  72 102 131 161 202 249 292
#     4   9  16  26  41  63  92 126 163 200 240 288
#     4   8  14  25  41  63  92 123 153 186 226 272
#     4   9  17  29  46  70  97 122 152 191 233 276
#     4   9  19  34  51  70  93 123 156 192 234 281
#     4  10  20  35  54  73  95 126 164 202 242 292
#     4   9  15  23  37  59  90 127 162 197 240 287
#
# _framework density 17.061838000000002
#
# number of rings (size 3 to 8) (size 9 to 14) (size 15 to 20)
#    0.000    2.846    0.000    2.077    0.000    5.846 
#    0.000    3.077    0.000    2.308    0.000    0.538 
#    0.000    0.000    0.000    0.000    0.000    0.000 
#
# Total GULP energy -289733.029553 kJ/mol
# GULP energy per Si atom -5571.789030 kJ/mol
# Density = 1.702300 g / cm^3
# Si number density = 17.061838 Si / 1000 Ang^3
#
#
#
# Elastic Constant Matrix: (Units=GPa)
#
#
# Indices 1 2 3 4 5 6 
#
# 1 88.8359 31.0882 86.4580 0.0000 0.0000 0.0000
# 2 31.0882 23.7051 58.5756 0.0000 0.0000 0.0000
# 3 86.4580 58.5756 204.1691 0.0000 0.0000 0.0000
# 4 0.0000 0.0000 0.0000 -10.6541 0.0000 0.0000
# 5 0.0000 0.0000 0.0000 0.0000 31.8132 0.0000
# 6 0.0000 0.0000 0.0000 0.0000 0.0000 18.9370
#
#
#
# Elastic Compliance Matrix: (Units=1/GPa)
#
#
# Indices 1 2 3 4 5 6 
#
# 1 0.021505 -0.019584 -0.003488 0.000000 0.000000 0.000000
# 2 -0.019584 0.162762 -0.038403 0.000000 0.000000 0.000000
# 3 -0.003488 -0.038403 0.017393 0.000000 0.000000 0.000000
# 4 0.000000 0.000000 0.000000 -0.093861 0.000000 0.000000
# 5 0.000000 0.000000 0.000000 0.000000 0.031433 0.000000
# 6 0.000000 0.000000 0.000000 0.000000 0.000000 0.052807
#
#
# Mechanical properties :
#
#
# Convention : Reuss Voigt Hill
#
# Bulk Modulus (GPa) = 12.70483 74.32821 43.51652
# Shear Modulus (GPa) = 14.65308 17.39179 16.02244
#
# Velocity S-wave (km/s) = 2.93375 3.19617 3.06777
# Velocity P-wave (km/s) = 4.35182 7.56831 6.17323
#
# Compressibility (1/GPa) = 0.07871020
#
# Stress axis : x y z
#
# Youngs Moduli (GPa) = 46.50173 6.14392 57.49564
#
# Poissons Ratio (x) = 0.12032 0.20054
# Poissons Ratio (y) = 0.91068 2.20801
# Poissons Ratio (z) = 0.16219 0.23595
#
# Static dielectric constant tensor:
#      x y z
#    x 1.569670 0.000000 0.000000 
#    y 0.000000 1.554260 0.000000 
#    z 0.000000 0.000000 1.585530 
# 
# From -- ./inp_files/76864.got.cif
#   From: 2010.05.17/outbox.cif.g08.bks.cpg/sg65_39_cif.got.tgz:76864.got - 2010.06.03 17:01:31.
