data_PCOD9488673
_publ_section_title
;
Structure prediction by ZEFSAII (Michael W. Deem and Ramdas Pophale) SiO2 
 PCOD9488673
Probable space group: C M M M
;
_chemical_formula_sum "Si O2"
_cell_formula_units_Z 64
_cell_length_a 14.091937
_cell_length_b 17.558693
_cell_length_c 13.679070
_cell_angle_alpha 90.000000
_cell_angle_beta 90.000000
_cell_angle_gamma 90.000000
_cell_volume 3384.694304
_symmetry_space_group_name_H-M "C M M M"
_symmetry_group_IT_number 65
_symmetry_cell_setting 'orthorhombic'
loop_
_space_group_symop_operation_xyz
x,y,z
-x,-y,z
x,-y,-z
-x,y,-z
-x,-y,-z
x,y,-z
-x,y,z
x,-y,z
1/2+x,1/2+y,z
1/2-x,1/2-y,z
1/2+x,1/2-y,-z
1/2-x,1/2+y,-z
1/2-x,1/2-y,-z
1/2+x,1/2+y,-z
1/2-x,1/2+y,z
1/2+x,1/2-y,z
loop_
_atom_site_type_symbol
_atom_site_label
_atom_site_fract_x
_atom_site_fract_y
_atom_site_fract_z
Si Si1 0.892786 0.590028 0.000000
Si Si2 0.183053 0.684729 0.695152
Si Si3 0.000000 0.408942 0.383174
Si Si4 0.231057 0.912243 0.156781
Si Si5 0.887780 0.770757 0.891515
O O1 0.828120 0.600310 0.904266
O O2 0.906971 0.500000 0.000000
O O3 0.000000 0.622563 0.000000
O O4 0.250000 0.750000 0.644300
O O5 0.092251 0.641802 0.648497
O O6 0.249099 0.616086 0.733685
O O7 0.148962 0.728658 0.794298
O O8 0.000000 0.500000 0.347404
O O9 0.000000 0.413696 0.500000
O O10 0.154201 0.855286 0.113426
O O11 0.205101 0.000000 0.149533
O O12 0.000000 0.772211 0.886526
O O13 0.860232 0.739450 0.000000
#
# Coordination Sequence:
#
# PCOD9488673 Si02
#       5
#     8  16   8  16  16
#     4   9  18  28  40  67 107 153 192 229 280 326
#     4  10  22  38  60  85 120 156 196 235 292 360
#     4  11  24  44  69  95 118 143 189 255 317 364
#     4  10  20  33  50  77 114 152 197 240 278 330
#     4  10  20  34  53  77 114 160 198 234 278 333
#
# _framework density 18.908649
#
# number of rings (size 3 to 8) (size 9 to 14) (size 15 to 20)
#    0.000    2.000    2.500    0.750    3.500    2.500 
#    0.000    1.250    0.000    0.750    0.000    0.000 
#    0.000    8.000    0.000    0.000    0.000    0.000 
#
# Total GULP energy -178138.240350 kJ/mol
# GULP energy per Si atom -5566.820011 kJ/mol
# Density = 1.886561 g / cm^3
# Si number density = 18.908649 Si / 1000 Ang^3
#
#
#
# Elastic Constant Matrix: (Units=GPa)
#
#
# Indices 1 2 3 4 5 6 
#
# 1 96.4529 47.4282 15.3935 0.0000 0.0000 0.0000
# 2 47.4282 154.5359 33.7731 0.0000 0.0000 0.0000
# 3 15.3935 33.7731 45.9197 0.0000 0.0000 0.0000
# 4 0.0000 0.0000 0.0000 41.8436 0.0000 0.0000
# 5 0.0000 0.0000 0.0000 0.0000 12.0228 0.0000
# 6 0.0000 0.0000 0.0000 0.0000 0.0000 37.5944
#
#
#
# Elastic Compliance Matrix: (Units=1/GPa)
#
#
# Indices 1 2 3 4 5 6 
#
# 1 0.012309 -0.003427 -0.001606 0.000000 0.000000 0.000000
# 2 -0.003427 0.008664 -0.005224 0.000000 0.000000 0.000000
# 3 -0.001606 -0.005224 0.026157 0.000000 0.000000 0.000000
# 4 0.000000 0.000000 0.000000 0.023899 0.000000 0.000000
# 5 0.000000 0.000000 0.000000 0.000000 0.083175 0.000000
# 6 0.000000 0.000000 0.000000 0.000000 0.000000 0.026600
#
#
# Mechanical properties :
#
#
# Convention : Reuss Voigt Hill
#
# Bulk Modulus (GPa) = 37.56867 54.45534 46.01201
# Shear Modulus (GPa) = 23.78803 31.64640 27.71722
#
# Velocity S-wave (km/s) = 3.55075 4.09546 3.83279
# Velocity P-wave (km/s) = 6.05987 7.15719 6.63127
#
# Compressibility (1/GPa) = 0.02661792
#
# Stress axis : x y z
#
# Youngs Moduli (GPa) = 81.24077 115.41606 38.22998
#
# Poissons Ratio (x) = 0.39550 0.06140
# Poissons Ratio (y) = 0.27839 0.19970
# Poissons Ratio (z) = 0.13047 0.60290
#
# Static dielectric constant tensor:
#      x y z
#    x 1.669510 0.000000 0.000000 
#    y 0.000000 1.763180 0.000000 
#    z 0.000000 0.000000 1.676300 
# 
# From -- ./inp_files/23979.got.cif
#   From: 2010.05.17/outbox.cif.g08.bks.cpg/sg65_12_cif.got.tgz:23979.got - 2010.06.03 17:01:31.
