data_PCOD9488223
_publ_section_title
;
Structure prediction by ZEFSAII (Michael W. Deem and Ramdas Pophale) SiO2 
 PCOD9488223
Probable space group: C M M M
;
_chemical_formula_sum "Si O2"
_cell_formula_units_Z 88
_cell_length_a 27.966843
_cell_length_b 8.928629
_cell_length_c 21.621280
_cell_angle_alpha 90.000000
_cell_angle_beta 90.000000
_cell_angle_gamma 90.000000
_cell_volume 5398.953948
_symmetry_space_group_name_H-M "C M M M"
_symmetry_group_IT_number 65
_symmetry_cell_setting 'orthorhombic'
loop_
_space_group_symop_operation_xyz
x,y,z
-x,-y,z
x,-y,-z
-x,y,-z
-x,-y,-z
x,y,-z
-x,y,z
x,-y,z
1/2+x,1/2+y,z
1/2-x,1/2-y,z
1/2+x,1/2-y,-z
1/2-x,1/2+y,-z
1/2-x,1/2-y,-z
1/2+x,1/2+y,-z
1/2-x,1/2+y,z
1/2+x,1/2-y,z
loop_
_atom_site_type_symbol
_atom_site_label
_atom_site_fract_x
_atom_site_fract_y
_atom_site_fract_z
Si Si1 0.356423 0.821361 0.683727
Si Si2 0.444666 0.682710 0.000000
Si Si3 0.802261 0.821267 0.570936
Si Si4 0.444951 0.320763 0.252393
Si Si5 0.301944 0.179232 0.810626
Si Si6 0.108730 0.179614 0.125055
O O1 0.337300 0.745595 0.621847
O O2 0.408616 0.763035 0.702595
O O3 0.322010 0.781565 0.741988
O O4 0.356133 0.000000 0.677454
O O5 0.416235 0.728461 0.938428
O O6 0.445823 0.500000 0.000000
O O7 0.500000 0.732568 0.000000
O O8 0.816729 0.787820 0.500000
O O9 0.750000 0.750000 0.580543
O O10 0.798978 0.000000 0.577733
O O11 0.500000 0.277162 0.259845
O O12 0.440998 0.500000 0.261971
O O13 0.426827 0.290729 0.182570
O O14 0.250000 0.250000 0.819819
O O15 0.341389 0.241830 0.858270
O O16 0.299394 0.000000 0.814942
O O17 0.116366 0.000000 0.122419
#
# Coordination Sequence:
#
# PCOD9488223 Si02
#       6
#    16   8  16  16  16  16
#     4  10  20  32  49  73  99 128 161 199 241 284
#     4   9  16  28  50  77 100 123 156 197 238 283
#     4  10  20  33  50  73 101 131 161 194 234 282
#     4   9  17  30  49  72  98 128 161 198 241 287
#     4  10  20  33  49  70  96 126 161 199 239 283
#     4   9  17  30  49  73  99 126 158 196 238 285
#
# _framework density 16.299454999999998
#
# number of rings (size 3 to 8) (size 9 to 14) (size 15 to 20)
#    0.000    2.455    0.000    2.727    0.000    7.273 
#    0.000    0.909    0.000    2.727    0.000    3.818 
#    0.000    0.000    0.000    0.000    0.000    0.000 
#
# Total GULP energy -245472.546228 kJ/mol
# GULP energy per Si atom -5578.921505 kJ/mol
# Density = 1.626236 g / cm^3
# Si number density = 16.299455 Si / 1000 Ang^3
#
#
#
# Elastic Constant Matrix: (Units=GPa)
#
#
# Indices 1 2 3 4 5 6 
#
# 1 159.9660 57.0657 90.1272 0.0000 0.0000 0.0000
# 2 57.0657 41.1707 54.6742 0.0000 0.0000 0.0000
# 3 90.1272 54.6742 133.1762 0.0000 0.0000 0.0000
# 4 0.0000 0.0000 0.0000 18.6872 0.0000 0.0000
# 5 0.0000 0.0000 0.0000 0.0000 19.9040 0.0000
# 6 0.0000 0.0000 0.0000 0.0000 0.0000 26.9719
#
#
#
# Elastic Compliance Matrix: (Units=1/GPa)
#
#
# Indices 1 2 3 4 5 6 
#
# 1 0.012908 -0.013832 -0.003057 0.000000 0.000000 0.000000
# 2 -0.013832 0.068227 -0.018649 0.000000 0.000000 0.000000
# 3 -0.003057 -0.018649 0.017234 0.000000 0.000000 0.000000
# 4 0.000000 0.000000 0.000000 0.053513 0.000000 0.000000
# 5 0.000000 0.000000 0.000000 0.000000 0.050241 0.000000
# 6 0.000000 0.000000 0.000000 0.000000 0.000000 0.037076
#
#
# Mechanical properties :
#
#
# Convention : Reuss Voigt Hill
#
# Bulk Modulus (GPa) = 36.63961 82.00523 59.32242
# Shear Modulus (GPa) = 15.65573 21.94235 18.79904
#
# Velocity S-wave (km/s) = 3.10257 3.67304 3.39979
# Velocity P-wave (km/s) = 5.94663 8.27098 7.20318
#
# Compressibility (1/GPa) = 0.02729287
#
# Stress axis : x y z
#
# Youngs Moduli (GPa) = 77.47150 14.65695 58.02499
#
# Poissons Ratio (x) = 0.20273 0.17738
# Poissons Ratio (y) = 1.07157 1.08212
# Poissons Ratio (z) = 0.23683 0.27334
#
# Static dielectric constant tensor:
#      x y z
#    x 1.519790 0.000000 0.000000 
#    y 0.000000 1.544680 0.000000 
#    z 0.000000 0.000000 1.536380 
# 
# From -- ./inp_files/59785.got.cif
#   From: 2010.05.17/outbox.cif.g08.bks.cpg/sg65_30_cif.got.tgz:59785.got - 2010.06.03 17:01:31.
