data_PCOD9488602
_publ_section_title
;
Structure prediction by ZEFSAII (Michael W. Deem and Ramdas Pophale) SiO2 
 PCOD9488602
Probable space group: C M M M
;
_chemical_formula_sum "Si O2"
_cell_formula_units_Z 112
_cell_length_a 14.681713
_cell_length_b 27.603652
_cell_length_c 14.923400
_cell_angle_alpha 90.000000
_cell_angle_beta 90.000000
_cell_angle_gamma 90.000000
_cell_volume 6047.989849
_symmetry_space_group_name_H-M "C M M M"
_symmetry_group_IT_number 65
_symmetry_cell_setting 'orthorhombic'
loop_
_space_group_symop_operation_xyz
x,y,z
-x,-y,z
x,-y,-z
-x,y,-z
-x,-y,-z
x,y,-z
-x,y,z
x,-y,z
1/2+x,1/2+y,z
1/2-x,1/2-y,z
1/2+x,1/2-y,-z
1/2-x,1/2+y,-z
1/2-x,1/2-y,-z
1/2+x,1/2+y,-z
1/2-x,1/2+y,z
1/2+x,1/2-y,z
loop_
_atom_site_type_symbol
_atom_site_label
_atom_site_fract_x
_atom_site_fract_y
_atom_site_fract_z
Si Si1 0.272277 0.053025 0.604203
Si Si2 0.893304 0.638305 0.608819
Si Si3 0.603268 0.442814 0.144585
Si Si4 0.743955 0.867977 0.898705
Si Si5 0.258108 0.692513 0.722585
Si Si6 0.104180 0.112831 0.334508
Si Si7 0.395058 0.947310 0.109211
O O1 0.291878 0.047115 0.500000
O O2 0.355130 0.085646 0.638542
O O3 0.178681 0.083153 0.609501
O O4 0.263503 0.000000 0.646419
O O5 0.880776 0.643392 0.500000
O O6 0.826996 0.673550 0.663543
O O7 0.000000 0.644322 0.627468
O O8 0.500000 0.439506 0.109318
O O9 0.628263 0.500000 0.143087
O O10 0.673385 0.406692 0.097664
O O11 0.601261 0.419832 0.244225
O O12 0.756625 0.826729 0.825050
O O13 0.662071 0.901405 0.862629
O O14 0.726841 0.850458 0.000000
O O15 0.250000 0.750000 0.720176
O O16 0.348448 0.665024 0.683881
O O17 0.000000 0.116812 0.367593
O O18 0.500000 0.943627 0.135307
O O19 0.359381 0.000000 0.138369
O O20 0.391522 0.947185 0.000000
#
# Coordination Sequence:
#
# PCOD9488602 Si02
#       7
#    16  16  16  16  16  16  16
#     4   9  17  29  49  81 117 147 173 201 240 302
#     4   9  19  37  60  84 109 137 171 214 263 313
#     4   9  17  29  47  71  98 132 174 215 255 303
#     4  10  20  33  50  73 103 138 174 213 259 311
#     4  10  22  38  56  77 101 133 177 230 279 321
#     4   9  18  33  50  70 102 141 178 219 265 311
#     4   8  14  26  45  69  98 132 167 203 248 304
#
# _framework density 18.518550000000001
#
# number of rings (size 3 to 8) (size 9 to 14) (size 15 to 20)
#    0.000    2.857    0.000    1.286    0.000    4.286 
#    0.000    3.571    0.000    0.000    0.000    4.000 
#    0.000    0.000    0.000    0.000    0.000    0.000 
#
# Total GULP energy -311743.568745 kJ/mol
# GULP energy per Si atom -5566.849442 kJ/mol
# Density = 1.847640 g / cm^3
# Si number density = 18.518550 Si / 1000 Ang^3
#
#
#
# Elastic Constant Matrix: (Units=GPa)
#
#
# Indices 1 2 3 4 5 6 
#
# 1 109.9197 51.0492 25.3643 0.0000 0.0000 0.0000
# 2 51.0492 150.3256 25.4645 0.0000 0.0000 0.0000
# 3 25.3643 25.4645 48.2359 0.0000 0.0000 0.0000
# 4 0.0000 0.0000 0.0000 -3.9897 0.0000 0.0000
# 5 0.0000 0.0000 0.0000 0.0000 20.0322 0.0000
# 6 0.0000 0.0000 0.0000 0.0000 0.0000 9.5166
#
#
#
# Elastic Compliance Matrix: (Units=1/GPa)
#
#
# Indices 1 2 3 4 5 6 
#
# 1 0.011598 -0.003191 -0.004414 0.000000 0.000000 0.000000
# 2 -0.003191 0.008183 -0.002642 0.000000 0.000000 0.000000
# 3 -0.004414 -0.002642 0.024447 0.000000 0.000000 0.000000
# 4 0.000000 0.000000 0.000000 -0.250648 0.000000 0.000000
# 5 0.000000 0.000000 0.000000 0.000000 0.049920 0.000000
# 6 0.000000 0.000000 0.000000 0.000000 0.000000 0.105079
#
#
# Mechanical properties :
#
#
# Convention : Reuss Voigt Hill
#
# Bulk Modulus (GPa) = 42.13314 56.91526 49.52420
# Shear Modulus (GPa) = -217.26038 18.88539 -99.18750
#
# Velocity S-wave (km/s) = -10.84321 3.19691 -7.32649
# Velocity P-wave (km/s) = 11.57435 6.66542 6.69095
#
# Compressibility (1/GPa) = 0.02373429
#
# Stress axis : x y z
#
# Youngs Moduli (GPa) = 86.22144 122.19865 40.90402
#
# Poissons Ratio (x) = 0.38992 0.18056
# Poissons Ratio (y) = 0.27512 0.10808
# Poissons Ratio (z) = 0.38060 0.32288
#
# Static dielectric constant tensor:
#      x y z
#    x 1.653580 0.000000 0.000000 
#    y 0.000000 1.645190 0.000000 
#    z 0.000000 0.000000 1.680850 
# 
# From -- ./inp_files/41066.got.cif
#   From: 2010.05.17/outbox.cif.g08.bks.cpg/sg65_21_cif.got.tgz:41066.got - 2010.06.03 17:01:31.
