data_PCOD9488876
_publ_section_title
;
Structure prediction by ZEFSAII (Michael W. Deem and Ramdas Pophale) SiO2 
 PCOD9488876
Probable space group: C M M M
;
_chemical_formula_sum "Si O2"
_cell_formula_units_Z 88
_cell_length_a 19.013710
_cell_length_b 8.243124
_cell_length_c 29.267616
_cell_angle_alpha 90.000000
_cell_angle_beta 90.000000
_cell_angle_gamma 90.000000
_cell_volume 4587.182797
_symmetry_space_group_name_H-M "C M M M"
_symmetry_group_IT_number 65
_symmetry_cell_setting 'orthorhombic'
loop_
_space_group_symop_operation_xyz
x,y,z
-x,-y,z
x,-y,-z
-x,y,-z
-x,-y,-z
x,y,-z
-x,y,z
x,-y,z
1/2+x,1/2+y,z
1/2-x,1/2-y,z
1/2+x,1/2-y,-z
1/2-x,1/2+y,-z
1/2-x,1/2-y,-z
1/2+x,1/2+y,-z
1/2-x,1/2+y,z
1/2+x,1/2-y,z
loop_
_atom_site_type_symbol
_atom_site_label
_atom_site_fract_x
_atom_site_fract_y
_atom_site_fract_z
Si Si1 0.418668 0.801694 0.000000
Si Si2 0.329915 0.193668 0.362513
Si Si3 0.418938 0.804263 0.824231
Si Si4 0.581342 0.802155 0.551212
Si Si5 0.669471 0.196163 0.911311
Si Si6 0.919493 0.193876 0.723577
O O1 0.376340 0.749772 0.954914
O O2 0.500000 0.748951 0.000000
O O3 0.419590 0.000000 0.000000
O O4 0.250000 0.250000 0.361477
O O5 0.369902 0.256749 0.407788
O O6 0.370946 0.246410 0.317197
O O7 0.331284 0.000000 0.364454
O O8 0.500000 0.749188 0.831200
O O9 0.368390 0.747081 0.864775
O O10 0.396113 0.750345 0.773822
O O11 0.419627 0.000000 0.825276
O O12 0.602517 0.750432 0.500000
O O13 0.500000 0.754665 0.558657
O O14 0.582635 0.000000 0.551408
O O15 0.750000 0.250000 0.914406
O O16 0.668328 0.000000 0.911184
O O17 0.000000 0.253685 0.717080
O O18 0.920435 0.000000 0.723119
#
# Coordination Sequence:
#
# PCOD9488876 Si02
#       6
#     8  16  16  16  16  16
#     4   9  17  32  55  79 102 133 176 218 252 295
#     4  11  22  35  53  78 109 144 179 217 263 313
#     4   9  18  34  55  77 101 134 178 219 255 303
#     4   8  15  30  53  79 104 133 173 217 259 308
#     4  10  20  33  52  78 107 138 170 210 259 309
#     4  10  21  37  57  80 106 137 175 221 269 316
#
# _framework density 19.183888
#
# number of rings (size 3 to 8) (size 9 to 14) (size 15 to 20)
#    0.000    2.455    0.000    3.000    0.000    5.818 
#    0.000    1.818    0.000    3.818    0.000    6.364 
#    0.000    0.000    0.000    0.000    0.000    0.000 
#
# Total GULP energy -245614.430818 kJ/mol
# GULP energy per Si atom -5582.146155 kJ/mol
# Density = 1.914022 g / cm^3
# Si number density = 19.183888 Si / 1000 Ang^3
#
#
#
# Elastic Constant Matrix: (Units=GPa)
#
#
# Indices 1 2 3 4 5 6 
#
# 1 153.3004 15.0898 144.6704 0.0000 0.0000 0.0000
# 2 15.0898 15.0591 22.9712 0.0000 0.0000 0.0000
# 3 144.6704 22.9712 224.9229 0.0000 0.0000 0.0000
# 4 0.0000 0.0000 0.0000 2.0809 0.0000 0.0000
# 5 0.0000 0.0000 0.0000 0.0000 3.7477 0.0000
# 6 0.0000 0.0000 0.0000 0.0000 0.0000 19.0201
#
#
#
# Elastic Compliance Matrix: (Units=1/GPa)
#
#
# Indices 1 2 3 4 5 6 
#
# 1 0.016600 -0.000411 -0.010635 0.000000 0.000000 0.000000
# 2 -0.000411 0.078670 -0.007770 0.000000 0.000000 0.000000
# 3 -0.010635 -0.007770 0.012080 0.000000 0.000000 0.000000
# 4 0.000000 0.000000 0.000000 0.480566 0.000000 0.000000
# 5 0.000000 0.000000 0.000000 0.000000 0.266827 0.000000
# 6 0.000000 0.000000 0.000000 0.000000 0.000000 0.052576
#
#
# Mechanical properties :
#
#
# Convention : Reuss Voigt Hill
#
# Bulk Modulus (GPa) = 14.34367 84.30502 49.32434
# Shear Modulus (GPa) = 5.16427 19.00648 12.08537
#
# Velocity S-wave (km/s) = 1.64251 3.15104 2.51265
# Velocity P-wave (km/s) = 3.33021 7.56835 5.84680
#
# Compressibility (1/GPa) = 0.06971718
#
# Stress axis : x y z
#
# Youngs Moduli (GPa) = 60.24062 12.71139 82.78079
#
# Poissons Ratio (x) = 0.00522 0.88039
# Poissons Ratio (y) = 0.02476 0.64322
# Poissons Ratio (z) = 0.64067 0.09877
#
# Static dielectric constant tensor:
#      x y z
#    x 1.632430 0.000000 0.000000 
#    y 0.000000 1.673050 0.000000 
#    z 0.000000 0.000000 1.658480 
# 
# From -- ./inp_files/76574.got.cif
#   From: 2010.05.17/outbox.cif.g08.bks.cpg/sg65_39_cif.got.tgz:76574.got - 2010.06.03 17:01:31.
