data_PCOD9488349
_publ_section_title
;
Structure prediction by ZEFSAII (Michael W. Deem and Ramdas Pophale) SiO2 
 PCOD9488349
Probable space group: C M M M
;
_chemical_formula_sum "Si O2"
_cell_formula_units_Z 80
_cell_length_a 28.624758
_cell_length_b 8.958056
_cell_length_c 21.174711
_cell_angle_alpha 90.000000
_cell_angle_beta 90.000000
_cell_angle_gamma 90.000000
_cell_volume 5429.665665
_symmetry_space_group_name_H-M "C M M M"
_symmetry_group_IT_number 65
_symmetry_cell_setting 'orthorhombic'
loop_
_space_group_symop_operation_xyz
x,y,z
-x,-y,z
x,-y,-z
-x,y,-z
-x,-y,-z
x,y,-z
-x,y,z
x,-y,z
1/2+x,1/2+y,z
1/2-x,1/2-y,z
1/2+x,1/2-y,-z
1/2-x,1/2+y,-z
1/2-x,1/2-y,-z
1/2+x,1/2+y,-z
1/2-x,1/2+y,z
1/2+x,1/2-y,z
loop_
_atom_site_type_symbol
_atom_site_label
_atom_site_fract_x
_atom_site_fract_y
_atom_site_fract_z
Si Si1 0.800020 0.822849 0.575414
Si Si2 0.443222 0.171696 0.129599
Si Si3 0.056016 0.175128 0.500000
Si Si4 0.556962 0.672731 0.000000
Si Si5 0.393962 0.178490 0.379955
Si Si6 0.555922 0.676847 0.738919
O O1 0.808217 0.801860 0.500000
O O2 0.750000 0.750000 0.590051
O O3 0.841888 0.742758 0.611740
O O4 0.799596 0.000000 0.587633
O O5 0.500000 0.171869 0.127960
O O6 0.430174 0.263961 0.191848
O O7 0.428058 0.000000 0.134310
O O8 0.427571 0.245690 0.064016
O O9 0.076538 0.253688 0.438138
O O10 0.000000 0.183505 0.500000
O O11 0.069734 0.000000 0.500000
O O12 0.570941 0.500000 0.000000
O O13 0.500000 0.676040 0.000000
O O14 0.417173 0.235715 0.315543
O O15 0.393901 0.000000 0.383113
O O16 0.500000 0.701185 0.731739
O O17 0.564338 0.500000 0.733530
#
# Coordination Sequence:
#
# PCOD9488349 Si02
#       6
#    16  16   8   8  16  16
#     4  10  20  35  55  74  94 115 142 182 230 280
#     4   9  16  26  40  59  83 112 149 191 230 267
#     4  11  23  37  50  65  88 119 155 193 231 269
#     4   9  15  23  37  57  81 111 148 187 226 267
#     4  12  23  34  50  70  92 118 151 189 231 276
#     4  10  20  33  47  63  88 123 159 193 231 275
#
# _framework density 14.733872
#
# number of rings (size 3 to 8) (size 9 to 14) (size 15 to 20)
#    0.000    1.800    1.000    4.800    0.000    8.800 
#    0.000    0.000    0.000    0.000    0.000    0.000 
#    0.000    0.000    0.000    0.900    0.000   12.700 
#
# Total GULP energy -223286.360057 kJ/mol
# GULP energy per Si atom -5582.159001 kJ/mol
# Density = 1.470034 g / cm^3
# Si number density = 14.733872 Si / 1000 Ang^3
#
#
#
# Elastic Constant Matrix: (Units=GPa)
#
#
# Indices 1 2 3 4 5 6 
#
# 1 57.8871 53.4957 43.9162 0.0000 0.0000 0.0000
# 2 53.4957 143.1551 70.5756 0.0000 0.0000 0.0000
# 3 43.9162 70.5756 121.8360 0.0000 0.0000 0.0000
# 4 0.0000 0.0000 0.0000 29.6210 0.0000 0.0000
# 5 0.0000 0.0000 0.0000 0.0000 0.4224 0.0000
# 6 0.0000 0.0000 0.0000 0.0000 0.0000 20.9567
#
#
#
# Elastic Compliance Matrix: (Units=1/GPa)
#
#
# Indices 1 2 3 4 5 6 
#
# 1 0.029103 -0.007984 -0.005866 0.000000 0.000000 0.000000
# 2 -0.007984 0.011968 -0.004055 0.000000 0.000000 0.000000
# 3 -0.005866 -0.004055 0.012671 0.000000 0.000000 0.000000
# 4 0.000000 0.000000 0.000000 0.033760 0.000000 0.000000
# 5 0.000000 0.000000 0.000000 0.000000 2.367608 0.000000
# 6 0.000000 0.000000 0.000000 0.000000 0.000000 0.047717
#
#
# Mechanical properties :
#
#
# Convention : Reuss Voigt Hill
#
# Bulk Modulus (GPa) = 55.76166 73.20591 64.48379
# Shear Modulus (GPa) = 1.96494 20.52607 11.24550
#
# Velocity S-wave (km/s) = 1.15608 3.73650 2.76568
# Velocity P-wave (km/s) = 6.30159 8.27095 7.35251
#
# Compressibility (1/GPa) = 0.01793347
#
# Stress axis : x y z
#
# Youngs Moduli (GPa) = 34.36055 83.55643 78.92131
#
# Poissons Ratio (x) = 0.66710 0.46292
# Poissons Ratio (y) = 0.27433 0.32001
# Poissons Ratio (z) = 0.20154 0.33881
#
# Static dielectric constant tensor:
#      x y z
#    x 1.463170 0.000000 0.000000 
#    y 0.000000 1.489610 0.000000 
#    z 0.000000 0.000000 1.474170 
# 
# From -- ./inp_files/60048.got.cif
#   From: 2010.05.17/outbox.cif.g08.bks.cpg/sg65_31_cif.got.tgz:60048.got - 2010.06.03 17:01:31.
