data_PCOD9488933
_publ_section_title
;
Structure prediction by ZEFSAII (Michael W. Deem and Ramdas Pophale) SiO2 
 PCOD9488933
Probable space group: C M M M
;
_chemical_formula_sum "Si O2"
_cell_formula_units_Z 88
_cell_length_a 8.636290
_cell_length_b 29.417784
_cell_length_c 18.565578
_cell_angle_alpha 90.000000
_cell_angle_beta 90.000000
_cell_angle_gamma 90.000000
_cell_volume 4716.780285
_symmetry_space_group_name_H-M "C M M M"
_symmetry_group_IT_number 65
_symmetry_cell_setting 'orthorhombic'
loop_
_space_group_symop_operation_xyz
x,y,z
-x,-y,z
x,-y,-z
-x,y,-z
-x,-y,-z
x,y,-z
-x,y,z
x,-y,z
1/2+x,1/2+y,z
1/2-x,1/2-y,z
1/2+x,1/2-y,-z
1/2-x,1/2+y,-z
1/2-x,1/2-y,-z
1/2+x,1/2+y,-z
1/2-x,1/2+y,z
1/2+x,1/2-y,z
loop_
_atom_site_type_symbol
_atom_site_label
_atom_site_fract_x
_atom_site_fract_y
_atom_site_fract_z
Si Si1 0.313144 0.645897 0.362922
Si Si2 0.186763 0.142076 0.920272
Si Si3 0.313263 0.550949 0.695684
Si Si4 0.686879 0.300709 0.782552
Si Si5 0.316238 0.198985 0.500000
Si Si6 0.814705 0.551246 0.142664
O O1 0.500000 0.648083 0.369688
O O2 0.267883 0.592961 0.354759
O O3 0.269152 0.670663 0.288220
O O4 0.240470 0.671865 0.429778
O O5 0.241733 0.174028 0.855056
O O6 0.241819 0.091081 0.904123
O O7 0.000000 0.142586 0.918761
O O8 0.238096 0.156612 0.000000
O O9 0.500000 0.553074 0.703998
O O10 0.272910 0.500000 0.670202
O O11 0.240987 0.557207 0.774816
O O12 0.500000 0.299361 0.784226
O O13 0.750000 0.250000 0.778118
O O14 0.500000 0.201861 0.500000
O O15 0.250000 0.250000 0.500000
O O16 0.768945 0.500000 0.120426
O O17 0.000000 0.554322 0.139927
#
# Coordination Sequence:
#
# PCOD9488933 Si02
#       6
#    16  16  16  16   8  16
#     4  10  20  38  62  88 118 150 188 234 281 332
#     4  10  21  38  57  78 108 147 193 240 284 335
#     4   9  17  33  60  89 116 150 191 230 271 328
#     4  10  21  37  57  83 109 143 187 234 284 338
#     4  12  26  42  61  88 119 153 192 235 287 340
#     4  10  20  33  52  81 116 150 185 230 284 339
#
# _framework density 18.656794999999999
#
# number of rings (size 3 to 8) (size 9 to 14) (size 15 to 20)
#    0.000    2.000    1.818    1.909    0.000    5.818 
#    0.000    2.273    0.000    2.727    0.000    0.000 
#    0.000    0.000    0.000    0.000    0.000    0.000 
#
# Total GULP energy -245652.363708 kJ/mol
# GULP energy per Si atom -5583.008266 kJ/mol
# Density = 1.861433 g / cm^3
# Si number density = 18.656795 Si / 1000 Ang^3
#
#
#
# Elastic Constant Matrix: (Units=GPa)
#
#
# Indices 1 2 3 4 5 6 
#
# 1 14.2019 32.2060 36.6692 0.0000 0.0000 0.0000
# 2 32.2060 148.2376 88.1849 0.0000 0.0000 0.0000
# 3 36.6692 88.1849 141.4384 0.0000 0.0000 0.0000
# 4 0.0000 0.0000 0.0000 11.9011 0.0000 0.0000
# 5 0.0000 0.0000 0.0000 0.0000 11.7670 0.0000
# 6 0.0000 0.0000 0.0000 0.0000 0.0000 30.2705
#
#
#
# Elastic Compliance Matrix: (Units=1/GPa)
#
#
# Indices 1 2 3 4 5 6 
#
# 1 0.266033 -0.026654 -0.052353 0.000000 0.000000 0.000000
# 2 -0.026654 0.013394 -0.001441 0.000000 0.000000 0.000000
# 3 -0.052353 -0.001441 0.021541 0.000000 0.000000 0.000000
# 4 0.000000 0.000000 0.000000 0.084026 0.000000 0.000000
# 5 0.000000 0.000000 0.000000 0.000000 0.084984 0.000000
# 6 0.000000 0.000000 0.000000 0.000000 0.000000 0.033035
#
#
# Mechanical properties :
#
#
# Convention : Reuss Voigt Hill
#
# Bulk Modulus (GPa) = 7.13913 68.66644 37.90279
# Shear Modulus (GPa) = 7.03632 20.57558 13.80595
#
# Velocity S-wave (km/s) = 1.94413 3.32452 2.72324
# Velocity P-wave (km/s) = 2.97899 7.18481 5.49981
#
# Compressibility (1/GPa) = 0.14007306
#
# Stress axis : x y z
#
# Youngs Moduli (GPa) = 3.75893 74.66220 46.42221
#
# Poissons Ratio (x) = 1.99003 2.43035
# Poissons Ratio (y) = 0.10019 0.06687
# Poissons Ratio (z) = 0.19679 0.10755
#
# Static dielectric constant tensor:
#      x y z
#    x 1.635330 0.000000 0.000000 
#    y 0.000000 1.641630 0.000000 
#    z 0.000000 0.000000 1.632150 
# 
# From -- ./inp_files/50355.got.cif
#   From: 2010.05.17/outbox.cif.g08.bks.cpg/sg65_26_cif.got.tgz:50355.got - 2010.06.03 17:01:31.
