data_PCOD9488962
_publ_section_title
;
Structure prediction by ZEFSAII (Michael W. Deem and Ramdas Pophale) SiO2 
 PCOD9488962
Probable space group: C M M M
;
_chemical_formula_sum "Si O2"
_cell_formula_units_Z 80
_cell_length_a 15.215191
_cell_length_b 28.383211
_cell_length_c 9.573091
_cell_angle_alpha 90.000000
_cell_angle_beta 90.000000
_cell_angle_gamma 90.000000
_cell_volume 4134.196562
_symmetry_space_group_name_H-M "C M M M"
_symmetry_group_IT_number 65
_symmetry_cell_setting 'orthorhombic'
loop_
_space_group_symop_operation_xyz
x,y,z
-x,-y,z
x,-y,-z
-x,y,-z
-x,-y,-z
x,y,-z
-x,y,z
x,-y,z
1/2+x,1/2+y,z
1/2-x,1/2-y,z
1/2+x,1/2-y,-z
1/2-x,1/2+y,-z
1/2-x,1/2-y,-z
1/2+x,1/2+y,-z
1/2-x,1/2+y,z
1/2+x,1/2-y,z
loop_
_atom_site_type_symbol
_atom_site_label
_atom_site_fract_x
_atom_site_fract_y
_atom_site_fract_z
Si Si1 0.369812 0.113805 0.161357
Si Si2 0.852118 0.191566 0.660679
Si Si3 0.659365 0.601966 0.837815
Si Si4 0.500000 0.055932 0.659919
Si Si5 0.361180 0.202962 0.338327
Si Si6 0.104933 0.000000 0.161846
O O1 0.264890 0.106925 0.165252
O O2 0.416659 0.074990 0.255445
O O3 0.393578 0.163577 0.232363
O O4 0.396655 0.111539 0.000000
O O5 0.877699 0.183467 0.500000
O O6 0.876777 0.146962 0.754193
O O7 0.745427 0.197231 0.662870
O O8 0.884804 0.243583 0.702572
O O9 0.635496 0.550325 0.778622
O O10 0.630062 0.603946 0.000000
O O11 0.500000 0.073348 0.500000
O O12 0.500000 0.000000 0.657871
O O13 0.388345 0.195306 0.500000
O O14 0.000000 0.000000 0.161432
O O15 0.137343 0.000000 0.000000
#
# Coordination Sequence:
#
# PCOD9488962 Si02
#       6
#    16  16  16   8  16   8
#     4  10  20  33  53  80 108 137 173 222 271 310
#     4   8  14  26  47  75 104 136 172 213 257 306
#     4   9  18  31  52  80 105 135 176 221 266 317
#     4  11  25  41  55  73 103 143 185 220 259 318
#     4   8  14  27  48  73 104 139 174 210 255 311
#     4   9  18  34  55  76 103 138 174 211 263 321
#
# _framework density 19.350798000000001
#
# number of rings (size 3 to 8) (size 9 to 14) (size 15 to 20)
#    0.000    3.000    0.000    2.100    1.400    2.400 
#    0.000    4.500    2.200    1.200    0.000    0.000 
#    0.000    0.000    0.000    0.000    0.000    0.000 
#
# Total GULP energy -223002.591173 kJ/mol
# GULP energy per Si atom -5575.064779 kJ/mol
# Density = 1.930675 g / cm^3
# Si number density = 19.350798 Si / 1000 Ang^3
#
#
#
# Elastic Constant Matrix: (Units=GPa)
#
#
# Indices 1 2 3 4 5 6 
#
# 1 30.3014 15.1081 12.5601 0.0000 0.0000 0.0000
# 2 15.1081 183.5195 80.2950 0.0000 0.0000 0.0000
# 3 12.5601 80.2950 104.1824 0.0000 0.0000 0.0000
# 4 0.0000 0.0000 0.0000 32.9596 0.0000 0.0000
# 5 0.0000 0.0000 0.0000 0.0000 -30.3554 0.0000
# 6 0.0000 0.0000 0.0000 0.0000 0.0000 82.1577
#
#
#
# Elastic Compliance Matrix: (Units=1/GPa)
#
#
# Indices 1 2 3 4 5 6 
#
# 1 0.035032 -0.001563 -0.003019 0.000000 0.000000 0.000000
# 2 -0.001563 0.008291 -0.006202 0.000000 0.000000 0.000000
# 3 -0.003019 -0.006202 0.014742 0.000000 0.000000 0.000000
# 4 0.000000 0.000000 0.000000 0.030340 0.000000 0.000000
# 5 0.000000 0.000000 0.000000 0.000000 -0.032943 0.000000
# 6 0.000000 0.000000 0.000000 0.000000 0.000000 0.012172
#
#
# Mechanical properties :
#
#
# Convention : Reuss Voigt Hill
#
# Bulk Modulus (GPa) = 27.39825 59.32551 43.36188
# Shear Modulus (GPa) = 49.32532 30.95505 40.14018
#
# Velocity S-wave (km/s) = 5.05425 4.00394 4.55944
# Velocity P-wave (km/s) = 6.94622 7.21802 7.08342
#
# Compressibility (1/GPa) = 0.03649868
#
# Stress axis : x y z
#
# Youngs Moduli (GPa) = 28.54494 120.61145 67.83272
#
# Poissons Ratio (x) = 0.18855 0.20476
# Poissons Ratio (y) = 0.04462 0.42067
# Poissons Ratio (z) = 0.08617 0.74798
#
# Static dielectric constant tensor:
#      x y z
#    x 1.735280 0.000000 0.000000 
#    y 0.000000 1.678280 0.000000 
#    z 0.000000 0.000000 1.652150 
# 
# From -- ./inp_files/9754.got.cif
#   From: 2010.05.17/outbox.cif.g08.bks.cpg/sg65_5_cif.got.tgz:9754.got - 2010.06.03 17:01:31.
