data_PCOD9488916
_publ_section_title
;
Structure prediction by ZEFSAII (Michael W. Deem and Ramdas Pophale) SiO2 
 PCOD9488916
Probable space group: C M M M
;
_chemical_formula_sum "Si O2"
_cell_formula_units_Z 72
_cell_length_a 18.393020
_cell_length_b 9.197678
_cell_length_c 23.765176
_cell_angle_alpha 90.000000
_cell_angle_beta 90.000000
_cell_angle_gamma 90.000000
_cell_volume 4020.427912
_symmetry_space_group_name_H-M "C M M M"
_symmetry_group_IT_number 65
_symmetry_cell_setting 'orthorhombic'
loop_
_space_group_symop_operation_xyz
x,y,z
-x,-y,z
x,-y,-z
-x,y,-z
-x,-y,-z
x,y,-z
-x,y,z
x,-y,z
1/2+x,1/2+y,z
1/2-x,1/2-y,z
1/2+x,1/2-y,-z
1/2-x,1/2+y,-z
1/2-x,1/2-y,-z
1/2+x,1/2+y,-z
1/2-x,1/2+y,z
1/2+x,1/2-y,z
loop_
_atom_site_type_symbol
_atom_site_label
_atom_site_fract_x
_atom_site_fract_y
_atom_site_fract_z
Si Si1 0.587714 0.832557 0.161439
Si Si2 0.088387 0.833099 0.727472
Si Si3 0.171689 0.326089 0.500000
Si Si4 0.672026 0.672910 0.935846
Si Si5 0.087116 0.827087 0.400155
O O1 0.500000 0.826266 0.160380
O O2 0.612435 0.768521 0.221610
O O3 0.619330 0.738314 0.110824
O O4 0.610079 0.000000 0.155436
O O5 0.109812 0.791436 0.664042
O O6 0.000000 0.832215 0.727183
O O7 0.110868 0.000000 0.737809
O O8 0.177789 0.500000 0.500000
O O9 0.250000 0.250000 0.500000
O O10 0.128261 0.268602 0.554443
O O11 0.679707 0.500000 0.928890
O O12 0.750000 0.750000 0.929886
O O13 0.646254 0.700660 0.000000
O O14 0.000000 0.806505 0.405053
O O15 0.100782 0.000000 0.409197
#
# Coordination Sequence:
#
# PCOD9488916 Si02
#       5
#    16  16   8  16  16
#     4  10  20  33  52  80 112 142 172 212 260 307
#     4   8  15  30  53  79 106 137 172 211 256 306
#     4  12  25  38  53  75 107 143 177 218 265 310
#     4  10  21  37  56  76 101 136 177 220 264 312
#     4   9  18  35  59  83 107 137 173 213 258 310
#
# _framework density 17.908539999999999
#
# number of rings (size 3 to 8) (size 9 to 14) (size 15 to 20)
#    0.000    2.444    0.000    4.000    0.000    5.778 
#    0.000    5.556    0.000    5.333    0.000    0.000 
#    0.000    0.000    0.000    0.000    0.000    0.000 
#
# Total GULP energy -200843.208480 kJ/mol
# GULP energy per Si atom -5578.978013 kJ/mol
# Density = 1.786778 g / cm^3
# Si number density = 17.908540 Si / 1000 Ang^3
#
#
#
# Elastic Constant Matrix: (Units=GPa)
#
#
# Indices 1 2 3 4 5 6 
#
# 1 29.9872 43.3917 44.5747 0.0000 0.0000 0.0000
# 2 43.3917 126.5586 103.0319 0.0000 0.0000 0.0000
# 3 44.5747 103.0319 151.2484 0.0000 0.0000 0.0000
# 4 0.0000 0.0000 0.0000 28.7093 0.0000 0.0000
# 5 0.0000 0.0000 0.0000 0.0000 -44.5187 0.0000
# 6 0.0000 0.0000 0.0000 0.0000 0.0000 27.5833
#
#
#
# Elastic Compliance Matrix: (Units=1/GPa)
#
#
# Indices 1 2 3 4 5 6 
#
# 1 0.072254 -0.016697 -0.009920 0.000000 0.000000 0.000000
# 2 -0.016697 0.021598 -0.009792 0.000000 0.000000 0.000000
# 3 -0.009920 -0.009792 0.016205 0.000000 0.000000 0.000000
# 4 0.000000 0.000000 0.000000 0.034832 0.000000 0.000000
# 5 0.000000 0.000000 0.000000 0.000000 -0.022462 0.000000
# 6 0.000000 0.000000 0.000000 0.000000 0.000000 0.036254
#
#
# Mechanical properties :
#
#
# Convention : Reuss Voigt Hill
#
# Bulk Modulus (GPa) = 26.85314 76.64342 51.74828
# Shear Modulus (GPa) = 20.49930 10.14118 15.32024
#
# Velocity S-wave (km/s) = 3.38696 2.38224 2.92802
# Velocity P-wave (km/s) = 5.50659 7.10329 6.35528
#
# Compressibility (1/GPa) = 0.03723960
#
# Stress axis : x y z
#
# Youngs Moduli (GPa) = 13.84009 46.30123 61.70794
#
# Poissons Ratio (x) = 0.77309 0.61214
# Poissons Ratio (y) = 0.23109 0.60423
# Poissons Ratio (z) = 0.13729 0.45337
#
# Static dielectric constant tensor:
#      x y z
#    x 1.595550 0.000000 0.000000 
#    y 0.000000 1.595760 0.000000 
#    z 0.000000 0.000000 1.611980 
# 
# From -- ./inp_files/59235.got.cif
#   From: 2010.05.17/outbox.cif.g08.bks.cpg/sg65_30_cif.got.tgz:59235.got - 2010.06.03 17:01:31.
