data_PCOD9488387
_publ_section_title
;
Structure prediction by ZEFSAII (Michael W. Deem and Ramdas Pophale) SiO2 
 PCOD9488387
Probable space group: C M M M
;
_chemical_formula_sum "Si O2"
_cell_formula_units_Z 112
_cell_length_a 14.142670
_cell_length_b 15.348944
_cell_length_c 29.621801
_cell_angle_alpha 90.000000
_cell_angle_beta 90.000000
_cell_angle_gamma 90.000000
_cell_volume 6430.153928
_symmetry_space_group_name_H-M "C M M M"
_symmetry_group_IT_number 65
_symmetry_cell_setting 'orthorhombic'
loop_
_space_group_symop_operation_xyz
x,y,z
-x,-y,z
x,-y,-z
-x,y,-z
-x,-y,-z
x,y,-z
-x,y,z
x,-y,z
1/2+x,1/2+y,z
1/2-x,1/2-y,z
1/2+x,1/2-y,-z
1/2-x,1/2+y,-z
1/2-x,1/2-y,-z
1/2+x,1/2+y,-z
1/2-x,1/2+y,z
1/2+x,1/2-y,z
loop_
_atom_site_type_symbol
_atom_site_label
_atom_site_fract_x
_atom_site_fract_y
_atom_site_fract_z
Si Si1 0.114831 0.222471 0.270192
Si Si2 0.114353 0.598165 0.770632
Si Si3 0.107800 0.097018 0.811924
Si Si4 0.222176 0.349676 0.139121
Si Si5 0.609398 0.894823 0.949286
Si Si6 0.115876 0.101466 0.647813
Si Si7 0.889002 0.105633 0.451476
O O1 0.145269 0.322070 0.261694
O O2 0.138330 0.165823 0.225885
O O3 0.146895 0.169190 0.313978
O O4 0.000000 0.223573 0.272333
O O5 0.144186 0.500000 0.757416
O O6 0.153864 0.618227 0.820579
O O7 0.000000 0.599471 0.772263
O O8 0.179574 0.100445 0.853134
O O9 0.000000 0.116347 0.825196
O O10 0.109645 0.000000 0.791668
O O11 0.250000 0.250000 0.145329
O O12 0.173969 0.362381 0.091109
O O13 0.500000 0.868395 0.942077
O O14 0.611323 0.000000 0.948337
O O15 0.637558 0.867247 0.000000
O O16 0.149452 0.130077 0.597735
O O17 0.000000 0.101219 0.647073
O O18 0.142976 0.000000 0.656387
O O19 0.847707 0.134656 0.500000
O O20 0.000000 0.130291 0.451853
O O21 0.886592 0.000000 0.451334
#
# Coordination Sequence:
#
# PCOD9488387 Si02
#       7
#    16  16  16  16  16  16  16
#     4   9  16  27  41  61  87 117 159 201 239 286
#     4  10  20  34  51  70  94 125 163 208 251 287
#     4  10  20  33  48  68  98 133 165 196 229 278
#     4  12  22  33  53  76 103 131 160 198 240 289
#     4   9  19  37  60  83 104 127 161 206 248 284
#     4   8  12  18  31  51  78 116 156 195 242 293
#     4   7   9  13  22  40  69 106 149 193 236 286
#
# _framework density 17.417933999999999
#
# number of rings (size 3 to 8) (size 9 to 14) (size 15 to 20)
#    0.000    2.714    1.429    3.857    0.000    3.714 
#    0.000    0.000    0.000    0.429    0.000    2.000 
#    0.000    0.571    0.000   10.571    0.000   14.571 
#
# Total GULP energy -311875.167756 kJ/mol
# GULP energy per Si atom -5569.199424 kJ/mol
# Density = 1.737829 g / cm^3
# Si number density = 17.417934 Si / 1000 Ang^3
#
#
#
# Elastic Constant Matrix: (Units=GPa)
#
#
# Indices 1 2 3 4 5 6 
#
# 1 46.5466 18.6747 42.3169 0.0000 0.0000 0.0000
# 2 18.6747 106.7448 59.3818 0.0000 0.0000 0.0000
# 3 42.3169 59.3818 148.6332 0.0000 0.0000 0.0000
# 4 0.0000 0.0000 0.0000 -10.0422 0.0000 0.0000
# 5 0.0000 0.0000 0.0000 0.0000 9.3275 0.0000
# 6 0.0000 0.0000 0.0000 0.0000 0.0000 11.8783
#
#
#
# Elastic Compliance Matrix: (Units=1/GPa)
#
#
# Indices 1 2 3 4 5 6 
#
# 1 0.029018 -0.000618 -0.008015 0.000000 0.000000 0.000000
# 2 -0.000618 0.012058 -0.004642 0.000000 0.000000 0.000000
# 3 -0.008015 -0.004642 0.010864 0.000000 0.000000 0.000000
# 4 0.000000 0.000000 0.000000 -0.099580 0.000000 0.000000
# 5 0.000000 0.000000 0.000000 0.000000 0.107210 0.000000
# 6 0.000000 0.000000 0.000000 0.000000 0.000000 0.084187
#
#
# Mechanical properties :
#
#
# Convention : Reuss Voigt Hill
#
# Bulk Modulus (GPa) = 39.38242 60.29684 49.83963
# Shear Modulus (GPa) = 27.96872 14.33613 21.15242
#
# Velocity S-wave (km/s) = 4.01152 2.87203 3.48861
# Velocity P-wave (km/s) = 6.64197 6.75950 6.70099
#
# Compressibility (1/GPa) = 0.02539204
#
# Stress axis : x y z
#
# Youngs Moduli (GPa) = 34.46101 82.93000 92.04505
#
# Poissons Ratio (x) = 0.05126 0.73772
# Poissons Ratio (y) = 0.02130 0.42723
# Poissons Ratio (z) = 0.27620 0.38493
#
# Static dielectric constant tensor:
#      x y z
#    x 1.603430 0.000000 0.000000 
#    y 0.000000 1.659350 0.000000 
#    z 0.000000 0.000000 1.613340 
# 
# From -- ./inp_files/74856.got.cif
#   From: 2010.05.17/outbox.cif.g08.bks.cpg/sg65_38_cif.got.tgz:74856.got - 2010.06.03 17:01:31.
