data_PCOD9488573
_publ_section_title
;
Structure prediction by ZEFSAII (Michael W. Deem and Ramdas Pophale) SiO2 
 PCOD9488573
Probable space group: C M M M
;
_chemical_formula_sum "Si O2"
_cell_formula_units_Z 104
_cell_length_a 19.094708
_cell_length_b 7.678215
_cell_length_c 36.542072
_cell_angle_alpha 90.000000
_cell_angle_beta 90.000000
_cell_angle_gamma 90.000000
_cell_volume 5357.552792
_symmetry_space_group_name_H-M "C M M M"
_symmetry_group_IT_number 65
_symmetry_cell_setting 'orthorhombic'
loop_
_space_group_symop_operation_xyz
x,y,z
-x,-y,z
x,-y,-z
-x,y,-z
-x,-y,-z
x,y,-z
-x,y,z
x,-y,z
1/2+x,1/2+y,z
1/2-x,1/2-y,z
1/2+x,1/2-y,-z
1/2-x,1/2+y,-z
1/2-x,1/2-y,-z
1/2+x,1/2+y,-z
1/2-x,1/2+y,z
1/2+x,1/2-y,z
loop_
_atom_site_type_symbol
_atom_site_label
_atom_site_fract_x
_atom_site_fract_y
_atom_site_fract_z
Si Si1 0.580789 0.712463 0.458769
Si Si2 0.668803 0.792621 0.250657
Si Si3 0.078929 0.206983 0.679120
Si Si4 0.084014 0.704557 0.901817
Si Si5 0.668296 0.290337 0.389510
Si Si6 0.331189 0.791194 0.831054
Si Si7 0.914857 0.000000 0.041713
O O1 0.599443 0.768848 0.500000
O O2 0.500000 0.762488 0.451450
O O3 0.582035 0.500000 0.458852
O O4 0.631984 0.773701 0.426849
O O5 0.750000 0.750000 0.258723
O O6 0.618224 0.730380 0.282530
O O7 0.652350 0.723128 0.209795
O O8 0.662868 0.000000 0.249457
O O9 0.126134 0.276989 0.645860
O O10 0.000000 0.278615 0.679494
O O11 0.073405 0.000000 0.673108
O O12 0.101153 0.500000 0.907995
O O13 0.120746 0.767515 0.864489
O O14 0.000000 0.716265 0.897667
O O15 0.105506 0.829009 0.935199
O O16 0.662170 0.500000 0.389717
O O17 0.750000 0.250000 0.387491
O O18 0.250000 0.750000 0.838337
O O19 0.338935 0.000000 0.829636
O O20 0.000000 0.000000 0.040429
O O21 0.889417 0.000000 0.000000
#
# Coordination Sequence:
#
# PCOD9488573 Si02
#       7
#    16  16  16  16  16  16   8
#     4   8  14  27  49  74  96 122 161 206 249 297
#     4  10  20  35  54  76 104 134 171 213 254 306
#     4  10  21  36  52  72  99 132 170 211 258 307
#     4   9  18  33  52  77 107 138 176 222 270 318
#     4  10  20  33  50  72  99 130 164 205 252 302
#     4   9  19  33  52  77 102 136 172 208 257 308
#     4   9  18  32  52  80 108 138 179 223 271 323
#
# _framework density 19.411849
#
# number of rings (size 3 to 8) (size 9 to 14) (size 15 to 20)
#    0.000    2.692    0.000    1.846    1.077    5.846 
#    0.000    3.077    0.000    1.846    0.000    1.077 
#    0.000    0.000    0.000    0.000    0.000    0.000 
#
# Total GULP energy -290077.400268 kJ/mol
# GULP energy per Si atom -5578.411544 kJ/mol
# Density = 1.936767 g / cm^3
# Si number density = 19.411849 Si / 1000 Ang^3
#
#
#
# Elastic Constant Matrix: (Units=GPa)
#
#
# Indices 1 2 3 4 5 6 
#
# 1 109.1058 20.7855 113.8006 0.0000 0.0000 0.0000
# 2 20.7855 49.3084 35.2441 0.0000 0.0000 0.0000
# 3 113.8006 35.2441 195.3180 0.0000 0.0000 0.0000
# 4 0.0000 0.0000 0.0000 16.1556 0.0000 0.0000
# 5 0.0000 0.0000 0.0000 0.0000 48.8412 0.0000
# 6 0.0000 0.0000 0.0000 0.0000 0.0000 17.7284
#
#
#
# Elastic Compliance Matrix: (Units=1/GPa)
#
#
# Indices 1 2 3 4 5 6 
#
# 1 0.023365 -0.000136 -0.013589 0.000000 0.000000 0.000000
# 2 -0.000136 0.023284 -0.004122 0.000000 0.000000 0.000000
# 3 -0.013589 -0.004122 0.013781 0.000000 0.000000 0.000000
# 4 0.000000 0.000000 0.000000 0.061898 0.000000 0.000000
# 5 0.000000 0.000000 0.000000 0.000000 0.020475 0.000000
# 6 0.000000 0.000000 0.000000 0.000000 0.000000 0.056407
#
#
# Mechanical properties :
#
#
# Convention : Reuss Voigt Hill
#
# Bulk Modulus (GPa) = 40.42721 77.04361 58.73541
# Shear Modulus (GPa) = 20.56352 28.80518 24.68435
#
# Velocity S-wave (km/s) = 3.25826 3.85632 3.56984
# Velocity P-wave (km/s) = 5.91830 7.72032 6.87858
#
# Compressibility (1/GPa) = 0.02473582
#
# Stress axis : x y z
#
# Youngs Moduli (GPa) = 42.79923 42.94730 72.56338
#
# Poissons Ratio (x) = 0.00586 0.98605
# Poissons Ratio (y) = 0.00584 0.29911
# Poissons Ratio (z) = 0.58159 0.17703
#
# Static dielectric constant tensor:
#      x y z
#    x 1.644300 0.000000 0.000000 
#    y 0.000000 1.723700 0.000000 
#    z 0.000000 0.000000 1.684430 
# 
# From -- ./inp_files/78249.got.cif
#   From: 2010.05.17/outbox.cif.g08.bks.cpg/sg65_40_cif.got.tgz:78249.got - 2010.06.03 17:01:31.
