data_PCOD9488421
_publ_section_title
;
Structure prediction by ZEFSAII (Michael W. Deem and Ramdas Pophale) SiO2 
 PCOD9488421
Probable space group: C M M M
;
_chemical_formula_sum "Si O2"
_cell_formula_units_Z 96
_cell_length_a 8.499051
_cell_length_b 27.413386
_cell_length_c 24.795614
_cell_angle_alpha 90.000000
_cell_angle_beta 90.000000
_cell_angle_gamma 90.000000
_cell_volume 5777.074705
_symmetry_space_group_name_H-M "C M M M"
_symmetry_group_IT_number 65
_symmetry_cell_setting 'orthorhombic'
loop_
_space_group_symop_operation_xyz
x,y,z
-x,-y,z
x,-y,-z
-x,y,-z
-x,-y,-z
x,y,-z
-x,y,z
x,-y,z
1/2+x,1/2+y,z
1/2-x,1/2-y,z
1/2+x,1/2-y,-z
1/2-x,1/2+y,-z
1/2-x,1/2-y,-z
1/2+x,1/2+y,-z
1/2-x,1/2+y,z
1/2+x,1/2-y,z
loop_
_atom_site_type_symbol
_atom_site_label
_atom_site_fract_x
_atom_site_fract_y
_atom_site_fract_z
Si Si1 0.309538 0.941888 0.058017
Si Si2 0.184348 0.097788 0.286735
Si Si3 0.313038 0.944807 0.394307
Si Si4 0.811668 0.558454 0.175863
Si Si5 0.685580 0.196922 0.331009
Si Si6 0.313187 0.345455 0.561147
O O1 0.500000 0.937249 0.058246
O O2 0.255557 0.923659 0.116596
O O3 0.277308 0.000000 0.057740
O O4 0.252306 0.922076 0.000000
O O5 0.277282 0.066135 0.331383
O O6 0.229362 0.082634 0.226641
O O7 0.230086 0.153654 0.298513
O O8 0.000000 0.090629 0.296441
O O9 0.500000 0.940224 0.403269
O O10 0.226461 0.902136 0.426844
O O11 0.264727 0.000000 0.407789
O O12 0.787043 0.500000 0.178217
O O13 0.000000 0.566510 0.179670
O O14 0.500000 0.194006 0.322163
O O15 0.750000 0.250000 0.317160
O O16 0.723399 0.185308 0.393655
O O17 0.268934 0.333252 0.500000
O O18 0.500000 0.338099 0.568008
#
# Coordination Sequence:
#
# PCOD9488421 Si02
#       6
#    16  16  16  16  16  16
#     4   7  10  18  34  57  85 119 160 201 234 264
#     4  11  21  32  47  68  94 122 155 192 230 275
#     4  10  20  33  49  68  92 124 159 193 230 270
#     4   9  16  26  42  65  94 128 164 199 234 271
#     4  11  22  38  58  75  93 116 144 182 230 279
#     4  10  21  36  53  74  98 122 151 185 221 266
#
# _framework density 16.617405999999999
#
# number of rings (size 3 to 8) (size 9 to 14) (size 15 to 20)
#    0.000    2.333    0.000    8.000    0.000    5.667 
#    0.000    1.667    0.000    0.500    0.000    2.333 
#    0.000    0.667    0.000    1.833    0.000    2.667 
#
# Total GULP energy -267659.725927 kJ/mol
# GULP energy per Si atom -5576.244290 kJ/mol
# Density = 1.657958 g / cm^3
# Si number density = 16.617406 Si / 1000 Ang^3
#
#
#
# Elastic Constant Matrix: (Units=GPa)
#
#
# Indices 1 2 3 4 5 6 
#
# 1 23.8517 -0.2985 3.2417 0.0000 0.0000 0.0000
# 2 -0.2985 27.1163 -21.2679 0.0000 0.0000 0.0000
# 3 3.2417 -21.2679 61.3686 0.0000 0.0000 0.0000
# 4 0.0000 0.0000 0.0000 4.4322 0.0000 0.0000
# 5 0.0000 0.0000 0.0000 0.0000 -3.7093 0.0000
# 6 0.0000 0.0000 0.0000 0.0000 0.0000 21.1371
#
#
#
# Elastic Compliance Matrix: (Units=1/GPa)
#
#
# Indices 1 2 3 4 5 6 
#
# 1 0.042291 -0.001767 -0.002846 0.000000 0.000000 0.000000
# 2 -0.001767 0.050718 0.017670 0.000000 0.000000 0.000000
# 3 -0.002846 0.017670 0.022569 0.000000 0.000000 0.000000
# 4 0.000000 0.000000 0.000000 0.225624 0.000000 0.000000
# 5 0.000000 0.000000 0.000000 0.000000 -0.269593 0.000000
# 6 0.000000 0.000000 0.000000 0.000000 0.000000 0.047310
#
#
# Mechanical properties :
#
#
# Convention : Reuss Voigt Hill
#
# Bulk Modulus (GPa) = 7.05759 8.40968 7.73364
# Shear Modulus (GPa) = 35.70561 13.08276 24.39418
#
# Velocity S-wave (km/s) = 4.64042 2.80892 3.83559
# Velocity P-wave (km/s) = 5.74175 3.94864 4.92745
#
# Compressibility (1/GPa) = 0.14169140
#
# Stress axis : x y z
#
# Youngs Moduli (GPa) = 23.64596 19.71697 44.30843
#
# Poissons Ratio (x) = 0.03484 0.12611
# Poissons Ratio (y) = 0.04178 -0.78293
# Poissons Ratio (z) = 0.06730 -0.34840
#
# Static dielectric constant tensor:
#      x y z
#    x 1.561700 0.000000 0.000000 
#    y 0.000000 1.539850 0.000000 
#    z 0.000000 0.000000 1.593620 
# 
# From -- ./inp_files/68022.got.cif
#   From: 2010.05.17/outbox.cif.g08.bks.cpg/sg65_35_cif.got.tgz:68022.got - 2010.06.03 17:01:31.
