data_PCOD9488895
_publ_section_title
;
Structure prediction by ZEFSAII (Michael W. Deem and Ramdas Pophale) SiO2 
 PCOD9488895
Probable space group: C M M M
;
_chemical_formula_sum "Si O2"
_cell_formula_units_Z 104
_cell_length_a 29.697734
_cell_length_b 8.480729
_cell_length_c 21.192260
_cell_angle_alpha 90.000000
_cell_angle_beta 90.000000
_cell_angle_gamma 90.000000
_cell_volume 5337.449416
_symmetry_space_group_name_H-M "C M M M"
_symmetry_group_IT_number 65
_symmetry_cell_setting 'orthorhombic'
loop_
_space_group_symop_operation_xyz
x,y,z
-x,-y,z
x,-y,-z
-x,y,-z
-x,-y,-z
x,y,-z
-x,y,z
x,-y,z
1/2+x,1/2+y,z
1/2-x,1/2-y,z
1/2+x,1/2-y,-z
1/2-x,1/2+y,-z
1/2-x,1/2-y,-z
1/2+x,1/2+y,-z
1/2-x,1/2+y,z
1/2+x,1/2-y,z
loop_
_atom_site_type_symbol
_atom_site_label
_atom_site_fract_x
_atom_site_fract_y
_atom_site_fract_z
Si Si1 0.893229 0.690604 0.376263
Si Si2 0.053047 0.184417 0.743646
Si Si3 0.551039 0.813109 0.882485
Si Si4 0.300351 0.689952 0.813436
Si Si5 0.300043 0.811344 0.673736
Si Si6 0.947754 0.692735 0.500000
Si Si7 0.858624 0.188748 0.068381
O O1 0.894552 0.500000 0.375516
O O2 0.917859 0.751958 0.313790
O O3 0.840703 0.737901 0.372287
O O4 0.920649 0.744060 0.437762
O O5 0.060575 0.275510 0.808968
O O6 0.000000 0.200115 0.727952
O O7 0.062951 0.000000 0.754751
O O8 0.500000 0.758148 0.895554
O O9 0.589289 0.730639 0.922778
O O10 0.552915 0.000000 0.892679
O O11 0.301042 0.500000 0.811054
O O12 0.250000 0.750000 0.825807
O O13 0.312676 0.752595 0.744097
O O14 0.331955 0.747662 0.870216
O O15 0.250000 0.750000 0.658665
O O16 0.297864 0.000000 0.675165
O O17 0.948157 0.500000 0.500000
O O18 0.000000 0.743674 0.500000
O O19 0.853655 0.000000 0.068511
O O20 0.842531 0.248443 0.000000
#
# Coordination Sequence:
#
# PCOD9488895 Si02
#       7
#    16  16  16  16  16   8  16
#     4  10  20  34  55  81 108 142 183 223 262 309
#     4  10  20  33  52  79 108 138 173 216 269 324
#     4  10  21  36  54  77 104 135 176 225 271 316
#     4  10  20  35  56  80 106 136 172 216 266 319
#     4  10  20  34  54  80 107 135 173 220 268 316
#     4   9  18  34  56  81 111 147 183 219 262 311
#     4  10  22  38  54  75 105 141 178 215 262 323
#
# _framework density 19.484960999999998
#
# number of rings (size 3 to 8) (size 9 to 14) (size 15 to 20)
#    0.000    2.077    0.000    4.154    0.000    8.308 
#    0.000    2.308    0.000    1.385    0.000    0.000 
#    0.000    0.000    0.000    0.000    0.000    0.000 
#
# Total GULP energy -290358.716406 kJ/mol
# GULP energy per Si atom -5583.821469 kJ/mol
# Density = 1.944061 g / cm^3
# Si number density = 19.484961 Si / 1000 Ang^3
#
#
#
# Elastic Constant Matrix: (Units=GPa)
#
#
# Indices 1 2 3 4 5 6 
#
# 1 110.2919 17.4063 71.5334 0.0000 0.0000 0.0000
# 2 17.4063 16.3900 6.6915 0.0000 0.0000 0.0000
# 3 71.5334 6.6915 60.1617 0.0000 0.0000 0.0000
# 4 0.0000 0.0000 0.0000 12.1419 0.0000 0.0000
# 5 0.0000 0.0000 0.0000 0.0000 14.3251 0.0000
# 6 0.0000 0.0000 0.0000 0.0000 0.0000 23.1267
#
#
#
# Elastic Compliance Matrix: (Units=1/GPa)
#
#
# Indices 1 2 3 4 5 6 
#
# 1 0.051205 -0.030927 -0.057444 0.000000 0.000000 0.000000
# 2 -0.030927 0.082595 0.027587 0.000000 0.000000 0.000000
# 3 -0.057444 0.027587 0.081855 0.000000 0.000000 0.000000
# 4 0.000000 0.000000 0.000000 0.082360 0.000000 0.000000
# 5 0.000000 0.000000 0.000000 0.000000 0.069808 0.000000
# 6 0.000000 0.000000 0.000000 0.000000 0.000000 0.043240
#
#
# Mechanical properties :
#
#
# Convention : Reuss Voigt Hill
#
# Bulk Modulus (GPa) = 10.62853 42.01179 26.32016
# Shear Modulus (GPa) = 8.86535 15.99954 12.43245
#
# Velocity S-wave (km/s) = 2.13535 2.86863 2.52871
# Velocity P-wave (km/s) = 3.39797 5.70789 4.69714
#
# Compressibility (1/GPa) = 0.09408637
#
# Stress axis : x y z
#
# Youngs Moduli (GPa) = 19.52944 12.10723 12.21672
#
# Poissons Ratio (x) = 0.37445 0.70177
# Poissons Ratio (y) = 0.60400 -0.33702
# Poissons Ratio (z) = 1.12184 -0.33400
#
# Static dielectric constant tensor:
#      x y z
#    x 1.687710 0.000000 0.000000 
#    y 0.000000 1.665040 0.000000 
#    z 0.000000 0.000000 1.677320 
# 
# From -- ./inp_files/65919.got.cif
#   From: 2010.05.17/outbox.cif.g08.bks.cpg/sg65_33_cif.got.tgz:65919.got - 2010.06.03 17:01:31.
