data_PCOD9488991
_publ_section_title
;
Structure prediction by ZEFSAII (Michael W. Deem and Ramdas Pophale) SiO2 
 PCOD9488991
Probable space group: C M M M
;
_chemical_formula_sum "Si O2"
_cell_formula_units_Z 64
_cell_length_a 29.100564
_cell_length_b 7.490835
_cell_length_c 13.479171
_cell_angle_alpha 90.000000
_cell_angle_beta 90.000000
_cell_angle_gamma 90.000000
_cell_volume 2938.291103
_symmetry_space_group_name_H-M "C M M M"
_symmetry_group_IT_number 65
_symmetry_cell_setting 'orthorhombic'
loop_
_space_group_symop_operation_xyz
x,y,z
-x,-y,z
x,-y,-z
-x,y,-z
-x,-y,-z
x,y,-z
-x,y,z
x,-y,z
1/2+x,1/2+y,z
1/2-x,1/2-y,z
1/2+x,1/2-y,-z
1/2-x,1/2+y,-z
1/2-x,1/2-y,-z
1/2+x,1/2+y,-z
1/2-x,1/2+y,z
1/2+x,1/2-y,z
loop_
_atom_site_type_symbol
_atom_site_label
_atom_site_fract_x
_atom_site_fract_y
_atom_site_fract_z
Si Si1 0.108073 0.290999 0.189516
Si Si2 0.946229 0.215327 0.609991
Si Si3 0.695417 0.787283 0.500000
Si Si4 0.303779 0.214777 0.715784
Si Si5 0.552619 0.780522 0.000000
O O1 0.113458 0.500000 0.166715
O O2 0.081742 0.277658 0.294562
O O3 0.159308 0.216775 0.205675
O O4 0.078577 0.217625 0.098945
O O5 0.929687 0.275062 0.500000
O O6 0.000000 0.267904 0.618991
O O7 0.944846 0.000000 0.610218
O O8 0.750000 0.750000 0.500000
O O9 0.680668 0.715809 0.606790
O O10 0.687580 0.000000 0.500000
O O11 0.250000 0.250000 0.732804
O O12 0.307640 0.000000 0.711740
O O13 0.500000 0.722675 0.000000
O O14 0.551724 0.000000 0.000000
#
# Coordination Sequence:
#
# PCOD9488991 Si02
#       5
#    16  16   8  16   8
#     4  10  20  33  54  79 103 135 178 222 260 304
#     4   9  19  35  52  74 107 140 168 207 264 324
#     4   8  14  26  42  62  91 124 159 199 242 291
#     4   9  18  31  48  71 101 135 171 212 256 305
#     4   9  18  34  54  77 105 135 171 217 268 315
#
# _framework density 21.781368000000001
#
# number of rings (size 3 to 8) (size 9 to 14) (size 15 to 20)
#    0.000    2.875    0.000    1.500    1.750    3.000 
#    0.000    2.500    0.000    2.250    0.000    0.000 
#    0.000    0.000    0.000    0.000    0.000    0.000 
#
# Total GULP energy -178520.063113 kJ/mol
# GULP energy per Si atom -5578.751972 kJ/mol
# Density = 2.173179 g / cm^3
# Si number density = 21.781368 Si / 1000 Ang^3
#
#
#
# Elastic Constant Matrix: (Units=GPa)
#
#
# Indices 1 2 3 4 5 6 
#
# 1 155.5607 0.7061 109.9749 0.0000 0.0000 0.0000
# 2 0.7061 63.1341 -2.7673 0.0000 0.0000 0.0000
# 3 109.9749 -2.7673 156.9048 0.0000 0.0000 0.0000
# 4 0.0000 0.0000 0.0000 5.2463 0.0000 0.0000
# 5 0.0000 0.0000 0.0000 0.0000 38.2408 0.0000
# 6 0.0000 0.0000 0.0000 0.0000 0.0000 13.9324
#
#
#
# Elastic Compliance Matrix: (Units=1/GPa)
#
#
# Indices 1 2 3 4 5 6 
#
# 1 0.012760 -0.000535 -0.008953 0.000000 0.000000 0.000000
# 2 -0.000535 0.015874 0.000655 0.000000 0.000000 0.000000
# 3 -0.008953 0.000655 0.012660 0.000000 0.000000 0.000000
# 4 0.000000 0.000000 0.000000 0.190609 0.000000 0.000000
# 5 0.000000 0.000000 0.000000 0.000000 0.026150 0.000000
# 6 0.000000 0.000000 0.000000 0.000000 0.000000 0.071775
#
#
# Mechanical properties :
#
#
# Convention : Reuss Voigt Hill
#
# Bulk Modulus (GPa) = 42.32280 65.71412 54.01846
# Shear Modulus (GPa) = 14.06978 29.32962 21.69970
#
# Velocity S-wave (km/s) = 2.54432 3.67351 3.15977
# Velocity P-wave (km/s) = 5.30135 6.94466 6.17789
#
# Compressibility (1/GPa) = 0.02362793
#
# Stress axis : x y z
#
# Youngs Moduli (GPa) = 78.36809 62.99608 78.98809
#
# Poissons Ratio (x) = 0.03371 0.70719
# Poissons Ratio (y) = 0.04194 -0.05174
# Poissons Ratio (z) = 0.70164 -0.04127
#
# Static dielectric constant tensor:
#      x y z
#    x 1.795440 0.000000 0.000000 
#    y 0.000000 1.829890 0.000000 
#    z 0.000000 0.000000 1.796670 
# 
# From -- ./inp_files/20985.got.cif
#   From: 2010.05.17/outbox.cif.g08.bks.cpg/sg65_11_cif.got.tgz:20985.got - 2010.06.03 17:01:31.
