data_PCOD9488875
_publ_section_title
;
Structure prediction by ZEFSAII (Michael W. Deem and Ramdas Pophale) SiO2 
 PCOD9488875
Probable space group: C M M M
;
_chemical_formula_sum "Si O2"
_cell_formula_units_Z 112
_cell_length_a 13.944831
_cell_length_b 13.446667
_cell_length_c 24.951182
_cell_angle_alpha 90.000000
_cell_angle_beta 90.000000
_cell_angle_gamma 90.000000
_cell_volume 4678.633534
_symmetry_space_group_name_H-M "C M M M"
_symmetry_group_IT_number 65
_symmetry_cell_setting 'orthorhombic'
loop_
_space_group_symop_operation_xyz
x,y,z
-x,-y,z
x,-y,-z
-x,y,-z
-x,-y,-z
x,y,-z
-x,y,z
x,-y,z
1/2+x,1/2+y,z
1/2-x,1/2-y,z
1/2+x,1/2-y,-z
1/2-x,1/2+y,-z
1/2-x,1/2-y,-z
1/2+x,1/2+y,-z
1/2-x,1/2+y,z
1/2+x,1/2-y,z
loop_
_atom_site_type_symbol
_atom_site_label
_atom_site_fract_x
_atom_site_fract_y
_atom_site_fract_z
Si Si1 0.803362 0.618144 0.831583
Si Si2 0.688124 0.878507 0.284328
Si Si3 0.394389 0.621243 0.327912
Si Si4 0.311473 0.378779 0.441250
Si Si5 0.612726 0.197817 0.942057
Si Si6 0.394454 0.121278 0.602200
Si Si7 0.607648 0.383871 0.879353
O O1 0.815121 0.500000 0.831069
O O2 0.842775 0.654723 0.774789
O O3 0.845834 0.653098 0.887796
O O4 0.689881 0.639948 0.836678
O O5 0.798887 0.849469 0.295723
O O6 0.625213 0.850154 0.335712
O O7 0.686916 0.000000 0.284101
O O8 0.500000 0.653486 0.309922
O O9 0.394702 0.500000 0.326248
O O10 0.374380 0.650039 0.389910
O O11 0.344117 0.346887 0.500000
O O12 0.312303 0.500000 0.440983
O O13 0.200485 0.349292 0.430492
O O14 0.500000 0.174194 0.942941
O O15 0.622800 0.315628 0.931281
O O16 0.653416 0.168866 0.000000
O O17 0.500000 0.153286 0.584083
O O18 0.394585 0.000000 0.600674
O O19 0.500000 0.363641 0.859338
O O20 0.615051 0.500000 0.892192
#
# Coordination Sequence:
#
# PCOD9488875 Si02
#       7
#    16  16  16  16  16  16  16
#     4  10  20  33  52  78 106 138 175 216 266 321
#     4   8  15  26  38  57  84 113 153 203 250 301
#     4   8  13  21  33  49  73 109 152 201 257 309
#     4   8  13  19  26  41  67  99 144 204 263 317
#     4  10  22  39  57  78 106 139 173 211 257 312
#     4   8  13  21  32  45  66 102 148 199 253 302
#     4   9  19  36  57  81 106 132 168 213 258 307
#
# _framework density 23.938613
#
# number of rings (size 3 to 8) (size 9 to 14) (size 15 to 20)
#    0.000    3.286    0.000    2.143    0.000    3.714 
#    0.000   10.714    0.000    0.000    0.000    0.000 
#    0.000    0.000    0.000    0.000    0.000   45.714 
#
# Total GULP energy -312881.668020 kJ/mol
# GULP energy per Si atom -5587.172643 kJ/mol
# Density = 2.388413 g / cm^3
# Si number density = 23.938613 Si / 1000 Ang^3
#
#
#
# Elastic Constant Matrix: (Units=GPa)
#
#
# Indices 1 2 3 4 5 6 
#
# 1 70.6697 6.9419 8.9418 0.0000 0.0000 0.0000
# 2 6.9419 52.5365 20.6774 0.0000 0.0000 0.0000
# 3 8.9418 20.6774 122.9568 0.0000 0.0000 0.0000
# 4 0.0000 0.0000 0.0000 6.9154 0.0000 0.0000
# 5 0.0000 0.0000 0.0000 0.0000 6.8705 0.0000
# 6 0.0000 0.0000 0.0000 0.0000 0.0000 28.9285
#
#
#
# Elastic Compliance Matrix: (Units=1/GPa)
#
#
# Indices 1 2 3 4 5 6 
#
# 1 0.014406 -0.001597 -0.000779 0.000000 0.000000 0.000000
# 2 -0.001597 0.020561 -0.003342 0.000000 0.000000 0.000000
# 3 -0.000779 -0.003342 0.008752 0.000000 0.000000 0.000000
# 4 0.000000 0.000000 0.000000 0.144604 0.000000 0.000000
# 5 0.000000 0.000000 0.000000 0.000000 0.145551 0.000000
# 6 0.000000 0.000000 0.000000 0.000000 0.000000 0.034568
#
#
# Mechanical properties :
#
#
# Convention : Reuss Voigt Hill
#
# Bulk Modulus (GPa) = 30.97614 35.47614 33.22614
# Shear Modulus (GPa) = 12.79963 22.51634 17.65799
#
# Velocity S-wave (km/s) = 2.31484 3.07023 2.71889
# Velocity P-wave (km/s) = 4.48470 5.23643 4.87508
#
# Compressibility (1/GPa) = 0.03228291
#
# Stress axis : x y z
#
# Youngs Moduli (GPa) = 69.41659 48.63685 114.26572
#
# Poissons Ratio (x) = 0.07767 0.08902
# Poissons Ratio (y) = 0.11085 0.38182
# Poissons Ratio (z) = 0.05408 0.16252
#
# Static dielectric constant tensor:
#      x y z
#    x 1.889540 0.000000 0.000000 
#    y 0.000000 2.026340 0.000000 
#    z 0.000000 0.000000 1.866380 
# 
# From -- ./inp_files/74893.got.cif
#   From: 2010.05.17/outbox.cif.g08.bks.cpg/sg65_38_cif.got.tgz:74893.got - 2010.06.03 17:01:31.
