data_PCOD9488519
_publ_section_title
;
Structure prediction by ZEFSAII (Michael W. Deem and Ramdas Pophale) SiO2 
 PCOD9488519
Probable space group: C M M M
;
_chemical_formula_sum "Si O2"
_cell_formula_units_Z 104
_cell_length_a 30.226750
_cell_length_b 20.815425
_cell_length_c 9.124184
_cell_angle_alpha 90.000000
_cell_angle_beta 90.000000
_cell_angle_gamma 90.000000
_cell_volume 5740.778246
_symmetry_space_group_name_H-M "C M M M"
_symmetry_group_IT_number 65
_symmetry_cell_setting 'orthorhombic'
loop_
_space_group_symop_operation_xyz
x,y,z
-x,-y,z
x,-y,-z
-x,y,-z
-x,-y,-z
x,y,-z
-x,y,z
x,-y,z
1/2+x,1/2+y,z
1/2-x,1/2-y,z
1/2+x,1/2-y,-z
1/2-x,1/2+y,-z
1/2-x,1/2-y,-z
1/2+x,1/2+y,-z
1/2-x,1/2+y,z
1/2+x,1/2-y,z
loop_
_atom_site_type_symbol
_atom_site_label
_atom_site_fract_x
_atom_site_fract_y
_atom_site_fract_z
Si Si1 0.549669 0.747895 0.324530
Si Si2 0.550806 0.884845 0.167895
Si Si3 0.302660 0.855593 0.834224
Si Si4 0.210481 0.000000 0.665981
Si Si5 0.689125 0.000000 0.251868
Si Si6 0.210734 0.857339 0.322850
Si Si7 0.360104 0.264338 0.175078
Si Si8 0.093437 0.500000 0.661906
O O1 0.554576 0.747261 0.500000
O O2 0.500000 0.722098 0.289720
O O3 0.550575 0.820126 0.261547
O O4 0.592841 0.718485 0.247845
O O5 0.500000 0.908117 0.162589
O O6 0.579156 0.938345 0.246522
O O7 0.565120 0.872173 0.000000
O O8 0.312497 0.931740 0.831305
O O9 0.261081 0.844209 0.727688
O O10 0.343952 0.809489 0.796062
O O11 0.289187 0.837928 0.000000
O O12 0.263954 0.000000 0.666838
O O13 0.198797 0.930313 0.729534
O O14 0.193760 0.000000 0.500000
O O15 0.645945 0.000000 0.349210
O O16 0.208129 0.854734 0.500000
O O17 0.177726 0.808038 0.246970
O O18 0.362489 0.272620 0.000000
O O19 0.073052 0.500000 0.500000
#
# Coordination Sequence:
#
# PCOD9488519 Si02
#       8
#    16  16  16   8   8  16  16   8
#     4  10  21  37  56  77 101 131 171 218 265 316
#     4  10  21  36  51  67  92 128 169 216 272 326
#     4  10  21  35  51  74 105 141 181 223 266 314
#     4   8  17  35  54  73 101 134 167 206 252 304
#     4  10  20  33  50  70  98 137 180 221 265 308
#     4  10  20  35  56  80 107 140 177 217 262 313
#     4  11  22  35  53  79 111 143 176 217 265 318
#     4  12  23  32  47  70  95 127 174 228 272 314
#
# _framework density 18.116009999999999
#
# number of rings (size 3 to 8) (size 9 to 14) (size 15 to 20)
#    0.000    1.846    0.000    4.154    0.000    8.923 
#    0.000    1.154    0.000    0.000    0.000    0.538 
#    0.000    4.308    0.000    0.000    0.000    0.000 
#
# Total GULP energy -290003.880516 kJ/mol
# GULP energy per Si atom -5576.997702 kJ/mol
# Density = 1.807478 g / cm^3
# Si number density = 18.116010 Si / 1000 Ang^3
#
#
#
# Elastic Constant Matrix: (Units=GPa)
#
#
# Indices 1 2 3 4 5 6 
#
# 1 101.7676 30.7040 46.5291 0.0000 0.0000 0.0000
# 2 30.7040 58.8063 20.0317 0.0000 0.0000 0.0000
# 3 46.5291 20.0317 92.7163 0.0000 0.0000 0.0000
# 4 0.0000 0.0000 0.0000 6.8629 0.0000 0.0000
# 5 0.0000 0.0000 0.0000 0.0000 26.8519 0.0000
# 6 0.0000 0.0000 0.0000 0.0000 0.0000 20.5214
#
#
#
# Elastic Compliance Matrix: (Units=1/GPa)
#
#
# Indices 1 2 3 4 5 6 
#
# 1 0.014167 -0.005370 -0.005949 0.000000 0.000000 0.000000
# 2 -0.005370 0.020392 -0.001711 0.000000 0.000000 0.000000
# 3 -0.005949 -0.001711 0.014141 0.000000 0.000000 0.000000
# 4 0.000000 0.000000 0.000000 0.145711 0.000000 0.000000
# 5 0.000000 0.000000 0.000000 0.000000 0.037241 0.000000
# 6 0.000000 0.000000 0.000000 0.000000 0.000000 0.048730
#
#
# Mechanical properties :
#
#
# Convention : Reuss Voigt Hill
#
# Bulk Modulus (GPa) = 44.17183 49.75776 46.96479
# Shear Modulus (GPa) = 15.92421 21.24892 18.58657
#
# Velocity S-wave (km/s) = 2.96803 3.42853 3.20656
# Velocity P-wave (km/s) = 6.01509 6.57259 6.30001
#
# Compressibility (1/GPa) = 0.02263886
#
# Stress axis : x y z
#
# Youngs Moduli (GPa) = 70.58891 49.03993 70.71767
#
# Poissons Ratio (x) = 0.26335 0.42071
# Poissons Ratio (y) = 0.37907 0.12098
# Poissons Ratio (z) = 0.41994 0.08389
#
# Static dielectric constant tensor:
#      x y z
#    x 1.638060 0.000000 0.000000 
#    y 0.000000 1.654780 0.000000 
#    z 0.000000 0.000000 1.623570 
# 
# From -- ./inp_files/16525.got.cif
#   From: 2010.05.17/outbox.cif.g08.bks.cpg/sg65_9_cif.got.tgz:16525.got - 2010.06.03 17:01:31.
