data_PCOD9488336
_publ_section_title
;
Structure prediction by ZEFSAII (Michael W. Deem and Ramdas Pophale) SiO2 
 PCOD9488336
Probable space group: C M M M
;
_chemical_formula_sum "Si O2"
_cell_formula_units_Z 90
_cell_length_a 7.486644
_cell_length_b 25.631114
_cell_length_c 22.894897
_cell_angle_alpha 90.000000
_cell_angle_beta 90.000000
_cell_angle_gamma 90.000000
_cell_volume 4393.325272
_symmetry_space_group_name_H-M "C M M M"
_symmetry_group_IT_number 65
_symmetry_cell_setting 'orthorhombic'
loop_
_space_group_symop_operation_xyz
x,y,z
-x,-y,z
x,-y,-z
-x,y,-z
-x,-y,-z
x,y,-z
-x,y,z
x,-y,z
1/2+x,1/2+y,z
1/2-x,1/2-y,z
1/2+x,1/2-y,-z
1/2-x,1/2+y,-z
1/2-x,1/2-y,-z
1/2+x,1/2+y,-z
1/2-x,1/2+y,z
1/2+x,1/2-y,z
loop_
_atom_site_type_symbol
_atom_site_label
_atom_site_fract_x
_atom_site_fract_y
_atom_site_fract_z
Si Si1 0.283725 0.365548 0.382428
Si Si2 0.797674 0.500000 0.893606
Si Si3 0.000000 0.561626 0.430331
Si Si4 0.713383 0.311808 0.738548
Si Si5 0.283013 0.610892 0.158430
Si Si6 0.500000 0.500000 0.000000
Si Si7 0.210627 0.809883 0.500000
Si Si8 0.786515 0.806726 0.065654
O O1 0.500000 0.373116 0.381199
O O2 0.172452 0.417669 0.394726
O O3 0.230561 0.333420 0.324803
O O4 0.226046 0.333017 0.439295
O O5 0.773379 0.551686 0.853332
O O6 0.000000 0.500000 0.916388
O O7 0.656161 0.500000 0.947237
O O8 0.000000 0.500000 0.430842
O O9 0.000000 0.577534 0.500000
O O10 0.500000 0.315270 0.740302
O O11 0.750000 0.250000 0.747581
O O12 0.778604 0.353767 0.786729
O O13 0.500000 0.610333 0.159992
O O14 0.222196 0.645104 0.102955
O O15 0.250000 0.750000 0.500000
O O16 0.000000 0.819728 0.500000
O O17 0.750000 0.750000 0.092873
O O18 0.000000 0.811545 0.062162
O O19 0.713095 0.806558 0.000000
#
# Coordination Sequence:
#
# PCOD9488336 Si02
#       8
#    16   8   8  16  16   2   8  16
#     4  10  22  41  60  93 134 169 221 279 337 406
#     4  12  27  45  73 104 127 176 223 266 339 399
#     4  11  24  42  68  95 124 173 227 278 346 403
#     4  10  22  39  64  96 132 181 226 269 337 398
#     4  10  21  41  63  87 131 175 211 270 326 381
#     4  12  26  52  76  94 144 160 210 298 332 392
#     4  10  20  32  56  87 123 168 206 268 345 400
#     4   9  18  31  53  82 115 156 197 245 314 373
#
# _framework density 20.485623
#
# number of rings (size 3 to 8) (size 9 to 14) (size 15 to 20)
#    0.000    1.867    1.778    1.200    3.733    1.778 
#    1.600    0.889    0.000    0.000    0.000    0.000 
#    0.000    0.000    0.000    0.000    0.000    0.000 
#
# Total GULP energy -250658.377176 kJ/mol
# GULP energy per Si atom -5570.186159 kJ/mol
# Density = 2.043900 g / cm^3
# Si number density = 20.485623 Si / 1000 Ang^3
#
#
#
# Elastic Constant Matrix: (Units=GPa)
#
#
# Indices 1 2 3 4 5 6 
#
# 1 92.3921 24.9637 32.1590 0.0000 0.0000 0.0000
# 2 24.9637 189.4764 93.0106 0.0000 0.0000 0.0000
# 3 32.1590 93.0106 136.1387 0.0000 0.0000 0.0000
# 4 0.0000 0.0000 0.0000 28.0749 0.0000 0.0000
# 5 0.0000 0.0000 0.0000 0.0000 2.0991 0.0000
# 6 0.0000 0.0000 0.0000 0.0000 0.0000 26.8039
#
#
#
# Elastic Compliance Matrix: (Units=1/GPa)
#
#
# Indices 1 2 3 4 5 6 
#
# 1 0.011803 -0.000280 -0.002597 0.000000 0.000000 0.000000
# 2 -0.000280 0.007948 -0.005364 0.000000 0.000000 0.000000
# 3 -0.002597 -0.005364 0.011623 0.000000 0.000000 0.000000
# 4 0.000000 0.000000 0.000000 0.035619 0.000000 0.000000
# 5 0.000000 0.000000 0.000000 0.000000 0.476405 0.000000
# 6 0.000000 0.000000 0.000000 0.000000 0.000000 0.037308
#
#
# Mechanical properties :
#
#
# Convention : Reuss Voigt Hill
#
# Bulk Modulus (GPa) = 67.14711 79.80820 73.47766
# Shear Modulus (GPa) = 8.30357 29.25383 18.77870
#
# Velocity S-wave (km/s) = 2.01548 3.78301 3.03095
# Velocity P-wave (km/s) = 6.18588 7.62393 6.94224
#
# Compressibility (1/GPa) = 0.01489267
#
# Stress axis : x y z
#
# Youngs Moduli (GPa) = 84.72429 125.82557 86.03495
#
# Poissons Ratio (x) = 0.03529 0.22339
# Poissons Ratio (y) = 0.02376 0.46145
# Poissons Ratio (z) = 0.21999 0.67487
#
# Static dielectric constant tensor:
#      x y z
#    x 1.746340 0.000000 0.000000 
#    y 0.000000 1.722800 0.000000 
#    z 0.000000 0.000000 1.749130 
# 
# From -- ./inp_files/67746.got.cif
#   From: 2010.05.17/outbox.cif.g08.bks.cpg/sg65_34_cif.got.tgz:67746.got - 2010.06.03 17:01:31.
