data_PCOD9488320
_publ_section_title
;
Structure prediction by ZEFSAII (Michael W. Deem and Ramdas Pophale) SiO2 
 PCOD9488320
Probable space group: C M M M
;
_chemical_formula_sum "Si O2"
_cell_formula_units_Z 88
_cell_length_a 16.870911
_cell_length_b 31.638627
_cell_length_c 7.315764
_cell_angle_alpha 90.000000
_cell_angle_beta 90.000000
_cell_angle_gamma 90.000000
_cell_volume 3904.953349
_symmetry_space_group_name_H-M "C M M M"
_symmetry_group_IT_number 65
_symmetry_cell_setting 'orthorhombic'
loop_
_space_group_symop_operation_xyz
x,y,z
-x,-y,z
x,-y,-z
-x,y,-z
-x,-y,-z
x,y,-z
-x,y,z
x,-y,z
1/2+x,1/2+y,z
1/2-x,1/2-y,z
1/2+x,1/2-y,-z
1/2-x,1/2+y,-z
1/2-x,1/2-y,-z
1/2+x,1/2+y,-z
1/2-x,1/2+y,z
1/2+x,1/2-y,z
loop_
_atom_site_type_symbol
_atom_site_label
_atom_site_fract_x
_atom_site_fract_y
_atom_site_fract_z
Si Si1 0.679921 0.627823 0.208077
Si Si2 0.349112 0.091032 0.721386
Si Si3 0.828582 0.776160 0.223860
Si Si4 0.000000 0.645812 0.279164
Si Si5 0.592462 0.000000 0.722574
Si Si6 0.000000 0.256216 0.208428
Si Si7 0.593153 0.454203 0.778308
O O1 0.769671 0.611811 0.207492
O O2 0.676407 0.675004 0.284483
O O3 0.632540 0.588517 0.292340
O O4 0.649883 0.632195 0.000000
O O5 0.345284 0.091018 0.500000
O O6 0.423135 0.119650 0.776830
O O7 0.364500 0.042912 0.780412
O O8 0.750000 0.750000 0.281845
O O9 0.914444 0.758305 0.284650
O O10 0.827017 0.774634 0.000000
O O11 0.000000 0.693234 0.210104
O O12 0.000000 0.647727 0.500000
O O13 0.500000 0.000000 0.778623
O O14 0.591483 0.000000 0.500000
O O15 0.000000 0.240106 0.000000
O O16 0.500000 0.453368 0.737645
O O17 0.625589 0.500000 0.716004
O O18 0.601503 0.454097 0.000000
#
# Coordination Sequence:
#
# PCOD9488320 Si02
#       7
#    16  16  16   8   8   8  16
#     4  10  20  32  52  77 104 134 170 215 259 303
#     4  10  20  34  53  76 103 137 175 212 254 309
#     4   9  18  32  49  74 104 132 167 210 258 311
#     4  10  20  35  54  76 102 133 173 213 255 310
#     4   9  16  32  55  75  98 137 182 216 251 305
#     4  10  20  34  57  79 102 136 173 217 266 313
#     4   8  15  28  46  70 100 130 161 201 250 302
#
# _framework density 22.535481000000001
#
# number of rings (size 3 to 8) (size 9 to 14) (size 15 to 20)
#    0.000    2.636    0.909    1.636    2.545    2.182 
#    0.000    0.909    0.000    4.364    0.000    1.273 
#    0.000    0.000    0.000    0.000    0.000    0.000 
#
# Total GULP energy -245710.644937 kJ/mol
# GULP energy per Si atom -5584.332839 kJ/mol
# Density = 2.248419 g / cm^3
# Si number density = 22.535481 Si / 1000 Ang^3
#
#
#
# Elastic Constant Matrix: (Units=GPa)
#
#
# Indices 1 2 3 4 5 6 
#
# 1 140.1739 110.5114 1.3448 0.0000 0.0000 0.0000
# 2 110.5114 253.0489 5.6937 0.0000 0.0000 0.0000
# 3 1.3448 5.6937 89.3269 0.0000 0.0000 0.0000
# 4 0.0000 0.0000 0.0000 -1.3020 0.0000 0.0000
# 5 0.0000 0.0000 0.0000 0.0000 22.4314 0.0000
# 6 0.0000 0.0000 0.0000 0.0000 0.0000 138.9294
#
#
#
# Elastic Compliance Matrix: (Units=1/GPa)
#
#
# Indices 1 2 3 4 5 6 
#
# 1 0.010882 -0.004755 0.000139 0.000000 0.000000 0.000000
# 2 -0.004755 0.006036 -0.000313 0.000000 0.000000 0.000000
# 3 0.000139 -0.000313 0.011213 0.000000 0.000000 0.000000
# 4 0.000000 0.000000 0.000000 -0.768062 0.000000 0.000000
# 5 0.000000 0.000000 0.000000 0.000000 0.044580 0.000000
# 6 0.000000 0.000000 0.000000 0.000000 0.000000 0.007198
#
#
# Mechanical properties :
#
#
# Convention : Reuss Voigt Hill
#
# Bulk Modulus (GPa) = 54.72972 79.73882 67.23427
# Shear Modulus (GPa) = -7.43821 56.34508 24.45344
#
# Velocity S-wave (km/s) = -1.81874 5.00571 3.29767
# Velocity P-wave (km/s) = 4.46411 8.29879 6.66327
#
# Compressibility (1/GPa) = 0.01827161
#
# Stress axis : x y z
#
# Youngs Moduli (GPa) = 91.89675 165.68266 89.18463
#
# Poissons Ratio (x) = 0.78789 -0.01242
# Poissons Ratio (y) = 0.43701 0.02793
# Poissons Ratio (z) = -0.01280 0.05188
#
# Static dielectric constant tensor:
#      x y z
#    x 1.770050 0.000000 0.000000 
#    y 0.000000 1.799470 0.000000 
#    z 0.000000 0.000000 1.877820 
# 
# From -- ./inp_files/25207.got.cif
#   From: 2010.05.17/outbox.cif.g08.bks.cpg/sg65_13_cif.got.tgz:25207.got - 2010.06.03 17:01:31.
