data_PCOD9488769
_publ_section_title
;
Structure prediction by ZEFSAII (Michael W. Deem and Ramdas Pophale) SiO2 
 PCOD9488769
Probable space group: C M M M
;
_chemical_formula_sum "Si O2"
_cell_formula_units_Z 96
_cell_length_a 19.856133
_cell_length_b 30.836543
_cell_length_c 7.629477
_cell_angle_alpha 90.000000
_cell_angle_beta 90.000000
_cell_angle_gamma 90.000000
_cell_volume 4671.486798
_symmetry_space_group_name_H-M "C M M M"
_symmetry_group_IT_number 65
_symmetry_cell_setting 'orthorhombic'
loop_
_space_group_symop_operation_xyz
x,y,z
-x,-y,z
x,-y,-z
-x,y,-z
-x,-y,-z
x,y,-z
-x,y,z
x,-y,z
1/2+x,1/2+y,z
1/2-x,1/2-y,z
1/2+x,1/2-y,-z
1/2-x,1/2+y,-z
1/2-x,1/2-y,-z
1/2+x,1/2+y,-z
1/2-x,1/2+y,z
1/2+x,1/2-y,z
loop_
_atom_site_type_symbol
_atom_site_label
_atom_site_fract_x
_atom_site_fract_y
_atom_site_fract_z
Si Si1 0.576061 0.704482 0.211734
Si Si2 0.923683 0.695559 0.292444
Si Si3 0.177572 0.620899 0.205217
Si Si4 0.327611 0.370865 0.207880
Si Si5 0.075435 0.450130 0.214194
Si Si6 0.923349 0.049526 0.288300
O O1 0.500000 0.695032 0.274276
O O2 0.592030 0.753981 0.259608
O O3 0.628559 0.669121 0.279658
O O4 0.574909 0.702117 0.000000
O O5 0.924956 0.688227 0.500000
O O6 0.867481 0.664008 0.216519
O O7 0.000000 0.687359 0.223665
O O8 0.252172 0.625906 0.281556
O O9 0.132190 0.582218 0.280785
O O10 0.186817 0.610298 0.000000
O O11 0.369870 0.414947 0.229580
O O12 0.321001 0.362575 0.000000
O O13 0.086437 0.500000 0.265244
O O14 0.000000 0.436880 0.269258
O O15 0.075451 0.449023 0.000000
O O16 0.923564 0.049574 0.500000
O O17 0.000000 0.060260 0.230625
O O18 0.908447 0.000000 0.231695
#
# Coordination Sequence:
#
# PCOD9488769 Si02
#       6
#    16  16  16  16  16  16
#     4   9  18  34  54  73  97 131 169 210 258 310
#     4  10  21  36  54  76 100 129 171 218 257 300
#     4  10  20  33  51  76 106 138 168 204 257 314
#     4  10  21  34  51  79 109 136 170 214 261 309
#     4   8  14  26  46  71  96 125 165 207 242 285
#     4   9  19  36  56  77 103 139 181 219 257 306
#
# _framework density 20.550203
#
# number of rings (size 3 to 8) (size 9 to 14) (size 15 to 20)
#    0.000    2.667    0.000    2.500    0.000    5.667 
#    0.000    7.500    0.000    0.500    0.000    2.333 
#    0.000    0.000    0.000    0.000    0.000    0.000 
#
# Total GULP energy -267928.869230 kJ/mol
# GULP energy per Si atom -5581.851442 kJ/mol
# Density = 2.050343 g / cm^3
# Si number density = 20.550203 Si / 1000 Ang^3
#
#
#
# Elastic Constant Matrix: (Units=GPa)
#
#
# Indices 1 2 3 4 5 6 
#
# 1 183.9119 114.9065 -1.7771 0.0000 0.0000 0.0000
# 2 114.9065 110.1552 -13.8230 0.0000 0.0000 0.0000
# 3 -1.7771 -13.8230 38.2543 0.0000 0.0000 0.0000
# 4 0.0000 0.0000 0.0000 18.2100 0.0000 0.0000
# 5 0.0000 0.0000 0.0000 0.0000 7.7676 0.0000
# 6 0.0000 0.0000 0.0000 0.0000 0.0000 -28.5265
#
#
#
# Elastic Compliance Matrix: (Units=1/GPa)
#
#
# Indices 1 2 3 4 5 6 
#
# 1 0.016758 -0.018209 -0.005801 0.000000 0.000000 0.000000
# 2 -0.018209 0.029295 0.009740 0.000000 0.000000 0.000000
# 3 -0.005801 0.009740 0.029391 0.000000 0.000000 0.000000
# 4 0.000000 0.000000 0.000000 0.054915 0.000000 0.000000
# 5 0.000000 0.000000 0.000000 0.000000 0.128741 0.000000
# 6 0.000000 0.000000 0.000000 0.000000 0.000000 -0.035055
#
#
# Mechanical properties :
#
#
# Convention : Reuss Voigt Hill
#
# Bulk Modulus (GPa) = 21.32091 58.99268 40.15680
# Shear Modulus (GPa) = 18.64149 15.02454 16.83301
#
# Velocity S-wave (km/s) = 3.01511 2.70684 2.86513
# Velocity P-wave (km/s) = 4.74539 6.20792 5.52526
#
# Compressibility (1/GPa) = 0.04690231
#
# Stress axis : x y z
#
# Youngs Moduli (GPa) = 59.67275 34.13603 34.02439
#
# Poissons Ratio (x) = 0.62158 0.19738
# Poissons Ratio (y) = 1.08657 -0.33138
# Poissons Ratio (z) = 0.34617 -0.33247
#
# Static dielectric constant tensor:
#      x y z
#    x 1.735890 0.000000 0.000000 
#    y 0.000000 1.700250 0.000000 
#    z 0.000000 0.000000 1.753070 
# 
# From -- ./inp_files/12324.got.cif
#   From: 2010.05.17/outbox.cif.g08.bks.cpg/sg65_7_cif.got.tgz:12324.got - 2010.06.03 17:01:31.
