data_PCOD9488657
_publ_section_title
;
Structure prediction by ZEFSAII (Michael W. Deem and Ramdas Pophale) SiO2 
 PCOD9488657
Probable space group: C M M M
;
_chemical_formula_sum "Si O2"
_cell_formula_units_Z 88
_cell_length_a 22.423278
_cell_length_b 8.307850
_cell_length_c 23.863300
_cell_angle_alpha 90.000000
_cell_angle_beta 90.000000
_cell_angle_gamma 90.000000
_cell_volume 4445.475785
_symmetry_space_group_name_H-M "C M M M"
_symmetry_group_IT_number 65
_symmetry_cell_setting 'orthorhombic'
loop_
_space_group_symop_operation_xyz
x,y,z
-x,-y,z
x,-y,-z
-x,y,-z
-x,-y,-z
x,y,-z
-x,y,z
x,-y,z
1/2+x,1/2+y,z
1/2-x,1/2-y,z
1/2+x,1/2-y,-z
1/2-x,1/2+y,-z
1/2-x,1/2-y,-z
1/2+x,1/2+y,-z
1/2-x,1/2+y,z
1/2+x,1/2-y,z
loop_
_atom_site_type_symbol
_atom_site_label
_atom_site_fract_x
_atom_site_fract_y
_atom_site_fract_z
Si Si1 0.433217 0.305847 0.434488
Si Si2 0.183520 0.810515 0.938556
Si Si3 0.815193 0.692331 0.630326
Si Si4 0.899380 0.318718 0.853628
Si Si5 0.315434 0.805035 0.240099
Si Si6 0.000000 0.810675 0.064214
O O1 0.428569 0.259278 0.500000
O O2 0.500000 0.252838 0.414615
O O3 0.432920 0.500000 0.431916
O O4 0.374534 0.246378 0.402255
O O5 0.250000 0.750000 0.944967
O O6 0.157759 0.690698 0.893168
O O7 0.180000 0.000000 0.922499
O O8 0.153430 0.797206 0.000000
O O9 0.813760 0.500000 0.630193
O O10 0.750000 0.750000 0.608719
O O11 0.819909 0.747982 0.695225
O O12 0.920602 0.500000 0.843194
O O13 0.872496 0.247791 0.796094
O O14 0.945516 0.233469 0.894830
O O15 0.250000 0.750000 0.219194
O O16 0.316510 0.000000 0.237651
O O17 0.000000 0.000000 0.057077
O O18 0.000000 0.740262 0.000000
#
# Coordination Sequence:
#
# PCOD9488657 Si02
#       6
#    16  16  16  16  16   8
#     4   9  19  37  59  84 118 158 199 246 298 349
#     4  10  20  33  50  75 105 133 165 210 262 317
#     4  10  20  36  58  85 118 156 198 244 294 348
#     4  11  22  37  57  79 104 137 177 220 271 330
#     4   9  20  37  57  83 113 145 180 225 279 331
#     4  11  25  43  59  77 105 141 182 229 278 331
#
# _framework density 19.795407000000001
#
# number of rings (size 3 to 8) (size 9 to 14) (size 15 to 20)
#    0.000    2.091    0.000    3.545    0.000    8.727 
#    1.636    0.909    0.000    0.000    0.000    0.000 
#    0.000    0.000    0.000    0.000    0.000    0.000 
#
# Total GULP energy -244983.764005 kJ/mol
# GULP energy per Si atom -5567.812818 kJ/mol
# Density = 1.975035 g / cm^3
# Si number density = 19.795407 Si / 1000 Ang^3
#
#
#
# Elastic Constant Matrix: (Units=GPa)
#
#
# Indices 1 2 3 4 5 6 
#
# 1 150.5459 18.1663 75.5098 0.0000 0.0000 0.0000
# 2 18.1663 35.6621 17.5548 0.0000 0.0000 0.0000
# 3 75.5098 17.5548 79.9732 0.0000 0.0000 0.0000
# 4 0.0000 0.0000 0.0000 53.9734 0.0000 0.0000
# 5 0.0000 0.0000 0.0000 0.0000 412.8653 0.0000
# 6 0.0000 0.0000 0.0000 0.0000 0.0000 34.8376
#
#
#
# Elastic Compliance Matrix: (Units=1/GPa)
#
#
# Indices 1 2 3 4 5 6 
#
# 1 0.012631 -0.000632 -0.011787 0.000000 0.000000 0.000000
# 2 -0.000632 0.031470 -0.006311 0.000000 0.000000 0.000000
# 3 -0.011787 -0.006311 0.025019 0.000000 0.000000 0.000000
# 4 0.000000 0.000000 0.000000 0.018528 0.000000 0.000000
# 5 0.000000 0.000000 0.000000 0.000000 0.002422 0.000000
# 6 0.000000 0.000000 0.000000 0.000000 0.000000 0.028705
#
#
# Mechanical properties :
#
#
# Convention : Reuss Voigt Hill
#
# Bulk Modulus (GPa) = 31.58687 54.29367 42.94027
# Shear Modulus (GPa) = 29.97825 110.66527 70.32176
#
# Velocity S-wave (km/s) = 3.89576 7.48504 5.96669
# Velocity P-wave (km/s) = 6.01890 10.10881 8.31911
#
# Compressibility (1/GPa) = 0.03165873
#
# Stress axis : x y z
#
# Youngs Moduli (GPa) = 79.17080 31.77667 39.96967
#
# Poissons Ratio (x) = 0.02008 0.47113
# Poissons Ratio (y) = 0.05002 0.25226
# Poissons Ratio (z) = 0.93321 0.20055
#
# Static dielectric constant tensor:
#      x y z
#    x 1.927180 0.000000 0.000000 
#    y 0.000000 1.707940 0.000000 
#    z 0.000000 0.000000 1.731030 
# 
# From -- ./inp_files/71031.got.cif
#   From: 2010.05.17/outbox.cif.g08.bks.cpg/sg65_36_cif.got.tgz:71031.got - 2010.06.03 17:01:31.
