data_PCOD9488466
_publ_section_title
;
Structure prediction by ZEFSAII (Michael W. Deem and Ramdas Pophale) SiO2 
 PCOD9488466
Probable space group: C M M M
;
_chemical_formula_sum "Si O2"
_cell_formula_units_Z 80
_cell_length_a 19.484578
_cell_length_b 9.068965
_cell_length_c 26.320467
_cell_angle_alpha 90.000000
_cell_angle_beta 90.000000
_cell_angle_gamma 90.000000
_cell_volume 4650.956961
_symmetry_space_group_name_H-M "C M M M"
_symmetry_group_IT_number 65
_symmetry_cell_setting 'orthorhombic'
loop_
_space_group_symop_operation_xyz
x,y,z
-x,-y,z
x,-y,-z
-x,y,-z
-x,-y,-z
x,y,-z
-x,y,z
x,-y,z
1/2+x,1/2+y,z
1/2-x,1/2-y,z
1/2+x,1/2-y,-z
1/2-x,1/2+y,-z
1/2-x,1/2-y,-z
1/2+x,1/2+y,-z
1/2-x,1/2+y,z
1/2+x,1/2-y,z
loop_
_atom_site_type_symbol
_atom_site_label
_atom_site_fract_x
_atom_site_fract_y
_atom_site_fract_z
Si Si1 0.082157 0.825650 0.208161
Si Si2 0.175961 0.323353 0.291880
Si Si3 0.578230 0.820197 0.500000
Si Si4 0.083775 0.829549 0.000000
Si Si5 0.323312 0.176879 0.409182
Si Si6 0.416457 0.830190 0.896711
O O1 0.121536 0.743559 0.253069
O O2 0.103582 0.757872 0.153820
O O3 0.000000 0.804901 0.213147
O O4 0.096201 0.000000 0.209334
O O5 0.180236 0.500000 0.286348
O O6 0.250000 0.250000 0.282304
O O7 0.157733 0.289737 0.350748
O O8 0.500000 0.768151 0.500000
O O9 0.620234 0.774926 0.449955
O O10 0.576615 0.000000 0.500000
O O11 0.106284 0.747496 0.948732
O O12 0.000000 0.827338 0.000000
O O13 0.104763 0.000000 0.000000
O O14 0.250000 0.250000 0.420147
O O15 0.315794 0.000000 0.413137
O O16 0.500000 0.829884 0.897710
O O17 0.394150 0.000000 0.894390
#
# Coordination Sequence:
#
# PCOD9488466 Si02
#       6
#    16  16   8   8  16  16
#     4  10  20  33  49  71 100 132 165 205 255 306
#     4  10  20  34  52  74  99 129 168 210 251 298
#     4   9  17  30  49  75 104 131 162 200 242 289
#     4   9  15  23  37  59  90 127 164 203 248 297
#     4   9  18  32  52  74  96 127 164 203 244 289
#     4   9  16  26  41  63  92 126 164 205 249 298
#
# _framework density 17.200759999999999
#
# number of rings (size 3 to 8) (size 9 to 14) (size 15 to 20)
#    0.000    2.600    0.000    2.400    0.000    6.400 
#    0.000    2.000    0.000    1.200    0.000    0.700 
#    0.000    0.000    0.000    0.000    0.000    0.000 
#
# Total GULP energy -223062.072751 kJ/mol
# GULP energy per Si atom -5576.551819 kJ/mol
# Density = 1.716161 g / cm^3
# Si number density = 17.200760 Si / 1000 Ang^3
#
#
#
# Elastic Constant Matrix: (Units=GPa)
#
#
# Indices 1 2 3 4 5 6 
#
# 1 61.1668 47.7882 84.2683 0.0000 0.0000 0.0000
# 2 47.7882 97.3649 78.0224 0.0000 0.0000 0.0000
# 3 84.2683 78.0224 161.7207 0.0000 0.0000 0.0000
# 4 0.0000 0.0000 0.0000 22.9802 0.0000 0.0000
# 5 0.0000 0.0000 0.0000 0.0000 -40.3723 0.0000
# 6 0.0000 0.0000 0.0000 0.0000 0.0000 22.3700
#
#
#
# Elastic Compliance Matrix: (Units=1/GPa)
#
#
# Indices 1 2 3 4 5 6 
#
# 1 0.060957 -0.007280 -0.028251 0.000000 0.000000 0.000000
# 2 -0.007280 0.017613 -0.004704 0.000000 0.000000 0.000000
# 3 -0.028251 -0.004704 0.023174 0.000000 0.000000 0.000000
# 4 0.000000 0.000000 0.000000 0.043516 0.000000 0.000000
# 5 0.000000 0.000000 0.000000 0.000000 -0.024769 0.000000
# 6 0.000000 0.000000 0.000000 0.000000 0.000000 0.044703
#
#
# Mechanical properties :
#
#
# Convention : Reuss Voigt Hill
#
# Bulk Modulus (GPa) = 47.00546 82.26783 64.63664
# Shear Modulus (GPa) = 19.78199 8.34047 14.06123
#
# Velocity S-wave (km/s) = 3.39494 2.20441 2.86226
# Velocity P-wave (km/s) = 6.53868 7.37639 6.97013
#
# Compressibility (1/GPa) = 0.02127412
#
# Stress axis : x y z
#
# Youngs Moduli (GPa) = 16.40494 56.77464 43.15229
#
# Poissons Ratio (x) = 0.41333 1.21909
# Poissons Ratio (y) = 0.11943 0.20299
# Poissons Ratio (z) = 0.46345 0.26707
#
# Static dielectric constant tensor:
#      x y z
#    x 1.557780 0.000000 0.000000 
#    y 0.000000 1.573010 0.000000 
#    z 0.000000 0.000000 1.578020 
# 
# From -- ./inp_files/67277.got.cif
#   From: 2010.05.17/outbox.cif.g08.bks.cpg/sg65_34_cif.got.tgz:67277.got - 2010.06.03 17:01:31.
