data_PCOD9488072
_publ_section_title
;
Structure prediction by ZEFSAII (Michael W. Deem and Ramdas Pophale) SiO2 
 PCOD9488072
Probable space group: C M M M
;
_chemical_formula_sum "Si O2"
_cell_formula_units_Z 72
_cell_length_a 19.287608
_cell_length_b 7.585973
_cell_length_c 23.998616
_cell_angle_alpha 90.000000
_cell_angle_beta 90.000000
_cell_angle_gamma 90.000000
_cell_volume 3511.364064
_symmetry_space_group_name_H-M "C M M M"
_symmetry_group_IT_number 65
_symmetry_cell_setting 'orthorhombic'
loop_
_space_group_symop_operation_xyz
x,y,z
-x,-y,z
x,-y,-z
-x,y,-z
-x,-y,-z
x,y,-z
-x,y,z
x,-y,z
1/2+x,1/2+y,z
1/2-x,1/2-y,z
1/2+x,1/2-y,-z
1/2-x,1/2+y,-z
1/2-x,1/2-y,-z
1/2+x,1/2+y,-z
1/2-x,1/2+y,z
1/2+x,1/2-y,z
loop_
_atom_site_type_symbol
_atom_site_label
_atom_site_fract_x
_atom_site_fract_y
_atom_site_fract_z
Si Si1 0.668843 0.288123 0.000000
Si Si2 0.168903 0.711738 0.332924
Si Si3 0.420837 0.288527 0.103638
Si Si4 0.920103 0.284950 0.437159
Si Si5 0.920875 0.288443 0.770645
O O1 0.750000 0.250000 0.000000
O O2 0.629560 0.221738 0.055304
O O3 0.662068 0.500000 0.000000
O O4 0.161422 0.500000 0.333171
O O5 0.250000 0.750000 0.332156
O O6 0.130862 0.777322 0.388799
O O7 0.129232 0.778393 0.277869
O O8 0.500000 0.221456 0.097412
O O9 0.424065 0.500000 0.098396
O O10 0.397185 0.250190 0.166510
O O11 0.901812 0.228243 0.500000
O O12 0.918910 0.500000 0.437287
O O13 0.000000 0.234230 0.425859
O O14 0.923975 0.500000 0.765531
O O15 0.000000 0.221481 0.764536
#
# Coordination Sequence:
#
# PCOD9488072 Si02
#       5
#     8  16  16  16  16
#     4  10  21  35  51  73 101 130 158 192 236 284
#     4  10  20  32  47  70 100 130 158 193 239 287
#     4   9  18  34  55  75  95 123 160 199 238 281
#     4   8  14  27  49  73  93 119 161 206 240 275
#     4   9  18  33  52  72  94 123 161 202 239 276
#
# _framework density 20.504850999999999
#
# number of rings (size 3 to 8) (size 9 to 14) (size 15 to 20)
#    0.000    2.889    0.000    1.667    0.000    7.111 
#    0.000    4.444    0.000    5.333    0.000    1.556 
#    0.000    0.000    0.000    0.000    0.000    0.000 
#
# Total GULP energy -200907.500853 kJ/mol
# GULP energy per Si atom -5580.763913 kJ/mol
# Density = 2.045818 g / cm^3
# Si number density = 20.504851 Si / 1000 Ang^3
#
#
#
# Elastic Constant Matrix: (Units=GPa)
#
#
# Indices 1 2 3 4 5 6 
#
# 1 145.4511 1.8125 156.5254 0.0000 0.0000 0.0000
# 2 1.8125 45.0230 5.9890 0.0000 0.0000 0.0000
# 3 156.5254 5.9890 239.8318 0.0000 0.0000 0.0000
# 4 0.0000 0.0000 0.0000 68.2362 0.0000 0.0000
# 5 0.0000 0.0000 0.0000 0.0000 -13.2985 0.0000
# 6 0.0000 0.0000 0.0000 0.0000 0.0000 22.1220
#
#
#
# Elastic Compliance Matrix: (Units=1/GPa)
#
#
# Indices 1 2 3 4 5 6 
#
# 1 0.023150 0.001081 -0.015135 0.000000 0.000000 0.000000
# 2 0.001081 0.022335 -0.001264 0.000000 0.000000 0.000000
# 3 -0.015135 -0.001264 0.014079 0.000000 0.000000 0.000000
# 4 0.000000 0.000000 0.000000 0.014655 0.000000 0.000000
# 5 0.000000 0.000000 0.000000 0.000000 -0.075196 0.000000
# 6 0.000000 0.000000 0.000000 0.000000 0.000000 0.045204
#
#
# Mechanical properties :
#
#
# Convention : Reuss Voigt Hill
#
# Bulk Modulus (GPa) = 34.56741 84.32885 59.44813
# Shear Modulus (GPa) = 59.16826 33.14387 46.15606
#
# Velocity S-wave (km/s) = 5.37758 4.02480 4.74960
# Velocity P-wave (km/s) = 7.44665 7.92554 7.68983
#
# Compressibility (1/GPa) = 0.02892899
#
# Stress axis : x y z
#
# Youngs Moduli (GPa) = 43.19744 44.77200 71.02654
#
# Poissons Ratio (x) = -0.04842 1.07502
# Poissons Ratio (y) = -0.04671 0.08974
# Poissons Ratio (z) = 0.65381 0.05657
#
# Static dielectric constant tensor:
#      x y z
#    x 1.688840 0.000000 0.000000 
#    y 0.000000 1.788020 0.000000 
#    z 0.000000 0.000000 1.723830 
# 
# From -- ./inp_files/63454.got.cif
#   From: 2010.05.17/outbox.cif.g08.bks.cpg/sg65_32_cif.got.tgz:63454.got - 2010.06.03 17:01:31.
