data_PCOD9488925
_publ_section_title
;
Structure prediction by ZEFSAII (Michael W. Deem and Ramdas Pophale) SiO2 
 PCOD9488925
Probable space group: C M M M
;
_chemical_formula_sum "Si O2"
_cell_formula_units_Z 88
_cell_length_a 8.562614
_cell_length_b 29.675616
_cell_length_c 16.596663
_cell_angle_alpha 90.000000
_cell_angle_beta 90.000000
_cell_angle_gamma 90.000000
_cell_volume 4217.226093
_symmetry_space_group_name_H-M "C M M M"
_symmetry_group_IT_number 65
_symmetry_cell_setting 'orthorhombic'
loop_
_space_group_symop_operation_xyz
x,y,z
-x,-y,z
x,-y,-z
-x,y,-z
-x,-y,-z
x,y,-z
-x,y,z
x,-y,z
1/2+x,1/2+y,z
1/2-x,1/2-y,z
1/2+x,1/2-y,-z
1/2-x,1/2+y,-z
1/2-x,1/2-y,-z
1/2+x,1/2+y,-z
1/2-x,1/2+y,z
1/2+x,1/2-y,z
loop_
_atom_site_type_symbol
_atom_site_label
_atom_site_fract_x
_atom_site_fract_y
_atom_site_fract_z
Si Si1 0.813514 0.798612 0.268725
Si Si2 0.313579 0.552966 0.500000
Si Si3 0.688218 0.669361 0.910243
Si Si4 0.677876 0.884698 0.357912
Si Si5 0.681575 0.930983 0.090502
Si Si6 0.825539 0.950045 0.248773
O O1 0.750000 0.750000 0.293370
O O2 0.768420 0.806599 0.174036
O O3 0.752102 0.837877 0.328015
O O4 0.000000 0.799154 0.271725
O O5 0.256342 0.500000 0.500000
O O6 0.500000 0.550308 0.500000
O O7 0.260115 0.583731 0.575418
O O8 0.500000 0.661508 0.906736
O O9 0.779320 0.622199 0.908772
O O10 0.719096 0.690065 0.000000
O O11 0.500000 0.877208 0.382000
O O12 0.695314 0.916614 0.280341
O O13 0.500000 0.939157 0.110725
O O14 0.797723 0.952133 0.154288
O O15 0.707410 0.946918 0.000000
O O16 0.000000 0.932503 0.266555
O O17 0.812466 0.000000 0.284388
#
# Coordination Sequence:
#
# PCOD9488925 Si02
#       6
#    16   8  16  16  16  16
#     4  11  23  40  64  94 131 174 222 270 323 384
#     4  11  25  47  76 107 138 171 207 249 307 383
#     4   9  18  34  57  84 119 167 219 270 324 380
#     4  12  25  43  68  98 132 166 206 260 319 376
#     4  10  20  33  52  80 115 157 207 263 319 375
#     4  11  23  38  58  85 119 163 211 257 313 381
#
# _framework density 20.866796000000001
#
# number of rings (size 3 to 8) (size 9 to 14) (size 15 to 20)
#    0.000    1.364    1.818    4.091    0.000    6.909 
#    0.000    2.273    0.000    0.000    0.000    0.000 
#    0.000    0.000    0.000    0.000    0.000    0.000 
#
# Total GULP energy -245511.698151 kJ/mol
# GULP energy per Si atom -5579.811322 kJ/mol
# Density = 2.081930 g / cm^3
# Si number density = 20.866796 Si / 1000 Ang^3
#
#
#
# Elastic Constant Matrix: (Units=GPa)
#
#
# Indices 1 2 3 4 5 6 
#
# 1 61.5748 40.8022 28.7788 0.0000 0.0000 0.0000
# 2 40.8022 144.6123 56.2761 0.0000 0.0000 0.0000
# 3 28.7788 56.2761 98.8717 0.0000 0.0000 0.0000
# 4 0.0000 0.0000 0.0000 -2.0212 0.0000 0.0000
# 5 0.0000 0.0000 0.0000 0.0000 29.0119 0.0000
# 6 0.0000 0.0000 0.0000 0.0000 0.0000 13.0433
#
#
#
# Elastic Compliance Matrix: (Units=1/GPa)
#
#
# Indices 1 2 3 4 5 6 
#
# 1 0.020877 -0.004529 -0.003499 0.000000 0.000000 0.000000
# 2 -0.004529 0.009865 -0.004297 0.000000 0.000000 0.000000
# 3 -0.003499 -0.004297 0.013578 0.000000 0.000000 0.000000
# 4 0.000000 0.000000 0.000000 -0.494767 0.000000 0.000000
# 5 0.000000 0.000000 0.000000 0.000000 0.034469 0.000000
# 6 0.000000 0.000000 0.000000 0.000000 0.000000 0.076667
#
#
# Mechanical properties :
#
#
# Convention : Reuss Voigt Hill
#
# Bulk Modulus (GPa) = 50.83639 61.86366 56.35003
# Shear Modulus (GPa) = -16.22825 19.95358 1.86267
#
# Velocity S-wave (km/s) = -2.79176 3.09566 0.94582
# Velocity P-wave (km/s) = 3.74477 6.51834 5.31564
#
# Compressibility (1/GPa) = 0.01967095
#
# Stress axis : x y z
#
# Youngs Moduli (GPa) = 47.90032 101.36952 73.64735
#
# Poissons Ratio (x) = 0.45907 0.25769
# Poissons Ratio (y) = 0.21693 0.31644
# Poissons Ratio (z) = 0.16760 0.43556
#
# Static dielectric constant tensor:
#      x y z
#    x 1.706870 0.000000 0.000000 
#    y 0.000000 1.747320 0.000000 
#    z 0.000000 0.000000 1.848010 
# 
# From -- ./inp_files/50399.got.cif
#   From: 2010.05.17/outbox.cif.g08.bks.cpg/sg65_26_cif.got.tgz:50399.got - 2010.06.03 17:01:31.
