data_PCOD9488736
_publ_section_title
;
Structure prediction by ZEFSAII (Michael W. Deem and Ramdas Pophale) SiO2 
 PCOD9488736
Probable space group: C M M M
;
_chemical_formula_sum "Si O2"
_cell_formula_units_Z 72
_cell_length_a 15.203158
_cell_length_b 30.753778
_cell_length_c 7.479718
_cell_angle_alpha 90.000000
_cell_angle_beta 90.000000
_cell_angle_gamma 90.000000
_cell_volume 3497.176154
_symmetry_space_group_name_H-M "C M M M"
_symmetry_group_IT_number 65
_symmetry_cell_setting 'orthorhombic'
loop_
_space_group_symop_operation_xyz
x,y,z
-x,-y,z
x,-y,-z
-x,y,-z
-x,-y,-z
x,y,-z
-x,y,z
x,-y,z
1/2+x,1/2+y,z
1/2-x,1/2-y,z
1/2+x,1/2-y,-z
1/2-x,1/2+y,-z
1/2-x,1/2-y,-z
1/2+x,1/2+y,-z
1/2-x,1/2+y,z
1/2+x,1/2-y,z
loop_
_atom_site_type_symbol
_atom_site_label
_atom_site_fract_x
_atom_site_fract_y
_atom_site_fract_z
Si Si1 0.836548 0.227689 0.703896
Si Si2 0.603997 0.947977 0.500000
Si Si3 0.284989 0.895412 0.217566
Si Si4 0.406190 0.183423 0.213985
Si Si5 0.402310 0.633201 0.792050
O O1 0.814651 0.215974 0.500000
O O2 0.750000 0.250000 0.789329
O O3 0.900778 0.268696 0.707115
O O4 0.876569 0.184344 0.785509
O O5 0.500000 0.936150 0.500000
O O6 0.655800 0.928965 0.672331
O O7 0.609161 0.000000 0.500000
O O8 0.327006 0.848230 0.262741
O O9 0.182863 0.893037 0.275800
O O10 0.290522 0.900889 0.000000
O O11 0.500000 0.162914 0.262809
O O12 0.403575 0.188168 0.000000
O O13 0.500000 0.627224 0.712590
O O14 0.407924 0.621352 0.000000
#
# Coordination Sequence:
#
# PCOD9488736 Si02
#       5
#    16   8  16  16  16
#     4  11  22  32  46  74 115 162 211 263 310 351
#     4  11  26  46  71 102 129 153 187 237 303 387
#     4  10  22  41  65  92 126 163 203 253 308 365
#     4  10  20  33  51  75 106 152 204 250 298 352
#     4  10  21  37  58  84 118 166 220 267 307 352
#
# _framework density 20.588038999999998
#
# number of rings (size 3 to 8) (size 9 to 14) (size 15 to 20)
#    0.000    1.667    2.222    2.000    3.111    6.222 
#    0.000    1.111    0.000    1.333    0.000    3.111 
#    0.000    0.000    0.000    0.000    0.000    0.000 
#
# Total GULP energy -200848.983546 kJ/mol
# GULP energy per Si atom -5579.138432 kJ/mol
# Density = 2.054118 g / cm^3
# Si number density = 20.588039 Si / 1000 Ang^3
#
#
#
# Elastic Constant Matrix: (Units=GPa)
#
#
# Indices 1 2 3 4 5 6 
#
# 1 207.1114 46.4245 40.7815 0.0000 0.0000 0.0000
# 2 46.4245 76.6955 24.5367 0.0000 0.0000 0.0000
# 3 40.7815 24.5367 79.2867 0.0000 0.0000 0.0000
# 4 0.0000 0.0000 0.0000 18.4916 0.0000 0.0000
# 5 0.0000 0.0000 0.0000 0.0000 27.2012 0.0000
# 6 0.0000 0.0000 0.0000 0.0000 0.0000 28.3613
#
#
#
# Elastic Compliance Matrix: (Units=1/GPa)
#
#
# Indices 1 2 3 4 5 6 
#
# 1 0.005896 -0.002884 -0.002140 0.000000 0.000000 0.000000
# 2 -0.002884 0.015882 -0.003431 0.000000 0.000000 0.000000
# 3 -0.002140 -0.003431 0.014775 0.000000 0.000000 0.000000
# 4 0.000000 0.000000 0.000000 0.054079 0.000000 0.000000
# 5 0.000000 0.000000 0.000000 0.000000 0.036763 0.000000
# 6 0.000000 0.000000 0.000000 0.000000 0.000000 0.035259
#
#
# Mechanical properties :
#
#
# Convention : Reuss Voigt Hill
#
# Bulk Modulus (GPa) = 50.91193 65.17544 58.04369
# Shear Modulus (GPa) = 26.86526 31.56756 29.21641
#
# Velocity S-wave (km/s) = 3.61625 3.91998 3.77118
# Velocity P-wave (km/s) = 6.49761 7.22593 6.87143
#
# Compressibility (1/GPa) = 0.01964176
#
# Stress axis : x y z
#
# Youngs Moduli (GPa) = 169.59882 62.96306 67.68106
#
# Poissons Ratio (x) = 0.18161 0.14485
# Poissons Ratio (y) = 0.48919 0.23225
# Poissons Ratio (z) = 0.36297 0.21606
#
# Static dielectric constant tensor:
#      x y z
#    x 1.852340 0.000000 0.000000 
#    y 0.000000 1.681390 0.000000 
#    z 0.000000 0.000000 1.772030 
# 
# From -- ./inp_files/7633.got.cif
#   From: 2010.05.17/outbox.cif.g08.bks.cpg/sg65_4_cif.got.tgz:7633.got - 2010.06.03 17:01:31.
