data_PCOD9488683
_publ_section_title
;
Structure prediction by ZEFSAII (Michael W. Deem and Ramdas Pophale) SiO2 
 PCOD9488683
Probable space group: C M M M
;
_chemical_formula_sum "Si O2"
_cell_formula_units_Z 88
_cell_length_a 16.252574
_cell_length_b 34.600181
_cell_length_c 7.620222
_cell_angle_alpha 90.000000
_cell_angle_beta 90.000000
_cell_angle_gamma 90.000000
_cell_volume 4285.170896
_symmetry_space_group_name_H-M "C M M M"
_symmetry_group_IT_number 65
_symmetry_cell_setting 'orthorhombic'
loop_
_space_group_symop_operation_xyz
x,y,z
-x,-y,z
x,-y,-z
-x,y,-z
-x,-y,-z
x,y,-z
-x,y,z
x,-y,z
1/2+x,1/2+y,z
1/2-x,1/2-y,z
1/2+x,1/2-y,-z
1/2-x,1/2+y,-z
1/2-x,1/2-y,-z
1/2+x,1/2+y,-z
1/2-x,1/2+y,z
1/2+x,1/2-y,z
loop_
_atom_site_type_symbol
_atom_site_label
_atom_site_fract_x
_atom_site_fract_y
_atom_site_fract_z
Si Si1 0.180303 0.456395 0.207197
Si Si2 0.000000 0.455278 0.709315
Si Si3 0.252593 0.620400 0.784029
Si Si4 0.090224 0.664185 0.204753
Si Si5 0.655875 0.753450 0.708146
Si Si6 0.408952 0.668893 0.788487
O O1 0.183912 0.500000 0.282946
O O2 0.087512 0.439798 0.229054
O O3 0.242202 0.423917 0.274156
O O4 0.194243 0.459875 0.000000
O O5 0.000000 0.500000 0.772389
O O6 0.000000 0.454785 0.500000
O O7 0.171197 0.643277 0.722412
O O8 0.334702 0.641938 0.724493
O O9 0.252807 0.621132 0.000000
O O10 0.108734 0.709890 0.214625
O O11 0.000000 0.655611 0.282765
O O12 0.086469 0.653306 0.000000
O O13 0.659832 0.760060 0.500000
O O14 0.750000 0.750000 0.775251
O O15 0.611339 0.713116 0.743077
O O16 0.500000 0.658511 0.724196
O O17 0.409470 0.666126 0.000000
#
# Coordination Sequence:
#
# PCOD9488683 Si02
#       6
#    16   8  16  16  16  16
#     4   9  17  30  50  73  98 132 170 204 245 297
#     4   9  17  29  45  69 101 133 165 201 241 289
#     4   9  18  32  51  74 100 126 160 209 246 282
#     4  10  20  33  51  72  95 130 169 200 237 289
#     4  11  22  35  51  72 101 133 163 201 249 297
#     4  10  20  35  56  76  94 127 172 210 248 295
#
# _framework density 20.535936
#
# number of rings (size 3 to 8) (size 9 to 14) (size 15 to 20)
#    0.000    2.273    1.818    1.364    1.273    4.727 
#    0.000    1.818    0.000    0.545    0.000    3.818 
#    0.000    0.000    0.000    6.182    0.000    6.545 
#
# Total GULP energy -245657.802275 kJ/mol
# GULP energy per Si atom -5583.131870 kJ/mol
# Density = 2.048920 g / cm^3
# Si number density = 20.535936 Si / 1000 Ang^3
#
#
#
# Elastic Constant Matrix: (Units=GPa)
#
#
# Indices 1 2 3 4 5 6 
#
# 1 159.0726 64.3529 6.8034 0.0000 0.0000 0.0000
# 2 64.3529 117.5528 -2.4632 0.0000 0.0000 0.0000
# 3 6.8034 -2.4632 45.3730 0.0000 0.0000 0.0000
# 4 0.0000 0.0000 0.0000 -37.5869 0.0000 0.0000
# 5 0.0000 0.0000 0.0000 0.0000 -3.9755 0.0000
# 6 0.0000 0.0000 0.0000 0.0000 0.0000 20.7442
#
#
#
# Elastic Compliance Matrix: (Units=1/GPa)
#
#
# Indices 1 2 3 4 5 6 
#
# 1 0.008171 -0.004504 -0.001470 0.000000 0.000000 0.000000
# 2 -0.004504 0.010999 0.001272 0.000000 0.000000 0.000000
# 3 -0.001470 0.001272 0.022329 0.000000 0.000000 0.000000
# 4 0.000000 0.000000 0.000000 -0.026605 0.000000 0.000000
# 5 0.000000 0.000000 0.000000 0.000000 -0.251542 0.000000
# 6 0.000000 0.000000 0.000000 0.000000 0.000000 0.048206
#
#
# Mechanical properties :
#
#
# Convention : Reuss Voigt Hill
#
# Bulk Modulus (GPa) = 31.15576 51.04273 41.09925
# Shear Modulus (GPa) = -29.70194 12.72338 -8.48928
#
# Velocity S-wave (km/s) = -3.80720 2.49181 -2.03540
# Velocity P-wave (km/s) = 2.03030 5.76091 3.81222
#
# Compressibility (1/GPa) = 0.03209679
#
# Stress axis : x y z
#
# Youngs Moduli (GPa) = 122.37715 90.91541 44.78481
#
# Poissons Ratio (x) = 0.40950 0.06582
# Poissons Ratio (y) = 0.55121 -0.05699
# Poissons Ratio (z) = 0.17987 -0.11569
#
# Static dielectric constant tensor:
#      x y z
#    x 1.741490 0.000000 0.000000 
#    y 0.000000 1.738820 0.000000 
#    z 0.000000 0.000000 1.737060 
# 
# From -- ./inp_files/10024.got.cif
#   From: 2010.05.17/outbox.cif.g08.bks.cpg/sg65_6_cif.got.tgz:10024.got - 2010.06.03 17:01:31.
