data_PCOD9488589
_publ_section_title
;
Structure prediction by ZEFSAII (Michael W. Deem and Ramdas Pophale) SiO2 
 PCOD9488589
Probable space group: C M M M
;
_chemical_formula_sum "Si O2"
_cell_formula_units_Z 96
_cell_length_a 29.394948
_cell_length_b 21.093613
_cell_length_c 7.457562
_cell_angle_alpha 90.000000
_cell_angle_beta 90.000000
_cell_angle_gamma 90.000000
_cell_volume 4624.028932
_symmetry_space_group_name_H-M "C M M M"
_symmetry_group_IT_number 65
_symmetry_cell_setting 'orthorhombic'
loop_
_space_group_symop_operation_xyz
x,y,z
-x,-y,z
x,-y,-z
-x,y,-z
-x,-y,-z
x,y,-z
-x,y,z
x,-y,z
1/2+x,1/2+y,z
1/2-x,1/2-y,z
1/2+x,1/2-y,-z
1/2-x,1/2+y,-z
1/2-x,1/2-y,-z
1/2+x,1/2+y,-z
1/2-x,1/2+y,z
1/2+x,1/2-y,z
loop_
_atom_site_type_symbol
_atom_site_label
_atom_site_fract_x
_atom_site_fract_y
_atom_site_fract_z
Si Si1 0.948858 0.840391 0.790896
Si Si2 0.779528 0.153932 0.782962
Si Si3 0.445634 0.067591 0.711318
Si Si4 0.134840 0.926706 0.219605
Si Si5 0.083094 0.299333 0.296581
Si Si6 0.186965 0.704095 0.216883
O O1 0.907834 0.883878 0.717613
O O2 0.933590 0.766924 0.783371
O O3 0.000000 0.847735 0.714686
O O4 0.951985 0.857706 0.000000
O O5 0.817013 0.103658 0.720730
O O6 0.797799 0.224205 0.740460
O O7 0.726846 0.155971 0.723881
O O8 0.778167 0.149271 0.000000
O O9 0.432231 0.068816 0.500000
O O10 0.500000 0.065633 0.717821
O O11 0.432097 0.134865 0.791404
O O12 0.428563 0.000000 0.785363
O O13 0.130360 0.000000 0.271604
O O14 0.135192 0.924280 0.000000
O O15 0.065186 0.298107 0.500000
O O16 0.137405 0.303622 0.295408
O O17 0.183344 0.700372 0.000000
#
# Coordination Sequence:
#
# PCOD9488589 Si02
#       6
#    16  16  16  16  16  16
#     4  10  20  33  50  73 101 132 167 209 256 299
#     4   8  14  27  48  70  92 125 162 195 236 285
#     4   8  15  29  47  65  88 122 162 197 230 277
#     4   9  16  28  49  75 100 127 167 214 251 291
#     4  11  20  30  49  77 102 127 160 204 248 292
#     4   9  16  29  50  71  96 126 158 195 240 293
#
# _framework density 20.761115
#
# number of rings (size 3 to 8) (size 9 to 14) (size 15 to 20)
#    0.000    2.833    1.667    2.500    0.000    1.333 
#    0.000    4.167    0.000    3.500    0.000    7.000 
#    0.000    0.000    0.000    0.000    0.000    0.000 
#
# Total GULP energy -267469.683640 kJ/mol
# GULP energy per Si atom -5572.285076 kJ/mol
# Density = 2.071386 g / cm^3
# Si number density = 20.761115 Si / 1000 Ang^3
#
#
#
# Elastic Constant Matrix: (Units=GPa)
#
#
# Indices 1 2 3 4 5 6 
#
# 1 99.2259 47.8440 -2.3437 0.0000 0.0000 0.0000
# 2 47.8440 132.7658 0.8584 0.0000 0.0000 0.0000
# 3 -2.3437 0.8584 58.0914 0.0000 0.0000 0.0000
# 4 0.0000 0.0000 0.0000 6.1259 0.0000 0.0000
# 5 0.0000 0.0000 0.0000 0.0000 3.0131 0.0000
# 6 0.0000 0.0000 0.0000 0.0000 0.0000 22.4021
#
#
#
# Elastic Compliance Matrix: (Units=1/GPa)
#
#
# Indices 1 2 3 4 5 6 
#
# 1 0.012215 -0.004406 0.000558 0.000000 0.000000 0.000000
# 2 -0.004406 0.009122 -0.000313 0.000000 0.000000 0.000000
# 3 0.000558 -0.000313 0.017241 0.000000 0.000000 0.000000
# 4 0.000000 0.000000 0.000000 0.163243 0.000000 0.000000
# 5 0.000000 0.000000 0.000000 0.000000 0.331883 0.000000
# 6 0.000000 0.000000 0.000000 0.000000 0.000000 0.044639
#
#
# Mechanical properties :
#
#
# Convention : Reuss Voigt Hill
#
# Bulk Modulus (GPa) = 33.04898 42.53340 37.79119
# Shear Modulus (GPa) = 8.37873 22.55650 15.46762
#
# Velocity S-wave (km/s) = 2.01110 3.29975 2.73248
# Velocity P-wave (km/s) = 4.62017 5.92025 5.31015
#
# Compressibility (1/GPa) = 0.03025812
#
# Stress axis : x y z
#
# Youngs Moduli (GPa) = 81.86344 109.62856 57.99997
#
# Poissons Ratio (x) = 0.48298 -0.03236
# Poissons Ratio (y) = 0.36066 0.01813
# Poissons Ratio (z) = -0.04567 0.03426
#
# Static dielectric constant tensor:
#      x y z
#    x 1.754990 0.000000 0.000000 
#    y 0.000000 1.735440 0.000000 
#    z 0.000000 0.000000 1.813070 
# 
# From -- ./inp_files/16316.got.cif
#   From: 2010.05.17/outbox.cif.g08.bks.cpg/sg65_9_cif.got.tgz:16316.got - 2010.06.03 17:01:31.
