data_PCOD9488143
_publ_section_title
;
Structure prediction by ZEFSAII (Michael W. Deem and Ramdas Pophale) SiO2 
 PCOD9488143
Probable space group: C M M M
;
_chemical_formula_sum "Si O2"
_cell_formula_units_Z 96
_cell_length_a 30.313181
_cell_length_b 7.588957
_cell_length_c 19.869608
_cell_angle_alpha 90.000000
_cell_angle_beta 90.000000
_cell_angle_gamma 90.000000
_cell_volume 4570.912460
_symmetry_space_group_name_H-M "C M M M"
_symmetry_group_IT_number 65
_symmetry_cell_setting 'orthorhombic'
loop_
_space_group_symop_operation_xyz
x,y,z
-x,-y,z
x,-y,-z
-x,y,-z
-x,-y,-z
x,y,-z
-x,y,z
x,-y,z
1/2+x,1/2+y,z
1/2-x,1/2-y,z
1/2+x,1/2-y,-z
1/2-x,1/2+y,-z
1/2-x,1/2-y,-z
1/2+x,1/2+y,-z
1/2-x,1/2+y,z
1/2+x,1/2-y,z
loop_
_atom_site_type_symbol
_atom_site_label
_atom_site_fract_x
_atom_site_fract_y
_atom_site_fract_z
Si Si1 0.049435 0.289414 0.576376
Si Si2 0.180879 0.794350 0.074217
Si Si3 0.299520 0.712021 0.223998
Si Si4 0.922225 0.286844 0.928089
Si Si5 0.547898 0.213445 0.215319
Si Si6 0.622371 0.304520 0.314430
O O1 0.056943 0.225008 0.500000
O O2 0.045868 0.500000 0.573969
O O3 0.091307 0.257822 0.624375
O O4 0.000000 0.225223 0.597678
O O5 0.195852 0.718853 0.146562
O O6 0.127772 0.781053 0.076550
O O7 0.193919 0.000000 0.073213
O O8 0.194099 0.719448 0.000000
O O9 0.306796 0.500000 0.219512
O O10 0.250000 0.750000 0.246236
O O11 0.335048 0.782533 0.278386
O O12 0.919773 0.500000 0.927592
O O13 0.948775 0.236844 0.862522
O O14 0.940915 0.231508 0.000000
O O15 0.500000 0.259762 0.242553
O O16 0.587335 0.302289 0.253889
O O17 0.552774 0.000000 0.221547
O O18 0.636617 0.500000 0.333949
#
# Coordination Sequence:
#
# PCOD9488143 Si02
#       6
#    16  16  16  16  16  16
#     4   9  19  37  61  89 119 149 180 211 248 303
#     4   9  17  32  52  71  97 133 172 222 282 333
#     4  10  22  37  53  77 105 137 180 227 275 326
#     4   9  17  29  46  68  94 129 175 223 267 312
#     4  10  20  32  48  72 102 139 180 218 262 317
#     4  11  22  36  54  80 112 142 175 218 265 313
#
# _framework density 21.002371
#
# number of rings (size 3 to 8) (size 9 to 14) (size 15 to 20)
#    0.000    2.333    1.667    1.500    0.000    5.667 
#    0.000    2.500    0.000    0.500    0.000    3.500 
#    0.000    0.000    0.000    0.000    0.000    0.000 
#
# Total GULP energy -267493.234306 kJ/mol
# GULP energy per Si atom -5572.775715 kJ/mol
# Density = 2.095457 g / cm^3
# Si number density = 21.002371 Si / 1000 Ang^3
#
#
#
# Elastic Constant Matrix: (Units=GPa)
#
#
# Indices 1 2 3 4 5 6 
#
# 1 137.1011 0.5407 73.8303 0.0000 0.0000 0.0000
# 2 0.5407 41.7574 12.0149 0.0000 0.0000 0.0000
# 3 73.8303 12.0149 148.8104 0.0000 0.0000 0.0000
# 4 0.0000 0.0000 0.0000 14.7692 0.0000 0.0000
# 5 0.0000 0.0000 0.0000 0.0000 30.8483 0.0000
# 6 0.0000 0.0000 0.0000 0.0000 0.0000 11.2603
#
#
#
# Elastic Compliance Matrix: (Units=1/GPa)
#
#
# Indices 1 2 3 4 5 6 
#
# 1 0.010025 0.001332 -0.005081 0.000000 0.000000 0.000000
# 2 0.001332 0.024694 -0.002655 0.000000 0.000000 0.000000
# 3 -0.005081 -0.002655 0.009455 0.000000 0.000000 0.000000
# 4 0.000000 0.000000 0.000000 0.067709 0.000000 0.000000
# 5 0.000000 0.000000 0.000000 0.000000 0.032417 0.000000
# 6 0.000000 0.000000 0.000000 0.000000 0.000000 0.088807
#
#
# Mechanical properties :
#
#
# Convention : Reuss Voigt Hill
#
# Bulk Modulus (GPa) = 31.88064 55.60454 43.74259
# Shear Modulus (GPa) = 19.50300 27.46109 23.48205
#
# Velocity S-wave (km/s) = 3.05062 3.61989 3.34738
# Velocity P-wave (km/s) = 5.25555 6.63358 5.98436
#
# Compressibility (1/GPa) = 0.03136700
#
# Stress axis : x y z
#
# Youngs Moduli (GPa) = 99.75079 40.49493 105.76027
#
# Poissons Ratio (x) = -0.05395 0.53740
# Poissons Ratio (y) = -0.13289 0.28077
# Poissons Ratio (z) = 0.50687 0.10751
#
# Static dielectric constant tensor:
#      x y z
#    x 1.728780 0.000000 0.000000 
#    y 0.000000 1.811130 0.000000 
#    z 0.000000 0.000000 1.795650 
# 
# From -- ./inp_files/65777.got.cif
#   From: 2010.05.17/outbox.cif.g08.bks.cpg/sg65_33_cif.got.tgz:65777.got - 2010.06.03 17:01:31.
