data_PCOD9488553
_publ_section_title
;
Structure prediction by ZEFSAII (Michael W. Deem and Ramdas Pophale) SiO2 
 PCOD9488553
Probable space group: C M M M
;
_chemical_formula_sum "Si O2"
_cell_formula_units_Z 80
_cell_length_a 9.210484
_cell_length_b 14.707649
_cell_length_c 27.392380
_cell_angle_alpha 90.000000
_cell_angle_beta 90.000000
_cell_angle_gamma 90.000000
_cell_volume 3710.696863
_symmetry_space_group_name_H-M "C M M M"
_symmetry_group_IT_number 65
_symmetry_cell_setting 'orthorhombic'
loop_
_space_group_symop_operation_xyz
x,y,z
-x,-y,z
x,-y,-z
-x,y,-z
-x,-y,-z
x,y,-z
-x,y,z
x,-y,z
1/2+x,1/2+y,z
1/2-x,1/2-y,z
1/2+x,1/2-y,-z
1/2-x,1/2+y,-z
1/2-x,1/2-y,-z
1/2+x,1/2+y,-z
1/2-x,1/2+y,z
1/2+x,1/2-y,z
loop_
_atom_site_type_symbol
_atom_site_label
_atom_site_fract_x
_atom_site_fract_y
_atom_site_fract_z
Si Si1 0.338822 0.893730 0.849658
Si Si2 0.173616 0.152221 0.053444
Si Si3 0.831301 0.611191 0.341614
Si Si4 0.165585 0.888413 0.244379
Si Si5 0.825128 0.609029 0.447633
O O1 0.500000 0.853289 0.856811
O O2 0.244614 0.889786 0.898703
O O3 0.255624 0.856464 0.802629
O O4 0.356697 0.000000 0.838977
O O5 0.250000 0.250000 0.051407
O O6 0.000000 0.158653 0.058808
O O7 0.201759 0.108665 0.000000
O O8 0.830837 0.500000 0.342210
O O9 0.739171 0.639734 0.295054
O O10 0.772157 0.641457 0.394719
O O11 0.000000 0.638340 0.336349
O O12 0.000000 0.857796 0.241271
O O13 0.164297 0.000000 0.244063
O O14 0.768571 0.643987 0.500000
O O15 0.801879 0.500000 0.448235
O O16 0.000000 0.621980 0.447099
#
# Coordination Sequence:
#
# PCOD9488553 Si02
#       5
#    16  16  16  16  16
#     4  10  20  33  50  72  97 124 156 195 235 274
#     4  10  21  37  56  76  99 127 157 188 224 270
#     4   8  12  18  29  44  63  90 126 168 213 260
#     4   9  16  25  37  54  78 107 139 177 222 270
#     4   7   9  13  22  37  56  80 116 163 209 251
#
# _framework density 21.559293
#
# number of rings (size 3 to 8) (size 9 to 14) (size 15 to 20)
#    0.000    3.200    0.000    3.600    0.000    5.200 
#    0.000    2.000    0.000    0.600    0.000    4.200 
#    0.000    0.000    0.000    0.000    0.000    1.000 
#
# Total GULP energy -222938.329777 kJ/mol
# GULP energy per Si atom -5573.458244 kJ/mol
# Density = 2.151022 g / cm^3
# Si number density = 21.559293 Si / 1000 Ang^3
#
#
#
# Elastic Constant Matrix: (Units=GPa)
#
#
# Indices 1 2 3 4 5 6 
#
# 1 125.3911 6.0016 111.1713 0.0000 0.0000 0.0000
# 2 6.0016 45.9437 9.0605 0.0000 0.0000 0.0000
# 3 111.1713 9.0605 255.7451 0.0000 0.0000 0.0000
# 4 0.0000 0.0000 0.0000 -20.5223 0.0000 0.0000
# 5 0.0000 0.0000 0.0000 0.0000 122.6887 0.0000
# 6 0.0000 0.0000 0.0000 0.0000 0.0000 7.0142
#
#
#
# Elastic Compliance Matrix: (Units=1/GPa)
#
#
# Indices 1 2 3 4 5 6 
#
# 1 0.012992 -0.000587 -0.005627 0.000000 0.000000 0.000000
# 2 -0.000587 0.021945 -0.000522 0.000000 0.000000 0.000000
# 3 -0.005627 -0.000522 0.006375 0.000000 0.000000 0.000000
# 4 0.000000 0.000000 0.000000 -0.048727 0.000000 0.000000
# 5 0.000000 0.000000 0.000000 0.000000 0.008151 0.000000
# 6 0.000000 0.000000 0.000000 0.000000 0.000000 0.142569
#
#
# Mechanical properties :
#
#
# Convention : Reuss Voigt Hill
#
# Bulk Modulus (GPa) = 35.92045 75.50518 55.71281
# Shear Modulus (GPa) = 30.11032 41.89254 36.00143
#
# Velocity S-wave (km/s) = 3.74120 4.41288 4.09085
# Velocity P-wave (km/s) = 5.94639 7.81427 6.94343
#
# Compressibility (1/GPa) = 0.02783930
#
# Stress axis : x y z
#
# Youngs Moduli (GPa) = 76.97215 45.56744 156.87473
#
# Poissons Ratio (x) = 0.02677 0.88268
# Poissons Ratio (y) = 0.04522 0.08191
# Poissons Ratio (z) = 0.43309 0.02379
#
# Static dielectric constant tensor:
#      x y z
#    x 1.750510 0.000000 0.000000 
#    y 0.000000 1.963430 0.000000 
#    z 0.000000 0.000000 1.819270 
# 
# From -- ./inp_files/72798.got.cif
#   From: 2010.05.17/outbox.cif.g08.bks.cpg/sg65_37_cif.got.tgz:72798.got - 2010.06.03 17:01:31.
