data_PCOD9488787
_publ_section_title
;
Structure prediction by ZEFSAII (Michael W. Deem and Ramdas Pophale) SiO2 
 PCOD9488787
Probable space group: C M M M
;
_chemical_formula_sum "Si O2"
_cell_formula_units_Z 80
_cell_length_a 8.694140
_cell_length_b 18.835682
_cell_length_c 26.752766
_cell_angle_alpha 90.000000
_cell_angle_beta 90.000000
_cell_angle_gamma 90.000000
_cell_volume 4381.034466
_symmetry_space_group_name_H-M "C M M M"
_symmetry_group_IT_number 65
_symmetry_cell_setting 'orthorhombic'
loop_
_space_group_symop_operation_xyz
x,y,z
-x,-y,z
x,-y,-z
-x,y,-z
-x,-y,-z
x,y,-z
-x,y,z
x,-y,z
1/2+x,1/2+y,z
1/2-x,1/2-y,z
1/2+x,1/2-y,-z
1/2-x,1/2+y,-z
1/2-x,1/2-y,-z
1/2+x,1/2+y,-z
1/2-x,1/2+y,z
1/2+x,1/2-y,z
loop_
_atom_site_type_symbol
_atom_site_label
_atom_site_fract_x
_atom_site_fract_y
_atom_site_fract_z
Si Si1 0.684287 0.829063 0.751710
Si Si2 0.812319 0.418772 0.848459
Si Si3 0.819014 0.414000 0.445227
Si Si4 0.183126 0.083320 0.659744
Si Si5 0.814198 0.671310 0.056506
O O1 0.500000 0.825849 0.752285
O O2 0.750000 0.750000 0.752364
O O3 0.736321 0.872409 0.800873
O O4 0.738429 0.870969 0.702692
O O5 0.760255 0.500000 0.844547
O O6 0.763124 0.381869 0.900078
O O7 0.000000 0.419537 0.848442
O O8 0.764311 0.388674 0.500000
O O9 0.807013 0.500000 0.446148
O O10 0.731288 0.390905 0.395595
O O11 0.000000 0.397040 0.440651
O O12 0.000000 0.087268 0.664774
O O13 0.229090 0.000000 0.664481
O O14 0.750000 0.750000 0.065907
O O15 0.000000 0.674500 0.057786
O O16 0.768657 0.650144 0.000000
#
# Coordination Sequence:
#
# PCOD9488787 Si02
#       5
#    16  16  16  16  16
#     4  11  22  36  54  73  98 133 172 214 260 312
#     4   9  18  32  51  76 102 129 166 211 257 304
#     4   8  14  26  46  73 104 137 172 208 248 297
#     4  10  20  33  51  77 107 136 170 213 257 303
#     4   9  17  30  50  75 103 135 169 206 248 297
#
# _framework density 18.260525999999999
#
# number of rings (size 3 to 8) (size 9 to 14) (size 15 to 20)
#    0.000    2.600    0.000    3.000    0.000    2.800 
#    0.000    5.000    0.000    3.600    0.000    2.800 
#    0.000    0.000    0.000    0.000    0.000    0.000 
#
# Total GULP energy -223080.413106 kJ/mol
# GULP energy per Si atom -5577.010328 kJ/mol
# Density = 1.821896 g / cm^3
# Si number density = 18.260526 Si / 1000 Ang^3
#
#
#
# Elastic Constant Matrix: (Units=GPa)
#
#
# Indices 1 2 3 4 5 6 
#
# 1 24.5723 32.5663 42.5206 0.0000 0.0000 0.0000
# 2 32.5663 114.6038 104.1278 0.0000 0.0000 0.0000
# 3 42.5206 104.1278 184.2578 0.0000 0.0000 0.0000
# 4 0.0000 0.0000 0.0000 -28.3493 0.0000 0.0000
# 5 0.0000 0.0000 0.0000 0.0000 6.1988 0.0000
# 6 0.0000 0.0000 0.0000 0.0000 0.0000 19.9553
#
#
#
# Elastic Compliance Matrix: (Units=1/GPa)
#
#
# Indices 1 2 3 4 5 6 
#
# 1 0.074334 -0.011381 -0.010722 0.000000 0.000000 0.000000
# 2 -0.011381 0.019677 -0.008493 0.000000 0.000000 0.000000
# 3 -0.010722 -0.008493 0.012701 0.000000 0.000000 0.000000
# 4 0.000000 0.000000 0.000000 -0.035274 0.000000 0.000000
# 5 0.000000 0.000000 0.000000 0.000000 0.161321 0.000000
# 6 0.000000 0.000000 0.000000 0.000000 0.000000 0.050112
#
#
# Mechanical properties :
#
#
# Convention : Reuss Voigt Hill
#
# Bulk Modulus (GPa) = 21.96901 75.76260 48.86580
# Shear Modulus (GPa) = 13.91842 9.17557 11.54700
#
# Velocity S-wave (km/s) = 2.76382 2.24404 2.51738
# Velocity P-wave (km/s) = 4.71613 6.94940 5.93869
#
# Compressibility (1/GPa) = 0.04551867
#
# Stress axis : x y z
#
# Youngs Moduli (GPa) = 13.45287 50.82135 78.73218
#
# Poissons Ratio (x) = 0.57839 0.84418
# Poissons Ratio (y) = 0.15311 0.66870
# Poissons Ratio (z) = 0.14424 0.43165
#
# Static dielectric constant tensor:
#      x y z
#    x 1.613690 0.000000 0.000000 
#    y 0.000000 1.600210 0.000000 
#    z 0.000000 0.000000 1.638400 
# 
# From -- ./inp_files/72731.got.cif
#   From: 2010.05.17/outbox.cif.g08.bks.cpg/sg65_37_cif.got.tgz:72731.got - 2010.06.03 17:01:31.
