data_PCOD9488118
_publ_section_title
;
Structure prediction by ZEFSAII (Michael W. Deem and Ramdas Pophale) SiO2 
 PCOD9488118
Probable space group: C M M M
;
_chemical_formula_sum "Si O2"
_cell_formula_units_Z 88
_cell_length_a 8.501354
_cell_length_b 31.556443
_cell_length_c 18.160621
_cell_angle_alpha 90.000000
_cell_angle_beta 90.000000
_cell_angle_gamma 90.000000
_cell_volume 4871.995069
_symmetry_space_group_name_H-M "C M M M"
_symmetry_group_IT_number 65
_symmetry_cell_setting 'orthorhombic'
loop_
_space_group_symop_operation_xyz
x,y,z
-x,-y,z
x,-y,-z
-x,y,-z
-x,-y,-z
x,y,-z
-x,y,z
x,-y,z
1/2+x,1/2+y,z
1/2-x,1/2-y,z
1/2+x,1/2-y,-z
1/2-x,1/2+y,-z
1/2-x,1/2-y,-z
1/2+x,1/2+y,-z
1/2-x,1/2+y,z
1/2+x,1/2-y,z
loop_
_atom_site_type_symbol
_atom_site_label
_atom_site_fract_x
_atom_site_fract_y
_atom_site_fract_z
Si Si1 0.178753 0.000000 0.412173
Si Si2 0.807958 0.547820 0.914553
Si Si3 0.813832 0.824227 0.581267
Si Si4 0.312106 0.204563 0.738245
Si Si5 0.188692 0.383041 0.799225
Si Si6 0.815357 0.589283 0.632691
O O1 0.266194 0.957610 0.388189
O O2 0.172835 0.000000 0.500000
O O3 0.000000 0.000000 0.383380
O O4 0.759338 0.500000 0.891847
O O5 0.749694 0.585621 0.862256
O O6 0.000000 0.548017 0.911656
O O7 0.764072 0.553932 0.000000
O O8 0.756550 0.810554 0.500000
O O9 0.735809 0.803444 0.653006
O O10 0.780251 0.874412 0.590332
O O11 0.000000 0.816505 0.585000
O O12 0.500000 0.204146 0.741053
O O13 0.250000 0.250000 0.762199
O O14 0.251639 0.164991 0.787389
O O15 0.211929 0.404228 0.719560
O O16 0.000000 0.379763 0.810943
O O17 0.000000 0.596511 0.618108
#
# Coordination Sequence:
#
# PCOD9488118 Si02
#       6
#     8  16  16  16  16  16
#     4  11  23  35  45  61  90 127 168 214 257 297
#     4   8  13  22  41  71 105 136 160 188 235 293
#     4  10  20  34  51  70  95 126 159 202 255 306
#     4  10  20  34  51  71  96 128 167 210 253 297
#     4   8  16  29  45  69  99 128 159 198 245 293
#     4  10  20  32  48  69  93 127 167 208 250 295
#
# _framework density 18.062414
#
# number of rings (size 3 to 8) (size 9 to 14) (size 15 to 20)
#    0.000    2.636    0.000    4.091    1.273    4.727 
#    0.000    0.000    0.000    0.545    0.000    0.000 
#    0.000   26.182    0.000    0.000    0.000    0.727 
#
# Total GULP energy -245300.036156 kJ/mol
# GULP energy per Si atom -5575.000822 kJ/mol
# Density = 1.802130 g / cm^3
# Si number density = 18.062414 Si / 1000 Ang^3
#
#
#
# Elastic Constant Matrix: (Units=GPa)
#
#
# Indices 1 2 3 4 5 6 
#
# 1 23.2702 11.5311 16.5527 0.0000 0.0000 0.0000
# 2 11.5311 145.1031 60.8290 0.0000 0.0000 0.0000
# 3 16.5527 60.8290 67.5299 0.0000 0.0000 0.0000
# 4 0.0000 0.0000 0.0000 6.3401 0.0000 0.0000
# 5 0.0000 0.0000 0.0000 0.0000 -72.0805 0.0000
# 6 0.0000 0.0000 0.0000 0.0000 0.0000 2.6768
#
#
#
# Elastic Compliance Matrix: (Units=1/GPa)
#
#
# Indices 1 2 3 4 5 6 
#
# 1 0.052393 0.001960 -0.014608 0.000000 0.000000 0.000000
# 2 0.001960 0.011146 -0.010521 0.000000 0.000000 0.000000
# 3 -0.014608 -0.010521 0.027866 0.000000 0.000000 0.000000
# 4 0.000000 0.000000 0.000000 0.157727 0.000000 0.000000
# 5 0.000000 0.000000 0.000000 0.000000 -0.013873 0.000000
# 6 0.000000 0.000000 0.000000 0.000000 0.000000 0.373584
#
#
# Mechanical properties :
#
#
# Convention : Reuss Voigt Hill
#
# Bulk Modulus (GPa) = 22.18876 45.96986 34.07931
# Shear Modulus (GPa) = 7.46042 -2.81337 2.32353
#
# Velocity S-wave (km/s) = 2.03453 -1.24939 1.13542
# Velocity P-wave (km/s) = 4.22259 4.83989 4.54174
#
# Compressibility (1/GPa) = 0.04506787
#
# Stress axis : x y z
#
# Youngs Moduli (GPa) = 19.08644 89.71576 35.88620
#
# Poissons Ratio (x) = -0.17588 0.52424
# Poissons Ratio (y) = -0.03742 0.37755
# Poissons Ratio (z) = 0.27882 0.94388
#
# Static dielectric constant tensor:
#      x y z
#    x 1.623600 0.000000 0.000000 
#    y 0.000000 1.636190 0.000000 
#    z 0.000000 0.000000 1.611970 
# 
# From -- ./inp_files/50307.got.cif
#   From: 2010.05.17/outbox.cif.g08.bks.cpg/sg65_26_cif.got.tgz:50307.got - 2010.06.03 17:01:31.
