data_PCOD9488552
_publ_section_title
;
Structure prediction by ZEFSAII (Michael W. Deem and Ramdas Pophale) SiO2 
 PCOD9488552
Probable space group: C M M M
;
_chemical_formula_sum "Si O2"
_cell_formula_units_Z 88
_cell_length_a 28.001886
_cell_length_b 8.583581
_cell_length_c 21.962417
_cell_angle_alpha 90.000000
_cell_angle_beta 90.000000
_cell_angle_gamma 90.000000
_cell_volume 5278.808729
_symmetry_space_group_name_H-M "C M M M"
_symmetry_group_IT_number 65
_symmetry_cell_setting 'orthorhombic'
loop_
_space_group_symop_operation_xyz
x,y,z
-x,-y,z
x,-y,-z
-x,y,-z
-x,-y,-z
x,y,-z
-x,y,z
x,-y,z
1/2+x,1/2+y,z
1/2-x,1/2-y,z
1/2+x,1/2-y,-z
1/2-x,1/2+y,-z
1/2-x,1/2-y,-z
1/2+x,1/2+y,-z
1/2-x,1/2+y,z
1/2+x,1/2-y,z
loop_
_atom_site_type_symbol
_atom_site_label
_atom_site_fract_x
_atom_site_fract_y
_atom_site_fract_z
Si Si1 0.944485 0.186668 0.500000
Si Si2 0.553366 0.688195 0.256336
Si Si3 0.101110 0.313330 0.623124
Si Si4 0.850907 0.188432 0.808021
Si Si5 0.698127 0.186530 0.687923
Si Si6 0.803732 0.811680 0.067665
O O1 0.917521 0.245730 0.439994
O O2 0.000000 0.240027 0.500000
O O3 0.944685 0.000000 0.500000
O O4 0.500000 0.736653 0.238941
O O5 0.554259 0.500000 0.260344
O O6 0.567530 0.754994 0.322043
O O7 0.595394 0.735805 0.210292
O O8 0.099819 0.500000 0.620537
O O9 0.154989 0.265448 0.642700
O O10 0.816726 0.252293 0.754833
O O11 0.834777 0.240845 0.874795
O O12 0.848440 0.000000 0.806153
O O13 0.750000 0.250000 0.670852
O O14 0.699524 0.000000 0.689543
O O15 0.750000 0.750000 0.075160
O O16 0.802549 0.000000 0.068644
O O17 0.820577 0.763488 0.000000
#
# Coordination Sequence:
#
# PCOD9488552 Si02
#       6
#     8  16  16  16  16  16
#     4  11  23  37  54  75  98 125 156 189 228 275
#     4   9  17  30  48  69  93 121 154 191 232 278
#     4  10  21  35  51  73  98 123 154 191 230 273
#     4   9  17  29  46  67  92 123 156 192 233 275
#     4  10  20  33  50  72  97 124 155 191 230 274
#     4   9  17  28  42  62  89 120 153 189 230 276
#
# _framework density 16.670428999999999
#
# number of rings (size 3 to 8) (size 9 to 14) (size 15 to 20)
#    0.000    2.455    0.000    2.455    0.000    7.636 
#    0.000    0.455    0.000    0.545    0.000    3.818 
#    0.000    0.000    0.000   13.636    0.000   14.182 
#
# Total GULP energy -245374.924376 kJ/mol
# GULP energy per Si atom -5576.702827 kJ/mol
# Density = 1.663249 g / cm^3
# Si number density = 16.670429 Si / 1000 Ang^3
#
#
#
# Elastic Constant Matrix: (Units=GPa)
#
#
# Indices 1 2 3 4 5 6 
#
# 1 124.9681 23.3977 79.3451 0.0000 0.0000 0.0000
# 2 23.3977 14.0886 24.2945 0.0000 0.0000 0.0000
# 3 79.3451 24.2945 158.4335 0.0000 0.0000 0.0000
# 4 0.0000 0.0000 0.0000 12.4576 0.0000 0.0000
# 5 0.0000 0.0000 0.0000 0.0000 15.7338 0.0000
# 6 0.0000 0.0000 0.0000 0.0000 0.0000 22.2918
#
#
#
# Elastic Compliance Matrix: (Units=1/GPa)
#
#
# Indices 1 2 3 4 5 6 
#
# 1 0.013687 -0.014833 -0.004580 0.000000 0.000000 0.000000
# 2 -0.014833 0.112570 -0.009833 0.000000 0.000000 0.000000
# 3 -0.004580 -0.009833 0.010113 0.000000 0.000000 0.000000
# 4 0.000000 0.000000 0.000000 0.080272 0.000000 0.000000
# 5 0.000000 0.000000 0.000000 0.000000 0.063558 0.000000
# 6 0.000000 0.000000 0.000000 0.000000 0.000000 0.044860
#
#
# Mechanical properties :
#
#
# Convention : Reuss Voigt Hill
#
# Bulk Modulus (GPa) = 12.84060 61.28497 37.06279
# Shear Modulus (GPa) = 12.20964 21.46017 16.83491
#
# Velocity S-wave (km/s) = 2.70925 3.59182 3.18129
# Velocity P-wave (km/s) = 4.18402 7.35146 5.98122
#
# Compressibility (1/GPa) = 0.07787797
#
# Stress axis : x y z
#
# Youngs Moduli (GPa) = 73.06035 8.88335 98.87838
#
# Poissons Ratio (x) = 0.13177 0.45288
# Poissons Ratio (y) = 1.08371 0.97228
# Poissons Ratio (z) = 0.33463 0.08735
#
# Static dielectric constant tensor:
#      x y z
#    x 1.565610 0.000000 0.000000 
#    y 0.000000 1.564830 0.000000 
#    z 0.000000 0.000000 1.546710 
# 
# From -- ./inp_files/60223.got.cif
#   From: 2010.05.17/outbox.cif.g08.bks.cpg/sg65_31_cif.got.tgz:60223.got - 2010.06.03 17:01:31.
