data_PCOD9488773
_publ_section_title
;
Structure prediction by ZEFSAII (Michael W. Deem and Ramdas Pophale) SiO2 
 PCOD9488773
Probable space group: C M M M
;
_chemical_formula_sum "Si O2"
_cell_formula_units_Z 112
_cell_length_a 28.754847
_cell_length_b 13.922623
_cell_length_c 14.690197
_cell_angle_alpha 90.000000
_cell_angle_beta 90.000000
_cell_angle_gamma 90.000000
_cell_volume 5881.115983
_symmetry_space_group_name_H-M "C M M M"
_symmetry_group_IT_number 65
_symmetry_cell_setting 'orthorhombic'
loop_
_space_group_symop_operation_xyz
x,y,z
-x,-y,z
x,-y,-z
-x,y,-z
-x,-y,-z
x,y,-z
-x,y,z
x,-y,z
1/2+x,1/2+y,z
1/2-x,1/2-y,z
1/2+x,1/2-y,-z
1/2-x,1/2+y,-z
1/2-x,1/2-y,-z
1/2+x,1/2+y,-z
1/2-x,1/2+y,z
1/2+x,1/2-y,z
loop_
_atom_site_type_symbol
_atom_site_label
_atom_site_fract_x
_atom_site_fract_y
_atom_site_fract_z
Si Si1 0.949145 0.116874 0.896708
Si Si2 0.053461 0.384123 0.250000
Si Si3 0.367078 0.116142 0.607110
Si Si4 0.949145 0.883126 0.396708
Si Si5 0.695963 0.776082 0.750000
Si Si6 0.374608 0.385979 0.750000
Si Si7 0.367078 0.883858 0.892890
O O1 0.906088 0.142630 0.835540
O O2 0.000000 0.146986 0.862215
O O3 0.949926 0.000000 0.897007
O O4 0.944228 0.149482 0.000000
O O5 0.050748 0.500000 0.250000
O O6 0.085151 0.359126 0.338146
O O7 0.085151 0.359126 0.161854
O O8 0.000000 0.349248 0.250000
O O9 0.368563 0.141477 0.500000
O O10 0.325024 0.166189 0.662855
O O11 0.361858 0.000000 0.613495
O O12 0.944228 0.850518 0.500000
O O13 0.906087 0.857370 0.335540
O O14 0.000000 0.853014 0.362214
O O15 0.949926 0.000000 0.397007
O O16 0.750000 0.750000 0.750000
O O17 0.671615 0.672875 0.750000
O O18 0.674976 0.833811 0.837145
O O19 0.367710 0.500000 0.750000
O O20 0.361858 0.000000 0.886505
O O21 0.368563 0.858523 0.000000
#
# Coordination Sequence:
#
# PCOD9488773 Si02
#       7
#    16  16  16  16  16  16  16
#     4   8  14  27  49  75 103 137 173 206 246 304
#     4   8  14  27  52  87 120 147 178 216 263 326
#     4   9  19  38  62  84 109 144 184 227 278 334
#     4   8  14  27  49  75 103 137 173 206 246 304
#     4  11  24  39  57  79 107 140 182 239 291 332
#     4  10  20  33  51  76 106 141 177 213 258 315
#     4   9  19  38  62  84 109 144 184 227 278 334
#
# _framework density 19.044006
#
# number of rings (size 3 to 8) (size 9 to 14) (size 15 to 20)
#    0.000    3.000    0.000    2.571    0.000    5.143 
#    0.000    8.571    0.000    3.429    0.000    0.000 
#    0.000    0.000    0.000    0.000    0.000    0.000 
#
# Total GULP energy -312299.186272 kJ/mol
# GULP energy per Si atom -5576.771183 kJ/mol
# Density = 1.900066 g / cm^3
# Si number density = 19.044006 Si / 1000 Ang^3
#
#
#
# Elastic Constant Matrix: (Units=GPa)
#
#
# Indices 1 2 3 4 5 6 
#
# 1 209.3544 49.6864 92.9682 0.0000 0.0000 0.0000
# 2 49.6864 95.6391 38.7688 0.0000 0.0000 0.0000
# 3 92.9682 38.7688 161.6873 0.0000 0.0000 0.0000
# 4 0.0000 0.0000 0.0000 15.0583 0.0000 0.0000
# 5 0.0000 0.0000 0.0000 0.0000 6.0650 0.0000
# 6 0.0000 0.0000 0.0000 0.0000 0.0000 39.1283
#
#
#
# Elastic Compliance Matrix: (Units=1/GPa)
#
#
# Indices 1 2 3 4 5 6 
#
# 1 0.006793 -0.002155 -0.003389 0.000000 0.000000 0.000000
# 2 -0.002155 0.012266 -0.001702 0.000000 0.000000 0.000000
# 3 -0.003389 -0.001702 0.008542 0.000000 0.000000 0.000000
# 4 0.000000 0.000000 0.000000 0.066408 0.000000 0.000000
# 5 0.000000 0.000000 0.000000 0.000000 0.164880 0.000000
# 6 0.000000 0.000000 0.000000 0.000000 0.000000 0.025557
#
#
# Mechanical properties :
#
#
# Convention : Reuss Voigt Hill
#
# Bulk Modulus (GPa) = 76.29042 92.16975 84.23009
# Shear Modulus (GPa) = 16.48494 31.06748 23.77621
#
# Velocity S-wave (km/s) = 2.94534 4.04338 3.53723
# Velocity P-wave (km/s) = 7.19123 8.38463 7.81075
#
# Compressibility (1/GPa) = 0.01310781
#
# Stress axis : x y z
#
# Youngs Moduli (GPa) = 147.20701 81.52942 117.07487
#
# Poissons Ratio (x) = 0.17572 0.39679
# Poissons Ratio (y) = 0.31728 0.19923
# Poissons Ratio (z) = 0.49891 0.13874
#
# Static dielectric constant tensor:
#      x y z
#    x 1.585970 0.000000 0.000000 
#    y 0.000000 1.719190 0.000000 
#    z 0.000000 0.000000 1.717320 
# 
# From -- ./inp_files/47083.got.cif
#   From: 2010.05.17/outbox.cif.g08.bks.cpg/sg65_24_cif.got.tgz:47083.got - 2010.06.03 17:01:31.
