data_PCOD9488340
_publ_section_title
;
Structure prediction by ZEFSAII (Michael W. Deem and Ramdas Pophale) SiO2 
 PCOD9488340
Probable space group: C M M M
;
_chemical_formula_sum "Si O2"
_cell_formula_units_Z 104
_cell_length_a 18.031893
_cell_length_b 26.562696
_cell_length_c 14.613825
_cell_angle_alpha 90.000000
_cell_angle_beta 90.000000
_cell_angle_gamma 90.000000
_cell_volume 6999.666943
_symmetry_space_group_name_H-M "C M M M"
_symmetry_group_IT_number 65
_symmetry_cell_setting 'orthorhombic'
loop_
_space_group_symop_operation_xyz
x,y,z
-x,-y,z
x,-y,-z
-x,y,-z
-x,-y,-z
x,y,-z
-x,y,z
x,-y,z
1/2+x,1/2+y,z
1/2-x,1/2-y,z
1/2+x,1/2-y,-z
1/2-x,1/2+y,-z
1/2-x,1/2-y,-z
1/2+x,1/2+y,-z
1/2-x,1/2+y,z
1/2+x,1/2-y,z
loop_
_atom_site_type_symbol
_atom_site_label
_atom_site_fract_x
_atom_site_fract_y
_atom_site_fract_z
Si Si1 0.586327 0.655620 0.211799
Si Si2 0.687496 0.056223 0.110906
Si Si3 0.590646 0.609538 0.604316
Si Si4 0.161810 0.753690 0.891977
Si Si5 0.415917 0.500000 0.388775
Si Si6 0.085842 0.351177 0.111506
Si Si7 0.637533 0.557458 0.110208
O O1 0.500000 0.669590 0.210485
O O2 0.611181 0.648025 0.316721
O O3 0.631932 0.698168 0.160817
O O4 0.595443 0.601866 0.161387
O O5 0.635427 0.101552 0.143297
O O6 0.774610 0.063636 0.131053
O O7 0.665615 0.000000 0.142362
O O8 0.682780 0.055867 0.000000
O O9 0.613202 0.620570 0.500000
O O10 0.500000 0.606396 0.603774
O O11 0.618697 0.553795 0.633272
O O12 0.250000 0.750000 0.881669
O O13 0.122490 0.701914 0.861593
O O14 0.145658 0.760294 0.000000
O O15 0.500000 0.500000 0.351836
O O16 0.421150 0.500000 0.500000
O O17 0.000000 0.354695 0.139840
O O18 0.087013 0.352085 0.000000
O O19 0.615868 0.500000 0.135379
O O20 0.628482 0.562079 0.000000
#
# Coordination Sequence:
#
# PCOD9488340 Si02
#       7
#    16  16  16  16   8  16  16
#     4  11  21  29  44  66  85 108 144 186 220 251
#     4   8  14  26  42  57  77 108 140 166 200 251
#     4   8  15  27  42  61  85 111 138 173 217 261
#     4  10  20  33  46  58  79 114 151 181 213 260
#     4   7  10  20  38  56  77 107 137 163 197 244
#     4   9  16  25  39  59  80 100 129 176 222 249
#     4   9  18  30  40  54  83 120 150 173 202 247
#
# _framework density 14.857849999999999
#
# number of rings (size 3 to 8) (size 9 to 14) (size 15 to 20)
#    0.000    3.000    0.000    3.692    1.077    4.923 
#    0.000    2.308    0.000    0.462    0.000    0.000 
#    0.000    0.000    0.000    0.000    0.000    0.769 
#
# Total GULP energy -289554.874784 kJ/mol
# GULP energy per Si atom -5568.362977 kJ/mol
# Density = 1.482403 g / cm^3
# Si number density = 14.857850 Si / 1000 Ang^3
#
#
#
# Elastic Constant Matrix: (Units=GPa)
#
#
# Indices 1 2 3 4 5 6 
#
# 1 22.5965 23.4734 20.4820 0.0000 0.0000 0.0000
# 2 23.4734 86.0421 39.3503 0.0000 0.0000 0.0000
# 3 20.4820 39.3503 47.1996 0.0000 0.0000 0.0000
# 4 0.0000 0.0000 0.0000 14.6163 0.0000 0.0000
# 5 0.0000 0.0000 0.0000 0.0000 3.9463 0.0000
# 6 0.0000 0.0000 0.0000 0.0000 0.0000 20.0239
#
#
#
# Elastic Compliance Matrix: (Units=1/GPa)
#
#
# Indices 1 2 3 4 5 6 
#
# 1 0.077282 -0.009287 -0.025793 0.000000 0.000000 0.000000
# 2 -0.009287 0.019900 -0.012561 0.000000 0.000000 0.000000
# 3 -0.025793 -0.012561 0.042852 0.000000 0.000000 0.000000
# 4 0.000000 0.000000 0.000000 0.068417 0.000000 0.000000
# 5 0.000000 0.000000 0.000000 0.000000 0.253405 0.000000
# 6 0.000000 0.000000 0.000000 0.000000 0.000000 0.049940
#
#
# Mechanical properties :
#
#
# Convention : Reuss Voigt Hill
#
# Bulk Modulus (GPa) = 22.34588 35.82775 29.08682
# Shear Modulus (GPa) = 8.03864 12.55278 10.29571
#
# Velocity S-wave (km/s) = 2.32854 2.90980 2.63524
# Velocity P-wave (km/s) = 4.72249 5.95443 5.37388
#
# Compressibility (1/GPa) = 0.04475097
#
# Stress axis : x y z
#
# Youngs Moduli (GPa) = 12.93965 50.25010 23.33638
#
# Poissons Ratio (x) = 0.46669 0.60192
# Poissons Ratio (y) = 0.12017 0.29313
# Poissons Ratio (z) = 0.33376 0.63118
#
# Static dielectric constant tensor:
#      x y z
#    x 1.485070 0.000000 0.000000 
#    y 0.000000 1.508700 0.000000 
#    z 0.000000 0.000000 1.492810 
# 
# From -- ./inp_files/43248.got.cif
#   From: 2010.05.17/outbox.cif.g08.bks.cpg/sg65_22_cif.got.tgz:43248.got - 2010.06.03 17:01:31.
