data_PCOD9488863
_publ_section_title
;
Structure prediction by ZEFSAII (Michael W. Deem and Ramdas Pophale) SiO2 
 PCOD9488863
Probable space group: C M M M
;
_chemical_formula_sum "Si O2"
_cell_formula_units_Z 80
_cell_length_a 15.167709
_cell_length_b 30.486852
_cell_length_c 7.737220
_cell_angle_alpha 90.000000
_cell_angle_beta 90.000000
_cell_angle_gamma 90.000000
_cell_volume 3577.811998
_symmetry_space_group_name_H-M "C M M M"
_symmetry_group_IT_number 65
_symmetry_cell_setting 'orthorhombic'
loop_
_space_group_symop_operation_xyz
x,y,z
-x,-y,z
x,-y,-z
-x,y,-z
-x,-y,-z
x,y,-z
-x,y,z
x,-y,z
1/2+x,1/2+y,z
1/2-x,1/2-y,z
1/2+x,1/2-y,-z
1/2-x,1/2+y,-z
1/2-x,1/2-y,-z
1/2+x,1/2+y,-z
1/2-x,1/2+y,z
1/2+x,1/2-y,z
loop_
_atom_site_type_symbol
_atom_site_label
_atom_site_fract_x
_atom_site_fract_y
_atom_site_fract_z
Si Si1 0.594482 0.947325 0.300281
Si Si2 0.901230 0.678201 0.796928
Si Si3 0.600376 0.723075 0.293944
Si Si4 0.278766 0.359203 0.791224
Si Si5 0.790126 0.048886 0.197597
O O1 0.604474 0.933183 0.500000
O O2 0.500000 0.930121 0.232169
O O3 0.684588 0.941947 0.197685
O O4 0.586668 0.000000 0.305356
O O5 0.875702 0.729449 0.781435
O O6 0.820330 0.650307 0.723206
O O7 0.000000 0.673282 0.721517
O O8 0.906803 0.667744 0.000000
O O9 0.601470 0.728231 0.500000
O O10 0.500000 0.713534 0.237521
O O11 0.663354 0.683299 0.246973
O O12 0.321093 0.404877 0.723623
O O13 0.274387 0.363072 0.000000
O O14 0.804076 0.000000 0.275711
O O15 0.821590 0.046206 0.000000
#
# Coordination Sequence:
#
# PCOD9488863 Si02
#       5
#    16  16  16  16  16
#     4   8  14  25  40  58  83 118 160 202 242 286
#     4   9  18  33  52  75 106 140 169 199 240 295
#     4  10  21  36  54  77 103 129 162 208 259 308
#     4  10  20  33  52  77 103 135 173 208 247 299
#     4   9  18  31  46  67  96 129 167 211 253 291
#
# _framework density 22.360033999999999
#
# number of rings (size 3 to 8) (size 9 to 14) (size 15 to 20)
#    0.000    2.800    0.000    1.800    0.000    6.400 
#    0.000    4.000    0.000    3.000    0.000    4.200 
#    0.000    0.000    0.000    0.000    0.000    0.000 
#
# Total GULP energy -222946.899804 kJ/mol
# GULP energy per Si atom -5573.672495 kJ/mol
# Density = 2.230914 g / cm^3
# Si number density = 22.360034 Si / 1000 Ang^3
#
#
#
# Elastic Constant Matrix: (Units=GPa)
#
#
# Indices 1 2 3 4 5 6 
#
# 1 30.4150 43.3549 0.8868 0.0000 0.0000 0.0000
# 2 43.3549 174.0411 -1.1052 0.0000 0.0000 0.0000
# 3 0.8868 -1.1052 43.7096 0.0000 0.0000 0.0000
# 4 0.0000 0.0000 0.0000 -0.9318 0.0000 0.0000
# 5 0.0000 0.0000 0.0000 0.0000 19.3815 0.0000
# 6 0.0000 0.0000 0.0000 0.0000 0.0000 -1.4384
#
#
#
# Elastic Compliance Matrix: (Units=1/GPa)
#
#
# Indices 1 2 3 4 5 6 
#
# 1 0.051062 -0.012729 -0.001358 0.000000 0.000000 0.000000
# 2 -0.012729 0.008920 0.000484 0.000000 0.000000 0.000000
# 3 -0.001358 0.000484 0.022918 0.000000 0.000000 0.000000
# 4 0.000000 0.000000 0.000000 -1.073152 0.000000 0.000000
# 5 0.000000 0.000000 0.000000 0.000000 0.051596 0.000000
# 6 0.000000 0.000000 0.000000 0.000000 0.000000 -0.695236
#
#
# Mechanical properties :
#
#
# Convention : Reuss Voigt Hill
#
# Bulk Modulus (GPa) = 17.95510 37.15985 27.55747
# Shear Modulus (GPa) = -3.14837 17.07087 6.96125
#
# Velocity S-wave (km/s) = -1.18789 2.76607 1.76636
# Velocity P-wave (km/s) = 2.48314 5.18232 4.06340
#
# Compressibility (1/GPa) = 0.05569449
#
# Stress axis : x y z
#
# Youngs Moduli (GPa) = 19.58406 112.11247 43.63371
#
# Poissons Ratio (x) = 1.42703 0.05925
# Poissons Ratio (y) = 0.24928 -0.02111
# Poissons Ratio (z) = 0.02659 -0.05424
#
# Static dielectric constant tensor:
#      x y z
#    x 1.848930 0.000000 0.000000 
#    y 0.000000 1.894860 0.000000 
#    z 0.000000 0.000000 1.809310 
# 
# From -- ./inp_files/9880.got.cif
#   From: 2010.05.17/outbox.cif.g08.bks.cpg/sg65_5_cif.got.tgz:9880.got - 2010.06.03 17:01:31.
