data_PCOD9488799
_publ_section_title
;
Structure prediction by ZEFSAII (Michael W. Deem and Ramdas Pophale) SiO2 
 PCOD9488799
Probable space group: C M M M
;
_chemical_formula_sum "Si O2"
_cell_formula_units_Z 104
_cell_length_a 29.401219
_cell_length_b 8.902113
_cell_length_c 23.360546
_cell_angle_alpha 90.000000
_cell_angle_beta 90.000000
_cell_angle_gamma 90.000000
_cell_volume 6114.225176
_symmetry_space_group_name_H-M "C M M M"
_symmetry_group_IT_number 65
_symmetry_cell_setting 'orthorhombic'
loop_
_space_group_symop_operation_xyz
x,y,z
-x,-y,z
x,-y,-z
-x,y,-z
-x,-y,-z
x,y,-z
-x,y,z
x,-y,z
1/2+x,1/2+y,z
1/2-x,1/2-y,z
1/2+x,1/2-y,-z
1/2-x,1/2+y,-z
1/2-x,1/2-y,-z
1/2+x,1/2+y,-z
1/2-x,1/2+y,z
1/2+x,1/2-y,z
loop_
_atom_site_type_symbol
_atom_site_label
_atom_site_fract_x
_atom_site_fract_y
_atom_site_fract_z
Si Si1 0.201154 0.178684 0.931416
Si Si2 0.053949 0.820923 0.788258
Si Si3 0.054312 0.179636 0.000000
Si Si4 0.892310 0.320134 0.107088
Si Si5 0.795875 0.328675 0.430593
Si Si6 0.554468 0.172951 0.332277
Si Si7 0.108737 0.179291 0.433620
O O1 0.250000 0.250000 0.916151
O O2 0.158661 0.256274 0.900432
O O3 0.201313 0.000000 0.920879
O O4 0.194880 0.201518 0.000000
O O5 0.084147 0.736244 0.834831
O O6 0.066389 0.766208 0.724572
O O7 0.000000 0.787500 0.797188
O O8 0.059698 0.000000 0.793677
O O9 0.077695 0.252005 0.055393
O O10 0.000000 0.204424 0.000000
O O11 0.062407 0.000000 0.000000
O O12 0.891889 0.500000 0.103901
O O13 0.792895 0.333881 0.500000
O O14 0.799989 0.500000 0.410341
O O15 0.750000 0.250000 0.409535
O O16 0.840566 0.233215 0.417855
O O17 0.500000 0.175450 0.336729
O O18 0.575245 0.244005 0.389098
O O19 0.569217 0.000000 0.326008
O O20 0.100276 0.223659 0.500000
O O21 0.105537 0.000000 0.430245
#
# Coordination Sequence:
#
# PCOD9488799 Si02
#       7
#    16  16   8  16  16  16  16
#     4  10  20  35  56  80 111 146 184 227 272 322
#     4  10  21  38  59  80 105 141 183 224 268 322
#     4  11  23  37  52  75 110 147 181 221 271 321
#     4  12  23  35  55  82 112 144 181 223 271 321
#     4   9  16  27  45  70 101 135 170 209 255 308
#     4  10  21  37  56  78 105 138 179 225 271 321
#     4  10  20  33  51  77 108 141 178 220 268 322
#
# _framework density 17.009512999999998
#
# number of rings (size 3 to 8) (size 9 to 14) (size 15 to 20)
#    0.000    1.769    0.769    4.385    0.000    8.000 
#    0.000    1.538    0.000    0.923    0.000    6.462 
#    0.000    0.000    0.000    0.000    0.000    0.000 
#
# Total GULP energy -290344.219914 kJ/mol
# GULP energy per Si atom -5583.542691 kJ/mol
# Density = 1.697080 g / cm^3
# Si number density = 17.009513 Si / 1000 Ang^3
#
#
#
# Elastic Constant Matrix: (Units=GPa)
#
#
# Indices 1 2 3 4 5 6 
#
# 1 93.3460 65.5347 59.8230 0.0000 0.0000 0.0000
# 2 65.5347 117.0994 50.3592 0.0000 0.0000 0.0000
# 3 59.8230 50.3592 89.8759 0.0000 0.0000 0.0000
# 4 0.0000 0.0000 0.0000 28.0986 0.0000 0.0000
# 5 0.0000 0.0000 0.0000 0.0000 -6.8426 0.0000
# 6 0.0000 0.0000 0.0000 0.0000 0.0000 32.9634
#
#
#
# Elastic Compliance Matrix: (Units=1/GPa)
#
#
# Indices 1 2 3 4 5 6 
#
# 1 0.023812 -0.008577 -0.011044 0.000000 0.000000 0.000000
# 2 -0.008577 0.014340 -0.002326 0.000000 0.000000 0.000000
# 3 -0.011044 -0.002326 0.019781 0.000000 0.000000 0.000000
# 4 0.000000 0.000000 0.000000 0.035589 0.000000 0.000000
# 5 0.000000 0.000000 0.000000 0.000000 -0.146143 0.000000
# 6 0.000000 0.000000 0.000000 0.000000 0.000000 0.030337
#
#
# Mechanical properties :
#
#
# Convention : Reuss Voigt Hill
#
# Bulk Modulus (GPa) = 71.22929 72.41724 71.82326
# Shear Modulus (GPa) = 190.19131 19.15084 104.67108
#
# Velocity S-wave (km/s) = 10.58572 3.35907 7.85305
# Velocity P-wave (km/s) = 13.83391 7.59680 11.15994
#
# Compressibility (1/GPa) = 0.01403917
#
# Stress axis : x y z
#
# Youngs Moduli (GPa) = 41.99532 69.73398 50.55382
#
# Poissons Ratio (x) = 0.59811 0.55832
# Poissons Ratio (y) = 0.36019 0.11759
# Poissons Ratio (z) = 0.46380 0.16221
#
# Static dielectric constant tensor:
#      x y z
#    x 1.562840 0.000000 0.000000 
#    y 0.000000 1.570320 0.000000 
#    z 0.000000 0.000000 1.549570 
# 
# From -- ./inp_files/66423.got.cif
#   From: 2010.05.17/outbox.cif.g08.bks.cpg/sg65_34_cif.got.tgz:66423.got - 2010.06.03 17:01:31.
