data_PCOD9488756
_publ_section_title
;
Structure prediction by ZEFSAII (Michael W. Deem and Ramdas Pophale) SiO2 
 PCOD9488756
Probable space group: C M M M
;
_chemical_formula_sum "Si O2"
_cell_formula_units_Z 72
_cell_length_a 24.817589
_cell_length_b 14.922938
_cell_length_c 8.299206
_cell_angle_alpha 90.000000
_cell_angle_beta 90.000000
_cell_angle_gamma 90.000000
_cell_volume 3073.622079
_symmetry_space_group_name_H-M "C M M M"
_symmetry_group_IT_number 65
_symmetry_cell_setting 'orthorhombic'
loop_
_space_group_symop_operation_xyz
x,y,z
-x,-y,z
x,-y,-z
-x,y,-z
-x,-y,-z
x,y,-z
-x,y,z
x,-y,z
1/2+x,1/2+y,z
1/2-x,1/2-y,z
1/2+x,1/2-y,-z
1/2-x,1/2+y,-z
1/2-x,1/2-y,-z
1/2+x,1/2+y,-z
1/2-x,1/2+y,z
1/2+x,1/2-y,z
loop_
_atom_site_type_symbol
_atom_site_label
_atom_site_fract_x
_atom_site_fract_y
_atom_site_fract_z
Si Si1 0.400935 0.101233 0.828453
Si Si2 0.675492 0.660478 0.311270
Si Si3 0.063088 0.602633 0.500000
Si Si4 0.940884 0.108227 0.307825
Si Si5 0.708736 0.869416 0.690437
O O1 0.420111 0.148299 0.665484
O O2 0.337373 0.091625 0.802253
O O3 0.424841 0.000000 0.828340
O O4 0.413621 0.143306 0.000000
O O5 0.671900 0.634350 0.500000
O O6 0.616336 0.643516 0.239975
O O7 0.692915 0.764153 0.305891
O O8 0.730432 0.613471 0.251641
O O9 0.086251 0.500000 0.500000
O O10 0.000000 0.595445 0.500000
O O11 0.941574 0.129651 0.500000
O O12 0.000000 0.137678 0.243402
O O13 0.938983 0.000000 0.294131
O O14 0.703925 0.895332 0.500000
#
# Coordination Sequence:
#
# PCOD9488756 Si02
#       5
#    16  16   8  16  16
#     4  10  20  33  51  76 104 133 169 216 263 308
#     4   8  15  26  42  64  93 136 174 210 256 311
#     4   9  18  34  54  73  96 130 168 205 254 310
#     4   8  13  22  37  60  92 126 163 210 259 308
#     4   9  16  29  47  67  99 136 171 212 255 307
#
# _framework density 23.425132000000001
#
# number of rings (size 3 to 8) (size 9 to 14) (size 15 to 20)
#    0.000    3.222    1.111    2.000    0.000    1.333 
#    0.000    7.778    0.000    0.000    0.000    0.000 
#    0.000    2.667    0.000   12.222    0.000   10.667 
#
# Total GULP energy -200475.346756 kJ/mol
# GULP energy per Si atom -5568.759632 kJ/mol
# Density = 2.337182 g / cm^3
# Si number density = 23.425132 Si / 1000 Ang^3
#
#
#
# Elastic Constant Matrix: (Units=GPa)
#
#
# Indices 1 2 3 4 5 6 
#
# 1 201.4334 18.4680 30.5665 0.0000 0.0000 0.0000
# 2 18.4680 29.4785 6.3181 0.0000 0.0000 0.0000
# 3 30.5665 6.3181 115.8418 0.0000 0.0000 0.0000
# 4 0.0000 0.0000 0.0000 0.3986 0.0000 0.0000
# 5 0.0000 0.0000 0.0000 0.0000 -19.6196 0.0000
# 6 0.0000 0.0000 0.0000 0.0000 0.0000 26.6504
#
#
#
# Elastic Compliance Matrix: (Units=1/GPa)
#
#
# Indices 1 2 3 4 5 6 
#
# 1 0.005444 -0.003140 -0.001265 0.000000 0.000000 0.000000
# 2 -0.003140 0.036135 -0.001142 0.000000 0.000000 0.000000
# 3 -0.001265 -0.001142 0.009029 0.000000 0.000000 0.000000
# 4 0.000000 0.000000 0.000000 2.508503 0.000000 0.000000
# 5 0.000000 0.000000 0.000000 0.000000 -0.050969 0.000000
# 6 0.000000 0.000000 0.000000 0.000000 0.000000 0.037523
#
#
# Mechanical properties :
#
#
# Convention : Reuss Voigt Hill
#
# Bulk Modulus (GPa) = 25.30809 50.82878 38.06843
# Shear Modulus (GPa) = 1.94558 20.91264 11.42911
#
# Velocity S-wave (km/s) = 0.91233 2.99112 2.21124
# Velocity P-wave (km/s) = 3.45501 5.80298 4.77555
#
# Compressibility (1/GPa) = 0.03951306
#
# Stress axis : x y z
#
# Youngs Moduli (GPa) = 183.67938 27.67421 110.75863
#
# Poissons Ratio (x) = 0.08689 0.14014
# Poissons Ratio (y) = 0.57668 0.12653
# Poissons Ratio (z) = 0.23241 0.03162
#
# Static dielectric constant tensor:
#      x y z
#    x 1.943240 0.000000 0.000000 
#    y 0.000000 1.794070 0.000000 
#    z 0.000000 0.000000 1.911530 
# 
# From -- ./inp_files/13778.got.cif
#   From: 2010.05.17/outbox.cif.g08.bks.cpg/sg65_7_cif.got.tgz:13778.got - 2010.06.03 17:01:31.
