data_PCOD9488342
_publ_section_title
;
Structure prediction by ZEFSAII (Michael W. Deem and Ramdas Pophale) SiO2 
 PCOD9488342
Probable space group: C M M M
;
_chemical_formula_sum "Si O2"
_cell_formula_units_Z 96
_cell_length_a 15.126233
_cell_length_b 30.739071
_cell_length_c 10.769041
_cell_angle_alpha 90.000000
_cell_angle_beta 90.000000
_cell_angle_gamma 90.000000
_cell_volume 5007.241688
_symmetry_space_group_name_H-M "C M M M"
_symmetry_group_IT_number 65
_symmetry_cell_setting 'orthorhombic'
loop_
_space_group_symop_operation_xyz
x,y,z
-x,-y,z
x,-y,-z
-x,y,-z
-x,-y,-z
x,y,-z
-x,y,z
x,-y,z
1/2+x,1/2+y,z
1/2-x,1/2-y,z
1/2+x,1/2-y,-z
1/2-x,1/2+y,-z
1/2-x,1/2-y,-z
1/2+x,1/2+y,-z
1/2-x,1/2+y,z
1/2+x,1/2-y,z
loop_
_atom_site_type_symbol
_atom_site_label
_atom_site_fract_x
_atom_site_fract_y
_atom_site_fract_z
Si Si1 0.276489 0.451237 0.651799
Si Si2 0.598740 0.092530 0.351247
Si Si3 0.594365 0.692992 0.000000
Si Si4 0.893233 0.312560 0.246965
Si Si5 0.781732 0.698572 0.000000
Si Si6 0.898214 0.128028 0.649164
Si Si7 0.399995 0.720773 0.279389
O O1 0.277673 0.450762 0.500000
O O2 0.300562 0.500000 0.690738
O O3 0.177536 0.438388 0.692126
O O4 0.342262 0.413091 0.693413
O O5 0.595910 0.089062 0.500000
O O6 0.500000 0.082491 0.303333
O O7 0.620150 0.142481 0.317920
O O8 0.690137 0.671347 0.000000
O O9 0.594138 0.719786 0.871150
O O10 0.500000 0.668497 0.000000
O O11 0.838995 0.312361 0.119905
O O12 0.863970 0.267833 0.315165
O O13 0.000000 0.308412 0.226355
O O14 0.750000 0.750000 0.000000
O O15 0.900562 0.126536 0.500000
O O16 0.857469 0.174907 0.685191
O O17 0.000000 0.126020 0.694940
O O18 0.500000 0.718237 0.330914
#
# Coordination Sequence:
#
# PCOD9488342 Si02
#       7
#    16  16   8  16   8  16  16
#     4   9  18  32  50  71  96 125 159 204 248 290
#     4   9  19  34  51  73 101 132 164 200 245 297
#     4  10  20  33  46  67  96 129 173 212 235 275
#     4  10  20  33  49  73 104 132 167 208 242 285
#     4  12  21  29  50  71  93 135 174 207 249 280
#     4   9  18  31  48  72 100 129 160 195 241 298
#     4   9  17  30  47  67  98 133 164 199 235 277
#
# _framework density 19.172232999999999
#
# number of rings (size 3 to 8) (size 9 to 14) (size 15 to 20)
#    0.000    2.500    1.667    0.250    2.333    1.333 
#    0.000    6.667    0.000    3.500    0.000    2.333 
#    0.000    6.000    0.000    0.000    0.000    0.000 
#
# Total GULP energy -267276.731029 kJ/mol
# GULP energy per Si atom -5568.265230 kJ/mol
# Density = 1.912860 g / cm^3
# Si number density = 19.172233 Si / 1000 Ang^3
#
#
#
# Elastic Constant Matrix: (Units=GPa)
#
#
# Indices 1 2 3 4 5 6 
#
# 1 71.6771 28.3763 2.3355 0.0000 0.0000 0.0000
# 2 28.3763 88.8742 -4.8667 0.0000 0.0000 0.0000
# 3 2.3355 -4.8667 5.6077 0.0000 0.0000 0.0000
# 4 0.0000 0.0000 0.0000 -14.1356 0.0000 0.0000
# 5 0.0000 0.0000 0.0000 0.0000 13.5985 0.0000
# 6 0.0000 0.0000 0.0000 0.0000 0.0000 28.7187
#
#
#
# Elastic Compliance Matrix: (Units=1/GPa)
#
#
# Indices 1 2 3 4 5 6 
#
# 1 0.016727 -0.006008 -0.012180 0.000000 0.000000 0.000000
# 2 -0.006008 0.013971 0.014627 0.000000 0.000000 0.000000
# 3 -0.012180 0.014627 0.196094 0.000000 0.000000 0.000000
# 4 0.000000 0.000000 0.000000 -0.070743 0.000000 0.000000
# 5 0.000000 0.000000 0.000000 0.000000 0.073538 0.000000
# 6 0.000000 0.000000 0.000000 0.000000 0.000000 0.034821
#
#
# Mechanical properties :
#
#
# Convention : Reuss Voigt Hill
#
# Bulk Modulus (GPa) = 4.55229 24.20545 14.37887
# Shear Modulus (GPa) = 14.50320 14.99056 14.74688
#
# Velocity S-wave (km/s) = 2.75338 2.79926 2.77642
# Velocity P-wave (km/s) = 3.53380 4.80630 4.21831
#
# Compressibility (1/GPa) = 0.21966982
#
# Stress axis : x y z
#
# Youngs Moduli (GPa) = 59.78466 71.57696 5.09960
#
# Poissons Ratio (x) = 0.43000 0.06211
# Poissons Ratio (y) = 0.35916 -0.07459
# Poissons Ratio (z) = 0.72819 -1.04696
#
# Static dielectric constant tensor:
#      x y z
#    x 1.754890 0.000000 0.000000 
#    y 0.000000 1.687030 0.000000 
#    z 0.000000 0.000000 1.657020 
# 
# From -- ./inp_files/40667.got.cif
#   From: 2010.05.17/outbox.cif.g08.bks.cpg/sg65_21_cif.got.tgz:40667.got - 2010.06.03 17:01:31.
