data_PCOD9488586
_publ_section_title
;
Structure prediction by ZEFSAII (Michael W. Deem and Ramdas Pophale) SiO2 
 PCOD9488586
Probable space group: C M M M
;
_chemical_formula_sum "Si O2"
_cell_formula_units_Z 88
_cell_length_a 9.096181
_cell_length_b 19.211796
_cell_length_c 29.107462
_cell_angle_alpha 90.000000
_cell_angle_beta 90.000000
_cell_angle_gamma 90.000000
_cell_volume 5086.644650
_symmetry_space_group_name_H-M "C M M M"
_symmetry_group_IT_number 65
_symmetry_cell_setting 'orthorhombic'
loop_
_space_group_symop_operation_xyz
x,y,z
-x,-y,z
x,-y,-z
-x,y,-z
-x,-y,-z
x,y,-z
-x,y,z
x,-y,z
1/2+x,1/2+y,z
1/2-x,1/2-y,z
1/2+x,1/2-y,-z
1/2-x,1/2+y,-z
1/2-x,1/2-y,-z
1/2+x,1/2+y,-z
1/2-x,1/2+y,z
1/2+x,1/2-y,z
loop_
_atom_site_type_symbol
_atom_site_label
_atom_site_fract_x
_atom_site_fract_y
_atom_site_fract_z
Si Si1 0.178938 0.920114 0.232576
Si Si2 0.175126 0.324978 0.052470
Si Si3 0.168871 0.584603 0.500000
Si Si4 0.176426 0.081349 0.594113
Si Si5 0.822120 0.825470 0.682040
Si Si6 0.826771 0.916651 0.128913
O O1 0.225057 0.867948 0.272508
O O2 0.222615 0.898958 0.180945
O O3 0.000000 0.921482 0.232605
O O4 0.226407 0.000000 0.241263
O O5 0.250000 0.250000 0.059113
O O6 0.237245 0.377489 0.090035
O O7 0.000000 0.318192 0.056664
O O8 0.208615 0.347792 0.000000
O O9 0.172414 0.500000 0.500000
O O10 0.249388 0.605717 0.453167
O O11 0.000000 0.607148 0.500000
O O12 0.217113 0.128755 0.637348
O O13 0.000000 0.083720 0.588788
O O14 0.215936 0.000000 0.602348
O O15 0.750000 0.750000 0.680409
O O16 0.000000 0.819310 0.682990
O O17 0.000000 0.899252 0.124618
O O18 0.813450 0.000000 0.124514
#
# Coordination Sequence:
#
# PCOD9488586 Si02
#       6
#    16  16   8  16  16  16
#     4   8  15  31  54  76  98 128 167 205 241 287
#     4  10  21  36  53  73 100 135 173 212 253 299
#     4   9  17  29  48  75 102 125 153 197 250 293
#     4   9  17  31  52  74  95 125 166 204 236 280
#     4  10  20  33  50  73 101 131 163 201 244 289
#     4   9  18  33  54  79 105 133 166 206 252 302
#
# _framework density 17.300204999999998
#
# number of rings (size 3 to 8) (size 9 to 14) (size 15 to 20)
#    0.000    2.818    0.000    2.455    0.000    6.545 
#    0.000    5.000    0.000    2.727    0.000    0.000 
#    0.000    0.000    0.000    0.000    0.000    0.000 
#
# Total GULP energy -245312.920522 kJ/mol
# GULP energy per Si atom -5575.293648 kJ/mol
# Density = 1.726083 g / cm^3
# Si number density = 17.300205 Si / 1000 Ang^3
#
#
#
# Elastic Constant Matrix: (Units=GPa)
#
#
# Indices 1 2 3 4 5 6 
#
# 1 36.1335 39.2864 63.7027 0.0000 0.0000 0.0000
# 2 39.2864 83.1368 97.0396 0.0000 0.0000 0.0000
# 3 63.7027 97.0396 189.1802 0.0000 0.0000 0.0000
# 4 0.0000 0.0000 0.0000 -12.6798 0.0000 0.0000
# 5 0.0000 0.0000 0.0000 0.0000 18.1305 0.0000
# 6 0.0000 0.0000 0.0000 0.0000 0.0000 30.2918
#
#
#
# Elastic Compliance Matrix: (Units=1/GPa)
#
#
# Indices 1 2 3 4 5 6 
#
# 1 0.074777 -0.014817 -0.017579 0.000000 0.000000 0.000000
# 2 -0.014817 0.032911 -0.011893 0.000000 0.000000 0.000000
# 3 -0.017579 -0.011893 0.017306 0.000000 0.000000 0.000000
# 4 0.000000 0.000000 0.000000 -0.078866 0.000000 0.000000
# 5 0.000000 0.000000 0.000000 0.000000 0.055156 0.000000
# 6 0.000000 0.000000 0.000000 0.000000 0.000000 0.033012
#
#
# Mechanical properties :
#
#
# Convention : Reuss Voigt Hill
#
# Bulk Modulus (GPa) = 27.46002 78.72312 53.09157
# Shear Modulus (GPa) = 21.27543 14.37663 17.82603
#
# Velocity S-wave (km/s) = 3.51063 2.88585 3.21346
# Velocity P-wave (km/s) = 5.68681 7.53041 6.67259
#
# Compressibility (1/GPa) = 0.03641658
#
# Stress axis : x y z
#
# Youngs Moduli (GPa) = 13.37310 30.38458 57.78423
#
# Poissons Ratio (x) = 0.45020 1.01581
# Poissons Ratio (y) = 0.19815 0.68720
# Poissons Ratio (z) = 0.23509 0.36135
#
# Static dielectric constant tensor:
#      x y z
#    x 1.579470 0.000000 0.000000 
#    y 0.000000 1.560680 0.000000 
#    z 0.000000 0.000000 1.585540 
# 
# From -- ./inp_files/67536.got.cif
#   From: 2010.05.17/outbox.cif.g08.bks.cpg/sg65_34_cif.got.tgz:67536.got - 2010.06.03 17:01:31.
