data_PCOD9488747
_publ_section_title
;
Structure prediction by ZEFSAII (Michael W. Deem and Ramdas Pophale) SiO2 
 PCOD9488747
Probable space group: C M M M
;
_chemical_formula_sum "Si O2"
_cell_formula_units_Z 72
_cell_length_a 8.755887
_cell_length_b 18.760849
_cell_length_c 24.433259
_cell_angle_alpha 90.000000
_cell_angle_beta 90.000000
_cell_angle_gamma 90.000000
_cell_volume 4013.599508
_symmetry_space_group_name_H-M "C M M M"
_symmetry_group_IT_number 65
_symmetry_cell_setting 'orthorhombic'
loop_
_space_group_symop_operation_xyz
x,y,z
-x,-y,z
x,-y,-z
-x,y,-z
-x,-y,-z
x,y,-z
-x,y,z
x,-y,z
1/2+x,1/2+y,z
1/2-x,1/2-y,z
1/2+x,1/2-y,-z
1/2-x,1/2+y,-z
1/2-x,1/2-y,-z
1/2+x,1/2+y,-z
1/2-x,1/2+y,z
1/2+x,1/2-y,z
loop_
_atom_site_type_symbol
_atom_site_label
_atom_site_fract_x
_atom_site_fract_y
_atom_site_fract_z
Si Si1 0.320302 0.086384 0.439937
Si Si2 0.818472 0.084134 0.674329
Si Si3 0.683068 0.828817 0.774838
Si Si4 0.177048 0.586793 0.000000
Si Si5 0.686727 0.082601 0.880797
O O1 0.266494 0.111644 0.500000
O O2 0.500000 0.103325 0.434751
O O3 0.232278 0.110161 0.385917
O O4 0.308348 0.000000 0.440832
O O5 0.737275 0.127143 0.722199
O O6 0.000000 0.090679 0.679720
O O7 0.778241 0.000000 0.678703
O O8 0.500000 0.825941 0.775306
O O9 0.750000 0.750000 0.773119
O O10 0.734839 0.869286 0.830123
O O11 0.243059 0.607433 0.059110
O O12 0.176150 0.500000 0.000000
O O13 0.000000 0.610127 0.000000
O O14 0.500000 0.083106 0.882778
O O15 0.731594 0.000000 0.872365
#
# Coordination Sequence:
#
# PCOD9488747 Si02
#       5
#    16  16  16   8  16
#     4   8  14  26  46  73 103 132 162 198 241 289
#     4  10  20  33  51  76 103 131 166 207 250 296
#     4  11  22  35  50  69  98 134 172 211 252 298
#     4   7  10  20  41  70  99 121 150 197 246 291
#     4   8  14  26  47  73  97 124 160 202 247 295
#
# _framework density 17.939008999999999
#
# number of rings (size 3 to 8) (size 9 to 14) (size 15 to 20)
#    0.000    3.000    0.000    4.000    0.000    2.667 
#    0.000    2.778    0.000    0.667    0.000    2.333 
#    0.000   12.444    0.000    0.000    0.000    0.000 
#
# Total GULP energy -200523.685483 kJ/mol
# GULP energy per Si atom -5570.102375 kJ/mol
# Density = 1.789818 g / cm^3
# Si number density = 17.939009 Si / 1000 Ang^3
#
#
#
# Elastic Constant Matrix: (Units=GPa)
#
#
# Indices 1 2 3 4 5 6 
#
# 1 26.0763 30.5352 51.6951 0.0000 0.0000 0.0000
# 2 30.5352 59.9647 71.3889 0.0000 0.0000 0.0000
# 3 51.6951 71.3889 202.0413 0.0000 0.0000 0.0000
# 4 0.0000 0.0000 0.0000 -5.4972 0.0000 0.0000
# 5 0.0000 0.0000 0.0000 0.0000 5.4294 0.0000
# 6 0.0000 0.0000 0.0000 0.0000 0.0000 12.3584
#
#
#
# Elastic Compliance Matrix: (Units=1/GPa)
#
#
# Indices 1 2 3 4 5 6 
#
# 1 0.117424 -0.041471 -0.015391 0.000000 0.000000 0.000000
# 2 -0.041471 0.043431 -0.004735 0.000000 0.000000 0.000000
# 3 -0.015391 -0.004735 0.010561 0.000000 0.000000 0.000000
# 4 0.000000 0.000000 0.000000 -0.181910 0.000000 0.000000
# 5 0.000000 0.000000 0.000000 0.000000 0.184182 0.000000
# 6 0.000000 0.000000 0.000000 0.000000 0.000000 0.080917
#
#
# Mechanical properties :
#
#
# Convention : Reuss Voigt Hill
#
# Bulk Modulus (GPa) = 20.73775 66.14676 43.44226
# Shear Modulus (GPa) = 12.69445 11.42232 12.05838
#
# Velocity S-wave (km/s) = 2.66305 2.52609 2.59547
# Velocity P-wave (km/s) = 4.58705 6.74250 5.76638
#
# Compressibility (1/GPa) = 0.04822125
#
# Stress axis : x y z
#
# Youngs Moduli (GPa) = 8.51617 23.02477 94.69134
#
# Poissons Ratio (x) = 0.95486 1.45742
# Poissons Ratio (y) = 0.35317 0.44837
# Poissons Ratio (z) = 0.13107 0.10902
#
# Static dielectric constant tensor:
#      x y z
#    x 1.597020 0.000000 0.000000 
#    y 0.000000 1.583870 0.000000 
#    z 0.000000 0.000000 1.649960 
# 
# From -- ./inp_files/59538.got.cif
#   From: 2010.05.17/outbox.cif.g08.bks.cpg/sg65_30_cif.got.tgz:59538.got - 2010.06.03 17:01:31.
