data_PCOD9488529
_publ_section_title
;
Structure prediction by ZEFSAII (Michael W. Deem and Ramdas Pophale) SiO2 
 PCOD9488529
Probable space group: C M M M
;
_chemical_formula_sum "Si O2"
_cell_formula_units_Z 72
_cell_length_a 18.819585
_cell_length_b 7.662125
_cell_length_c 24.312218
_cell_angle_alpha 90.000000
_cell_angle_beta 90.000000
_cell_angle_gamma 90.000000
_cell_volume 3505.773520
_symmetry_space_group_name_H-M "C M M M"
_symmetry_group_IT_number 65
_symmetry_cell_setting 'orthorhombic'
loop_
_space_group_symop_operation_xyz
x,y,z
-x,-y,z
x,-y,-z
-x,y,-z
-x,-y,-z
x,y,-z
-x,y,z
x,-y,z
1/2+x,1/2+y,z
1/2-x,1/2-y,z
1/2+x,1/2-y,-z
1/2-x,1/2+y,-z
1/2-x,1/2-y,-z
1/2+x,1/2+y,-z
1/2-x,1/2+y,z
1/2+x,1/2-y,z
loop_
_atom_site_type_symbol
_atom_site_label
_atom_site_fract_x
_atom_site_fract_y
_atom_site_fract_z
Si Si1 0.418106 0.213876 0.167536
Si Si2 0.419047 0.292721 0.500000
Si Si3 0.918624 0.291663 0.619531
Si Si4 0.166968 0.290178 0.275054
Si Si5 0.332564 0.209743 0.938489
O O1 0.500000 0.266954 0.171519
O O2 0.373156 0.272778 0.220331
O O3 0.381621 0.273844 0.110968
O O4 0.416946 0.000000 0.167303
O O5 0.423119 0.500000 0.500000
O O6 0.500000 0.218630 0.500000
O O7 0.387469 0.240499 0.441311
O O8 0.923372 0.500000 0.625873
O O9 0.871431 0.223517 0.669671
O O10 0.000000 0.222375 0.621398
O O11 0.160118 0.500000 0.275152
O O12 0.250000 0.250000 0.273972
O O13 0.250000 0.250000 0.927256
O O14 0.339716 0.000000 0.939996
O O15 0.349539 0.276146 0.000000
#
# Coordination Sequence:
#
# PCOD9488529 Si02
#       5
#    16   8  16  16  16
#     4   9  17  30  49  72  96 123 160 204 242 278
#     4   9  17  29  48  75 102 125 151 189 238 283
#     4   9  17  31  51  72  94 123 160 196 230 276
#     4  10  20  33  50  71  95 125 159 196 240 286
#     4   9  17  29  47  71  98 129 162 196 237 284
#
# _framework density 20.537548999999999
#
# number of rings (size 3 to 8) (size 9 to 14) (size 15 to 20)
#    0.000    2.778    0.000    1.667    0.000    5.333 
#    0.000    2.778    0.000    4.000    0.000    3.111 
#    0.000    0.000    0.000    0.000    0.000    0.000 
#
# Total GULP energy -200858.104940 kJ/mol
# GULP energy per Si atom -5579.391804 kJ/mol
# Density = 2.049081 g / cm^3
# Si number density = 20.537549 Si / 1000 Ang^3
#
#
#
# Elastic Constant Matrix: (Units=GPa)
#
#
# Indices 1 2 3 4 5 6 
#
# 1 139.0119 0.4935 134.3377 0.0000 0.0000 0.0000
# 2 0.4935 38.5315 7.9761 0.0000 0.0000 0.0000
# 3 134.3377 7.9761 234.4364 0.0000 0.0000 0.0000
# 4 0.0000 0.0000 0.0000 -26.9732 0.0000 0.0000
# 5 0.0000 0.0000 0.0000 0.0000 33.1948 0.0000
# 6 0.0000 0.0000 0.0000 0.0000 0.0000 21.0301
#
#
#
# Elastic Compliance Matrix: (Units=1/GPa)
#
#
# Indices 1 2 3 4 5 6 
#
# 1 0.016234 0.001730 -0.009361 0.000000 0.000000 0.000000
# 2 0.001730 0.026321 -0.001887 0.000000 0.000000 0.000000
# 3 -0.009361 -0.001887 0.009694 0.000000 0.000000 0.000000
# 4 0.000000 0.000000 0.000000 -0.037074 0.000000 0.000000
# 5 0.000000 0.000000 0.000000 0.000000 0.030125 0.000000
# 6 0.000000 0.000000 0.000000 0.000000 0.000000 0.047551
#
#
# Mechanical properties :
#
#
# Convention : Reuss Voigt Hill
#
# Bulk Modulus (GPa) = 30.10885 77.51051 53.80968
# Shear Modulus (GPa) = 40.66388 23.39515 32.02952
#
# Velocity S-wave (km/s) = 4.45452 3.37878 3.95341
# Velocity P-wave (km/s) = 6.41477 7.28315 6.86271
#
# Compressibility (1/GPa) = 0.03321282
#
# Stress axis : x y z
#
# Youngs Moduli (GPa) = 61.59876 37.99214 103.15619
#
# Poissons Ratio (x) = -0.06572 0.96568
# Poissons Ratio (y) = -0.10656 0.19463
# Poissons Ratio (z) = 0.57665 0.07168
#
# Static dielectric constant tensor:
#      x y z
#    x 1.687460 0.000000 0.000000 
#    y 0.000000 1.758640 0.000000 
#    z 0.000000 0.000000 1.749410 
# 
# From -- ./inp_files/59268.got.cif
#   From: 2010.05.17/outbox.cif.g08.bks.cpg/sg65_30_cif.got.tgz:59268.got - 2010.06.03 17:01:31.
