data_PCOD9488555
_publ_section_title
;
Structure prediction by ZEFSAII (Michael W. Deem and Ramdas Pophale) SiO2 
 PCOD9488555
Probable space group: C M M M
;
_chemical_formula_sum "Si O2"
_cell_formula_units_Z 72
_cell_length_a 14.767722
_cell_length_b 9.262481
_cell_length_c 24.435374
_cell_angle_alpha 90.000000
_cell_angle_beta 90.000000
_cell_angle_gamma 90.000000
_cell_volume 3342.410823
_symmetry_space_group_name_H-M "C M M M"
_symmetry_group_IT_number 65
_symmetry_cell_setting 'orthorhombic'
loop_
_space_group_symop_operation_xyz
x,y,z
-x,-y,z
x,-y,-z
-x,y,-z
-x,-y,-z
x,y,-z
-x,y,z
x,-y,z
1/2+x,1/2+y,z
1/2-x,1/2-y,z
1/2+x,1/2-y,-z
1/2-x,1/2+y,-z
1/2-x,1/2-y,-z
1/2+x,1/2+y,-z
1/2-x,1/2+y,z
1/2+x,1/2-y,z
loop_
_atom_site_type_symbol
_atom_site_label
_atom_site_fract_x
_atom_site_fract_y
_atom_site_fract_z
Si Si1 0.889078 0.167254 0.880990
Si Si2 0.388875 0.835308 0.772711
Si Si3 0.394108 0.339396 0.332107
Si Si4 0.894523 0.175766 0.000000
Si Si5 0.152979 0.327392 0.560037
O O1 0.861160 0.262642 0.829681
O O2 0.000000 0.167821 0.882396
O O3 0.862317 0.000000 0.873371
O O4 0.857466 0.220841 0.940862
O O5 0.500000 0.836575 0.772225
O O6 0.356867 0.743916 0.720490
O O7 0.358430 0.000000 0.768769
O O8 0.500000 0.357072 0.320220
O O9 0.354159 0.500000 0.340085
O O10 0.389766 0.244713 0.386858
O O11 0.000000 0.219716 0.000000
O O12 0.892728 0.000000 0.000000
O O13 0.109648 0.301216 0.500000
O O14 0.160063 0.500000 0.566582
O O15 0.250000 0.250000 0.557739
#
# Coordination Sequence:
#
# PCOD9488555 Si02
#       5
#    16  16  16   8  16
#     4   8  12  19  31  46  67  99 140 182 223 269
#     4   9  16  25  37  55  81 112 146 186 232 278
#     4  10  20  33  50  72  97 126 161 199 237 279
#     4   7  10  16  27  43  63  93 136 181 220 263
#     4  10  21  37  56  76  99 127 157 190 231 280
#
# _framework density 21.541338
#
# number of rings (size 3 to 8) (size 9 to 14) (size 15 to 20)
#    0.000    3.000    0.000    3.333    0.000    5.778 
#    0.000    2.778    0.000    3.333    0.000    0.000 
#    0.000    0.000    0.000    1.000    0.000   13.778 
#
# Total GULP energy -200754.683855 kJ/mol
# GULP energy per Si atom -5576.518996 kJ/mol
# Density = 2.149231 g / cm^3
# Si number density = 21.541338 Si / 1000 Ang^3
#
#
#
# Elastic Constant Matrix: (Units=GPa)
#
#
# Indices 1 2 3 4 5 6 
#
# 1 43.9592 8.6509 9.0146 0.0000 0.0000 0.0000
# 2 8.6509 152.4910 122.2311 0.0000 0.0000 0.0000
# 3 9.0146 122.2311 238.0458 0.0000 0.0000 0.0000
# 4 0.0000 0.0000 0.0000 88.4097 0.0000 0.0000
# 5 0.0000 0.0000 0.0000 0.0000 -7.9807 0.0000
# 6 0.0000 0.0000 0.0000 0.0000 0.0000 9.1816
#
#
#
# Elastic Compliance Matrix: (Units=1/GPa)
#
#
# Indices 1 2 3 4 5 6 
#
# 1 0.023022 -0.001032 -0.000342 0.000000 0.000000 0.000000
# 2 -0.001032 0.011191 -0.005707 0.000000 0.000000 0.000000
# 3 -0.000342 -0.005707 0.007144 0.000000 0.000000 0.000000
# 4 0.000000 0.000000 0.000000 0.011311 0.000000 0.000000
# 5 0.000000 0.000000 0.000000 0.000000 -0.125302 0.000000
# 6 0.000000 0.000000 0.000000 0.000000 0.000000 0.108913
#
#
# Mechanical properties :
#
#
# Convention : Reuss Voigt Hill
#
# Bulk Modulus (GPa) = 36.77187 79.36545 58.06866
# Shear Modulus (GPa) = 84.02529 37.56209 60.79369
#
# Velocity S-wave (km/s) = 6.25230 4.18032 5.31819
# Velocity P-wave (km/s) = 8.32040 7.76037 8.04526
#
# Compressibility (1/GPa) = 0.02719470
#
# Stress axis : x y z
#
# Youngs Moduli (GPa) = 43.43753 89.35720 139.97031
#
# Poissons Ratio (x) = 0.09221 0.04786
# Poissons Ratio (y) = 0.04483 0.79885
# Poissons Ratio (z) = 0.01485 0.50999
#
# Static dielectric constant tensor:
#      x y z
#    x 1.912180 0.000000 0.000000 
#    y 0.000000 1.755000 0.000000 
#    z 0.000000 0.000000 1.797850 
# 
# From -- ./inp_files/59237.got.cif
#   From: 2010.05.17/outbox.cif.g08.bks.cpg/sg65_30_cif.got.tgz:59237.got - 2010.06.03 17:01:31.
