data_PCOD9488754
_publ_section_title
;
Structure prediction by ZEFSAII (Michael W. Deem and Ramdas Pophale) SiO2 
 PCOD9488754
Probable space group: C M M M
;
_chemical_formula_sum "Si O2"
_cell_formula_units_Z 120
_cell_length_a 7.879577
_cell_length_b 28.596664
_cell_length_c 27.164291
_cell_angle_alpha 90.000000
_cell_angle_beta 90.000000
_cell_angle_gamma 90.000000
_cell_volume 6120.919258
_symmetry_space_group_name_H-M "C M M M"
_symmetry_group_IT_number 65
_symmetry_cell_setting 'orthorhombic'
loop_
_space_group_symop_operation_xyz
x,y,z
-x,-y,z
x,-y,-z
-x,y,-z
-x,-y,-z
x,y,-z
-x,y,z
x,-y,z
1/2+x,1/2+y,z
1/2-x,1/2-y,z
1/2+x,1/2-y,-z
1/2-x,1/2+y,-z
1/2-x,1/2-y,-z
1/2+x,1/2+y,-z
1/2-x,1/2+y,z
1/2+x,1/2-y,z
loop_
_atom_site_type_symbol
_atom_site_label
_atom_site_fract_x
_atom_site_fract_y
_atom_site_fract_z
Si Si1 0.701351 0.051936 0.900809
Si Si2 0.795014 0.553566 0.300343
Si Si3 0.705283 0.149197 0.054761
Si Si4 0.292872 0.053445 0.500000
Si Si5 0.203139 0.100632 0.198202
Si Si6 0.700024 0.697216 0.154392
Si Si7 0.707720 0.896139 0.399554
Si Si8 0.296167 0.197852 0.556349
O O1 0.500000 0.049865 0.910763
O O2 0.768001 0.096876 0.930850
O O3 0.725913 0.066098 0.843802
O O4 0.771769 0.000000 0.910772
O O5 0.733843 0.500000 0.297235
O O6 0.747500 0.582377 0.251976
O O7 0.733371 0.578582 0.350200
O O8 0.000000 0.551988 0.302737
O O9 0.500000 0.147785 0.054826
O O10 0.756889 0.184344 0.097925
O O11 0.762867 0.161951 0.000000
O O12 0.500000 0.054926 0.500000
O O13 0.238987 0.078002 0.449655
O O14 0.239325 0.000000 0.500000
O O15 0.269305 0.153141 0.186010
O O16 0.000000 0.100367 0.192784
O O17 0.500000 0.695417 0.159921
O O18 0.750000 0.750000 0.167021
O O19 0.500000 0.897237 0.398412
O O20 0.762874 0.842645 0.407217
O O21 0.233212 0.190488 0.500000
O O22 0.500000 0.194616 0.553946
O O23 0.250000 0.250000 0.571536
#
# Coordination Sequence:
#
# PCOD9488754 Si02
#       8
#    16  16  16   8  16  16  16  16
#     4   9  17  30  50  75 102 134 173 214 253 294
#     4  10  20  33  51  76 104 133 166 204 249 300
#     4   9  18  32  50  75 108 142 173 206 247 297
#     4   9  14  22  41  68  97 127 159 197 240 287
#     4  10  21  36  53  74  99 129 167 210 255 305
#     4  10  21  37  57  78  99 128 168 212 257 303
#     4   9  16  28  45  70 101 130 161 202 248 292
#     4   9  16  28  47  69  94 125 161 199 240 285
#
# _framework density 19.604897999999999
#
# number of rings (size 3 to 8) (size 9 to 14) (size 15 to 20)
#    0.000    2.600    0.667    1.600    0.000    6.133 
#    0.000    2.667    0.000    3.200    0.000    3.733 
#    0.000    2.133    0.000    0.000    0.000    0.000 
#
# Total GULP energy -334652.868375 kJ/mol
# GULP energy per Si atom -5577.547806 kJ/mol
# Density = 1.956028 g / cm^3
# Si number density = 19.604898 Si / 1000 Ang^3
#
#
#
# Elastic Constant Matrix: (Units=GPa)
#
#
# Indices 1 2 3 4 5 6 
#
# 1 17.8221 4.2022 -8.9616 0.0000 0.0000 0.0000
# 2 4.2022 137.8256 46.0603 0.0000 0.0000 0.0000
# 3 -8.9616 46.0603 91.2421 0.0000 0.0000 0.0000
# 4 0.0000 0.0000 0.0000 -9.2779 0.0000 0.0000
# 5 0.0000 0.0000 0.0000 0.0000 -10.0377 0.0000
# 6 0.0000 0.0000 0.0000 0.0000 0.0000 17.6673
#
#
#
# Elastic Compliance Matrix: (Units=1/GPa)
#
#
# Indices 1 2 3 4 5 6 
#
# 1 0.061435 -0.004679 0.008396 0.000000 0.000000 0.000000
# 2 -0.004679 0.009084 -0.005045 0.000000 0.000000 0.000000
# 3 0.008396 -0.005045 0.014332 0.000000 0.000000 0.000000
# 4 0.000000 0.000000 0.000000 -0.107783 0.000000 0.000000
# 5 0.000000 0.000000 0.000000 0.000000 -0.099624 0.000000
# 6 0.000000 0.000000 0.000000 0.000000 0.000000 0.056602
#
#
# Mechanical properties :
#
#
# Convention : Reuss Voigt Hill
#
# Bulk Modulus (GPa) = 12.16631 36.61018 24.38825
# Shear Modulus (GPa) = -139.27988 13.37626 -62.95181
#
# Velocity S-wave (km/s) = -8.43787 2.61491 -5.67274
# Velocity P-wave (km/s) = 9.41865 5.27556 5.51722
#
# Compressibility (1/GPa) = 0.08219419
#
# Stress axis : x y z
#
# Youngs Moduli (GPa) = 16.27734 110.07921 69.77621
#
# Poissons Ratio (x) = 0.51506 -0.58585
# Poissons Ratio (y) = 0.07616 0.35205
# Poissons Ratio (z) = -0.13667 0.55540
#
# Static dielectric constant tensor:
#      x y z
#    x 1.721830 0.000000 0.000000 
#    y 0.000000 1.719080 0.000000 
#    z 0.000000 0.000000 1.660260 
# 
# From -- ./inp_files/73963.got.cif
#   From: 2010.05.17/outbox.cif.g08.bks.cpg/sg65_37_cif.got.tgz:73963.got - 2010.06.03 17:01:31.
