data_PCOD9488819
_publ_section_title
;
Structure prediction by ZEFSAII (Michael W. Deem and Ramdas Pophale) SiO2 
 PCOD9488819
Probable space group: C M M M
;
_chemical_formula_sum "Si O2"
_cell_formula_units_Z 104
_cell_length_a 8.819568
_cell_length_b 29.571228
_cell_length_c 21.005110
_cell_angle_alpha 90.000000
_cell_angle_beta 90.000000
_cell_angle_gamma 90.000000
_cell_volume 5478.247296
_symmetry_space_group_name_H-M "C M M M"
_symmetry_group_IT_number 65
_symmetry_cell_setting 'orthorhombic'
loop_
_space_group_symop_operation_xyz
x,y,z
-x,-y,z
x,-y,-z
-x,y,-z
-x,-y,-z
x,y,-z
-x,y,z
x,-y,z
1/2+x,1/2+y,z
1/2-x,1/2-y,z
1/2+x,1/2-y,-z
1/2-x,1/2+y,-z
1/2-x,1/2-y,-z
1/2+x,1/2+y,-z
1/2-x,1/2+y,z
1/2+x,1/2-y,z
loop_
_atom_site_type_symbol
_atom_site_label
_atom_site_fract_x
_atom_site_fract_y
_atom_site_fract_z
Si Si1 0.678019 0.053399 0.235049
Si Si2 0.681228 0.610608 0.122571
Si Si3 0.181134 0.299429 0.683997
Si Si4 0.184700 0.052268 0.000000
Si Si5 0.682164 0.643689 0.569725
Si Si6 0.181559 0.700305 0.169305
Si Si7 0.681405 0.449362 0.373636
O O1 0.500000 0.064595 0.231391
O O2 0.768753 0.083494 0.185369
O O3 0.736821 0.059927 0.306705
O O4 0.697431 0.000000 0.220231
O O5 0.500000 0.615040 0.120653
O O6 0.731097 0.580334 0.062383
O O7 0.753872 0.660328 0.125840
O O8 0.250000 0.250000 0.673106
O O9 0.245185 0.331656 0.629705
O O10 0.221530 0.311986 0.756940
O O11 0.000000 0.297913 0.680147
O O12 0.000000 0.050801 0.000000
O O13 0.237161 0.000000 0.000000
O O14 0.733476 0.659888 0.500000
O O15 0.500000 0.649405 0.572957
O O16 0.715737 0.590521 0.577765
O O17 0.250000 0.750000 0.156467
O O18 0.000000 0.702494 0.164591
O O19 0.500000 0.448567 0.362276
O O20 0.722229 0.500000 0.394988
#
# Coordination Sequence:
#
# PCOD9488819 Si02
#       7
#    16  16  16   8  16  16  16
#     4  10  20  33  51  78 110 141 177 225 278 328
#     4  11  21  35  58  84 112 148 187 226 271 321
#     4  10  21  37  58  81 106 137 173 218 270 323
#     4   9  20  38  58  83 116 153 192 229 264 311
#     4  10  21  35  51  74 105 140 178 220 266 320
#     4  10  21  38  60  87 115 142 179 226 275 325
#     4   9  18  33  53  76 102 136 179 224 271 323
#
# _framework density 18.984175
#
# number of rings (size 3 to 8) (size 9 to 14) (size 15 to 20)
#    0.000    2.077    0.000    3.231    0.000    7.385 
#    0.000    3.462    0.000    2.769    0.000    3.231 
#    0.000    0.000    0.000    0.000    0.000    0.000 
#
# Total GULP energy -290361.406233 kJ/mol
# GULP energy per Si atom -5583.873197 kJ/mol
# Density = 1.894097 g / cm^3
# Si number density = 18.984175 Si / 1000 Ang^3
#
#
#
# Elastic Constant Matrix: (Units=GPa)
#
#
# Indices 1 2 3 4 5 6 
#
# 1 39.5932 44.4154 26.6071 0.0000 0.0000 0.0000
# 2 44.4154 117.8151 74.4010 0.0000 0.0000 0.0000
# 3 26.6071 74.4010 62.1239 0.0000 0.0000 0.0000
# 4 0.0000 0.0000 0.0000 24.2949 0.0000 0.0000
# 5 0.0000 0.0000 0.0000 0.0000 10.3230 0.0000
# 6 0.0000 0.0000 0.0000 0.0000 0.0000 30.7681
#
#
#
# Elastic Compliance Matrix: (Units=1/GPa)
#
#
# Indices 1 2 3 4 5 6 
#
# 1 0.044030 -0.019247 0.004192 0.000000 0.000000 0.000000
# 2 -0.019247 0.043243 -0.043546 0.000000 0.000000 0.000000
# 3 0.004192 -0.043546 0.066453 0.000000 0.000000 0.000000
# 4 0.000000 0.000000 0.000000 0.041161 0.000000 0.000000
# 5 0.000000 0.000000 0.000000 0.000000 0.096871 0.000000
# 6 0.000000 0.000000 0.000000 0.000000 0.000000 0.032501
#
#
# Mechanical properties :
#
#
# Convention : Reuss Voigt Hill
#
# Bulk Modulus (GPa) = 27.37773 56.70881 42.04327
# Shear Modulus (GPa) = 11.02208 18.01778 14.51993
#
# Velocity S-wave (km/s) = 2.41216 3.08408 2.76858
# Velocity P-wave (km/s) = 4.71282 6.52829 5.69338
#
# Compressibility (1/GPa) = 0.03652604
#
# Stress axis : x y z
#
# Youngs Moduli (GPa) = 22.71170 23.12500 15.04825
#
# Poissons Ratio (x) = 0.44508 -0.06309
# Poissons Ratio (y) = 0.43712 0.65529
# Poissons Ratio (z) = -0.09522 1.00700
#
# Static dielectric constant tensor:
#      x y z
#    x 1.636800 0.000000 0.000000 
#    y 0.000000 1.667430 0.000000 
#    z 0.000000 0.000000 1.644820 
# 
# From -- ./inp_files/60842.got.cif
#   From: 2010.05.17/outbox.cif.g08.bks.cpg/sg65_31_cif.got.tgz:60842.got - 2010.06.03 17:01:31.
