data_PCOD9488390
_publ_section_title
;
Structure prediction by ZEFSAII (Michael W. Deem and Ramdas Pophale) SiO2 
 PCOD9488390
Probable space group: C M M M
;
_chemical_formula_sum "Si O2"
_cell_formula_units_Z 120
_cell_length_a 8.986145
_cell_length_b 28.859718
_cell_length_c 28.928677
_cell_angle_alpha 90.000000
_cell_angle_beta 90.000000
_cell_angle_gamma 90.000000
_cell_volume 7502.293971
_symmetry_space_group_name_H-M "C M M M"
_symmetry_group_IT_number 65
_symmetry_cell_setting 'orthorhombic'
loop_
_space_group_symop_operation_xyz
x,y,z
-x,-y,z
x,-y,-z
-x,y,-z
-x,-y,-z
x,y,-z
-x,y,z
x,-y,z
1/2+x,1/2+y,z
1/2-x,1/2-y,z
1/2+x,1/2-y,-z
1/2-x,1/2+y,-z
1/2-x,1/2-y,-z
1/2+x,1/2+y,-z
1/2-x,1/2+y,z
1/2+x,1/2-y,z
loop_
_atom_site_type_symbol
_atom_site_label
_atom_site_fract_x
_atom_site_fract_y
_atom_site_fract_z
Si Si1 0.827822 0.556506 0.500000
Si Si2 0.671082 0.556297 0.594604
Si Si3 0.673794 0.944588 0.862591
Si Si4 0.324700 0.798974 0.191621
Si Si5 0.323375 0.606208 0.052495
Si Si6 0.177768 0.107228 0.223235
Si Si7 0.675266 0.201079 0.080232
Si Si8 0.322899 0.944772 0.690895
O O1 0.824770 0.500000 0.500000
O O2 0.746131 0.571851 0.546802
O O3 0.000000 0.570421 0.500000
O O4 0.500000 0.571511 0.597831
O O5 0.670715 0.500000 0.593253
O O6 0.762621 0.568928 0.640336
O O7 0.500000 0.930924 0.858879
O O8 0.740903 0.925200 0.910026
O O9 0.762637 0.922380 0.820196
O O10 0.683382 0.000000 0.860938
O O11 0.500000 0.798812 0.202204
O O12 0.250000 0.750000 0.203499
O O13 0.243307 0.841469 0.216135
O O14 0.309785 0.804792 0.135919
O O15 0.500000 0.606883 0.061817
O O16 0.258328 0.657911 0.057566
O O17 0.299686 0.589927 0.000000
O O18 0.240483 0.083490 0.269353
O O19 0.000000 0.108137 0.223472
O O20 0.500000 0.201168 0.069023
O O21 0.750000 0.250000 0.067741
O O22 0.500000 0.937878 0.693826
O O23 0.294281 0.000000 0.697004
#
# Coordination Sequence:
#
# PCOD9488390 Si02
#       8
#     8  16  16  16  16  16  16  16
#     4   9  15  23  37  57  83 121 168 213 258 305
#     4   9  16  26  40  60  88 123 167 216 261 303
#     4  11  24  41  59  78 100 129 166 205 245 291
#     4  10  20  35  56  81 106 131 161 196 238 290
#     4  11  24  40  58  80 105 131 161 199 243 291
#     4  12  23  35  55  79 104 133 165 203 248 296
#     4  10  20  35  58  82 107 134 160 193 236 288
#     4  10  20  33  48  68  98 135 174 216 258 300
#
# _framework density 15.995108
#
# number of rings (size 3 to 8) (size 9 to 14) (size 15 to 20)
#    0.000    1.667    1.333    4.200    0.000    8.533 
#    0.000    1.333    0.000    0.000    0.000    0.000 
#    0.000    0.000    0.000    0.600    0.000    8.467 
#
# Total GULP energy -335174.225509 kJ/mol
# GULP energy per Si atom -5586.237092 kJ/mol
# Density = 1.595870 g / cm^3
# Si number density = 15.995108 Si / 1000 Ang^3
#
#
#
# Elastic Constant Matrix: (Units=GPa)
#
#
# Indices 1 2 3 4 5 6 
#
# 1 142.0876 51.8857 75.9791 0.0000 0.0000 0.0000
# 2 51.8857 62.6017 48.2226 0.0000 0.0000 0.0000
# 3 75.9791 48.2226 113.5380 0.0000 0.0000 0.0000
# 4 0.0000 0.0000 0.0000 63.6675 0.0000 0.0000
# 5 0.0000 0.0000 0.0000 0.0000 27.9777 0.0000
# 6 0.0000 0.0000 0.0000 0.0000 0.0000 25.8693
#
#
#
# Elastic Compliance Matrix: (Units=1/GPa)
#
#
# Indices 1 2 3 4 5 6 
#
# 1 0.012179 -0.005672 -0.005741 0.000000 0.000000 0.000000
# 2 -0.005672 0.026383 -0.007410 0.000000 0.000000 0.000000
# 3 -0.005741 -0.007410 0.015797 0.000000 0.000000 0.000000
# 4 0.000000 0.000000 0.000000 0.015707 0.000000 0.000000
# 5 0.000000 0.000000 0.000000 0.000000 0.035743 0.000000
# 6 0.000000 0.000000 0.000000 0.000000 0.000000 0.038656
#
#
# Mechanical properties :
#
#
# Convention : Reuss Voigt Hill
#
# Bulk Modulus (GPa) = 59.83429 74.48912 67.16171
# Shear Modulus (GPa) = 26.64094 32.97888 29.80991
#
# Velocity S-wave (km/s) = 4.08556 4.54564 4.32173
# Velocity P-wave (km/s) = 7.72948 8.61519 8.18433
#
# Compressibility (1/GPa) = 0.01671282
#
# Stress axis : x y z
#
# Youngs Moduli (GPa) = 82.10783 37.90338 63.30377
#
# Poissons Ratio (x) = 0.21498 0.36344
# Poissons Ratio (y) = 0.46570 0.46908
# Poissons Ratio (z) = 0.47140 0.28086
#
# Static dielectric constant tensor:
#      x y z
#    x 1.531540 0.000000 0.000000 
#    y 0.000000 1.510520 0.000000 
#    z 0.000000 0.000000 1.525260 
# 
# From -- ./inp_files/73899.got.cif
#   From: 2010.05.17/outbox.cif.g08.bks.cpg/sg65_37_cif.got.tgz:73899.got - 2010.06.03 17:01:31.
