data_PCOD9488124
_publ_section_title
;
Structure prediction by ZEFSAII (Michael W. Deem and Ramdas Pophale) SiO2 
 PCOD9488124
Probable space group: C M M M
;
_chemical_formula_sum "Si O2"
_cell_formula_units_Z 80
_cell_length_a 22.088563
_cell_length_b 10.131782
_cell_length_c 22.469161
_cell_angle_alpha 90.000000
_cell_angle_beta 90.000000
_cell_angle_gamma 90.000000
_cell_volume 5028.519702
_symmetry_space_group_name_H-M "C M M M"
_symmetry_group_IT_number 65
_symmetry_cell_setting 'orthorhombic'
loop_
_space_group_symop_operation_xyz
x,y,z
-x,-y,z
x,-y,-z
-x,y,-z
-x,-y,-z
x,y,-z
-x,y,z
x,-y,z
1/2+x,1/2+y,z
1/2-x,1/2-y,z
1/2+x,1/2-y,-z
1/2-x,1/2+y,-z
1/2-x,1/2-y,-z
1/2+x,1/2+y,-z
1/2-x,1/2+y,z
1/2+x,1/2-y,z
loop_
_atom_site_type_symbol
_atom_site_label
_atom_site_fract_x
_atom_site_fract_y
_atom_site_fract_z
Si Si1 0.321408 0.500000 0.932490
Si Si2 0.173669 0.500000 0.069745
Si Si3 0.823613 0.246238 0.855619
Si Si4 0.690693 0.341834 0.273465
Si Si5 0.303254 0.647104 0.500000
Si Si6 0.000000 0.658034 0.427813
Si Si7 0.393169 0.348487 0.388791
O O1 0.247549 0.500000 0.932792
O O2 0.342373 0.626080 0.896777
O O3 0.341604 0.500000 0.000000
O O4 0.155334 0.375429 0.109708
O O5 0.154210 0.500000 0.000000
O O6 0.750000 0.250000 0.855094
O O7 0.838593 0.215302 0.787287
O O8 0.705942 0.500000 0.265329
O O9 0.750000 0.250000 0.284991
O O10 0.644003 0.332134 0.327775
O O11 0.276897 0.500000 0.500000
O O12 0.250000 0.750000 0.500000
O O13 0.345232 0.660946 0.557601
O O14 0.942753 0.736444 0.400711
O O15 0.000000 0.500000 0.415794
O O16 0.000000 0.674241 0.500000
O O17 0.418034 0.500000 0.390235
#
# Coordination Sequence:
#
# PCOD9488124 Si02
#       7
#     8   8  16  16   8   8  16
#     4   9  14  22  36  54  80 118 161 206 242 278
#     4   9  16  24  36  56  82 120 169 210 244 284
#     4   9  16  25  37  56  86 123 166 205 242 290
#     4  10  20  32  48  71 100 136 174 207 249 303
#     4  10  20  33  52  77 105 134 168 202 243 288
#     4  11  23  39  59  83 103 123 162 213 262 305
#     4  10  21  37  56  76 100 135 170 206 251 306
#
# _framework density 15.909255
#
# number of rings (size 3 to 8) (size 9 to 14) (size 15 to 20)
#    0.000    2.300    2.000    1.500    4.200    4.400 
#    0.000    0.000    0.000    0.000    0.000    0.000 
#    0.000    0.000    0.000    5.400    0.000    2.500 
#
# Total GULP energy -222705.090014 kJ/mol
# GULP energy per Si atom -5567.627250 kJ/mol
# Density = 1.587305 g / cm^3
# Si number density = 15.909255 Si / 1000 Ang^3
#
#
#
# Elastic Constant Matrix: (Units=GPa)
#
#
# Indices 1 2 3 4 5 6 
#
# 1 42.1317 53.4957 32.4519 0.0000 0.0000 0.0000
# 2 53.4957 174.0517 81.2636 0.0000 0.0000 0.0000
# 3 32.4519 81.2636 158.0779 0.0000 0.0000 0.0000
# 4 0.0000 0.0000 0.0000 28.6181 0.0000 0.0000
# 5 0.0000 0.0000 0.0000 0.0000 -3.1535 0.0000
# 6 0.0000 0.0000 0.0000 0.0000 0.0000 22.3990
#
#
#
# Elastic Compliance Matrix: (Units=1/GPa)
#
#
# Indices 1 2 3 4 5 6 
#
# 1 0.039644 -0.011033 -0.002467 0.000000 0.000000 0.000000
# 2 -0.011033 0.010631 -0.003200 0.000000 0.000000 0.000000
# 3 -0.002467 -0.003200 0.008477 0.000000 0.000000 0.000000
# 4 0.000000 0.000000 0.000000 0.034943 0.000000 0.000000
# 5 0.000000 0.000000 0.000000 0.000000 -0.317112 0.000000
# 6 0.000000 0.000000 0.000000 0.000000 0.000000 0.044645
#
#
# Mechanical properties :
#
#
# Convention : Reuss Voigt Hill
#
# Bulk Modulus (GPa) = 39.44378 78.74265 59.09322
# Shear Modulus (GPa) = -36.51709 23.37608 -6.57050
#
# Velocity S-wave (km/s) = -4.79616 3.83735 -2.03444
# Velocity P-wave (km/s) = 2.41332 8.32082 5.63080
#
# Compressibility (1/GPa) = 0.02535254
#
# Stress axis : x y z
#
# Youngs Moduli (GPa) = 25.22441 94.06887 117.96134
#
# Poissons Ratio (x) = 1.03788 0.29098
# Poissons Ratio (y) = 0.27830 0.37746
# Poissons Ratio (z) = 0.06222 0.30101
#
# Static dielectric constant tensor:
#      x y z
#    x 1.500700 0.000000 0.000000 
#    y 0.000000 1.521130 0.000000 
#    z 0.000000 0.000000 1.535320 
# 
# From -- ./inp_files/60127.got.cif
#   From: 2010.05.17/outbox.cif.g08.bks.cpg/sg65_31_cif.got.tgz:60127.got - 2010.06.03 17:01:31.
