data_PCOD9488371
_publ_section_title
;
Structure prediction by ZEFSAII (Michael W. Deem and Ramdas Pophale) SiO2 
 PCOD9488371
Probable space group: C M M M
;
_chemical_formula_sum "Si O2"
_cell_formula_units_Z 80
_cell_length_a 20.378910
_cell_length_b 7.740529
_cell_length_c 26.871678
_cell_angle_alpha 90.000000
_cell_angle_beta 90.000000
_cell_angle_gamma 90.000000
_cell_volume 4238.833717
_symmetry_space_group_name_H-M "C M M M"
_symmetry_group_IT_number 65
_symmetry_cell_setting 'orthorhombic'
loop_
_space_group_symop_operation_xyz
x,y,z
-x,-y,z
x,-y,-z
-x,y,-z
-x,-y,-z
x,y,-z
-x,y,z
x,-y,z
1/2+x,1/2+y,z
1/2-x,1/2-y,z
1/2+x,1/2-y,-z
1/2-x,1/2+y,-z
1/2-x,1/2-y,-z
1/2+x,1/2+y,-z
1/2-x,1/2+y,z
1/2+x,1/2-y,z
loop_
_atom_site_type_symbol
_atom_site_label
_atom_site_fract_x
_atom_site_fract_y
_atom_site_fract_z
Si Si1 0.579539 0.795305 0.053513
Si Si2 0.925418 0.706972 0.838749
Si Si3 0.174796 0.208113 0.640348
Si Si4 0.924570 0.788994 0.443799
Si Si5 0.324886 0.294982 0.752356
O O1 0.500000 0.783417 0.054266
O O2 0.599925 0.724872 0.107494
O O3 0.595596 0.000000 0.052408
O O4 0.601667 0.721423 0.000000
O O5 0.930034 0.500000 0.844318
O O6 0.876783 0.739923 0.793577
O O7 0.000000 0.771151 0.829670
O O8 0.250000 0.250000 0.627759
O O9 0.124595 0.272988 0.598737
O O10 0.162202 0.274969 0.696492
O O11 0.168630 0.000000 0.641589
O O12 0.906471 0.735233 0.500000
O O13 0.000000 0.737744 0.434481
O O14 0.923436 0.000000 0.443489
O O15 0.328863 0.500000 0.749060
O O16 0.250000 0.250000 0.765894
#
# Coordination Sequence:
#
# PCOD9488371 Si02
#       5
#    16  16  16  16  16
#     4   7  10  19  38  64  91 117 145 178 218 265
#     4   9  17  29  47  72  98 121 149 187 228 272
#     4   9  18  31  47  67  89 115 149 187 225 265
#     4   8  14  26  45  68  92 117 146 180 217 259
#     4  10  20  33  48  65  90 124 158 193 232 274
#
# _framework density 18.873114999999999
#
# number of rings (size 3 to 8) (size 9 to 14) (size 15 to 20)
#    0.000    3.400    0.000    3.000    0.000    2.400 
#    0.000    2.000    0.000    1.800    0.000    4.200 
#    0.000    0.000    0.000    0.000    0.000    0.000 
#
# Total GULP energy -222689.213235 kJ/mol
# GULP energy per Si atom -5567.230331 kJ/mol
# Density = 1.883016 g / cm^3
# Si number density = 18.873115 Si / 1000 Ang^3
#
#
#
# Elastic Constant Matrix: (Units=GPa)
#
#
# Indices 1 2 3 4 5 6 
#
# 1 100.0542 3.7199 127.3862 0.0000 0.0000 0.0000
# 2 3.7199 28.6681 9.7766 0.0000 0.0000 0.0000
# 3 127.3862 9.7766 204.1122 0.0000 0.0000 0.0000
# 4 0.0000 0.0000 0.0000 5.6669 0.0000 0.0000
# 5 0.0000 0.0000 0.0000 0.0000 -23.7165 0.0000
# 6 0.0000 0.0000 0.0000 0.0000 0.0000 10.8070
#
#
#
# Elastic Compliance Matrix: (Units=1/GPa)
#
#
# Indices 1 2 3 4 5 6 
#
# 1 0.049137 0.004150 -0.030865 0.000000 0.000000 0.000000
# 2 0.004150 0.035812 -0.004305 0.000000 0.000000 0.000000
# 3 -0.030865 -0.004305 0.024368 0.000000 0.000000 0.000000
# 4 0.000000 0.000000 0.000000 0.176463 0.000000 0.000000
# 5 0.000000 0.000000 0.000000 0.000000 -0.042165 0.000000
# 6 0.000000 0.000000 0.000000 0.000000 0.000000 0.092533
#
#
# Mechanical properties :
#
#
# Convention : Reuss Voigt Hill
#
# Bulk Modulus (GPa) = 21.15234 68.28887 44.72061
# Shear Modulus (GPa) = 12.07887 11.34827 11.71357
#
# Velocity S-wave (km/s) = 2.53257 2.45479 2.49398
# Velocity P-wave (km/s) = 4.44791 6.65555 5.66040
#
# Compressibility (1/GPa) = 0.04727609
#
# Stress axis : x y z
#
# Youngs Moduli (GPa) = 20.35145 27.92382 41.03708
#
# Poissons Ratio (x) = -0.11588 1.26660
# Poissons Ratio (y) = -0.08446 0.17668
# Poissons Ratio (z) = 0.62814 0.12022
#
# Static dielectric constant tensor:
#      x y z
#    x 1.593750 0.000000 0.000000 
#    y 0.000000 1.702190 0.000000 
#    z 0.000000 0.000000 1.717160 
# 
# From -- ./inp_files/72740.got.cif
#   From: 2010.05.17/outbox.cif.g08.bks.cpg/sg65_37_cif.got.tgz:72740.got - 2010.06.03 17:01:31.
