data_PCOD9488236
_publ_section_title
;
Structure prediction by ZEFSAII (Michael W. Deem and Ramdas Pophale) SiO2 
 PCOD9488236
Probable space group: C M M M
;
_chemical_formula_sum "Si O2"
_cell_formula_units_Z 104
_cell_length_a 18.328527
_cell_length_b 26.917666
_cell_length_c 12.277790
_cell_angle_alpha 90.000000
_cell_angle_beta 90.000000
_cell_angle_gamma 90.000000
_cell_volume 6057.384816
_symmetry_space_group_name_H-M "C M M M"
_symmetry_group_IT_number 65
_symmetry_cell_setting 'orthorhombic'
loop_
_space_group_symop_operation_xyz
x,y,z
-x,-y,z
x,-y,-z
-x,y,-z
-x,-y,-z
x,y,-z
-x,y,z
x,-y,z
1/2+x,1/2+y,z
1/2-x,1/2-y,z
1/2+x,1/2-y,-z
1/2-x,1/2+y,-z
1/2-x,1/2-y,-z
1/2+x,1/2+y,-z
1/2-x,1/2+y,z
1/2+x,1/2-y,z
loop_
_atom_site_type_symbol
_atom_site_label
_atom_site_fract_x
_atom_site_fract_y
_atom_site_fract_z
Si Si1 0.770540 0.307790 0.500000
Si Si2 0.690297 0.056005 0.699625
Si Si3 0.346074 0.804871 0.128680
Si Si4 0.918474 0.733781 0.500000
Si Si5 0.585149 0.285378 0.265097
Si Si6 0.585340 0.060642 0.500000
Si Si7 0.781678 0.149879 0.271740
Si Si8 0.081471 0.411270 0.128060
O O1 0.750000 0.250000 0.500000
O O2 0.857957 0.308569 0.500000
O O3 0.739306 0.330707 0.391193
O O4 0.634917 0.074599 0.604630
O O5 0.757322 0.092711 0.723245
O O6 0.640436 0.057960 0.806584
O O7 0.712966 0.000000 0.673008
O O8 0.380777 0.758231 0.190713
O O9 0.270738 0.821380 0.186257
O O10 0.398440 0.853004 0.141444
O O11 0.336508 0.795387 0.000000
O O12 0.909648 0.766264 0.609546
O O13 0.000000 0.713126 0.500000
O O14 0.500000 0.292867 0.240149
O O15 0.635610 0.333767 0.250908
O O16 0.500000 0.077481 0.500000
O O17 0.581887 0.000000 0.500000
O O18 0.000000 0.421063 0.168924
O O19 0.084214 0.422020 0.000000
#
# Coordination Sequence:
#
# PCOD9488236 Si02
#       8
#     8  16  16   8  16   8  16  16
#     4  12  17  33  54  77 103 132 166 200 243 300
#     4  10  21  35  50  70  98 133 172 213 255 294
#     4  10  20  34  52  76 107 139 166 197 246 310
#     4  10  20  32  49  76 106 131 164 203 240 285
#     4  11  21  34  52  75 104 134 167 208 253 301
#     4   9  17  31  50  73 100 126 156 197 248 305
#     4  11  21  34  53  76 100 135 173 212 251 297
#     4   9  18  32  50  73 100 130 166 204 243 293
#
# _framework density 17.169125999999999
#
# number of rings (size 3 to 8) (size 9 to 14) (size 15 to 20)
#    0.000    1.769    3.077    1.846    0.000    3.385 
#    0.000    2.308    0.000    0.462    0.000    0.000 
#    0.000    4.923    0.000    9.077    0.000    0.000 
#
# Total GULP energy -290200.821700 kJ/mol
# GULP energy per Si atom -5580.785033 kJ/mol
# Density = 1.713005 g / cm^3
# Si number density = 17.169126 Si / 1000 Ang^3
#
#
#
# Elastic Constant Matrix: (Units=GPa)
#
#
# Indices 1 2 3 4 5 6 
#
# 1 104.5127 46.4326 21.8913 0.0000 0.0000 0.0000
# 2 46.4326 80.7843 27.3330 0.0000 0.0000 0.0000
# 3 21.8913 27.3330 75.8162 0.0000 0.0000 0.0000
# 4 0.0000 0.0000 0.0000 25.5214 0.0000 0.0000
# 5 0.0000 0.0000 0.0000 0.0000 126.1443 0.0000
# 6 0.0000 0.0000 0.0000 0.0000 0.0000 6.1659
#
#
#
# Elastic Compliance Matrix: (Units=1/GPa)
#
#
# Indices 1 2 3 4 5 6 
#
# 1 0.012945 -0.007034 -0.001202 0.000000 0.000000 0.000000
# 2 -0.007034 0.017920 -0.004430 0.000000 0.000000 0.000000
# 3 -0.001202 -0.004430 0.015134 0.000000 0.000000 0.000000
# 4 0.000000 0.000000 0.000000 0.039183 0.000000 0.000000
# 5 0.000000 0.000000 0.000000 0.000000 0.007927 0.000000
# 6 0.000000 0.000000 0.000000 0.000000 0.000000 0.162183
#
#
# Mechanical properties :
#
#
# Convention : Reuss Voigt Hill
#
# Bulk Modulus (GPa) = 48.38319 50.26966 49.32643
# Shear Modulus (GPa) = 17.39060 42.59673 29.99366
#
# Velocity S-wave (km/s) = 3.18606 4.98638 4.18419
# Velocity P-wave (km/s) = 6.46345 7.90535 7.22048
#
# Compressibility (1/GPa) = 0.02066834
#
# Stress axis : x y z
#
# Youngs Moduli (GPa) = 77.25062 55.80313 66.07729
#
# Poissons Ratio (x) = 0.39250 0.07942
# Poissons Ratio (y) = 0.54336 0.29270
# Poissons Ratio (z) = 0.09285 0.24718
#
# Static dielectric constant tensor:
#      x y z
#    x 1.591920 0.000000 0.000000 
#    y 0.000000 1.602240 0.000000 
#    z 0.000000 0.000000 1.541020 
# 
# From -- ./inp_files/27779.got.cif
#   From: 2010.05.17/outbox.cif.g08.bks.cpg/sg65_14_cif.got.tgz:27779.got - 2010.06.03 17:01:31.
