data_PCOD9488706
_publ_section_title
;
Structure prediction by ZEFSAII (Michael W. Deem and Ramdas Pophale) SiO2 
 PCOD9488706
Probable space group: C M M M
;
_chemical_formula_sum "Si O2"
_cell_formula_units_Z 64
_cell_length_a 14.255776
_cell_length_b 34.025405
_cell_length_c 7.379066
_cell_angle_alpha 90.000000
_cell_angle_beta 90.000000
_cell_angle_gamma 90.000000
_cell_volume 3579.279069
_symmetry_space_group_name_H-M "C M M M"
_symmetry_group_IT_number 65
_symmetry_cell_setting 'orthorhombic'
loop_
_space_group_symop_operation_xyz
x,y,z
-x,-y,z
x,-y,-z
-x,y,-z
-x,-y,-z
x,y,-z
-x,y,z
x,-y,z
1/2+x,1/2+y,z
1/2-x,1/2-y,z
1/2+x,1/2-y,-z
1/2-x,1/2+y,-z
1/2-x,1/2-y,-z
1/2+x,1/2+y,-z
1/2-x,1/2+y,z
1/2+x,1/2-y,z
loop_
_atom_site_type_symbol
_atom_site_label
_atom_site_fract_x
_atom_site_fract_y
_atom_site_fract_z
Si Si1 0.887514 0.821780 0.000000
Si Si2 0.790432 0.122690 0.716824
Si Si3 0.607997 0.167251 0.714429
Si Si4 0.113458 0.267683 0.000000
Si Si5 0.892023 0.044110 0.720147
O O1 0.849955 0.845238 0.825910
O O2 0.851629 0.776815 0.000000
O O3 0.000000 0.822058 0.000000
O O4 0.805269 0.126225 0.500000
O O5 0.681938 0.132866 0.754505
O O6 0.824879 0.079580 0.774997
O O7 0.611719 0.175133 0.500000
O O8 0.500000 0.157696 0.761771
O O9 0.637322 0.205771 0.826337
O O10 0.000000 0.264491 0.000000
O O11 0.891656 0.043528 0.500000
O O12 0.000000 0.051941 0.775229
O O13 0.866586 0.000000 0.780040
#
# Coordination Sequence:
#
# PCOD9488706 Si02
#       5
#     8  16  16   8  16
#     4  11  23  35  49  73 102 129 161 202 246 293
#     4  10  20  33  51  74  99 129 164 202 243 287
#     4   9  18  33  52  72  95 127 167 206 243 285
#     4   9  19  35  51  68  96 131 163 201 247 291
#     4   8  14  27  48  71  96 128 161 192 234 290
#
# _framework density 17.880696
#
# number of rings (size 3 to 8) (size 9 to 14) (size 15 to 20)
#    0.000    2.750    0.000    2.250    0.000    4.500 
#    0.000    5.625    0.000    3.000    0.000    5.250 
#    0.000    5.000    0.000    0.500    0.000    0.000 
#
# Total GULP energy -178455.856075 kJ/mol
# GULP energy per Si atom -5576.745502 kJ/mol
# Density = 1.784000 g / cm^3
# Si number density = 17.880696 Si / 1000 Ang^3
#
#
#
# Elastic Constant Matrix: (Units=GPa)
#
#
# Indices 1 2 3 4 5 6 
#
# 1 114.5016 91.3063 36.1415 0.0000 0.0000 0.0000
# 2 91.3063 187.6099 42.6741 0.0000 0.0000 0.0000
# 3 36.1415 42.6741 64.9313 0.0000 0.0000 0.0000
# 4 0.0000 0.0000 0.0000 45.2539 0.0000 0.0000
# 5 0.0000 0.0000 0.0000 0.0000 12.2373 0.0000
# 6 0.0000 0.0000 0.0000 0.0000 0.0000 33.5138
#
#
#
# Elastic Compliance Matrix: (Units=1/GPa)
#
#
# Indices 1 2 3 4 5 6 
#
# 1 0.015201 -0.006436 -0.004231 0.000000 0.000000 0.000000
# 2 -0.006436 0.008992 -0.002327 0.000000 0.000000 0.000000
# 3 -0.004231 -0.002327 0.019286 0.000000 0.000000 0.000000
# 4 0.000000 0.000000 0.000000 0.022098 0.000000 0.000000
# 5 0.000000 0.000000 0.000000 0.000000 0.081718 0.000000
# 6 0.000000 0.000000 0.000000 0.000000 0.000000 0.029838
#
#
# Mechanical properties :
#
#
# Convention : Reuss Voigt Hill
#
# Bulk Modulus (GPa) = 57.17682 78.58740 67.88211
# Shear Modulus (GPa) = 23.92908 31.32904 27.62906
#
# Velocity S-wave (km/s) = 3.66220 4.19037 3.93515
# Velocity P-wave (km/s) = 7.06601 8.21332 7.66117
#
# Compressibility (1/GPa) = 0.01748960
#
# Stress axis : x y z
#
# Youngs Moduli (GPa) = 65.78512 111.21409 51.85158
#
# Poissons Ratio (x) = 0.71572 0.21941
# Poissons Ratio (y) = 0.42336 0.12068
# Poissons Ratio (z) = 0.27837 0.25884
#
# Static dielectric constant tensor:
#      x y z
#    x 1.628620 0.000000 0.000000 
#    y 0.000000 1.595780 0.000000 
#    z 0.000000 0.000000 1.646650 
# 
# From -- ./inp_files/7108.got.cif
#   From: 2010.05.17/outbox.cif.g08.bks.cpg/sg65_4_cif.got.tgz:7108.got - 2010.06.03 17:01:31.
