data_PCOD9488067
_publ_section_title
;
Structure prediction by ZEFSAII (Michael W. Deem and Ramdas Pophale) SiO2 
 PCOD9488067
Probable space group: C M M M
;
_chemical_formula_sum "Si O2"
_cell_formula_units_Z 96
_cell_length_a 9.250551
_cell_length_b 27.302908
_cell_length_c 20.951477
_cell_angle_alpha 90.000000
_cell_angle_beta 90.000000
_cell_angle_gamma 90.000000
_cell_volume 5291.650495
_symmetry_space_group_name_H-M "C M M M"
_symmetry_group_IT_number 65
_symmetry_cell_setting 'orthorhombic'
loop_
_space_group_symop_operation_xyz
x,y,z
-x,-y,z
x,-y,-z
-x,y,-z
-x,-y,-z
x,y,-z
-x,y,z
x,-y,z
1/2+x,1/2+y,z
1/2-x,1/2-y,z
1/2+x,1/2-y,-z
1/2-x,1/2+y,-z
1/2-x,1/2-y,-z
1/2+x,1/2+y,-z
1/2-x,1/2+y,z
1/2+x,1/2-y,z
loop_
_atom_site_type_symbol
_atom_site_label
_atom_site_fract_x
_atom_site_fract_y
_atom_site_fract_z
Si Si1 0.166027 0.298070 0.261521
Si Si2 0.835604 0.500000 0.924180
Si Si3 0.829988 0.099047 0.885333
Si Si4 0.833790 0.059998 0.500000
Si Si5 0.167783 0.895698 0.268207
Si Si6 0.661881 0.057845 0.375814
Si Si7 0.831983 0.300055 0.893986
O O1 0.250000 0.250000 0.282273
O O2 0.255471 0.344651 0.283493
O O3 0.165934 0.298342 0.183671
O O4 0.000000 0.299146 0.281906
O O5 0.750459 0.450435 0.906289
O O6 0.000000 0.500000 0.897177
O O7 0.846792 0.500000 0.000000
O O8 0.822673 0.098308 0.808058
O O9 0.751731 0.149112 0.909312
O O10 0.000000 0.099262 0.903506
O O11 0.751741 0.076982 0.436265
O O12 0.000000 0.075488 0.500000
O O13 0.834003 0.000000 0.500000
O O14 0.254108 0.934410 0.309958
O O15 0.000000 0.896037 0.285561
O O16 0.500000 0.078612 0.372589
O O17 0.649604 0.000000 0.386285
O O18 0.750000 0.250000 0.914910
O O19 0.000000 0.300928 0.915207
#
# Coordination Sequence:
#
# PCOD9488067 Si02
#       7
#    16   8  16   8  16  16  16
#     4   9  16  27  44  67  98 133 167 203 249 302
#     4  11  25  43  61  79 103 140 183 222 261 313
#     4  10  21  36  55  80 108 140 178 221 266 316
#     4   9  17  31  49  67  90 127 170 211 253 301
#     4  10  20  32  48  74 105 134 168 209 256 304
#     4  10  20  32  47  69  98 133 170 210 254 303
#     4   9  16  28  49  77 108 140 172 212 261 315
#
# _framework density 18.141787000000001
#
# number of rings (size 3 to 8) (size 9 to 14) (size 15 to 20)
#    0.000    2.333    0.000    3.000    1.167    8.667 
#    0.000    0.000    0.000    0.500    0.000    0.583 
#    0.000    0.000    0.000    0.000    0.000    0.000 
#
# Total GULP energy -267632.259918 kJ/mol
# GULP energy per Si atom -5575.672082 kJ/mol
# Density = 1.810050 g / cm^3
# Si number density = 18.141787 Si / 1000 Ang^3
#
#
#
# Elastic Constant Matrix: (Units=GPa)
#
#
# Indices 1 2 3 4 5 6 
#
# 1 196.1153 79.0077 33.4577 0.0000 0.0000 0.0000
# 2 79.0077 113.7935 12.7206 0.0000 0.0000 0.0000
# 3 33.4577 12.7206 22.6230 0.0000 0.0000 0.0000
# 4 0.0000 0.0000 0.0000 -23.2423 0.0000 0.0000
# 5 0.0000 0.0000 0.0000 0.0000 -9.8852 0.0000
# 6 0.0000 0.0000 0.0000 0.0000 0.0000 31.9775
#
#
#
# Elastic Compliance Matrix: (Units=1/GPa)
#
#
# Indices 1 2 3 4 5 6 
#
# 1 0.008877 -0.005011 -0.010310 0.000000 0.000000 0.000000
# 2 -0.005011 0.012206 0.000547 0.000000 0.000000 0.000000
# 3 -0.010310 0.000547 0.059143 0.000000 0.000000 0.000000
# 4 0.000000 0.000000 0.000000 -0.043025 0.000000 0.000000
# 5 0.000000 0.000000 0.000000 0.000000 -0.101162 0.000000
# 6 0.000000 0.000000 0.000000 0.000000 0.000000 0.031272
#
#
# Mechanical properties :
#
#
# Convention : Reuss Voigt Hill
#
# Bulk Modulus (GPa) = 19.73243 64.76708 42.24976
# Shear Modulus (GPa) = 363.60731 13.59306 188.60019
#
# Velocity S-wave (km/s) = 14.17252 2.74025 10.20709
# Velocity P-wave (km/s) = 16.69474 6.76683 12.73782
#
# Compressibility (1/GPa) = 0.05067799
#
# Stress axis : x y z
#
# Youngs Moduli (GPa) = 112.65603 81.93015 16.90805
#
# Poissons Ratio (x) = 0.41051 0.17433
# Poissons Ratio (y) = 0.56446 -0.00925
# Poissons Ratio (z) = 1.16153 -0.04483
#
# Static dielectric constant tensor:
#      x y z
#    x 1.636590 0.000000 0.000000 
#    y 0.000000 1.565550 0.000000 
#    z 0.000000 0.000000 1.610950 
# 
# From -- ./inp_files/67889.got.cif
#   From: 2010.05.17/outbox.cif.g08.bks.cpg/sg65_34_cif.got.tgz:67889.got - 2010.06.03 17:01:31.
