data_PCOD9488255
_publ_section_title
;
Structure prediction by ZEFSAII (Michael W. Deem and Ramdas Pophale) SiO2 
 PCOD9488255
Probable space group: C M M M
;
_chemical_formula_sum "Si O2"
_cell_formula_units_Z 96
_cell_length_a 22.120650
_cell_length_b 23.881598
_cell_length_c 9.759496
_cell_angle_alpha 90.000000
_cell_angle_beta 90.000000
_cell_angle_gamma 90.000000
_cell_volume 5155.712104
_symmetry_space_group_name_H-M "C M M M"
_symmetry_group_IT_number 65
_symmetry_cell_setting 'orthorhombic'
loop_
_space_group_symop_operation_xyz
x,y,z
-x,-y,z
x,-y,-z
-x,y,-z
-x,-y,-z
x,y,-z
-x,y,z
x,-y,z
1/2+x,1/2+y,z
1/2-x,1/2-y,z
1/2+x,1/2-y,-z
1/2-x,1/2+y,-z
1/2-x,1/2-y,-z
1/2+x,1/2+y,-z
1/2-x,1/2+y,z
1/2+x,1/2-y,z
loop_
_atom_site_type_symbol
_atom_site_label
_atom_site_fract_x
_atom_site_fract_y
_atom_site_fract_z
Si Si1 0.427143 0.331134 0.658046
Si Si2 0.351319 0.743832 0.157053
Si Si3 0.801536 0.434680 0.664684
Si Si4 0.073644 0.063554 0.842692
Si Si5 0.239777 0.657874 0.843624
Si Si6 0.935558 0.432146 0.339356
O O1 0.407415 0.332903 0.500000
O O2 0.500000 0.329495 0.660717
O O3 0.400723 0.277542 0.736821
O O4 0.407888 0.387253 0.740287
O O5 0.298074 0.697512 0.161836
O O6 0.317355 0.801820 0.188441
O O7 0.374082 0.745742 0.000000
O O8 0.799711 0.429096 0.500000
O O9 0.791607 0.500000 0.696334
O O10 0.756793 0.393096 0.739784
O O11 0.869414 0.417742 0.714898
O O12 0.000000 0.063072 0.842754
O O13 0.092878 0.000000 0.806568
O O14 0.092638 0.075388 0.000000
O O15 0.233189 0.637861 0.000000
O O16 0.935760 0.416127 0.500000
O O17 0.936354 0.500000 0.336656
O O18 0.000000 0.412680 0.278540
#
# Coordination Sequence:
#
# PCOD9488255 Si02
#       6
#    16  16  16  16  16  16
#     4  10  20  32  49  77 108 132 159 202 253 299
#     4   9  19  37  57  73  93 127 171 211 247 294
#     4   9  17  29  48  76 106 133 162 199 247 302
#     4   8  14  26  45  68  95 131 171 202 234 287
#     4   9  19  36  56  75  94 123 168 215 251 287
#     4   7  10  19  37  61  90 125 161 190 219 267
#
# _framework density 18.620124000000001
#
# number of rings (size 3 to 8) (size 9 to 14) (size 15 to 20)
#    0.000    3.333    0.000    3.500    0.000    3.000 
#    0.000    5.000    0.000    4.500    0.000    2.333 
#    0.000    0.000    0.000    0.000    0.000    0.000 
#
# Total GULP energy -267220.376206 kJ/mol
# GULP energy per Si atom -5567.091171 kJ/mol
# Density = 1.857774 g / cm^3
# Si number density = 18.620124 Si / 1000 Ang^3
#
#
#
# Elastic Constant Matrix: (Units=GPa)
#
#
# Indices 1 2 3 4 5 6 
#
# 1 12.8304 14.2829 16.2476 0.0000 0.0000 0.0000
# 2 14.2829 60.0345 48.9972 0.0000 0.0000 0.0000
# 3 16.2476 48.9972 71.9178 0.0000 0.0000 0.0000
# 4 0.0000 0.0000 0.0000 24.1894 0.0000 0.0000
# 5 0.0000 0.0000 0.0000 0.0000 20.3414 0.0000
# 6 0.0000 0.0000 0.0000 0.0000 0.0000 18.4474
#
#
#
# Elastic Compliance Matrix: (Units=1/GPa)
#
#
# Indices 1 2 3 4 5 6 
#
# 1 0.113995 -0.013744 -0.016390 0.000000 0.000000 0.000000
# 2 -0.013744 0.039176 -0.023586 0.000000 0.000000 0.000000
# 3 -0.016390 -0.023586 0.033676 0.000000 0.000000 0.000000
# 4 0.000000 0.000000 0.000000 0.041340 0.000000 0.000000
# 5 0.000000 0.000000 0.000000 0.000000 0.049161 0.000000
# 6 0.000000 0.000000 0.000000 0.000000 0.000000 0.054208
#
#
# Mechanical properties :
#
#
# Convention : Reuss Voigt Hill
#
# Bulk Modulus (GPa) = 12.59314 33.75979 23.17646
# Shear Modulus (GPa) = 10.74195 16.94598 13.84397
#
# Velocity S-wave (km/s) = 2.40448 3.02004 2.72967
# Velocity P-wave (km/s) = 3.80612 5.50736 4.73379
#
# Compressibility (1/GPa) = 0.07940833
#
# Stress axis : x y z
#
# Youngs Moduli (GPa) = 8.77234 25.52564 29.69452
#
# Poissons Ratio (x) = 0.35082 0.48669
# Poissons Ratio (y) = 0.12057 0.70036
# Poissons Ratio (z) = 0.14378 0.60204
#
# Static dielectric constant tensor:
#      x y z
#    x 1.708080 0.000000 0.000000 
#    y 0.000000 1.642750 0.000000 
#    z 0.000000 0.000000 1.622270 
# 
# From -- ./inp_files/14329.got.cif
#   From: 2010.05.17/outbox.cif.g08.bks.cpg/sg65_8_cif.got.tgz:14329.got - 2010.06.03 17:01:31.
