data_PCOD9488300
_publ_section_title
;
Structure prediction by ZEFSAII (Michael W. Deem and Ramdas Pophale) SiO2 
 PCOD9488300
Probable space group: C M M M
;
_chemical_formula_sum "Si O2"
_cell_formula_units_Z 104
_cell_length_a 27.916058
_cell_length_b 24.467395
_cell_length_c 7.608430
_cell_angle_alpha 90.000000
_cell_angle_beta 90.000000
_cell_angle_gamma 90.000000
_cell_volume 5196.810426
_symmetry_space_group_name_H-M "C M M M"
_symmetry_group_IT_number 65
_symmetry_cell_setting 'orthorhombic'
loop_
_space_group_symop_operation_xyz
x,y,z
-x,-y,z
x,-y,-z
-x,y,-z
-x,-y,-z
x,y,-z
-x,y,z
x,-y,z
1/2+x,1/2+y,z
1/2-x,1/2-y,z
1/2+x,1/2-y,-z
1/2-x,1/2+y,-z
1/2-x,1/2-y,-z
1/2+x,1/2+y,-z
1/2-x,1/2+y,z
1/2+x,1/2-y,z
loop_
_atom_site_type_symbol
_atom_site_label
_atom_site_fract_x
_atom_site_fract_y
_atom_site_fract_z
Si Si1 0.446321 0.186913 0.287972
Si Si2 0.391886 0.709360 0.296404
Si Si3 0.707624 0.500000 0.207121
Si Si4 0.147606 0.616856 0.789919
Si Si5 0.200755 0.277986 0.213862
Si Si6 0.554000 0.500000 0.285211
Si Si7 0.371231 0.410724 0.711231
Si Si8 0.317153 0.000000 0.216527
O O1 0.447324 0.190163 0.500000
O O2 0.500000 0.172873 0.227332
O O3 0.429918 0.247060 0.220755
O O4 0.404235 0.143772 0.246364
O O5 0.406047 0.700581 0.500000
O O6 0.342483 0.742237 0.286603
O O7 0.379844 0.650121 0.218062
O O8 0.676497 0.445885 0.250582
O O9 0.761697 0.500000 0.277438
O O10 0.712669 0.500000 0.000000
O O11 0.188411 0.660098 0.729964
O O12 0.157058 0.555785 0.724234
O O13 0.151866 0.614432 0.000000
O O14 0.250000 0.250000 0.269665
O O15 0.199205 0.276493 0.000000
O O16 0.500000 0.500000 0.223377
O O17 0.553523 0.500000 0.500000
O O18 0.584450 0.447816 0.229206
O O19 0.372151 0.407357 0.500000
O O20 0.317581 0.000000 0.000000
#
# Coordination Sequence:
#
# PCOD9488300 Si02
#       8
#    16  16   8  16  16   8  16   8
#     4   9  18  34  54  76 103 131 161 202 252 303
#     4   9  18  31  48  71  99 129 160 198 243 292
#     4  10  20  32  51  72  95 135 175 209 251 294
#     4   9  18  34  52  73  99 128 166 209 248 293
#     4   9  18  30  48  71  97 128 160 199 243 289
#     4   8  14  26  45  65  87 120 161 202 238 274
#     4   9  18  32  47  69 101 129 164 209 247 291
#     4   9  19  34  53  74  97 128 171 214 245 289
#
# _framework density 20.012274000000001
#
# number of rings (size 3 to 8) (size 9 to 14) (size 15 to 20)
#    0.000    3.000    0.000    0.692    2.154    1.846 
#    0.000    5.385    0.000    6.000    0.000    6.462 
#    0.000    0.000    0.000    0.000    0.000    0.000 
#
# Total GULP energy -289710.945398 kJ/mol
# GULP energy per Si atom -5571.364335 kJ/mol
# Density = 1.996673 g / cm^3
# Si number density = 20.012274 Si / 1000 Ang^3
#
#
#
# Elastic Constant Matrix: (Units=GPa)
#
#
# Indices 1 2 3 4 5 6 
#
# 1 132.3694 84.9607 0.1260 0.0000 0.0000 0.0000
# 2 84.9607 207.3961 10.1480 0.0000 0.0000 0.0000
# 3 0.1260 10.1480 40.7868 0.0000 0.0000 0.0000
# 4 0.0000 0.0000 0.0000 44.8877 0.0000 0.0000
# 5 0.0000 0.0000 0.0000 0.0000 19.2158 0.0000
# 6 0.0000 0.0000 0.0000 0.0000 0.0000 10.9094
#
#
#
# Elastic Compliance Matrix: (Units=1/GPa)
#
#
# Indices 1 2 3 4 5 6 
#
# 1 0.010292 -0.004267 0.001030 0.000000 0.000000 0.000000
# 2 -0.004267 0.006650 -0.001641 0.000000 0.000000 0.000000
# 3 0.001030 -0.001641 0.024923 0.000000 0.000000 0.000000
# 4 0.000000 0.000000 0.000000 0.022278 0.000000 0.000000
# 5 0.000000 0.000000 0.000000 0.000000 0.052040 0.000000
# 6 0.000000 0.000000 0.000000 0.000000 0.000000 0.091664
#
#
# Mechanical properties :
#
#
# Convention : Reuss Voigt Hill
#
# Bulk Modulus (GPa) = 31.14434 63.44684 47.29559
# Shear Modulus (GPa) = 21.90036 34.02374 27.96205
#
# Velocity S-wave (km/s) = 3.31168 4.12775 3.74203
# Velocity P-wave (km/s) = 5.49721 7.38177 6.50807
#
# Compressibility (1/GPa) = 0.03210856
#
# Stress axis : x y z
#
# Youngs Moduli (GPa) = 97.16149 150.37957 40.12368
#
# Poissons Ratio (x) = 0.64161 -0.04132
# Poissons Ratio (y) = 0.41455 0.06586
# Poissons Ratio (z) = -0.10005 0.24683
#
# Static dielectric constant tensor:
#      x y z
#    x 1.688990 0.000000 0.000000 
#    y 0.000000 1.736520 0.000000 
#    z 0.000000 0.000000 1.777650 
# 
# From -- ./inp_files/16840.got.cif
#   From: 2010.05.17/outbox.cif.g08.bks.cpg/sg65_9_cif.got.tgz:16840.got - 2010.06.03 17:01:31.
