data_PCOD9488322
_publ_section_title
;
Structure prediction by ZEFSAII (Michael W. Deem and Ramdas Pophale) SiO2 
 PCOD9488322
Probable space group: C M M M
;
_chemical_formula_sum "Si O2"
_cell_formula_units_Z 72
_cell_length_a 15.216976
_cell_length_b 18.424942
_cell_length_c 14.582993
_cell_angle_alpha 90.000000
_cell_angle_beta 90.000000
_cell_angle_gamma 90.000000
_cell_volume 4088.661458
_symmetry_space_group_name_H-M "C M M M"
_symmetry_group_IT_number 65
_symmetry_cell_setting 'orthorhombic'
loop_
_space_group_symop_operation_xyz
x,y,z
-x,-y,z
x,-y,-z
-x,y,-z
-x,-y,-z
x,y,-z
-x,y,z
x,-y,z
1/2+x,1/2+y,z
1/2-x,1/2-y,z
1/2+x,1/2-y,-z
1/2-x,1/2+y,-z
1/2-x,1/2-y,-z
1/2+x,1/2+y,-z
1/2-x,1/2+y,z
1/2+x,1/2-y,z
loop_
_atom_site_type_symbol
_atom_site_label
_atom_site_fract_x
_atom_site_fract_y
_atom_site_fract_z
Si Si1 0.687009 0.920120 0.000000
Si Si2 0.599878 0.293440 0.797692
Si Si3 0.103558 0.640126 0.301252
Si Si4 0.355443 0.761920 0.000000
Si Si5 0.894082 0.416297 0.500000
Si Si6 0.234896 0.919983 0.198082
O O1 0.627364 0.848566 0.000000
O O2 0.747703 0.915782 0.089520
O O3 0.643573 0.000000 0.000000
O O4 0.500000 0.318088 0.782774
O O5 0.615144 0.221833 0.736214
O O6 0.609995 0.270936 0.904881
O O7 0.669790 0.355562 0.775609
O O8 0.128567 0.626135 0.407034
O O9 0.169680 0.591634 0.242590
O O10 0.000000 0.621708 0.289530
O O11 0.250000 0.750000 0.000000
O O12 0.861108 0.500000 0.500000
O O13 0.000000 0.420919 0.500000
O O14 0.200985 0.000000 0.221384
#
# Coordination Sequence:
#
# PCOD9488322 Si02
#       6
#     8  16  16   8   8  16
#     4  10  20  32  52  78 108 145 178 218 269 319
#     4  11  22  35  54  80 109 148 191 224 263 316
#     4  10  20  35  58  84 108 137 175 219 277 339
#     4  12  17  34  57  74 108 142 180 225 270 318
#     4   9  18  34  55  82 114 140 167 215 278 340
#     4  11  21  36  55  77 111 148 183 227 270 314
#
# _framework density 17.609673999999998
#
# number of rings (size 3 to 8) (size 9 to 14) (size 15 to 20)
#    0.000    1.444    4.444    1.667    0.000    1.778 
#    0.000    2.778    0.000    6.667    0.000    0.000 
#    0.000    7.111    0.000    0.000    0.000    0.000 
#
# Total GULP energy -200822.542314 kJ/mol
# GULP energy per Si atom -5578.403953 kJ/mol
# Density = 1.756959 g / cm^3
# Si number density = 17.609674 Si / 1000 Ang^3
#
#
#
# Elastic Constant Matrix: (Units=GPa)
#
#
# Indices 1 2 3 4 5 6 
#
# 1 61.1418 39.1323 33.6043 0.0000 0.0000 0.0000
# 2 39.1323 110.5340 40.3784 0.0000 0.0000 0.0000
# 3 33.6043 40.3784 110.1631 0.0000 0.0000 0.0000
# 4 0.0000 0.0000 0.0000 16.6657 0.0000 0.0000
# 5 0.0000 0.0000 0.0000 0.0000 -4.2961 0.0000
# 6 0.0000 0.0000 0.0000 0.0000 0.0000 19.7819
#
#
#
# Elastic Compliance Matrix: (Units=1/GPa)
#
#
# Indices 1 2 3 4 5 6 
#
# 1 0.023052 -0.006457 -0.004665 0.000000 0.000000 0.000000
# 2 -0.006457 0.012254 -0.002522 0.000000 0.000000 0.000000
# 3 -0.004665 -0.002522 0.011425 0.000000 0.000000 0.000000
# 4 0.000000 0.000000 0.000000 0.060004 0.000000 0.000000
# 5 0.000000 0.000000 0.000000 0.000000 -0.232767 0.000000
# 6 0.000000 0.000000 0.000000 0.000000 0.000000 0.050551
#
#
# Mechanical properties :
#
#
# Convention : Reuss Voigt Hill
#
# Bulk Modulus (GPa) = 51.43211 56.45212 53.94211
# Shear Modulus (GPa) = -119.86901 17.67855 -51.09523
#
# Velocity S-wave (km/s) = -8.25940 3.17189 -5.39244
# Velocity P-wave (km/s) = 7.85410 6.74845 2.84124
#
# Compressibility (1/GPa) = 0.01944311
#
# Stress axis : x y z
#
# Youngs Moduli (GPa) = 43.38011 81.60461 87.52822
#
# Poissons Ratio (x) = 0.52691 0.40833
# Poissons Ratio (y) = 0.28010 0.22074
# Poissons Ratio (z) = 0.20237 0.20580
#
# Static dielectric constant tensor:
#      x y z
#    x 1.586770 0.000000 0.000000 
#    y 0.000000 1.628710 0.000000 
#    z 0.000000 0.000000 1.604560 
# 
# From -- ./inp_files/39833.got.cif
#   From: 2010.05.17/outbox.cif.g08.bks.cpg/sg65_20_cif.got.tgz:39833.got - 2010.06.03 17:01:31.
