data_PCOD9488571
_publ_section_title
;
Structure prediction by ZEFSAII (Michael W. Deem and Ramdas Pophale) SiO2 
 PCOD9488571
Probable space group: C M M M
;
_chemical_formula_sum "Si O2"
_cell_formula_units_Z 104
_cell_length_a 26.592534
_cell_length_b 8.717182
_cell_length_c 20.257031
_cell_angle_alpha 90.000000
_cell_angle_beta 90.000000
_cell_angle_gamma 90.000000
_cell_volume 4695.822034
_symmetry_space_group_name_H-M "C M M M"
_symmetry_group_IT_number 65
_symmetry_cell_setting 'orthorhombic'
loop_
_space_group_symop_operation_xyz
x,y,z
-x,-y,z
x,-y,-z
-x,y,-z
-x,-y,-z
x,y,-z
-x,y,z
x,-y,z
1/2+x,1/2+y,z
1/2-x,1/2-y,z
1/2+x,1/2-y,-z
1/2-x,1/2+y,-z
1/2-x,1/2-y,-z
1/2+x,1/2+y,-z
1/2-x,1/2+y,z
1/2+x,1/2-y,z
loop_
_atom_site_type_symbol
_atom_site_label
_atom_site_fract_x
_atom_site_fract_y
_atom_site_fract_z
Si Si1 0.089156 0.669449 0.075445
Si Si2 0.298000 0.174260 0.887090
Si Si3 0.409458 0.184979 0.571214
Si Si4 0.803464 0.817229 0.610010
Si Si5 0.840649 0.818605 0.756427
Si Si6 0.944947 0.685008 0.714706
Si Si7 0.440494 0.500000 0.075534
O O1 0.075222 0.500000 0.104657
O O2 0.149591 0.674569 0.074456
O O3 0.073940 0.834247 0.105495
O O4 0.069465 0.669094 0.000000
O O5 0.250000 0.250000 0.920392
O O6 0.310309 0.258979 0.818785
O O7 0.284888 0.000000 0.871944
O O8 0.430636 0.233794 0.500000
O O9 0.352147 0.242980 0.576323
O O10 0.437418 0.235324 0.638003
O O11 0.409593 0.000000 0.572672
O O12 0.750000 0.750000 0.588724
O O13 0.812091 0.783596 0.687981
O O14 0.804162 0.000000 0.600382
O O15 0.895611 0.741998 0.752152
O O16 0.847147 0.000000 0.760607
O O17 0.944367 0.500000 0.716150
O O18 0.000000 0.736774 0.738586
O O19 0.500000 0.500000 0.071522
O O20 0.418963 0.500000 0.000000
#
# Coordination Sequence:
#
# PCOD9488571 Si02
#       7
#    16  16  16  16  16  16   8
#     4   9  20  38  58  86 124 159 197 246 294 349
#     4  11  23  37  58  85 114 152 191 231 283 340
#     4   9  18  32  50  74 103 134 170 213 261 317
#     4  10  20  33  50  72  98 133 173 215 266 320
#     4  10  21  36  55  78 106 138 179 230 274 326
#     4   9  18  34  56  79 105 138 174 218 273 329
#     4   9  18  34  60  88 114 154 200 242 292 342
#
# _framework density 22.147347
#
# number of rings (size 3 to 8) (size 9 to 14) (size 15 to 20)
#    0.000    2.385    0.000    1.846    2.154    4.923 
#    0.000    3.846    0.000    0.923    0.000    4.308 
#    0.000    0.000    0.000    0.000    0.000    0.000 
#
# Total GULP energy -290311.868988 kJ/mol
# GULP energy per Si atom -5582.920557 kJ/mol
# Density = 2.209694 g / cm^3
# Si number density = 22.147347 Si / 1000 Ang^3
#
#
#
# Elastic Constant Matrix: (Units=GPa)
#
#
# Indices 1 2 3 4 5 6 
#
# 1 102.5794 33.3533 -7.7594 0.0000 0.0000 0.0000
# 2 33.3533 88.6639 11.0056 0.0000 0.0000 0.0000
# 3 -7.7594 11.0056 63.0018 0.0000 0.0000 0.0000
# 4 0.0000 0.0000 0.0000 138.4753 0.0000 0.0000
# 5 0.0000 0.0000 0.0000 0.0000 5.0778 0.0000
# 6 0.0000 0.0000 0.0000 0.0000 0.0000 23.2533
#
#
#
# Elastic Compliance Matrix: (Units=1/GPa)
#
#
# Indices 1 2 3 4 5 6 
#
# 1 0.011398 -0.004561 0.002200 0.000000 0.000000 0.000000
# 2 -0.004561 0.013353 -0.002894 0.000000 0.000000 0.000000
# 3 0.002200 -0.002894 0.016649 0.000000 0.000000 0.000000
# 4 0.000000 0.000000 0.000000 0.007222 0.000000 0.000000
# 5 0.000000 0.000000 0.000000 0.000000 0.196934 0.000000
# 6 0.000000 0.000000 0.000000 0.000000 0.000000 0.043005
#
#
# Mechanical properties :
#
#
# Convention : Reuss Voigt Hill
#
# Bulk Modulus (GPa) = 32.37164 36.38269 34.37716
# Shear Modulus (GPa) = 16.16202 47.87101 32.01651
#
# Velocity S-wave (km/s) = 2.70432 4.65421 3.80625
# Velocity P-wave (km/s) = 4.93957 6.73391 5.90529
#
# Compressibility (1/GPa) = 0.03089124
#
# Stress axis : x y z
#
# Youngs Moduli (GPa) = 87.73534 74.88690 60.06295
#
# Poissons Ratio (x) = 0.34154 -0.13217
# Poissons Ratio (y) = 0.40014 0.17385
# Poissons Ratio (z) = -0.19306 0.21675
#
# Static dielectric constant tensor:
#      x y z
#    x 1.781600 0.000000 0.000000 
#    y 0.000000 1.811460 0.000000 
#    z 0.000000 0.000000 1.852720 
# 
# From -- ./inp_files/71823.got.cif
#   From: 2010.05.17/outbox.cif.g08.bks.cpg/sg65_36_cif.got.tgz:71823.got - 2010.06.03 17:01:31.
