data_PCOD9488132
_publ_section_title
;
Structure prediction by ZEFSAII (Michael W. Deem and Ramdas Pophale) SiO2 
 PCOD9488132
Probable space group: C M M M
;
_chemical_formula_sum "Si O2"
_cell_formula_units_Z 72
_cell_length_a 17.008808
_cell_length_b 15.506446
_cell_length_c 16.109451
_cell_angle_alpha 90.000000
_cell_angle_beta 90.000000
_cell_angle_gamma 90.000000
_cell_volume 4248.805886
_symmetry_space_group_name_H-M "C M M M"
_symmetry_group_IT_number 65
_symmetry_cell_setting 'orthorhombic'
loop_
_space_group_symop_operation_xyz
x,y,z
-x,-y,z
x,-y,-z
-x,y,-z
-x,-y,-z
x,y,-z
-x,y,z
x,-y,z
1/2+x,1/2+y,z
1/2-x,1/2-y,z
1/2+x,1/2-y,-z
1/2-x,1/2+y,-z
1/2-x,1/2-y,-z
1/2+x,1/2+y,-z
1/2-x,1/2+y,z
1/2+x,1/2-y,z
loop_
_atom_site_type_symbol
_atom_site_label
_atom_site_fract_x
_atom_site_fract_y
_atom_site_fract_z
Si Si1 0.123592 0.403047 0.402122
Si Si2 0.087798 0.762703 0.704770
Si Si3 0.780166 0.902345 0.694627
Si Si4 0.408656 0.897234 0.000000
Si Si5 0.185243 0.318423 0.847181
O O1 0.110373 0.395399 0.500000
O O2 0.096930 0.500000 0.375967
O O3 0.088570 0.322087 0.353387
O O4 0.215778 0.399334 0.378385
O O5 0.151744 0.833518 0.678154
O O6 0.119106 0.730936 0.793786
O O7 0.000000 0.797809 0.708121
O O8 0.732302 0.875685 0.778520
O O9 0.809435 0.000000 0.703001
O O10 0.359333 0.867272 0.080170
O O11 0.500000 0.865541 0.000000
O O12 0.412104 0.000000 0.000000
O O13 0.250000 0.250000 0.878912
#
# Coordination Sequence:
#
# PCOD9488132 Si02
#       5
#    16  16  16   8  16
#     4   9  18  33  52  71  92 124 165 201 233 278
#     4  10  20  32  48  72 100 126 154 196 245 285
#     4   9  18  33  52  71  93 125 163 199 234 278
#     4  11  21  30  46  74 103 125 148 188 242 291
#     4   9  18  34  52  68  91 126 165 196 226 274
#
# _framework density 16.945938000000002
#
# number of rings (size 3 to 8) (size 9 to 14) (size 15 to 20)
#    0.000    2.556    0.000    3.667    0.000    4.000 
#    0.000    1.111    0.000    0.000    0.000    4.667 
#    0.000   16.000    0.000    0.000    0.000    0.000 
#
# Total GULP energy -200573.064998 kJ/mol
# GULP energy per Si atom -5571.474028 kJ/mol
# Density = 1.690737 g / cm^3
# Si number density = 16.945938 Si / 1000 Ang^3
#
#
#
# Elastic Constant Matrix: (Units=GPa)
#
#
# Indices 1 2 3 4 5 6 
#
# 1 107.3836 39.1170 26.4167 0.0000 0.0000 0.0000
# 2 39.1170 70.5650 10.1250 0.0000 0.0000 0.0000
# 3 26.4167 10.1250 42.1917 0.0000 0.0000 0.0000
# 4 0.0000 0.0000 0.0000 22.2964 0.0000 0.0000
# 5 0.0000 0.0000 0.0000 0.0000 0.6374 0.0000
# 6 0.0000 0.0000 0.0000 0.0000 0.0000 4.3856
#
#
#
# Elastic Compliance Matrix: (Units=1/GPa)
#
#
# Indices 1 2 3 4 5 6 
#
# 1 0.013320 -0.006408 -0.006802 0.000000 0.000000 0.000000
# 2 -0.006408 0.017759 -0.000250 0.000000 0.000000 0.000000
# 3 -0.006802 -0.000250 0.028020 0.000000 0.000000 0.000000
# 4 0.000000 0.000000 0.000000 0.044850 0.000000 0.000000
# 5 0.000000 0.000000 0.000000 0.000000 1.568765 0.000000
# 6 0.000000 0.000000 0.000000 0.000000 0.000000 0.228020
#
#
# Mechanical properties :
#
#
# Convention : Reuss Voigt Hill
#
# Bulk Modulus (GPa) = 31.07518 41.27307 36.17413
# Shear Modulus (GPa) = 2.57947 15.09599 8.83773
#
# Velocity S-wave (km/s) = 1.23510 2.98792 2.28617
# Velocity P-wave (km/s) = 4.51792 6.02596 5.32559
#
# Compressibility (1/GPa) = 0.03218003
#
# Stress axis : x y z
#
# Youngs Moduli (GPa) = 75.07563 56.30868 35.68865
#
# Poissons Ratio (x) = 0.36081 0.24275
# Poissons Ratio (y) = 0.48107 0.00892
# Poissons Ratio (z) = 0.51067 0.01407
#
# Static dielectric constant tensor:
#      x y z
#    x 1.570640 0.000000 0.000000 
#    y 0.000000 1.580570 0.000000 
#    z 0.000000 0.000000 1.553710 
# 
# From -- ./inp_files/39746.got.cif
#   From: 2010.05.17/outbox.cif.g08.bks.cpg/sg65_20_cif.got.tgz:39746.got - 2010.06.03 17:01:31.
