data_PCOD9488171
_publ_section_title
;
Structure prediction by ZEFSAII (Michael W. Deem and Ramdas Pophale) SiO2 
 PCOD9488171
Probable space group: C M M M
;
_chemical_formula_sum "Si O2"
_cell_formula_units_Z 116
_cell_length_a 7.868023
_cell_length_b 25.913384
_cell_length_c 25.879551
_cell_angle_alpha 90.000000
_cell_angle_beta 90.000000
_cell_angle_gamma 90.000000
_cell_volume 5276.506637
_symmetry_space_group_name_H-M "C M M M"
_symmetry_group_IT_number 65
_symmetry_cell_setting 'orthorhombic'
loop_
_space_group_symop_operation_xyz
x,y,z
-x,-y,z
x,-y,-z
-x,y,-z
-x,-y,-z
x,y,-z
-x,y,z
x,-y,z
1/2+x,1/2+y,z
1/2-x,1/2-y,z
1/2+x,1/2-y,-z
1/2-x,1/2+y,-z
1/2-x,1/2-y,-z
1/2+x,1/2+y,-z
1/2-x,1/2+y,z
1/2+x,1/2-y,z
loop_
_atom_site_type_symbol
_atom_site_label
_atom_site_fract_x
_atom_site_fract_y
_atom_site_fract_z
Si Si1 0.300905 0.331283 0.311629
Si Si2 0.301309 0.056139 0.280165
Si Si3 0.202826 0.803627 0.800567
Si Si4 0.000000 0.500000 0.592145
Si Si5 0.691686 0.192213 0.422558
Si Si6 0.305370 0.061578 0.944518
Si Si7 0.193204 0.923574 0.439441
Si Si8 0.800982 0.912865 0.831022
O O1 0.500000 0.319070 0.318364
O O2 0.283955 0.393181 0.303890
O O3 0.232458 0.307948 0.258106
O O4 0.202189 0.310310 0.360360
O O5 0.500000 0.057273 0.294599
O O6 0.288553 0.059867 0.217457
O O7 0.232426 0.000000 0.295625
O O8 0.250000 0.750000 0.825156
O O9 0.262568 0.854121 0.829447
O O10 0.000000 0.806500 0.797200
O O11 0.846974 0.545556 0.588060
O O12 0.500000 0.185765 0.440314
O O13 0.750000 0.250000 0.438207
O O14 0.787729 0.139119 0.437177
O O15 0.500000 0.080519 0.940846
O O16 0.218568 0.070451 0.889748
O O17 0.311789 0.000000 0.948350
O O18 0.232856 0.080449 0.000000
O O19 0.207110 0.937967 0.500000
O O20 0.000000 0.935767 0.421606
O O21 0.000000 0.915853 0.817373
#
# Coordination Sequence:
#
# PCOD9488171 Si02
#       8
#    16  16  16   4  16  16  16  16
#     4  10  21  38  57  82 115 152 197 245 302 361
#     4  10  20  34  52  76 108 147 190 235 286 348
#     4   9  19  33  51  75 101 132 174 224 273 327
#     4  12  23  46  76 106 142 176 222 276 326 394
#     4  12  25  43  66  94 132 174 219 270 325 387
#     4   9  18  32  49  71  99 130 166 207 253 313
#     4  11  24  44  72 105 138 176 222 273 330 389
#     4  10  20  32  48  73 103 133 170 218 271 328
#
# _framework density 21.984242999999999
#
# number of rings (size 3 to 8) (size 9 to 14) (size 15 to 20)
#    0.000    1.793    0.690    5.379    0.000    8.552 
#    1.241    0.690    0.000    0.414    0.000    0.000 
#    0.000    0.000    0.000    0.000    0.000    0.000 
#
# Total GULP energy -323338.616881 kJ/mol
# GULP energy per Si atom -5574.803739 kJ/mol
# Density = 2.193421 g / cm^3
# Si number density = 21.984243 Si / 1000 Ang^3
#
#
#
# Elastic Constant Matrix: (Units=GPa)
#
#
# Indices 1 2 3 4 5 6 
#
# 1 97.6862 22.2748 11.2505 0.0000 0.0000 0.0000
# 2 22.2748 141.0225 14.5788 0.0000 0.0000 0.0000
# 3 11.2505 14.5788 83.0243 0.0000 0.0000 0.0000
# 4 0.0000 0.0000 0.0000 -0.0310 0.0000 0.0000
# 5 0.0000 0.0000 0.0000 0.0000 20.8638 0.0000
# 6 0.0000 0.0000 0.0000 0.0000 0.0000 27.8224
#
#
#
# Elastic Compliance Matrix: (Units=1/GPa)
#
#
# Indices 1 2 3 4 5 6 
#
# 1 0.010731 -0.001573 -0.001178 0.000000 0.000000 0.000000
# 2 -0.001573 0.007453 -0.001095 0.000000 0.000000 0.000000
# 3 -0.001178 -0.001095 0.012397 0.000000 0.000000 0.000000
# 4 0.000000 0.000000 0.000000-32.231678 0.000000 0.000000
# 5 0.000000 0.000000 0.000000 0.000000 0.047930 0.000000
# 6 0.000000 0.000000 0.000000 0.000000 0.000000 0.035942
#
#
# Mechanical properties :
#
#
# Convention : Reuss Voigt Hill
#
# Bulk Modulus (GPa) = 43.69219 46.43790 45.06505
# Shear Modulus (GPa) = -0.15575 27.97298 13.90861
#
# Velocity S-wave (km/s) = -0.26646 3.57096 2.51801
# Velocity P-wave (km/s) = 4.45228 6.17830 5.38490
#
# Compressibility (1/GPa) = 0.02288739
#
# Stress axis : x y z
#
# Youngs Moduli (GPa) = 93.18567 134.17743 80.66700
#
# Poissons Ratio (x) = 0.21110 0.09502
# Poissons Ratio (y) = 0.14660 0.08837
# Poissons Ratio (z) = 0.10976 0.14699
#
# Static dielectric constant tensor:
#      x y z
#    x 1.815200 0.000000 0.000000 
#    y 0.000000 1.850150 0.000000 
#    z 0.000000 0.000000 1.839800 
# 
# From -- ./inp_files/73678.got.cif
#   From: 2010.05.17/outbox.cif.g08.bks.cpg/sg65_37_cif.got.tgz:73678.got - 2010.06.03 17:01:31.
