data_PCOD9488193
_publ_section_title
;
Structure prediction by ZEFSAII (Michael W. Deem and Ramdas Pophale) SiO2 
 PCOD9488193
Probable space group: C M M M
;
_chemical_formula_sum "Si O2"
_cell_formula_units_Z 112
_cell_length_a 17.736051
_cell_length_b 14.605973
_cell_length_c 24.087294
_cell_angle_alpha 90.000000
_cell_angle_beta 90.000000
_cell_angle_gamma 90.000000
_cell_volume 6239.868479
_symmetry_space_group_name_H-M "C M M M"
_symmetry_group_IT_number 65
_symmetry_cell_setting 'orthorhombic'
loop_
_space_group_symop_operation_xyz
x,y,z
-x,-y,z
x,-y,-z
-x,y,-z
-x,-y,-z
x,y,-z
-x,y,z
x,-y,z
1/2+x,1/2+y,z
1/2-x,1/2-y,z
1/2+x,1/2-y,-z
1/2-x,1/2+y,-z
1/2-x,1/2-y,-z
1/2+x,1/2+y,-z
1/2-x,1/2+y,z
1/2+x,1/2-y,z
loop_
_atom_site_type_symbol
_atom_site_label
_atom_site_fract_x
_atom_site_fract_y
_atom_site_fract_z
Si Si1 0.311633 0.109853 0.064480
Si Si2 0.213126 0.350740 0.237023
Si Si3 0.085556 0.697656 0.434558
Si Si4 0.326267 0.397731 0.142381
Si Si5 0.589454 0.209867 0.154911
Si Si6 0.222502 0.355520 0.637873
Si Si7 0.137271 0.901583 0.434983
O O1 0.229605 0.128443 0.091635
O O2 0.373741 0.161485 0.101121
O O3 0.322926 0.000000 0.069191
O O4 0.314064 0.135198 0.000000
O O5 0.250000 0.250000 0.240222
O O6 0.269312 0.400842 0.194853
O O7 0.132761 0.336807 0.207074
O O8 0.211019 0.388300 0.299230
O O9 0.102264 0.684441 0.500000
O O10 0.145779 0.645809 0.397025
O O11 0.093056 0.807470 0.423635
O O12 0.000000 0.669430 0.423887
O O13 0.357500 0.500000 0.133554
O O14 0.385332 0.316566 0.152271
O O15 0.500000 0.200350 0.157447
O O16 0.250000 0.250000 0.640710
O O17 0.289272 0.401552 0.603513
O O18 0.159483 0.896081 0.500000
O O19 0.097391 0.000000 0.427435
#
# Coordination Sequence:
#
# PCOD9488193 Si02
#       7
#    16  16  16  16  16  16  16
#     4   9  18  34  56  77  97 129 172 210 242 279
#     4   8  16  31  48  65  87 119 159 198 234 277
#     4   9  17  28  43  65  92 121 152 186 229 286
#     4   9  18  33  52  73  98 130 167 202 237 285
#     4  10  20  32  48  74 106 133 158 197 247 293
#     4   9  16  28  47  66  85 115 155 195 232 271
#     4   9  17  28  43  65  91 117 148 190 237 282
#
# _framework density 17.949095
#
# number of rings (size 3 to 8) (size 9 to 14) (size 15 to 20)
#    0.000    3.000    0.000    1.714    0.000    5.143 
#    0.000    2.143    0.000    0.429    0.000   15.000 
#    0.000    0.000    0.000    0.000    0.000    0.000 
#
# Total GULP energy -311956.038478 kJ/mol
# GULP energy per Si atom -5570.643544 kJ/mol
# Density = 1.790824 g / cm^3
# Si number density = 17.949095 Si / 1000 Ang^3
#
#
#
# Elastic Constant Matrix: (Units=GPa)
#
#
# Indices 1 2 3 4 5 6 
#
# 1 69.9948 -4.8091 42.2592 0.0000 0.0000 0.0000
# 2 -4.8091 32.3894 0.1725 0.0000 0.0000 0.0000
# 3 42.2592 0.1725 90.4283 0.0000 0.0000 0.0000
# 4 0.0000 0.0000 0.0000 -1.4767 0.0000 0.0000
# 5 0.0000 0.0000 0.0000 0.0000 6.6264 0.0000
# 6 0.0000 0.0000 0.0000 0.0000 0.0000 9.8571
#
#
#
# Elastic Compliance Matrix: (Units=1/GPa)
#
#
# Indices 1 2 3 4 5 6 
#
# 1 0.020199 0.003049 -0.009445 0.000000 0.000000 0.000000
# 2 0.003049 0.031335 -0.001485 0.000000 0.000000 0.000000
# 3 -0.009445 -0.001485 0.015475 0.000000 0.000000 0.000000
# 4 0.000000 0.000000 0.000000 -0.677175 0.000000 0.000000
# 5 0.000000 0.000000 0.000000 0.000000 0.150911 0.000000
# 6 0.000000 0.000000 0.000000 0.000000 0.000000 0.101449
#
#
# Mechanical properties :
#
#
# Convention : Reuss Voigt Hill
#
# Bulk Modulus (GPa) = 19.51304 29.78421 24.64862
# Shear Modulus (GPa) = -15.38641 13.34736 -1.01952
#
# Velocity S-wave (km/s) = -2.93102 2.72990 -0.75448
# Velocity P-wave (km/s) = 0.74803 5.15424 3.60601
#
# Compressibility (1/GPa) = 0.05124779
#
# Stress axis : x y z
#
# Youngs Moduli (GPa) = 49.50793 31.91321 64.61927
#
# Poissons Ratio (x) = -0.09732 0.61034
# Poissons Ratio (y) = -0.15097 0.09595
# Poissons Ratio (z) = 0.46761 0.04739
#
# Static dielectric constant tensor:
#      x y z
#    x 1.570800 0.000000 0.000000 
#    y 0.000000 1.659660 0.000000 
#    z 0.000000 0.000000 1.617950 
# 
# From -- ./inp_files/69990.got.cif
#   From: 2010.05.17/outbox.cif.g08.bks.cpg/sg65_35_cif.got.tgz:69990.got - 2010.06.03 17:01:31.
