data_PCOD9488027
_publ_section_title
;
Structure prediction by ZEFSAII (Michael W. Deem and Ramdas Pophale) SiO2 
 PCOD9488027
Probable space group: C M M M
;
_chemical_formula_sum "Si O2"
_cell_formula_units_Z 56
_cell_length_a 9.143609
_cell_length_b 29.526120
_cell_length_c 12.428877
_cell_angle_alpha 90.000000
_cell_angle_beta 90.000000
_cell_angle_gamma 90.000000
_cell_volume 3355.489754
_symmetry_space_group_name_H-M "C M M M"
_symmetry_group_IT_number 65
_symmetry_cell_setting 'orthorhombic'
loop_
_space_group_symop_operation_xyz
x,y,z
-x,-y,z
x,-y,-z
-x,y,-z
-x,-y,-z
x,y,-z
-x,y,z
x,-y,z
1/2+x,1/2+y,z
1/2-x,1/2-y,z
1/2+x,1/2-y,-z
1/2-x,1/2+y,-z
1/2-x,1/2-y,-z
1/2+x,1/2+y,-z
1/2-x,1/2+y,z
1/2+x,1/2-y,z
loop_
_atom_site_type_symbol
_atom_site_label
_atom_site_fract_x
_atom_site_fract_y
_atom_site_fract_z
Si Si1 0.324156 0.626781 0.825004
Si Si2 0.325486 0.906744 0.625411
Si Si3 0.677481 0.447824 0.000000
Si Si4 0.664513 0.500000 0.629564
Si Si5 0.674707 0.298327 0.000000
O O1 0.500000 0.624781 0.810385
O O2 0.243473 0.627041 0.711469
O O3 0.280998 0.582502 0.896210
O O4 0.288715 0.670502 0.897039
O O5 0.289834 0.897155 0.500000
O O6 0.500000 0.909141 0.634508
O O7 0.253022 0.954944 0.655330
O O8 0.729175 0.500000 0.000000
O O9 0.500000 0.449047 0.000000
O O10 0.500000 0.500000 0.676123
O O11 0.651698 0.500000 0.500000
O O12 0.750000 0.250000 0.000000
O O13 0.500000 0.292495 0.000000
#
# Coordination Sequence:
#
# PCOD9488027 Si02
#       5
#    16  16   8   8   8
#     4   9  18  32  51  76 101 128 169 209 247 302
#     4  10  20  32  46  69 104 139 170 209 253 295
#     4   8  15  28  46  69  97 128 161 203 249 288
#     4   9  17  29  45  64  89 132 183 215 239 279
#     4   9  19  36  57  81 104 127 161 210 261 308
#
# _framework density 16.689069
#
# number of rings (size 3 to 8) (size 9 to 14) (size 15 to 20)
#    0.000    2.857    0.000    3.000    2.000    4.571 
#    0.000    2.143    0.000    1.714    0.000    0.000 
#    0.000    0.000    0.000    0.000    0.000    0.000 
#
# Total GULP energy -156041.597505 kJ/mol
# GULP energy per Si atom -5572.914197 kJ/mol
# Density = 1.665108 g / cm^3
# Si number density = 16.689069 Si / 1000 Ang^3
#
#
#
# Elastic Constant Matrix: (Units=GPa)
#
#
# Indices 1 2 3 4 5 6 
#
# 1 52.6265 42.8485 59.2844 0.0000 0.0000 0.0000
# 2 42.8485 120.5883 63.0086 0.0000 0.0000 0.0000
# 3 59.2844 63.0086 129.7139 0.0000 0.0000 0.0000
# 4 0.0000 0.0000 0.0000 11.5291 0.0000 0.0000
# 5 0.0000 0.0000 0.0000 0.0000 22.1850 0.0000
# 6 0.0000 0.0000 0.0000 0.0000 0.0000 26.8425
#
#
#
# Elastic Compliance Matrix: (Units=1/GPa)
#
#
# Indices 1 2 3 4 5 6 
#
# 1 0.042850 -0.006691 -0.016334 0.000000 0.000000 0.000000
# 2 -0.006691 0.012158 -0.002848 0.000000 0.000000 0.000000
# 3 -0.016334 -0.002848 0.016558 0.000000 0.000000 0.000000
# 4 0.000000 0.000000 0.000000 0.086737 0.000000 0.000000
# 5 0.000000 0.000000 0.000000 0.000000 0.045075 0.000000
# 6 0.000000 0.000000 0.000000 0.000000 0.000000 0.037254
#
#
# Mechanical properties :
#
#
# Convention : Reuss Voigt Hill
#
# Bulk Modulus (GPa) = 50.45293 70.35684 60.40489
# Shear Modulus (GPa) = 16.72317 21.29713 19.01015
#
# Velocity S-wave (km/s) = 3.16894 3.57615 3.37868
# Velocity P-wave (km/s) = 6.60956 7.70070 7.17590
#
# Compressibility (1/GPa) = 0.01982046
#
# Stress axis : x y z
#
# Youngs Moduli (GPa) = 23.33702 82.24884 60.39441
#
# Poissons Ratio (x) = 0.55035 0.98648
# Poissons Ratio (y) = 0.15615 0.17198
# Poissons Ratio (z) = 0.38119 0.23422
#
# Static dielectric constant tensor:
#      x y z
#    x 1.551470 0.000000 0.000000 
#    y 0.000000 1.555040 0.000000 
#    z 0.000000 0.000000 1.591720 
# 
# From -- ./inp_files/20487.got.cif
#   From: 2010.05.17/outbox.cif.g08.bks.cpg/sg65_11_cif.got.tgz:20487.got - 2010.06.03 17:01:31.
