data_PCOD9488486
_publ_section_title
;
Structure prediction by ZEFSAII (Michael W. Deem and Ramdas Pophale) SiO2 
 PCOD9488486
Probable space group: C M M M
;
_chemical_formula_sum "Si O2"
_cell_formula_units_Z 88
_cell_length_a 8.618337
_cell_length_b 18.862531
_cell_length_c 29.624101
_cell_angle_alpha 90.000000
_cell_angle_beta 90.000000
_cell_angle_gamma 90.000000
_cell_volume 4815.801952
_symmetry_space_group_name_H-M "C M M M"
_symmetry_group_IT_number 65
_symmetry_cell_setting 'orthorhombic'
loop_
_space_group_symop_operation_xyz
x,y,z
-x,-y,z
x,-y,-z
-x,y,-z
-x,-y,-z
x,y,-z
-x,y,z
x,-y,z
1/2+x,1/2+y,z
1/2-x,1/2-y,z
1/2+x,1/2-y,-z
1/2-x,1/2+y,-z
1/2-x,1/2-y,-z
1/2+x,1/2+y,-z
1/2-x,1/2+y,z
1/2+x,1/2-y,z
loop_
_atom_site_type_symbol
_atom_site_label
_atom_site_fract_x
_atom_site_fract_y
_atom_site_fract_z
Si Si1 0.314440 0.329190 0.776114
Si Si2 0.689550 0.417347 0.500000
Si Si3 0.310513 0.581181 0.863176
Si Si4 0.687472 0.671075 0.050981
Si Si5 0.184431 0.582576 0.306879
Si Si6 0.318985 0.586284 0.402242
O O1 0.500000 0.326358 0.777316
O O2 0.250000 0.250000 0.776936
O O3 0.260185 0.373014 0.820097
O O4 0.262221 0.370208 0.731310
O O5 0.737574 0.500000 0.500000
O O6 0.500000 0.416894 0.500000
O O7 0.738065 0.387033 0.451344
O O8 0.500000 0.580692 0.863082
O O9 0.258624 0.500000 0.859890
O O10 0.260741 0.618233 0.909713
O O11 0.500000 0.673470 0.051878
O O12 0.750000 0.750000 0.059604
O O13 0.734781 0.650276 0.000000
O O14 0.235115 0.500000 0.302342
O O15 0.228423 0.607178 0.357384
O O16 0.000000 0.584975 0.301529
O O17 0.500000 0.605269 0.396984
O O18 0.312175 0.500000 0.404506
#
# Coordination Sequence:
#
# PCOD9488486 Si02
#       6
#    16   8  16  16  16  16
#     4  11  22  36  54  73  96 128 166 208 254 304
#     4   7  10  18  35  61  92 125 162 201 238 283
#     4   9  18  32  51  76 102 128 163 206 249 295
#     4   9  17  30  50  75 103 135 168 203 243 288
#     4  10  20  33  49  72 102 132 165 207 252 298
#     4   8  13  23  41  65  94 129 166 202 243 290
#
# _framework density 18.273178000000001
#
# number of rings (size 3 to 8) (size 9 to 14) (size 15 to 20)
#    0.000    2.818    0.000    3.273    0.000    2.182 
#    0.000    3.182    0.000    5.455    0.000    3.182 
#    0.000    0.000    0.000    0.000    0.000    0.000 
#
# Total GULP energy -245231.102439 kJ/mol
# GULP energy per Si atom -5573.434146 kJ/mol
# Density = 1.823159 g / cm^3
# Si number density = 18.273178 Si / 1000 Ang^3
#
#
#
# Elastic Constant Matrix: (Units=GPa)
#
#
# Indices 1 2 3 4 5 6 
#
# 1 20.6886 24.8376 33.5837 0.0000 0.0000 0.0000
# 2 24.8376 101.6421 98.8696 0.0000 0.0000 0.0000
# 3 33.5837 98.8696 186.6463 0.0000 0.0000 0.0000
# 4 0.0000 0.0000 0.0000 -15.1941 0.0000 0.0000
# 5 0.0000 0.0000 0.0000 0.0000 1.5476 0.0000
# 6 0.0000 0.0000 0.0000 0.0000 0.0000 17.4158
#
#
#
# Elastic Compliance Matrix: (Units=1/GPa)
#
#
# Indices 1 2 3 4 5 6 
#
# 1 0.073327 -0.010489 -0.007638 0.000000 0.000000 0.000000
# 2 -0.010489 0.021797 -0.009659 0.000000 0.000000 0.000000
# 3 -0.007638 -0.009659 0.011848 0.000000 0.000000 0.000000
# 4 0.000000 0.000000 0.000000 -0.065815 0.000000 0.000000
# 5 0.000000 0.000000 0.000000 0.000000 0.646159 0.000000
# 6 0.000000 0.000000 0.000000 0.000000 0.000000 0.057419
#
#
# Mechanical properties :
#
#
# Convention : Reuss Voigt Hill
#
# Bulk Modulus (GPa) = 19.45491 69.28432 44.36962
# Shear Modulus (GPa) = 6.11666 10.86625 8.49145
#
# Velocity S-wave (km/s) = 1.83156 2.44120 2.15802
# Velocity P-wave (km/s) = 3.89135 6.77821 5.52661
#
# Compressibility (1/GPa) = 0.05140090
#
# Stress axis : x y z
#
# Youngs Moduli (GPa) = 13.63761 45.87774 84.39905
#
# Poissons Ratio (x) = 0.48122 0.64461
# Poissons Ratio (y) = 0.14305 0.81520
# Poissons Ratio (z) = 0.10416 0.44313
#
# Static dielectric constant tensor:
#      x y z
#    x 1.617570 0.000000 0.000000 
#    y 0.000000 1.600240 0.000000 
#    z 0.000000 0.000000 1.653660 
# 
# From -- ./inp_files/76539.got.cif
#   From: 2010.05.17/outbox.cif.g08.bks.cpg/sg65_39_cif.got.tgz:76539.got - 2010.06.03 17:01:31.
