data_PCOD9488521
_publ_section_title
;
Structure prediction by ZEFSAII (Michael W. Deem and Ramdas Pophale) SiO2 
 PCOD9488521
Probable space group: C M M M
;
_chemical_formula_sum "Si O2"
_cell_formula_units_Z 72
_cell_length_a 7.409159
_cell_length_b 21.537867
_cell_length_c 21.297979
_cell_angle_alpha 90.000000
_cell_angle_beta 90.000000
_cell_angle_gamma 90.000000
_cell_volume 3398.677842
_symmetry_space_group_name_H-M "C M M M"
_symmetry_group_IT_number 65
_symmetry_cell_setting 'orthorhombic'
loop_
_space_group_symop_operation_xyz
x,y,z
-x,-y,z
x,-y,-z
-x,y,-z
-x,-y,-z
x,y,-z
-x,y,z
x,-y,z
1/2+x,1/2+y,z
1/2-x,1/2-y,z
1/2+x,1/2-y,-z
1/2-x,1/2+y,-z
1/2-x,1/2-y,-z
1/2+x,1/2+y,-z
1/2-x,1/2+y,z
1/2+x,1/2-y,z
loop_
_atom_site_type_symbol
_atom_site_label
_atom_site_fract_x
_atom_site_fract_y
_atom_site_fract_z
Si Si1 0.216278 0.322963 0.737019
Si Si2 0.278686 0.072087 0.361441
Si Si3 0.790091 0.631118 0.129136
Si Si4 0.716668 0.500000 0.925125
Si Si5 0.294758 0.075026 0.500000
Si Si6 0.714796 0.178629 0.000000
O O1 0.250000 0.250000 0.723844
O O2 0.280080 0.374877 0.687209
O O3 0.286064 0.342744 0.806070
O O4 0.000000 0.329887 0.737699
O O5 0.500000 0.071313 0.362815
O O6 0.215817 0.089935 0.431900
O O7 0.226005 0.000000 0.347404
O O8 0.780770 0.558260 0.115836
O O9 0.705236 0.655094 0.064816
O O10 0.000000 0.650837 0.129709
O O11 0.500000 0.500000 0.927491
O O12 0.776878 0.500000 0.000000
O O13 0.500000 0.099619 0.500000
O O14 0.303813 0.000000 0.500000
O O15 0.750000 0.250000 0.000000
O O16 0.500000 0.162760 0.000000
#
# Coordination Sequence:
#
# PCOD9488521 Si02
#       6
#    16  16  16   8   8   8
#     4  10  21  35  53  76 105 140 175 216 261 308
#     4   8  14  26  47  75 102 133 174 216 258 304
#     4  10  21  36  54  74 100 136 171 207 255 309
#     4  11  23  37  55  81 105 128 161 212 266 307
#     4   7  10  20  41  70 103 131 164 215 260 296
#     4  10  20  33  50  71  93 126 170 208 251 302
#
# _framework density 21.184708000000001
#
# number of rings (size 3 to 8) (size 9 to 14) (size 15 to 20)
#    0.000    2.667    1.111    2.333    1.556    2.222 
#    0.000    0.556    0.000    0.000    0.000    0.000 
#    0.000    2.667    0.000    0.000    0.000    0.000 
#
# Total GULP energy -200549.514198 kJ/mol
# GULP energy per Si atom -5570.819839 kJ/mol
# Density = 2.113649 g / cm^3
# Si number density = 21.184708 Si / 1000 Ang^3
#
#
#
# Elastic Constant Matrix: (Units=GPa)
#
#
# Indices 1 2 3 4 5 6 
#
# 1 76.5081 -14.9442 15.5692 0.0000 0.0000 0.0000
# 2 -14.9442 153.9855 109.7055 0.0000 0.0000 0.0000
# 3 15.5692 109.7055 214.6008 0.0000 0.0000 0.0000
# 4 0.0000 0.0000 0.0000 -46.9516 0.0000 0.0000
# 5 0.0000 0.0000 0.0000 0.0000 -56.9114 0.0000
# 6 0.0000 0.0000 0.0000 0.0000 0.0000 28.6625
#
#
#
# Elastic Compliance Matrix: (Units=1/GPa)
#
#
# Indices 1 2 3 4 5 6 
#
# 1 0.014282 0.003341 -0.002744 0.000000 0.000000 0.000000
# 2 0.003341 0.010996 -0.005863 0.000000 0.000000 0.000000
# 3 -0.002744 -0.005863 0.007856 0.000000 0.000000 0.000000
# 4 0.000000 0.000000 0.000000 -0.021299 0.000000 0.000000
# 5 0.000000 0.000000 0.000000 0.000000 -0.017571 0.000000
# 6 0.000000 0.000000 0.000000 0.000000 0.000000 0.034889
#
#
# Mechanical properties :
#
#
# Convention : Reuss Voigt Hill
#
# Bulk Modulus (GPa) = 44.24683 73.97282 59.10983
# Shear Modulus (GPa) = 105.88870 7.27748 56.58309
#
# Velocity S-wave (km/s) = 7.07757 1.85545 5.17372
# Velocity P-wave (km/s) = 9.36595 6.29159 7.97825
#
# Compressibility (1/GPa) = 0.02260049
#
# Stress axis : x y z
#
# Youngs Moduli (GPa) = 70.02065 90.94421 127.28546
#
# Poissons Ratio (x) = -0.30384 0.34928
# Poissons Ratio (y) = -0.23394 0.74634
# Poissons Ratio (z) = 0.19214 0.53325
#
# Static dielectric constant tensor:
#      x y z
#    x 1.809180 0.000000 0.000000 
#    y 0.000000 3.883010 0.000000 
#    z 0.000000 0.000000 1.795470 
# 
# From -- ./inp_files/59360.got.cif
#   From: 2010.05.17/outbox.cif.g08.bks.cpg/sg65_30_cif.got.tgz:59360.got - 2010.06.03 17:01:31.
