data_PCOD9488691
_publ_section_title
;
Structure prediction by ZEFSAII (Michael W. Deem and Ramdas Pophale) SiO2 
 PCOD9488691
Probable space group: C M M M
;
_chemical_formula_sum "Si O2"
_cell_formula_units_Z 72
_cell_length_a 8.151717
_cell_length_b 22.112803
_cell_length_c 20.602077
_cell_angle_alpha 90.000000
_cell_angle_beta 90.000000
_cell_angle_gamma 90.000000
_cell_volume 3713.675024
_symmetry_space_group_name_H-M "C M M M"
_symmetry_group_IT_number 65
_symmetry_cell_setting 'orthorhombic'
loop_
_space_group_symop_operation_xyz
x,y,z
-x,-y,z
x,-y,-z
-x,y,-z
-x,-y,-z
x,y,-z
-x,y,z
x,-y,z
1/2+x,1/2+y,z
1/2-x,1/2-y,z
1/2+x,1/2-y,-z
1/2-x,1/2+y,-z
1/2-x,1/2-y,-z
1/2+x,1/2+y,-z
1/2-x,1/2+y,z
1/2+x,1/2-y,z
loop_
_atom_site_type_symbol
_atom_site_label
_atom_site_fract_x
_atom_site_fract_y
_atom_site_fract_z
Si Si1 0.693958 0.680743 0.730500
Si Si2 0.301210 0.873655 0.134054
Si Si3 0.803510 0.682434 0.000000
Si Si4 0.185684 0.427177 0.500000
Si Si5 0.800426 0.500000 0.922925
Si Si6 0.804450 0.930266 0.642570
O O1 0.500000 0.681447 0.720212
O O2 0.750000 0.750000 0.718421
O O3 0.731652 0.660506 0.804049
O O4 0.762330 0.624764 0.686786
O O5 0.500000 0.870394 0.138586
O O6 0.253135 0.942712 0.120568
O O7 0.243213 0.844545 0.066960
O O8 0.750000 0.750000 0.000000
O O9 0.000000 0.673928 0.000000
O O10 0.178522 0.500000 0.500000
O O11 0.272268 0.412454 0.567685
O O12 0.000000 0.403411 0.500000
O O13 0.000000 0.500000 0.927769
O O14 0.746194 0.500000 0.000000
O O15 0.000000 0.933740 0.652949
O O16 0.740854 0.000000 0.653576
#
# Coordination Sequence:
#
# PCOD9488691 Si02
#       6
#    16  16   8   8   8  16
#     4  11  24  40  58  81 114 152 191 235 281 335
#     4  10  20  35  56  80 108 143 183 229 282 337
#     4  10  20  33  51  73  99 136 183 228 273 332
#     4   9  17  31  56  91 122 145 179 229 274 319
#     4   9  16  32  57  83 109 138 177 228 285 343
#     4   9  19  37  60  84 113 151 188 224 274 333
#
# _framework density 19.387803000000002
#
# number of rings (size 3 to 8) (size 9 to 14) (size 15 to 20)
#    0.000    2.222    1.111    1.667    1.556    5.778 
#    0.000    0.556    0.000    0.667    0.000    0.000 
#    0.000    0.000    0.000    0.000    0.000    0.000 
#
# Total GULP energy -200499.006852 kJ/mol
# GULP energy per Si atom -5569.416857 kJ/mol
# Density = 1.934368 g / cm^3
# Si number density = 19.387803 Si / 1000 Ang^3
#
#
#
# Elastic Constant Matrix: (Units=GPa)
#
#
# Indices 1 2 3 4 5 6 
#
# 1 10.9826 16.4855 2.1893 0.0000 0.0000 0.0000
# 2 16.4855 172.4356 79.5427 0.0000 0.0000 0.0000
# 3 2.1893 79.5427 125.8697 0.0000 0.0000 0.0000
# 4 0.0000 0.0000 0.0000 -24.3066 0.0000 0.0000
# 5 0.0000 0.0000 0.0000 0.0000 46.5383 0.0000
# 6 0.0000 0.0000 0.0000 0.0000 0.0000 4.9698
#
#
#
# Elastic Compliance Matrix: (Units=1/GPa)
#
#
# Indices 1 2 3 4 5 6 
#
# 1 0.110161 -0.013618 0.006689 0.000000 0.000000 0.000000
# 2 -0.013618 0.009869 -0.006000 0.000000 0.000000 0.000000
# 3 0.006689 -0.006000 0.011620 0.000000 0.000000 0.000000
# 4 0.000000 0.000000 0.000000 -0.041141 0.000000 0.000000
# 5 0.000000 0.000000 0.000000 0.000000 0.021488 0.000000
# 6 0.000000 0.000000 0.000000 0.000000 0.000000 0.201217
#
#
# Mechanical properties :
#
#
# Convention : Reuss Voigt Hill
#
# Bulk Modulus (GPa) = 9.45235 56.19143 32.82189
# Shear Modulus (GPa) = 13.35708 19.51165 16.43437
#
# Velocity S-wave (km/s) = 2.62762 3.17580 2.91463
# Velocity P-wave (km/s) = 3.75391 6.51870 5.31908
#
# Compressibility (1/GPa) = 0.10579382
#
# Stress axis : x y z
#
# Youngs Moduli (GPa) = 9.07764 101.33025 86.05997
#
# Poissons Ratio (x) = 1.37987 -0.57569
# Poissons Ratio (y) = 0.12362 0.51633
# Poissons Ratio (z) = -0.06072 0.60794
#
# Static dielectric constant tensor:
#      x y z
#    x 1.695020 0.000000 0.000000 
#    y 0.000000 2.046250 0.000000 
#    z 0.000000 0.000000 1.652580 
# 
# From -- ./inp_files/59395.got.cif
#   From: 2010.05.17/outbox.cif.g08.bks.cpg/sg65_30_cif.got.tgz:59395.got - 2010.06.03 17:01:31.
