data_PCOD9488889
_publ_section_title
;
Structure prediction by ZEFSAII (Michael W. Deem and Ramdas Pophale) SiO2 
 PCOD9488889
Probable space group: C M M M
;
_chemical_formula_sum "Si O2"
_cell_formula_units_Z 88
_cell_length_a 25.444312
_cell_length_b 21.354551
_cell_length_c 7.817920
_cell_angle_alpha 90.000000
_cell_angle_beta 90.000000
_cell_angle_gamma 90.000000
_cell_volume 4247.881360
_symmetry_space_group_name_H-M "C M M M"
_symmetry_group_IT_number 65
_symmetry_cell_setting 'orthorhombic'
loop_
_space_group_symop_operation_xyz
x,y,z
-x,-y,z
x,-y,-z
-x,y,-z
-x,-y,-z
x,y,-z
-x,y,z
x,-y,z
1/2+x,1/2+y,z
1/2-x,1/2-y,z
1/2+x,1/2-y,-z
1/2-x,1/2+y,-z
1/2-x,1/2-y,-z
1/2+x,1/2+y,-z
1/2-x,1/2+y,z
1/2+x,1/2-y,z
loop_
_atom_site_type_symbol
_atom_site_label
_atom_site_fract_x
_atom_site_fract_y
_atom_site_fract_z
Si Si1 0.910573 0.203374 0.708199
Si Si2 0.289754 0.699152 0.703869
Si Si3 0.561905 0.842467 0.812596
Si Si4 0.435501 0.927019 0.500000
Si Si5 0.300437 0.432991 0.795878
Si Si6 0.577886 0.568049 0.300118
O O1 0.912199 0.201662 0.500000
O O2 0.849630 0.204313 0.767309
O O3 0.933977 0.269087 0.766086
O O4 0.936095 0.137315 0.768389
O O5 0.293091 0.708063 0.500000
O O6 0.250000 0.750000 0.775881
O O7 0.270951 0.628861 0.738898
O O8 0.500000 0.856611 0.821931
O O9 0.583206 0.887647 0.664900
O O10 0.585576 0.853051 0.000000
O O11 0.500000 0.925706 0.500000
O O12 0.420289 0.000000 0.500000
O O13 0.276072 0.500000 0.751397
O O14 0.358482 0.431442 0.712292
O O15 0.308114 0.430587 0.000000
O O16 0.562941 0.567081 0.500000
O O17 0.561530 0.500000 0.225650
#
# Coordination Sequence:
#
# PCOD9488889 Si02
#       6
#    16  16  16   8  16  16
#     4   9  16  28  48  71  99 133 165 206 255 298
#     4   9  18  31  47  69  94 122 162 205 243 289
#     4  10  20  33  52  79 107 135 167 204 252 308
#     4   9  18  34  56  80 104 129 161 207 255 300
#     4   9  16  25  39  61  88 117 151 193 240 283
#     4   8  14  25  42  65  92 123 162 204 240 277
#
# _framework density 20.716208999999999
#
# number of rings (size 3 to 8) (size 9 to 14) (size 15 to 20)
#    0.000    3.000    0.909    1.636    0.000    4.727 
#    0.000    1.818    0.000    1.636    0.000    3.818 
#    0.000    0.000    0.000    0.000    0.000    0.000 
#
# Total GULP energy -245046.589956 kJ/mol
# GULP energy per Si atom -5569.240681 kJ/mol
# Density = 2.066906 g / cm^3
# Si number density = 20.716209 Si / 1000 Ang^3
#
#
#
# Elastic Constant Matrix: (Units=GPa)
#
#
# Indices 1 2 3 4 5 6 
#
# 1 30.7981 26.4047 7.8494 0.0000 0.0000 0.0000
# 2 26.4047 187.4100 46.0651 0.0000 0.0000 0.0000
# 3 7.8494 46.0651 68.3567 0.0000 0.0000 0.0000
# 4 0.0000 0.0000 0.0000 83.0205 0.0000 0.0000
# 5 0.0000 0.0000 0.0000 0.0000 7.0658 0.0000
# 6 0.0000 0.0000 0.0000 0.0000 0.0000 20.7394
#
#
#
# Elastic Compliance Matrix: (Units=1/GPa)
#
#
# Indices 1 2 3 4 5 6 
#
# 1 0.036975 -0.004993 -0.000881 0.000000 0.000000 0.000000
# 2 -0.004993 0.007069 -0.004191 0.000000 0.000000 0.000000
# 3 -0.000881 -0.004191 0.017554 0.000000 0.000000 0.000000
# 4 0.000000 0.000000 0.000000 0.012045 0.000000 0.000000
# 5 0.000000 0.000000 0.000000 0.000000 0.141527 0.000000
# 6 0.000000 0.000000 0.000000 0.000000 0.000000 0.048217
#
#
# Mechanical properties :
#
#
# Convention : Reuss Voigt Hill
#
# Bulk Modulus (GPa) = 24.11434 49.68924 36.90179
# Shear Modulus (GPa) = 16.81574 35.91485 26.36530
#
# Velocity S-wave (km/s) = 2.85216 4.16824 3.57135
# Velocity P-wave (km/s) = 4.74468 6.87047 5.90404
#
# Compressibility (1/GPa) = 0.04146911
#
# Stress axis : x y z
#
# Youngs Moduli (GPa) = 27.04551 141.45418 56.96577
#
# Poissons Ratio (x) = 0.70627 0.05019
# Poissons Ratio (y) = 0.13504 0.23873
# Poissons Ratio (z) = 0.02383 0.59279
#
# Static dielectric constant tensor:
#      x y z
#    x 1.741150 0.000000 0.000000 
#    y 0.000000 1.785100 0.000000 
#    z 0.000000 0.000000 1.780160 
# 
# From -- ./inp_files/18519.got.cif
#   From: 2010.05.17/outbox.cif.g08.bks.cpg/sg65_10_cif.got.tgz:18519.got - 2010.06.03 17:01:31.
