data_PCOD9488209
_publ_section_title
;
Structure prediction by ZEFSAII (Michael W. Deem and Ramdas Pophale) SiO2 
 PCOD9488209
Probable space group: C M M M
;
_chemical_formula_sum "Si O2"
_cell_formula_units_Z 58
_cell_length_a 28.312204
_cell_length_b 7.655641
_cell_length_c 14.805141
_cell_angle_alpha 90.000000
_cell_angle_beta 90.000000
_cell_angle_gamma 90.000000
_cell_volume 3208.985734
_symmetry_space_group_name_H-M "C M M M"
_symmetry_group_IT_number 65
_symmetry_cell_setting 'orthorhombic'
loop_
_space_group_symop_operation_xyz
x,y,z
-x,-y,z
x,-y,-z
-x,y,-z
-x,-y,-z
x,y,-z
-x,y,z
x,-y,z
1/2+x,1/2+y,z
1/2-x,1/2-y,z
1/2+x,1/2-y,-z
1/2-x,1/2+y,-z
1/2-x,1/2-y,-z
1/2+x,1/2+y,-z
1/2-x,1/2+y,z
1/2+x,1/2-y,z
loop_
_atom_site_type_symbol
_atom_site_label
_atom_site_fract_x
_atom_site_fract_y
_atom_site_fract_z
Si Si1 0.000000 0.500000 0.500000
Si Si2 0.196595 0.292057 0.604691
Si Si3 0.122325 0.800544 0.749694
Si Si4 0.696923 0.709561 0.897042
Si Si5 0.552027 0.000000 0.309630
O O1 0.959252 0.500000 0.417749
O O2 0.192021 0.240441 0.500000
O O3 0.189079 0.500000 0.611736
O O4 0.250000 0.250000 0.632921
O O5 0.158956 0.198901 0.666779
O O6 0.154476 0.731263 0.832848
O O7 0.081000 0.669517 0.721692
O O8 0.106521 0.000000 0.767549
O O9 0.693414 0.500000 0.899139
O O10 0.750000 0.750000 0.863657
O O11 0.693372 0.776359 0.000000
O O12 0.500000 0.000000 0.266673
#
# Coordination Sequence:
#
# PCOD9488209 Si02
#       5
#     2  16  16  16   8
#     4   8  24  48  66  84 118 146 204 264 322 344
#     4  10  20  32  48  75 115 151 187 229 278 346
#     4  11  22  36  60  85 112 153 195 240 300 357
#     4   9  19  34  54  86 125 161 199 239 285 348
#     4  10  24  44  63  84 114 147 196 260 304 355
#
# _framework density 18.074247
#
# number of rings (size 3 to 8) (size 9 to 14) (size 15 to 20)
#    0.414    1.655    1.379    1.655    3.862    4.414 
#    0.000    0.690    0.000    1.655    0.000    3.862 
#    0.000    0.000    0.000    0.000    0.000    0.000 
#
# Total GULP energy -161498.655768 kJ/mol
# GULP energy per Si atom -5568.919164 kJ/mol
# Density = 1.803311 g / cm^3
# Si number density = 18.074247 Si / 1000 Ang^3
#
#
#
# Elastic Constant Matrix: (Units=GPa)
#
#
# Indices 1 2 3 4 5 6 
#
# 1 132.0792 49.2486 60.1905 0.0000 0.0000 0.0000
# 2 49.2486 77.4300 29.4208 0.0000 0.0000 0.0000
# 3 60.1905 29.4208 89.6562 0.0000 0.0000 0.0000
# 4 0.0000 0.0000 0.0000 15.1672 0.0000 0.0000
# 5 0.0000 0.0000 0.0000 0.0000 46.0492 0.0000
# 6 0.0000 0.0000 0.0000 0.0000 0.0000 23.4184
#
#
#
# Elastic Compliance Matrix: (Units=1/GPa)
#
#
# Indices 1 2 3 4 5 6 
#
# 1 0.012685 -0.005521 -0.006704 0.000000 0.000000 0.000000
# 2 -0.005521 0.017157 -0.001924 0.000000 0.000000 0.000000
# 3 -0.006704 -0.001924 0.016286 0.000000 0.000000 0.000000
# 4 0.000000 0.000000 0.000000 0.065932 0.000000 0.000000
# 5 0.000000 0.000000 0.000000 0.000000 0.021716 0.000000
# 6 0.000000 0.000000 0.000000 0.000000 0.000000 0.042701
#
#
# Mechanical properties :
#
#
# Convention : Reuss Voigt Hill
#
# Bulk Modulus (GPa) = 56.08424 64.09836 60.09130
# Shear Modulus (GPa) = 23.72824 27.61397 25.67111
#
# Velocity S-wave (km/s) = 3.62722 3.91296 3.77279
# Velocity P-wave (km/s) = 6.97421 7.48037 7.23172
#
# Compressibility (1/GPa) = 0.01783032
#
# Stress axis : x y z
#
# Youngs Moduli (GPa) = 78.83279 58.28418 61.40220
#
# Poissons Ratio (x) = 0.32177 0.41167
# Poissons Ratio (y) = 0.43522 0.11813
# Poissons Ratio (z) = 0.52853 0.11213
#
# Static dielectric constant tensor:
#      x y z
#    x 1.594850 0.000000 0.000000 
#    y 0.000000 1.714640 0.000000 
#    z 0.000000 0.000000 1.650660 
# 
# From -- ./inp_files/35857.got.cif
#   From: 2010.05.17/outbox.cif.g08.bks.cpg/sg65_18_cif.got.tgz:35857.got - 2010.06.03 17:01:31.
