data_PCOD9488126
_publ_section_title
;
Structure prediction by ZEFSAII (Michael W. Deem and Ramdas Pophale) SiO2 
 PCOD9488126
Probable space group: C M M M
;
_chemical_formula_sum "Si O2"
_cell_formula_units_Z 128
_cell_length_a 17.674452
_cell_length_b 21.060556
_cell_length_c 18.266897
_cell_angle_alpha 90.000000
_cell_angle_beta 90.000000
_cell_angle_gamma 90.000000
_cell_volume 6799.556231
_symmetry_space_group_name_H-M "C M M M"
_symmetry_group_IT_number 65
_symmetry_cell_setting 'orthorhombic'
loop_
_space_group_symop_operation_xyz
x,y,z
-x,-y,z
x,-y,-z
-x,y,-z
-x,-y,-z
x,y,-z
-x,y,z
x,-y,z
1/2+x,1/2+y,z
1/2-x,1/2-y,z
1/2+x,1/2-y,-z
1/2-x,1/2+y,-z
1/2-x,1/2-y,-z
1/2+x,1/2+y,-z
1/2-x,1/2+y,z
1/2+x,1/2-y,z
loop_
_atom_site_type_symbol
_atom_site_label
_atom_site_fract_x
_atom_site_fract_y
_atom_site_fract_z
Si Si1 0.415428 0.424391 0.267245
Si Si2 0.626594 0.068069 0.265575
Si Si3 0.799710 0.313453 0.082018
Si Si4 0.348603 0.622244 0.418188
Si Si5 0.915784 0.703274 0.212692
Si Si6 0.776341 0.074229 0.168472
Si Si7 0.091343 0.742910 0.372021
Si Si8 0.832920 0.612551 0.581064
O O1 0.500000 0.397183 0.258162
O O2 0.419331 0.500000 0.257199
O O3 0.386592 0.412471 0.349558
O O4 0.353003 0.402771 0.208357
O O5 0.582939 0.130142 0.240070
O O6 0.710036 0.073551 0.229660
O O7 0.635887 0.071583 0.352436
O O8 0.594704 0.000000 0.242792
O O9 0.750000 0.250000 0.079644
O O10 0.862417 0.298287 0.142928
O O11 0.751935 0.374991 0.108808
O O12 0.829580 0.325462 0.000000
O O13 0.369186 0.599066 0.500000
O O14 0.376217 0.694509 0.409165
O O15 0.257844 0.618332 0.411619
O O16 0.888794 0.741435 0.284921
O O17 0.000000 0.724812 0.194349
O O18 0.784244 0.000000 0.143839
O O19 0.129490 0.681556 0.407948
O O20 0.000000 0.740104 0.377536
O O21 0.849900 0.588336 0.500000
#
# Coordination Sequence:
#
# PCOD9488126 Si02
#       8
#    16  16  16  16  16  16  16  16
#     4  10  21  36  54  78 107 142 186 232 278 329
#     4   9  17  32  53  75 102 138 182 227 269 319
#     4  10  22  38  59  90 121 147 177 221 279 337
#     4  11  22  34  50  75 106 142 185 235 287 336
#     4   9  20  36  56  82 109 144 181 219 272 329
#     4   9  18  36  59  80 107 147 190 227 265 323
#     4  10  21  35  51  73 102 140 187 232 275 329
#     4  10  20  32  48  71 102 141 184 232 284 333
#
# _framework density 18.824757000000002
#
# number of rings (size 3 to 8) (size 9 to 14) (size 15 to 20)
#    0.000    2.250    1.250    1.125    1.750    4.000 
#    0.000    1.875    0.000    1.125    0.000    8.750 
#    0.000    0.000    0.000    0.000    0.000    0.000 
#
# Total GULP energy -356963.407469 kJ/mol
# GULP energy per Si atom -5577.553242 kJ/mol
# Density = 1.878191 g / cm^3
# Si number density = 18.824757 Si / 1000 Ang^3
#
#
#
# Elastic Constant Matrix: (Units=GPa)
#
#
# Indices 1 2 3 4 5 6 
#
# 1 59.1267 -4.9740 30.8934 0.0000 0.0000 0.0000
# 2 -4.9740 29.7515 8.0701 0.0000 0.0000 0.0000
# 3 30.8934 8.0701 109.6743 0.0000 0.0000 0.0000
# 4 0.0000 0.0000 0.0000 2.0253 0.0000 0.0000
# 5 0.0000 0.0000 0.0000 0.0000 14.6574 0.0000
# 6 0.0000 0.0000 0.0000 0.0000 0.0000 -0.5975
#
#
#
# Elastic Compliance Matrix: (Units=1/GPa)
#
#
# Indices 1 2 3 4 5 6 
#
# 1 0.020566 0.005112 -0.006169 0.000000 0.000000 0.000000
# 2 0.005112 0.035567 -0.004057 0.000000 0.000000 0.000000
# 3 -0.006169 -0.004057 0.011154 0.000000 0.000000 0.000000
# 4 0.000000 0.000000 0.000000 0.493743 0.000000 0.000000
# 5 0.000000 0.000000 0.000000 0.000000 0.068225 0.000000
# 6 0.000000 0.000000 0.000000 0.000000 0.000000 -1.673655
#
#
# Mechanical properties :
#
#
# Convention : Reuss Voigt Hill
#
# Bulk Modulus (GPa) = 17.52593 29.61461 23.57027
# Shear Modulus (GPa) = -4.92537 14.18791 4.63127
#
# Velocity S-wave (km/s) = -1.61929 2.74831 1.57020
# Velocity P-wave (km/s) = 2.41539 5.08299 3.97938
#
# Compressibility (1/GPa) = 0.05705830
#
# Stress axis : x y z
#
# Youngs Moduli (GPa) = 48.62325 28.11609 89.65212
#
# Poissons Ratio (x) = -0.14372 0.55309
# Poissons Ratio (y) = -0.24855 0.36372
# Poissons Ratio (z) = 0.29997 0.11407
#
# Static dielectric constant tensor:
#      x y z
#    x 1.654320 0.000000 0.000000 
#    y 0.000000 1.673170 0.000000 
#    z 0.000000 0.000000 1.643020 
# 
# From -- ./inp_files/55095.got.cif
#   From: 2010.05.17/outbox.cif.g08.bks.cpg/sg65_28_cif.got.tgz:55095.got - 2010.06.03 17:01:31.
