data_PCOD9488741
_publ_section_title
;
Structure prediction by ZEFSAII (Michael W. Deem and Ramdas Pophale) SiO2 
 PCOD9488741
Probable space group: C M M M
;
_chemical_formula_sum "Si O2"
_cell_formula_units_Z 96
_cell_length_a 31.872829
_cell_length_b 19.377286
_cell_length_c 9.232114
_cell_angle_alpha 90.000000
_cell_angle_beta 90.000000
_cell_angle_gamma 90.000000
_cell_volume 5701.835986
_symmetry_space_group_name_H-M "C M M M"
_symmetry_group_IT_number 65
_symmetry_cell_setting 'orthorhombic'
loop_
_space_group_symop_operation_xyz
x,y,z
-x,-y,z
x,-y,-z
-x,y,-z
-x,-y,-z
x,y,-z
-x,y,z
x,-y,z
1/2+x,1/2+y,z
1/2-x,1/2-y,z
1/2+x,1/2-y,-z
1/2-x,1/2+y,-z
1/2-x,1/2-y,-z
1/2+x,1/2+y,-z
1/2-x,1/2+y,z
1/2+x,1/2-y,z
loop_
_atom_site_type_symbol
_atom_site_label
_atom_site_fract_x
_atom_site_fract_y
_atom_site_fract_z
Si Si1 0.879906 0.583152 0.331348
Si Si2 0.787535 0.915917 0.332687
Si Si3 0.451548 0.833207 0.172651
Si Si4 0.795440 0.584108 0.166270
Si Si5 0.048159 0.186438 0.673170
Si Si6 0.619429 0.420896 0.323572
O O1 0.880925 0.602938 0.500000
O O2 0.882110 0.500000 0.322885
O O3 0.918534 0.616118 0.246417
O O4 0.835951 0.605085 0.258765
O O5 0.782019 0.894370 0.500000
O O6 0.748253 0.892853 0.237629
O O7 0.834016 0.896044 0.279481
O O8 0.787815 0.000000 0.332907
O O9 0.500000 0.853822 0.201329
O O10 0.445757 0.757518 0.241550
O O11 0.445567 0.831145 0.000000
O O12 0.794801 0.500000 0.167725
O O13 0.799171 0.606169 0.000000
O O14 0.053020 0.198676 0.500000
O O15 0.082058 0.129618 0.719068
O O16 0.000000 0.163178 0.696408
O O17 0.620350 0.422529 0.500000
O O18 0.613048 0.500000 0.275059
#
# Coordination Sequence:
#
# PCOD9488741 Si02
#       6
#    16  16  16  16  16  16
#     4  10  20  33  51  75  99 122 152 192 236 280
#     4   8  13  23  40  62  91 126 160 192 229 276
#     4  10  21  36  52  69  93 127 162 194 233 283
#     4   9  16  26  42  66  96 126 155 188 228 276
#     4   9  17  30  49  71  95 126 164 202 239 283
#     4   8  14  25  44  72 101 127 159 201 244 281
#
# _framework density 16.836680999999999
#
# number of rings (size 3 to 8) (size 9 to 14) (size 15 to 20)
#    0.000    3.000    0.000    2.500    0.000    4.667 
#    0.000    4.167    0.000    2.500    0.000    9.333 
#    0.000    0.000    0.000    0.000    0.000    0.000 
#
# Total GULP energy -267400.463190 kJ/mol
# GULP energy per Si atom -5570.842983 kJ/mol
# Density = 1.679836 g / cm^3
# Si number density = 16.836681 Si / 1000 Ang^3
#
#
#
# Elastic Constant Matrix: (Units=GPa)
#
#
# Indices 1 2 3 4 5 6 
#
# 1 157.4053 49.6168 77.5837 0.0000 0.0000 0.0000
# 2 49.6168 22.1501 29.2328 0.0000 0.0000 0.0000
# 3 77.5837 29.2328 82.9263 0.0000 0.0000 0.0000
# 4 0.0000 0.0000 0.0000 11.5924 0.0000 0.0000
# 5 0.0000 0.0000 0.0000 0.0000 17.5671 0.0000
# 6 0.0000 0.0000 0.0000 0.0000 0.0000 -12.5945
#
#
#
# Elastic Compliance Matrix: (Units=1/GPa)
#
#
# Indices 1 2 3 4 5 6 
#
# 1 0.023277 -0.043759 -0.006352 0.000000 0.000000 0.000000
# 2 -0.043759 0.166685 -0.017819 0.000000 0.000000 0.000000
# 3 -0.006352 -0.017819 0.024283 0.000000 0.000000 0.000000
# 4 0.000000 0.000000 0.000000 0.086263 0.000000 0.000000
# 5 0.000000 0.000000 0.000000 0.000000 0.056924 0.000000
# 6 0.000000 0.000000 0.000000 0.000000 0.000000 -0.079400
#
#
# Mechanical properties :
#
#
# Convention : Reuss Voigt Hill
#
# Bulk Modulus (GPa) = 12.75754 63.92759 38.34256
# Shear Modulus (GPa) = 11.36306 10.38291 10.87298
#
# Velocity S-wave (km/s) = 2.60070 2.48601 2.54400
# Velocity P-wave (km/s) = 4.07577 6.80382 5.60820
#
# Compressibility (1/GPa) = 0.07838503
#
# Stress axis : x y z
#
# Youngs Moduli (GPa) = 42.96007 5.99935 41.18046
#
# Poissons Ratio (x) = 0.26252 0.26158
# Poissons Ratio (y) = 1.87988 0.73381
# Poissons Ratio (z) = 0.27289 0.10690
#
# Static dielectric constant tensor:
#      x y z
#    x 1.575560 0.000000 0.000000 
#    y 0.000000 1.543900 0.000000 
#    z 0.000000 0.000000 1.560930 
# 
# From -- ./inp_files/16319.got.cif
#   From: 2010.05.17/outbox.cif.g08.bks.cpg/sg65_9_cif.got.tgz:16319.got - 2010.06.03 17:01:31.
