data_PCOD9488074
_publ_section_title
;
Structure prediction by ZEFSAII (Michael W. Deem and Ramdas Pophale) SiO2 
 PCOD9488074
Probable space group: C M M M
;
_chemical_formula_sum "Si O2"
_cell_formula_units_Z 96
_cell_length_a 19.115287
_cell_length_b 9.065834
_cell_length_c 31.763485
_cell_angle_alpha 90.000000
_cell_angle_beta 90.000000
_cell_angle_gamma 90.000000
_cell_volume 5504.485494
_symmetry_space_group_name_H-M "C M M M"
_symmetry_group_IT_number 65
_symmetry_cell_setting 'orthorhombic'
loop_
_space_group_symop_operation_xyz
x,y,z
-x,-y,z
x,-y,-z
-x,y,-z
-x,-y,-z
x,y,-z
-x,y,z
x,-y,z
1/2+x,1/2+y,z
1/2-x,1/2-y,z
1/2+x,1/2-y,-z
1/2-x,1/2+y,-z
1/2-x,1/2-y,-z
1/2+x,1/2+y,-z
1/2-x,1/2+y,z
1/2+x,1/2-y,z
loop_
_atom_site_type_symbol
_atom_site_label
_atom_site_fract_x
_atom_site_fract_y
_atom_site_fract_z
Si Si1 0.585087 0.830335 0.206203
Si Si2 0.419555 0.679476 0.452451
Si Si3 0.174149 0.178399 0.625975
Si Si4 0.174333 0.675859 0.951501
Si Si5 0.917963 0.176766 0.292740
Si Si6 0.584014 0.326588 0.119977
O O1 0.500000 0.827869 0.206292
O O2 0.606350 0.755564 0.250023
O O3 0.607072 0.741812 0.164690
O O4 0.607676 0.000000 0.203928
O O5 0.400637 0.726092 0.500000
O O6 0.500000 0.724288 0.444094
O O7 0.419381 0.500000 0.452154
O O8 0.367349 0.727490 0.415946
O O9 0.250000 0.250000 0.627989
O O10 0.128152 0.216867 0.666954
O O11 0.180001 0.000000 0.624864
O O12 0.179766 0.500000 0.946163
O O13 0.250000 0.750000 0.945332
O O14 0.121055 0.743433 0.918164
O O15 0.152862 0.705345 0.000000
O O16 0.000000 0.213005 0.300131
O O17 0.914133 0.000000 0.286859
O O18 0.500000 0.309451 0.116976
O O19 0.600117 0.500000 0.118662
#
# Coordination Sequence:
#
# PCOD9488074 Si02
#       6
#    16  16  16  16  16  16
#     4   9  17  30  50  76 103 129 161 205 256 305
#     4   8  14  27  49  74  96 122 163 209 244 281
#     4  10  20  32  47  70 100 131 161 198 246 295
#     4  10  21  37  56  77 104 139 177 216 258 306
#     4   9  17  31  51  71  92 123 165 207 244 288
#     4  10  20  34  54  80 109 139 172 212 257 305
#
# _framework density 17.440322999999999
#
# number of rings (size 3 to 8) (size 9 to 14) (size 15 to 20)
#    0.000    2.667    0.000    2.500    0.000    7.333 
#    0.000    2.500    0.000    3.500    0.000    1.167 
#    0.000    0.000    0.000    0.000    0.000    0.000 
#
# Total GULP energy -267681.386746 kJ/mol
# GULP energy per Si atom -5576.695557 kJ/mol
# Density = 1.740063 g / cm^3
# Si number density = 17.440323 Si / 1000 Ang^3
#
#
#
# Elastic Constant Matrix: (Units=GPa)
#
#
# Indices 1 2 3 4 5 6 
#
# 1 69.6579 47.0859 85.6164 0.0000 0.0000 0.0000
# 2 47.0859 64.9198 79.3445 0.0000 0.0000 0.0000
# 3 85.6164 79.3445 179.9980 0.0000 0.0000 0.0000
# 4 0.0000 0.0000 0.0000 19.2227 0.0000 0.0000
# 5 0.0000 0.0000 0.0000 0.0000 -10.6490 0.0000
# 6 0.0000 0.0000 0.0000 0.0000 0.0000 27.7796
#
#
#
# Elastic Compliance Matrix: (Units=1/GPa)
#
#
# Indices 1 2 3 4 5 6 
#
# 1 0.038436 -0.011996 -0.012994 0.000000 0.000000 0.000000
# 2 -0.011996 0.037139 -0.010666 0.000000 0.000000 0.000000
# 3 -0.012994 -0.010666 0.016438 0.000000 0.000000 0.000000
# 4 0.000000 0.000000 0.000000 0.052022 0.000000 0.000000
# 5 0.000000 0.000000 0.000000 0.000000 -0.093905 0.000000
# 6 0.000000 0.000000 0.000000 0.000000 0.000000 0.035998
#
#
# Mechanical properties :
#
#
# Convention : Reuss Voigt Hill
#
# Bulk Modulus (GPa) = 48.30473 82.07437 65.18955
# Shear Modulus (GPa) = 30.42506 14.10593 22.26549
#
# Velocity S-wave (km/s) = 4.18128 2.84705 3.57692
# Velocity P-wave (km/s) = 7.14619 7.61379 7.38370
#
# Compressibility (1/GPa) = 0.02070191
#
# Stress axis : x y z
#
# Youngs Moduli (GPa) = 26.01758 26.92561 60.83554
#
# Poissons Ratio (x) = 0.32299 0.79051
# Poissons Ratio (y) = 0.31210 0.64884
# Poissons Ratio (z) = 0.33808 0.28718
#
# Static dielectric constant tensor:
#      x y z
#    x 1.568260 0.000000 0.000000 
#    y 0.000000 1.585010 0.000000 
#    z 0.000000 0.000000 1.584850 
# 
# From -- ./inp_files/73160.got.cif
#   From: 2010.05.17/outbox.cif.g08.bks.cpg/sg65_37_cif.got.tgz:73160.got - 2010.06.03 17:01:31.
