data_PCOD9488818
_publ_section_title
;
Structure prediction by ZEFSAII (Michael W. Deem and Ramdas Pophale) SiO2 
 PCOD9488818
Probable space group: C M M M
;
_chemical_formula_sum "Si O2"
_cell_formula_units_Z 96
_cell_length_a 8.763536
_cell_length_b 19.289113
_cell_length_c 31.599787
_cell_angle_alpha 90.000000
_cell_angle_beta 90.000000
_cell_angle_gamma 90.000000
_cell_volume 5341.654418
_symmetry_space_group_name_H-M "C M M M"
_symmetry_group_IT_number 65
_symmetry_cell_setting 'orthorhombic'
loop_
_space_group_symop_operation_xyz
x,y,z
-x,-y,z
x,-y,-z
-x,y,-z
-x,-y,-z
x,y,-z
-x,y,z
x,-y,z
1/2+x,1/2+y,z
1/2-x,1/2-y,z
1/2+x,1/2-y,-z
1/2-x,1/2+y,-z
1/2-x,1/2-y,-z
1/2+x,1/2+y,-z
1/2-x,1/2+y,z
1/2+x,1/2-y,z
loop_
_atom_site_type_symbol
_atom_site_label
_atom_site_fract_x
_atom_site_fract_y
_atom_site_fract_z
Si Si1 0.818587 0.825873 0.207794
Si Si2 0.179286 0.582911 0.134792
Si Si3 0.315627 0.580857 0.373087
Si Si4 0.317645 0.173382 0.298624
Si Si5 0.821145 0.084098 0.953376
Si Si6 0.816119 0.825550 0.548186
O O1 0.750000 0.750000 0.198256
O O2 0.773397 0.877729 0.170531
O O3 0.745465 0.847976 0.252556
O O4 0.000000 0.820791 0.212463
O O5 0.205722 0.500000 0.137444
O O6 0.229048 0.606699 0.087808
O O7 0.000000 0.595634 0.141067
O O8 0.500000 0.586264 0.369085
O O9 0.275392 0.500000 0.373430
O O10 0.239206 0.621175 0.334421
O O11 0.270670 0.618568 0.416812
O O12 0.500000 0.177289 0.297603
O O13 0.250000 0.250000 0.307291
O O14 0.000000 0.101941 0.948707
O O15 0.812711 0.000000 0.954029
O O16 0.768472 0.108094 0.000000
O O17 0.768499 0.842767 0.500000
O O18 0.750000 0.750000 0.558832
O O19 0.000000 0.821155 0.548572
#
# Coordination Sequence:
#
# PCOD9488818 Si02
#       6
#    16  16  16  16  16  16
#     4  11  22  38  59  80 105 137 175 217 264 318
#     4  10  20  33  51  78 110 141 176 218 263 312
#     4  10  21  36  54  79 111 144 178 218 266 316
#     4  11  22  38  59  80 104 135 175 218 261 313
#     4   8  14  26  45  70 101 137 177 219 262 309
#     4   9  18  33  54  79 106 140 182 224 264 309
#
# _framework density 17.971958999999998
#
# number of rings (size 3 to 8) (size 9 to 14) (size 15 to 20)
#    0.000    2.167    0.000    5.500    0.000    4.667 
#    0.000    3.333    0.000    0.500    0.000    3.500 
#    0.000    0.000    0.000    0.000    0.000    0.000 
#
# Total GULP energy -267900.944274 kJ/mol
# GULP energy per Si atom -5581.269672 kJ/mol
# Density = 1.793105 g / cm^3
# Si number density = 17.971959 Si / 1000 Ang^3
#
#
#
# Elastic Constant Matrix: (Units=GPa)
#
#
# Indices 1 2 3 4 5 6 
#
# 1 85.0995 47.1016 63.1935 0.0000 0.0000 0.0000
# 2 47.1016 66.0253 81.0214 0.0000 0.0000 0.0000
# 3 63.1935 81.0214 138.0716 0.0000 0.0000 0.0000
# 4 0.0000 0.0000 0.0000 28.7112 0.0000 0.0000
# 5 0.0000 0.0000 0.0000 0.0000 24.2040 0.0000
# 6 0.0000 0.0000 0.0000 0.0000 0.0000 23.8072
#
#
#
# Elastic Compliance Matrix: (Units=1/GPa)
#
#
# Indices 1 2 3 4 5 6 
#
# 1 0.019706 -0.010683 -0.002750 0.000000 0.000000 0.000000
# 2 -0.010683 0.059900 -0.030260 0.000000 0.000000 0.000000
# 3 -0.002750 -0.030260 0.026258 0.000000 0.000000 0.000000
# 4 0.000000 0.000000 0.000000 0.034830 0.000000 0.000000
# 5 0.000000 0.000000 0.000000 0.000000 0.041315 0.000000
# 6 0.000000 0.000000 0.000000 0.000000 0.000000 0.042004
#
#
# Mechanical properties :
#
#
# Convention : Reuss Voigt Hill
#
# Bulk Modulus (GPa) = 54.12082 74.64770 64.38426
# Shear Modulus (GPa) = 15.74502 21.86980 18.80741
#
# Velocity S-wave (km/s) = 2.96309 3.49217 3.23845
# Velocity P-wave (km/s) = 6.47193 7.60830 7.06301
#
# Compressibility (1/GPa) = 0.01847718
#
# Stress axis : x y z
#
# Youngs Moduli (GPa) = 50.74497 16.69445 38.08318
#
# Poissons Ratio (x) = 0.17835 0.10474
# Poissons Ratio (y) = 0.54212 1.15241
# Poissons Ratio (z) = 0.13957 0.50518
#
# Static dielectric constant tensor:
#      x y z
#    x 1.603150 0.000000 0.000000 
#    y 0.000000 1.588480 0.000000 
#    z 0.000000 0.000000 1.620830 
# 
# From -- ./inp_files/73206.got.cif
#   From: 2010.05.17/outbox.cif.g08.bks.cpg/sg65_37_cif.got.tgz:73206.got - 2010.06.03 17:01:31.
