data_PCOD9488777
_publ_section_title
;
Structure prediction by ZEFSAII (Michael W. Deem and Ramdas Pophale) SiO2 
 PCOD9488777
Probable space group: C M M M
;
_chemical_formula_sum "Si O2"
_cell_formula_units_Z 104
_cell_length_a 25.116786
_cell_length_b 29.414573
_cell_length_c 7.788937
_cell_angle_alpha 90.000000
_cell_angle_beta 90.000000
_cell_angle_gamma 90.000000
_cell_volume 5754.463036
_symmetry_space_group_name_H-M "C M M M"
_symmetry_group_IT_number 65
_symmetry_cell_setting 'orthorhombic'
loop_
_space_group_symop_operation_xyz
x,y,z
-x,-y,z
x,-y,-z
-x,y,-z
-x,-y,-z
x,y,-z
-x,y,z
x,-y,z
1/2+x,1/2+y,z
1/2-x,1/2-y,z
1/2+x,1/2-y,-z
1/2-x,1/2+y,-z
1/2-x,1/2-y,-z
1/2+x,1/2+y,-z
1/2-x,1/2+y,z
1/2+x,1/2-y,z
loop_
_atom_site_type_symbol
_atom_site_label
_atom_site_fract_x
_atom_site_fract_y
_atom_site_fract_z
Si Si1 0.187109 0.693479 0.209167
Si Si2 0.654450 0.383324 0.694301
Si Si3 0.936110 0.445365 0.500000
Si Si4 0.060750 0.948688 0.792448
Si Si5 0.748945 0.051284 0.794002
Si Si6 0.307193 0.706947 0.198502
Si Si7 0.864023 0.401219 0.208669
O O1 0.249144 0.691413 0.267941
O O2 0.171625 0.744706 0.266033
O O3 0.151304 0.650665 0.261575
O O4 0.186271 0.689618 0.000000
O O5 0.657837 0.368540 0.500000
O O6 0.602489 0.412925 0.725548
O O7 0.705149 0.414882 0.733925
O O8 0.655370 0.336347 0.795256
O O9 0.925881 0.500000 0.500000
O O10 0.909088 0.422549 0.330945
O O11 0.000000 0.438738 0.500000
O O12 0.000000 0.939845 0.739476
O O13 0.075084 0.000000 0.738064
O O14 0.062337 0.948013 0.000000
O O15 0.690350 0.070504 0.757938
O O16 0.755728 0.000000 0.727066
O O17 0.753806 0.049775 0.000000
O O18 0.296534 0.716792 0.000000
O O19 0.874804 0.403307 0.000000
#
# Coordination Sequence:
#
# PCOD9488777 Si02
#       7
#    16  16   8  16  16  16  16
#     4   8  15  30  56  83 107 141 183 223 272 328
#     4  12  23  31  45  77 115 147 178 221 276 328
#     4  11  26  44  62  87 116 152 195 234 282 346
#     4   9  19  37  58  74  92 132 189 236 272 317
#     4  10  20  33  51  76 108 148 185 221 275 335
#     4   9  16  31  52  76 110 146 180 221 267 327
#     4  10  20  38  62  88 116 149 189 236 286 338
#
# _framework density 18.072928000000001
#
# number of rings (size 3 to 8) (size 9 to 14) (size 15 to 20)
#    0.000    2.231    1.538    3.692    1.077    4.000 
#    1.385    2.308    0.000    0.923    0.000    2.154 
#    0.000    0.000    0.000    0.000    0.000    0.000 
#
# Total GULP energy -289816.900968 kJ/mol
# GULP energy per Si atom -5573.401942 kJ/mol
# Density = 1.803179 g / cm^3
# Si number density = 18.072928 Si / 1000 Ang^3
#
#
#
# Elastic Constant Matrix: (Units=GPa)
#
#
# Indices 1 2 3 4 5 6 
#
# 1 58.2641 56.2279 24.1864 0.0000 0.0000 0.0000
# 2 56.2279 150.5184 28.3203 0.0000 0.0000 0.0000
# 3 24.1864 28.3203 47.1939 0.0000 0.0000 0.0000
# 4 0.0000 0.0000 0.0000 -36.9358 0.0000 0.0000
# 5 0.0000 0.0000 0.0000 0.0000 49.8016 0.0000
# 6 0.0000 0.0000 0.0000 0.0000 0.0000 -16.0582
#
#
#
# Elastic Compliance Matrix: (Units=1/GPa)
#
#
# Indices 1 2 3 4 5 6 
#
# 1 0.030453 -0.009514 -0.009898 0.000000 0.000000 0.000000
# 2 -0.009514 0.010462 -0.001402 0.000000 0.000000 0.000000
# 3 -0.009898 -0.001402 0.027103 0.000000 0.000000 0.000000
# 4 0.000000 0.000000 0.000000 -0.027074 0.000000 0.000000
# 5 0.000000 0.000000 0.000000 0.000000 0.020080 0.000000
# 6 0.000000 0.000000 0.000000 0.000000 0.000000 -0.062273
#
#
# Mechanical properties :
#
#
# Convention : Reuss Voigt Hill
#
# Bulk Modulus (GPa) = 37.89266 52.60506 45.24886
# Shear Modulus (GPa) = 101.67792 9.17764 55.42778
#
# Velocity S-wave (km/s) = 7.50879 2.25591 5.54396
# Velocity P-wave (km/s) = 9.80755 5.99632 8.12846
#
# Compressibility (1/GPa) = 0.02639034
#
# Stress axis : x y z
#
# Youngs Moduli (GPa) = 32.83700 95.58838 36.89619
#
# Poissons Ratio (x) = 0.90942 0.36520
# Poissons Ratio (y) = 0.31241 0.05173
# Poissons Ratio (z) = 0.32502 0.13401
#
# Static dielectric constant tensor:
#      x y z
#    x 1.587270 0.000000 0.000000 
#    y 0.000000 1.732150 0.000000 
#    z 0.000000 0.000000 1.673700 
# 
# From -- ./inp_files/15060.got.cif
#   From: 2010.05.17/outbox.cif.g08.bks.cpg/sg65_8_cif.got.tgz:15060.got - 2010.06.03 17:01:31.
