data_PCOD9488977
_publ_section_title
;
Structure prediction by ZEFSAII (Michael W. Deem and Ramdas Pophale) SiO2 
 PCOD9488977
Probable space group: C M M M
;
_chemical_formula_sum "Si O2"
_cell_formula_units_Z 88
_cell_length_a 7.611723
_cell_length_b 29.299732
_cell_length_c 18.830800
_cell_angle_alpha 90.000000
_cell_angle_beta 90.000000
_cell_angle_gamma 90.000000
_cell_volume 4199.672207
_symmetry_space_group_name_H-M "C M M M"
_symmetry_group_IT_number 65
_symmetry_cell_setting 'orthorhombic'
loop_
_space_group_symop_operation_xyz
x,y,z
-x,-y,z
x,-y,-z
-x,y,-z
-x,-y,-z
x,y,-z
-x,y,z
x,-y,z
1/2+x,1/2+y,z
1/2-x,1/2-y,z
1/2+x,1/2-y,-z
1/2-x,1/2+y,-z
1/2-x,1/2-y,-z
1/2+x,1/2+y,-z
1/2-x,1/2+y,z
1/2+x,1/2-y,z
loop_
_atom_site_type_symbol
_atom_site_label
_atom_site_fract_x
_atom_site_fract_y
_atom_site_fract_z
Si Si1 0.789226 0.696893 0.218289
Si Si2 0.788405 0.696198 0.500000
Si Si3 0.784555 0.645540 0.078518
Si Si4 0.290683 0.853476 0.358652
Si Si5 0.707179 0.949525 0.137415
Si Si6 0.209968 0.050968 0.302159
O O1 0.750000 0.750000 0.225552
O O2 0.724096 0.676827 0.143610
O O3 0.719683 0.669375 0.286417
O O4 0.000000 0.690986 0.217614
O O5 0.750000 0.750000 0.500000
O O6 0.721017 0.671108 0.570940
O O7 0.000000 0.691557 0.500000
O O8 0.724174 0.593846 0.094911
O O9 0.000000 0.645400 0.079390
O O10 0.729672 0.660212 0.000000
O O11 0.500000 0.845892 0.358489
O O12 0.262292 0.907580 0.352671
O O13 0.500000 0.951916 0.121431
O O14 0.724367 0.940240 0.221788
O O15 0.783065 0.000000 0.123639
O O16 0.000000 0.050166 0.298726
O O17 0.271460 0.000000 0.322744
#
# Coordination Sequence:
#
# PCOD9488977 Si02
#       6
#    16   8  16  16  16  16
#     4  10  20  34  52  74 100 134 175 217 261 310
#     4  10  22  38  59  86 115 143 176 221 269 316
#     4   9  17  30  48  73 105 136 171 217 262 308
#     4  10  20  37  58  81 108 140 177 215 260 314
#     4   9  16  29  51  76 103 137 174 215 263 314
#     4  10  20  33  53  82 111 140 176 217 261 312
#
# _framework density 20.954014999999998
#
# number of rings (size 3 to 8) (size 9 to 14) (size 15 to 20)
#    0.000    2.364    1.818    1.091    0.000    3.273 
#    0.000    2.273    0.000    4.364    0.000    2.545 
#    0.000    0.000    0.000    0.000    0.000    0.000 
#
# Total GULP energy -245629.732557 kJ/mol
# GULP energy per Si atom -5582.493922 kJ/mol
# Density = 2.090632 g / cm^3
# Si number density = 20.954015 Si / 1000 Ang^3
#
#
#
# Elastic Constant Matrix: (Units=GPa)
#
#
# Indices 1 2 3 4 5 6 
#
# 1 41.8257 -7.6138 9.3993 0.0000 0.0000 0.0000
# 2 -7.6138 137.6726 91.0467 0.0000 0.0000 0.0000
# 3 9.3993 91.0467 154.9875 0.0000 0.0000 0.0000
# 4 0.0000 0.0000 0.0000 20.8541 0.0000 0.0000
# 5 0.0000 0.0000 0.0000 0.0000 -9.7194 0.0000
# 6 0.0000 0.0000 0.0000 0.0000 0.0000 19.4003
#
#
#
# Elastic Compliance Matrix: (Units=1/GPa)
#
#
# Indices 1 2 3 4 5 6 
#
# 1 0.025506 0.003980 -0.003885 0.000000 0.000000 0.000000
# 2 0.003980 0.012499 -0.007584 0.000000 0.000000 0.000000
# 3 -0.003885 -0.007584 0.011143 0.000000 0.000000 0.000000
# 4 0.000000 0.000000 0.000000 0.047952 0.000000 0.000000
# 5 0.000000 0.000000 0.000000 0.000000 -0.102887 0.000000
# 6 0.000000 0.000000 0.000000 0.000000 0.000000 0.051545
#
#
# Mechanical properties :
#
#
# Convention : Reuss Voigt Hill
#
# Bulk Modulus (GPa) = 29.26521 57.79446 43.52983
# Shear Modulus (GPa) = 69.32245 22.21723 45.76984
#
# Velocity S-wave (km/s) = 5.75803 3.25973 4.67872
# Velocity P-wave (km/s) = 7.62911 6.46601 7.07151
#
# Compressibility (1/GPa) = 0.03417027
#
# Stress axis : x y z
#
# Youngs Moduli (GPa) = 39.20621 80.00543 89.74359
#
# Poissons Ratio (x) = -0.31839 0.34862
# Poissons Ratio (y) = -0.15602 0.68061
# Poissons Ratio (z) = 0.15230 0.60675
#
# Static dielectric constant tensor:
#      x y z
#    x 1.771480 0.000000 0.000000 
#    y 0.000000 1.728870 0.000000 
#    z 0.000000 0.000000 1.738870 
# 
# From -- ./inp_files/50290.got.cif
#   From: 2010.05.17/outbox.cif.g08.bks.cpg/sg65_26_cif.got.tgz:50290.got - 2010.06.03 17:01:31.
