data_PCOD9488774
_publ_section_title
;
Structure prediction by ZEFSAII (Michael W. Deem and Ramdas Pophale) SiO2 
 PCOD9488774
Probable space group: C M M M
;
_chemical_formula_sum "Si O2"
_cell_formula_units_Z 48
_cell_length_a 7.829783
_cell_length_b 39.092674
_cell_length_c 8.465250
_cell_angle_alpha 90.000000
_cell_angle_beta 90.000000
_cell_angle_gamma 90.000000
_cell_volume 2591.104283
_symmetry_space_group_name_H-M "C M M M"
_symmetry_group_IT_number 65
_symmetry_cell_setting 'orthorhombic'
loop_
_space_group_symop_operation_xyz
x,y,z
-x,-y,z
x,-y,-z
-x,y,-z
-x,-y,-z
x,y,-z
-x,y,z
x,-y,z
1/2+x,1/2+y,z
1/2-x,1/2-y,z
1/2+x,1/2-y,-z
1/2-x,1/2+y,-z
1/2-x,1/2-y,-z
1/2+x,1/2+y,-z
1/2-x,1/2+y,z
1/2+x,1/2-y,z
loop_
_atom_site_type_symbol
_atom_site_label
_atom_site_fract_x
_atom_site_fract_y
_atom_site_fract_z
Si Si1 0.000000 0.663159 0.191000
Si Si2 0.806435 0.788198 0.192825
Si Si3 0.695886 0.539311 0.190820
Si Si4 0.500000 0.913873 0.686951
O O1 0.167546 0.684056 0.244654
O O2 0.000000 0.624267 0.244844
O O3 0.000000 0.663740 0.000000
O O4 0.750000 0.750000 0.240518
O O5 0.000000 0.795175 0.244447
O O6 0.806133 0.788316 0.000000
O O7 0.500000 0.547020 0.237458
O O8 0.733815 0.500000 0.238201
O O9 0.833811 0.565273 0.256764
O O10 0.702984 0.540406 0.000000
O O11 0.500000 0.912033 0.500000
#
# Coordination Sequence:
#
# PCOD9488774 Si02
#       4
#     8  16  16   8
#     4  10  20  33  51  76 106 141 182 228 277 329
#     4   9  15  26  48  78 104 125 161 222 286 331
#     4   9  19  38  64  89 111 141 186 237 285 333
#     4  12  25  37  52  79 120 160 192 226 272 333
#
# _framework density 18.524920000000002
#
# number of rings (size 3 to 8) (size 9 to 14) (size 15 to 20)
#    0.000    2.333    1.667    3.000    0.000    4.667 
#    0.000    5.000    0.000    1.000    0.000    0.000 
#    0.000    0.000    0.000    0.000    0.000    0.000 
#
# Total GULP energy -133957.791734 kJ/mol
# GULP energy per Si atom -5581.574656 kJ/mol
# Density = 1.848276 g / cm^3
# Si number density = 18.524920 Si / 1000 Ang^3
#
#
#
# Elastic Constant Matrix: (Units=GPa)
#
#
# Indices 1 2 3 4 5 6 
#
# 1 201.1077 137.1830 29.5656 0.0000 0.0000 0.0000
# 2 137.1830 182.8069 27.1140 0.0000 0.0000 0.0000
# 3 29.5656 27.1140 14.6991 0.0000 0.0000 0.0000
# 4 0.0000 0.0000 0.0000 -21.4651 0.0000 0.0000
# 5 0.0000 0.0000 0.0000 0.0000 -103.8298 0.0000
# 6 0.0000 0.0000 0.0000 0.0000 0.0000 -13.2229
#
#
#
# Elastic Compliance Matrix: (Units=1/GPa)
#
#
# Indices 1 2 3 4 5 6 
#
# 1 0.011086 -0.006900 -0.009571 0.000000 0.000000 0.000000
# 2 -0.006900 0.011825 -0.007934 0.000000 0.000000 0.000000
# 3 -0.009571 -0.007934 0.101918 0.000000 0.000000 0.000000
# 4 0.000000 0.000000 0.000000 -0.046587 0.000000 0.000000
# 5 0.000000 0.000000 0.000000 0.000000 -0.009631 0.000000
# 6 0.000000 0.000000 0.000000 0.000000 0.000000 -0.075627
#
#
# Mechanical properties :
#
#
# Convention : Reuss Voigt Hill
#
# Bulk Modulus (GPa) = 13.15465 87.37102 50.26284
# Shear Modulus (GPa) = 74.47914 -14.05347 30.21283
#
# Velocity S-wave (km/s) = 6.34761 -2.75730 4.04286
# Velocity P-wave (km/s) = 7.79996 6.09340 6.99888
#
# Compressibility (1/GPa) = 0.07601872
#
# Stress axis : x y z
#
# Youngs Moduli (GPa) = 90.20309 84.56861 9.81183
#
# Poissons Ratio (x) = 0.58350 0.09391
# Poissons Ratio (y) = 0.62237 0.07785
# Poissons Ratio (z) = 0.86336 0.67097
#
# Static dielectric constant tensor:
#      x y z
#    x 1.639880 0.000000 0.000000 
#    y 0.000000 1.606960 0.000000 
#    z 0.000000 0.000000 1.621690 
# 
# From -- ./inp_files/3112.got.cif
#   From: 2010.05.17/outbox.cif.g08.bks.cpg/sg65_2_cif.got.tgz:3112.got - 2010.06.03 17:01:31.
