data_PCOD9488944
_publ_section_title
;
Structure prediction by ZEFSAII (Michael W. Deem and Ramdas Pophale) SiO2 
 PCOD9488944
Probable space group: C M M M
;
_chemical_formula_sum "Si O2"
_cell_formula_units_Z 116
_cell_length_a 30.095010
_cell_length_b 7.824344
_cell_length_c 25.655403
_cell_angle_alpha 90.000000
_cell_angle_beta 90.000000
_cell_angle_gamma 90.000000
_cell_volume 6041.172950
_symmetry_space_group_name_H-M "C M M M"
_symmetry_group_IT_number 65
_symmetry_cell_setting 'orthorhombic'
loop_
_space_group_symop_operation_xyz
x,y,z
-x,-y,z
x,-y,-z
-x,y,-z
-x,-y,-z
x,y,-z
-x,y,z
x,-y,z
1/2+x,1/2+y,z
1/2-x,1/2-y,z
1/2+x,1/2-y,-z
1/2-x,1/2+y,-z
1/2-x,1/2-y,-z
1/2+x,1/2+y,-z
1/2-x,1/2+y,z
1/2+x,1/2-y,z
loop_
_atom_site_type_symbol
_atom_site_label
_atom_site_fract_x
_atom_site_fract_y
_atom_site_fract_z
Si Si1 0.949857 0.298785 0.728282
Si Si2 0.391666 0.298371 0.056657
Si Si3 0.201737 0.303017 0.217798
Si Si4 0.305249 0.000000 0.500000
Si Si5 0.800227 0.295299 0.101034
Si Si6 0.799136 0.791739 0.591682
Si Si7 0.948524 0.793718 0.153356
Si Si8 0.641362 0.302491 0.310726
O O1 0.951018 0.500000 0.718117
O O2 0.937522 0.272140 0.788982
O O3 0.911310 0.221891 0.692896
O O4 0.000000 0.229137 0.721189
O O5 0.402466 0.500000 0.055452
O O6 0.339348 0.279147 0.066250
O O7 0.417439 0.227528 0.107041
O O8 0.403851 0.225552 0.000000
O O9 0.206012 0.500000 0.205997
O O10 0.250000 0.250000 0.238584
O O11 0.193469 0.224173 0.160558
O O12 0.164258 0.281701 0.260760
O O13 0.304292 0.155112 0.544964
O O14 0.805200 0.500000 0.099093
O O15 0.750000 0.250000 0.085590
O O16 0.750000 0.750000 0.613555
O O17 0.836062 0.750989 0.635172
O O18 0.801067 0.000000 0.578512
O O19 0.000000 0.750015 0.142834
O O20 0.945069 0.000000 0.156203
O O21 0.652329 0.500000 0.304641
#
# Coordination Sequence:
#
# PCOD9488944 Si02
#       8
#    16  16  16   4  16  16  16  16
#     4  10  21  36  57  83 113 147 183 226 280 343
#     4  10  21  35  51  73 101 133 173 223 274 323
#     4  10  20  33  53  77 110 145 179 220 273 339
#     4  12  24  40  66  82 125 176 199 260 288 326
#     4  10  21  36  53  74  96 132 177 219 269 330
#     4  11  24  38  59  91 121 163 213 246 290 341
#     4   9  18  34  56  80 106 139 177 216 268 335
#     4  11  23  36  54  84 119 150 188 236 281 335
#
# _framework density 19.201568999999999
#
# number of rings (size 3 to 8) (size 9 to 14) (size 15 to 20)
#    0.000    1.793    0.690    3.310    1.931    7.172 
#    0.000    1.379    0.000    0.000    0.000    3.862 
#    0.000    2.207    0.000    0.000    0.000    0.000 
#
# Total GULP energy -323037.975689 kJ/mol
# GULP energy per Si atom -5569.620271 kJ/mol
# Density = 1.915787 g / cm^3
# Si number density = 19.201569 Si / 1000 Ang^3
#
#
#
# Elastic Constant Matrix: (Units=GPa)
#
#
# Indices 1 2 3 4 5 6 
#
# 1 77.4453 0.5296 48.4526 0.0000 0.0000 0.0000
# 2 0.5296 47.9395 11.3559 0.0000 0.0000 0.0000
# 3 48.4526 11.3559 63.5852 0.0000 0.0000 0.0000
# 4 0.0000 0.0000 0.0000 12.5370 0.0000 0.0000
# 5 0.0000 0.0000 0.0000 0.0000 -34.4014 0.0000
# 6 0.0000 0.0000 0.0000 0.0000 0.0000 20.6056
#
#
#
# Elastic Compliance Matrix: (Units=1/GPa)
#
#
# Indices 1 2 3 4 5 6 
#
# 1 0.025584 0.004527 -0.020304 0.000000 0.000000 0.000000
# 2 0.004527 0.022582 -0.007483 0.000000 0.000000 0.000000
# 3 -0.020304 -0.007483 0.032535 0.000000 0.000000 0.000000
# 4 0.000000 0.000000 0.000000 0.079764 0.000000 0.000000
# 5 0.000000 0.000000 0.000000 0.000000 -0.029069 0.000000
# 6 0.000000 0.000000 0.000000 0.000000 0.000000 0.048531
#
#
# Mechanical properties :
#
#
# Convention : Reuss Voigt Hill
#
# Bulk Modulus (GPa) = 29.25495 34.40515 31.83005
# Shear Modulus (GPa) = 21.02246 8.32369 14.67308
#
# Velocity S-wave (km/s) = 3.31241 2.08430 2.76734
# Velocity P-wave (km/s) = 5.46793 4.87331 5.17916
#
# Compressibility (1/GPa) = 0.03418225
#
# Stress axis : x y z
#
# Youngs Moduli (GPa) = 39.08638 44.28286 30.73595
#
# Poissons Ratio (x) = -0.20047 0.62406
# Poissons Ratio (y) = -0.17694 0.22999
# Poissons Ratio (z) = 0.79361 0.33135
#
# Static dielectric constant tensor:
#      x y z
#    x 1.677970 0.000000 0.000000 
#    y 0.000000 1.697790 0.000000 
#    z 0.000000 0.000000 1.704480 
# 
# From -- ./inp_files/68616.got.cif
#   From: 2010.05.17/outbox.cif.g08.bks.cpg/sg65_35_cif.got.tgz:68616.got - 2010.06.03 17:01:31.
