data_PCOD9488165
_publ_section_title
;
Structure prediction by ZEFSAII (Michael W. Deem and Ramdas Pophale) SiO2 
 PCOD9488165
Probable space group: C M M M
;
_chemical_formula_sum "Si O2"
_cell_formula_units_Z 80
_cell_length_a 19.564686
_cell_length_b 8.543649
_cell_length_c 26.385031
_cell_angle_alpha 90.000000
_cell_angle_beta 90.000000
_cell_angle_gamma 90.000000
_cell_volume 4410.358458
_symmetry_space_group_name_H-M "C M M M"
_symmetry_group_IT_number 65
_symmetry_cell_setting 'orthorhombic'
loop_
_space_group_symop_operation_xyz
x,y,z
-x,-y,z
x,-y,-z
-x,y,-z
-x,-y,-z
x,y,-z
-x,y,z
x,-y,z
1/2+x,1/2+y,z
1/2-x,1/2-y,z
1/2+x,1/2-y,-z
1/2-x,1/2+y,-z
1/2-x,1/2-y,-z
1/2+x,1/2+y,-z
1/2-x,1/2+y,z
1/2+x,1/2-y,z
loop_
_atom_site_type_symbol
_atom_site_label
_atom_site_fract_x
_atom_site_fract_y
_atom_site_fract_z
Si Si1 0.672975 0.689660 0.850162
Si Si2 0.578222 0.690694 0.057673
Si Si3 0.826621 0.812570 0.557147
Si Si4 0.578959 0.812810 0.646257
Si Si5 0.078986 0.188911 0.243713
O O1 0.674097 0.500000 0.850419
O O2 0.750000 0.750000 0.848846
O O3 0.632147 0.742820 0.900398
O O4 0.629086 0.740049 0.801148
O O5 0.500000 0.737523 0.069880
O O6 0.578611 0.500000 0.057988
O O7 0.593782 0.740223 0.000000
O O8 0.848238 0.764866 0.500000
O O9 0.750000 0.750000 0.564798
O O10 0.875471 0.749050 0.600612
O O11 0.825616 0.000000 0.559135
O O12 0.500000 0.762773 0.639245
O O13 0.600991 0.749740 0.701246
O O14 0.581417 0.000000 0.647105
O O15 0.000000 0.239124 0.234841
O O16 0.079090 0.000000 0.244583
#
# Coordination Sequence:
#
# PCOD9488165 Si02
#       5
#    16  16  16  16  16
#     4  10  20  32  48  73 102 131 164 204 253 304
#     4   8  14  27  49  74  97 125 166 211 248 288
#     4  10  21  37  57  80 107 140 176 213 255 305
#     4  10  21  36  55  80 108 137 171 213 260 308
#     4   9  18  34  54  72  94 129 173 216 253 295
#
# _framework density 18.139116000000001
#
# number of rings (size 3 to 8) (size 9 to 14) (size 15 to 20)
#    0.000    2.600    0.000    2.400    0.000    7.200 
#    0.000    4.000    0.000    1.800    0.000    1.400 
#    0.000    0.000    0.000    0.000    0.000    0.000 
#
# Total GULP energy -223159.897486 kJ/mol
# GULP energy per Si atom -5578.997437 kJ/mol
# Density = 1.809783 g / cm^3
# Si number density = 18.139116 Si / 1000 Ang^3
#
#
#
# Elastic Constant Matrix: (Units=GPa)
#
#
# Indices 1 2 3 4 5 6 
#
# 1 124.9597 22.9227 130.7973 0.0000 0.0000 0.0000
# 2 22.9227 12.3307 31.2419 0.0000 0.0000 0.0000
# 3 130.7973 31.2419 196.7017 0.0000 0.0000 0.0000
# 4 0.0000 0.0000 0.0000 12.3894 0.0000 0.0000
# 5 0.0000 0.0000 0.0000 0.0000 -23.4827 0.0000
# 6 0.0000 0.0000 0.0000 0.0000 0.0000 28.8255
#
#
#
# Elastic Compliance Matrix: (Units=1/GPa)
#
#
# Indices 1 2 3 4 5 6 
#
# 1 0.026767 -0.007804 -0.016559 0.000000 0.000000 0.000000
# 2 -0.007804 0.137986 -0.016727 0.000000 0.000000 0.000000
# 3 -0.016559 -0.016727 0.018752 0.000000 0.000000 0.000000
# 4 0.000000 0.000000 0.000000 0.080714 0.000000 0.000000
# 5 0.000000 0.000000 0.000000 0.000000 -0.042585 0.000000
# 6 0.000000 0.000000 0.000000 0.000000 0.000000 0.034692
#
#
# Mechanical properties :
#
#
# Convention : Reuss Voigt Hill
#
# Bulk Modulus (GPa) = 9.86926 78.21287 44.04107
# Shear Modulus (GPa) = 13.43069 13.48179 13.45624
#
# Velocity S-wave (km/s) = 2.72403 2.72921 2.72662
# Velocity P-wave (km/s) = 3.91746 7.28995 5.85192
#
# Compressibility (1/GPa) = 0.10132473
#
# Stress axis : x y z
#
# Youngs Moduli (GPa) = 37.35939 7.24709 53.32843
#
# Poissons Ratio (x) = 0.05656 0.88308
# Poissons Ratio (y) = 0.29155 0.89202
# Poissons Ratio (z) = 0.61865 0.12122
#
# Static dielectric constant tensor:
#      x y z
#    x 1.595830 0.000000 0.000000 
#    y 0.000000 1.622370 0.000000 
#    z 0.000000 0.000000 1.614400 
# 
# From -- ./inp_files/72743.got.cif
#   From: 2010.05.17/outbox.cif.g08.bks.cpg/sg65_37_cif.got.tgz:72743.got - 2010.06.03 17:01:31.
