data_PCOD9488167
_publ_section_title
;
Structure prediction by ZEFSAII (Michael W. Deem and Ramdas Pophale) SiO2 
 PCOD9488167
Probable space group: C M M M
;
_chemical_formula_sum "Si O2"
_cell_formula_units_Z 96
_cell_length_a 8.866506
_cell_length_b 19.772638
_cell_length_c 31.506628
_cell_angle_alpha 90.000000
_cell_angle_beta 90.000000
_cell_angle_gamma 90.000000
_cell_volume 5523.559707
_symmetry_space_group_name_H-M "C M M M"
_symmetry_group_IT_number 65
_symmetry_cell_setting 'orthorhombic'
loop_
_space_group_symop_operation_xyz
x,y,z
-x,-y,z
x,-y,-z
-x,y,-z
-x,-y,-z
x,y,-z
-x,y,z
x,-y,z
1/2+x,1/2+y,z
1/2-x,1/2-y,z
1/2+x,1/2-y,-z
1/2-x,1/2+y,-z
1/2-x,1/2-y,-z
1/2+x,1/2+y,-z
1/2-x,1/2+y,z
1/2+x,1/2-y,z
loop_
_atom_site_type_symbol
_atom_site_label
_atom_site_fract_x
_atom_site_fract_y
_atom_site_fract_z
Si Si1 0.819468 0.823368 0.204311
Si Si2 0.179455 0.579701 0.134686
Si Si3 0.315983 0.577360 0.376718
Si Si4 0.681643 0.323172 0.302086
Si Si5 0.823029 0.081988 0.953301
Si Si6 0.818127 0.822774 0.548913
O O1 0.750000 0.750000 0.194614
O O2 0.757442 0.877927 0.171569
O O3 0.777966 0.839541 0.253300
O O4 0.000000 0.819969 0.201633
O O5 0.218840 0.500000 0.138366
O O6 0.233660 0.604242 0.088233
O O7 0.000000 0.586011 0.137746
O O8 0.500000 0.575807 0.376630
O O9 0.263505 0.500000 0.376582
O O10 0.269176 0.619884 0.335337
O O11 0.269904 0.619393 0.418364
O O12 0.500000 0.317966 0.304325
O O13 0.750000 0.250000 0.312751
O O14 0.000000 0.098919 0.948905
O O15 0.813133 0.000000 0.954014
O O16 0.770529 0.105645 0.000000
O O17 0.775545 0.837270 0.500000
O O18 0.750000 0.750000 0.560679
O O19 0.000000 0.817937 0.550704
#
# Coordination Sequence:
#
# PCOD9488167 Si02
#       6
#    16  16  16  16  16  16
#     4  10  20  34  52  72  95 125 162 202 245 295
#     4  10  20  32  48  73 103 132 163 201 244 289
#     4   9  17  29  46  70  98 124 154 195 239 282
#     4   9  18  32  51  71  90 119 157 196 237 283
#     4   8  14  26  45  69  97 129 165 203 241 283
#     4   9  17  29  47  70  94 124 161 198 236 279
#
# _framework density 17.380096000000002
#
# number of rings (size 3 to 8) (size 9 to 14) (size 15 to 20)
#    0.000    2.833    0.000    2.000    0.000    3.000 
#    0.000    5.000    0.000    2.500    0.000    2.333 
#    0.000    0.000    0.000    0.000    0.000    0.000 
#
# Total GULP energy -267540.815443 kJ/mol
# GULP energy per Si atom -5573.766988 kJ/mol
# Density = 1.734054 g / cm^3
# Si number density = 17.380096 Si / 1000 Ang^3
#
#
#
# Elastic Constant Matrix: (Units=GPa)
#
#
# Indices 1 2 3 4 5 6 
#
# 1 20.3316 35.6918 41.0398 0.0000 0.0000 0.0000
# 2 35.6918 119.6918 107.6644 0.0000 0.0000 0.0000
# 3 41.0398 107.6644 142.9100 0.0000 0.0000 0.0000
# 4 0.0000 0.0000 0.0000 39.6867 0.0000 0.0000
# 5 0.0000 0.0000 0.0000 0.0000 15.0356 0.0000
# 6 0.0000 0.0000 0.0000 0.0000 0.0000 24.4885
#
#
#
# Elastic Compliance Matrix: (Units=1/GPa)
#
#
# Indices 1 2 3 4 5 6 
#
# 1 0.125700 -0.015553 -0.024380 0.000000 0.000000 0.000000
# 2 -0.015553 0.027844 -0.016511 0.000000 0.000000 0.000000
# 3 -0.024380 -0.016511 0.026437 0.000000 0.000000 0.000000
# 4 0.000000 0.000000 0.000000 0.025197 0.000000 0.000000
# 5 0.000000 0.000000 0.000000 0.000000 0.066509 0.000000
# 6 0.000000 0.000000 0.000000 0.000000 0.000000 0.040836
#
#
# Mechanical properties :
#
#
# Convention : Reuss Voigt Hill
#
# Bulk Modulus (GPa) = 14.90456 72.41394 43.65925
# Shear Modulus (GPa) = 11.16631 22.41132 16.78881
#
# Velocity S-wave (km/s) = 2.53746 3.59483 3.11139
# Velocity P-wave (km/s) = 4.14478 7.68022 6.17110
#
# Compressibility (1/GPa) = 0.06709354
#
# Stress axis : x y z
#
# Youngs Moduli (GPa) = 7.95547 35.91416 37.82510
#
# Poissons Ratio (x) = 0.55857 0.92219
# Poissons Ratio (y) = 0.12373 0.62452
# Poissons Ratio (z) = 0.19396 0.59297
#
# Static dielectric constant tensor:
#      x y z
#    x 1.580190 0.000000 0.000000 
#    y 0.000000 1.563790 0.000000 
#    z 0.000000 0.000000 1.605760 
# 
# From -- ./inp_files/73207.got.cif
#   From: 2010.05.17/outbox.cif.g08.bks.cpg/sg65_37_cif.got.tgz:73207.got - 2010.06.03 17:01:31.
