data_PCOD9488094
_publ_section_title
;
Structure prediction by ZEFSAII (Michael W. Deem and Ramdas Pophale) SiO2 
 PCOD9488094
Probable space group: C M M M
;
_chemical_formula_sum "Si O2"
_cell_formula_units_Z 88
_cell_length_a 18.981928
_cell_length_b 8.094217
_cell_length_c 29.344439
_cell_angle_alpha 90.000000
_cell_angle_beta 90.000000
_cell_angle_gamma 90.000000
_cell_volume 4508.592417
_symmetry_space_group_name_H-M "C M M M"
_symmetry_group_IT_number 65
_symmetry_cell_setting 'orthorhombic'
loop_
_space_group_symop_operation_xyz
x,y,z
-x,-y,z
x,-y,-z
-x,y,-z
-x,-y,-z
x,y,-z
-x,y,z
x,-y,z
1/2+x,1/2+y,z
1/2-x,1/2-y,z
1/2+x,1/2-y,-z
1/2-x,1/2+y,-z
1/2-x,1/2-y,-z
1/2+x,1/2+y,-z
1/2-x,1/2+y,z
1/2+x,1/2-y,z
loop_
_atom_site_type_symbol
_atom_site_label
_atom_site_fract_x
_atom_site_fract_y
_atom_site_fract_z
Si Si1 0.919559 0.802721 0.500000
Si Si2 0.580916 0.699333 0.775207
Si Si3 0.169029 0.302835 0.411927
Si Si4 0.169216 0.199717 0.137946
Si Si5 0.418907 0.800810 0.674352
Si Si6 0.918403 0.201511 0.949035
O O1 0.876803 0.749236 0.455375
O O2 0.000000 0.737432 0.500000
O O3 0.922942 0.000000 0.500000
O O4 0.500000 0.756800 0.780903
O O5 0.580137 0.500000 0.776524
O O6 0.628916 0.758857 0.816709
O O7 0.604963 0.751433 0.724921
O O8 0.168136 0.500000 0.409971
O O9 0.250000 0.250000 0.415810
O O10 0.131356 0.238725 0.365895
O O11 0.250000 0.250000 0.138393
O O12 0.130123 0.259506 0.092195
O O13 0.165074 0.000000 0.137836
O O14 0.500000 0.742257 0.668254
O O15 0.420329 0.000000 0.672307
O O16 0.000000 0.248944 0.941808
O O17 0.916992 0.000000 0.948918
O O18 0.896904 0.254845 0.000000
#
# Coordination Sequence:
#
# PCOD9488094 Si02
#       6
#     8  16  16  16  16  16
#     4  11  24  41  62  87 113 143 182 225 266 313
#     4   9  18  33  53  74  97 130 172 216 256 297
#     4  11  23  39  59  83 114 148 181 219 265 315
#     4  10  20  32  47  71 102 132 164 204 253 307
#     4   9  19  36  57  80 105 136 175 217 262 312
#     4   8  14  27  49  73  94 122 165 212 251 292
#
# _framework density 19.518287999999998
#
# number of rings (size 3 to 8) (size 9 to 14) (size 15 to 20)
#    0.000    2.455    0.000    2.727    0.000    6.909 
#    0.000    5.455    0.000    1.636    0.000    1.273 
#    0.000    0.000    0.000    0.000    0.000    0.000 
#
# Total GULP energy -245608.854730 kJ/mol
# GULP energy per Si atom -5582.019426 kJ/mol
# Density = 1.947386 g / cm^3
# Si number density = 19.518288 Si / 1000 Ang^3
#
#
#
# Elastic Constant Matrix: (Units=GPa)
#
#
# Indices 1 2 3 4 5 6 
#
# 1 151.2289 13.1538 142.1752 0.0000 0.0000 0.0000
# 2 13.1538 17.6335 16.3417 0.0000 0.0000 0.0000
# 3 142.1752 16.3417 230.7706 0.0000 0.0000 0.0000
# 4 0.0000 0.0000 0.0000 -99.4642 0.0000 0.0000
# 5 0.0000 0.0000 0.0000 0.0000 -2.7948 0.0000
# 6 0.0000 0.0000 0.0000 0.0000 0.0000 19.3644
#
#
#
# Elastic Compliance Matrix: (Units=1/GPa)
#
#
# Indices 1 2 3 4 5 6 
#
# 1 0.015858 -0.002970 -0.009560 0.000000 0.000000 0.000000
# 2 -0.002970 0.061250 -0.002507 0.000000 0.000000 0.000000
# 3 -0.009560 -0.002507 0.010401 0.000000 0.000000 0.000000
# 4 0.000000 0.000000 0.000000 -0.010054 0.000000 0.000000
# 5 0.000000 0.000000 0.000000 0.000000 -0.357805 0.000000
# 6 0.000000 0.000000 0.000000 0.000000 0.000000 0.051641
#
#
# Mechanical properties :
#
#
# Convention : Reuss Voigt Hill
#
# Bulk Modulus (GPa) = 17.41134 82.55271 49.98202
# Shear Modulus (GPa) = -27.85679 -1.38145 -14.61912
#
# Velocity S-wave (km/s) = -3.78195 -0.84220 -2.73975
# Velocity P-wave (km/s) = 3.18292 6.43748 3.95665
#
# Compressibility (1/GPa) = 0.05743384
#
# Stress axis : x y z
#
# Youngs Moduli (GPa) = 63.05830 16.32661 96.14848
#
# Poissons Ratio (x) = 0.04849 0.91916
# Poissons Ratio (y) = 0.18729 0.24109
# Poissons Ratio (z) = 0.60283 0.04094
#
# Static dielectric constant tensor:
#      x y z
#    x 1.659620 0.000000 0.000000 
#    y 0.000000 1.699740 0.000000 
#    z 0.000000 0.000000 1.680670 
# 
# From -- ./inp_files/76557.got.cif
#   From: 2010.05.17/outbox.cif.g08.bks.cpg/sg65_39_cif.got.tgz:76557.got - 2010.06.03 17:01:31.
