data_PCOD9488187
_publ_section_title
;
Structure prediction by ZEFSAII (Michael W. Deem and Ramdas Pophale) SiO2 
 PCOD9488187
Probable space group: C M M M
;
_chemical_formula_sum "Si O2"
_cell_formula_units_Z 88
_cell_length_a 27.821474
_cell_length_b 8.781454
_cell_length_c 21.658742
_cell_angle_alpha 90.000000
_cell_angle_beta 90.000000
_cell_angle_gamma 90.000000
_cell_volume 5291.512107
_symmetry_space_group_name_H-M "C M M M"
_symmetry_group_IT_number 65
_symmetry_cell_setting 'orthorhombic'
loop_
_space_group_symop_operation_xyz
x,y,z
-x,-y,z
x,-y,-z
-x,y,-z
-x,-y,-z
x,y,-z
-x,y,z
x,-y,z
1/2+x,1/2+y,z
1/2-x,1/2-y,z
1/2+x,1/2-y,-z
1/2-x,1/2+y,-z
1/2-x,1/2-y,-z
1/2+x,1/2+y,-z
1/2-x,1/2+y,z
1/2+x,1/2-y,z
loop_
_atom_site_type_symbol
_atom_site_label
_atom_site_fract_x
_atom_site_fract_y
_atom_site_fract_z
Si Si1 0.352857 0.183118 0.878655
Si Si2 0.801371 0.682013 0.248468
Si Si3 0.803851 0.817738 0.000000
Si Si4 0.099841 0.682247 0.308059
Si Si5 0.944714 0.182495 0.185707
Si Si6 0.442826 0.317889 0.430417
O O1 0.318691 0.224846 0.820557
O O2 0.332051 0.258752 0.939820
O O3 0.405752 0.240916 0.859401
O O4 0.353222 0.000000 0.884517
O O5 0.797819 0.500000 0.249945
O O6 0.750000 0.750000 0.263551
O O7 0.845143 0.727106 0.293141
O O8 0.750000 0.750000 0.000000
O O9 0.801231 0.000000 0.000000
O O10 0.095827 0.500000 0.301104
O O11 0.067825 0.759712 0.254693
O O12 0.083747 0.733585 0.375379
O O13 0.000000 0.220629 0.170935
O O14 0.939260 0.000000 0.183542
O O15 0.428069 0.273033 0.500000
O O16 0.500000 0.289704 0.425029
O O17 0.435854 0.500000 0.424541
#
# Coordination Sequence:
#
# PCOD9488187 Si02
#       6
#    16  16   8  16  16  16
#     4  10  21  37  55  78 106 134 169 212 258 305
#     4   9  19  33  50  73  99 127 161 204 250 295
#     4  12  24  38  57  80 107 138 172 211 257 307
#     4  10  20  32  48  74 104 132 167 209 251 298
#     4  10  20  34  53  77 105 137 172 209 251 301
#     4   9  18  32  49  71 100 132 166 204 247 298
#
# _framework density 16.630407999999999
#
# number of rings (size 3 to 8) (size 9 to 14) (size 15 to 20)
#    0.000    2.182    0.000    5.182    0.000   10.182 
#    0.000    1.364    0.000    3.273    0.000    0.000 
#    0.000    0.000    0.000    0.000    0.000    0.000 
#
# Total GULP energy -245570.444872 kJ/mol
# GULP energy per Si atom -5581.146474 kJ/mol
# Density = 1.659256 g / cm^3
# Si number density = 16.630408 Si / 1000 Ang^3
#
#
#
# Elastic Constant Matrix: (Units=GPa)
#
#
# Indices 1 2 3 4 5 6 
#
# 1 110.5384 45.0736 60.6414 0.0000 0.0000 0.0000
# 2 45.0736 61.2944 47.8048 0.0000 0.0000 0.0000
# 3 60.6414 47.8048 121.6752 0.0000 0.0000 0.0000
# 4 0.0000 0.0000 0.0000 30.3344 0.0000 0.0000
# 5 0.0000 0.0000 0.0000 0.0000 14.0701 0.0000
# 6 0.0000 0.0000 0.0000 0.0000 0.0000 31.0805
#
#
#
# Elastic Compliance Matrix: (Units=1/GPa)
#
#
# Indices 1 2 3 4 5 6 
#
# 1 0.014348 -0.007171 -0.004333 0.000000 0.000000 0.000000
# 2 -0.007171 0.027107 -0.007076 0.000000 0.000000 0.000000
# 3 -0.004333 -0.007076 0.013158 0.000000 0.000000 0.000000
# 4 0.000000 0.000000 0.000000 0.032966 0.000000 0.000000
# 5 0.000000 0.000000 0.000000 0.000000 0.071073 0.000000
# 6 0.000000 0.000000 0.000000 0.000000 0.000000 0.032175
#
#
# Mechanical properties :
#
#
# Convention : Reuss Voigt Hill
#
# Bulk Modulus (GPa) = 57.29966 66.72751 62.01358
# Shear Modulus (GPa) = 21.38532 24.42954 22.90743
#
# Velocity S-wave (km/s) = 3.58986 3.83687 3.71542
# Velocity P-wave (km/s) = 7.19113 7.73561 7.46833
#
# Compressibility (1/GPa) = 0.01745211
#
# Stress axis : x y z
#
# Youngs Moduli (GPa) = 69.69529 36.89094 75.99745
#
# Poissons Ratio (x) = 0.26456 0.32933
# Poissons Ratio (y) = 0.49981 0.53775
# Poissons Ratio (z) = 0.30202 0.26104
#
# Static dielectric constant tensor:
#      x y z
#    x 1.549460 0.000000 0.000000 
#    y 0.000000 1.559330 0.000000 
#    z 0.000000 0.000000 1.540620 
# 
# From -- ./inp_files/65159.got.cif
#   From: 2010.05.17/outbox.cif.g08.bks.cpg/sg65_33_cif.got.tgz:65159.got - 2010.06.03 17:01:31.
