data_PCOD9488667
_publ_section_title
;
Structure prediction by ZEFSAII (Michael W. Deem and Ramdas Pophale) SiO2 
 PCOD9488667
Probable space group: C M M M
;
_chemical_formula_sum "Si O2"
_cell_formula_units_Z 104
_cell_length_a 7.561383
_cell_length_b 26.546547
_cell_length_c 23.389360
_cell_angle_alpha 90.000000
_cell_angle_beta 90.000000
_cell_angle_gamma 90.000000
_cell_volume 4694.913703
_symmetry_space_group_name_H-M "C M M M"
_symmetry_group_IT_number 65
_symmetry_cell_setting 'orthorhombic'
loop_
_space_group_symop_operation_xyz
x,y,z
-x,-y,z
x,-y,-z
-x,y,-z
-x,-y,-z
x,y,-z
-x,y,z
x,-y,z
1/2+x,1/2+y,z
1/2-x,1/2-y,z
1/2+x,1/2-y,-z
1/2-x,1/2+y,-z
1/2-x,1/2-y,-z
1/2+x,1/2+y,-z
1/2-x,1/2+y,z
1/2+x,1/2-y,z
loop_
_atom_site_type_symbol
_atom_site_label
_atom_site_fract_x
_atom_site_fract_y
_atom_site_fract_z
Si Si1 0.285358 0.414507 0.938233
Si Si2 0.712164 0.307004 0.654288
Si Si3 0.704954 0.334010 0.221693
Si Si4 0.295897 0.500000 0.569598
Si Si5 0.706249 0.054855 0.811507
Si Si6 0.782748 0.890586 0.565926
Si Si7 0.711656 0.305233 0.901299
O O1 0.500000 0.416871 0.936494
O O2 0.221697 0.440376 0.880359
O O3 0.229895 0.355633 0.933577
O O4 0.228703 0.434670 0.000000
O O5 0.500000 0.313676 0.656737
O O6 0.750000 0.250000 0.637332
O O7 0.783787 0.317276 0.718107
O O8 0.777595 0.347143 0.608226
O O9 0.500000 0.318255 0.222438
O O10 0.710580 0.394534 0.214138
O O11 0.783579 0.310558 0.163702
O O12 0.500000 0.500000 0.588947
O O13 0.297224 0.500000 0.500000
O O14 0.219721 0.445931 0.585848
O O15 0.500000 0.056404 0.796403
O O16 0.778855 0.000000 0.794315
O O17 0.730250 0.882352 0.500000
O O18 0.000000 0.891986 0.565855
O O19 0.500000 0.309574 0.898900
O O20 0.750000 0.250000 0.924910
#
# Coordination Sequence:
#
# PCOD9488667 Si02
#       7
#    16  16  16   8  16  16  16
#     4   9  19  35  52  72 101 135 169 203 241 293
#     4  10  20  33  50  76 106 137 175 216 260 311
#     4   9  19  35  51  70  97 129 168 210 251 302
#     4   7  10  20  40  64  93 129 165 207 256 297
#     4  10  21  36  54  76 101 128 161 205 256 307
#     4   8  14  26  45  71 104 138 173 215 262 311
#     4   9  17  29  46  67  92 123 160 200 243 288
#
# _framework density 22.151633
#
# number of rings (size 3 to 8) (size 9 to 14) (size 15 to 20)
#    0.000    3.000    0.000    2.769    0.000    5.538 
#    1.385    1.538    0.000    0.000    0.000    0.000 
#    0.000    1.846    0.000    0.000    0.000    0.000 
#
# Total GULP energy -290113.879309 kJ/mol
# GULP energy per Si atom -5579.113064 kJ/mol
# Density = 2.210121 g / cm^3
# Si number density = 22.151633 Si / 1000 Ang^3
#
#
#
# Elastic Constant Matrix: (Units=GPa)
#
#
# Indices 1 2 3 4 5 6 
#
# 1 50.0319 -12.4774 2.7835 0.0000 0.0000 0.0000
# 2 -12.4774 132.2973 37.0198 0.0000 0.0000 0.0000
# 3 2.7835 37.0198 74.2379 0.0000 0.0000 0.0000
# 4 0.0000 0.0000 0.0000 -5.5183 0.0000 0.0000
# 5 0.0000 0.0000 0.0000 0.0000 -34.6740 0.0000
# 6 0.0000 0.0000 0.0000 0.0000 0.0000 19.3835
#
#
#
# Elastic Compliance Matrix: (Units=1/GPa)
#
#
# Indices 1 2 3 4 5 6 
#
# 1 0.020730 0.002525 -0.002036 0.000000 0.000000 0.000000
# 2 0.002525 0.009092 -0.004629 0.000000 0.000000 0.000000
# 3 -0.002036 -0.004629 0.015855 0.000000 0.000000 0.000000
# 4 0.000000 0.000000 0.000000 -0.181214 0.000000 0.000000
# 5 0.000000 0.000000 0.000000 0.000000 -0.028840 0.000000
# 6 0.000000 0.000000 0.000000 0.000000 0.000000 0.051590
#
#
# Mechanical properties :
#
#
# Convention : Reuss Voigt Hill
#
# Bulk Modulus (GPa) = 26.74009 34.57988 30.65999
# Shear Modulus (GPa) = -54.32335 11.12098 -21.60119
#
# Velocity S-wave (km/s) = -4.95748 2.24305 -3.12613
# Velocity P-wave (km/s) = 4.54657 4.72788 0.91693
#
# Compressibility (1/GPa) = 0.03739703
#
# Stress axis : x y z
#
# Youngs Moduli (GPa) = 48.23868 109.98621 63.07299
#
# Poissons Ratio (x) = -0.27771 0.12844
# Poissons Ratio (y) = -0.12180 0.29194
# Poissons Ratio (z) = 0.09823 0.50908
#
# Static dielectric constant tensor:
#      x y z
#    x 1.855070 0.000000 0.000000 
#    y 0.000000 1.816100 0.000000 
#    z 0.000000 0.000000 1.803140 
# 
# From -- ./inp_files/68219.got.cif
#   From: 2010.05.17/outbox.cif.g08.bks.cpg/sg65_35_cif.got.tgz:68219.got - 2010.06.03 17:01:31.
