data_PCOD9488884
_publ_section_title
;
Structure prediction by ZEFSAII (Michael W. Deem and Ramdas Pophale) SiO2 
 PCOD9488884
Probable space group: C M M M
;
_chemical_formula_sum "Si O2"
_cell_formula_units_Z 80
_cell_length_a 22.862190
_cell_length_b 8.580873
_cell_length_c 22.448675
_cell_angle_alpha 90.000000
_cell_angle_beta 90.000000
_cell_angle_gamma 90.000000
_cell_volume 4403.926037
_symmetry_space_group_name_H-M "C M M M"
_symmetry_group_IT_number 65
_symmetry_cell_setting 'orthorhombic'
loop_
_space_group_symop_operation_xyz
x,y,z
-x,-y,z
x,-y,-z
-x,y,-z
-x,-y,-z
x,y,-z
-x,y,z
x,-y,z
1/2+x,1/2+y,z
1/2-x,1/2-y,z
1/2+x,1/2-y,-z
1/2-x,1/2+y,-z
1/2-x,1/2-y,-z
1/2+x,1/2+y,-z
1/2-x,1/2+y,z
1/2+x,1/2-y,z
loop_
_atom_site_type_symbol
_atom_site_label
_atom_site_fract_x
_atom_site_fract_y
_atom_site_fract_z
Si Si1 0.000000 0.314278 0.431277
Si Si2 0.881956 0.812048 0.618067
Si Si3 0.814356 0.187654 0.500000
Si Si4 0.313118 0.687697 0.733921
Si Si5 0.066347 0.813628 0.071173
Si Si6 0.684744 0.186033 0.867204
O O1 0.055169 0.252756 0.396032
O O2 0.000000 0.500000 0.433621
O O3 0.000000 0.255431 0.500000
O O4 0.844255 0.758692 0.561157
O O5 0.857529 0.764288 0.682148
O O6 0.882415 0.000000 0.617596
O O7 0.750000 0.250000 0.500000
O O8 0.815781 0.000000 0.500000
O O9 0.312200 0.500000 0.738845
O O10 0.250000 0.750000 0.714422
O O11 0.323883 0.758158 0.799005
O O12 0.125872 0.741547 0.098495
O O13 0.000000 0.761633 0.091199
O O14 0.068793 0.000000 0.081886
O O15 0.068105 0.788131 0.000000
O O16 0.750000 0.250000 0.886001
O O17 0.688243 0.000000 0.870195
#
# Coordination Sequence:
#
# PCOD9488884 Si02
#       6
#     8  16   8  16  16  16
#     4  11  23  37  55  79 105 137 176 225 278 323
#     4  10  21  37  57  77 104 142 180 219 271 333
#     4  10  20  33  52  79 105 132 170 218 269 326
#     4  10  20  36  58  83 110 145 184 226 279 331
#     4   9  19  38  63  89 119 155 194 238 287 339
#     4  11  22  37  59  86 119 157 195 239 286 336
#
# _framework density 18.165610000000001
#
# number of rings (size 3 to 8) (size 9 to 14) (size 15 to 20)
#    0.000    1.900    1.000    5.100    0.000    4.000 
#    1.800    1.000    0.000    0.000    0.000    0.000 
#    0.000    0.000    0.000    0.000    0.000    0.000 
#
# Total GULP energy -223009.190642 kJ/mol
# GULP energy per Si atom -5575.229766 kJ/mol
# Density = 1.812426 g / cm^3
# Si number density = 18.165610 Si / 1000 Ang^3
#
#
#
# Elastic Constant Matrix: (Units=GPa)
#
#
# Indices 1 2 3 4 5 6 
#
# 1 196.9055 52.5402 82.3835 0.0000 0.0000 0.0000
# 2 52.5402 48.3670 37.3744 0.0000 0.0000 0.0000
# 3 82.3835 37.3744 71.7427 0.0000 0.0000 0.0000
# 4 0.0000 0.0000 0.0000 40.7785 0.0000 0.0000
# 5 0.0000 0.0000 0.0000 0.0000 43.0362 0.0000
# 6 0.0000 0.0000 0.0000 0.0000 0.0000 35.6159
#
#
#
# Elastic Compliance Matrix: (Units=1/GPa)
#
#
# Indices 1 2 3 4 5 6 
#
# 1 0.010091 -0.003360 -0.009837 0.000000 0.000000 0.000000
# 2 -0.003360 0.035725 -0.014752 0.000000 0.000000 0.000000
# 3 -0.009837 -0.014752 0.032920 0.000000 0.000000 0.000000
# 4 0.000000 0.000000 0.000000 0.024523 0.000000 0.000000
# 5 0.000000 0.000000 0.000000 0.000000 0.023236 0.000000
# 6 0.000000 0.000000 0.000000 0.000000 0.000000 0.028077
#
#
# Mechanical properties :
#
#
# Convention : Reuss Voigt Hill
#
# Bulk Modulus (GPa) = 43.78927 73.51239 58.65083
# Shear Modulus (GPa) = 22.92701 33.53394 28.23047
#
# Velocity S-wave (km/s) = 3.55647 4.30119 3.94644
# Velocity P-wave (km/s) = 6.40489 8.07606 7.28853
#
# Compressibility (1/GPa) = 0.02283664
#
# Stress axis : x y z
#
# Youngs Moduli (GPa) = 99.09868 27.99173 30.37667
#
# Poissons Ratio (x) = 0.09406 0.29882
# Poissons Ratio (y) = 0.33300 0.44812
# Poissons Ratio (z) = 0.97484 0.41294
#
# Static dielectric constant tensor:
#      x y z
#    x 1.613680 0.000000 0.000000 
#    y 0.000000 1.621960 0.000000 
#    z 0.000000 0.000000 1.622100 
# 
# From -- ./inp_files/70803.got.cif
#   From: 2010.05.17/outbox.cif.g08.bks.cpg/sg65_36_cif.got.tgz:70803.got - 2010.06.03 17:01:31.
