data_PCOD9488862
_publ_section_title
;
Structure prediction by ZEFSAII (Michael W. Deem and Ramdas Pophale) SiO2 
 PCOD9488862
Probable space group: C M M M
;
_chemical_formula_sum "Si O2"
_cell_formula_units_Z 88
_cell_length_a 28.188688
_cell_length_b 14.499855
_cell_length_c 12.540087
_cell_angle_alpha 90.000000
_cell_angle_beta 90.000000
_cell_angle_gamma 90.000000
_cell_volume 5125.533443
_symmetry_space_group_name_H-M "C M M M"
_symmetry_group_IT_number 65
_symmetry_cell_setting 'orthorhombic'
loop_
_space_group_symop_operation_xyz
x,y,z
-x,-y,z
x,-y,-z
-x,y,-z
-x,-y,-z
x,y,-z
-x,y,z
x,-y,z
1/2+x,1/2+y,z
1/2-x,1/2-y,z
1/2+x,1/2-y,-z
1/2-x,1/2+y,-z
1/2-x,1/2-y,-z
1/2+x,1/2+y,-z
1/2-x,1/2+y,z
1/2+x,1/2-y,z
loop_
_atom_site_type_symbol
_atom_site_label
_atom_site_fract_x
_atom_site_fract_y
_atom_site_fract_z
Si Si1 0.000000 0.887925 0.376916
Si Si2 0.087071 0.889380 0.774602
Si Si3 0.714135 0.895983 0.174891
Si Si4 0.632418 0.897616 0.000000
Si Si5 0.103886 0.800110 0.000000
Si Si6 0.828103 0.107348 0.383210
Si Si7 0.204142 0.105772 0.000000
Si Si8 0.250000 0.750000 0.671896
O O1 0.954189 0.860843 0.307442
O O2 0.000000 0.855610 0.500000
O O3 0.000000 0.000000 0.381406
O O4 0.136585 0.870684 0.713692
O O5 0.084056 0.000000 0.789281
O O6 0.084377 0.842963 0.890314
O O7 0.715791 0.814518 0.258014
O O8 0.716221 0.000000 0.219622
O O9 0.668172 0.891149 0.100335
O O10 0.760970 0.883981 0.100811
O O11 0.598864 0.809861 0.000000
O O12 0.610741 0.000000 0.000000
O O13 0.160328 0.825509 0.000000
O O14 0.852449 0.113458 0.500000
O O15 0.783983 0.176268 0.383826
O O16 0.813547 0.000000 0.370550
O O17 0.185679 0.000000 0.000000
#
# Coordination Sequence:
#
# PCOD9488862 Si02
#       8
#     8  16  16   8   8  16   8   8
#     4   9  18  35  57  77 101 135 166 190 226 284
#     4  10  20  33  52  77 103 130 159 195 240 292
#     4   9  17  27  40  59  85 123 170 209 238 279
#     4   9  18  30  41  58  90 132 172 203 233 279
#     4  12  20  28  45  73 104 126 150 192 250 297
#     4  10  21  35  48  65  93 131 173 208 237 280
#     4   9  16  26  39  59  92 132 166 192 229 290
#     4  12  19  27  44  66  92 123 160 206 257 290
#
# _framework density 17.168944
#
# number of rings (size 3 to 8) (size 9 to 14) (size 15 to 20)
#    0.000    2.091    0.000    6.545    0.000    6.909 
#    0.000    1.364    0.000    0.000    0.000    1.273 
#    0.000    2.909    0.000    0.000    0.000    0.909 
#
# Total GULP energy -245421.599140 kJ/mol
# GULP energy per Si atom -5577.763617 kJ/mol
# Density = 1.712987 g / cm^3
# Si number density = 17.168944 Si / 1000 Ang^3
#
#
#
# Elastic Constant Matrix: (Units=GPa)
#
#
# Indices 1 2 3 4 5 6 
#
# 1 50.6905 28.1604 34.9412 0.0000 0.0000 0.0000
# 2 28.1604 90.4635 51.6192 0.0000 0.0000 0.0000
# 3 34.9412 51.6192 123.0608 0.0000 0.0000 0.0000
# 4 0.0000 0.0000 0.0000 44.2650 0.0000 0.0000
# 5 0.0000 0.0000 0.0000 0.0000 7.8079 0.0000
# 6 0.0000 0.0000 0.0000 0.0000 0.0000 9.9506
#
#
#
# Elastic Compliance Matrix: (Units=1/GPa)
#
#
# Indices 1 2 3 4 5 6 
#
# 1 0.026233 -0.005148 -0.005289 0.000000 0.000000 0.000000
# 2 -0.005148 0.015543 -0.005058 0.000000 0.000000 0.000000
# 3 -0.005289 -0.005058 0.011749 0.000000 0.000000 0.000000
# 4 0.000000 0.000000 0.000000 0.022591 0.000000 0.000000
# 5 0.000000 0.000000 0.000000 0.000000 0.128075 0.000000
# 6 0.000000 0.000000 0.000000 0.000000 0.000000 0.100497
#
#
# Mechanical properties :
#
#
# Convention : Reuss Voigt Hill
#
# Bulk Modulus (GPa) = 44.37486 54.85073 49.61279
# Shear Modulus (GPa) = 14.56918 22.37096 18.47007
#
# Velocity S-wave (km/s) = 2.91620 3.61361 3.28347
# Velocity P-wave (km/s) = 6.10254 7.03050 6.58289
#
# Compressibility (1/GPa) = 0.02253528
#
# Stress axis : x y z
#
# Youngs Moduli (GPa) = 38.11944 64.33842 85.11082
#
# Poissons Ratio (x) = 0.33123 0.45016
# Poissons Ratio (y) = 0.19625 0.43048
# Poissons Ratio (z) = 0.20162 0.32541
#
# Static dielectric constant tensor:
#      x y z
#    x 1.580150 0.000000 0.000000 
#    y 0.000000 1.586150 0.000000 
#    z 0.000000 0.000000 1.618500 
# 
# From -- ./inp_files/32313.got.cif
#   From: 2010.05.17/outbox.cif.g08.bks.cpg/sg65_17_cif.got.tgz:32313.got - 2010.06.03 17:01:31.
