data_PCOD9488260
_publ_section_title
;
Structure prediction by ZEFSAII (Michael W. Deem and Ramdas Pophale) SiO2 
 PCOD9488260
Probable space group: C M M M
;
_chemical_formula_sum "Si O2"
_cell_formula_units_Z 88
_cell_length_a 29.099893
_cell_length_b 11.323010
_cell_length_c 14.971990
_cell_angle_alpha 90.000000
_cell_angle_beta 90.000000
_cell_angle_gamma 90.000000
_cell_volume 4933.246442
_symmetry_space_group_name_H-M "C M M M"
_symmetry_group_IT_number 65
_symmetry_cell_setting 'orthorhombic'
loop_
_space_group_symop_operation_xyz
x,y,z
-x,-y,z
x,-y,-z
-x,y,-z
-x,-y,-z
x,y,-z
-x,y,z
x,-y,z
1/2+x,1/2+y,z
1/2-x,1/2-y,z
1/2+x,1/2-y,-z
1/2-x,1/2+y,-z
1/2-x,1/2-y,-z
1/2+x,1/2+y,-z
1/2-x,1/2+y,z
1/2+x,1/2-y,z
loop_
_atom_site_type_symbol
_atom_site_label
_atom_site_fract_x
_atom_site_fract_y
_atom_site_fract_z
Si Si1 0.052774 0.000000 0.108153
Si Si2 0.630233 0.137957 0.732642
Si Si3 0.372862 0.304770 0.103583
Si Si4 0.717624 0.135471 0.604438
Si Si5 0.052527 0.643841 0.600938
Si Si6 0.731572 0.626216 0.894567
O O1 0.084372 0.887244 0.130858
O O2 0.000000 0.000000 0.141074
O O3 0.050593 0.000000 0.000000
O O4 0.632111 0.199586 0.827439
O O5 0.675628 0.149601 0.672515
O O6 0.588274 0.187353 0.673549
O O7 0.622265 0.000000 0.746676
O O8 0.323645 0.370229 0.108325
O O9 0.378973 0.269339 0.000000
O O10 0.702287 0.138820 0.500000
O O11 0.750000 0.250000 0.616735
O O12 0.736715 0.000000 0.617267
O O13 0.064476 0.680865 0.500000
O O14 0.054160 0.500000 0.601029
O O15 0.000000 0.677759 0.619574
O O16 0.747870 0.500000 0.855812
O O17 0.750000 0.750000 0.855849
O O18 0.744911 0.626043 0.000000
#
# Coordination Sequence:
#
# PCOD9488260 Si02
#       6
#     8  16  16  16  16  16
#     4   9  18  36  60  76  91 131 193 247 281 315
#     4  10  20  32  49  78 110 139 173 218 271 328
#     4  10  20  35  52  73 105 142 183 230 271 318
#     4   9  18  35  57  80 109 145 186 231 276 326
#     4   8  14  27  49  75 101 129 161 201 255 319
#     4   9  17  31  51  72  97 132 174 221 270 318
#
# _framework density 17.838152000000001
#
# number of rings (size 3 to 8) (size 9 to 14) (size 15 to 20)
#    0.000    2.818    0.909    1.091    0.000    4.727 
#    1.636    3.636    0.000    0.000    0.000    5.091 
#    0.000    2.909    0.000    0.000    0.000    0.000 
#
# Total GULP energy -245014.007481 kJ/mol
# GULP energy per Si atom -5568.500170 kJ/mol
# Density = 1.779755 g / cm^3
# Si number density = 17.838152 Si / 1000 Ang^3
#
#
#
# Elastic Constant Matrix: (Units=GPa)
#
#
# Indices 1 2 3 4 5 6 
#
# 1 60.7469 52.3404 33.6162 0.0000 0.0000 0.0000
# 2 52.3404 114.8234 54.1788 0.0000 0.0000 0.0000
# 3 33.6162 54.1788 85.3509 0.0000 0.0000 0.0000
# 4 0.0000 0.0000 0.0000 11.7366 0.0000 0.0000
# 5 0.0000 0.0000 0.0000 0.0000 -7.5513 0.0000
# 6 0.0000 0.0000 0.0000 0.0000 0.0000 16.5532
#
#
#
# Elastic Compliance Matrix: (Units=1/GPa)
#
#
# Indices 1 2 3 4 5 6 
#
# 1 0.028123 -0.010840 -0.004196 0.000000 0.000000 0.000000
# 2 -0.010840 0.016611 -0.006275 0.000000 0.000000 0.000000
# 3 -0.004196 -0.006275 0.017352 0.000000 0.000000 0.000000
# 4 0.000000 0.000000 0.000000 0.085203 0.000000 0.000000
# 5 0.000000 0.000000 0.000000 0.000000 -0.132428 0.000000
# 6 0.000000 0.000000 0.000000 0.000000 0.000000 0.060411
#
#
# Mechanical properties :
#
#
# Convention : Reuss Voigt Hill
#
# Bulk Modulus (GPa) = 51.37326 60.13246 55.75286
# Shear Modulus (GPa) = 40.19845 12.20009 26.19927
#
# Velocity S-wave (km/s) = 4.75226 2.61805 3.83655
# Velocity P-wave (km/s) = 7.67947 6.55150 7.13780
#
# Compressibility (1/GPa) = 0.01946538
#
# Stress axis : x y z
#
# Youngs Moduli (GPa) = 35.55763 60.20121 57.63012
#
# Poissons Ratio (x) = 0.65257 0.24180
# Poissons Ratio (y) = 0.38544 0.36162
# Poissons Ratio (z) = 0.14919 0.37776
#
# Static dielectric constant tensor:
#      x y z
#    x 1.624490 0.000000 0.000000 
#    y 0.000000 1.629500 0.000000 
#    z 0.000000 0.000000 1.608200 
# 
# From -- ./inp_files/46784.got.cif
#   From: 2010.05.17/outbox.cif.g08.bks.cpg/sg65_24_cif.got.tgz:46784.got - 2010.06.03 17:01:31.
