data_PCOD9488511
_publ_section_title
;
Structure prediction by ZEFSAII (Michael W. Deem and Ramdas Pophale) SiO2 
 PCOD9488511
Probable space group: C M M M
;
_chemical_formula_sum "Si O2"
_cell_formula_units_Z 56
_cell_length_a 18.738143
_cell_length_b 16.570405
_cell_length_c 9.403822
_cell_angle_alpha 90.000000
_cell_angle_beta 90.000000
_cell_angle_gamma 90.000000
_cell_volume 2919.873739
_symmetry_space_group_name_H-M "C M M M"
_symmetry_group_IT_number 65
_symmetry_cell_setting 'orthorhombic'
loop_
_space_group_symop_operation_xyz
x,y,z
-x,-y,z
x,-y,-z
-x,y,-z
-x,-y,-z
x,y,-z
-x,y,z
x,-y,z
1/2+x,1/2+y,z
1/2-x,1/2-y,z
1/2+x,1/2-y,-z
1/2-x,1/2+y,-z
1/2-x,1/2-y,-z
1/2+x,1/2+y,-z
1/2-x,1/2+y,z
1/2+x,1/2-y,z
loop_
_atom_site_type_symbol
_atom_site_label
_atom_site_fract_x
_atom_site_fract_y
_atom_site_fract_z
Si Si1 0.578162 0.404809 0.672127
Si Si2 0.769747 0.843829 0.664613
Si Si3 0.000000 0.598889 0.663150
Si Si4 0.137241 0.403596 0.839257
O O1 0.576391 0.398935 0.500000
O O2 0.500000 0.376894 0.724099
O O3 0.585383 0.500000 0.706420
O O4 0.649651 0.359094 0.717107
O O5 0.764676 0.872987 0.500000
O O6 0.750000 0.750000 0.665080
O O7 0.711321 0.886617 0.761375
O O8 0.070856 0.626517 0.745112
O O9 0.000000 0.500000 0.661229
O O10 0.000000 0.626213 0.500000
O O11 0.128332 0.500000 0.847814
O O12 0.135970 0.371220 0.000000
#
# Coordination Sequence:
#
# PCOD9488511 Si02
#       4
#    16  16   8  16
#     4   8  14  27  49  73  96 128 172 220 264 305
#     4  10  20  33  49  76 108 137 174 219 271 325
#     4   9  17  31  53  79 103 129 168 217 262 305
#     4  10  20  34  53  76 104 140 179 218 264 320
#
# _framework density 19.178909999999998
#
# number of rings (size 3 to 8) (size 9 to 14) (size 15 to 20)
#    0.000    2.714    0.000    3.000    0.000    5.143 
#    2.571    0.000    0.000    0.857    0.000    4.000 
#    0.000    0.000    0.000    0.000    0.000    0.000 
#
# Total GULP energy -156098.594312 kJ/mol
# GULP energy per Si atom -5574.949797 kJ/mol
# Density = 1.913526 g / cm^3
# Si number density = 19.178910 Si / 1000 Ang^3
#
#
#
# Elastic Constant Matrix: (Units=GPa)
#
#
# Indices 1 2 3 4 5 6 
#
# 1 231.3238 34.2263 74.5123 0.0000 0.0000 0.0000
# 2 34.2263 10.3031 10.6682 0.0000 0.0000 0.0000
# 3 74.5123 10.6682 105.9113 0.0000 0.0000 0.0000
# 4 0.0000 0.0000 0.0000 9.1933 0.0000 0.0000
# 5 0.0000 0.0000 0.0000 0.0000 -20.9674 0.0000
# 6 0.0000 0.0000 0.0000 0.0000 0.0000 7.6683
#
#
#
# Elastic Compliance Matrix: (Units=1/GPa)
#
#
# Indices 1 2 3 4 5 6 
#
# 1 0.009849 -0.028517 -0.004057 0.000000 0.000000 0.000000
# 2 -0.028517 0.190930 0.000831 0.000000 0.000000 0.000000
# 3 -0.004057 0.000831 0.012212 0.000000 0.000000 0.000000
# 4 0.000000 0.000000 0.000000 0.108774 0.000000 0.000000
# 5 0.000000 0.000000 0.000000 0.000000 -0.047693 0.000000
# 6 0.000000 0.000000 0.000000 0.000000 0.000000 0.130408
#
#
# Mechanical properties :
#
#
# Convention : Reuss Voigt Hill
#
# Bulk Modulus (GPa) = 6.68873 65.15023 35.91948
# Shear Modulus (GPa) = 9.65621 14.38761 12.02191
#
# Velocity S-wave (km/s) = 2.24627 2.74191 2.50637
# Velocity P-wave (km/s) = 3.19731 6.63834 5.21010
#
# Compressibility (1/GPa) = 0.14950517
#
# Stress axis : x y z
#
# Youngs Moduli (GPa) = 101.53285 5.23752 81.88572
#
# Poissons Ratio (x) = 0.14936 0.33218
# Poissons Ratio (y) = 2.89545 -0.06805
# Poissons Ratio (z) = 0.41188 -0.00435
#
# Static dielectric constant tensor:
#      x y z
#    x 1.678770 0.000000 0.000000 
#    y 0.000000 1.660500 0.000000 
#    z 0.000000 0.000000 1.658040 
# 
# From -- ./inp_files/6251.got.cif
#   From: 2010.05.17/outbox.cif.g08.bks.cpg/sg65_4_cif.got.tgz:6251.got - 2010.06.03 17:01:31.
