data_PCOD9488290
_publ_section_title
;
Structure prediction by ZEFSAII (Michael W. Deem and Ramdas Pophale) SiO2 
 PCOD9488290
Probable space group: C M M M
;
_chemical_formula_sum "Si O2"
_cell_formula_units_Z 128
_cell_length_a 19.266718
_cell_length_b 17.431119
_cell_length_c 22.684191
_cell_angle_alpha 90.000000
_cell_angle_beta 90.000000
_cell_angle_gamma 90.000000
_cell_volume 7618.269009
_symmetry_space_group_name_H-M "C M M M"
_symmetry_group_IT_number 65
_symmetry_cell_setting 'orthorhombic'
loop_
_space_group_symop_operation_xyz
x,y,z
-x,-y,z
x,-y,-z
-x,y,-z
-x,-y,-z
x,y,-z
-x,y,z
x,-y,z
1/2+x,1/2+y,z
1/2-x,1/2-y,z
1/2+x,1/2-y,-z
1/2-x,1/2+y,-z
1/2-x,1/2-y,-z
1/2+x,1/2+y,-z
1/2-x,1/2+y,z
1/2+x,1/2-y,z
loop_
_atom_site_type_symbol
_atom_site_label
_atom_site_fract_x
_atom_site_fract_y
_atom_site_fract_z
Si Si1 0.327120 0.909032 0.230229
Si Si2 0.579980 0.193835 0.159112
Si Si3 0.694649 0.410222 0.430182
Si Si4 0.921306 0.844534 0.759972
Si Si5 0.829002 0.220893 0.067546
Si Si6 0.303244 0.181193 0.649321
Si Si7 0.917450 0.800051 0.623409
Si Si8 0.310779 0.588092 0.840566
O O1 0.392398 0.880402 0.192811
O O2 0.322526 0.865822 0.292403
O O3 0.260904 0.886795 0.190074
O O4 0.325951 0.000000 0.239183
O O5 0.500000 0.187382 0.143345
O O6 0.588078 0.263882 0.205830
O O7 0.624633 0.217831 0.102635
O O8 0.707111 0.405113 0.500000
O O9 0.687310 0.500000 0.413960
O O10 0.758704 0.371622 0.395095
O O11 0.625033 0.362235 0.414730
O O12 0.911719 0.829355 0.691016
O O13 0.867591 0.901995 0.789249
O O14 0.000000 0.870618 0.769992
O O15 0.750000 0.250000 0.067707
O O16 0.830529 0.142872 0.105479
O O17 0.851315 0.210386 0.000000
O O18 0.250000 0.250000 0.665754
O O19 0.371727 0.221743 0.621936
O O20 0.000000 0.791981 0.609798
O O21 0.304847 0.500000 0.858936
#
# Coordination Sequence:
#
# PCOD9488290 Si02
#       8
#    16  16  16  16  16  16  16  16
#     4  11  21  32  52  83 111 140 177 219 271 323
#     4  10  20  35  55  77 107 141 175 214 262 317
#     4  10  22  39  56  77 108 148 190 226 267 323
#     4   9  18  32  52  77 107 142 173 210 266 327
#     4  10  20  35  57  78 100 137 184 225 263 310
#     4  10  20  33  57  82 111 145 180 226 274 325
#     4  10  20  34  55  82 111 142 179 228 279 325
#     4  10  20  32  50  78 110 139 174 220 272 324
#
# _framework density 16.801717
#
# number of rings (size 3 to 8) (size 9 to 14) (size 15 to 20)
#    0.000    2.000    2.500    1.875    1.750    5.250 
#    0.000    1.875    0.000    1.500    0.000    5.250 
#    0.000    0.000    0.000    0.000    0.000    0.000 
#
# Total GULP energy -356941.391615 kJ/mol
# GULP energy per Si atom -5577.209244 kJ/mol
# Density = 1.676348 g / cm^3
# Si number density = 16.801717 Si / 1000 Ang^3
#
#
#
# Elastic Constant Matrix: (Units=GPa)
#
#
# Indices 1 2 3 4 5 6 
#
# 1 93.8869 39.4222 44.0685 0.0000 0.0000 0.0000
# 2 39.4222 74.8815 42.5027 0.0000 0.0000 0.0000
# 3 44.0685 42.5027 75.3827 0.0000 0.0000 0.0000
# 4 0.0000 0.0000 0.0000 20.0109 0.0000 0.0000
# 5 0.0000 0.0000 0.0000 0.0000 16.2184 0.0000
# 6 0.0000 0.0000 0.0000 0.0000 0.0000 10.7372
#
#
#
# Elastic Compliance Matrix: (Units=1/GPa)
#
#
# Indices 1 2 3 4 5 6 
#
# 1 0.015637 -0.004476 -0.006617 0.000000 0.000000 0.000000
# 2 -0.004476 0.020921 -0.009179 0.000000 0.000000 0.000000
# 3 -0.006617 -0.009179 0.022310 0.000000 0.000000 0.000000
# 4 0.000000 0.000000 0.000000 0.049973 0.000000 0.000000
# 5 0.000000 0.000000 0.000000 0.000000 0.061658 0.000000
# 6 0.000000 0.000000 0.000000 0.000000 0.000000 0.093135
#
#
# Mechanical properties :
#
#
# Convention : Reuss Voigt Hill
#
# Bulk Modulus (GPa) = 54.57901 55.12641 54.85271
# Shear Modulus (GPa) = 16.11420 17.27047 16.69234
#
# Velocity S-wave (km/s) = 3.10026 3.20956 3.15539
# Velocity P-wave (km/s) = 6.73574 6.82761 6.78183
#
# Compressibility (1/GPa) = 0.01832206
#
# Stress axis : x y z
#
# Youngs Moduli (GPa) = 63.95236 47.79908 44.82385
#
# Poissons Ratio (x) = 0.21395 0.29662
# Poissons Ratio (y) = 0.28625 0.41144
# Poissons Ratio (z) = 0.42320 0.43875
#
# Static dielectric constant tensor:
#      x y z
#    x 1.575920 0.000000 0.000000 
#    y 0.000000 1.565380 0.000000 
#    z 0.000000 0.000000 1.545570 
# 
# From -- ./inp_files/64875.got.cif
#   From: 2010.05.17/outbox.cif.g08.bks.cpg/sg65_33_cif.got.tgz:64875.got - 2010.06.03 17:01:31.
