data_PCOD9488415
_publ_section_title
;
Structure prediction by ZEFSAII (Michael W. Deem and Ramdas Pophale) SiO2 
 PCOD9488415
Probable space group: C M M M
;
_chemical_formula_sum "Si O2"
_cell_formula_units_Z 104
_cell_length_a 31.122234
_cell_length_b 8.624564
_cell_length_c 23.915007
_cell_angle_alpha 90.000000
_cell_angle_beta 90.000000
_cell_angle_gamma 90.000000
_cell_volume 6419.163319
_symmetry_space_group_name_H-M "C M M M"
_symmetry_group_IT_number 65
_symmetry_cell_setting 'orthorhombic'
loop_
_space_group_symop_operation_xyz
x,y,z
-x,-y,z
x,-y,-z
-x,y,-z
-x,-y,-z
x,y,-z
-x,y,z
x,-y,z
1/2+x,1/2+y,z
1/2-x,1/2-y,z
1/2+x,1/2-y,-z
1/2-x,1/2+y,-z
1/2-x,1/2-y,-z
1/2+x,1/2+y,-z
1/2-x,1/2+y,z
1/2+x,1/2-y,z
loop_
_atom_site_type_symbol
_atom_site_label
_atom_site_fract_x
_atom_site_fract_y
_atom_site_fract_z
Si Si1 0.321973 0.813091 0.439063
Si Si2 0.000000 0.176265 0.566450
Si Si3 0.087165 0.316318 0.389881
Si Si4 0.295315 0.814112 0.315643
Si Si5 0.051968 0.318296 0.938985
Si Si6 0.616819 0.684422 0.273716
Si Si7 0.049648 0.813814 0.819988
O O1 0.307463 0.752586 0.500000
O O2 0.372808 0.783011 0.430888
O O3 0.301591 0.757344 0.380515
O O4 0.316204 0.000000 0.439905
O O5 0.957718 0.265530 0.585292
O O6 0.000000 0.168218 0.500000
O O7 0.000000 0.000000 0.589024
O O8 0.088465 0.500000 0.378297
O O9 0.095025 0.225278 0.332694
O O10 0.250000 0.750000 0.295095
O O11 0.335956 0.758864 0.279354
O O12 0.295201 0.000000 0.316731
O O13 0.063249 0.500000 0.934615
O O14 0.064268 0.231874 0.882417
O O15 0.000000 0.309474 0.940327
O O16 0.067223 0.260153 0.000000
O O17 0.621742 0.500000 0.267800
O O18 0.584559 0.741785 0.225208
O O19 0.000000 0.757463 0.810976
O O20 0.047949 0.000000 0.815969
#
# Coordination Sequence:
#
# PCOD9488415 Si02
#       7
#    16   8  16  16  16  16  16
#     4   8  15  29  48  68  90 113 139 179 230 284
#     4  11  23  35  47  65  89 119 156 197 242 291
#     4  10  20  33  49  68  89 119 157 196 238 285
#     4  10  20  34  52  72  94 120 155 194 242 298
#     4   8  14  25  41  63  93 129 166 202 237 270
#     4  10  20  34  51  70  97 128 159 199 244 287
#     4   9  18  30  45  68  97 132 168 200 237 279
#
# _framework density 16.201488000000001
#
# number of rings (size 3 to 8) (size 9 to 14) (size 15 to 20)
#    0.000    2.692    0.000    3.462    1.077    3.077 
#    0.000    1.538    0.000    8.769    0.000    0.000 
#    0.000    0.615    0.000    2.000    0.000    2.923 
#
# Total GULP energy -289651.027062 kJ/mol
# GULP energy per Si atom -5570.212059 kJ/mol
# Density = 1.616461 g / cm^3
# Si number density = 16.201488 Si / 1000 Ang^3
#
#
#
# Elastic Constant Matrix: (Units=GPa)
#
#
# Indices 1 2 3 4 5 6 
#
# 1 98.2170 18.9033 42.0691 0.0000 0.0000 0.0000
# 2 18.9033 23.0057 13.5937 0.0000 0.0000 0.0000
# 3 42.0691 13.5937 98.0401 0.0000 0.0000 0.0000
# 4 0.0000 0.0000 0.0000 22.0152 0.0000 0.0000
# 5 0.0000 0.0000 0.0000 0.0000 -2.3903 0.0000
# 6 0.0000 0.0000 0.0000 0.0000 0.0000 20.8455
#
#
#
# Elastic Compliance Matrix: (Units=1/GPa)
#
#
# Indices 1 2 3 4 5 6 
#
# 1 0.013874 -0.008586 -0.004763 0.000000 0.000000 0.000000
# 2 -0.008586 0.052660 -0.003617 0.000000 0.000000 0.000000
# 3 -0.004763 -0.003617 0.012745 0.000000 0.000000 0.000000
# 4 0.000000 0.000000 0.000000 0.045423 0.000000 0.000000
# 5 0.000000 0.000000 0.000000 0.000000 -0.418349 0.000000
# 6 0.000000 0.000000 0.000000 0.000000 0.000000 0.047972
#
#
# Mechanical properties :
#
#
# Convention : Reuss Voigt Hill
#
# Bulk Modulus (GPa) = 22.05220 40.93279 31.49249
# Shear Modulus (GPa) = -25.42880 17.74050 -3.84415
#
# Velocity S-wave (km/s) = -3.96603 3.31266 -1.54203
# Velocity P-wave (km/s) = 2.70773 6.32070 4.03853
#
# Compressibility (1/GPa) = 0.04534696
#
# Stress axis : x y z
#
# Youngs Moduli (GPa) = 72.07683 18.98986 78.46056
#
# Poissons Ratio (x) = 0.16304 0.37370
# Poissons Ratio (y) = 0.61883 0.28382
# Poissons Ratio (z) = 0.34330 0.06869
#
# Static dielectric constant tensor:
#      x y z
#    x 1.535770 0.000000 0.000000 
#    y 0.000000 1.555440 0.000000 
#    z 0.000000 0.000000 1.555220 
# 
# From -- ./inp_files/68511.got.cif
#   From: 2010.05.17/outbox.cif.g08.bks.cpg/sg65_35_cif.got.tgz:68511.got - 2010.06.03 17:01:31.
