data_PCOD9488243
_publ_section_title
;
Structure prediction by ZEFSAII (Michael W. Deem and Ramdas Pophale) SiO2 
 PCOD9488243
Probable space group: C M M M
;
_chemical_formula_sum "Si O2"
_cell_formula_units_Z 96
_cell_length_a 9.181350
_cell_length_b 19.537251
_cell_length_c 30.920801
_cell_angle_alpha 90.000000
_cell_angle_beta 90.000000
_cell_angle_gamma 90.000000
_cell_volume 5546.521938
_symmetry_space_group_name_H-M "C M M M"
_symmetry_group_IT_number 65
_symmetry_cell_setting 'orthorhombic'
loop_
_space_group_symop_operation_xyz
x,y,z
-x,-y,z
x,-y,-z
-x,y,-z
-x,-y,-z
x,y,-z
-x,y,z
x,-y,z
1/2+x,1/2+y,z
1/2-x,1/2-y,z
1/2+x,1/2-y,-z
1/2-x,1/2+y,-z
1/2-x,1/2-y,-z
1/2+x,1/2+y,-z
1/2-x,1/2+y,z
1/2+x,1/2-y,z
loop_
_atom_site_type_symbol
_atom_site_label
_atom_site_fract_x
_atom_site_fract_y
_atom_site_fract_z
Si Si1 0.827242 0.322288 0.804798
Si Si2 0.172607 0.322118 0.297267
Si Si3 0.674515 0.321402 0.049784
Si Si4 0.824948 0.920020 0.127824
Si Si5 0.328683 0.582101 0.364869
Si Si6 0.169338 0.416871 0.451861
O O1 0.750000 0.250000 0.814921
O O2 0.804518 0.336268 0.753764
O O3 0.756507 0.380903 0.833826
O O4 0.000000 0.316695 0.812641
O O5 0.250000 0.250000 0.306927
O O6 0.242257 0.379826 0.327222
O O7 0.000000 0.316906 0.304771
O O8 0.500000 0.312196 0.051242
O O9 0.750000 0.250000 0.062025
O O10 0.712558 0.380856 0.083332
O O11 0.714871 0.337245 0.000000
O O12 0.000000 0.914193 0.133876
O O13 0.788095 0.000000 0.126049
O O14 0.500000 0.596659 0.361810
O O15 0.308645 0.500000 0.361629
O O16 0.266431 0.604998 0.411517
O O17 0.215460 0.393950 0.500000
O O18 0.173632 0.500000 0.452420
O O19 0.000000 0.397606 0.445409
#
# Coordination Sequence:
#
# PCOD9488243 Si02
#       6
#    16  16  16  16  16  16
#     4  10  21  37  57  78 100 131 171 213 256 305
#     4  10  21  37  56  76 100 132 170 211 256 308
#     4   9  18  33  53  76 102 135 176 217 255 300
#     4  10  21  35  52  77 108 140 172 210 258 306
#     4  10  20  32  49  76 107 137 170 210 255 302
#     4   8  14  26  45  69  98 133 172 212 253 298
#
# _framework density 17.308143000000001
#
# number of rings (size 3 to 8) (size 9 to 14) (size 15 to 20)
#    0.000    2.500    0.000    2.500    0.000    6.667 
#    0.000    6.667    0.000    0.500    0.000    3.500 
#    0.000    0.000    0.000    0.000    0.000    0.000 
#
# Total GULP energy -267761.105545 kJ/mol
# GULP energy per Si atom -5578.356366 kJ/mol
# Density = 1.726875 g / cm^3
# Si number density = 17.308143 Si / 1000 Ang^3
#
#
#
# Elastic Constant Matrix: (Units=GPa)
#
#
# Indices 1 2 3 4 5 6 
#
# 1 80.0597 67.0902 76.8224 0.0000 0.0000 0.0000
# 2 67.0902 101.1454 83.5805 0.0000 0.0000 0.0000
# 3 76.8224 83.5805 108.1984 0.0000 0.0000 0.0000
# 4 0.0000 0.0000 0.0000 30.2150 0.0000 0.0000
# 5 0.0000 0.0000 0.0000 0.0000 29.4070 0.0000
# 6 0.0000 0.0000 0.0000 0.0000 0.0000 28.6296
#
#
#
# Elastic Compliance Matrix: (Units=1/GPa)
#
#
# Indices 1 2 3 4 5 6 
#
# 1 0.041886 -0.008870 -0.022888 0.000000 0.000000 0.000000
# 2 -0.008870 0.029215 -0.016270 0.000000 0.000000 0.000000
# 3 -0.022888 -0.016270 0.038061 0.000000 0.000000 0.000000
# 4 0.000000 0.000000 0.000000 0.033096 0.000000 0.000000
# 5 0.000000 0.000000 0.000000 0.000000 0.034006 0.000000
# 6 0.000000 0.000000 0.000000 0.000000 0.000000 0.034929
#
#
# Mechanical properties :
#
#
# Convention : Reuss Voigt Hill
#
# Bulk Modulus (GPa) = 76.29832 82.70996 79.50414
# Shear Modulus (GPa) = 16.04539 21.77767 18.91153
#
# Velocity S-wave (km/s) = 3.04804 3.55101 3.30909
# Velocity P-wave (km/s) = 7.52100 8.04384 7.78681
#
# Compressibility (1/GPa) = 0.01310645
#
# Stress axis : x y z
#
# Youngs Moduli (GPa) = 23.87419 34.22953 26.27381
#
# Poissons Ratio (x) = 0.30362 0.60135
# Poissons Ratio (y) = 0.21177 0.42746
# Poissons Ratio (z) = 0.54643 0.55690
#
# Static dielectric constant tensor:
#      x y z
#    x 1.574970 0.000000 0.000000 
#    y 0.000000 1.557400 0.000000 
#    z 0.000000 0.000000 1.592460 
# 
# From -- ./inp_files/73089.got.cif
#   From: 2010.05.17/outbox.cif.g08.bks.cpg/sg65_37_cif.got.tgz:73089.got - 2010.06.03 17:01:31.
