data_PCOD9488197
_publ_section_title
;
Structure prediction by ZEFSAII (Michael W. Deem and Ramdas Pophale) SiO2 
 PCOD9488197
Probable space group: C M M M
;
_chemical_formula_sum "Si O2"
_cell_formula_units_Z 88
_cell_length_a 9.092307
_cell_length_b 18.560225
_cell_length_c 29.120411
_cell_angle_alpha 90.000000
_cell_angle_beta 90.000000
_cell_angle_gamma 90.000000
_cell_volume 4914.222637
_symmetry_space_group_name_H-M "C M M M"
_symmetry_group_IT_number 65
_symmetry_cell_setting 'orthorhombic'
loop_
_space_group_symop_operation_xyz
x,y,z
-x,-y,z
x,-y,-z
-x,y,-z
-x,-y,-z
x,y,-z
-x,y,z
x,-y,z
1/2+x,1/2+y,z
1/2-x,1/2-y,z
1/2+x,1/2-y,-z
1/2-x,1/2+y,-z
1/2-x,1/2-y,-z
1/2+x,1/2+y,-z
1/2-x,1/2+y,z
1/2+x,1/2-y,z
loop_
_atom_site_type_symbol
_atom_site_label
_atom_site_fract_x
_atom_site_fract_y
_atom_site_fract_z
Si Si1 0.176102 0.171458 0.500000
Si Si2 0.323990 0.172153 0.223516
Si Si3 0.824221 0.672871 0.327666
Si Si4 0.170193 0.086876 0.143439
Si Si5 0.176085 0.414946 0.417619
Si Si6 0.171576 0.587584 0.949076
O O1 0.250000 0.250000 0.500000
O O2 0.233917 0.128184 0.455699
O O3 0.000000 0.177365 0.500000
O O4 0.500000 0.177760 0.220021
O O5 0.250000 0.250000 0.216760
O O6 0.285973 0.149053 0.275823
O O7 0.262278 0.119212 0.185139
O O8 0.750000 0.750000 0.336530
O O9 0.786788 0.616631 0.367460
O O10 0.000000 0.683101 0.328754
O O11 0.234576 0.111960 0.094383
O O12 0.000000 0.107761 0.147767
O O13 0.179234 0.000000 0.144436
O O14 0.204921 0.500000 0.420343
O O15 0.000000 0.404243 0.425195
O O16 0.177424 0.500000 0.949332
O O17 0.000000 0.607113 0.943292
O O18 0.220746 0.611470 0.000000
#
# Coordination Sequence:
#
# PCOD9488197 Si02
#       6
#     8  16  16  16  16  16
#     4  12  25  40  59  83 111 145 187 226 263 312
#     4  10  20  35  55  77 104 138 176 217 261 312
#     4   9  19  35  56  80 104 136 177 218 260 311
#     4  10  20  32  48  74 106 137 172 215 261 310
#     4  10  21  38  59  84 115 146 176 216 267 316
#     4   8  14  26  45  69  97 130 169 212 258 309
#
# _framework density 17.907205999999999
#
# number of rings (size 3 to 8) (size 9 to 14) (size 15 to 20)
#    0.000    2.364    0.000    3.273    0.000    6.545 
#    0.000    3.636    0.000    0.545    0.000    0.000 
#    0.000    0.000    0.000    0.000    0.000    0.000 
#
# Total GULP energy -245478.698269 kJ/mol
# GULP energy per Si atom -5579.061324 kJ/mol
# Density = 1.786645 g / cm^3
# Si number density = 17.907206 Si / 1000 Ang^3
#
#
#
# Elastic Constant Matrix: (Units=GPa)
#
#
# Indices 1 2 3 4 5 6 
#
# 1 86.0621 50.4153 77.9056 0.0000 0.0000 0.0000
# 2 50.4153 64.2338 66.9559 0.0000 0.0000 0.0000
# 3 77.9056 66.9559 147.0996 0.0000 0.0000 0.0000
# 4 0.0000 0.0000 0.0000 47.3639 0.0000 0.0000
# 5 0.0000 0.0000 0.0000 0.0000 13.2902 0.0000
# 6 0.0000 0.0000 0.0000 0.0000 0.0000 25.7808
#
#
#
# Elastic Compliance Matrix: (Units=1/GPa)
#
#
# Indices 1 2 3 4 5 6 
#
# 1 0.026194 -0.011604 -0.008591 0.000000 0.000000 0.000000
# 2 -0.011604 0.034764 -0.009678 0.000000 0.000000 0.000000
# 3 -0.008591 -0.009678 0.015753 0.000000 0.000000 0.000000
# 4 0.000000 0.000000 0.000000 0.021113 0.000000 0.000000
# 5 0.000000 0.000000 0.000000 0.000000 0.075243 0.000000
# 6 0.000000 0.000000 0.000000 0.000000 0.000000 0.038789
#
#
# Mechanical properties :
#
#
# Convention : Reuss Voigt Hill
#
# Bulk Modulus (GPa) = 58.94386 76.43879 67.69133
# Shear Modulus (GPa) = 18.03389 24.09490 21.06439
#
# Velocity S-wave (km/s) = 3.17689 3.67214 3.43346
# Velocity P-wave (km/s) = 6.81502 7.79476 7.32130
#
# Compressibility (1/GPa) = 0.01696529
#
# Stress axis : x y z
#
# Youngs Moduli (GPa) = 38.17736 28.76544 63.48004
#
# Poissons Ratio (x) = 0.33379 0.54533
# Poissons Ratio (y) = 0.44301 0.61436
# Poissons Ratio (z) = 0.32797 0.27839
#
# Static dielectric constant tensor:
#      x y z
#    x 1.597110 0.000000 0.000000 
#    y 0.000000 1.585680 0.000000 
#    z 0.000000 0.000000 1.621160 
# 
# From -- ./inp_files/70993.got.cif
#   From: 2010.05.17/outbox.cif.g08.bks.cpg/sg65_36_cif.got.tgz:70993.got - 2010.06.03 17:01:31.
