data_PCOD9488860
_publ_section_title
;
Structure prediction by ZEFSAII (Michael W. Deem and Ramdas Pophale) SiO2 
 PCOD9488860
Probable space group: C M M M
;
_chemical_formula_sum "Si O2"
_cell_formula_units_Z 120
_cell_length_a 27.331673
_cell_length_b 8.890993
_cell_length_c 28.361232
_cell_angle_alpha 90.000000
_cell_angle_beta 90.000000
_cell_angle_gamma 90.000000
_cell_volume 6891.941413
_symmetry_space_group_name_H-M "C M M M"
_symmetry_group_IT_number 65
_symmetry_cell_setting 'orthorhombic'
loop_
_space_group_symop_operation_xyz
x,y,z
-x,-y,z
x,-y,-z
-x,y,-z
-x,-y,-z
x,y,-z
-x,y,z
x,-y,z
1/2+x,1/2+y,z
1/2-x,1/2-y,z
1/2+x,1/2-y,-z
1/2-x,1/2+y,-z
1/2-x,1/2-y,-z
1/2+x,1/2+y,-z
1/2-x,1/2+y,z
1/2+x,1/2-y,z
loop_
_atom_site_type_symbol
_atom_site_label
_atom_site_fract_x
_atom_site_fract_y
_atom_site_fract_z
Si Si1 0.800494 0.821609 0.231281
Si Si2 0.401443 0.181282 0.607854
Si Si3 0.646795 0.178787 0.142606
Si Si4 0.602344 0.321915 0.290386
Si Si5 0.500000 0.816408 0.445615
Si Si6 0.303690 0.320625 0.054422
Si Si7 0.943690 0.178976 0.807432
Si Si8 0.697945 0.181121 0.444457
O O1 0.750000 0.750000 0.247431
O O2 0.816738 0.746208 0.182154
O O3 0.843776 0.795591 0.268653
O O4 0.795717 0.000000 0.224270
O O5 0.404817 0.234171 0.661568
O O6 0.450001 0.232663 0.579957
O O7 0.350144 0.232073 0.584203
O O8 0.401009 0.000000 0.605973
O O9 0.660504 0.248190 0.092385
O O10 0.593461 0.230574 0.160049
O O11 0.651006 0.000000 0.141672
O O12 0.596764 0.500000 0.299346
O O13 0.566478 0.280421 0.247233
O O14 0.500000 0.769539 0.500000
O O15 0.500000 0.000000 0.444822
O O16 0.301155 0.500000 0.061102
O O17 0.250000 0.250000 0.061714
O O18 0.317776 0.290836 0.000000
O O19 0.000000 0.202430 0.819360
O O20 0.932127 0.000000 0.811345
O O21 0.691380 0.218338 0.500000
O O22 0.750000 0.250000 0.428884
O O23 0.701133 0.000000 0.440763
#
# Coordination Sequence:
#
# PCOD9488860 Si02
#       8
#    16  16  16  16   8  16  16  16
#     4  10  20  35  53  73 102 140 180 216 257 309
#     4  10  20  33  52  77 102 130 166 209 255 307
#     4  11  21  33  52  79 109 140 177 221 268 315
#     4   9  20  35  51  74 103 135 166 203 255 310
#     4   9  18  34  55  77 101 131 167 209 258 309
#     4  10  20  34  53  78 110 147 184 221 263 313
#     4   9  19  37  58  76  99 135 177 218 263 316
#     4   9  18  33  52  73  97 128 166 206 249 300
#
# _framework density 17.411639999999998
#
# number of rings (size 3 to 8) (size 9 to 14) (size 15 to 20)
#    0.000    2.333    0.000    3.600    0.933    6.400 
#    0.000    2.667    0.000    2.000    0.000    2.800 
#    0.000    0.000    0.000    0.000    0.000    0.000 
#
# Total GULP energy -334835.219462 kJ/mol
# GULP energy per Si atom -5580.586991 kJ/mol
# Density = 1.737201 g / cm^3
# Si number density = 17.411640 Si / 1000 Ang^3
#
#
#
# Elastic Constant Matrix: (Units=GPa)
#
#
# Indices 1 2 3 4 5 6 
#
# 1 99.0685 43.3049 59.1020 0.0000 0.0000 0.0000
# 2 43.3049 53.6115 50.5953 0.0000 0.0000 0.0000
# 3 59.1020 50.5953 117.2948 0.0000 0.0000 0.0000
# 4 0.0000 0.0000 0.0000 29.9053 0.0000 0.0000
# 5 0.0000 0.0000 0.0000 0.0000 1.9580 0.0000
# 6 0.0000 0.0000 0.0000 0.0000 0.0000 20.8448
#
#
#
# Elastic Compliance Matrix: (Units=1/GPa)
#
#
# Indices 1 2 3 4 5 6 
#
# 1 0.016861 -0.009448 -0.004421 0.000000 0.000000 0.000000
# 2 -0.009448 0.036753 -0.011093 0.000000 0.000000 0.000000
# 3 -0.004421 -0.011093 0.015538 0.000000 0.000000 0.000000
# 4 0.000000 0.000000 0.000000 0.033439 0.000000 0.000000
# 5 0.000000 0.000000 0.000000 0.000000 0.510736 0.000000
# 6 0.000000 0.000000 0.000000 0.000000 0.000000 0.047974
#
#
# Mechanical properties :
#
#
# Convention : Reuss Voigt Hill
#
# Bulk Modulus (GPa) = 52.00358 63.99767 58.00063
# Shear Modulus (GPa) = 6.96735 18.33978 12.65357
#
# Velocity S-wave (km/s) = 2.00256 3.24899 2.69872
# Velocity P-wave (km/s) = 5.93961 7.13513 6.56464
#
# Compressibility (1/GPa) = 0.01922945
#
# Stress axis : x y z
#
# Youngs Moduli (GPa) = 59.30843 27.20862 64.35854
#
# Poissons Ratio (x) = 0.25706 0.28450
# Poissons Ratio (y) = 0.56033 0.71393
# Poissons Ratio (z) = 0.26218 0.30183
#
# Static dielectric constant tensor:
#      x y z
#    x 1.589640 0.000000 0.000000 
#    y 0.000000 1.586350 0.000000 
#    z 0.000000 0.000000 1.570130 
# 
# From -- ./inp_files/76167.got.cif
#   From: 2010.05.17/outbox.cif.g08.bks.cpg/sg65_39_cif.got.tgz:76167.got - 2010.06.03 17:01:31.
