data_PCOD9488891
_publ_section_title
;
Structure prediction by ZEFSAII (Michael W. Deem and Ramdas Pophale) SiO2 
 PCOD9488891
Probable space group: C M M M
;
_chemical_formula_sum "Si O2"
_cell_formula_units_Z 120
_cell_length_a 7.648319
_cell_length_b 29.444965
_cell_length_c 26.070265
_cell_angle_alpha 90.000000
_cell_angle_beta 90.000000
_cell_angle_gamma 90.000000
_cell_volume 5871.140610
_symmetry_space_group_name_H-M "C M M M"
_symmetry_group_IT_number 65
_symmetry_cell_setting 'orthorhombic'
loop_
_space_group_symop_operation_xyz
x,y,z
-x,-y,z
x,-y,-z
-x,y,-z
-x,-y,-z
x,y,-z
-x,y,z
x,-y,z
1/2+x,1/2+y,z
1/2-x,1/2-y,z
1/2+x,1/2-y,-z
1/2-x,1/2+y,-z
1/2-x,1/2-y,-z
1/2+x,1/2+y,-z
1/2-x,1/2+y,z
1/2+x,1/2-y,z
loop_
_atom_site_type_symbol
_atom_site_label
_atom_site_fract_x
_atom_site_fract_y
_atom_site_fract_z
Si Si1 0.293568 0.377980 0.060949
Si Si2 0.290619 0.302965 0.859475
Si Si3 0.709925 0.302803 0.656517
Si Si4 0.785575 0.143911 0.442755
Si Si5 0.500000 0.051397 0.937634
Si Si6 0.208582 0.147232 0.241980
Si Si7 0.291116 0.949482 0.276684
Si Si8 0.707503 0.449837 0.603784
O O1 0.500000 0.386774 0.070392
O O2 0.236026 0.333560 0.092304
O O3 0.171521 0.419948 0.076958
O O4 0.271989 0.370926 0.000000
O O5 0.500000 0.306263 0.857900
O O6 0.250000 0.250000 0.862895
O O7 0.220994 0.326371 0.807509
O O8 0.500000 0.308174 0.656060
O O9 0.750000 0.250000 0.662434
O O10 0.774001 0.322856 0.602539
O O11 0.778385 0.331213 0.705140
O O12 0.729940 0.156394 0.500000
O O13 0.725984 0.093076 0.427783
O O14 0.000000 0.143804 0.442422
O O15 0.500000 0.000000 0.917954
O O16 0.500000 0.049239 0.000000
O O17 0.237443 0.093300 0.242668
O O18 0.000000 0.154309 0.242391
O O19 0.500000 0.950594 0.277462
O O20 0.230411 0.941391 0.335377
O O21 0.227595 0.000000 0.261490
O O22 0.500000 0.451801 0.594007
O O23 0.781261 0.500000 0.592460
#
# Coordination Sequence:
#
# PCOD9488891 Si02
#       8
#    16  16  16  16   8  16  16  16
#     4   9  19  37  59  87 124 161 202 250 298 355
#     4  10  22  37  57  85 115 152 193 236 289 340
#     4  10  20  34  52  73  97 130 169 212 263 315
#     4   9  17  30  48  72 100 126 160 208 254 302
#     4   9  18  34  60  92 122 162 210 252 302 354
#     4  10  20  37  57  78 106 139 180 223 267 326
#     4  10  20  33  52  79 107 136 172 213 263 320
#     4   9  16  29  51  75  99 130 164 200 251 311
#
# _framework density 20.438958
#
# number of rings (size 3 to 8) (size 9 to 14) (size 15 to 20)
#    0.000    2.467    1.333    0.800    0.933    2.933 
#    0.000    3.333    0.000    3.600    0.000    1.867 
#    0.000    0.000    0.000    0.000    0.000    0.000 
#
# Total GULP energy -334836.724649 kJ/mol
# GULP energy per Si atom -5580.612077 kJ/mol
# Density = 2.039244 g / cm^3
# Si number density = 20.438958 Si / 1000 Ang^3
#
#
#
# Elastic Constant Matrix: (Units=GPa)
#
#
# Indices 1 2 3 4 5 6 
#
# 1 43.9629 19.1719 31.6116 0.0000 0.0000 0.0000
# 2 19.1719 171.3656 82.7265 0.0000 0.0000 0.0000
# 3 31.6116 82.7265 83.1493 0.0000 0.0000 0.0000
# 4 0.0000 0.0000 0.0000 26.3271 0.0000 0.0000
# 5 0.0000 0.0000 0.0000 0.0000 -29.3261 0.0000
# 6 0.0000 0.0000 0.0000 0.0000 0.0000 23.8657
#
#
#
# Elastic Compliance Matrix: (Units=1/GPa)
#
#
# Indices 1 2 3 4 5 6 
#
# 1 0.033056 0.004558 -0.017101 0.000000 0.000000 0.000000
# 2 0.004558 0.011857 -0.013529 0.000000 0.000000 0.000000
# 3 -0.017101 -0.013529 0.031989 0.000000 0.000000 0.000000
# 4 0.000000 0.000000 0.000000 0.037984 0.000000 0.000000
# 5 0.000000 0.000000 0.000000 0.000000 -0.034099 0.000000
# 6 0.000000 0.000000 0.000000 0.000000 0.000000 0.041901
#
#
# Mechanical properties :
#
#
# Convention : Reuss Voigt Hill
#
# Bulk Modulus (GPa) = 40.39601 62.83309 51.61455
# Shear Modulus (GPa) = 27.30978 15.17117 21.24048
#
# Velocity S-wave (km/s) = 3.65932 2.72741 3.22718
# Velocity P-wave (km/s) = 6.13688 6.38177 6.26052
#
# Compressibility (1/GPa) = 0.02475492
#
# Stress axis : x y z
#
# Youngs Moduli (GPa) = 30.25188 84.33984 31.26118
#
# Poissons Ratio (x) = -0.38438 0.53461
# Poissons Ratio (y) = -0.13787 0.42294
# Poissons Ratio (z) = 0.51735 1.14105
#
# Static dielectric constant tensor:
#      x y z
#    x 1.748300 0.000000 0.000000 
#    y 0.000000 1.714420 0.000000 
#    z 0.000000 0.000000 1.720490 
# 
# From -- ./inp_files/73929.got.cif
#   From: 2010.05.17/outbox.cif.g08.bks.cpg/sg65_37_cif.got.tgz:73929.got - 2010.06.03 17:01:31.
