data_PCOD9488900
_publ_section_title
;
Structure prediction by ZEFSAII (Michael W. Deem and Ramdas Pophale) SiO2 
 PCOD9488900
Probable space group: C M M M
;
_chemical_formula_sum "Si O2"
_cell_formula_units_Z 96
_cell_length_a 29.836678
_cell_length_b 8.269535
_cell_length_c 21.063215
_cell_angle_alpha 90.000000
_cell_angle_beta 90.000000
_cell_angle_gamma 90.000000
_cell_volume 5197.041895
_symmetry_space_group_name_H-M "C M M M"
_symmetry_group_IT_number 65
_symmetry_cell_setting 'orthorhombic'
loop_
_space_group_symop_operation_xyz
x,y,z
-x,-y,z
x,-y,-z
-x,y,-z
-x,-y,-z
x,y,-z
-x,y,z
x,-y,z
1/2+x,1/2+y,z
1/2-x,1/2-y,z
1/2+x,1/2-y,-z
1/2-x,1/2+y,-z
1/2-x,1/2-y,-z
1/2+x,1/2+y,-z
1/2-x,1/2+y,z
1/2+x,1/2-y,z
loop_
_atom_site_type_symbol
_atom_site_label
_atom_site_fract_x
_atom_site_fract_y
_atom_site_fract_z
Si Si1 0.139528 0.306982 0.186045
Si Si2 0.550166 0.691677 0.757327
Si Si3 0.549504 0.807521 0.614287
Si Si4 0.145385 0.697832 0.430213
Si Si5 0.700323 0.306449 0.927225
Si Si6 0.698915 0.195380 0.305877
O O1 0.137306 0.500000 0.189561
O O2 0.089850 0.239470 0.195988
O O3 0.163599 0.257252 0.121366
O O4 0.169908 0.248496 0.245455
O O5 0.500000 0.732523 0.780336
O O6 0.551886 0.500000 0.745594
O O7 0.556417 0.778504 0.689421
O O8 0.500000 0.741107 0.597425
O O9 0.594006 0.746309 0.579809
O O10 0.547931 0.000000 0.602853
O O11 0.161570 0.746708 0.500000
O O12 0.144854 0.500000 0.428398
O O13 0.175612 0.751707 0.371219
O O14 0.699566 0.500000 0.926741
O O15 0.750000 0.250000 0.907232
O O16 0.693394 0.250249 0.000000
O O17 0.750000 0.250000 0.301371
O O18 0.697967 0.000000 0.305732
#
# Coordination Sequence:
#
# PCOD9488900 Si02
#       6
#    16  16  16  16  16  16
#     4  11  21  35  57  82 109 141 180 224 269 316
#     4  10  20  33  52  79 109 140 174 215 267 323
#     4   9  16  29  50  74 100 130 168 215 267 323
#     4   9  17  31  49  70 100 134 171 218 268 318
#     4  10  21  37  57  84 118 152 185 220 262 315
#     4  10  21  35  50  73 100 132 174 220 267 312
#
# _framework density 18.472045999999999
#
# number of rings (size 3 to 8) (size 9 to 14) (size 15 to 20)
#    0.000    2.167    1.667    2.000    0.000    5.333 
#    0.000    1.667    0.000    2.000    0.000    5.833 
#    0.000    0.000    0.000    0.000    0.000    0.000 
#
# Total GULP energy -267888.105324 kJ/mol
# GULP energy per Si atom -5581.002194 kJ/mol
# Density = 1.843000 g / cm^3
# Si number density = 18.472046 Si / 1000 Ang^3
#
#
#
# Elastic Constant Matrix: (Units=GPa)
#
#
# Indices 1 2 3 4 5 6 
#
# 1 120.4626 8.3459 52.4505 0.0000 0.0000 0.0000
# 2 8.3459 11.8176 3.3077 0.0000 0.0000 0.0000
# 3 52.4505 3.3077 75.7176 0.0000 0.0000 0.0000
# 4 0.0000 0.0000 0.0000 5.3183 0.0000 0.0000
# 5 0.0000 0.0000 0.0000 0.0000 22.7754 0.0000
# 6 0.0000 0.0000 0.0000 0.0000 0.0000 24.7716
#
#
#
# Elastic Compliance Matrix: (Units=1/GPa)
#
#
# Indices 1 2 3 4 5 6 
#
# 1 0.012347 -0.006404 -0.008273 0.000000 0.000000 0.000000
# 2 -0.006404 0.088989 0.000549 0.000000 0.000000 0.000000
# 3 -0.008273 0.000549 0.018914 0.000000 0.000000 0.000000
# 4 0.000000 0.000000 0.000000 0.188030 0.000000 0.000000
# 5 0.000000 0.000000 0.000000 0.000000 0.043907 0.000000
# 6 0.000000 0.000000 0.000000 0.000000 0.000000 0.040369
#
#
# Mechanical properties :
#
#
# Convention : Reuss Voigt Hill
#
# Bulk Modulus (GPa) = 10.87045 37.35621 24.11333
# Shear Modulus (GPa) = 11.07473 20.16597 15.62035
#
# Velocity S-wave (km/s) = 2.45121 3.30768 2.91111
# Velocity P-wave (km/s) = 3.72945 5.90378 4.93779
#
# Compressibility (1/GPa) = 0.09199255
#
# Stress axis : x y z
#
# Youngs Moduli (GPa) = 80.98919 11.23737 52.87073
#
# Poissons Ratio (x) = 0.07197 0.43742
# Poissons Ratio (y) = 0.51868 -0.02902
# Poissons Ratio (z) = 0.67005 -0.00617
#
# Static dielectric constant tensor:
#      x y z
#    x 1.638090 0.000000 0.000000 
#    y 0.000000 1.652070 0.000000 
#    z 0.000000 0.000000 1.627570 
# 
# From -- ./inp_files/60272.got.cif
#   From: 2010.05.17/outbox.cif.g08.bks.cpg/sg65_31_cif.got.tgz:60272.got - 2010.06.03 17:01:31.
