data_PCOD9488811
_publ_section_title
;
Structure prediction by ZEFSAII (Michael W. Deem and Ramdas Pophale) SiO2 
 PCOD9488811
Probable space group: C M M M
;
_chemical_formula_sum "Si O2"
_cell_formula_units_Z 88
_cell_length_a 7.556645
_cell_length_b 29.280336
_cell_length_c 18.909864
_cell_angle_alpha 90.000000
_cell_angle_beta 90.000000
_cell_angle_gamma 90.000000
_cell_volume 4184.017397
_symmetry_space_group_name_H-M "C M M M"
_symmetry_group_IT_number 65
_symmetry_cell_setting 'orthorhombic'
loop_
_space_group_symop_operation_xyz
x,y,z
-x,-y,z
x,-y,-z
-x,y,-z
-x,-y,-z
x,y,-z
-x,y,z
x,-y,z
1/2+x,1/2+y,z
1/2-x,1/2-y,z
1/2+x,1/2-y,-z
1/2-x,1/2+y,-z
1/2-x,1/2-y,-z
1/2+x,1/2+y,-z
1/2-x,1/2+y,z
1/2+x,1/2-y,z
loop_
_atom_site_type_symbol
_atom_site_label
_atom_site_fract_x
_atom_site_fract_y
_atom_site_fract_z
Si Si1 0.782937 0.353893 0.141705
Si Si2 0.712230 0.196527 0.283887
Si Si3 0.712265 0.196200 0.000000
Si Si4 0.793574 0.353089 0.422821
Si Si5 0.289952 0.550996 0.362921
Si Si6 0.787023 0.449335 0.803282
O O1 0.723563 0.327153 0.212006
O O2 0.725869 0.406461 0.150736
O O3 0.000000 0.353483 0.141102
O O4 0.722226 0.328592 0.070997
O O5 0.500000 0.189807 0.283889
O O6 0.750000 0.250000 0.283497
O O7 0.784108 0.172884 0.355008
O O8 0.750000 0.250000 0.000000
O O9 0.500000 0.191402 0.000000
O O10 0.714798 0.343462 0.500000
O O11 0.785712 0.406989 0.406431
O O12 0.000000 0.339979 0.426010
O O13 0.500000 0.551052 0.374135
O O14 0.222376 0.500000 0.380033
O O15 0.255575 0.558799 0.279404
O O16 0.720062 0.500000 0.822021
O O17 0.000000 0.450375 0.808374
#
# Coordination Sequence:
#
# PCOD9488811 Si02
#       6
#    16  16   8  16  16  16
#     4   9  17  32  53  78 106 136 169 212 255 299
#     4  10  20  35  53  74 100 131 172 216 259 305
#     4  10  20  34  53  77 109 141 172 212 261 306
#     4  10  21  37  55  74 100 136 177 217 256 308
#     4  10  20  33  51  78 109 137 168 213 264 309
#     4   9  16  30  54  78 102 137 176 210 251 308
#
# _framework density 21.032416000000001
#
# number of rings (size 3 to 8) (size 9 to 14) (size 15 to 20)
#    0.000    2.364    1.818    1.091    0.000    2.909 
#    0.000    3.182    0.000    2.727    0.000    0.000 
#    0.000    3.636    0.000    0.000    0.000    0.000 
#
# Total GULP energy -245666.724636 kJ/mol
# GULP energy per Si atom -5583.334651 kJ/mol
# Density = 2.098455 g / cm^3
# Si number density = 21.032416 Si / 1000 Ang^3
#
#
#
# Elastic Constant Matrix: (Units=GPa)
#
#
# Indices 1 2 3 4 5 6 
#
# 1 51.4607 -4.0811 9.5489 0.0000 0.0000 0.0000
# 2 -4.0811 139.6277 103.1776 0.0000 0.0000 0.0000
# 3 9.5489 103.1776 184.7990 0.0000 0.0000 0.0000
# 4 0.0000 0.0000 0.0000 12.9704 0.0000 0.0000
# 5 0.0000 0.0000 0.0000 0.0000 -10.3938 0.0000
# 6 0.0000 0.0000 0.0000 0.0000 0.0000 19.2009
#
#
#
# Elastic Compliance Matrix: (Units=1/GPa)
#
#
# Indices 1 2 3 4 5 6 
#
# 1 0.020045 0.002300 -0.002320 0.000000 0.000000 0.000000
# 2 0.002300 0.012456 -0.007073 0.000000 0.000000 0.000000
# 3 -0.002320 -0.007073 0.009480 0.000000 0.000000 0.000000
# 4 0.000000 0.000000 0.000000 0.077098 0.000000 0.000000
# 5 0.000000 0.000000 0.000000 0.000000 -0.096212 0.000000
# 6 0.000000 0.000000 0.000000 0.000000 0.000000 0.052081
#
#
# Mechanical properties :
#
#
# Convention : Reuss Voigt Hill
#
# Bulk Modulus (GPa) = 35.97720 65.90868 50.94294
# Shear Modulus (GPa) = 50.81266 22.17164 36.49215
#
# Velocity S-wave (km/s) = 4.92053 3.25031 4.16990
# Velocity P-wave (km/s) = 7.03029 6.74469 6.88897
#
# Compressibility (1/GPa) = 0.02779538
#
# Stress axis : x y z
#
# Youngs Moduli (GPa) = 49.88715 80.28301 105.48129
#
# Poissons Ratio (x) = -0.18468 0.24473
# Poissons Ratio (y) = -0.11476 0.74610
# Poissons Ratio (z) = 0.11574 0.56787
#
# Static dielectric constant tensor:
#      x y z
#    x 1.755710 0.000000 0.000000 
#    y 0.000000 1.736850 0.000000 
#    z 0.000000 0.000000 1.741810 
# 
# From -- ./inp_files/50292.got.cif
#   From: 2010.05.17/outbox.cif.g08.bks.cpg/sg65_26_cif.got.tgz:50292.got - 2010.06.03 17:01:31.
