data_PCOD9488339
_publ_section_title
;
Structure prediction by ZEFSAII (Michael W. Deem and Ramdas Pophale) SiO2 
 PCOD9488339
Probable space group: C M M M
;
_chemical_formula_sum "Si O2"
_cell_formula_units_Z 80
_cell_length_a 18.787746
_cell_length_b 17.104843
_cell_length_c 18.813878
_cell_angle_alpha 90.000000
_cell_angle_beta 90.000000
_cell_angle_gamma 90.000000
_cell_volume 6046.055032
_symmetry_space_group_name_H-M "C M M M"
_symmetry_group_IT_number 65
_symmetry_cell_setting 'orthorhombic'
loop_
_space_group_symop_operation_xyz
x,y,z
-x,-y,z
x,-y,-z
-x,y,-z
-x,-y,-z
x,y,-z
-x,y,z
x,-y,z
1/2+x,1/2+y,z
1/2-x,1/2-y,z
1/2+x,1/2-y,-z
1/2-x,1/2+y,-z
1/2-x,1/2-y,-z
1/2+x,1/2+y,-z
1/2-x,1/2+y,z
1/2+x,1/2-y,z
loop_
_atom_site_type_symbol
_atom_site_label
_atom_site_fract_x
_atom_site_fract_y
_atom_site_fract_z
Si Si1 0.084930 0.000000 0.418060
Si Si2 0.152407 0.848923 0.656790
Si Si3 0.500000 0.404984 0.919598
Si Si4 0.711976 0.907524 0.583612
Si Si5 0.918756 0.907764 0.212583
Si Si6 0.582425 0.199682 0.584168
O O1 0.113884 0.923125 0.379995
O O2 0.108710 0.000000 0.500000
O O3 0.000000 0.000000 0.416285
O O4 0.233671 0.859146 0.632395
O O5 0.135519 0.859575 0.740017
O O6 0.117339 0.770758 0.626865
O O7 0.500000 0.500000 0.921384
O O8 0.567540 0.383989 0.869556
O O9 0.500000 0.376085 0.000000
O O10 0.730052 0.894493 0.500000
O O11 0.632296 0.875776 0.594212
O O12 0.718201 0.000000 0.597739
O O13 0.000000 0.900280 0.243199
O O14 0.900758 0.000000 0.215237
O O15 0.584934 0.219451 0.500000
O O16 0.500000 0.187945 0.603481
#
# Coordination Sequence:
#
# PCOD9488339 Si02
#       6
#     8  16   8  16  16  16
#     4  11  20  24  34  54  81 115 139 163 202 247
#     4  12  18  27  42  60  86 107 135 174 216 259
#     4   7  12  22  36  54  80 116 151 168 181 227
#     4  10  20  33  46  58  76 108 149 188 223 254
#     4   8  14  22  35  55  81 113 137 163 198 234
#     4  10  21  33  44  58  78 108 146 188 222 252
#
# _framework density 13.231769
#
# number of rings (size 3 to 8) (size 9 to 14) (size 15 to 20)
#    0.600    1.600    2.000    4.200    0.000    3.600 
#    0.000    2.000    0.000    0.000    0.000    0.000 
#    0.000    3.200    0.000    0.400    0.000    1.400 
#
# Total GULP energy -222673.880085 kJ/mol
# GULP energy per Si atom -5566.847002 kJ/mol
# Density = 1.320165 g / cm^3
# Si number density = 13.231769 Si / 1000 Ang^3
#
#
#
# Elastic Constant Matrix: (Units=GPa)
#
#
# Indices 1 2 3 4 5 6 
#
# 1 80.6086 21.6536 31.7017 0.0000 0.0000 0.0000
# 2 21.6536 21.6715 16.1990 0.0000 0.0000 0.0000
# 3 31.7017 16.1990 77.4251 0.0000 0.0000 0.0000
# 4 0.0000 0.0000 0.0000 9.8156 0.0000 0.0000
# 5 0.0000 0.0000 0.0000 0.0000 11.9633 0.0000
# 6 0.0000 0.0000 0.0000 0.0000 0.0000 11.6965
#
#
#
# Elastic Compliance Matrix: (Units=1/GPa)
#
#
# Indices 1 2 3 4 5 6 
#
# 1 0.018087 -0.014861 -0.004297 0.000000 0.000000 0.000000
# 2 -0.014861 0.066907 -0.007914 0.000000 0.000000 0.000000
# 3 -0.004297 -0.007914 0.016331 0.000000 0.000000 0.000000
# 4 0.000000 0.000000 0.000000 0.101879 0.000000 0.000000
# 5 0.000000 0.000000 0.000000 0.000000 0.083589 0.000000
# 6 0.000000 0.000000 0.000000 0.000000 0.000000 0.085496
#
#
# Mechanical properties :
#
#
# Convention : Reuss Voigt Hill
#
# Bulk Modulus (GPa) = 21.19405 35.42376 28.30891
# Shear Modulus (GPa) = 11.30815 14.03847 12.67331
#
# Velocity S-wave (km/s) = 2.92656 3.26078 3.09818
# Velocity P-wave (km/s) = 5.24137 6.40366 5.85144
#
# Compressibility (1/GPa) = 0.04718305
#
# Stress axis : x y z
#
# Youngs Moduli (GPa) = 55.28703 14.94609 61.23440
#
# Poissons Ratio (x) = 0.22211 0.26311
# Poissons Ratio (y) = 0.82161 0.48459
# Poissons Ratio (z) = 0.23755 0.11828
#
# Static dielectric constant tensor:
#      x y z
#    x 1.454950 0.000000 0.000000 
#    y 0.000000 1.419680 0.000000 
#    z 0.000000 0.000000 1.447730 
# 
# From -- ./inp_files/63721.got.cif
#   From: 2010.05.17/outbox.cif.g08.bks.cpg/sg65_32_cif.got.tgz:63721.got - 2010.06.03 17:01:31.
