data_PCOD9488620
_publ_section_title
;
Structure prediction by ZEFSAII (Michael W. Deem and Ramdas Pophale) SiO2 
 PCOD9488620
Probable space group: C M M M
;
_chemical_formula_sum "Si O2"
_cell_formula_units_Z 88
_cell_length_a 9.608276
_cell_length_b 27.962295
_cell_length_c 18.747272
_cell_angle_alpha 90.000000
_cell_angle_beta 90.000000
_cell_angle_gamma 90.000000
_cell_volume 5036.819219
_symmetry_space_group_name_H-M "C M M M"
_symmetry_group_IT_number 65
_symmetry_cell_setting 'orthorhombic'
loop_
_space_group_symop_operation_xyz
x,y,z
-x,-y,z
x,-y,-z
-x,y,-z
-x,-y,-z
x,y,-z
-x,y,z
x,-y,z
1/2+x,1/2+y,z
1/2-x,1/2-y,z
1/2+x,1/2-y,-z
1/2-x,1/2+y,-z
1/2-x,1/2-y,-z
1/2+x,1/2+y,-z
1/2-x,1/2+y,z
1/2+x,1/2-y,z
loop_
_atom_site_type_symbol
_atom_site_label
_atom_site_fract_x
_atom_site_fract_y
_atom_site_fract_z
Si Si1 0.665956 0.700232 0.000000
Si Si2 0.334102 0.299507 0.156584
Si Si3 0.842277 0.058243 0.919254
Si Si4 0.165578 0.868065 0.290000
Si Si5 0.665320 0.297897 0.417269
Si Si6 0.838493 0.557217 0.783071
O O1 0.750000 0.750000 0.000000
O O2 0.696349 0.678135 0.077898
O O3 0.500000 0.709111 0.000000
O O4 0.500000 0.289716 0.159482
O O5 0.250000 0.250000 0.162393
O O6 0.301780 0.333592 0.222752
O O7 0.734164 0.070617 0.858116
O O8 0.000000 0.074778 0.901794
O O9 0.846628 0.000000 0.920742
O O10 0.809176 0.073691 0.000000
O O11 0.199717 0.839747 0.362127
O O12 0.253592 0.915524 0.277650
O O13 0.000000 0.877916 0.288734
O O14 0.693376 0.310286 0.500000
O O15 0.500000 0.288346 0.410330
O O16 0.750000 0.250000 0.399891
O O17 0.828250 0.500000 0.775495
O O18 0.000000 0.570678 0.783076
#
# Coordination Sequence:
#
# PCOD9488620 Si02
#       6
#     8  16  16  16  16  16
#     4   8  14  26  42  60  87 122 157 193 232 273
#     4   9  17  29  46  68  94 125 160 198 240 287
#     4   8  14  27  48  70  91 121 163 209 258 309
#     4  10  20  33  50  74 101 131 169 208 250 304
#     4   9  18  33  54  81 111 138 164 200 249 305
#     4  10  21  35  50  70  98 132 171 217 265 307
#
# _framework density 17.471344999999999
#
# number of rings (size 3 to 8) (size 9 to 14) (size 15 to 20)
#    0.000    2.909    0.000    1.636    0.000    2.909 
#    1.636    1.818    0.000    0.545    0.000    3.818 
#    0.000    0.000    0.000    0.000    0.000    0.000 
#
# Total GULP energy -245352.848809 kJ/mol
# GULP energy per Si atom -5576.201109 kJ/mol
# Density = 1.743158 g / cm^3
# Si number density = 17.471345 Si / 1000 Ang^3
#
#
#
# Elastic Constant Matrix: (Units=GPa)
#
#
# Indices 1 2 3 4 5 6 
#
# 1 60.7599 46.4944 53.1539 0.0000 0.0000 0.0000
# 2 46.4944 53.2620 41.2276 0.0000 0.0000 0.0000
# 3 53.1539 41.2276 89.5819 0.0000 0.0000 0.0000
# 4 0.0000 0.0000 0.0000 29.4394 0.0000 0.0000
# 5 0.0000 0.0000 0.0000 0.0000 17.6562 0.0000
# 6 0.0000 0.0000 0.0000 0.0000 0.0000 25.8071
#
#
#
# Elastic Compliance Matrix: (Units=1/GPa)
#
#
# Indices 1 2 3 4 5 6 
#
# 1 0.066382 -0.042654 -0.019758 0.000000 0.000000 0.000000
# 2 -0.042654 0.056572 -0.000727 0.000000 0.000000 0.000000
# 3 -0.019758 -0.000727 0.023221 0.000000 0.000000 0.000000
# 4 0.000000 0.000000 0.000000 0.033968 0.000000 0.000000
# 5 0.000000 0.000000 0.000000 0.000000 0.056637 0.000000
# 6 0.000000 0.000000 0.000000 0.000000 0.000000 0.038749
#
#
# Mechanical properties :
#
#
# Convention : Reuss Voigt Hill
#
# Bulk Modulus (GPa) = 50.25672 53.92841 52.09256
# Shear Modulus (GPa) = 12.24173 18.76240 15.50206
#
# Velocity S-wave (km/s) = 2.64990 3.28059 2.98196
# Velocity P-wave (km/s) = 6.17983 6.72930 6.46041
#
# Compressibility (1/GPa) = 0.01989784
#
# Stress axis : x y z
#
# Youngs Moduli (GPa) = 15.06425 17.67667 43.06458
#
# Poissons Ratio (x) = 0.75398 0.85087
# Poissons Ratio (y) = 0.64255 0.03129
# Poissons Ratio (z) = 0.29764 0.01285
#
# Static dielectric constant tensor:
#      x y z
#    x 1.573660 0.000000 0.000000 
#    y 0.000000 1.617910 0.000000 
#    z 0.000000 0.000000 1.605300 
# 
# From -- ./inp_files/50415.got.cif
#   From: 2010.05.17/outbox.cif.g08.bks.cpg/sg65_26_cif.got.tgz:50415.got - 2010.06.03 17:01:31.
