data_PCOD9488046
_publ_section_title
;
Structure prediction by ZEFSAII (Michael W. Deem and Ramdas Pophale) SiO2 
 PCOD9488046
Probable space group: C M M M
;
_chemical_formula_sum "Si O2"
_cell_formula_units_Z 96
_cell_length_a 14.247155
_cell_length_b 19.583718
_cell_length_c 13.513025
_cell_angle_alpha 90.000000
_cell_angle_beta 90.000000
_cell_angle_gamma 90.000000
_cell_volume 3770.299723
_symmetry_space_group_name_H-M "C M M M"
_symmetry_group_IT_number 65
_symmetry_cell_setting 'orthorhombic'
loop_
_space_group_symop_operation_xyz
x,y,z
-x,-y,z
x,-y,-z
-x,y,-z
-x,-y,-z
x,y,-z
-x,y,z
x,-y,z
1/2+x,1/2+y,z
1/2-x,1/2-y,z
1/2+x,1/2-y,-z
1/2-x,1/2+y,-z
1/2-x,1/2-y,-z
1/2+x,1/2+y,-z
1/2-x,1/2+y,z
1/2+x,1/2-y,z
loop_
_atom_site_type_symbol
_atom_site_label
_atom_site_fract_x
_atom_site_fract_y
_atom_site_fract_z
Si Si1 0.890798 0.219904 0.106568
Si Si2 0.815832 0.078172 0.157124
Si Si3 0.101208 0.605227 0.367749
Si Si4 0.310161 0.600715 0.392340
Si Si5 0.897820 0.579425 0.135908
Si Si6 0.609116 0.261061 0.673025
O O1 0.879816 0.138267 0.115984
O O2 0.856878 0.248021 0.212822
O O3 0.000000 0.236847 0.105770
O O4 0.852617 0.243403 0.000000
O O5 0.831012 0.077976 0.278026
O O6 0.710554 0.100667 0.120006
O O7 0.831041 0.000000 0.125242
O O8 0.201480 0.580754 0.402043
O O9 0.098628 0.586277 0.253239
O O10 0.106945 0.687289 0.376137
O O11 0.000000 0.582398 0.404766
O O12 0.354561 0.580716 0.500000
O O13 0.329837 0.681864 0.380767
O O14 0.899402 0.500000 0.108369
O O15 0.000000 0.608708 0.102759
O O16 0.500000 0.285687 0.675634
#
# Coordination Sequence:
#
# PCOD9488046 Si02
#       6
#    16  16  16  16  16  16
#     4   9  18  33  53  76 100 125 156 199 250 299
#     4   9  18  32  50  72  98 127 160 200 245 294
#     4   9  17  29  47  70  96 126 161 201 242 285
#     4  10  20  32  47  68  97 132 167 204 242 282
#     4   8  14  27  48  70  92 122 157 192 234 281
#     4   9  18  32  49  70  98 129 160 198 244 293
#
# _framework density 25.462166
#
# number of rings (size 3 to 8) (size 9 to 14) (size 15 to 20)
#    0.000    3.000    0.000    0.500    0.000    3.000 
#    0.000    2.500    0.000   18.500    0.000   25.667 
#    0.000    0.000    0.000    0.000    0.000    0.000 
#
# Total GULP energy -267329.717821 kJ/mol
# GULP energy per Si atom -5569.369121 kJ/mol
# Density = 2.540421 g / cm^3
# Si number density = 25.462166 Si / 1000 Ang^3
#
#
#
# Elastic Constant Matrix: (Units=GPa)
#
#
# Indices 1 2 3 4 5 6 
#
# 1 86.6959 17.5306 4.6517 0.0000 0.0000 0.0000
# 2 17.5306 113.7833 4.5659 0.0000 0.0000 0.0000
# 3 4.6517 4.5659 166.0482 0.0000 0.0000 0.0000
# 4 0.0000 0.0000 0.0000 -76.3825 0.0000 0.0000
# 5 0.0000 0.0000 0.0000 0.0000 -37.3444 0.0000
# 6 0.0000 0.0000 0.0000 0.0000 0.0000 10.8565
#
#
#
# Elastic Compliance Matrix: (Units=1/GPa)
#
#
# Indices 1 2 3 4 5 6 
#
# 1 0.011919 -0.001825 -0.000284 0.000000 0.000000 0.000000
# 2 -0.001825 0.009078 -0.000198 0.000000 0.000000 0.000000
# 3 -0.000284 -0.000198 0.006036 0.000000 0.000000 0.000000
# 4 0.000000 0.000000 0.000000 -0.013092 0.000000 0.000000
# 5 0.000000 0.000000 0.000000 0.000000 -0.026778 0.000000
# 6 0.000000 0.000000 0.000000 0.000000 0.000000 0.092111
#
#
# Mechanical properties :
#
#
# Convention : Reuss Voigt Hill
#
# Bulk Modulus (GPa) = 44.60692 46.66929 45.63811
# Shear Modulus (GPa) = 54.72822 2.07786 28.40304
#
# Velocity S-wave (km/s) = 4.64119 0.90434 3.34353
# Velocity P-wave (km/s) = 6.80277 4.41125 5.73310
#
# Compressibility (1/GPa) = 0.02241805
#
# Stress axis : x y z
#
# Youngs Moduli (GPa) = 83.90095 110.15920 165.67942
#
# Poissons Ratio (x) = 0.20103 0.04701
# Poissons Ratio (y) = 0.15311 0.03289
# Poissons Ratio (z) = 0.02380 0.02187
#
# Static dielectric constant tensor:
#      x y z
#    x 2.026230 0.000000 0.000000 
#    y 0.000000 1.970200 0.000000 
#    z 0.000000 0.000000 2.174870 
# 
# From -- ./inp_files/40366.got.cif
#   From: 2010.05.17/outbox.cif.g08.bks.cpg/sg65_21_cif.got.tgz:40366.got - 2010.06.03 17:01:31.
