data_PCOD9488051
_publ_section_title
;
Structure prediction by ZEFSAII (Michael W. Deem and Ramdas Pophale) SiO2 
 PCOD9488051
Probable space group: C M M M
;
_chemical_formula_sum "Si O2"
_cell_formula_units_Z 88
_cell_length_a 19.276716
_cell_length_b 7.551992
_cell_length_c 29.800104
_cell_angle_alpha 90.000000
_cell_angle_beta 90.000000
_cell_angle_gamma 90.000000
_cell_volume 4338.227770
_symmetry_space_group_name_H-M "C M M M"
_symmetry_group_IT_number 65
_symmetry_cell_setting 'orthorhombic'
loop_
_space_group_symop_operation_xyz
x,y,z
-x,-y,z
x,-y,-z
-x,y,-z
-x,-y,-z
x,y,-z
-x,y,z
x,-y,z
1/2+x,1/2+y,z
1/2-x,1/2-y,z
1/2+x,1/2-y,-z
1/2-x,1/2+y,-z
1/2-x,1/2-y,-z
1/2+x,1/2+y,-z
1/2-x,1/2+y,z
1/2+x,1/2-y,z
loop_
_atom_site_type_symbol
_atom_site_label
_atom_site_fract_x
_atom_site_fract_y
_atom_site_fract_z
Si Si1 0.919702 0.215927 0.366607
Si Si2 0.668638 0.287503 0.450450
Si Si3 0.920584 0.210548 0.901957
Si Si4 0.421109 0.210251 0.000000
Si Si5 0.919592 0.783940 0.733777
Si Si6 0.831396 0.787297 0.181655
O O1 0.873766 0.280839 0.407883
O O2 0.898462 0.272679 0.316443
O O3 0.000000 0.265114 0.372855
O O4 0.916942 0.000000 0.366607
O O5 0.647351 0.220831 0.500000
O O6 0.659732 0.500000 0.451177
O O7 0.750000 0.250000 0.445087
O O8 0.890638 0.237963 0.951968
O O9 0.872106 0.280374 0.862311
O O10 0.000000 0.281884 0.900330
O O11 0.925979 0.000000 0.895669
O O12 0.500000 0.285297 0.000000
O O13 0.425073 0.000000 0.000000
O O14 0.869523 0.721910 0.773305
O O15 0.000000 0.732346 0.741510
O O16 0.918967 0.000000 0.733883
O O17 0.750000 0.750000 0.180732
O O18 0.838545 0.000000 0.181840
#
# Coordination Sequence:
#
# PCOD9488051 Si02
#       6
#    16  16  16   8  16  16
#     4   8  14  25  43  67  90 112 145 191 234 266
#     4   9  17  28  42  62  89 120 152 185 223 269
#     4   9  17  31  51  71  91 119 155 189 219 258
#     4   9  17  29  48  75 100 119 145 185 230 269
#     4   8  14  27  47  68  89 115 150 189 226 267
#     4  10  20  32  47  69  95 121 150 185 225 268
#
# _framework density 20.284780000000001
#
# number of rings (size 3 to 8) (size 9 to 14) (size 15 to 20)
#    0.000    3.182    0.000    1.909    0.000    5.091 
#    0.000    2.273    0.000    2.182    0.000    5.091 
#    0.000    0.000    0.000    0.000    0.000    0.000 
#
# Total GULP energy -245304.903291 kJ/mol
# GULP energy per Si atom -5575.111438 kJ/mol
# Density = 2.023861 g / cm^3
# Si number density = 20.284780 Si / 1000 Ang^3
#
#
#
# Elastic Constant Matrix: (Units=GPa)
#
#
# Indices 1 2 3 4 5 6 
#
# 1 98.6782 1.6355 127.1809 0.0000 0.0000 0.0000
# 2 1.6355 49.4552 7.5826 0.0000 0.0000 0.0000
# 3 127.1809 7.5826 258.3525 0.0000 0.0000 0.0000
# 4 0.0000 0.0000 0.0000 -5.8741 0.0000 0.0000
# 5 0.0000 0.0000 0.0000 0.0000 28.8006 0.0000
# 6 0.0000 0.0000 0.0000 0.0000 0.0000 16.5612
#
#
#
# Elastic Compliance Matrix: (Units=1/GPa)
#
#
# Indices 1 2 3 4 5 6 
#
# 1 0.027793 0.001184 -0.013716 0.000000 0.000000 0.000000
# 2 0.001184 0.020362 -0.001180 0.000000 0.000000 0.000000
# 3 -0.013716 -0.001180 0.010658 0.000000 0.000000 0.000000
# 4 0.000000 0.000000 0.000000 -0.170238 0.000000 0.000000
# 5 0.000000 0.000000 0.000000 0.000000 0.034721 0.000000
# 6 0.000000 0.000000 0.000000 0.000000 0.000000 0.060382
#
#
# Mechanical properties :
#
#
# Convention : Reuss Voigt Hill
#
# Bulk Modulus (GPa) = 31.86079 75.47601 53.66840
# Shear Modulus (GPa) = 231.85022 25.90334 128.87678
#
# Velocity S-wave (km/s) = 10.70261 3.57737 7.97945
# Velocity P-wave (km/s) = 12.97954 7.37241 10.55512
#
# Compressibility (1/GPa) = 0.03138654
#
# Stress axis : x y z
#
# Youngs Moduli (GPa) = 35.98068 49.11070 93.82968
#
# Poissons Ratio (x) = -0.05814 1.28701
# Poissons Ratio (y) = -0.04260 0.11076
# Poissons Ratio (z) = 0.49353 0.05797
#
# Static dielectric constant tensor:
#      x y z
#    x 1.674170 0.000000 0.000000 
#    y 0.000000 1.773790 0.000000 
#    z 0.000000 0.000000 1.745910 
# 
# From -- ./inp_files/76549.got.cif
#   From: 2010.05.17/outbox.cif.g08.bks.cpg/sg65_39_cif.got.tgz:76549.got - 2010.06.03 17:01:31.
