data_PCOD9488698
_publ_section_title
;
Structure prediction by ZEFSAII (Michael W. Deem and Ramdas Pophale) SiO2 
 PCOD9488698
Probable space group: C M M M
;
_chemical_formula_sum "Si O2"
_cell_formula_units_Z 120
_cell_length_a 27.190990
_cell_length_b 8.829706
_cell_length_c 28.314473
_cell_angle_alpha 90.000000
_cell_angle_beta 90.000000
_cell_angle_gamma 90.000000
_cell_volume 6797.977866
_symmetry_space_group_name_H-M "C M M M"
_symmetry_group_IT_number 65
_symmetry_cell_setting 'orthorhombic'
loop_
_space_group_symop_operation_xyz
x,y,z
-x,-y,z
x,-y,-z
-x,y,-z
-x,-y,-z
x,y,-z
-x,y,z
x,-y,z
1/2+x,1/2+y,z
1/2-x,1/2-y,z
1/2+x,1/2-y,-z
1/2-x,1/2+y,-z
1/2-x,1/2-y,-z
1/2+x,1/2+y,-z
1/2-x,1/2+y,z
1/2+x,1/2-y,z
loop_
_atom_site_type_symbol
_atom_site_label
_atom_site_fract_x
_atom_site_fract_y
_atom_site_fract_z
Si Si1 0.500000 0.176310 0.556559
Si Si2 0.304545 0.317067 0.052382
Si Si3 0.597983 0.319541 0.601205
Si Si4 0.651074 0.682526 0.849594
Si Si5 0.400031 0.179514 0.296237
Si Si6 0.445365 0.681251 0.794714
Si Si7 0.302882 0.820384 0.556724
Si Si8 0.299881 0.821036 0.759482
O O1 0.500000 0.182298 0.500000
O O2 0.549870 0.253887 0.575060
O O3 0.500000 0.000000 0.571475
O O4 0.301491 0.500000 0.053559
O O5 0.250000 0.250000 0.057337
O O6 0.336084 0.267698 0.097536
O O7 0.323189 0.273778 0.000000
O O8 0.598868 0.500000 0.596740
O O9 0.593373 0.269020 0.655564
O O10 0.649175 0.252644 0.580791
O O11 0.654637 0.500000 0.847968
O O12 0.596936 0.726383 0.831454
O O13 0.687649 0.749307 0.810378
O O14 0.435713 0.236068 0.254755
O O15 0.345655 0.208387 0.274973
O O16 0.405709 0.000000 0.304233
O O17 0.500000 0.713316 0.812165
O O18 0.440867 0.500000 0.786887
O O19 0.307230 0.798528 0.500000
O O20 0.250000 0.750000 0.571187
O O21 0.302484 0.000000 0.566376
O O22 0.250000 0.750000 0.740611
O O23 0.294590 0.000000 0.764964
#
# Coordination Sequence:
#
# PCOD9488698 Si02
#       8
#     8  16  16  16  16  16  16  16
#     4  11  25  45  67  89 115 149 187 229 276 327
#     4   9  17  28  43  66  97 132 169 208 254 309
#     4  12  25  40  61  88 118 150 185 227 277 332
#     4   9  17  30  48  70  97 132 171 213 261 310
#     4  10  22  38  54  76 106 139 175 214 261 315
#     4   9  18  33  53  74  98 128 168 216 263 315
#     4  10  21  39  63  89 117 150 188 229 273 323
#     4  10  20  33  51  74 102 137 174 214 259 311
#
# _framework density 17.652308000000001
#
# number of rings (size 3 to 8) (size 9 to 14) (size 15 to 20)
#    0.000    2.067    0.000    3.400    0.933    6.933 
#    0.000    1.333    0.000    0.400    0.000    2.800 
#    0.000    0.000    0.000   10.000    0.000   10.400 
#
# Total GULP energy -334914.635609 kJ/mol
# GULP energy per Si atom -5581.910593 kJ/mol
# Density = 1.761213 g / cm^3
# Si number density = 17.652308 Si / 1000 Ang^3
#
#
#
# Elastic Constant Matrix: (Units=GPa)
#
#
# Indices 1 2 3 4 5 6 
#
# 1 110.6421 44.7290 44.4987 0.0000 0.0000 0.0000
# 2 44.7290 58.1358 46.2396 0.0000 0.0000 0.0000
# 3 44.4987 46.2396 94.5388 0.0000 0.0000 0.0000
# 4 0.0000 0.0000 0.0000 21.0440 0.0000 0.0000
# 5 0.0000 0.0000 0.0000 0.0000 1.1403 0.0000
# 6 0.0000 0.0000 0.0000 0.0000 0.0000 28.6017
#
#
#
# Elastic Compliance Matrix: (Units=1/GPa)
#
#
# Indices 1 2 3 4 5 6 
#
# 1 0.013360 -0.008638 -0.002064 0.000000 0.000000 0.000000
# 2 -0.008638 0.033738 -0.012436 0.000000 0.000000 0.000000
# 3 -0.002064 -0.012436 0.017632 0.000000 0.000000 0.000000
# 4 0.000000 0.000000 0.000000 0.047520 0.000000 0.000000
# 5 0.000000 0.000000 0.000000 0.000000 0.876939 0.000000
# 6 0.000000 0.000000 0.000000 0.000000 0.000000 0.034963
#
#
# Mechanical properties :
#
#
# Convention : Reuss Voigt Hill
#
# Bulk Modulus (GPa) = 54.18552 59.36125 56.77339
# Shear Modulus (GPa) = 4.64435 18.68050 11.66242
#
# Velocity S-wave (km/s) = 1.62380 3.25660 2.57315
# Velocity P-wave (km/s) = 5.85477 6.91676 6.40780
#
# Compressibility (1/GPa) = 0.01845511
#
# Stress axis : x y z
#
# Youngs Moduli (GPa) = 74.84994 29.64032 56.71667
#
# Poissons Ratio (x) = 0.25602 0.11705
# Poissons Ratio (y) = 0.64652 0.70532
# Poissons Ratio (z) = 0.15447 0.36860
#
# Static dielectric constant tensor:
#      x y z
#    x 1.595930 0.000000 0.000000 
#    y 0.000000 1.594320 0.000000 
#    z 0.000000 0.000000 1.590630 
# 
# From -- ./inp_files/76140.got.cif
#   From: 2010.05.17/outbox.cif.g08.bks.cpg/sg65_39_cif.got.tgz:76140.got - 2010.06.03 17:01:31.
