data_PCOD9488990
_publ_section_title
;
Structure prediction by ZEFSAII (Michael W. Deem and Ramdas Pophale) SiO2 
 PCOD9488990
Probable space group: C M M M
;
_chemical_formula_sum "Si O2"
_cell_formula_units_Z 112
_cell_length_a 25.885862
_cell_length_b 14.532617
_cell_length_c 15.562723
_cell_angle_alpha 90.000000
_cell_angle_beta 90.000000
_cell_angle_gamma 90.000000
_cell_volume 5854.530154
_symmetry_space_group_name_H-M "C M M M"
_symmetry_group_IT_number 65
_symmetry_cell_setting 'orthorhombic'
loop_
_space_group_symop_operation_xyz
x,y,z
-x,-y,z
x,-y,-z
-x,y,-z
-x,-y,-z
x,y,-z
-x,y,z
x,-y,z
1/2+x,1/2+y,z
1/2-x,1/2-y,z
1/2+x,1/2-y,-z
1/2-x,1/2+y,-z
1/2-x,1/2-y,-z
1/2+x,1/2+y,-z
1/2-x,1/2+y,z
1/2+x,1/2-y,z
loop_
_atom_site_type_symbol
_atom_site_label
_atom_site_fract_x
_atom_site_fract_y
_atom_site_fract_z
Si Si1 0.875841 0.297522 0.098982
Si Si2 0.729484 0.893934 0.602290
Si Si3 0.061732 0.391855 0.750000
Si Si4 0.846583 0.103936 0.349857
Si Si5 0.346583 0.603936 0.849857
Si Si6 0.270516 0.106066 0.897710
Si Si7 0.624159 0.202478 0.401018
O O1 0.914860 0.342964 0.165775
O O2 0.875367 0.187105 0.104126
O O3 0.818296 0.330400 0.126736
O O4 0.883737 0.327183 0.000000
O O5 0.737702 0.882300 0.500000
O O6 0.784928 0.878386 0.644165
O O7 0.681704 0.830400 0.626736
O O8 0.714607 0.000000 0.618758
O O9 0.075948 0.500000 0.750000
O O10 0.085140 0.342963 0.665775
O O11 0.000000 0.384715 0.750000
O O12 0.861401 0.105720 0.250000
O O13 0.875367 0.187105 0.395874
O O14 0.854880 0.000000 0.383663
O O15 0.354880 0.500000 0.883663
O O16 0.284928 0.621614 0.855835
O O17 0.285393 0.000000 0.881242
O O18 0.262298 0.117700 0.000000
O O19 0.616263 0.172817 0.500000
#
# Coordination Sequence:
#
# PCOD9488990 Si02
#       7
#    16  16  16  16  16  16  16
#     4  11  22  38  62  88 117 157 199 238 287 346
#     4   9  18  31  49  81 122 160 197 234 277 336
#     4  11  26  46  66  89 115 143 184 244 306 355
#     4  10  20  33  53  86 126 164 199 235 277 332
#     4  10  20  33  53  86 126 164 199 235 277 332
#     4   9  18  31  49  81 122 160 197 234 277 336
#     4  11  22  38  62  88 117 157 199 238 287 346
#
# _framework density 19.130486000000001
#
# number of rings (size 3 to 8) (size 9 to 14) (size 15 to 20)
#    0.000    1.857    1.429    2.571    2.000    7.429 
#    0.000    1.429    0.000    1.714    0.000    2.000 
#    0.000    0.000    0.000    0.000    0.000    0.000 
#
# Total GULP energy -312745.686182 kJ/mol
# GULP energy per Si atom -5584.744396 kJ/mol
# Density = 1.908694 g / cm^3
# Si number density = 19.130486 Si / 1000 Ang^3
#
#
#
# Elastic Constant Matrix: (Units=GPa)
#
#
# Indices 1 2 3 4 5 6 
#
# 1 36.0499 49.8450 32.0454 0.0000 0.0000 0.0000
# 2 49.8450 125.7430 43.8428 0.0000 0.0000 0.0000
# 3 32.0454 43.8428 79.9164 0.0000 0.0000 0.0000
# 4 0.0000 0.0000 0.0000 20.5109 0.0000 0.0000
# 5 0.0000 0.0000 0.0000 0.0000 161.7429 0.0000
# 6 0.0000 0.0000 0.0000 0.0000 0.0000 19.9698
#
#
#
# Elastic Compliance Matrix: (Units=1/GPa)
#
#
# Indices 1 2 3 4 5 6 
#
# 1 0.077142 -0.024476 -0.017505 0.000000 0.000000 0.000000
# 2 -0.024476 0.017599 0.000159 0.000000 0.000000 0.000000
# 3 -0.017505 0.000159 0.019445 0.000000 0.000000 0.000000
# 4 0.000000 0.000000 0.000000 0.048755 0.000000 0.000000
# 5 0.000000 0.000000 0.000000 0.000000 0.006183 0.000000
# 6 0.000000 0.000000 0.000000 0.000000 0.000000 0.050076
#
#
# Mechanical properties :
#
#
# Convention : Reuss Voigt Hill
#
# Bulk Modulus (GPa) = 32.74090 54.79729 43.76909
# Shear Modulus (GPa) = 15.97326 48.17647 32.07487
#
# Velocity S-wave (km/s) = 2.89271 5.02372 4.09912
# Velocity P-wave (km/s) = 5.32059 7.89661 6.73295
#
# Compressibility (1/GPa) = 0.03054284
#
# Stress axis : x y z
#
# Youngs Moduli (GPa) = 12.96318 56.81983 51.42693
#
# Poissons Ratio (x) = 1.39071 0.90024
# Poissons Ratio (y) = 0.31728 -0.00819
# Poissons Ratio (z) = 0.22692 -0.00905
#
# Static dielectric constant tensor:
#      x y z
#    x 1.622190 0.000000 0.000000 
#    y 0.000000 1.707260 0.000000 
#    z 0.000000 0.000000 1.685890 
# 
# From -- ./inp_files/45757.got.cif
#   From: 2010.05.17/outbox.cif.g08.bks.cpg/sg65_23_cif.got.tgz:45757.got - 2010.06.03 17:01:31.
