data_PCOD9488043
_publ_section_title
;
Structure prediction by ZEFSAII (Michael W. Deem and Ramdas Pophale) SiO2 
 PCOD9488043
Probable space group: C M M M
;
_chemical_formula_sum "Si O2"
_cell_formula_units_Z 72
_cell_length_a 16.853434
_cell_length_b 28.342026
_cell_length_c 7.491102
_cell_angle_alpha 90.000000
_cell_angle_beta 90.000000
_cell_angle_gamma 90.000000
_cell_volume 3578.203262
_symmetry_space_group_name_H-M "C M M M"
_symmetry_group_IT_number 65
_symmetry_cell_setting 'orthorhombic'
loop_
_space_group_symop_operation_xyz
x,y,z
-x,-y,z
x,-y,-z
-x,y,-z
-x,-y,-z
x,y,-z
-x,y,z
x,-y,z
1/2+x,1/2+y,z
1/2-x,1/2-y,z
1/2+x,1/2-y,-z
1/2-x,1/2+y,-z
1/2-x,1/2-y,-z
1/2+x,1/2+y,-z
1/2-x,1/2+y,z
1/2+x,1/2-y,z
loop_
_atom_site_type_symbol
_atom_site_label
_atom_site_fract_x
_atom_site_fract_y
_atom_site_fract_z
Si Si1 0.000000 0.445092 0.719405
Si Si2 0.312075 0.553321 0.213724
Si Si3 0.756672 0.804152 0.280878
Si Si4 0.654483 0.110463 0.706897
Si Si5 0.412361 0.641672 0.711805
O O1 0.078267 0.416784 0.780838
O O2 0.000000 0.500000 0.775375
O O3 0.000000 0.446179 0.500000
O O4 0.322244 0.500000 0.277409
O O5 0.230803 0.576234 0.284394
O O6 0.383539 0.588047 0.262817
O O7 0.305758 0.552895 0.000000
O O8 0.755802 0.805609 0.500000
O O9 0.750000 0.750000 0.227037
O O10 0.686871 0.839663 0.219264
O O11 0.840294 0.826233 0.219616
O O12 0.635148 0.119537 0.500000
O O13 0.415927 0.650432 0.500000
O O14 0.500000 0.649827 0.786219
#
# Coordination Sequence:
#
# PCOD9488043 Si02
#       5
#     8  16  16  16  16
#     4   9  16  26  43  69  97 123 155 195 234 275
#     4  10  20  32  47  68  94 125 159 195 238 282
#     4   8  14  27  46  68  95 122 150 189 235 278
#     4   9  17  30  48  69  95 126 160 195 234 283
#     4   9  18  32  49  70  95 124 158 192 230 280
#
# _framework density 20.121829999999999
#
# number of rings (size 3 to 8) (size 9 to 14) (size 15 to 20)
#    0.000    3.000    0.000    2.667    0.000    3.556 
#    2.000    2.778    0.000   12.667    0.000    0.000 
#    0.000    0.000    0.000    0.000    0.000    0.000 
#
# Total GULP energy -200728.554472 kJ/mol
# GULP energy per Si atom -5575.793180 kJ/mol
# Density = 2.007603 g / cm^3
# Si number density = 20.121830 Si / 1000 Ang^3
#
#
#
# Elastic Constant Matrix: (Units=GPa)
#
#
# Indices 1 2 3 4 5 6 
#
# 1 152.1485 95.4268 2.4439 0.0000 0.0000 0.0000
# 2 95.4268 200.0013 -1.0897 0.0000 0.0000 0.0000
# 3 2.4439 -1.0897 54.8012 0.0000 0.0000 0.0000
# 4 0.0000 0.0000 0.0000 30.8008 0.0000 0.0000
# 5 0.0000 0.0000 0.0000 0.0000 -73.6184 0.0000
# 6 0.0000 0.0000 0.0000 0.0000 0.0000 18.2618
#
#
#
# Elastic Compliance Matrix: (Units=1/GPa)
#
#
# Indices 1 2 3 4 5 6 
#
# 1 0.009393 -0.004485 -0.000508 0.000000 0.000000 0.000000
# 2 -0.004485 0.007142 0.000342 0.000000 0.000000 0.000000
# 3 -0.000508 0.000342 0.018277 0.000000 0.000000 0.000000
# 4 0.000000 0.000000 0.000000 0.032467 0.000000 0.000000
# 5 0.000000 0.000000 0.000000 0.000000 -0.013584 0.000000
# 6 0.000000 0.000000 0.000000 0.000000 0.000000 0.054759
#
#
# Mechanical properties :
#
#
# Convention : Reuss Voigt Hill
#
# Bulk Modulus (GPa) = 39.19911 66.72367 52.96139
# Shear Modulus (GPa) = 39.60091 15.76683 27.68387
#
# Velocity S-wave (km/s) = 4.44109 2.80227 3.71322
# Velocity P-wave (km/s) = 6.76911 6.61076 6.69040
#
# Compressibility (1/GPa) = 0.02551078
#
# Stress axis : x y z
#
# Youngs Moduli (GPa) = 106.45708 140.02447 54.71290
#
# Poissons Ratio (x) = 0.62796 0.02780
# Poissons Ratio (y) = 0.47743 -0.01871
# Poissons Ratio (z) = 0.05409 -0.04789
#
# Static dielectric constant tensor:
#      x y z
#    x 1.690500 0.000000 0.000000 
#    y 0.000000 1.692690 0.000000 
#    z 0.000000 0.000000 1.745240 
# 
# From -- ./inp_files/9468.got.cif
#   From: 2010.05.17/outbox.cif.g08.bks.cpg/sg65_5_cif.got.tgz:9468.got - 2010.06.03 17:01:31.
