data_PCOD9488468
_publ_section_title
;
Structure prediction by ZEFSAII (Michael W. Deem and Ramdas Pophale) SiO2 
 PCOD9488468
Probable space group: C M M M
;
_chemical_formula_sum "Si O2"
_cell_formula_units_Z 120
_cell_length_a 28.678983
_cell_length_b 28.722002
_cell_length_c 9.002256
_cell_angle_alpha 90.000000
_cell_angle_beta 90.000000
_cell_angle_gamma 90.000000
_cell_volume 7415.318571
_symmetry_space_group_name_H-M "C M M M"
_symmetry_group_IT_number 65
_symmetry_cell_setting 'orthorhombic'
loop_
_space_group_symop_operation_xyz
x,y,z
-x,-y,z
x,-y,-z
-x,y,-z
-x,-y,-z
x,y,-z
-x,y,z
x,-y,z
1/2+x,1/2+y,z
1/2-x,1/2-y,z
1/2+x,1/2-y,-z
1/2-x,1/2+y,-z
1/2-x,1/2-y,-z
1/2+x,1/2+y,-z
1/2-x,1/2+y,z
1/2+x,1/2-y,z
loop_
_atom_site_type_symbol
_atom_site_label
_atom_site_fract_x
_atom_site_fract_y
_atom_site_fract_z
Si Si1 0.704599 0.192954 0.821762
Si Si2 0.500000 0.943201 0.670765
Si Si3 0.055097 0.946163 0.178861
Si Si4 0.313866 0.701463 0.821439
Si Si5 0.778481 0.053012 0.319434
Si Si6 0.633971 0.382956 0.678943
Si Si7 0.093903 0.444051 0.831349
Si Si8 0.181631 0.400659 0.322633
O O1 0.683813 0.243633 0.784259
O O2 0.759802 0.189782 0.782377
O O3 0.679422 0.151230 0.740127
O O4 0.701944 0.188116 0.000000
O O5 0.500000 0.928406 0.500000
O O6 0.546348 0.927622 0.754915
O O7 0.500000 0.000000 0.671697
O O8 0.088030 0.907967 0.255761
O O9 0.000000 0.939528 0.212585
O O10 0.067239 0.000000 0.221786
O O11 0.060298 0.942993 0.000000
O O12 0.350476 0.667372 0.742434
O O13 0.318502 0.696589 0.000000
O O14 0.777692 0.052254 0.500000
O O15 0.822827 0.083527 0.276518
O O16 0.730107 0.076064 0.270149
O O17 0.782220 0.000000 0.267018
O O18 0.630988 0.380919 0.500000
O O19 0.091990 0.500000 0.835503
O O20 0.138276 0.429213 0.737744
O O21 0.097645 0.426869 0.000000
O O22 0.181769 0.400385 0.500000
#
# Coordination Sequence:
#
# PCOD9488468 Si02
#       8
#    16   8  16  16  16  16  16  16
#     4   9  18  33  51  71  98 132 169 210 250 295
#     4   9  17  31  51  73  95 123 163 207 249 289
#     4   9  19  36  55  75 102 137 176 216 258 308
#     4   9  18  33  52  72  98 132 168 207 251 298
#     4   9  18  30  42  63 100 139 168 197 238 290
#     4  11  20  31  50  77 105 134 169 212 258 304
#     4  10  20  33  49  71 100 133 169 208 246 290
#     4  11  20  31  48  71 101 136 169 205 250 298
#
# _framework density 16.182717
#
# number of rings (size 3 to 8) (size 9 to 14) (size 15 to 20)
#    0.000    2.333    1.333    3.400    0.000    3.733 
#    0.000    2.000    0.000    3.200    1.733    0.000 
#    0.000    0.000    0.000    0.000    0.000    0.000 
#
# Total GULP energy -334512.899727 kJ/mol
# GULP energy per Si atom -5575.214995 kJ/mol
# Density = 1.614588 g / cm^3
# Si number density = 16.182717 Si / 1000 Ang^3
#
#
#
# Elastic Constant Matrix: (Units=GPa)
#
#
# Indices 1 2 3 4 5 6 
#
# 1 87.8752 33.2562 29.1099 0.0000 0.0000 0.0000
# 2 33.2562 65.2688 31.7727 0.0000 0.0000 0.0000
# 3 29.1099 31.7727 41.7432 0.0000 0.0000 0.0000
# 4 0.0000 0.0000 0.0000 23.8672 0.0000 0.0000
# 5 0.0000 0.0000 0.0000 0.0000 25.4678 0.0000
# 6 0.0000 0.0000 0.0000 0.0000 0.0000 17.4338
#
#
#
# Elastic Compliance Matrix: (Units=1/GPa)
#
#
# Indices 1 2 3 4 5 6 
#
# 1 0.015485 -0.004183 -0.007615 0.000000 0.000000 0.000000
# 2 -0.004183 0.025470 -0.016469 0.000000 0.000000 0.000000
# 3 -0.007615 -0.016469 0.041801 0.000000 0.000000 0.000000
# 4 0.000000 0.000000 0.000000 0.041898 0.000000 0.000000
# 5 0.000000 0.000000 0.000000 0.000000 0.039265 0.000000
# 6 0.000000 0.000000 0.000000 0.000000 0.000000 0.057360
#
#
# Mechanical properties :
#
#
# Convention : Reuss Voigt Hill
#
# Bulk Modulus (GPa) = 38.13501 42.57388 40.35444
# Shear Modulus (GPa) = 17.44862 20.07031 18.75947
#
# Velocity S-wave (km/s) = 3.28720 3.52551 3.40844
# Velocity P-wave (km/s) = 6.16636 6.55268 6.36245
#
# Compressibility (1/GPa) = 0.02622262
#
# Stress axis : x y z
#
# Youngs Moduli (GPa) = 64.57665 39.26205 23.92261
#
# Poissons Ratio (x) = 0.16425 0.18216
# Poissons Ratio (y) = 0.27015 0.39398
# Poissons Ratio (z) = 0.49173 0.64660
#
# Static dielectric constant tensor:
#      x y z
#    x 1.529410 0.000000 0.000000 
#    y 0.000000 1.548190 0.000000 
#    z 0.000000 0.000000 1.542960 
# 
# From -- ./inp_files/17062.got.cif
#   From: 2010.05.17/outbox.cif.g08.bks.cpg/sg65_9_cif.got.tgz:17062.got - 2010.06.03 17:01:31.
