data_PCOD9488845
_publ_section_title
;
Structure prediction by ZEFSAII (Michael W. Deem and Ramdas Pophale) SiO2 
 PCOD9488845
Probable space group: C M M M
;
_chemical_formula_sum "Si O2"
_cell_formula_units_Z 56
_cell_length_a 16.035980
_cell_length_b 27.196121
_cell_length_c 7.408330
_cell_angle_alpha 90.000000
_cell_angle_beta 90.000000
_cell_angle_gamma 90.000000
_cell_volume 3230.894598
_symmetry_space_group_name_H-M "C M M M"
_symmetry_group_IT_number 65
_symmetry_cell_setting 'orthorhombic'
loop_
_space_group_symop_operation_xyz
x,y,z
-x,-y,z
x,-y,-z
-x,y,-z
-x,-y,-z
x,y,-z
-x,y,z
x,-y,z
1/2+x,1/2+y,z
1/2-x,1/2-y,z
1/2+x,1/2-y,-z
1/2-x,1/2+y,-z
1/2-x,1/2-y,-z
1/2+x,1/2+y,-z
1/2-x,1/2+y,z
1/2+x,1/2-y,z
loop_
_atom_site_type_symbol
_atom_site_label
_atom_site_fract_x
_atom_site_fract_y
_atom_site_fract_z
Si Si1 0.303624 0.055460 0.500000
Si Si2 0.000000 0.056894 0.780852
Si Si3 0.277445 0.195155 0.785976
Si Si4 0.178705 0.901996 0.784741
Si Si5 0.098090 0.653724 0.500000
O O1 0.244271 0.065879 0.327749
O O2 0.375125 0.096520 0.500000
O O3 0.334142 0.000000 0.500000
O O4 0.085156 0.084054 0.727484
O O5 0.000000 0.000000 0.720957
O O6 0.000000 0.056328 0.000000
O O7 0.250000 0.250000 0.735863
O O8 0.205421 0.154532 0.750258
O O9 0.356863 0.178120 0.672223
O O10 0.294504 0.194329 0.000000
O O11 0.186083 0.910770 0.000000
O O12 0.000000 0.660202 0.500000
#
# Coordination Sequence:
#
# PCOD9488845 Si02
#       5
#     8   8  16  16   8
#     4  10  20  33  52  73  95 134 178 209 252 307
#     4   9  16  27  45  69 100 133 161 198 249 300
#     4   9  18  35  57  76 100 135 172 211 256 309
#     4   9  18  32  49  72 102 132 167 210 253 303
#     4  10  21  36  53  76 106 133 166 218 262 301
#
# _framework density 17.332661000000002
#
# number of rings (size 3 to 8) (size 9 to 14) (size 15 to 20)
#    0.000    2.714    0.000    1.286    0.000    3.143 
#    2.571    1.429    0.000    0.000    0.000    8.000 
#    0.000    0.000    0.000    0.000    0.000    0.000 
#
# Total GULP energy -156164.990496 kJ/mol
# GULP energy per Si atom -5577.321089 kJ/mol
# Density = 1.729321 g / cm^3
# Si number density = 17.332661 Si / 1000 Ang^3
#
#
#
# Elastic Constant Matrix: (Units=GPa)
#
#
# Indices 1 2 3 4 5 6 
#
# 1 152.2331 80.3669 42.5251 0.0000 0.0000 0.0000
# 2 80.3669 156.7563 45.4068 0.0000 0.0000 0.0000
# 3 42.5251 45.4068 64.8965 0.0000 0.0000 0.0000
# 4 0.0000 0.0000 0.0000 -5.7880 0.0000 0.0000
# 5 0.0000 0.0000 0.0000 0.0000 3.5631 0.0000
# 6 0.0000 0.0000 0.0000 0.0000 0.0000 8.6110
#
#
#
# Elastic Compliance Matrix: (Units=1/GPa)
#
#
# Indices 1 2 3 4 5 6 
#
# 1 0.009627 -0.003899 -0.003581 0.000000 0.000000 0.000000
# 2 -0.003899 0.009580 -0.004148 0.000000 0.000000 0.000000
# 3 -0.003581 -0.004148 0.020658 0.000000 0.000000 0.000000
# 4 0.000000 0.000000 0.000000 -0.172771 0.000000 0.000000
# 5 0.000000 0.000000 0.000000 0.000000 0.280652 0.000000
# 6 0.000000 0.000000 0.000000 0.000000 0.000000 0.116131
#
#
# Mechanical properties :
#
#
# Convention : Reuss Voigt Hill
#
# Bulk Modulus (GPa) = 60.20471 78.94263 69.57367
# Shear Modulus (GPa) = 17.08420 14.98302 16.03361
#
# Velocity S-wave (km/s) = 3.14294 2.94332 3.04477
# Velocity P-wave (km/s) = 6.92683 7.56276 7.25177
#
# Compressibility (1/GPa) = 0.01661000
#
# Stress axis : x y z
#
# Youngs Moduli (GPa) = 103.87178 104.38841 48.40771
#
# Poissons Ratio (x) = 0.40696 0.17334
# Poissons Ratio (y) = 0.40495 0.20080
# Poissons Ratio (z) = 0.37194 0.43301
#
# Static dielectric constant tensor:
#      x y z
#    x 1.542420 0.000000 0.000000 
#    y 0.000000 1.586460 0.000000 
#    z 0.000000 0.000000 1.613230 
# 
# From -- ./inp_files/6277.got.cif
#   From: 2010.05.17/outbox.cif.g08.bks.cpg/sg65_4_cif.got.tgz:6277.got - 2010.06.03 17:01:31.
