data_PCOD9488053
_publ_section_title
;
Structure prediction by ZEFSAII (Michael W. Deem and Ramdas Pophale) SiO2 
 PCOD9488053
Probable space group: C M M M
;
_chemical_formula_sum "Si O2"
_cell_formula_units_Z 96
_cell_length_a 25.657281
_cell_length_b 25.760306
_cell_length_c 9.278756
_cell_angle_alpha 90.000000
_cell_angle_beta 90.000000
_cell_angle_gamma 90.000000
_cell_volume 6132.695513
_symmetry_space_group_name_H-M "C M M M"
_symmetry_group_IT_number 65
_symmetry_cell_setting 'orthorhombic'
loop_
_space_group_symop_operation_xyz
x,y,z
-x,-y,z
x,-y,-z
-x,y,-z
-x,-y,-z
x,y,-z
-x,y,z
x,-y,z
1/2+x,1/2+y,z
1/2-x,1/2-y,z
1/2+x,1/2-y,-z
1/2-x,1/2+y,-z
1/2-x,1/2-y,-z
1/2+x,1/2+y,-z
1/2-x,1/2+y,z
1/2+x,1/2-y,z
loop_
_atom_site_type_symbol
_atom_site_label
_atom_site_fract_x
_atom_site_fract_y
_atom_site_fract_z
Si Si1 0.634815 0.938696 0.673624
Si Si2 0.748024 0.437008 0.665216
Si Si3 0.437686 0.857130 0.829102
Si Si4 0.438832 0.353180 0.827156
Si Si5 0.856065 0.940037 0.826922
Si Si6 0.063288 0.747989 0.665650
O O1 0.630070 0.933074 0.500000
O O2 0.693899 0.921804 0.713588
O O3 0.593164 0.903941 0.755354
O O4 0.628766 0.000000 0.706048
O O5 0.740538 0.420055 0.500000
O O6 0.749090 0.500000 0.664681
O O7 0.698797 0.421807 0.760599
O O8 0.500000 0.863272 0.807630
O O9 0.421210 0.803241 0.753424
O O10 0.428126 0.855019 0.000000
O O11 0.500000 0.362835 0.795508
O O12 0.402825 0.401725 0.785978
O O13 0.421643 0.301109 0.745171
O O14 0.434690 0.345247 0.000000
O O15 0.865384 0.000000 0.781818
O O16 0.852160 0.939750 0.000000
O O17 0.081078 0.746178 0.500000
O O18 0.000000 0.747965 0.664568
#
# Coordination Sequence:
#
# PCOD9488053 Si02
#       6
#    16  16  16  16  16  16
#     4   9  18  32  49  69  93 122 155 188 224 268
#     4   8  15  29  47  65  87 118 155 191 225 263
#     4  10  20  32  47  69  96 123 150 183 226 273
#     4   9  17  29  45  66  94 125 154 187 227 269
#     4   9  17  28  44  68  95 123 155 188 224 269
#     4   9  17  30  48  67  87 116 156 194 225 265
#
# _framework density 15.653802000000001
#
# number of rings (size 3 to 8) (size 9 to 14) (size 15 to 20)
#    0.000    3.000    0.000    2.000    0.000    5.333 
#    0.000    5.000    0.000    1.000    0.000   11.667 
#    0.000    0.000    0.000    0.000    0.000    0.000 
#
# Total GULP energy -267293.351603 kJ/mol
# GULP energy per Si atom -5568.611492 kJ/mol
# Density = 1.561817 g / cm^3
# Si number density = 15.653802 Si / 1000 Ang^3
#
#
#
# Elastic Constant Matrix: (Units=GPa)
#
#
# Indices 1 2 3 4 5 6 
#
# 1 81.4232 66.6907 53.0946 0.0000 0.0000 0.0000
# 2 66.6907 107.9146 59.3702 0.0000 0.0000 0.0000
# 3 53.0946 59.3702 57.2803 0.0000 0.0000 0.0000
# 4 0.0000 0.0000 0.0000 24.6180 0.0000 0.0000
# 5 0.0000 0.0000 0.0000 0.0000 25.9594 0.0000
# 6 0.0000 0.0000 0.0000 0.0000 0.0000 -2.7969
#
#
#
# Elastic Compliance Matrix: (Units=1/GPa)
#
#
# Indices 1 2 3 4 5 6 
#
# 1 0.034156 -0.008586 -0.022760 0.000000 0.000000 0.000000
# 2 -0.008586 0.023720 -0.016627 0.000000 0.000000 0.000000
# 3 -0.022760 -0.016627 0.055789 0.000000 0.000000 0.000000
# 4 0.000000 0.000000 0.000000 0.040621 0.000000 0.000000
# 5 0.000000 0.000000 0.000000 0.000000 0.038522 0.000000
# 6 0.000000 0.000000 0.000000 0.000000 0.000000 -0.357541
#
#
# Mechanical properties :
#
#
# Convention : Reuss Voigt Hill
#
# Bulk Modulus (GPa) = 56.44055 67.21433 61.82744
# Shear Modulus (GPa) = -79.51575 14.05362 -32.73106
#
# Velocity S-wave (km/s) = -7.13489 2.99954 -4.57763
# Velocity P-wave (km/s) = 5.63399 7.41806 3.41216
#
# Compressibility (1/GPa) = 0.01771776
#
# Stress axis : x y z
#
# Youngs Moduli (GPa) = 29.27747 42.15800 17.92479
#
# Poissons Ratio (x) = 0.36198 0.40798
# Poissons Ratio (y) = 0.25139 0.29803
# Poissons Ratio (z) = 0.66637 0.70095
#
# Static dielectric constant tensor:
#      x y z
#    x 1.513200 0.000000 0.000000 
#    y 0.000000 1.507330 0.000000 
#    z 0.000000 0.000000 1.524540 
# 
# From -- ./inp_files/12290.got.cif
#   From: 2010.05.17/outbox.cif.g08.bks.cpg/sg65_7_cif.got.tgz:12290.got - 2010.06.03 17:01:31.
