data_PCOD9488419
_publ_section_title
;
Structure prediction by ZEFSAII (Michael W. Deem and Ramdas Pophale) SiO2 
 PCOD9488419
Probable space group: C M M M
;
_chemical_formula_sum "Si O2"
_cell_formula_units_Z 80
_cell_length_a 7.596100
_cell_length_b 18.755065
_cell_length_c 27.254116
_cell_angle_alpha 90.000000
_cell_angle_beta 90.000000
_cell_angle_gamma 90.000000
_cell_volume 3882.767154
_symmetry_space_group_name_H-M "C M M M"
_symmetry_group_IT_number 65
_symmetry_cell_setting 'orthorhombic'
loop_
_space_group_symop_operation_xyz
x,y,z
-x,-y,z
x,-y,-z
-x,y,-z
-x,-y,-z
x,y,-z
-x,y,z
x,-y,z
1/2+x,1/2+y,z
1/2-x,1/2-y,z
1/2+x,1/2-y,-z
1/2-x,1/2+y,-z
1/2-x,1/2-y,-z
1/2+x,1/2+y,-z
1/2-x,1/2+y,z
1/2+x,1/2-y,z
loop_
_atom_site_type_symbol
_atom_site_label
_atom_site_fract_x
_atom_site_fract_y
_atom_site_fract_z
Si Si1 0.711404 0.833429 0.253976
Si Si2 0.709719 0.081486 0.159777
Si Si3 0.711547 0.416963 0.052705
Si Si4 0.215698 0.417810 0.350178
Si Si5 0.288668 0.166871 0.445237
O O1 0.500000 0.840970 0.253932
O O2 0.750000 0.750000 0.254934
O O3 0.779131 0.871405 0.204529
O O4 0.775416 0.873192 0.302904
O O5 0.500000 0.076181 0.165980
O O6 0.737832 0.113514 0.105457
O O7 0.780567 0.000000 0.161116
O O8 0.500000 0.417333 0.051684
O O9 0.771083 0.500000 0.053685
O O10 0.772310 0.386459 0.000000
O O11 0.268776 0.500000 0.346744
O O12 0.276425 0.381311 0.400643
O O13 0.000000 0.416418 0.350416
O O14 0.221287 0.149424 0.500000
O O15 0.500000 0.158994 0.446620
O O16 0.250000 0.250000 0.435720
#
# Coordination Sequence:
#
# PCOD9488419 Si02
#       5
#    16  16  16  16  16
#     4  10  20  33  49  68  91 121 155 190 231 279
#     4   9  17  29  46  68  92 118 151 190 228 268
#     4   8  14  25  42  66  95 123 149 180 223 273
#     4   9  17  30  49  71  94 121 155 196 237 274
#     4   9  17  29  47  71  97 126 159 193 230 274
#
# _framework density 20.603863
#
# number of rings (size 3 to 8) (size 9 to 14) (size 15 to 20)
#    0.000    3.000    0.000    1.800    0.000    4.000 
#    0.000    4.000    0.000    4.200    0.000    2.800 
#    0.000    0.000    0.000    0.000    0.000    0.000 
#
# Total GULP energy -223026.082748 kJ/mol
# GULP energy per Si atom -5575.652069 kJ/mol
# Density = 2.055697 g / cm^3
# Si number density = 20.603863 Si / 1000 Ang^3
#
#
#
# Elastic Constant Matrix: (Units=GPa)
#
#
# Indices 1 2 3 4 5 6 
#
# 1 42.9718 -0.2921 8.8395 0.0000 0.0000 0.0000
# 2 -0.2921 115.1168 124.7704 0.0000 0.0000 0.0000
# 3 8.8395 124.7704 248.9911 0.0000 0.0000 0.0000
# 4 0.0000 0.0000 0.0000 65.9419 0.0000 0.0000
# 5 0.0000 0.0000 0.0000 0.0000 39.2649 0.0000
# 6 0.0000 0.0000 0.0000 0.0000 0.0000 18.2331
#
#
#
# Elastic Compliance Matrix: (Units=1/GPa)
#
#
# Indices 1 2 3 4 5 6 
#
# 1 0.023678 0.002126 -0.001906 0.000000 0.000000 0.000000
# 2 0.002126 0.019204 -0.009699 0.000000 0.000000 0.000000
# 3 -0.001906 -0.009699 0.008944 0.000000 0.000000 0.000000
# 4 0.000000 0.000000 0.000000 0.015165 0.000000 0.000000
# 5 0.000000 0.000000 0.000000 0.000000 0.025468 0.000000
# 6 0.000000 0.000000 0.000000 0.000000 0.000000 0.054845
#
#
# Mechanical properties :
#
#
# Convention : Reuss Voigt Hill
#
# Bulk Modulus (GPa) = 30.42471 74.85727 52.64099
# Shear Modulus (GPa) = 28.21381 42.93878 35.57629
#
# Velocity S-wave (km/s) = 3.70448 4.57005 4.15984
# Velocity P-wave (km/s) = 5.75292 8.01609 6.97689
#
# Compressibility (1/GPa) = 0.03286802
#
# Stress axis : x y z
#
# Youngs Moduli (GPa) = 42.23412 52.07130 111.80667
#
# Poissons Ratio (x) = -0.11069 0.21308
# Poissons Ratio (y) = -0.08978 1.08440
# Poissons Ratio (z) = 0.08049 0.50503
#
# Static dielectric constant tensor:
#      x y z
#    x 1.779740 0.000000 0.000000 
#    y 0.000000 1.684400 0.000000 
#    z 0.000000 0.000000 1.771090 
# 
# From -- ./inp_files/68823.got.cif
#   From: 2010.05.17/outbox.cif.g08.bks.cpg/sg65_35_cif.got.tgz:68823.got - 2010.06.03 17:01:31.
