data_PCOD9488081
_publ_section_title
;
Structure prediction by ZEFSAII (Michael W. Deem and Ramdas Pophale) SiO2 
 PCOD9488081
Probable space group: C M M M
;
_chemical_formula_sum "Si O2"
_cell_formula_units_Z 120
_cell_length_a 28.669848
_cell_length_b 8.853783
_cell_length_c 27.194271
_cell_angle_alpha 90.000000
_cell_angle_beta 90.000000
_cell_angle_gamma 90.000000
_cell_volume 6902.901639
_symmetry_space_group_name_H-M "C M M M"
_symmetry_group_IT_number 65
_symmetry_cell_setting 'orthorhombic'
loop_
_space_group_symop_operation_xyz
x,y,z
-x,-y,z
x,-y,-z
-x,y,-z
-x,-y,-z
x,y,-z
-x,y,z
x,-y,z
1/2+x,1/2+y,z
1/2-x,1/2-y,z
1/2+x,1/2-y,-z
1/2-x,1/2+y,-z
1/2-x,1/2-y,-z
1/2+x,1/2+y,-z
1/2-x,1/2+y,z
1/2+x,1/2-y,z
loop_
_atom_site_type_symbol
_atom_site_label
_atom_site_fract_x
_atom_site_fract_y
_atom_site_fract_z
Si Si1 0.444351 0.326547 0.500000
Si Si2 0.300905 0.319568 0.056553
Si Si3 0.605516 0.180737 0.592652
Si Si4 0.645288 0.818023 0.854237
Si Si5 0.394756 0.183859 0.297866
Si Si6 0.447459 0.815845 0.799738
Si Si7 0.299302 0.677289 0.559296
Si Si8 0.300668 0.818343 0.754309
O O1 0.427898 0.500000 0.500000
O O2 0.500000 0.322400 0.500000
O O3 0.424939 0.248382 0.451151
O O4 0.298001 0.500000 0.060366
O O5 0.250000 0.250000 0.066922
O O6 0.336859 0.255999 0.096075
O O7 0.312961 0.280237 0.000000
O O8 0.591579 0.231722 0.647485
O O9 0.658191 0.235149 0.583611
O O10 0.603222 0.000000 0.590297
O O11 0.593236 0.771386 0.837621
O O12 0.679862 0.779210 0.808804
O O13 0.645992 0.000000 0.858881
O O14 0.429438 0.231513 0.254340
O O15 0.342088 0.229870 0.282799
O O16 0.394657 0.000000 0.297463
O O17 0.500000 0.764152 0.809934
O O18 0.447891 0.000000 0.799725
O O19 0.304190 0.691731 0.500000
O O20 0.300512 0.500000 0.571270
O O21 0.250000 0.750000 0.573223
O O22 0.250000 0.750000 0.745110
O O23 0.297390 0.000000 0.751898
#
# Coordination Sequence:
#
# PCOD9488081 Si02
#       8
#     8  16  16  16  16  16  16  16
#     4  11  25  43  58  73  98 131 163 199 249 303
#     4  10  20  32  47  70 102 139 175 210 250 295
#     4  11  21  35  57  81 105 130 163 206 248 296
#     4   9  17  29  48  74 101 132 170 211 252 294
#     4   8  17  31  47  73 104 129 155 197 249 297
#     4   8  14  28  51  76 101 129 164 208 257 304
#     4  10  20  34  53  75 102 134 167 200 241 288
#     4   9  17  30  46  68 101 134 164 196 237 288
#
# _framework density 17.383994999999999
#
# number of rings (size 3 to 8) (size 9 to 14) (size 15 to 20)
#    0.000    2.600    0.667    3.400    0.000    4.533 
#    0.000    4.000    0.000    2.400    0.000    2.800 
#    0.000    0.000    0.000    0.000    0.000    0.000 
#
# Total GULP energy -334638.439164 kJ/mol
# GULP energy per Si atom -5577.307319 kJ/mol
# Density = 1.734443 g / cm^3
# Si number density = 17.383995 Si / 1000 Ang^3
#
#
#
# Elastic Constant Matrix: (Units=GPa)
#
#
# Indices 1 2 3 4 5 6 
#
# 1 100.7665 22.0422 68.3001 0.0000 0.0000 0.0000
# 2 22.0422 35.4408 38.3119 0.0000 0.0000 0.0000
# 3 68.3001 38.3119 130.7280 0.0000 0.0000 0.0000
# 4 0.0000 0.0000 0.0000 11.8552 0.0000 0.0000
# 5 0.0000 0.0000 0.0000 0.0000 -1.9396 0.0000
# 6 0.0000 0.0000 0.0000 0.0000 0.0000 20.3406
#
#
#
# Elastic Compliance Matrix: (Units=1/GPa)
#
#
# Indices 1 2 3 4 5 6 
#
# 1 0.015405 -0.001289 -0.007671 0.000000 0.000000 0.000000
# 2 -0.001289 0.041408 -0.011462 0.000000 0.000000 0.000000
# 3 -0.007671 -0.011462 0.015016 0.000000 0.000000 0.000000
# 4 0.000000 0.000000 0.000000 0.084351 0.000000 0.000000
# 5 0.000000 0.000000 0.000000 0.000000 -0.515575 0.000000
# 6 0.000000 0.000000 0.000000 0.000000 0.000000 0.049163
#
#
# Mechanical properties :
#
#
# Convention : Reuss Voigt Hill
#
# Bulk Modulus (GPa) = 32.27230 58.24930 45.26080
# Shear Modulus (GPa) = -19.30064 15.26997 -2.01533
#
# Velocity S-wave (km/s) = -3.33566 2.96698 -1.07788
# Velocity P-wave (km/s) = 1.94143 6.73183 4.95412
#
# Compressibility (1/GPa) = 0.03098632
#
# Stress axis : x y z
#
# Youngs Moduli (GPa) = 64.91297 24.14979 66.59420
#
# Poissons Ratio (x) = 0.03113 0.51084
# Poissons Ratio (y) = 0.08366 0.76330
# Poissons Ratio (z) = 0.49794 0.27680
#
# Static dielectric constant tensor:
#      x y z
#    x 1.578440 0.000000 0.000000 
#    y 0.000000 1.586950 0.000000 
#    z 0.000000 0.000000 1.596960 
# 
# From -- ./inp_files/76141.got.cif
#   From: 2010.05.17/outbox.cif.g08.bks.cpg/sg65_39_cif.got.tgz:76141.got - 2010.06.03 17:01:31.
