data_PCOD9488746
_publ_section_title
;
Structure prediction by ZEFSAII (Michael W. Deem and Ramdas Pophale) SiO2 
 PCOD9488746
Probable space group: C M M M
;
_chemical_formula_sum "Si O2"
_cell_formula_units_Z 96
_cell_length_a 31.889830
_cell_length_b 9.256813
_cell_length_c 18.627523
_cell_angle_alpha 90.000000
_cell_angle_beta 90.000000
_cell_angle_gamma 90.000000
_cell_volume 5498.811128
_symmetry_space_group_name_H-M "C M M M"
_symmetry_group_IT_number 65
_symmetry_cell_setting 'orthorhombic'
loop_
_space_group_symop_operation_xyz
x,y,z
-x,-y,z
x,-y,-z
-x,y,-z
-x,-y,-z
x,y,-z
-x,y,z
x,-y,z
1/2+x,1/2+y,z
1/2-x,1/2-y,z
1/2+x,1/2-y,-z
1/2-x,1/2+y,-z
1/2-x,1/2-y,-z
1/2+x,1/2+y,-z
1/2-x,1/2+y,z
1/2+x,1/2-y,z
loop_
_atom_site_type_symbol
_atom_site_label
_atom_site_fract_x
_atom_site_fract_y
_atom_site_fract_z
Si Si1 0.548032 0.327720 0.339249
Si Si2 0.208417 0.833750 0.912439
Si Si3 0.047459 0.328850 0.187354
Si Si4 0.875882 0.672258 0.084085
Si Si5 0.623873 0.166607 0.586541
Si Si6 0.207911 0.167008 0.412414
O O1 0.500000 0.297843 0.363024
O O2 0.554156 0.500000 0.340113
O O3 0.552024 0.264928 0.258945
O O4 0.582831 0.248699 0.386342
O O5 0.250000 0.750000 0.888270
O O6 0.165553 0.755488 0.890532
O O7 0.209267 0.000000 0.889836
O O8 0.208830 0.830918 0.000000
O O9 0.051503 0.500000 0.205149
O O10 0.083260 0.292314 0.130388
O O11 0.000000 0.307682 0.159280
O O12 0.868401 0.500000 0.089203
O O13 0.882805 0.705993 0.000000
O O14 0.624089 0.166649 0.500000
O O15 0.665970 0.249480 0.610641
O O16 0.624146 0.000000 0.610905
O O17 0.207986 0.167300 0.500000
O O18 0.250000 0.250000 0.389530
O O19 0.207831 0.000000 0.389531
#
# Coordination Sequence:
#
# PCOD9488746 Si02
#       6
#    16  16  16  16  16  16
#     4  10  21  36  53  72  96 129 167 205 247 297
#     4   9  16  26  42  65  94 127 161 197 238 285
#     4   9  18  33  52  72  96 129 166 201 240 290
#     4   9  17  29  47  73 102 129 160 200 243 285
#     4  10  20  33  51  76 103 130 163 204 248 292
#     4   9  16  27  45  70 101 134 166 200 239 285
#
# _framework density 17.458320000000001
#
# number of rings (size 3 to 8) (size 9 to 14) (size 15 to 20)
#    0.000    2.667    0.000    2.000    0.000    7.333 
#    0.000    3.333    0.000    1.000    0.000    7.000 
#    0.000    0.000    0.000    0.000    0.000    0.000 
#
# Total GULP energy -267633.887461 kJ/mol
# GULP energy per Si atom -5575.705989 kJ/mol
# Density = 1.741858 g / cm^3
# Si number density = 17.458320 Si / 1000 Ang^3
#
#
#
# Elastic Constant Matrix: (Units=GPa)
#
#
# Indices 1 2 3 4 5 6 
#
# 1 177.5485 104.8278 37.8338 0.0000 0.0000 0.0000
# 2 104.8278 122.4213 27.3265 0.0000 0.0000 0.0000
# 3 37.8338 27.3265 11.1571 0.0000 0.0000 0.0000
# 4 0.0000 0.0000 0.0000 16.1469 0.0000 0.0000
# 5 0.0000 0.0000 0.0000 0.0000 -20.6584 0.0000
# 6 0.0000 0.0000 0.0000 0.0000 0.0000 35.1884
#
#
#
# Elastic Compliance Matrix: (Units=1/GPa)
#
#
# Indices 1 2 3 4 5 6 
#
# 1 0.021465 -0.004705 -0.061262 0.000000 0.000000 0.000000
# 2 -0.004705 0.019052 -0.030708 0.000000 0.000000 0.000000
# 3 -0.061262 -0.030708 0.372578 0.000000 0.000000 0.000000
# 4 0.000000 0.000000 0.000000 0.061931 0.000000 0.000000
# 5 0.000000 0.000000 0.000000 0.000000 -0.048407 0.000000
# 6 0.000000 0.000000 0.000000 0.000000 0.000000 0.028418
#
#
# Mechanical properties :
#
#
# Convention : Reuss Voigt Hill
#
# Bulk Modulus (GPa) = 4.55073 72.34477 38.44775
# Shear Modulus (GPa) = 6.92870 15.54465 11.23667
#
# Velocity S-wave (km/s) = 1.99432 2.98717 2.53974
# Velocity P-wave (km/s) = 2.81343 7.30932 5.53812
#
# Compressibility (1/GPa) = 0.21974492
#
# Stress axis : x y z
#
# Youngs Moduli (GPa) = 46.58837 52.48827 2.68400
#
# Poissons Ratio (x) = 0.24696 0.16443
# Poissons Ratio (y) = 0.21920 0.08242
# Poissons Ratio (z) = 2.85411 1.61179
#
# Static dielectric constant tensor:
#      x y z
#    x 1.581560 0.000000 0.000000 
#    y 0.000000 1.586900 0.000000 
#    z 0.000000 0.000000 1.571490 
# 
# From -- ./inp_files/60164.got.cif
#   From: 2010.05.17/outbox.cif.g08.bks.cpg/sg65_31_cif.got.tgz:60164.got - 2010.06.03 17:01:31.
