data_PCOD9488968
_publ_section_title
;
Structure prediction by ZEFSAII (Michael W. Deem and Ramdas Pophale) SiO2 
 PCOD9488968
Probable space group: C M M M
;
_chemical_formula_sum "Si O2"
_cell_formula_units_Z 116
_cell_length_a 24.355009
_cell_length_b 31.467441
_cell_length_c 7.675695
_cell_angle_alpha 90.000000
_cell_angle_beta 90.000000
_cell_angle_gamma 90.000000
_cell_volume 5882.574423
_symmetry_space_group_name_H-M "C M M M"
_symmetry_group_IT_number 65
_symmetry_cell_setting 'orthorhombic'
loop_
_space_group_symop_operation_xyz
x,y,z
-x,-y,z
x,-y,-z
-x,y,-z
-x,-y,-z
x,y,-z
-x,y,z
x,-y,z
1/2+x,1/2+y,z
1/2-x,1/2-y,z
1/2+x,1/2-y,-z
1/2-x,1/2+y,-z
1/2-x,1/2-y,-z
1/2+x,1/2+y,-z
1/2-x,1/2+y,z
1/2+x,1/2-y,z
loop_
_atom_site_type_symbol
_atom_site_label
_atom_site_fract_x
_atom_site_fract_y
_atom_site_fract_z
Si Si1 0.650911 0.951980 0.710766
Si Si2 0.089557 0.000000 0.500000
Si Si3 0.240125 0.384747 0.794209
Si Si4 0.434473 0.430137 0.198571
Si Si5 0.306658 0.269433 0.298741
Si Si6 0.855125 0.142915 0.699271
Si Si7 0.350105 0.183635 0.206576
Si Si8 0.438105 0.115266 0.710082
O O1 0.649363 0.952449 0.500000
O O2 0.705656 0.927283 0.764254
O O3 0.599565 0.923762 0.772730
O O4 0.649057 0.000000 0.773759
O O5 0.086187 0.962712 0.654073
O O6 0.298684 0.383954 0.704541
O O7 0.200505 0.346305 0.730860
O O8 0.248688 0.379059 0.000000
O O9 0.500000 0.424829 0.225286
O O10 0.402037 0.385481 0.214653
O O11 0.426282 0.445846 0.000000
O O12 0.293598 0.280436 0.500000
O O13 0.250000 0.250000 0.220276
O O14 0.334794 0.311675 0.222778
O O15 0.347222 0.229559 0.291107
O O16 0.872281 0.150655 0.500000
O O17 0.405163 0.157637 0.242626
O O18 0.343897 0.188641 0.000000
O O19 0.439813 0.112767 0.500000
O O20 0.500000 0.114191 0.776035
#
# Coordination Sequence:
#
# PCOD9488968 Si02
#       8
#    16   4  16  16  16  16  16  16
#     4   9  18  33  52  75 105 142 184 233 293 353
#     4  12  23  46  76  98 124 160 208 258 301 366
#     4  10  20  34  52  77 111 150 191 238 292 351
#     4  11  24  43  69  98 128 164 205 253 310 368
#     4  10  20  35  58  86 116 154 199 241 286 347
#     4  11  22  38  61  89 123 159 196 246 301 356
#     4  10  20  33  53  80 111 147 190 240 289 342
#     4   9  18  33  54  77 104 141 186 237 288 341
#
# _framework density 19.719258
#
# number of rings (size 3 to 8) (size 9 to 14) (size 15 to 20)
#    0.000    1.931    2.069    2.069    0.000    3.862 
#    1.241    2.069    0.000    0.828    0.000    3.862 
#    0.000    0.000    0.000    0.000    0.000    0.000 
#
# Total GULP energy -323154.821305 kJ/mol
# GULP energy per Si atom -5571.634850 kJ/mol
# Density = 1.967438 g / cm^3
# Si number density = 19.719258 Si / 1000 Ang^3
#
#
#
# Elastic Constant Matrix: (Units=GPa)
#
#
# Indices 1 2 3 4 5 6 
#
# 1 50.3922 47.3080 6.7358 0.0000 0.0000 0.0000
# 2 47.3080 149.5873 23.3539 0.0000 0.0000 0.0000
# 3 6.7358 23.3539 75.8542 0.0000 0.0000 0.0000
# 4 0.0000 0.0000 0.0000 5.2479 0.0000 0.0000
# 5 0.0000 0.0000 0.0000 0.0000 3.0514 0.0000
# 6 0.0000 0.0000 0.0000 0.0000 0.0000 4.1392
#
#
#
# Elastic Compliance Matrix: (Units=1/GPa)
#
#
# Indices 1 2 3 4 5 6 
#
# 1 0.028229 -0.008967 0.000254 0.000000 0.000000 0.000000
# 2 -0.008967 0.009871 -0.002243 0.000000 0.000000 0.000000
# 3 0.000254 -0.002243 0.013851 0.000000 0.000000 0.000000
# 4 0.000000 0.000000 0.000000 0.190551 0.000000 0.000000
# 5 0.000000 0.000000 0.000000 0.000000 0.327715 0.000000
# 6 0.000000 0.000000 0.000000 0.000000 0.000000 0.241594
#
#
# Mechanical properties :
#
#
# Convention : Reuss Voigt Hill
#
# Bulk Modulus (GPa) = 33.28985 47.84769 40.56877
# Shear Modulus (GPa) = 5.92602 15.71678 10.82140
#
# Velocity S-wave (km/s) = 1.73543 2.82623 2.34513
# Velocity P-wave (km/s) = 4.57539 5.91331 5.28684
#
# Compressibility (1/GPa) = 0.03003918
#
# Stress axis : x y z
#
# Youngs Moduli (GPa) = 35.42486 101.30525 72.19627
#
# Poissons Ratio (x) = 0.90843 -0.01835
# Poissons Ratio (y) = 0.31766 0.16192
# Poissons Ratio (z) = -0.00900 0.22721
#
# Static dielectric constant tensor:
#      x y z
#    x 1.681680 0.000000 0.000000 
#    y 0.000000 1.703750 0.000000 
#    z 0.000000 0.000000 1.736270 
# 
# From -- ./inp_files/15169.got.cif
#   From: 2010.05.17/outbox.cif.g08.bks.cpg/sg65_8_cif.got.tgz:15169.got - 2010.06.03 17:01:31.
