data_PCOD9488399
_publ_section_title
;
Structure prediction by ZEFSAII (Michael W. Deem and Ramdas Pophale) SiO2 
 PCOD9488399
Probable space group: C M M M
;
_chemical_formula_sum "Si O2"
_cell_formula_units_Z 104
_cell_length_a 21.325536
_cell_length_b 32.816373
_cell_length_c 8.054035
_cell_angle_alpha 90.000000
_cell_angle_beta 90.000000
_cell_angle_gamma 90.000000
_cell_volume 5636.429089
_symmetry_space_group_name_H-M "C M M M"
_symmetry_group_IT_number 65
_symmetry_cell_setting 'orthorhombic'
loop_
_space_group_symop_operation_xyz
x,y,z
-x,-y,z
x,-y,-z
-x,y,-z
-x,-y,-z
x,y,-z
-x,y,z
x,-y,z
1/2+x,1/2+y,z
1/2-x,1/2-y,z
1/2+x,1/2-y,-z
1/2-x,1/2+y,-z
1/2-x,1/2-y,-z
1/2+x,1/2+y,-z
1/2-x,1/2+y,z
1/2+x,1/2-y,z
loop_
_atom_site_type_symbol
_atom_site_label
_atom_site_fract_x
_atom_site_fract_y
_atom_site_fract_z
Si Si1 0.869762 0.915470 0.200809
Si Si2 0.000000 0.953815 0.202769
Si Si3 0.430717 0.825051 0.697303
Si Si4 0.259740 0.954960 0.199462
Si Si5 0.305213 0.866397 0.299650
Si Si6 0.429629 0.732725 0.196698
Si Si7 0.677013 0.670909 0.692200
O O1 0.936722 0.931822 0.253594
O O2 0.813607 0.946790 0.237610
O O3 0.854772 0.873143 0.287761
O O4 0.869716 0.909046 0.000000
O O5 0.000000 0.000000 0.260607
O O6 0.000000 0.954345 0.000000
O O7 0.432835 0.832898 0.500000
O O8 0.500000 0.834842 0.766779
O O9 0.371536 0.849918 0.764696
O O10 0.420421 0.776871 0.721988
O O11 0.293984 0.913977 0.260128
O O12 0.278861 0.000000 0.261541
O O13 0.265827 0.955370 0.000000
O O14 0.303984 0.862779 0.500000
O O15 0.246857 0.838440 0.236820
O O16 0.500000 0.717435 0.248056
O O17 0.371480 0.703150 0.232775
O O18 0.431831 0.738801 0.000000
O O19 0.684320 0.682155 0.500000
#
# Coordination Sequence:
#
# PCOD9488399 Si02
#       7
#    16   8  16  16  16  16  16
#     4   9  17  29  45  66  93 125 163 207 248 286
#     4   9  16  26  43  65  87 117 159 205 251 291
#     4   9  18  35  57  77  98 126 160 198 245 298
#     4   9  17  30  49  72  98 129 165 203 242 289
#     4   9  19  34  52  76 102 128 161 201 245 295
#     4  10  21  35  51  72  99 131 169 207 242 285
#     4  10  20  33  48  69  99 132 165 201 245 291
#
# _framework density 18.451398999999999
#
# number of rings (size 3 to 8) (size 9 to 14) (size 15 to 20)
#    0.000    2.692    0.000    1.385    1.077    4.923 
#    0.000    3.077    0.000    2.308    0.000    3.231 
#    0.000    0.000    0.000    0.000    0.000    0.000 
#
# Total GULP energy -289735.681058 kJ/mol
# GULP energy per Si atom -5571.840020 kJ/mol
# Density = 1.840940 g / cm^3
# Si number density = 18.451399 Si / 1000 Ang^3
#
#
#
# Elastic Constant Matrix: (Units=GPa)
#
#
# Indices 1 2 3 4 5 6 
#
# 1 161.6875 77.2679 9.7602 0.0000 0.0000 0.0000
# 2 77.2679 67.0363 -1.0209 0.0000 0.0000 0.0000
# 3 9.7602 -1.0209 9.6878 0.0000 0.0000 0.0000
# 4 0.0000 0.0000 0.0000 23.9626 0.0000 0.0000
# 5 0.0000 0.0000 0.0000 0.0000 11.1777 0.0000
# 6 0.0000 0.0000 0.0000 0.0000 0.0000 13.7749
#
#
#
# Elastic Compliance Matrix: (Units=1/GPa)
#
#
# Indices 1 2 3 4 5 6 
#
# 1 0.016595 -0.019414 -0.018765 0.000000 0.000000 0.000000
# 2 -0.019414 0.037652 0.023526 0.000000 0.000000 0.000000
# 3 -0.018765 0.023526 0.124606 0.000000 0.000000 0.000000
# 4 0.000000 0.000000 0.000000 0.041732 0.000000 0.000000
# 5 0.000000 0.000000 0.000000 0.000000 0.089464 0.000000
# 6 0.000000 0.000000 0.000000 0.000000 0.000000 0.072596
#
#
# Mechanical properties :
#
#
# Convention : Reuss Voigt Hill
#
# Bulk Modulus (GPa) = 6.68677 45.60292 26.14484
# Shear Modulus (GPa) = 10.82724 19.94332 15.38528
#
# Velocity S-wave (km/s) = 2.42502 3.29121 2.89074
# Velocity P-wave (km/s) = 3.38715 6.26191 5.03410
#
# Compressibility (1/GPa) = 0.14954914
#
# Stress axis : x y z
#
# Youngs Moduli (GPa) = 60.25944 26.55893 8.02529
#
# Poissons Ratio (x) = 0.51560 0.15059
# Poissons Ratio (y) = 1.16985 -0.18880
# Poissons Ratio (z) = 1.13074 -0.62483
#
# Static dielectric constant tensor:
#      x y z
#    x 1.658210 0.000000 0.000000 
#    y 0.000000 1.606180 0.000000 
#    z 0.000000 0.000000 1.663160 
# 
# From -- ./inp_files/12768.got.cif
#   From: 2010.05.17/outbox.cif.g08.bks.cpg/sg65_7_cif.got.tgz:12768.got - 2010.06.03 17:01:31.
