data_PCOD9488133
_publ_section_title
;
Structure prediction by ZEFSAII (Michael W. Deem and Ramdas Pophale) SiO2 
 PCOD9488133
Probable space group: C M M M
;
_chemical_formula_sum "Si O2"
_cell_formula_units_Z 72
_cell_length_a 14.725768
_cell_length_b 9.420733
_cell_length_c 24.226727
_cell_angle_alpha 90.000000
_cell_angle_beta 90.000000
_cell_angle_gamma 90.000000
_cell_volume 3360.913962
_symmetry_space_group_name_H-M "C M M M"
_symmetry_group_IT_number 65
_symmetry_cell_setting 'orthorhombic'
loop_
_space_group_symop_operation_xyz
x,y,z
-x,-y,z
x,-y,-z
-x,y,-z
-x,-y,-z
x,y,-z
-x,y,z
x,-y,z
1/2+x,1/2+y,z
1/2-x,1/2-y,z
1/2+x,1/2-y,-z
1/2-x,1/2+y,-z
1/2-x,1/2-y,-z
1/2+x,1/2+y,-z
1/2-x,1/2+y,z
1/2+x,1/2-y,z
loop_
_atom_site_type_symbol
_atom_site_label
_atom_site_fract_x
_atom_site_fract_y
_atom_site_fract_z
Si Si1 0.393742 0.842071 0.832658
Si Si2 0.845927 0.830400 0.060673
Si Si3 0.388693 0.838367 0.500000
Si Si4 0.889297 0.163665 0.393551
Si Si5 0.611109 0.664038 0.729655
O O1 0.500000 0.859468 0.821188
O O2 0.389270 0.742689 0.886305
O O3 0.355484 0.763222 0.778972
O O4 0.354389 0.000000 0.842327
O O5 0.750000 0.750000 0.057949
O O6 0.837249 0.000000 0.068017
O O7 0.889764 0.808013 0.000000
O O8 0.500000 0.837618 0.500000
O O9 0.359327 0.758682 0.444509
O O10 0.358189 0.000000 0.500000
O O11 0.862145 0.211207 0.332023
O O12 0.000000 0.164450 0.394156
O O13 0.861361 0.000000 0.400923
O O14 0.500000 0.663500 0.730731
O O15 0.638850 0.500000 0.737691
#
# Coordination Sequence:
#
# PCOD9488133 Si02
#       5
#    16  16   8  16  16
#     4  10  20  32  48  72 100 128 158 194 235 279
#     4  10  21  37  56  75  96 124 157 193 234 281
#     4   9  15  19  25  41  65  95 134 179 222 265
#     4   8  13  21  32  45  65  98 139 180 221 266
#     4   8  14  25  40  57  79 110 148 188 229 273
#
# _framework density 21.422743000000001
#
# number of rings (size 3 to 8) (size 9 to 14) (size 15 to 20)
#    0.000    3.000    0.000    3.000    0.000    5.333 
#    0.000    6.667    0.000    0.000    0.000    0.000 
#    0.000    0.000    0.000    1.000    0.000   14.222 
#
# Total GULP energy -200786.590392 kJ/mol
# GULP energy per Si atom -5577.405289 kJ/mol
# Density = 2.137398 g / cm^3
# Si number density = 21.422743 Si / 1000 Ang^3
#
#
#
# Elastic Constant Matrix: (Units=GPa)
#
#
# Indices 1 2 3 4 5 6 
#
# 1 42.4878 9.5548 9.3509 0.0000 0.0000 0.0000
# 2 9.5548 156.4813 139.9105 0.0000 0.0000 0.0000
# 3 9.3509 139.9105 231.4860 0.0000 0.0000 0.0000
# 4 0.0000 0.0000 0.0000 42.9090 0.0000 0.0000
# 5 0.0000 0.0000 0.0000 0.0000 8.8292 0.0000
# 6 0.0000 0.0000 0.0000 0.0000 0.0000 9.5008
#
#
#
# Elastic Compliance Matrix: (Units=1/GPa)
#
#
# Indices 1 2 3 4 5 6 
#
# 1 0.023867 -0.001295 -0.000181 0.000000 0.000000 0.000000
# 2 -0.001295 0.013975 -0.008394 0.000000 0.000000 0.000000
# 3 -0.000181 -0.008394 0.009401 0.000000 0.000000 0.000000
# 4 0.000000 0.000000 0.000000 0.023305 0.000000 0.000000
# 5 0.000000 0.000000 0.000000 0.000000 0.113260 0.000000
# 6 0.000000 0.000000 0.000000 0.000000 0.000000 0.105254
#
#
# Mechanical properties :
#
#
# Convention : Reuss Voigt Hill
#
# Bulk Modulus (GPa) = 36.36161 83.12084 59.74122
# Shear Modulus (GPa) = 15.72473 30.35707 23.04090
#
# Velocity S-wave (km/s) = 2.71222 3.76845 3.28309
# Velocity P-wave (km/s) = 5.17865 7.60391 6.50530
#
# Compressibility (1/GPa) = 0.02750154
#
# Stress axis : x y z
#
# Youngs Moduli (GPa) = 41.89829 71.55751 106.37607
#
# Poissons Ratio (x) = 0.09269 0.01928
# Poissons Ratio (y) = 0.05427 0.89293
# Poissons Ratio (z) = 0.00759 0.60066
#
# Static dielectric constant tensor:
#      x y z
#    x 1.892260 0.000000 0.000000 
#    y 0.000000 1.754480 0.000000 
#    z 0.000000 0.000000 1.779460 
# 
# From -- ./inp_files/64354.got.cif
#   From: 2010.05.17/outbox.cif.g08.bks.cpg/sg65_33_cif.got.tgz:64354.got - 2010.06.03 17:01:31.
