data_PCOD9488964
_publ_section_title
;
Structure prediction by ZEFSAII (Michael W. Deem and Ramdas Pophale) SiO2 
 PCOD9488964
Probable space group: C M M M
;
_chemical_formula_sum "Si O2"
_cell_formula_units_Z 104
_cell_length_a 30.537686
_cell_length_b 21.569188
_cell_length_c 7.590099
_cell_angle_alpha 90.000000
_cell_angle_beta 90.000000
_cell_angle_gamma 90.000000
_cell_volume 4999.393965
_symmetry_space_group_name_H-M "C M M M"
_symmetry_group_IT_number 65
_symmetry_cell_setting 'orthorhombic'
loop_
_space_group_symop_operation_xyz
x,y,z
-x,-y,z
x,-y,-z
-x,y,-z
-x,-y,-z
x,y,-z
-x,y,z
x,-y,z
1/2+x,1/2+y,z
1/2-x,1/2-y,z
1/2+x,1/2-y,-z
1/2-x,1/2+y,-z
1/2-x,1/2-y,-z
1/2+x,1/2+y,-z
1/2-x,1/2+y,z
1/2+x,1/2-y,z
loop_
_atom_site_type_symbol
_atom_site_label
_atom_site_fract_x
_atom_site_fract_y
_atom_site_fract_z
Si Si1 0.449431 0.863950 0.283328
Si Si2 0.053099 0.500000 0.701508
Si Si3 0.136779 0.138462 0.294828
Si Si4 0.278329 0.569574 0.287390
Si Si5 0.221736 0.690566 0.208623
Si Si6 0.626558 0.225261 0.294272
Si Si7 0.951872 0.927899 0.212839
O O1 0.449124 0.865995 0.500000
O O2 0.500000 0.851651 0.232642
O O3 0.414156 0.813774 0.221876
O O4 0.435726 0.933032 0.221085
O O5 0.069644 0.500000 0.500000
O O6 0.000000 0.500000 0.694637
O O7 0.148871 0.146395 0.500000
O O8 0.173905 0.092746 0.222278
O O9 0.134940 0.206898 0.213735
O O10 0.089005 0.109338 0.283095
O O11 0.279047 0.565522 0.500000
O O12 0.268125 0.500000 0.222285
O O13 0.245872 0.625673 0.241875
O O14 0.250000 0.750000 0.276651
O O15 0.172850 0.690670 0.283960
O O16 0.217497 0.699192 0.000000
O O17 0.615480 0.234836 0.500000
O O18 0.000000 0.905169 0.268922
O O19 0.948192 0.000000 0.264169
O O20 0.950514 0.925535 0.000000
#
# Coordination Sequence:
#
# PCOD9488964 Si02
#       7
#    16   8  16  16  16  16  16
#     4   8  14  26  46  74 106 138 174 216 263 314
#     4   7  10  20  40  66  99 135 167 205 249 297
#     4  10  20  33  53  80 108 139 176 223 278 328
#     4  10  21  38  60  84 110 141 181 230 280 332
#     4  11  23  39  59  81 109 148 187 226 271 328
#     4  10  20  34  55  81 110 143 176 221 273 323
#     4   9  19  35  52  72 103 143 183 223 269 322
#
# _framework density 20.802520999999999
#
# number of rings (size 3 to 8) (size 9 to 14) (size 15 to 20)
#    0.000    2.538    1.538    2.308    0.000    4.000 
#    1.385    2.308    0.000    0.462    0.000    0.000 
#    0.000    1.846    0.000    0.000    0.000    0.000 
#
# Total GULP energy -290029.234568 kJ/mol
# GULP energy per Si atom -5577.485280 kJ/mol
# Density = 2.075517 g / cm^3
# Si number density = 20.802521 Si / 1000 Ang^3
#
#
#
# Elastic Constant Matrix: (Units=GPa)
#
#
# Indices 1 2 3 4 5 6 
#
# 1 106.4211 62.8339 -14.1170 0.0000 0.0000 0.0000
# 2 62.8339 142.1716 0.2879 0.0000 0.0000 0.0000
# 3 -14.1170 0.2879 44.6764 0.0000 0.0000 0.0000
# 4 0.0000 0.0000 0.0000 6.7168 0.0000 0.0000
# 5 0.0000 0.0000 0.0000 0.0000 32.3866 0.0000
# 6 0.0000 0.0000 0.0000 0.0000 0.0000 37.5409
#
#
#
# Elastic Compliance Matrix: (Units=1/GPa)
#
#
# Indices 1 2 3 4 5 6 
#
# 1 0.013494 -0.005972 0.004302 0.000000 0.000000 0.000000
# 2 -0.005972 0.009677 -0.001950 0.000000 0.000000 0.000000
# 3 0.004302 -0.001950 0.023755 0.000000 0.000000 0.000000
# 4 0.000000 0.000000 0.000000 0.148881 0.000000 0.000000
# 5 0.000000 0.000000 0.000000 0.000000 0.030877 0.000000
# 6 0.000000 0.000000 0.000000 0.000000 0.000000 0.026638
#
#
# Mechanical properties :
#
#
# Convention : Reuss Voigt Hill
#
# Bulk Modulus (GPa) = 25.19735 43.47543 34.33639
# Shear Modulus (GPa) = 18.26217 31.61312 24.93764
#
# Velocity S-wave (km/s) = 2.96612 3.90253 3.46610
# Velocity P-wave (km/s) = 4.88564 6.42268 5.70615
#
# Compressibility (1/GPa) = 0.03968672
#
# Stress axis : x y z
#
# Youngs Moduli (GPa) = 74.10957 103.33562 42.09613
#
# Poissons Ratio (x) = 0.61715 -0.18111
# Poissons Ratio (y) = 0.44260 0.08207
# Poissons Ratio (z) = -0.31883 0.20145
#
# Static dielectric constant tensor:
#      x y z
#    x 1.709510 0.000000 0.000000 
#    y 0.000000 1.766970 0.000000 
#    z 0.000000 0.000000 1.795380 
# 
# From -- ./inp_files/18614.got.cif
#   From: 2010.05.17/outbox.cif.g08.bks.cpg/sg65_10_cif.got.tgz:18614.got - 2010.06.03 17:01:31.
