data_PCOD9488549
_publ_section_title
;
Structure prediction by ZEFSAII (Michael W. Deem and Ramdas Pophale) SiO2 
 PCOD9488549
Probable space group: C M M M
;
_chemical_formula_sum "Si O2"
_cell_formula_units_Z 80
_cell_length_a 18.336753
_cell_length_b 28.521968
_cell_length_c 7.680265
_cell_angle_alpha 90.000000
_cell_angle_beta 90.000000
_cell_angle_gamma 90.000000
_cell_volume 4016.780763
_symmetry_space_group_name_H-M "C M M M"
_symmetry_group_IT_number 65
_symmetry_cell_setting 'orthorhombic'
loop_
_space_group_symop_operation_xyz
x,y,z
-x,-y,z
x,-y,-z
-x,y,-z
-x,-y,-z
x,y,-z
-x,y,z
x,-y,z
1/2+x,1/2+y,z
1/2-x,1/2-y,z
1/2+x,1/2-y,-z
1/2-x,1/2+y,-z
1/2-x,1/2-y,-z
1/2+x,1/2+y,-z
1/2-x,1/2+y,z
1/2+x,1/2-y,z
loop_
_atom_site_type_symbol
_atom_site_label
_atom_site_fract_x
_atom_site_fract_y
_atom_site_fract_z
Si Si1 0.081423 0.710065 0.789040
Si Si2 0.580359 0.585088 0.211667
Si Si3 0.876146 0.187723 0.797901
Si Si4 0.276876 0.152038 0.705720
Si Si5 0.763014 0.050499 0.295140
O O1 0.098250 0.762842 0.723393
O O2 0.145394 0.675501 0.733022
O O3 0.000000 0.696184 0.734644
O O4 0.083182 0.711222 0.000000
O O5 0.500000 0.568426 0.262778
O O6 0.591630 0.639033 0.273161
O O7 0.649821 0.556688 0.276816
O O8 0.584004 0.584717 0.000000
O O9 0.788801 0.182263 0.786607
O O10 0.898475 0.188324 0.000000
O O11 0.261057 0.150477 0.500000
O O12 0.270701 0.098821 0.776417
O O13 0.745018 0.049461 0.500000
O O14 0.741547 0.000000 0.219206
#
# Coordination Sequence:
#
# PCOD9488549 Si02
#       5
#    16  16  16  16  16
#     4  10  20  33  50  72  98 128 159 189 226 277
#     4   9  17  29  46  70  99 127 157 194 230 266
#     4   9  17  31  50  70  96 132 165 187 217 269
#     4  10  20  33  50  72  96 122 156 198 238 275
#     4   9  19  35  51  66  88 122 161 197 236 284
#
# _framework density 19.916447000000002
#
# number of rings (size 3 to 8) (size 9 to 14) (size 15 to 20)
#    0.000    2.600    0.000    1.800    0.000    8.000 
#    0.000    2.000    0.000    4.200    0.000    4.200 
#    0.000    0.000    0.000    0.000    0.000    0.000 
#
# Total GULP energy -223175.011768 kJ/mol
# GULP energy per Si atom -5579.375294 kJ/mol
# Density = 1.987112 g / cm^3
# Si number density = 19.916447 Si / 1000 Ang^3
#
#
#
# Elastic Constant Matrix: (Units=GPa)
#
#
# Indices 1 2 3 4 5 6 
#
# 1 60.7595 19.2624 -12.9505 0.0000 0.0000 0.0000
# 2 19.2624 82.6012 -2.7971 0.0000 0.0000 0.0000
# 3 -12.9505 -2.7971 36.8491 0.0000 0.0000 0.0000
# 4 0.0000 0.0000 0.0000 15.4773 0.0000 0.0000
# 5 0.0000 0.0000 0.0000 0.0000 67.4470 0.0000
# 6 0.0000 0.0000 0.0000 0.0000 0.0000 1.8047
#
#
#
# Elastic Compliance Matrix: (Units=1/GPa)
#
#
# Indices 1 2 3 4 5 6 
#
# 1 0.019175 -0.004254 0.006416 0.000000 0.000000 0.000000
# 2 -0.004254 0.013081 -0.000502 0.000000 0.000000 0.000000
# 3 0.006416 -0.000502 0.029354 0.000000 0.000000 0.000000
# 4 0.000000 0.000000 0.000000 0.064611 0.000000 0.000000
# 5 0.000000 0.000000 0.000000 0.000000 0.014826 0.000000
# 6 0.000000 0.000000 0.000000 0.000000 0.000000 0.554096
#
#
# Mechanical properties :
#
#
# Convention : Reuss Voigt Hill
#
# Bulk Modulus (GPa) = 15.40131 20.80436 18.10284
# Shear Modulus (GPa) = 7.00802 28.72548 17.86675
#
# Velocity S-wave (km/s) = 1.87786 3.80188 2.99839
# Velocity P-wave (km/s) = 3.52868 5.45352 4.59306
#
# Compressibility (1/GPa) = 0.06492954
#
# Stress axis : x y z
#
# Youngs Moduli (GPa) = 52.15249 76.44428 34.06642
#
# Poissons Ratio (x) = 0.32521 -0.21857
# Poissons Ratio (y) = 0.22187 0.01711
# Poissons Ratio (z) = -0.33461 0.03839
#
# Static dielectric constant tensor:
#      x y z
#    x 1.668040 0.000000 0.000000 
#    y 0.000000 1.737290 0.000000 
#    z 0.000000 0.000000 1.756170 
# 
# From -- ./inp_files/9569.got.cif
#   From: 2010.05.17/outbox.cif.g08.bks.cpg/sg65_5_cif.got.tgz:9569.got - 2010.06.03 17:01:31.
