data_PCOD9488831
_publ_section_title
;
Structure prediction by ZEFSAII (Michael W. Deem and Ramdas Pophale) SiO2 
 PCOD9488831
Probable space group: C M M M
;
_chemical_formula_sum "Si O2"
_cell_formula_units_Z 112
_cell_length_a 13.795444
_cell_length_b 24.624688
_cell_length_c 16.179869
_cell_angle_alpha 90.000000
_cell_angle_beta 90.000000
_cell_angle_gamma 90.000000
_cell_volume 5496.439098
_symmetry_space_group_name_H-M "C M M M"
_symmetry_group_IT_number 65
_symmetry_cell_setting 'orthorhombic'
loop_
_space_group_symop_operation_xyz
x,y,z
-x,-y,z
x,-y,-z
-x,y,-z
-x,-y,-z
x,y,-z
-x,y,z
x,-y,z
1/2+x,1/2+y,z
1/2-x,1/2-y,z
1/2+x,1/2-y,-z
1/2-x,1/2+y,-z
1/2-x,1/2-y,-z
1/2+x,1/2+y,-z
1/2-x,1/2+y,z
1/2+x,1/2-y,z
loop_
_atom_site_type_symbol
_atom_site_label
_atom_site_fract_x
_atom_site_fract_y
_atom_site_fract_z
Si Si1 0.614994 0.637593 0.092679
Si Si2 0.245162 0.938444 0.817303
Si Si3 0.115667 0.823211 0.410520
Si Si4 0.311678 0.559050 0.630113
Si Si5 0.608623 0.895576 0.407668
Si Si6 0.887192 0.655433 0.234177
Si Si7 0.118377 0.223399 0.764426
O O1 0.500000 0.627908 0.098695
O O2 0.674039 0.583345 0.112640
O O3 0.641412 0.680626 0.163919
O O4 0.636079 0.657371 0.000000
O O5 0.188120 0.937667 0.729678
O O6 0.329702 0.894233 0.805896
O O7 0.279322 0.000000 0.830113
O O8 0.153938 0.804163 0.500000
O O9 0.136924 0.887567 0.403628
O O10 0.152987 0.796101 0.326043
O O11 0.000000 0.815155 0.410981
O O12 0.349433 0.500000 0.604528
O O13 0.198379 0.564130 0.604435
O O14 0.615294 0.872176 0.500000
O O15 0.500000 0.919832 0.399481
O O16 0.618413 0.852768 0.333629
O O17 0.849931 0.715547 0.215034
O O18 0.000000 0.651909 0.210968
O O19 0.000000 0.225350 0.760213
#
# Coordination Sequence:
#
# PCOD9488831 Si02
#       7
#    16  16  16  16  16  16  16
#     4  10  21  39  64  91 118 150 189 236 291 346
#     4  10  21  37  58  85 116 150 189 235 288 347
#     4  10  20  33  51  78 113 154 195 234 283 342
#     4  10  20  34  51  72 107 154 196 237 288 344
#     4   9  18  32  49  73 105 142 194 252 295 332
#     4   9  19  36  59  84 113 154 195 237 294 348
#     4   9  18  36  58  82 116 151 189 240 287 335
#
# _framework density 20.376829000000001
#
# number of rings (size 3 to 8) (size 9 to 14) (size 15 to 20)
#    0.000    2.429    1.429    0.429    0.000    3.714 
#    0.000   10.714    0.000    3.857    0.000    1.000 
#    0.000    0.000    0.000    0.000    0.000    0.000 
#
# Total GULP energy -312474.431093 kJ/mol
# GULP energy per Si atom -5579.900555 kJ/mol
# Density = 2.033045 g / cm^3
# Si number density = 20.376829 Si / 1000 Ang^3
#
#
#
# Elastic Constant Matrix: (Units=GPa)
#
#
# Indices 1 2 3 4 5 6 
#
# 1 40.6364 23.3927 38.3369 0.0000 0.0000 0.0000
# 2 23.3927 127.8611 41.6719 0.0000 0.0000 0.0000
# 3 38.3369 41.6719 101.1062 0.0000 0.0000 0.0000
# 4 0.0000 0.0000 0.0000 -2.8470 0.0000 0.0000
# 5 0.0000 0.0000 0.0000 0.0000 17.6932 0.0000
# 6 0.0000 0.0000 0.0000 0.0000 0.0000 19.1203
#
#
#
# Elastic Compliance Matrix: (Units=1/GPa)
#
#
# Indices 1 2 3 4 5 6 
#
# 1 0.039094 -0.002681 -0.013718 0.000000 0.000000 0.000000
# 2 -0.002681 0.009219 -0.002783 0.000000 0.000000 0.000000
# 3 -0.013718 -0.002783 0.016239 0.000000 0.000000 0.000000
# 4 0.000000 0.000000 0.000000 -0.351246 0.000000 0.000000
# 5 0.000000 0.000000 0.000000 0.000000 0.056519 0.000000
# 6 0.000000 0.000000 0.000000 0.000000 0.000000 0.052300
#
#
# Mechanical properties :
#
#
# Convention : Reuss Voigt Hill
#
# Bulk Modulus (GPa) = 38.18718 52.93408 45.56063
# Shear Modulus (GPa) = -38.23183 17.87345 -10.17919
#
# Velocity S-wave (km/s) = -4.33626 2.96488 -2.23748
# Velocity P-wave (km/s) = 2.50792 6.14448 3.96642
#
# Compressibility (1/GPa) = 0.02618680
#
# Stress axis : x y z
#
# Youngs Moduli (GPa) = 25.57926 108.47738 61.57943
#
# Poissons Ratio (x) = 0.29087 0.84477
# Poissons Ratio (y) = 0.06859 0.17136
# Poissons Ratio (z) = 0.35091 0.30187
#
# Static dielectric constant tensor:
#      x y z
#    x 1.763290 0.000000 0.000000 
#    y 0.000000 1.712620 0.000000 
#    z 0.000000 0.000000 1.732680 
# 
# From -- ./inp_files/40839.got.cif
#   From: 2010.05.17/outbox.cif.g08.bks.cpg/sg65_21_cif.got.tgz:40839.got - 2010.06.03 17:01:31.
