data_PCOD9488551
_publ_section_title
;
Structure prediction by ZEFSAII (Michael W. Deem and Ramdas Pophale) SiO2 
 PCOD9488551
Probable space group: C M M M
;
_chemical_formula_sum "Si O2"
_cell_formula_units_Z 88
_cell_length_a 10.733014
_cell_length_b 15.266806
_cell_length_c 28.028941
_cell_angle_alpha 90.000000
_cell_angle_beta 90.000000
_cell_angle_gamma 90.000000
_cell_volume 4592.789830
_symmetry_space_group_name_H-M "C M M M"
_symmetry_group_IT_number 65
_symmetry_cell_setting 'orthorhombic'
loop_
_space_group_symop_operation_xyz
x,y,z
-x,-y,z
x,-y,-z
-x,y,-z
-x,-y,-z
x,y,-z
-x,y,z
x,-y,z
1/2+x,1/2+y,z
1/2-x,1/2-y,z
1/2+x,1/2-y,-z
1/2-x,1/2+y,-z
1/2-x,1/2-y,-z
1/2+x,1/2+y,-z
1/2-x,1/2+y,z
1/2+x,1/2-y,z
loop_
_atom_site_type_symbol
_atom_site_label
_atom_site_fract_x
_atom_site_fract_y
_atom_site_fract_z
Si Si1 0.635129 0.396972 0.701724
Si Si2 0.359537 0.606973 0.055058
Si Si3 0.639536 0.107118 0.234647
Si Si4 0.144519 0.181295 0.398734
Si Si5 0.349695 0.597838 0.500000
Si Si6 0.859411 0.606921 0.875484
O O1 0.500000 0.358533 0.715374
O O2 0.631209 0.500000 0.712667
O O3 0.752411 0.360665 0.730470
O O4 0.646905 0.386791 0.644802
O O5 0.500000 0.633658 0.069311
O O6 0.358274 0.500000 0.055884
O O7 0.249957 0.637522 0.089749
O O8 0.338777 0.632895 0.000000
O O9 0.500000 0.134905 0.248671
O O10 0.662013 0.132294 0.179603
O O11 0.639031 0.000000 0.235724
O O12 0.250000 0.250000 0.385607
O O13 0.181611 0.144421 0.450528
O O14 0.000000 0.213108 0.401902
O O15 0.297907 0.500000 0.500000
O O16 0.500000 0.592502 0.500000
O O17 0.858433 0.500000 0.876525
O O18 0.000000 0.633892 0.889434
#
# Coordination Sequence:
#
# PCOD9488551 Si02
#       6
#    16  16  16  16   8  16
#     4   9  17  29  45  65  87 112 147 187 221 259
#     4   8  13  19  25  35  54  82 118 160 204 249
#     4   8  14  24  37  54  76 101 131 171 219 265
#     4  10  20  33  50  72  97 124 153 185 223 267
#     4   9  17  32  55  77  96 123 158 192 224 259
#     4   8  13  20  29  42  61  86 119 160 205 253
#
# _framework density 19.160467000000001
#
# number of rings (size 3 to 8) (size 9 to 14) (size 15 to 20)
#    0.000    3.364    0.000    2.455    0.000    4.000 
#    0.000    5.455    0.000    2.182    0.000    0.000 
#    0.000    0.000    0.000    0.000    0.000    0.909 
#
# Total GULP energy -245006.879925 kJ/mol
# GULP energy per Si atom -5568.338180 kJ/mol
# Density = 1.911686 g / cm^3
# Si number density = 19.160467 Si / 1000 Ang^3
#
#
#
# Elastic Constant Matrix: (Units=GPa)
#
#
# Indices 1 2 3 4 5 6 
#
# 1 159.3963 12.8603 103.7247 0.0000 0.0000 0.0000
# 2 12.8603 20.6671 -1.5877 0.0000 0.0000 0.0000
# 3 103.7247 -1.5877 104.5464 0.0000 0.0000 0.0000
# 4 0.0000 0.0000 0.0000 -14.1668 0.0000 0.0000
# 5 0.0000 0.0000 0.0000 0.0000 16.1917 0.0000
# 6 0.0000 0.0000 0.0000 0.0000 0.0000 2.5619
#
#
#
# Elastic Compliance Matrix: (Units=1/GPa)
#
#
# Indices 1 2 3 4 5 6 
#
# 1 0.021555 -0.015074 -0.021615 0.000000 0.000000 0.000000
# 2 -0.015074 0.058983 0.015851 0.000000 0.000000 0.000000
# 3 -0.021615 0.015851 0.031251 0.000000 0.000000 0.000000
# 4 0.000000 0.000000 0.000000 -0.070588 0.000000 0.000000
# 5 0.000000 0.000000 0.000000 0.000000 0.061760 0.000000
# 6 0.000000 0.000000 0.000000 0.000000 0.000000 0.390333
#
#
# Mechanical properties :
#
#
# Convention : Reuss Voigt Hill
#
# Bulk Modulus (GPa) = 14.26240 57.17826 35.72033
# Shear Modulus (GPa) = 8.95509 12.22487 10.58998
#
# Velocity S-wave (km/s) = 2.16423 2.52866 2.35351
# Velocity P-wave (km/s) = 3.70203 6.19936 5.10573
#
# Compressibility (1/GPa) = 0.07011441
#
# Stress axis : x y z
#
# Youngs Moduli (GPa) = 46.39220 16.95392 31.99919
#
# Poissons Ratio (x) = 0.25556 0.69166
# Poissons Ratio (y) = 0.69929 -0.50721
# Poissons Ratio (z) = 1.00276 -0.26873
#
# Static dielectric constant tensor:
#      x y z
#    x 1.677790 0.000000 0.000000 
#    y 0.000000 1.681090 0.000000 
#    z 0.000000 0.000000 1.676360 
# 
# From -- ./inp_files/76600.got.cif
#   From: 2010.05.17/outbox.cif.g08.bks.cpg/sg65_39_cif.got.tgz:76600.got - 2010.06.03 17:01:31.
