data_PCOD9488206
_publ_section_title
;
Structure prediction by ZEFSAII (Michael W. Deem and Ramdas Pophale) SiO2 
 PCOD9488206
Probable space group: C M M M
;
_chemical_formula_sum "Si O2"
_cell_formula_units_Z 104
_cell_length_a 21.643191
_cell_length_b 28.846448
_cell_length_c 7.601376
_cell_angle_alpha 90.000000
_cell_angle_beta 90.000000
_cell_angle_gamma 90.000000
_cell_volume 4745.760873
_symmetry_space_group_name_H-M "C M M M"
_symmetry_group_IT_number 65
_symmetry_cell_setting 'orthorhombic'
loop_
_space_group_symop_operation_xyz
x,y,z
-x,-y,z
x,-y,-z
-x,y,-z
-x,-y,-z
x,y,-z
-x,y,z
x,-y,z
1/2+x,1/2+y,z
1/2-x,1/2-y,z
1/2+x,1/2-y,-z
1/2-x,1/2+y,-z
1/2-x,1/2-y,-z
1/2+x,1/2+y,-z
1/2-x,1/2+y,z
1/2+x,1/2-y,z
loop_
_atom_site_type_symbol
_atom_site_label
_atom_site_fract_x
_atom_site_fract_y
_atom_site_fract_z
Si Si1 0.433002 0.769789 0.294653
Si Si2 0.163088 0.947435 0.287475
Si Si3 0.667449 0.704441 0.300543
Si Si4 0.500000 0.947269 0.785041
Si Si5 0.097507 0.627473 0.206849
Si Si6 0.259169 0.130857 0.286899
Si Si7 0.429740 0.372214 0.207482
O O1 0.433940 0.755732 0.500000
O O2 0.500000 0.756172 0.217881
O O3 0.371626 0.746125 0.216285
O O4 0.426335 0.824844 0.288681
O O5 0.165204 0.948163 0.500000
O O6 0.217295 0.912519 0.227282
O O7 0.099320 0.922963 0.233512
O O8 0.169524 0.000000 0.224372
O O9 0.684247 0.718444 0.500000
O O10 0.727287 0.678788 0.222214
O O11 0.616377 0.663262 0.301919
O O12 0.559550 0.917191 0.729899
O O13 0.500000 0.000000 0.721894
O O14 0.500000 0.949264 0.000000
O O15 0.170401 0.624419 0.235799
O O16 0.085000 0.631748 0.000000
O O17 0.255898 0.132585 0.500000
O O18 0.500000 0.368918 0.269569
O O19 0.428036 0.361148 0.000000
#
# Coordination Sequence:
#
# PCOD9488206 Si02
#       7
#    16  16  16   8  16  16  16
#     4  10  20  35  58  84 111 144 184 229 274 323
#     4   9  19  36  56  76 101 139 185 230 276 329
#     4   9  19  36  57  80 107 147 191 227 268 324
#     4   9  20  40  61  81 109 145 185 227 274 335
#     4  11  22  37  58  83 111 143 179 222 275 334
#     4   9  19  36  56  79 110 142 178 228 277 326
#     4  10  20  32  48  75 111 146 181 228 279 323
#
# _framework density 21.914294000000002
#
# number of rings (size 3 to 8) (size 9 to 14) (size 15 to 20)
#    0.000    2.385    0.769    2.308    0.000    6.769 
#    0.000    4.615    0.000    3.231    0.000    0.000 
#    0.000    0.000    0.000    0.000    0.000    0.000 
#
# Total GULP energy -290304.464118 kJ/mol
# GULP energy per Si atom -5582.778156 kJ/mol
# Density = 2.186442 g / cm^3
# Si number density = 21.914294 Si / 1000 Ang^3
#
#
#
# Elastic Constant Matrix: (Units=GPa)
#
#
# Indices 1 2 3 4 5 6 
#
# 1 155.5662 53.5561 -2.8086 0.0000 0.0000 0.0000
# 2 53.5561 130.8728 -0.5517 0.0000 0.0000 0.0000
# 3 -2.8086 -0.5517 55.2325 0.0000 0.0000 0.0000
# 4 0.0000 0.0000 0.0000 4868.0041 0.0000 0.0000
# 5 0.0000 0.0000 0.0000 0.0000 9.2432 0.0000
# 6 0.0000 0.0000 0.0000 0.0000 0.0000 80.8016
#
#
#
# Elastic Compliance Matrix: (Units=1/GPa)
#
#
# Indices 1 2 3 4 5 6 
#
# 1 0.007489 -0.003063 0.000350 0.000000 0.000000 0.000000
# 2 -0.003063 0.008894 -0.000067 0.000000 0.000000 0.000000
# 3 0.000350 -0.000067 0.018122 0.000000 0.000000 0.000000
# 4 0.000000 0.000000 0.000000 0.000205 0.000000 0.000000
# 5 0.000000 0.000000 0.000000 0.000000 0.108187 0.000000
# 6 0.000000 0.000000 0.000000 0.000000 0.000000 0.012376
#
#
# Mechanical properties :
#
#
# Convention : Reuss Voigt Hill
#
# Bulk Modulus (GPa) = 34.54722 49.11813 41.83267
# Shear Modulus (GPa) = 29.32844 1011.04150 520.18497
#
# Velocity S-wave (km/s) = 3.66228 21.50263 15.42361
# Velocity P-wave (km/s) = 5.80362 25.27740 18.33888
#
# Compressibility (1/GPa) = 0.02894589
#
# Stress axis : x y z
#
# Youngs Moduli (GPa) = 133.52910 112.43213 55.18026
#
# Poissons Ratio (x) = 0.34440 -0.01932
# Poissons Ratio (y) = 0.40903 0.00369
# Poissons Ratio (z) = -0.04676 0.00752
#
# Static dielectric constant tensor:
#      x y z
#    x 1.808960 0.000000 0.000000 
#    y 0.000000 1.800440 0.000000 
#    z 0.000000 0.000000 1.875790 
# 
# From -- ./inp_files/12826.got.cif
#   From: 2010.05.17/outbox.cif.g08.bks.cpg/sg65_7_cif.got.tgz:12826.got - 2010.06.03 17:01:31.
