data_PCOD9488613
_publ_section_title
;
Structure prediction by ZEFSAII (Michael W. Deem and Ramdas Pophale) SiO2 
 PCOD9488613
Probable space group: C M M M
;
_chemical_formula_sum "Si O2"
_cell_formula_units_Z 72
_cell_length_a 8.889669
_cell_length_b 14.980784
_cell_length_c 24.787837
_cell_angle_alpha 90.000000
_cell_angle_beta 90.000000
_cell_angle_gamma 90.000000
_cell_volume 3301.100638
_symmetry_space_group_name_H-M "C M M M"
_symmetry_group_IT_number 65
_symmetry_cell_setting 'orthorhombic'
loop_
_space_group_symop_operation_xyz
x,y,z
-x,-y,z
x,-y,-z
-x,y,-z
-x,-y,-z
x,y,-z
-x,y,z
x,-y,z
1/2+x,1/2+y,z
1/2-x,1/2-y,z
1/2+x,1/2-y,-z
1/2-x,1/2+y,-z
1/2-x,1/2-y,-z
1/2+x,1/2+y,-z
1/2-x,1/2+y,z
1/2+x,1/2-y,z
loop_
_atom_site_type_symbol
_atom_site_label
_atom_site_fract_x
_atom_site_fract_y
_atom_site_fract_z
Si Si1 0.324959 0.109085 0.940601
Si Si2 0.178368 0.651717 0.275621
Si Si3 0.181155 0.149454 0.617026
Si Si4 0.180876 0.150667 0.500000
Si Si5 0.666067 0.605482 0.833445
O O1 0.500000 0.134528 0.935697
O O2 0.233323 0.142179 0.889060
O O3 0.322052 0.000000 0.939947
O O4 0.268366 0.136367 0.000000
O O5 0.250000 0.750000 0.274806
O O6 0.249898 0.607184 0.329033
O O7 0.227201 0.614086 0.218053
O O8 0.000000 0.654013 0.281172
O O9 0.250000 0.250000 0.615012
O O10 0.219970 0.109045 0.558182
O O11 0.000000 0.153190 0.622268
O O12 0.250000 0.250000 0.500000
O O13 0.000000 0.158858 0.500000
O O14 0.500000 0.643520 0.821478
O O15 0.650490 0.500000 0.842216
#
# Coordination Sequence:
#
# PCOD9488613 Si02
#       5
#    16  16  16   8  16
#     4   8  14  26  45  69  96 124 154 190 232 276
#     4  11  21  33  49  69  96 129 163 197 237 284
#     4   9  15  25  40  61  89 119 153 190 232 278
#     4   8  14  22  36  58  85 116 147 186 231 275
#     4  10  20  33  50  73  99 126 159 198 237 279
#
# _framework density 21.810907
#
# number of rings (size 3 to 8) (size 9 to 14) (size 15 to 20)
#    0.000    2.667    0.000    5.333    0.000    2.667 
#    0.000    2.222    0.000    0.667    0.000    0.778 
#    0.000    6.222    0.000    0.000    0.000    0.000 
#
# Total GULP energy -200700.607804 kJ/mol
# GULP energy per Si atom -5575.016883 kJ/mol
# Density = 2.176126 g / cm^3
# Si number density = 21.810907 Si / 1000 Ang^3
#
#
#
# Elastic Constant Matrix: (Units=GPa)
#
#
# Indices 1 2 3 4 5 6 
#
# 1 129.0691 7.0501 88.3902 0.0000 0.0000 0.0000
# 2 7.0501 41.9768 11.9446 0.0000 0.0000 0.0000
# 3 88.3902 11.9446 230.9902 0.0000 0.0000 0.0000
# 4 0.0000 0.0000 0.0000 1.2518 0.0000 0.0000
# 5 0.0000 0.0000 0.0000 0.0000 -33.4610 0.0000
# 6 0.0000 0.0000 0.0000 0.0000 0.0000 7.0662
#
#
#
# Elastic Compliance Matrix: (Units=1/GPa)
#
#
# Indices 1 2 3 4 5 6 
#
# 1 0.010516 -0.000630 -0.003991 0.000000 0.000000 0.000000
# 2 -0.000630 0.024216 -0.001011 0.000000 0.000000 0.000000
# 3 -0.003991 -0.001011 0.005909 0.000000 0.000000 0.000000
# 4 0.000000 0.000000 0.000000 0.798847 0.000000 0.000000
# 5 0.000000 0.000000 0.000000 0.000000 -0.029886 0.000000
# 6 0.000000 0.000000 0.000000 0.000000 0.000000 0.141519
#
#
# Mechanical properties :
#
#
# Convention : Reuss Voigt Hill
#
# Bulk Modulus (GPa) = 34.04226 68.53398 51.28812
# Shear Modulus (GPa) = 5.14309 14.61480 9.87894
#
# Velocity S-wave (km/s) = 1.53726 2.59138 2.13054
# Velocity P-wave (km/s) = 4.33505 6.35954 5.44226
#
# Compressibility (1/GPa) = 0.02937526
#
# Stress axis : x y z
#
# Youngs Moduli (GPa) = 95.09720 41.29456 169.24032
#
# Poissons Ratio (x) = 0.02603 0.67548
# Poissons Ratio (y) = 0.05995 0.17110
# Poissons Ratio (z) = 0.37956 0.04175
#
# Static dielectric constant tensor:
#      x y z
#    x 1.760680 0.000000 0.000000 
#    y 0.000000 1.817090 0.000000 
#    z 0.000000 0.000000 1.874020 
# 
# From -- ./inp_files/67254.got.cif
#   From: 2010.05.17/outbox.cif.g08.bks.cpg/sg65_34_cif.got.tgz:67254.got - 2010.06.03 17:01:31.
