data_PCOD9488316
_publ_section_title
;
Structure prediction by ZEFSAII (Michael W. Deem and Ramdas Pophale) SiO2 
 PCOD9488316
Probable space group: C M M M
;
_chemical_formula_sum "Si O2"
_cell_formula_units_Z 100
_cell_length_a 7.781030
_cell_length_b 29.062023
_cell_length_c 20.924098
_cell_angle_alpha 90.000000
_cell_angle_beta 90.000000
_cell_angle_gamma 90.000000
_cell_volume 4731.618022
_symmetry_space_group_name_H-M "C M M M"
_symmetry_group_IT_number 65
_symmetry_cell_setting 'orthorhombic'
loop_
_space_group_symop_operation_xyz
x,y,z
-x,-y,z
x,-y,-z
-x,y,-z
-x,-y,-z
x,y,-z
-x,y,z
x,-y,z
1/2+x,1/2+y,z
1/2-x,1/2-y,z
1/2+x,1/2-y,-z
1/2-x,1/2+y,-z
1/2-x,1/2-y,-z
1/2+x,1/2+y,-z
1/2-x,1/2+y,z
1/2+x,1/2-y,z
loop_
_atom_site_type_symbol
_atom_site_label
_atom_site_fract_x
_atom_site_fract_y
_atom_site_fract_z
Si Si1 0.696209 0.638697 0.819321
Si Si2 0.201878 0.803035 0.703061
Si Si3 0.193640 0.424778 0.075894
Si Si4 0.795751 0.050450 0.405724
Si Si5 0.500000 0.500000 0.099020
Si Si6 0.793484 0.449551 0.743584
Si Si7 0.698772 0.847681 0.431738
O O1 0.500000 0.651810 0.834144
O O2 0.777855 0.674087 0.767768
O O3 0.785943 0.622643 0.884340
O O4 0.701203 0.591195 0.779235
O O5 0.250000 0.750000 0.696560
O O6 0.236297 0.828917 0.636060
O O7 0.000000 0.806805 0.712500
O O8 0.347070 0.459670 0.093623
O O9 0.000000 0.442737 0.090630
O O10 0.203966 0.417540 0.000000
O O11 0.760274 0.051464 0.330104
O O12 0.714610 0.097018 0.431175
O O13 0.000000 0.052802 0.417470
O O14 0.734420 0.000000 0.427988
O O15 0.744845 0.500000 0.769048
O O16 0.000000 0.444306 0.747533
O O17 0.777459 0.831625 0.500000
O O18 0.500000 0.834631 0.432752
#
# Coordination Sequence:
#
# PCOD9488316 Si02
#       7
#    16  16  16  16   4  16  16
#     4  11  23  39  62  92 125 166 214 265 324 381
#     4  11  25  45  70  96 122 156 202 261 329 399
#     4  11  24  40  62  95 136 187 237 273 319 381
#     4  10  20  35  55  82 118 161 205 249 300 363
#     4  12  23  42  64  94 146 196 231 278 321 370
#     4  10  20  32  51  82 119 159 203 250 299 358
#     4  11  24  41  63  91 123 160 204 256 316 384
#
# _framework density 21.134419999999999
#
# number of rings (size 3 to 8) (size 9 to 14) (size 15 to 20)
#    0.000    1.280    2.400    3.360    1.120    6.400 
#    0.000    1.600    0.000    0.480    0.000    0.000 
#    0.000    0.000    0.000    0.000    0.000    0.000 
#
# Total GULP energy -278617.772736 kJ/mol
# GULP energy per Si atom -5572.355455 kJ/mol
# Density = 2.108632 g / cm^3
# Si number density = 21.134420 Si / 1000 Ang^3
#
#
#
# Elastic Constant Matrix: (Units=GPa)
#
#
# Indices 1 2 3 4 5 6 
#
# 1 90.4853 14.2242 22.6700 0.0000 0.0000 0.0000
# 2 14.2242 95.6059 45.1394 0.0000 0.0000 0.0000
# 3 22.6700 45.1394 128.4865 0.0000 0.0000 0.0000
# 4 0.0000 0.0000 0.0000 -3.4753 0.0000 0.0000
# 5 0.0000 0.0000 0.0000 0.0000 15.6344 0.0000
# 6 0.0000 0.0000 0.0000 0.0000 0.0000 20.7276
#
#
#
# Elastic Compliance Matrix: (Units=1/GPa)
#
#
# Indices 1 2 3 4 5 6 
#
# 1 0.011629 -0.000913 -0.001731 0.000000 0.000000 0.000000
# 2 -0.000913 0.012611 -0.004269 0.000000 0.000000 0.000000
# 3 -0.001731 -0.004269 0.009588 0.000000 0.000000 0.000000
# 4 0.000000 0.000000 0.000000 -0.287746 0.000000 0.000000
# 5 0.000000 0.000000 0.000000 0.000000 0.063961 0.000000
# 6 0.000000 0.000000 0.000000 0.000000 0.000000 0.048245
#
#
# Mechanical properties :
#
#
# Convention : Reuss Voigt Hill
#
# Bulk Modulus (GPa) = 49.99625 53.18278 51.58952
# Shear Modulus (GPa) = -41.24791 22.08030 -9.58381
#
# Velocity S-wave (km/s) = -4.42259 3.23577 -2.13179
# Velocity P-wave (km/s) = 1.53994 6.25931 4.28997
#
# Compressibility (1/GPa) = 0.02000150
#
# Stress axis : x y z
#
# Youngs Moduli (GPa) = 85.99402 79.29461 104.29404
#
# Poissons Ratio (x) = 0.07238 0.18054
# Poissons Ratio (y) = 0.07850 0.44528
# Poissons Ratio (z) = 0.14886 0.33855
#
# Static dielectric constant tensor:
#      x y z
#    x 1.805320 0.000000 0.000000 
#    y 0.000000 1.692130 0.000000 
#    z 0.000000 0.000000 1.885690 
# 
# From -- ./inp_files/60370.got.cif
#   From: 2010.05.17/outbox.cif.g08.bks.cpg/sg65_31_cif.got.tgz:60370.got - 2010.06.03 17:01:31.
