data_PCOD9488077
_publ_section_title
;
Structure prediction by ZEFSAII (Michael W. Deem and Ramdas Pophale) SiO2 
 PCOD9488077
Probable space group: C M M M
;
_chemical_formula_sum "Si O2"
_cell_formula_units_Z 96
_cell_length_a 33.383754
_cell_length_b 19.114027
_cell_length_c 9.064578
_cell_angle_alpha 90.000000
_cell_angle_beta 90.000000
_cell_angle_gamma 90.000000
_cell_volume 5784.088869
_symmetry_space_group_name_H-M "C M M M"
_symmetry_group_IT_number 65
_symmetry_cell_setting 'orthorhombic'
loop_
_space_group_symop_operation_xyz
x,y,z
-x,-y,z
x,-y,-z
-x,y,-z
-x,-y,-z
x,y,-z
-x,y,z
x,-y,z
1/2+x,1/2+y,z
1/2-x,1/2-y,z
1/2+x,1/2-y,-z
1/2-x,1/2+y,-z
1/2-x,1/2-y,-z
1/2+x,1/2+y,-z
1/2-x,1/2+y,z
1/2+x,1/2-y,z
loop_
_atom_site_type_symbol
_atom_site_label
_atom_site_fract_x
_atom_site_fract_y
_atom_site_fract_z
Si Si1 0.122676 0.206714 0.823965
Si Si2 0.954275 0.293148 0.177267
Si Si3 0.333710 0.579981 0.322433
Si Si4 0.258819 0.917452 0.323886
Si Si5 0.909826 0.580458 0.323599
Si Si6 0.166228 0.350800 0.823879
O O1 0.078625 0.234878 0.781006
O O2 0.137138 0.137083 0.745220
O O3 0.152694 0.271318 0.790482
O O4 0.123002 0.196134 0.000000
O O5 0.941079 0.364789 0.255421
O O6 0.000000 0.274732 0.211886
O O7 0.950754 0.302890 0.000000
O O8 0.335723 0.582066 0.500000
O O9 0.342335 0.500000 0.276207
O O10 0.287387 0.595993 0.282272
O O11 0.262943 0.906299 0.500000
O O12 0.290553 0.870990 0.237550
O O13 0.266743 0.000000 0.296345
O O14 0.907777 0.588779 0.500000
O O15 0.919821 0.500000 0.290409
O O16 0.866966 0.600323 0.253390
O O17 0.164280 0.360080 0.000000
#
# Coordination Sequence:
#
# PCOD9488077 Si02
#       6
#    16  16  16  16  16  16
#     4   9  19  34  51  73  98 124 157 198 242 288
#     4   9  19  36  55  74  98 128 161 198 242 292
#     4   9  19  35  53  73  97 126 160 198 242 293
#     4   9  18  32  48  68  97 132 169 206 242 281
#     4  10  20  32  47  70 101 135 170 207 243 280
#     4  10  20  32  47  70 100 133 170 208 242 280
#
# _framework density 16.597255000000001
#
# number of rings (size 3 to 8) (size 9 to 14) (size 15 to 20)
#    0.000    2.667    0.000    3.500    0.000    9.333 
#    0.000    6.667    0.000    0.500    0.000    3.500 
#    0.000    0.000    0.000    0.000    0.000    0.000 
#
# Total GULP energy -267707.607715 kJ/mol
# GULP energy per Si atom -5577.241827 kJ/mol
# Density = 1.655948 g / cm^3
# Si number density = 16.597255 Si / 1000 Ang^3
#
#
#
# Elastic Constant Matrix: (Units=GPa)
#
#
# Indices 1 2 3 4 5 6 
#
# 1 124.1238 101.8642 48.4451 0.0000 0.0000 0.0000
# 2 101.8642 107.3418 48.6329 0.0000 0.0000 0.0000
# 3 48.4451 48.6329 32.3035 0.0000 0.0000 0.0000
# 4 0.0000 0.0000 0.0000 32.9879 0.0000 0.0000
# 5 0.0000 0.0000 0.0000 0.0000 18.8367 0.0000
# 6 0.0000 0.0000 0.0000 0.0000 0.0000 7.5914
#
#
#
# Elastic Compliance Matrix: (Units=1/GPa)
#
#
# Indices 1 2 3 4 5 6 
#
# 1 0.037112 -0.031463 -0.008290 0.000000 0.000000 0.000000
# 2 -0.031463 0.055977 -0.037089 0.000000 0.000000 0.000000
# 3 -0.008290 -0.037089 0.099226 0.000000 0.000000 0.000000
# 4 0.000000 0.000000 0.000000 0.030314 0.000000 0.000000
# 5 0.000000 0.000000 0.000000 0.000000 0.053088 0.000000
# 6 0.000000 0.000000 0.000000 0.000000 0.000000 0.131729
#
#
# Mechanical properties :
#
#
# Convention : Reuss Voigt Hill
#
# Bulk Modulus (GPa) = 25.88516 73.51707 49.70112
# Shear Modulus (GPa) = 8.71070 16.20498 12.45784
#
# Velocity S-wave (km/s) = 2.29340 3.12807 2.74267
# Velocity P-wave (km/s) = 4.75845 7.57874 6.32772
#
# Compressibility (1/GPa) = 0.03863217
#
# Stress axis : x y z
#
# Youngs Moduli (GPa) = 26.94525 17.86451 10.07799
#
# Poissons Ratio (x) = 0.56206 0.08355
# Poissons Ratio (y) = 0.84777 0.37378
# Poissons Ratio (z) = 0.22337 0.66258
#
# Static dielectric constant tensor:
#      x y z
#    x 1.554510 0.000000 0.000000 
#    y 0.000000 1.539610 0.000000 
#    z 0.000000 0.000000 1.552280 
# 
# From -- ./inp_files/16298.got.cif
#   From: 2010.05.17/outbox.cif.g08.bks.cpg/sg65_9_cif.got.tgz:16298.got - 2010.06.03 17:01:31.
