data_PCOD9488610
_publ_section_title
;
Structure prediction by ZEFSAII (Michael W. Deem and Ramdas Pophale) SiO2 
 PCOD9488610
Probable space group: C M M M
;
_chemical_formula_sum "Si O2"
_cell_formula_units_Z 80
_cell_length_a 8.846332
_cell_length_b 14.918541
_cell_length_c 27.721605
_cell_angle_alpha 90.000000
_cell_angle_beta 90.000000
_cell_angle_gamma 90.000000
_cell_volume 3658.541262
_symmetry_space_group_name_H-M "C M M M"
_symmetry_group_IT_number 65
_symmetry_cell_setting 'orthorhombic'
loop_
_space_group_symop_operation_xyz
x,y,z
-x,-y,z
x,-y,-z
-x,y,-z
-x,-y,-z
x,y,-z
-x,y,z
x,-y,z
1/2+x,1/2+y,z
1/2-x,1/2-y,z
1/2+x,1/2-y,-z
1/2-x,1/2+y,-z
1/2-x,1/2-y,-z
1/2+x,1/2+y,-z
1/2-x,1/2+y,z
1/2+x,1/2-y,z
loop_
_atom_site_type_symbol
_atom_site_label
_atom_site_fract_x
_atom_site_fract_y
_atom_site_fract_z
Si Si1 0.821054 0.348833 0.252868
Si Si2 0.333408 0.605849 0.649195
Si Si3 0.182562 0.850501 0.051922
Si Si4 0.681995 0.648799 0.156571
Si Si5 0.324083 0.109525 0.553001
O O1 0.750000 0.250000 0.253549
O O2 0.773090 0.386044 0.304571
O O3 0.749370 0.393490 0.205104
O O4 0.000000 0.346817 0.247675
O O5 0.500000 0.644275 0.659984
O O6 0.349212 0.500000 0.641198
O O7 0.266391 0.642711 0.599413
O O8 0.250000 0.750000 0.051706
O O9 0.223012 0.891432 0.104044
O O10 0.000000 0.844963 0.052133
O O11 0.227021 0.891683 0.000000
O O12 0.500000 0.652132 0.160778
O O13 0.750000 0.750000 0.154954
O O14 0.266069 0.136884 0.500000
O O15 0.500000 0.135104 0.557017
O O16 0.321187 0.000000 0.553579
#
# Coordination Sequence:
#
# PCOD9488610 Si02
#       5
#    16  16  16  16  16
#     4  11  21  33  49  67  92 125 161 196 232 278
#     4  10  20  33  50  73  99 124 154 193 233 273
#     4   8  13  20  31  49  74 105 139 176 219 265
#     4   9  15  24  38  56  81 112 148 186 224 269
#     4   8  14  26  45  69  96 124 153 185 223 268
#
# _framework density 21.86664
#
# number of rings (size 3 to 8) (size 9 to 14) (size 15 to 20)
#    0.000    2.800    0.000    4.800    0.000    2.400 
#    0.000    2.000    0.000    0.600    0.000    0.000 
#    0.000    0.800    0.000    9.200    0.000    6.000 
#
# Total GULP energy -222905.836732 kJ/mol
# GULP energy per Si atom -5572.645918 kJ/mol
# Density = 2.181687 g / cm^3
# Si number density = 21.866640 Si / 1000 Ang^3
#
#
#
# Elastic Constant Matrix: (Units=GPa)
#
#
# Indices 1 2 3 4 5 6 
#
# 1 109.9107 6.2247 80.1717 0.0000 0.0000 0.0000
# 2 6.2247 46.2584 13.1489 0.0000 0.0000 0.0000
# 3 80.1717 13.1489 241.8061 0.0000 0.0000 0.0000
# 4 0.0000 0.0000 0.0000 42.1546 0.0000 0.0000
# 5 0.0000 0.0000 0.0000 0.0000 -2.6423 0.0000
# 6 0.0000 0.0000 0.0000 0.0000 0.0000 4.6982
#
#
#
# Elastic Compliance Matrix: (Units=1/GPa)
#
#
# Indices 1 2 3 4 5 6 
#
# 1 0.012012 -0.000492 -0.003956 0.000000 0.000000 0.000000
# 2 -0.000492 0.021977 -0.001032 0.000000 0.000000 0.000000
# 3 -0.003956 -0.001032 0.005503 0.000000 0.000000 0.000000
# 4 0.000000 0.000000 0.000000 0.023722 0.000000 0.000000
# 5 0.000000 0.000000 0.000000 0.000000 -0.378462 0.000000
# 6 0.000000 0.000000 0.000000 0.000000 0.000000 0.212846
#
#
# Mechanical properties :
#
#
# Convention : Reuss Voigt Hill
#
# Bulk Modulus (GPa) = 35.04744 66.34065 50.69404
# Shear Modulus (GPa) = -61.02664 28.73744 -16.14460
#
# Velocity S-wave (km/s) = -5.28859 3.62914 -2.72015
# Velocity P-wave (km/s) = 4.60756 6.92571 3.65622
#
# Compressibility (1/GPa) = 0.02853276
#
# Stress axis : x y z
#
# Youngs Moduli (GPa) = 83.25313 45.50162 181.71250
#
# Poissons Ratio (x) = 0.02238 0.71881
# Poissons Ratio (y) = 0.04095 0.18752
# Poissons Ratio (z) = 0.32933 0.04696
#
# Static dielectric constant tensor:
#      x y z
#    x 1.760740 0.000000 0.000000 
#    y 0.000000 1.885470 0.000000 
#    z 0.000000 0.000000 1.887480 
# 
# From -- ./inp_files/72772.got.cif
#   From: 2010.05.17/outbox.cif.g08.bks.cpg/sg65_37_cif.got.tgz:72772.got - 2010.06.03 17:01:31.
