data_PCOD9488535
_publ_section_title
;
Structure prediction by ZEFSAII (Michael W. Deem and Ramdas Pophale) SiO2 
 PCOD9488535
Probable space group: C M M M
;
_chemical_formula_sum "Si O2"
_cell_formula_units_Z 80
_cell_length_a 28.094494
_cell_length_b 18.187267
_cell_length_c 9.130096
_cell_angle_alpha 90.000000
_cell_angle_beta 90.000000
_cell_angle_gamma 90.000000
_cell_volume 4665.132693
_symmetry_space_group_name_H-M "C M M M"
_symmetry_group_IT_number 65
_symmetry_cell_setting 'orthorhombic'
loop_
_space_group_symop_operation_xyz
x,y,z
-x,-y,z
x,-y,-z
-x,y,-z
-x,-y,-z
x,y,-z
-x,y,z
x,-y,z
1/2+x,1/2+y,z
1/2-x,1/2-y,z
1/2+x,1/2-y,-z
1/2-x,1/2+y,-z
1/2-x,1/2-y,-z
1/2+x,1/2+y,-z
1/2-x,1/2+y,z
1/2+x,1/2-y,z
loop_
_atom_site_type_symbol
_atom_site_label
_atom_site_fract_x
_atom_site_fract_y
_atom_site_fract_z
Si Si1 0.442279 0.581908 0.331473
Si Si2 0.443766 0.731406 0.826809
Si Si3 0.358048 0.204148 0.326230
Si Si4 0.708389 0.311731 0.833967
Si Si5 0.209693 0.585662 0.823896
O O1 0.427392 0.596098 0.500000
O O2 0.500000 0.579205 0.332486
O O3 0.425623 0.500000 0.288089
O O4 0.429990 0.649434 0.227609
O O5 0.500000 0.741393 0.796042
O O6 0.410477 0.787986 0.740983
O O7 0.436367 0.738030 0.000000
O O8 0.358871 0.199204 0.500000
O O9 0.330158 0.277716 0.273660
O O10 0.328727 0.136336 0.257375
O O11 0.750000 0.250000 0.840238
O O12 0.737299 0.384157 0.788183
O O13 0.689373 0.319680 0.000000
O O14 0.204536 0.500000 0.789993
O O15 0.204329 0.596027 0.000000
#
# Coordination Sequence:
#
# PCOD9488535 Si02
#       5
#    16  16  16  16  16
#     4   8  14  26  44  65  90 119 151 193 247 299
#     4  10  20  33  50  71  96 132 179 223 257 295
#     4  11  21  32  50  75 104 137 169 206 254 303
#     4   8  15  30  51  73  98 128 161 197 239 292
#     4   9  18  34  56  79 103 132 165 204 251 301
#
# _framework density 17.148492999999998
#
# number of rings (size 3 to 8) (size 9 to 14) (size 15 to 20)
#    0.000    2.800    0.000    4.200    0.000    5.600 
#    0.000    3.000    0.000    4.200    0.000    4.200 
#    0.000    0.000    0.000    0.000    0.000    0.000 
#
# Total GULP energy -222871.209862 kJ/mol
# GULP energy per Si atom -5571.780247 kJ/mol
# Density = 1.710946 g / cm^3
# Si number density = 17.148493 Si / 1000 Ang^3
#
#
#
# Elastic Constant Matrix: (Units=GPa)
#
#
# Indices 1 2 3 4 5 6 
#
# 1 70.9559 48.7368 50.7839 0.0000 0.0000 0.0000
# 2 48.7368 102.3275 56.2076 0.0000 0.0000 0.0000
# 3 50.7839 56.2076 86.2332 0.0000 0.0000 0.0000
# 4 0.0000 0.0000 0.0000 17.0503 0.0000 0.0000
# 5 0.0000 0.0000 0.0000 0.0000 19.3617 0.0000
# 6 0.0000 0.0000 0.0000 0.0000 0.0000 19.7029
#
#
#
# Elastic Compliance Matrix: (Units=1/GPa)
#
#
# Indices 1 2 3 4 5 6 
#
# 1 0.026790 -0.006376 -0.011621 0.000000 0.000000 0.000000
# 2 -0.006376 0.016740 -0.007156 0.000000 0.000000 0.000000
# 3 -0.011621 -0.007156 0.023105 0.000000 0.000000 0.000000
# 4 0.000000 0.000000 0.000000 0.058650 0.000000 0.000000
# 5 0.000000 0.000000 0.000000 0.000000 0.051648 0.000000
# 6 0.000000 0.000000 0.000000 0.000000 0.000000 0.050754
#
#
# Mechanical properties :
#
#
# Convention : Reuss Voigt Hill
#
# Bulk Modulus (GPa) = 61.24466 63.44144 62.34305
# Shear Modulus (GPa) = 17.64055 18.14220 17.89137
#
# Velocity S-wave (km/s) = 3.21080 3.25614 3.23355
# Velocity P-wave (km/s) = 7.03829 7.15627 7.09753
#
# Compressibility (1/GPa) = 0.01632796
#
# Stress axis : x y z
#
# Youngs Moduli (GPa) = 37.32711 59.73543 43.28106
#
# Poissons Ratio (x) = 0.38090 0.50296
# Poissons Ratio (y) = 0.23801 0.30974
# Poissons Ratio (z) = 0.43377 0.42749
#
# Static dielectric constant tensor:
#      x y z
#    x 1.603340 0.000000 0.000000 
#    y 0.000000 1.590980 0.000000 
#    z 0.000000 0.000000 1.571250 
# 
# From -- ./inp_files/9672.got.cif
#   From: 2010.05.17/outbox.cif.g08.bks.cpg/sg65_5_cif.got.tgz:9672.got - 2010.06.03 17:01:31.
