data_PCOD9488247
_publ_section_title
;
Structure prediction by ZEFSAII (Michael W. Deem and Ramdas Pophale) SiO2 
 PCOD9488247
Probable space group: C M M M
;
_chemical_formula_sum "Si O2"
_cell_formula_units_Z 104
_cell_length_a 17.789721
_cell_length_b 21.420661
_cell_length_c 15.865467
_cell_angle_alpha 90.000000
_cell_angle_beta 90.000000
_cell_angle_gamma 90.000000
_cell_volume 6045.815160
_symmetry_space_group_name_H-M "C M M M"
_symmetry_group_IT_number 65
_symmetry_cell_setting 'orthorhombic'
loop_
_space_group_symop_operation_xyz
x,y,z
-x,-y,z
x,-y,-z
-x,y,-z
-x,-y,-z
x,y,-z
-x,y,z
x,-y,z
1/2+x,1/2+y,z
1/2-x,1/2-y,z
1/2+x,1/2-y,-z
1/2-x,1/2+y,-z
1/2-x,1/2-y,-z
1/2+x,1/2+y,-z
1/2-x,1/2+y,z
1/2+x,1/2-y,z
loop_
_atom_site_type_symbol
_atom_site_label
_atom_site_fract_x
_atom_site_fract_y
_atom_site_fract_z
Si Si1 0.216992 0.569769 0.597722
Si Si2 0.410647 0.107846 0.091065
Si Si3 0.839476 0.255493 0.906992
Si Si4 0.000000 0.929023 0.601833
Si Si5 0.086766 0.598242 0.725092
Si Si6 0.642751 0.656852 0.600682
Si Si7 0.412028 0.750911 0.733148
O O1 0.194831 0.578125 0.500000
O O2 0.250586 0.500000 0.605071
O O3 0.145514 0.574521 0.657529
O O4 0.279444 0.621353 0.617842
O O5 0.500000 0.123787 0.095267
O O6 0.364317 0.172036 0.090448
O O7 0.394911 0.075387 0.179891
O O8 0.398352 0.076425 0.000000
O O9 0.750000 0.250000 0.897209
O O10 0.880072 0.229670 0.823928
O O11 0.859813 0.229165 0.000000
O O12 0.925520 0.890047 0.623601
O O13 0.000000 0.932836 0.500000
O O14 0.000000 0.000000 0.634466
O O15 0.093235 0.673920 0.727533
O O16 0.000000 0.582494 0.705926
O O17 0.638248 0.669941 0.500000
O O18 0.632028 0.717750 0.657511
O O19 0.500000 0.735172 0.726727
#
# Coordination Sequence:
#
# PCOD9488247 Si02
#       7
#    16  16  16   8  16  16  16
#     4  10  22  38  53  70  93 127 174 217 249 288
#     4   8  14  27  46  67  94 127 159 192 236 288
#     4   9  17  27  43  69 100 135 169 200 235 284
#     4   9  16  30  52  72  93 127 170 214 253 286
#     4   9  19  33  51  75 101 132 163 199 248 300
#     4  10  20  33  50  73 101 133 166 207 254 298
#     4  10  20  32  49  76 108 136 162 197 248 309
#
# _framework density 17.201982000000001
#
# number of rings (size 3 to 8) (size 9 to 14) (size 15 to 20)
#    0.000    2.692    0.769    1.846    4.308    4.000 
#    0.000    3.846    0.000    0.462    0.000    2.154 
#    0.000    2.462    0.000    0.000    0.000    0.000 
#
# Total GULP energy -289669.469090 kJ/mol
# GULP energy per Si atom -5570.566713 kJ/mol
# Density = 1.716283 g / cm^3
# Si number density = 17.201982 Si / 1000 Ang^3
#
#
#
# Elastic Constant Matrix: (Units=GPa)
#
#
# Indices 1 2 3 4 5 6 
#
# 1 67.4282 18.6717 54.7919 0.0000 0.0000 0.0000
# 2 18.6717 51.4970 35.2441 0.0000 0.0000 0.0000
# 3 54.7919 35.2441 96.8815 0.0000 0.0000 0.0000
# 4 0.0000 0.0000 0.0000 -9.5494 0.0000 0.0000
# 5 0.0000 0.0000 0.0000 0.0000 29.1215 0.0000
# 6 0.0000 0.0000 0.0000 0.0000 0.0000 11.6095
#
#
#
# Elastic Compliance Matrix: (Units=1/GPa)
#
#
# Indices 1 2 3 4 5 6 
#
# 1 0.027473 0.000896 -0.015863 0.000000 0.000000 0.000000
# 2 0.000896 0.025885 -0.009923 0.000000 0.000000 0.000000
# 3 -0.015863 -0.009923 0.022903 0.000000 0.000000 0.000000
# 4 0.000000 0.000000 0.000000 -0.104719 0.000000 0.000000
# 5 0.000000 0.000000 0.000000 0.000000 0.034339 0.000000
# 6 0.000000 0.000000 0.000000 0.000000 0.000000 0.086136
#
#
# Mechanical properties :
#
#
# Convention : Reuss Voigt Hill
#
# Bulk Modulus (GPa) = 37.76457 48.13579 42.95018
# Shear Modulus (GPa) = 33.19467 13.37626 23.28547
#
# Velocity S-wave (km/s) = 4.39760 2.79157 3.68319
# Velocity P-wave (km/s) = 6.91278 6.19951 6.56584
#
# Compressibility (1/GPa) = 0.02647984
#
# Stress axis : x y z
#
# Youngs Moduli (GPa) = 36.39919 38.63207 43.66146
#
# Poissons Ratio (x) = -0.03460 0.69262
# Poissons Ratio (y) = -0.03260 0.43326
# Poissons Ratio (z) = 0.57742 0.38335
#
# Static dielectric constant tensor:
#      x y z
#    x 1.561810 0.000000 0.000000 
#    y 0.000000 1.589630 0.000000 
#    z 0.000000 0.000000 1.614180 
# 
# From -- ./inp_files/43074.got.cif
#   From: 2010.05.17/outbox.cif.g08.bks.cpg/sg65_22_cif.got.tgz:43074.got - 2010.06.03 17:01:31.
