data_PCOD9488987
_publ_section_title
;
Structure prediction by ZEFSAII (Michael W. Deem and Ramdas Pophale) SiO2 
 PCOD9488987
Probable space group: C M M M
;
_chemical_formula_sum "Si O2"
_cell_formula_units_Z 82
_cell_length_a 21.926817
_cell_length_b 23.946609
_cell_length_c 7.578126
_cell_angle_alpha 90.000000
_cell_angle_beta 90.000000
_cell_angle_gamma 90.000000
_cell_volume 3979.068696
_symmetry_space_group_name_H-M "C M M M"
_symmetry_group_IT_number 65
_symmetry_cell_setting 'orthorhombic'
loop_
_space_group_symop_operation_xyz
x,y,z
-x,-y,z
x,-y,-z
-x,y,-z
-x,-y,-z
x,y,-z
-x,y,z
x,-y,z
1/2+x,1/2+y,z
1/2-x,1/2-y,z
1/2+x,1/2-y,-z
1/2-x,1/2+y,-z
1/2-x,1/2-y,-z
1/2+x,1/2+y,-z
1/2-x,1/2+y,z
1/2+x,1/2-y,z
loop_
_atom_site_type_symbol
_atom_site_label
_atom_site_fract_x
_atom_site_fract_y
_atom_site_fract_z
Si Si1 0.071386 0.500000 0.782881
Si Si2 0.615959 0.670300 0.288530
Si Si3 0.500000 0.595133 0.803797
Si Si4 0.860226 0.609819 0.200240
Si Si5 0.930198 0.286668 0.710270
Si Si6 0.500000 0.500000 0.500000
Si Si7 0.749366 0.814478 0.789617
O O1 0.109312 0.554390 0.722733
O O2 0.000000 0.500000 0.728028
O O3 0.070038 0.500000 0.000000
O O4 0.608959 0.670186 0.500000
O O5 0.561135 0.632801 0.216551
O O6 0.608236 0.734134 0.225241
O O7 0.685418 0.656519 0.242536
O O8 0.500000 0.548838 0.653633
O O9 0.500000 0.571116 0.000000
O O10 0.912864 0.656250 0.198889
O O11 0.803817 0.644795 0.281707
O O12 0.841681 0.595093 0.000000
O O13 0.920823 0.293879 0.500000
O O14 0.000000 0.271590 0.738343
O O15 0.750000 0.750000 0.719836
O O16 0.738992 0.809811 0.000000
#
# Coordination Sequence:
#
# PCOD9488987 Si02
#       7
#     8  16   8  16  16   2  16
#     4   9  18  34  56  81 111 154 208 259 313 370
#     4  11  21  38  61  91 130 164 208 267 326 394
#     4  12  25  45  75 102 133 176 217 274 337 395
#     4  10  20  35  55  80 116 159 207 264 317 385
#     4  10  20  33  53  83 121 155 195 255 327 387
#     4  12  26  52  72  98 136 164 218 262 322 414
#     4  10  20  34  53  86 125 161 211 267 326 400
#
# _framework density 20.607837
#
# number of rings (size 3 to 8) (size 9 to 14) (size 15 to 20)
#    0.000    1.659    3.902    1.317    0.000    3.122 
#    0.000    1.463    0.000    4.098    0.000    0.000 
#    0.000    0.000    0.000    0.000    0.000    0.000 
#
# Total GULP energy -228536.507819 kJ/mol
# GULP energy per Si atom -5574.061166 kJ/mol
# Density = 2.056093 g / cm^3
# Si number density = 20.607837 Si / 1000 Ang^3
#
#
#
# Elastic Constant Matrix: (Units=GPa)
#
#
# Indices 1 2 3 4 5 6 
#
# 1 130.3725 59.0230 13.7165 0.0000 0.0000 0.0000
# 2 59.0230 148.7081 23.0879 0.0000 0.0000 0.0000
# 3 13.7165 23.0879 72.1029 0.0000 0.0000 0.0000
# 4 0.0000 0.0000 0.0000 15.7179 0.0000 0.0000
# 5 0.0000 0.0000 0.0000 0.0000 16.0373 0.0000
# 6 0.0000 0.0000 0.0000 0.0000 0.0000 24.1705
#
#
#
# Elastic Compliance Matrix: (Units=1/GPa)
#
#
# Indices 1 2 3 4 5 6 
#
# 1 0.009377 -0.003625 -0.000623 0.000000 0.000000 0.000000
# 2 -0.003625 0.008478 -0.002025 0.000000 0.000000 0.000000
# 3 -0.000623 -0.002025 0.014636 0.000000 0.000000 0.000000
# 4 0.000000 0.000000 0.000000 0.063622 0.000000 0.000000
# 5 0.000000 0.000000 0.000000 0.000000 0.062354 0.000000
# 6 0.000000 0.000000 0.000000 0.000000 0.000000 0.041373
#
#
# Mechanical properties :
#
#
# Convention : Reuss Voigt Hill
#
# Bulk Modulus (GPa) = 50.13909 60.31537 55.22723
# Shear Modulus (GPa) = 22.82745 28.20887 25.51816
#
# Velocity S-wave (km/s) = 3.33183 3.70380 3.52273
# Velocity P-wave (km/s) = 6.25975 6.90091 6.58813
#
# Compressibility (1/GPa) = 0.01994452
#
# Stress axis : x y z
#
# Youngs Moduli (GPa) = 106.64349 117.95528 68.32453
#
# Poissons Ratio (x) = 0.42759 0.04257
# Poissons Ratio (y) = 0.38659 0.13836
# Poissons Ratio (z) = 0.06645 0.23886
#
# Static dielectric constant tensor:
#      x y z
#    x 1.749470 0.000000 0.000000 
#    y 0.000000 1.714550 0.000000 
#    z 0.000000 0.000000 1.769770 
# 
# From -- ./inp_files/11636.got.cif
#   From: 2010.05.17/outbox.cif.g08.bks.cpg/sg65_6_cif.got.tgz:11636.got - 2010.06.03 17:01:31.
