data_PCOD9488802
_publ_section_title
;
Structure prediction by ZEFSAII (Michael W. Deem and Ramdas Pophale) SiO2 
 PCOD9488802
Probable space group: C M M M
;
_chemical_formula_sum "Si O2"
_cell_formula_units_Z 104
_cell_length_a 34.015798
_cell_length_b 19.142954
_cell_length_c 9.010158
_cell_angle_alpha 90.000000
_cell_angle_beta 90.000000
_cell_angle_gamma 90.000000
_cell_volume 5867.080220
_symmetry_space_group_name_H-M "C M M M"
_symmetry_group_IT_number 65
_symmetry_cell_setting 'orthorhombic'
loop_
_space_group_symop_operation_xyz
x,y,z
-x,-y,z
x,-y,-z
-x,y,-z
-x,-y,-z
x,y,-z
-x,y,z
x,-y,z
1/2+x,1/2+y,z
1/2-x,1/2-y,z
1/2+x,1/2-y,-z
1/2-x,1/2+y,-z
1/2-x,1/2-y,-z
1/2+x,1/2+y,-z
1/2-x,1/2+y,z
1/2+x,1/2-y,z
loop_
_atom_site_type_symbol
_atom_site_label
_atom_site_fract_x
_atom_site_fract_y
_atom_site_fract_z
Si Si1 0.184210 0.415549 0.825234
Si Si2 0.229187 0.915096 0.173023
Si Si3 0.500000 0.416524 0.328223
Si Si4 0.953733 0.702563 0.321418
Si Si5 0.103945 0.580229 0.678159
Si Si6 0.648458 0.416249 0.675488
Si Si7 0.074225 0.843800 0.822743
O O1 0.184451 0.500000 0.809608
O O2 0.227518 0.390918 0.775078
O O3 0.145329 0.391638 0.741045
O O4 0.180863 0.400035 0.000000
O O5 0.191660 0.894011 0.268547
O O6 0.230120 0.000000 0.176268
O O7 0.224144 0.895226 0.000000
O O8 0.500000 0.500000 0.328062
O O9 0.500000 0.391977 0.500000
O O10 0.461540 0.388333 0.246324
O O11 0.950336 0.712294 0.500000
O O12 0.931811 0.630757 0.281573
O O13 0.932766 0.766051 0.238389
O O14 0.000000 0.701673 0.285091
O O15 0.106677 0.578919 0.500000
O O16 0.098194 0.500000 0.729235
O O17 0.644209 0.404389 0.500000
O O18 0.644569 0.500000 0.701610
O O19 0.614728 0.376100 0.763538
O O20 0.072810 0.845482 0.000000
#
# Coordination Sequence:
#
# PCOD9488802 Si02
#       7
#    16  16   8  16  16  16  16
#     4   8  14  26  46  73 106 142 174 209 260 315
#     4   8  14  26  45  71 104 140 177 215 257 309
#     4  11  23  39  59  81 106 137 174 219 269 316
#     4  10  21  38  58  76 103 143 179 217 269 324
#     4   9  18  32  53  83 111 136 174 220 263 314
#     4  10  20  33  51  77 108 142 179 219 266 315
#     4  12  24  37  55  78 105 139 180 223 264 313
#
# _framework density 17.726023000000001
#
# number of rings (size 3 to 8) (size 9 to 14) (size 15 to 20)
#    0.000    2.385    0.769    3.462    0.000    4.923 
#    0.000    4.615    0.000    0.923    0.000    9.692 
#    0.000    0.000    0.000    0.000    0.000    0.000 
#
# Total GULP energy -289975.938141 kJ/mol
# GULP energy per Si atom -5576.460349 kJ/mol
# Density = 1.768568 g / cm^3
# Si number density = 17.726023 Si / 1000 Ang^3
#
#
#
# Elastic Constant Matrix: (Units=GPa)
#
#
# Indices 1 2 3 4 5 6 
#
# 1 109.1813 48.7214 54.8451 0.0000 0.0000 0.0000
# 2 48.7214 58.5075 38.4783 0.0000 0.0000 0.0000
# 3 54.8451 38.4783 66.8747 0.0000 0.0000 0.0000
# 4 0.0000 0.0000 0.0000 10.8520 0.0000 0.0000
# 5 0.0000 0.0000 0.0000 0.0000 40.5643 0.0000
# 6 0.0000 0.0000 0.0000 0.0000 0.0000 -200.5093
#
#
#
# Elastic Compliance Matrix: (Units=1/GPa)
#
#
# Indices 1 2 3 4 5 6 
#
# 1 0.017825 -0.008413 -0.009778 0.000000 0.000000 0.000000
# 2 -0.008413 0.031467 -0.011206 0.000000 0.000000 0.000000
# 3 -0.009778 -0.011206 0.029420 0.000000 0.000000 0.000000
# 4 0.000000 0.000000 0.000000 0.092149 0.000000 0.000000
# 5 0.000000 0.000000 0.000000 0.000000 0.024652 0.000000
# 6 0.000000 0.000000 0.000000 0.000000 0.000000 -0.004987
#
#
# Mechanical properties :
#
#
# Convention : Reuss Voigt Hill
#
# Bulk Modulus (GPa) = 50.20434 57.62814 53.91624
# Shear Modulus (GPa) = 19.53426 -23.65070 -2.05822
#
# Velocity S-wave (km/s) = 3.32326 -3.65668 -1.07873
# Velocity P-wave (km/s) = 6.56576 3.84091 5.37875
#
# Compressibility (1/GPa) = 0.01991860
#
# Stress axis : x y z
#
# Youngs Moduli (GPa) = 56.10054 31.77887 33.99023
#
# Poissons Ratio (x) = 0.26736 0.33236
# Poissons Ratio (y) = 0.47197 0.38090
# Poissons Ratio (z) = 0.54855 0.35612
#
# Static dielectric constant tensor:
#      x y z
#    x 1.608540 0.000000 0.000000 
#    y 0.000000 1.605510 0.000000 
#    z 0.000000 0.000000 1.590740 
# 
# From -- ./inp_files/18657.got.cif
#   From: 2010.05.17/outbox.cif.g08.bks.cpg/sg65_10_cif.got.tgz:18657.got - 2010.06.03 17:01:31.
