data_PCOD9488770
_publ_section_title
;
Structure prediction by ZEFSAII (Michael W. Deem and Ramdas Pophale) SiO2 
 PCOD9488770
Probable space group: C M M M
;
_chemical_formula_sum "Si O2"
_cell_formula_units_Z 84
_cell_length_a 13.558074
_cell_length_b 25.590930
_cell_length_c 12.346446
_cell_angle_alpha 90.000000
_cell_angle_beta 90.000000
_cell_angle_gamma 90.000000
_cell_volume 4283.768866
_symmetry_space_group_name_H-M "C M M M"
_symmetry_group_IT_number 65
_symmetry_cell_setting 'orthorhombic'
loop_
_space_group_symop_operation_xyz
x,y,z
-x,-y,z
x,-y,-z
-x,y,-z
-x,-y,-z
x,y,-z
-x,y,z
x,-y,z
1/2+x,1/2+y,z
1/2-x,1/2-y,z
1/2+x,1/2-y,-z
1/2-x,1/2+y,-z
1/2-x,1/2-y,-z
1/2+x,1/2+y,-z
1/2-x,1/2+y,z
1/2+x,1/2-y,z
loop_
_atom_site_type_symbol
_atom_site_label
_atom_site_fract_x
_atom_site_fract_y
_atom_site_fract_z
Si Si1 0.738484 0.087626 0.319377
Si Si2 0.619039 0.225586 0.874534
Si Si3 0.618632 0.678166 0.274675
Si Si4 0.119049 0.648742 0.500000
Si Si5 0.881738 0.395095 0.872886
Si Si6 0.784190 0.000000 0.500000
Si Si7 0.381447 0.731487 0.500000
O O1 0.826095 0.123313 0.271610
O O2 0.663031 0.121342 0.393783
O O3 0.675522 0.070240 0.214540
O O4 0.778830 0.045163 0.403526
O O5 0.500000 0.225820 0.864022
O O6 0.651808 0.276192 0.807598
O O7 0.645392 0.165804 0.845663
O O8 0.643154 0.232933 0.000000
O O9 0.500000 0.671809 0.264988
O O10 0.643986 0.701044 0.392291
O O11 0.151572 0.708962 0.500000
O O12 0.000000 0.645327 0.500000
O O13 0.000000 0.400401 0.861988
O O14 0.858000 0.403838 0.000000
O O15 0.500000 0.734822 0.500000
#
# Coordination Sequence:
#
# PCOD9488770 Si02
#       7
#    16  16  16   8  16   4   8
#     4  11  22  38  57  74 100 139 183 230 279 325
#     4   8  15  29  50  81 122 155 174 201 244 305
#     4  10  20  33  51  78 110 142 178 219 262 315
#     4  10  20  33  51  76 106 139 171 207 260 329
#     4   9  18  34  57  86 119 150 176 205 251 319
#     4  10  26  46  56  74 102 130 182 252 300 320
#     4   9  17  29  45  71 108 139 167 211 260 311
#
# _framework density 19.608902
#
# number of rings (size 3 to 8) (size 9 to 14) (size 15 to 20)
#    0.000    2.476    0.000    4.000    0.000    7.619 
#    0.000   11.905    0.000    1.143    0.000    0.000 
#    0.000    4.571    0.000    0.000    0.000    0.000 
#
# Total GULP energy -233812.003656 kJ/mol
# GULP energy per Si atom -5566.952468 kJ/mol
# Density = 1.956427 g / cm^3
# Si number density = 19.608902 Si / 1000 Ang^3
#
#
#
# Elastic Constant Matrix: (Units=GPa)
#
#
# Indices 1 2 3 4 5 6 
#
# 1 74.3578 11.1394 8.7044 0.0000 0.0000 0.0000
# 2 11.1394 47.8283 23.7715 0.0000 0.0000 0.0000
# 3 8.7044 23.7715 109.1617 0.0000 0.0000 0.0000
# 4 0.0000 0.0000 0.0000 49.3208 0.0000 0.0000
# 5 0.0000 0.0000 0.0000 0.0000 -20.4462 0.0000
# 6 0.0000 0.0000 0.0000 0.0000 0.0000 -6.9110
#
#
#
# Elastic Compliance Matrix: (Units=1/GPa)
#
#
# Indices 1 2 3 4 5 6 
#
# 1 0.013955 -0.003024 -0.000454 0.000000 0.000000 0.000000
# 2 -0.003024 0.024101 -0.005007 0.000000 0.000000 0.000000
# 3 -0.000454 -0.005007 0.010287 0.000000 0.000000 0.000000
# 4 0.000000 0.000000 0.000000 0.020275 0.000000 0.000000
# 5 0.000000 0.000000 0.000000 0.000000 -0.048909 0.000000
# 6 0.000000 0.000000 0.000000 0.000000 0.000000 -0.144698
#
#
# Mechanical properties :
#
#
# Convention : Reuss Voigt Hill
#
# Bulk Modulus (GPa) = 31.87580 35.39760 33.63670
# Shear Modulus (GPa) = -51.25091 16.90824 -17.17134
#
# Velocity S-wave (km/s) = -5.11794 2.93964 -2.96242
# Velocity P-wave (km/s) = 4.31663 5.44178 2.34303
#
# Compressibility (1/GPa) = 0.03137176
#
# Stress axis : x y z
#
# Youngs Moduli (GPa) = 71.66030 41.49171 97.20699
#
# Poissons Ratio (x) = 0.12549 0.04414
# Poissons Ratio (y) = 0.21673 0.48674
# Poissons Ratio (z) = 0.03254 0.20776
#
# Static dielectric constant tensor:
#      x y z
#    x 1.736640 0.000000 0.000000 
#    y 0.000000 1.673840 0.000000 
#    z 0.000000 0.000000 1.683610 
# 
# From -- ./inp_files/24870.got.cif
#   From: 2010.05.17/outbox.cif.g08.bks.cpg/sg65_13_cif.got.tgz:24870.got - 2010.06.03 17:01:31.
