data_PCOD9488918
_publ_section_title
;
Structure prediction by ZEFSAII (Michael W. Deem and Ramdas Pophale) SiO2 
 PCOD9488918
Probable space group: C M M M
;
_chemical_formula_sum "Si O2"
_cell_formula_units_Z 96
_cell_length_a 8.661436
_cell_length_b 29.569255
_cell_length_c 21.133697
_cell_angle_alpha 90.000000
_cell_angle_beta 90.000000
_cell_angle_gamma 90.000000
_cell_volume 5412.597839
_symmetry_space_group_name_H-M "C M M M"
_symmetry_group_IT_number 65
_symmetry_cell_setting 'orthorhombic'
loop_
_space_group_symop_operation_xyz
x,y,z
-x,-y,z
x,-y,-z
-x,y,-z
-x,-y,-z
x,y,-z
-x,y,z
x,-y,z
1/2+x,1/2+y,z
1/2-x,1/2-y,z
1/2+x,1/2-y,-z
1/2-x,1/2+y,-z
1/2-x,1/2-y,-z
1/2+x,1/2+y,-z
1/2-x,1/2+y,z
1/2+x,1/2-y,z
loop_
_atom_site_type_symbol
_atom_site_label
_atom_site_fract_x
_atom_site_fract_y
_atom_site_fract_z
Si Si1 0.684222 0.199433 0.691462
Si Si2 0.186688 0.147199 0.429350
Si Si3 0.813733 0.799891 0.071693
Si Si4 0.686290 0.449909 0.619520
Si Si5 0.315442 0.050960 0.761694
Si Si6 0.685215 0.641812 0.808733
O O1 0.500000 0.200556 0.693821
O O2 0.750000 0.250000 0.695895
O O3 0.739318 0.176275 0.626342
O O4 0.747101 0.169723 0.749700
O O5 0.230404 0.162027 0.500000
O O6 0.230092 0.094351 0.419879
O O7 0.000000 0.150143 0.423825
O O8 0.750000 0.750000 0.085883
O O9 0.764969 0.834573 0.125955
O O10 0.000000 0.797847 0.072474
O O11 0.765072 0.811943 0.000000
O O12 0.500000 0.449742 0.623711
O O13 0.732630 0.500000 0.595578
O O14 0.753737 0.444493 0.689912
O O15 0.500000 0.055702 0.760873
O O16 0.241806 0.090566 0.802520
O O17 0.276380 0.000000 0.782932
O O18 0.500000 0.643191 0.804625
#
# Coordination Sequence:
#
# PCOD9488918 Si02
#       6
#    16  16  16  16  16  16
#     4  12  25  40  58  79 106 140 181 229 276 325
#     4  10  21  37  56  79 109 143 181 225 274 329
#     4   9  19  35  55  82 115 148 181 219 265 320
#     4   9  17  31  53  79 108 141 176 217 267 323
#     4  10  20  33  52  80 112 144 180 224 271 319
#     4  11  21  35  58  85 113 144 181 223 269 322
#
# _framework density 17.736398999999999
#
# number of rings (size 3 to 8) (size 9 to 14) (size 15 to 20)
#    0.000    1.833    1.667    3.000    0.000    4.667 
#    0.000    1.667    0.000    0.500    0.000    7.000 
#    0.000    0.000    0.000    0.000    0.000    0.000 
#
# Total GULP energy -268006.905649 kJ/mol
# GULP energy per Si atom -5583.477201 kJ/mol
# Density = 1.769603 g / cm^3
# Si number density = 17.736399 Si / 1000 Ang^3
#
#
#
# Elastic Constant Matrix: (Units=GPa)
#
#
# Indices 1 2 3 4 5 6 
#
# 1 31.9145 36.7976 26.6476 0.0000 0.0000 0.0000
# 2 36.7976 127.3234 72.1848 0.0000 0.0000 0.0000
# 3 26.6476 72.1848 106.5532 0.0000 0.0000 0.0000
# 4 0.0000 0.0000 0.0000 19.4736 0.0000 0.0000
# 5 0.0000 0.0000 0.0000 0.0000 8.4653 0.0000
# 6 0.0000 0.0000 0.0000 0.0000 0.0000 24.8289
#
#
#
# Elastic Compliance Matrix: (Units=1/GPa)
#
#
# Indices 1 2 3 4 5 6 
#
# 1 0.048147 -0.011509 -0.004244 0.000000 0.000000 0.000000
# 2 -0.011509 0.015503 -0.007624 0.000000 0.000000 0.000000
# 3 -0.004244 -0.007624 0.015611 0.000000 0.000000 0.000000
# 4 0.000000 0.000000 0.000000 0.051352 0.000000 0.000000
# 5 0.000000 0.000000 0.000000 0.000000 0.118130 0.000000
# 6 0.000000 0.000000 0.000000 0.000000 0.000000 0.040276
#
#
# Mechanical properties :
#
#
# Convention : Reuss Voigt Hill
#
# Bulk Modulus (GPa) = 30.76271 59.67235 45.21753
# Shear Modulus (GPa) = 14.42551 19.23096 16.82823
#
# Velocity S-wave (km/s) = 2.85498 3.29639 3.08360
# Velocity P-wave (km/s) = 5.31507 6.94300 6.18285
#
# Compressibility (1/GPa) = 0.03250689
#
# Stress axis : x y z
#
# Youngs Moduli (GPa) = 20.76960 64.50564 64.05569
#
# Poissons Ratio (x) = 0.74237 0.27188
# Poissons Ratio (y) = 0.23903 0.48836
# Poissons Ratio (z) = 0.08816 0.49180
#
# Static dielectric constant tensor:
#      x y z
#    x 1.600650 0.000000 0.000000 
#    y 0.000000 1.607440 0.000000 
#    z 0.000000 0.000000 1.588580 
# 
# From -- ./inp_files/60236.got.cif
#   From: 2010.05.17/outbox.cif.g08.bks.cpg/sg65_31_cif.got.tgz:60236.got - 2010.06.03 17:01:31.
