data_PCOD9488961
_publ_section_title
;
Structure prediction by ZEFSAII (Michael W. Deem and Ramdas Pophale) SiO2 
 PCOD9488961
Probable space group: C M M M
;
_chemical_formula_sum "Si O2"
_cell_formula_units_Z 96
_cell_length_a 8.716254
_cell_length_b 19.208211
_cell_length_c 32.058508
_cell_angle_alpha 90.000000
_cell_angle_beta 90.000000
_cell_angle_gamma 90.000000
_cell_volume 5367.352293
_symmetry_space_group_name_H-M "C M M M"
_symmetry_group_IT_number 65
_symmetry_cell_setting 'orthorhombic'
loop_
_space_group_symop_operation_xyz
x,y,z
-x,-y,z
x,-y,-z
-x,y,-z
-x,-y,-z
x,y,-z
-x,y,z
x,-y,z
1/2+x,1/2+y,z
1/2-x,1/2-y,z
1/2+x,1/2-y,-z
1/2-x,1/2+y,-z
1/2-x,1/2-y,-z
1/2+x,1/2+y,-z
1/2-x,1/2+y,z
1/2+x,1/2-y,z
loop_
_atom_site_type_symbol
_atom_site_label
_atom_site_fract_x
_atom_site_fract_y
_atom_site_fract_z
Si Si1 0.817019 0.328443 0.799324
Si Si2 0.315886 0.328442 0.286837
Si Si3 0.684959 0.326060 0.047519
Si Si4 0.814361 0.918971 0.125376
Si Si5 0.316761 0.672178 0.378746
Si Si6 0.184710 0.418476 0.453207
O O1 0.750000 0.250000 0.803892
O O2 0.756927 0.358799 0.755103
O O3 0.758785 0.375763 0.837005
O O4 0.000000 0.323922 0.798703
O O5 0.500000 0.326820 0.282469
O O6 0.250000 0.250000 0.288150
O O7 0.276678 0.357894 0.332621
O O8 0.500000 0.322080 0.047804
O O9 0.750000 0.250000 0.058364
O O10 0.730987 0.382477 0.081837
O O11 0.733587 0.342653 0.000000
O O12 0.000000 0.914733 0.128747
O O13 0.771130 0.000000 0.126419
O O14 0.500000 0.676786 0.380537
O O15 0.250000 0.750000 0.381904
O O16 0.255900 0.626129 0.416428
O O17 0.232415 0.396070 0.500000
O O18 0.224396 0.500000 0.448720
O O19 0.000000 0.413136 0.451301
#
# Coordination Sequence:
#
# PCOD9488961 Si02
#       6
#    16  16  16  16  16  16
#     4  11  21  34  55  79 103 134 174 215 255 304
#     4   9  17  31  51  76 104 133 168 210 257 306
#     4   9  18  33  54  79 104 133 172 214 255 303
#     4  10  21  36  53  75 106 141 174 213 261 306
#     4  10  20  33  53  80 107 135 168 210 258 307
#     4   9  19  36  55  74 100 136 175 214 257 305
#
# _framework density 17.885912999999999
#
# number of rings (size 3 to 8) (size 9 to 14) (size 15 to 20)
#    0.000    2.333    0.000    4.500    0.000    5.667 
#    0.000    3.333    0.000    1.000    0.000    3.500 
#    0.000    0.000    0.000    0.000    0.000    0.000 
#
# Total GULP energy -267710.512988 kJ/mol
# GULP energy per Si atom -5577.302354 kJ/mol
# Density = 1.784520 g / cm^3
# Si number density = 17.885913 Si / 1000 Ang^3
#
#
#
# Elastic Constant Matrix: (Units=GPa)
#
#
# Indices 1 2 3 4 5 6 
#
# 1 53.7108 39.9895 58.3019 0.0000 0.0000 0.0000
# 2 39.9895 88.1468 98.8923 0.0000 0.0000 0.0000
# 3 58.3019 98.8923 187.8416 0.0000 0.0000 0.0000
# 4 0.0000 0.0000 0.0000 -34.9614 0.0000 0.0000
# 5 0.0000 0.0000 0.0000 0.0000 23.8748 0.0000
# 6 0.0000 0.0000 0.0000 0.0000 0.0000 23.3447
#
#
#
# Elastic Compliance Matrix: (Units=1/GPa)
#
#
# Indices 1 2 3 4 5 6 
#
# 1 0.030102 -0.007755 -0.005260 0.000000 0.000000 0.000000
# 2 -0.007755 0.029711 -0.013235 0.000000 0.000000 0.000000
# 3 -0.005260 -0.013235 0.013924 0.000000 0.000000 0.000000
# 4 0.000000 0.000000 0.000000 -0.028603 0.000000 0.000000
# 5 0.000000 0.000000 0.000000 0.000000 0.041885 0.000000
# 6 0.000000 0.000000 0.000000 0.000000 0.000000 0.042836
#
#
# Mechanical properties :
#
#
# Convention : Reuss Voigt Hill
#
# Bulk Modulus (GPa) = 47.08749 80.45183 63.76966
# Shear Modulus (GPa) = 26.39423 11.28598 18.84011
#
# Velocity S-wave (km/s) = 3.84565 2.51469 3.24905
# Velocity P-wave (km/s) = 6.78988 7.31504 7.05734
#
# Compressibility (1/GPa) = 0.02123707
#
# Stress axis : x y z
#
# Youngs Moduli (GPa) = 33.22055 33.65719 71.81722
#
# Poissons Ratio (x) = 0.26100 0.37779
# Poissons Ratio (y) = 0.25761 0.95051
# Poissons Ratio (z) = 0.17475 0.44546
#
# Static dielectric constant tensor:
#      x y z
#    x 1.608910 0.000000 0.000000 
#    y 0.000000 1.671240 0.000000 
#    z 0.000000 0.000000 1.643700 
# 
# From -- ./inp_files/73088.got.cif
#   From: 2010.05.17/outbox.cif.g08.bks.cpg/sg65_37_cif.got.tgz:73088.got - 2010.06.03 17:01:31.
