data_PCOD9488675
_publ_section_title
;
Structure prediction by ZEFSAII (Michael W. Deem and Ramdas Pophale) SiO2 
 PCOD9488675
Probable space group: C M M M
;
_chemical_formula_sum "Si O2"
_cell_formula_units_Z 96
_cell_length_a 18.362103
_cell_length_b 24.081812
_cell_length_c 12.928366
_cell_angle_alpha 90.000000
_cell_angle_beta 90.000000
_cell_angle_gamma 90.000000
_cell_volume 5716.829228
_symmetry_space_group_name_H-M "C M M M"
_symmetry_group_IT_number 65
_symmetry_cell_setting 'orthorhombic'
loop_
_space_group_symop_operation_xyz
x,y,z
-x,-y,z
x,-y,-z
-x,y,-z
-x,-y,-z
x,y,-z
-x,y,z
x,-y,z
1/2+x,1/2+y,z
1/2-x,1/2-y,z
1/2+x,1/2-y,-z
1/2-x,1/2+y,-z
1/2-x,1/2-y,-z
1/2+x,1/2+y,-z
1/2-x,1/2+y,z
1/2+x,1/2-y,z
loop_
_atom_site_type_symbol
_atom_site_label
_atom_site_fract_x
_atom_site_fract_y
_atom_site_fract_z
Si Si1 0.918169 0.254560 0.377151
Si Si2 0.196659 0.434555 0.120798
Si Si3 0.500000 0.432470 0.882525
Si Si4 0.355931 0.863488 0.693135
Si Si5 0.148490 0.934747 0.229276
Si Si6 0.195122 0.841417 0.376775
Si Si7 0.412807 0.066148 0.500000
O O1 0.908283 0.268177 0.500000
O O2 0.909160 0.311149 0.313677
O O3 0.857297 0.209642 0.348336
O O4 0.000000 0.232031 0.365405
O O5 0.179038 0.500000 0.135407
O O6 0.151072 0.396575 0.199618
O O7 0.281572 0.428053 0.154089
O O8 0.187237 0.421015 0.000000
O O9 0.500000 0.500000 0.885695
O O10 0.426008 0.416455 0.825124
O O11 0.500000 0.412264 0.000000
O O12 0.276609 0.837970 0.666646
O O13 0.378024 0.905787 0.601554
O O14 0.162846 0.897604 0.329030
O O15 0.143394 0.000000 0.254400
O O16 0.198713 0.843648 0.500000
O O17 0.500000 0.076180 0.500000
O O18 0.400361 0.000000 0.500000
#
# Coordination Sequence:
#
# PCOD9488675 Si02
#       7
#    16  16   8  16  16  16   8
#     4  10  20  34  54  76 103 139 181 221 263 315
#     4   9  18  33  53  79 108 138 176 218 262 318
#     4   9  16  28  47  67  91 131 180 224 261 306
#     4  11  19  34  56  80 105 140 178 220 266 317
#     4   9  18  30  48  74 104 139 177 218 267 316
#     4  10  20  33  50  78 108 141 176 219 259 322
#     4  11  22  34  53  84 117 139 167 218 274 320
#
# _framework density 16.792524
#
# number of rings (size 3 to 8) (size 9 to 14) (size 15 to 20)
#    0.000    2.167    1.667    2.000    1.167    4.333 
#    0.000    0.000    0.000   12.500    0.000    5.833 
#    0.000    0.000    0.000    0.000    0.000    0.000 
#
# Total GULP energy -267677.161751 kJ/mol
# GULP energy per Si atom -5576.607536 kJ/mol
# Density = 1.675430 g / cm^3
# Si number density = 16.792524 Si / 1000 Ang^3
#
#
#
# Elastic Constant Matrix: (Units=GPa)
#
#
# Indices 1 2 3 4 5 6 
#
# 1 63.7261 29.6464 12.8348 0.0000 0.0000 0.0000
# 2 29.6464 70.8738 41.4471 0.0000 0.0000 0.0000
# 3 12.8348 41.4471 76.2037 0.0000 0.0000 0.0000
# 4 0.0000 0.0000 0.0000 18.7979 0.0000 0.0000
# 5 0.0000 0.0000 0.0000 0.0000 14.6045 0.0000
# 6 0.0000 0.0000 0.0000 0.0000 0.0000 26.2218
#
#
#
# Elastic Compliance Matrix: (Units=1/GPa)
#
#
# Indices 1 2 3 4 5 6 
#
# 1 0.019633 -0.009207 0.001701 0.000000 0.000000 0.000000
# 2 -0.009207 0.025009 -0.012051 0.000000 0.000000 0.000000
# 3 0.001701 -0.012051 0.019391 0.000000 0.000000 0.000000
# 4 0.000000 0.000000 0.000000 0.053197 0.000000 0.000000
# 5 0.000000 0.000000 0.000000 0.000000 0.068472 0.000000
# 6 0.000000 0.000000 0.000000 0.000000 0.000000 0.038136
#
#
# Mechanical properties :
#
#
# Convention : Reuss Voigt Hill
#
# Bulk Modulus (GPa) = 40.13260 42.07334 41.10297
# Shear Modulus (GPa) = 18.43255 20.38318 19.40787
#
# Velocity S-wave (km/s) = 3.31670 3.48778 3.40331
# Velocity P-wave (km/s) = 6.21436 6.42874 6.32246
#
# Compressibility (1/GPa) = 0.02491740
#
# Stress axis : x y z
#
# Youngs Moduli (GPa) = 50.93489 39.98621 51.57041
#
# Poissons Ratio (x) = 0.36816 -0.08772
# Poissons Ratio (y) = 0.46897 0.62150
# Poissons Ratio (z) = -0.08664 0.48189
#
# Static dielectric constant tensor:
#      x y z
#    x 1.643510 0.000000 0.000000 
#    y 0.000000 1.565170 0.000000 
#    z 0.000000 0.000000 1.537490 
# 
# From -- ./inp_files/27149.got.cif
#   From: 2010.05.17/outbox.cif.g08.bks.cpg/sg65_14_cif.got.tgz:27149.got - 2010.06.03 17:01:31.
