data_PCOD9488618
_publ_section_title
;
Structure prediction by ZEFSAII (Michael W. Deem and Ramdas Pophale) SiO2 
 PCOD9488618
Probable space group: C M M M
;
_chemical_formula_sum "Si O2"
_cell_formula_units_Z 80
_cell_length_a 7.838571
_cell_length_b 27.930741
_cell_length_c 19.314518
_cell_angle_alpha 90.000000
_cell_angle_beta 90.000000
_cell_angle_gamma 90.000000
_cell_volume 4228.664490
_symmetry_space_group_name_H-M "C M M M"
_symmetry_group_IT_number 65
_symmetry_cell_setting 'orthorhombic'
loop_
_space_group_symop_operation_xyz
x,y,z
-x,-y,z
x,-y,-z
-x,y,-z
-x,-y,-z
x,y,-z
-x,y,z
x,-y,z
1/2+x,1/2+y,z
1/2-x,1/2-y,z
1/2+x,1/2-y,-z
1/2-x,1/2+y,-z
1/2-x,1/2-y,-z
1/2+x,1/2+y,-z
1/2-x,1/2+y,z
1/2+x,1/2-y,z
loop_
_atom_site_type_symbol
_atom_site_label
_atom_site_fract_x
_atom_site_fract_y
_atom_site_fract_z
Si Si1 0.794840 0.303803 0.786076
Si Si2 0.709059 0.944614 0.000000
Si Si3 0.206259 0.694008 0.500000
Si Si4 0.293975 0.100806 0.143468
Si Si5 0.296588 0.446587 0.712015
Si Si6 0.203214 0.651562 0.356099
O O1 0.750000 0.250000 0.805012
O O2 0.734099 0.345635 0.837445
O O3 0.729192 0.317754 0.709226
O O4 0.000000 0.307186 0.784039
O O5 0.767860 0.919116 0.070346
O O6 0.500000 0.943555 0.000000
O O7 0.760008 0.000000 0.000000
O O8 0.250000 0.750000 0.500000
O O9 0.271671 0.668922 0.429818
O O10 0.000000 0.689774 0.500000
O O11 0.500000 0.101529 0.140480
O O12 0.246905 0.067946 0.209037
O O13 0.500000 0.447204 0.705576
O O14 0.230432 0.500000 0.696893
O O15 0.231440 0.403875 0.663214
O O16 0.000000 0.659308 0.357785
#
# Coordination Sequence:
#
# PCOD9488618 Si02
#       6
#    16   8   8  16  16  16
#     4   9  17  29  46  68  94 125 159 195 234 277
#     4   9  16  28  50  75  95 121 159 201 244 289
#     4  10  20  34  53  78 105 131 162 201 247 296
#     4   9  18  32  50  73  98 125 162 203 241 288
#     4  10  20  33  50  73  99 128 163 202 245 291
#     4   9  19  34  51  73  99 128 164 201 238 287
#
# _framework density 18.918503000000001
#
# number of rings (size 3 to 8) (size 9 to 14) (size 15 to 20)
#    0.000    2.700    0.000    3.000    0.000    6.400 
#    0.000    1.500    0.000    4.800    0.000    0.000 
#    0.000    0.000    0.000    0.000    0.000    0.000 
#
# Total GULP energy -223095.440354 kJ/mol
# GULP energy per Si atom -5577.386009 kJ/mol
# Density = 1.887544 g / cm^3
# Si number density = 18.918503 Si / 1000 Ang^3
#
#
#
# Elastic Constant Matrix: (Units=GPa)
#
#
# Indices 1 2 3 4 5 6 
#
# 1 15.7499 -8.3645 6.6755 0.0000 0.0000 0.0000
# 2 -8.3645 143.8649 85.0092 0.0000 0.0000 0.0000
# 3 6.6755 85.0092 159.2048 0.0000 0.0000 0.0000
# 4 0.0000 0.0000 0.0000 16.3302 0.0000 0.0000
# 5 0.0000 0.0000 0.0000 0.0000 -8.5339 0.0000
# 6 0.0000 0.0000 0.0000 0.0000 0.0000 26.1952
#
#
#
# Elastic Compliance Matrix: (Units=1/GPa)
#
#
# Indices 1 2 3 4 5 6 
#
# 1 0.071301 0.008637 -0.007602 0.000000 0.000000 0.000000
# 2 0.008637 0.011201 -0.006343 0.000000 0.000000 0.000000
# 3 -0.007602 -0.006343 0.009987 0.000000 0.000000 0.000000
# 4 0.000000 0.000000 0.000000 0.061236 0.000000 0.000000
# 5 0.000000 0.000000 0.000000 0.000000 -0.117180 0.000000
# 6 0.000000 0.000000 0.000000 0.000000 0.000000 0.038175
#
#
# Mechanical properties :
#
#
# Convention : Reuss Voigt Hill
#
# Bulk Modulus (GPa) = 12.21379 53.93999 33.07689
# Shear Modulus (GPa) = 44.39415 22.49829 33.44622
#
# Velocity S-wave (km/s) = 4.84943 3.45225 4.20921
# Velocity P-wave (km/s) = 6.15028 6.66816 6.41445
#
# Compressibility (1/GPa) = 0.08187469
#
# Stress axis : x y z
#
# Youngs Moduli (GPa) = 14.02495 89.27487 100.13002
#
# Poissons Ratio (x) = -0.77110 0.76116
# Poissons Ratio (y) = -0.12114 0.63515
# Poissons Ratio (z) = 0.10661 0.56629
#
# Static dielectric constant tensor:
#      x y z
#    x 1.678180 0.000000 0.000000 
#    y 0.000000 1.659830 0.000000 
#    z 0.000000 0.000000 1.651930 
# 
# From -- ./inp_files/50177.got.cif
#   From: 2010.05.17/outbox.cif.g08.bks.cpg/sg65_26_cif.got.tgz:50177.got - 2010.06.03 17:01:31.
