data_PCOD9488668
_publ_section_title
;
Structure prediction by ZEFSAII (Michael W. Deem and Ramdas Pophale) SiO2 
 PCOD9488668
Probable space group: C M M M
;
_chemical_formula_sum "Si O2"
_cell_formula_units_Z 104
_cell_length_a 23.140043
_cell_length_b 27.801513
_cell_length_c 9.581067
_cell_angle_alpha 90.000000
_cell_angle_beta 90.000000
_cell_angle_gamma 90.000000
_cell_volume 6163.770647
_symmetry_space_group_name_H-M "C M M M"
_symmetry_group_IT_number 65
_symmetry_cell_setting 'orthorhombic'
loop_
_space_group_symop_operation_xyz
x,y,z
-x,-y,z
x,-y,-z
-x,y,-z
-x,-y,-z
x,y,-z
-x,y,z
x,-y,z
1/2+x,1/2+y,z
1/2-x,1/2-y,z
1/2+x,1/2-y,-z
1/2-x,1/2+y,-z
1/2-x,1/2-y,-z
1/2+x,1/2+y,-z
1/2-x,1/2+y,z
1/2+x,1/2-y,z
loop_
_atom_site_type_symbol
_atom_site_label
_atom_site_fract_x
_atom_site_fract_y
_atom_site_fract_z
Si Si1 0.433753 0.727658 0.164961
Si Si2 0.744977 0.693132 0.333713
Si Si3 0.929465 0.500000 0.659262
Si Si4 0.645446 0.182014 0.837830
Si Si5 0.378739 0.356237 0.331902
Si Si6 0.932367 0.588818 0.159912
Si Si7 0.431269 0.443140 0.165929
O O1 0.500000 0.744447 0.179592
O O2 0.388814 0.769637 0.203553
O O3 0.422266 0.681923 0.261487
O O4 0.425345 0.715840 0.000000
O O5 0.752284 0.689998 0.500000
O O6 0.750000 0.750000 0.296492
O O7 0.798957 0.671052 0.253676
O O8 0.684760 0.666501 0.300077
O O9 0.911586 0.500000 0.500000
O O10 0.910163 0.452325 0.738372
O O11 0.000000 0.500000 0.665254
O O12 0.601348 0.138144 0.826784
O O13 0.662323 0.187630 0.000000
O O14 0.384826 0.358845 0.500000
O O15 0.393191 0.407143 0.259158
O O16 0.000000 0.597315 0.187932
O O17 0.927532 0.571664 0.000000
O O18 0.500000 0.434798 0.192408
O O19 0.420128 0.500000 0.192098
O O20 0.421703 0.434368 0.000000
#
# Coordination Sequence:
#
# PCOD9488668 Si02
#       7
#    16  16   8  16  16  16  16
#     4  10  20  33  50  76 110 141 169 209 261 313
#     4  10  21  38  54  71 103 144 179 214 258 304
#     4   9  17  29  47  73 101 131 169 205 242 301
#     4  10  20  33  53  78 101 132 177 220 256 306
#     4  11  22  35  54  79 107 142 182 221 260 310
#     4   9  17  31  51  75 104 134 164 208 265 312
#     4   9  19  37  60  85 113 143 174 215 273 332
#
# _framework density 16.872788
#
# number of rings (size 3 to 8) (size 9 to 14) (size 15 to 20)
#    0.000    2.231    1.538    2.077    0.000    7.692 
#    0.000    0.769    1.692    2.769    0.000    0.000 
#    0.000    0.000    0.000    0.000    0.000    0.000 
#
# Total GULP energy -289903.156215 kJ/mol
# GULP energy per Si atom -5575.060696 kJ/mol
# Density = 1.683439 g / cm^3
# Si number density = 16.872788 Si / 1000 Ang^3
#
#
#
# Elastic Constant Matrix: (Units=GPa)
#
#
# Indices 1 2 3 4 5 6 
#
# 1 80.3561 35.9203 43.5517 0.0000 0.0000 0.0000
# 2 35.9203 87.0878 49.3241 0.0000 0.0000 0.0000
# 3 43.5517 49.3241 49.6279 0.0000 0.0000 0.0000
# 4 0.0000 0.0000 0.0000 16.4154 0.0000 0.0000
# 5 0.0000 0.0000 0.0000 0.0000 27.1071 0.0000
# 6 0.0000 0.0000 0.0000 0.0000 0.0000 17.1577
#
#
#
# Elastic Compliance Matrix: (Units=1/GPa)
#
#
# Indices 1 2 3 4 5 6 
#
# 1 0.024563 0.004752 -0.026279 0.000000 0.000000 0.000000
# 2 0.004752 0.027190 -0.031194 0.000000 0.000000 0.000000
# 3 -0.026279 -0.031194 0.074214 0.000000 0.000000 0.000000
# 4 0.000000 0.000000 0.000000 0.060918 0.000000 0.000000
# 5 0.000000 0.000000 0.000000 0.000000 0.036891 0.000000
# 6 0.000000 0.000000 0.000000 0.000000 0.000000 0.058283
#
#
# Mechanical properties :
#
#
# Convention : Reuss Voigt Hill
#
# Bulk Modulus (GPa) = 48.71796 52.74045 50.72921
# Shear Modulus (GPa) = 12.67934 18.02108 15.35021
#
# Velocity S-wave (km/s) = 2.74426 3.27166 3.01950
# Velocity P-wave (km/s) = 6.24321 6.75257 6.50288
#
# Compressibility (1/GPa) = 0.02052631
#
# Stress axis : x y z
#
# Youngs Moduli (GPa) = 40.71174 36.77832 13.47447
#
# Poissons Ratio (x) = -0.17478 0.35409
# Poissons Ratio (y) = -0.19348 0.42032
# Poissons Ratio (z) = 1.06986 1.14726
#
# Static dielectric constant tensor:
#      x y z
#    x 1.566860 0.000000 0.000000 
#    y 0.000000 1.567900 0.000000 
#    z 0.000000 0.000000 1.565660 
# 
# From -- ./inp_files/14725.got.cif
#   From: 2010.05.17/outbox.cif.g08.bks.cpg/sg65_8_cif.got.tgz:14725.got - 2010.06.03 17:01:31.
