data_PCOD9488163
_publ_section_title
;
Structure prediction by ZEFSAII (Michael W. Deem and Ramdas Pophale) SiO2 
 PCOD9488163
Probable space group: C M M M
;
_chemical_formula_sum "Si O2"
_cell_formula_units_Z 80
_cell_length_a 20.303236
_cell_length_b 8.813256
_cell_length_c 26.366900
_cell_angle_alpha 90.000000
_cell_angle_beta 90.000000
_cell_angle_gamma 90.000000
_cell_volume 4718.030240
_symmetry_space_group_name_H-M "C M M M"
_symmetry_group_IT_number 65
_symmetry_cell_setting 'orthorhombic'
loop_
_space_group_symop_operation_xyz
x,y,z
-x,-y,z
x,-y,-z
-x,y,-z
-x,-y,-z
x,y,-z
-x,y,z
x,-y,z
1/2+x,1/2+y,z
1/2-x,1/2-y,z
1/2+x,1/2-y,-z
1/2-x,1/2+y,-z
1/2-x,1/2-y,-z
1/2+x,1/2+y,-z
1/2-x,1/2+y,z
1/2+x,1/2-y,z
loop_
_atom_site_type_symbol
_atom_site_label
_atom_site_fract_x
_atom_site_fract_y
_atom_site_fract_z
Si Si1 0.322008 0.818199 0.258390
Si Si2 0.422868 0.319076 0.338296
Si Si3 0.678499 0.816938 0.858403
Si Si4 0.924428 0.315134 0.942750
Si Si5 0.420190 0.177548 0.444218
O O1 0.250000 0.750000 0.270085
O O2 0.376884 0.756216 0.296323
O O3 0.337843 0.776117 0.199855
O O4 0.318809 0.000000 0.261747
O O5 0.500000 0.273303 0.332462
O O6 0.419548 0.500000 0.334189
O O7 0.399914 0.268602 0.394504
O O8 0.750000 0.750000 0.870180
O O9 0.624825 0.763468 0.899061
O O10 0.681856 0.000000 0.860709
O O11 0.924036 0.500000 0.942152
O O12 0.000000 0.268125 0.933792
O O13 0.905351 0.268785 0.000000
O O14 0.397134 0.230585 0.500000
O O15 0.500000 0.185176 0.445319
O O16 0.402682 0.000000 0.438720
#
# Coordination Sequence:
#
# PCOD9488163 Si02
#       5
#    16  16  16  16  16
#     4  10  20  34  51  69  94 128 164 203 246 293
#     4  10  20  32  48  73 102 129 161 201 242 287
#     4   9  18  31  48  70  93 120 156 196 237 282
#     4   8  14  26  45  69  96 124 155 192 232 275
#     4   8  14  26  45  69  97 128 161 197 237 281
#
# _framework density 16.956227999999999
#
# number of rings (size 3 to 8) (size 9 to 14) (size 15 to 20)
#    0.000    3.000    0.000    2.400    0.000    3.600 
#    0.000    4.000    0.000    1.200    0.000    1.400 
#    0.000    0.000    0.000    0.000    0.000    0.000 
#
# Total GULP energy -222817.119514 kJ/mol
# GULP energy per Si atom -5570.427988 kJ/mol
# Density = 1.691764 g / cm^3
# Si number density = 16.956228 Si / 1000 Ang^3
#
#
#
# Elastic Constant Matrix: (Units=GPa)
#
#
# Indices 1 2 3 4 5 6 
#
# 1 90.0123 33.2077 105.2696 0.0000 0.0000 0.0000
# 2 33.2077 27.0877 43.9017 0.0000 0.0000 0.0000
# 3 105.2696 43.9017 159.9837 0.0000 0.0000 0.0000
# 4 0.0000 0.0000 0.0000 14.1223 0.0000 0.0000
# 5 0.0000 0.0000 0.0000 0.0000 -19.0710 0.0000
# 6 0.0000 0.0000 0.0000 0.0000 0.0000 23.5271
#
#
#
# Elastic Compliance Matrix: (Units=1/GPa)
#
#
# Indices 1 2 3 4 5 6 
#
# 1 0.051272 -0.014728 -0.029696 0.000000 0.000000 0.000000
# 2 -0.014728 0.070718 -0.009715 0.000000 0.000000 0.000000
# 3 -0.029696 -0.009715 0.028456 0.000000 0.000000 0.000000
# 4 0.000000 0.000000 0.000000 0.070810 0.000000 0.000000
# 5 0.000000 0.000000 0.000000 0.000000 -0.052436 0.000000
# 6 0.000000 0.000000 0.000000 0.000000 0.000000 0.042504
#
#
# Mechanical properties :
#
#
# Convention : Reuss Voigt Hill
#
# Bulk Modulus (GPa) = 23.71389 71.31575 47.51482
# Shear Modulus (GPa) = 14.98542 10.02935 12.50738
#
# Velocity S-wave (km/s) = 2.97605 2.43468 2.71888
# Velocity P-wave (km/s) = 5.08182 7.07486 6.15949
#
# Compressibility (1/GPa) = 0.04216937
#
# Stress axis : x y z
#
# Youngs Moduli (GPa) = 19.50378 14.14075 35.14145
#
# Poissons Ratio (x) = 0.20826 1.04355
# Poissons Ratio (y) = 0.28724 0.34140
# Poissons Ratio (z) = 0.57918 0.13738
#
# Static dielectric constant tensor:
#      x y z
#    x 1.546950 0.000000 0.000000 
#    y 0.000000 1.566420 0.000000 
#    z 0.000000 0.000000 1.586410 
# 
# From -- ./inp_files/72773.got.cif
#   From: 2010.05.17/outbox.cif.g08.bks.cpg/sg65_37_cif.got.tgz:72773.got - 2010.06.03 17:01:31.
