data_PCOD9488995
_publ_section_title
;
Structure prediction by ZEFSAII (Michael W. Deem and Ramdas Pophale) SiO2 
 PCOD9488995
Probable space group: C M M M
;
_chemical_formula_sum "Si O2"
_cell_formula_units_Z 108
_cell_length_a 21.957709
_cell_length_b 15.493717
_cell_length_c 13.660131
_cell_angle_alpha 90.000000
_cell_angle_beta 90.000000
_cell_angle_gamma 90.000000
_cell_volume 4647.265756
_symmetry_space_group_name_H-M "C M M M"
_symmetry_group_IT_number 65
_symmetry_cell_setting 'orthorhombic'
loop_
_space_group_symop_operation_xyz
x,y,z
-x,-y,z
x,-y,-z
-x,y,-z
-x,-y,-z
x,y,-z
-x,y,z
x,-y,z
1/2+x,1/2+y,z
1/2-x,1/2-y,z
1/2+x,1/2-y,-z
1/2-x,1/2+y,-z
1/2-x,1/2-y,-z
1/2+x,1/2+y,-z
1/2-x,1/2+y,z
1/2+x,1/2-y,z
loop_
_atom_site_type_symbol
_atom_site_label
_atom_site_fract_x
_atom_site_fract_y
_atom_site_fract_z
Si Si1 0.389903 0.627573 0.173757
Si Si2 0.358931 0.638268 0.607003
Si Si3 0.247503 0.101606 0.106971
Si Si4 0.601492 0.164034 0.604679
Si Si5 0.931827 0.323122 0.817852
Si Si6 0.771354 0.602570 0.679350
Si Si7 0.069506 0.500000 0.114392
Si Si8 0.500000 0.500000 0.872240
O O1 0.384754 0.602421 0.290116
O O2 0.325708 0.606955 0.123083
O O3 0.400640 0.730781 0.168514
O O4 0.446160 0.574965 0.130507
O O5 0.371323 0.597509 0.500000
O O6 0.384942 0.734185 0.600925
O O7 0.286475 0.641809 0.624039
O O8 0.273189 0.138625 0.209344
O O9 0.263713 0.000000 0.104393
O O10 0.263654 0.138926 0.000000
O O11 0.576044 0.136140 0.500000
O O12 0.564132 0.154700 0.703007
O O13 0.666210 0.119298 0.624346
O O14 0.900425 0.409244 0.859033
O O15 0.000000 0.316446 0.860563
O O16 0.759839 0.500000 0.684581
O O17 0.000000 0.500000 0.157295
O O18 0.063757 0.500000 0.000000
#
# Coordination Sequence:
#
# PCOD9488995 Si02
#       8
#    16  16  16  16  16  16   8   4
#     4  10  20  35  58  86 123 159 196 243 291 348
#     4   9  19  36  55  78 111 157 200 237 292 355
#     4   9  18  35  56  81 117 157 193 236 297 362
#     4  10  21  36  57  84 115 150 194 245 295 355
#     4  10  21  39  61  84 117 159 198 244 299 350
#     4  10  20  33  54  81 111 146 190 250 305 356
#     4   9  20  40  63  82 102 141 195 245 290 340
#     4  12  20  36  58  88 132 162 196 242 286 334
#
# _framework density 23.239473
#
# number of rings (size 3 to 8) (size 9 to 14) (size 15 to 20)
#    0.000    2.296    1.481    0.889    2.074    3.259 
#    0.000    2.222    0.000   12.889    0.000    0.000 
#    0.000    0.000    0.000    0.000    0.000    0.000 
#
# Total GULP energy -300937.413819 kJ/mol
# GULP energy per Si atom -5572.915071 kJ/mol
# Density = 2.318658 g / cm^3
# Si number density = 23.239473 Si / 1000 Ang^3
#
#
#
# Elastic Constant Matrix: (Units=GPa)
#
#
# Indices 1 2 3 4 5 6 
#
# 1 59.3750 5.4158 -12.0723 0.0000 0.0000 0.0000
# 2 5.4158 103.3435 31.2190 0.0000 0.0000 0.0000
# 3 -12.0723 31.2190 116.0273 0.0000 0.0000 0.0000
# 4 0.0000 0.0000 0.0000 9.2989 0.0000 0.0000
# 5 0.0000 0.0000 0.0000 0.0000 8.4698 0.0000
# 6 0.0000 0.0000 0.0000 0.0000 0.0000 -57.7330
#
#
#
# Elastic Compliance Matrix: (Units=1/GPa)
#
#
# Indices 1 2 3 4 5 6 
#
# 1 0.017443 -0.001592 0.002243 0.000000 0.000000 0.000000
# 2 -0.001592 0.010678 -0.003039 0.000000 0.000000 0.000000
# 3 0.002243 -0.003039 0.009670 0.000000 0.000000 0.000000
# 4 0.000000 0.000000 0.000000 0.107540 0.000000 0.000000
# 5 0.000000 0.000000 0.000000 0.000000 0.118066 0.000000
# 6 0.000000 0.000000 0.000000 0.000000 0.000000 -0.017321
#
#
# Mechanical properties :
#
#
# Convention : Reuss Voigt Hill
#
# Bulk Modulus (GPa) = 30.28791 36.43007 33.35899
# Shear Modulus (GPa) = 19.09448 8.95270 14.02359
#
# Velocity S-wave (km/s) = 2.86954 1.96487 2.45916
# Velocity P-wave (km/s) = 4.90308 4.56701 4.73803
#
# Compressibility (1/GPa) = 0.03301647
#
# Stress axis : x y z
#
# Youngs Moduli (GPa) = 57.32824 93.65192 103.41617
#
# Poissons Ratio (x) = 0.14907 -0.23199
# Poissons Ratio (y) = 0.09125 0.31425
# Poissons Ratio (z) = -0.12860 0.28458
#
# Static dielectric constant tensor:
#      x y z
#    x 1.843420 0.000000 0.000000 
#    y 0.000000 1.862370 0.000000 
#    z 0.000000 0.000000 1.871180 
# 
# From -- ./inp_files/45822.got.cif
#   From: 2010.05.17/outbox.cif.g08.bks.cpg/sg65_23_cif.got.tgz:45822.got - 2010.06.03 17:01:31.
