data_PCOD9488528
_publ_section_title
;
Structure prediction by ZEFSAII (Michael W. Deem and Ramdas Pophale) SiO2 
 PCOD9488528
Probable space group: C M M M
;
_chemical_formula_sum "Si O2"
_cell_formula_units_Z 104
_cell_length_a 7.543932
_cell_length_b 18.818610
_cell_length_c 34.863906
_cell_angle_alpha 90.000000
_cell_angle_beta 90.000000
_cell_angle_gamma 90.000000
_cell_volume 4949.500233
_symmetry_space_group_name_H-M "C M M M"
_symmetry_group_IT_number 65
_symmetry_cell_setting 'orthorhombic'
loop_
_space_group_symop_operation_xyz
x,y,z
-x,-y,z
x,-y,-z
-x,y,-z
-x,-y,-z
x,y,-z
-x,y,z
x,-y,z
1/2+x,1/2+y,z
1/2-x,1/2-y,z
1/2+x,1/2-y,-z
1/2-x,1/2+y,-z
1/2-x,1/2-y,-z
1/2+x,1/2+y,-z
1/2-x,1/2+y,z
1/2+x,1/2-y,z
loop_
_atom_site_type_symbol
_atom_site_label
_atom_site_fract_x
_atom_site_fract_y
_atom_site_fract_z
Si Si1 0.782912 0.917680 0.000000
Si Si2 0.287423 0.167114 0.457150
Si Si3 0.787388 0.833371 0.924706
Si Si4 0.712578 0.081222 0.765247
Si Si5 0.787440 0.333231 0.691830
Si Si6 0.717183 0.081935 0.616892
Si Si7 0.787527 0.081306 0.148741
O O1 0.723100 0.876179 0.961977
O O2 0.000000 0.917253 0.000000
O O3 0.728657 0.000000 0.000000
O O4 0.219161 0.150400 0.500000
O O5 0.500000 0.158855 0.458335
O O6 0.250000 0.250000 0.449416
O O7 0.221788 0.118739 0.422454
O O8 0.750000 0.750000 0.927040
O O9 0.719948 0.869053 0.885406
O O10 0.000000 0.840949 0.924583
O O11 0.500000 0.077918 0.761754
O O12 0.780228 0.130105 0.730822
O O13 0.750323 0.107393 0.808231
O O14 0.780075 0.000000 0.762096
O O15 0.750000 0.250000 0.690470
O O16 0.722593 0.373726 0.653890
O O17 0.000000 0.341374 0.691888
O O18 0.500000 0.083313 0.616717
O O19 0.770554 0.000000 0.619399
O O20 0.000000 0.077822 0.145101
O O21 0.719930 0.000000 0.145456
#
# Coordination Sequence:
#
# PCOD9488528 Si02
#       7
#     8  16  16  16  16  16  16
#     4   9  17  32  55  77  96 125 166 204 236 277
#     4   9  17  29  47  71  97 125 156 191 233 281
#     4  10  20  33  51  75 102 130 160 197 239 283
#     4   9  18  33  52  72  94 123 160 199 238 281
#     4  10  20  33  50  71  95 124 158 196 238 285
#     4   9  17  30  49  71  94 122 158 199 238 276
#     4   9  18  33  52  73  97 127 163 199 235 278
#
# _framework density 21.012224
#
# number of rings (size 3 to 8) (size 9 to 14) (size 15 to 20)
#    0.000    2.692    0.000    1.615    0.000    5.846 
#    0.000    4.615    0.000    4.615    0.000    2.154 
#    0.000    0.000    0.000    0.000    0.000    0.000 
#
# Total GULP energy -290358.411665 kJ/mol
# GULP energy per Si atom -5583.815609 kJ/mol
# Density = 2.096440 g / cm^3
# Si number density = 21.012224 Si / 1000 Ang^3
#
#
#
# Elastic Constant Matrix: (Units=GPa)
#
#
# Indices 1 2 3 4 5 6 
#
# 1 51.6465 -0.9022 7.9590 0.0000 0.0000 0.0000
# 2 -0.9022 171.5356 158.3900 0.0000 0.0000 0.0000
# 3 7.9590 158.3900 248.2233 0.0000 0.0000 0.0000
# 4 0.0000 0.0000 0.0000 39.0290 0.0000 0.0000
# 5 0.0000 0.0000 0.0000 0.0000 11.5995 0.0000
# 6 0.0000 0.0000 0.0000 0.0000 0.0000 22.9498
#
#
#
# Elastic Compliance Matrix: (Units=1/GPa)
#
#
# Indices 1 2 3 4 5 6 
#
# 1 0.019653 0.001668 -0.001694 0.000000 0.000000 0.000000
# 2 0.001668 0.014332 -0.009199 0.000000 0.000000 0.000000
# 3 -0.001694 -0.009199 0.009953 0.000000 0.000000 0.000000
# 4 0.000000 0.000000 0.000000 0.025622 0.000000 0.000000
# 5 0.000000 0.000000 0.000000 0.000000 0.086210 0.000000
# 6 0.000000 0.000000 0.000000 0.000000 0.000000 0.043573
#
#
# Mechanical properties :
#
#
# Convention : Reuss Voigt Hill
#
# Bulk Modulus (GPa) = 39.23568 89.14432 64.19000
# Shear Modulus (GPa) = 22.09554 35.11292 28.60423
#
# Velocity S-wave (km/s) = 3.24629 4.09231 3.69360
# Velocity P-wave (km/s) = 5.72403 8.05273 6.98609
#
# Compressibility (1/GPa) = 0.02548701
#
# Stress axis : x y z
#
# Youngs Moduli (GPa) = 50.88370 69.77178 100.47469
#
# Poissons Ratio (x) = -0.11638 0.17025
# Poissons Ratio (y) = -0.08487 0.92426
# Poissons Ratio (z) = 0.08622 0.64183
#
# Static dielectric constant tensor:
#      x y z
#    x 1.816930 0.000000 0.000000 
#    y 0.000000 1.703020 0.000000 
#    z 0.000000 0.000000 1.747720 
# 
# From -- ./inp_files/77431.got.cif
#   From: 2010.05.17/outbox.cif.g08.bks.cpg/sg65_39_cif.got.tgz:77431.got - 2010.06.03 17:01:31.
