data_PCOD9488928
_publ_section_title
;
Structure prediction by ZEFSAII (Michael W. Deem and Ramdas Pophale) SiO2 
 PCOD9488928
Probable space group: C M M M
;
_chemical_formula_sum "Si O2"
_cell_formula_units_Z 72
_cell_length_a 26.656691
_cell_length_b 15.782994
_cell_length_c 7.620037
_cell_angle_alpha 90.000000
_cell_angle_beta 90.000000
_cell_angle_gamma 90.000000
_cell_volume 3205.920210
_symmetry_space_group_name_H-M "C M M M"
_symmetry_group_IT_number 65
_symmetry_cell_setting 'orthorhombic'
loop_
_space_group_symop_operation_xyz
x,y,z
-x,-y,z
x,-y,-z
-x,y,-z
-x,-y,-z
x,y,-z
-x,y,z
x,-y,z
1/2+x,1/2+y,z
1/2-x,1/2-y,z
1/2+x,1/2-y,-z
1/2-x,1/2+y,-z
1/2-x,1/2-y,-z
1/2+x,1/2+y,-z
1/2-x,1/2+y,z
1/2+x,1/2-y,z
loop_
_atom_site_type_symbol
_atom_site_label
_atom_site_fract_x
_atom_site_fract_y
_atom_site_fract_z
Si Si1 0.053955 0.398530 0.796448
Si Si2 0.343347 0.834737 0.695443
Si Si3 0.785573 0.500000 0.284560
Si Si4 0.610405 0.335160 0.711274
Si Si5 0.830408 0.000000 0.285999
Si Si6 0.500000 0.599061 0.792127
O O1 0.052484 0.500000 0.796666
O O2 0.100565 0.371208 0.685172
O O3 0.000000 0.366479 0.734736
O O4 0.060626 0.371945 0.000000
O O5 0.321726 0.819834 0.500000
O O6 0.357130 0.744682 0.781102
O O7 0.311782 0.912376 0.776532
O O8 0.790376 0.500000 0.500000
O O9 0.727533 0.500000 0.235171
O O10 0.613952 0.328267 0.500000
O O11 0.639187 0.418371 0.772823
O O12 0.551224 0.350040 0.746682
O O13 0.831003 0.000000 0.500000
O O14 0.500000 0.500000 0.721232
O O15 0.500000 0.591293 0.000000
#
# Coordination Sequence:
#
# PCOD9488928 Si02
#       6
#    16  16   8  16   8   8
#     4   9  18  32  49  70 101 143 186 222 265 326
#     4  10  20  33  52  81 113 143 181 227 274 324
#     4   9  18  34  55  81 113 145 183 232 279 320
#     4  10  21  36  57  85 114 147 185 224 275 337
#     4   9  18  35  58  80 107 146 185 230 283 328
#     4  11  23  39  61  86 113 148 184 228 282 328
#
# _framework density 22.458449999999999
#
# number of rings (size 3 to 8) (size 9 to 14) (size 15 to 20)
#    0.000    2.333    2.222    1.000    1.556    2.667 
#    0.000    5.556    0.000    2.667    0.000    3.111 
#    0.000    0.000    0.000    0.000    0.000    0.000 
#
# Total GULP energy -200664.550228 kJ/mol
# GULP energy per Si atom -5574.015284 kJ/mol
# Density = 2.240733 g / cm^3
# Si number density = 22.458450 Si / 1000 Ang^3
#
#
#
# Elastic Constant Matrix: (Units=GPa)
#
#
# Indices 1 2 3 4 5 6 
#
# 1 147.9708 84.0850 -0.6904 0.0000 0.0000 0.0000
# 2 84.0850 183.6670 5.2202 0.0000 0.0000 0.0000
# 3 -0.6904 5.2202 48.2008 0.0000 0.0000 0.0000
# 4 0.0000 0.0000 0.0000 2.6718 0.0000 0.0000
# 5 0.0000 0.0000 0.0000 0.0000 -7.4405 0.0000
# 6 0.0000 0.0000 0.0000 0.0000 0.0000 -28.6589
#
#
#
# Elastic Compliance Matrix: (Units=1/GPa)
#
#
# Indices 1 2 3 4 5 6 
#
# 1 0.009151 -0.004206 0.000587 0.000000 0.000000 0.000000
# 2 -0.004206 0.007395 -0.000861 0.000000 0.000000 0.000000
# 3 0.000587 -0.000861 0.020848 0.000000 0.000000 0.000000
# 4 0.000000 0.000000 0.000000 0.374284 0.000000 0.000000
# 5 0.000000 0.000000 0.000000 0.000000 -0.134399 0.000000
# 6 0.000000 0.000000 0.000000 0.000000 0.000000 -0.034893
#
#
# Mechanical properties :
#
#
# Convention : Reuss Voigt Hill
#
# Bulk Modulus (GPa) = 35.17076 61.89646 48.53361
# Shear Modulus (GPa) = 19.16996 12.72939 15.94968
#
# Velocity S-wave (km/s) = 2.92477 2.38333 2.66782
# Velocity P-wave (km/s) = 5.20577 5.93245 5.58095
#
# Compressibility (1/GPa) = 0.02843271
#
# Stress axis : x y z
#
# Youngs Moduli (GPa) = 109.27821 135.23182 47.96571
#
# Poissons Ratio (x) = 0.56880 -0.02814
# Poissons Ratio (y) = 0.45963 0.04130
# Poissons Ratio (z) = -0.06410 0.11645
#
# Static dielectric constant tensor:
#      x y z
#    x 1.771210 0.000000 0.000000 
#    y 0.000000 1.988050 0.000000 
#    z 0.000000 0.000000 1.869230 
# 
# From -- ./inp_files/15844.got.cif
#   From: 2010.05.17/outbox.cif.g08.bks.cpg/sg65_8_cif.got.tgz:15844.got - 2010.06.03 17:01:31.
