data_PCOD9488001
_publ_section_title
;
Structure prediction by ZEFSAII (Michael W. Deem and Ramdas Pophale) SiO2 
 PCOD9488001
Probable space group: C M M M
;
_chemical_formula_sum "Si O2"
_cell_formula_units_Z 72
_cell_length_a 34.605840
_cell_length_b 14.349995
_cell_length_c 9.041818
_cell_angle_alpha 90.000000
_cell_angle_beta 90.000000
_cell_angle_gamma 90.000000
_cell_volume 4490.109231
_symmetry_space_group_name_H-M "C M M M"
_symmetry_group_IT_number 65
_symmetry_cell_setting 'orthorhombic'
loop_
_space_group_symop_operation_xyz
x,y,z
-x,-y,z
x,-y,-z
-x,y,-z
-x,-y,-z
x,y,-z
-x,y,z
x,-y,z
1/2+x,1/2+y,z
1/2-x,1/2-y,z
1/2+x,1/2-y,-z
1/2-x,1/2+y,-z
1/2-x,1/2-y,-z
1/2+x,1/2+y,-z
1/2-x,1/2+y,z
1/2+x,1/2-y,z
loop_
_atom_site_type_symbol
_atom_site_label
_atom_site_fract_x
_atom_site_fract_y
_atom_site_fract_z
Si Si1 0.724211 0.887789 0.328643
Si Si2 0.419931 0.889671 0.676662
Si Si3 0.500000 0.113048 0.169980
Si Si4 0.194857 0.892374 0.823897
Si Si5 0.652246 0.789533 0.824023
O O1 0.721110 0.859119 0.500000
O O2 0.766346 0.865190 0.263439
O O3 0.690202 0.843138 0.233558
O O4 0.720451 0.000000 0.322136
O O5 0.421267 0.880850 0.500000
O O6 0.460766 0.859701 0.746907
O O7 0.384858 0.831125 0.743278
O O8 0.413991 0.000000 0.710943
O O9 0.500000 0.000000 0.169785
O O10 0.500000 0.144565 0.000000
O O11 0.161126 0.819019 0.791972
O O12 0.185538 0.000000 0.789091
O O13 0.203152 0.886631 0.000000
O O14 0.648201 0.801611 0.000000
#
# Coordination Sequence:
#
# PCOD9488001 Si02
#       5
#    16  16   8  16  16
#     4  10  20  32  46  66  93 124 156 192 236 283
#     4  10  20  33  49  71 100 130 156 184 223 272
#     4   9  17  31  51  73  98 127 156 185 219 266
#     4   9  19  35  50  64  87 121 160 200 240 280
#     4  11  21  31  47  70  93 121 158 197 235 275
#
# _framework density 16.035245
#
# number of rings (size 3 to 8) (size 9 to 14) (size 15 to 20)
#    0.000    2.111    0.000    3.667    0.000   11.111 
#    0.000    0.000    0.000    0.000    0.000    0.778 
#    0.000    6.222    0.000    0.000    0.000    0.000 
#
# Total GULP energy -200953.198009 kJ/mol
# GULP energy per Si atom -5582.033278 kJ/mol
# Density = 1.599875 g / cm^3
# Si number density = 16.035245 Si / 1000 Ang^3
#
#
#
# Elastic Constant Matrix: (Units=GPa)
#
#
# Indices 1 2 3 4 5 6 
#
# 1 131.4750 64.6740 64.9037 0.0000 0.0000 0.0000
# 2 64.6740 60.4824 45.8624 0.0000 0.0000 0.0000
# 3 64.9037 45.8624 74.9148 0.0000 0.0000 0.0000
# 4 0.0000 0.0000 0.0000 17.5638 0.0000 0.0000
# 5 0.0000 0.0000 0.0000 0.0000 46.3044 0.0000
# 6 0.0000 0.0000 0.0000 0.0000 0.0000 24.0480
#
#
#
# Elastic Compliance Matrix: (Units=1/GPa)
#
#
# Indices 1 2 3 4 5 6 
#
# 1 0.017841 -0.013731 -0.007051 0.000000 0.000000 0.000000
# 2 -0.013731 0.041426 -0.013465 0.000000 0.000000 0.000000
# 3 -0.007051 -0.013465 0.027700 0.000000 0.000000 0.000000
# 4 0.000000 0.000000 0.000000 0.056935 0.000000 0.000000
# 5 0.000000 0.000000 0.000000 0.000000 0.021596 0.000000
# 6 0.000000 0.000000 0.000000 0.000000 0.000000 0.041584
#
#
# Mechanical properties :
#
#
# Convention : Reuss Voigt Hill
#
# Bulk Modulus (GPa) = 54.12956 68.63915 61.38436
# Shear Modulus (GPa) = 17.74717 23.67872 20.71294
#
# Velocity S-wave (km/s) = 3.33041 3.84691 3.59794
# Velocity P-wave (km/s) = 6.97271 7.91390 7.45817
#
# Compressibility (1/GPa) = 0.01847419
#
# Stress axis : x y z
#
# Youngs Moduli (GPa) = 56.04986 24.13914 36.10062
#
# Poissons Ratio (x) = 0.33146 0.25455
# Poissons Ratio (y) = 0.76963 0.48609
# Poissons Ratio (z) = 0.39521 0.32503
#
# Static dielectric constant tensor:
#      x y z
#    x 1.500680 0.000000 0.000000 
#    y 0.000000 1.551410 0.000000 
#    z 0.000000 0.000000 1.536270 
# 
# From -- ./inp_files/7195.got.cif
#   From: 2010.05.17/outbox.cif.g08.bks.cpg/sg65_4_cif.got.tgz:7195.got - 2010.06.03 17:01:31.
