data_PCOD9488463
_publ_section_title
;
Structure prediction by ZEFSAII (Michael W. Deem and Ramdas Pophale) SiO2 
 PCOD9488463
Probable space group: C M M M
;
_chemical_formula_sum "Si O2"
_cell_formula_units_Z 80
_cell_length_a 18.515990
_cell_length_b 7.673511
_cell_length_c 27.001883
_cell_angle_alpha 90.000000
_cell_angle_beta 90.000000
_cell_angle_gamma 90.000000
_cell_volume 3836.499171
_symmetry_space_group_name_H-M "C M M M"
_symmetry_group_IT_number 65
_symmetry_cell_setting 'orthorhombic'
loop_
_space_group_symop_operation_xyz
x,y,z
-x,-y,z
x,-y,-z
-x,y,-z
-x,-y,-z
x,y,-z
-x,y,z
x,-y,z
1/2+x,1/2+y,z
1/2-x,1/2-y,z
1/2+x,1/2-y,-z
1/2-x,1/2+y,-z
1/2-x,1/2-y,-z
1/2+x,1/2+y,-z
1/2-x,1/2+y,z
1/2+x,1/2-y,z
loop_
_atom_site_type_symbol
_atom_site_label
_atom_site_fract_x
_atom_site_fract_y
_atom_site_fract_z
Si Si1 0.415898 0.786435 0.607802
Si Si2 0.834469 0.793101 0.901833
Si Si3 0.916292 0.213676 0.000000
Si Si4 0.834168 0.290371 0.294487
Si Si5 0.412119 0.203458 0.500000
Si Si6 0.918481 0.707870 0.198091
O O1 0.500000 0.738226 0.614817
O O2 0.368694 0.726734 0.654068
O O3 0.390371 0.723315 0.553502
O O4 0.414438 0.000000 0.606367
O O5 0.750000 0.750000 0.902326
O O6 0.875164 0.724852 0.950696
O O7 0.872864 0.735250 0.851504
O O8 0.841037 0.000000 0.903327
O O9 0.000000 0.266002 0.000000
O O10 0.915048 0.000000 0.000000
O O11 0.841608 0.500000 0.294946
O O12 0.750000 0.250000 0.290756
O O13 0.877235 0.222912 0.246525
O O14 0.500000 0.207825 0.500000
O O15 0.390691 0.000000 0.500000
O O16 0.924009 0.500000 0.204748
O O17 0.000000 0.777610 0.193395
#
# Coordination Sequence:
#
# PCOD9488463 Si02
#       6
#    16  16   8  16   8  16
#     4   8  13  24  44  68  92 121 160 204 247 290
#     4  11  22  37  58  82 110 142 174 210 254 303
#     4   9  19  36  57  81 108 139 176 215 254 298
#     4  10  20  33  49  70  99 133 165 201 248 300
#     4   7  10  18  37  66  93 115 150 203 250 286
#     4  10  21  37  56  78 103 132 170 215 260 307
#
# _framework density 20.852343999999999
#
# number of rings (size 3 to 8) (size 9 to 14) (size 15 to 20)
#    0.000    2.600    0.000    3.900    0.000    6.000 
#    0.000    2.000    0.000    5.400    0.000    0.000 
#    0.000    2.400    0.000    0.000    0.000    0.000 
#
# Total GULP energy -223279.293276 kJ/mol
# GULP energy per Si atom -5581.982332 kJ/mol
# Density = 2.080488 g / cm^3
# Si number density = 20.852344 Si / 1000 Ang^3
#
#
#
# Elastic Constant Matrix: (Units=GPa)
#
#
# Indices 1 2 3 4 5 6 
#
# 1 175.6576 0.2363 130.8978 0.0000 0.0000 0.0000
# 2 0.2363 37.8607 7.2722 0.0000 0.0000 0.0000
# 3 130.8978 7.2722 248.9120 0.0000 0.0000 0.0000
# 4 0.0000 0.0000 0.0000 0.9908 0.0000 0.0000
# 5 0.0000 0.0000 0.0000 0.0000 0.4149 0.0000
# 6 0.0000 0.0000 0.0000 0.0000 0.0000 13.8624
#
#
#
# Elastic Compliance Matrix: (Units=1/GPa)
#
#
# Indices 1 2 3 4 5 6 
#
# 1 0.009392 0.000895 -0.004965 0.000000 0.000000 0.000000
# 2 0.000895 0.026647 -0.001249 0.000000 0.000000 0.000000
# 3 -0.004965 -0.001249 0.006665 0.000000 0.000000 0.000000
# 4 0.000000 0.000000 0.000000 1.009244 0.000000 0.000000
# 5 0.000000 0.000000 0.000000 0.000000 2.409967 0.000000
# 6 0.000000 0.000000 0.000000 0.000000 0.000000 0.072138
#
#
# Mechanical properties :
#
#
# Convention : Reuss Voigt Hill
#
# Bulk Modulus (GPa) = 31.18643 82.13811 56.66227
# Shear Modulus (GPa) = 1.40632 24.65523 13.03077
#
# Velocity S-wave (km/s) = 0.82212 3.44229 2.50253
# Velocity P-wave (km/s) = 3.98616 7.43472 5.96509
#
# Compressibility (1/GPa) = 0.03206523
#
# Stress axis : x y z
#
# Youngs Moduli (GPa) = 106.47908 37.52768 150.03852
#
# Poissons Ratio (x) = -0.03359 0.74494
# Poissons Ratio (y) = -0.09530 0.18743
# Poissons Ratio (z) = 0.52866 0.04688
#
# Static dielectric constant tensor:
#      x y z
#    x 1.692500 0.000000 0.000000 
#    y 0.000000 1.795610 0.000000 
#    z 0.000000 0.000000 1.759040 
# 
# From -- ./inp_files/75118.got.cif
#   From: 2010.05.17/outbox.cif.g08.bks.cpg/sg65_38_cif.got.tgz:75118.got - 2010.06.03 17:01:31.
