data_PCOD9488291
_publ_section_title
;
Structure prediction by ZEFSAII (Michael W. Deem and Ramdas Pophale) SiO2 
 PCOD9488291
Probable space group: C M M M
;
_chemical_formula_sum "Si O2"
_cell_formula_units_Z 104
_cell_length_a 24.732270
_cell_length_b 23.058259
_cell_length_c 8.758425
_cell_angle_alpha 90.000000
_cell_angle_beta 90.000000
_cell_angle_gamma 90.000000
_cell_volume 4994.781649
_symmetry_space_group_name_H-M "C M M M"
_symmetry_group_IT_number 65
_symmetry_cell_setting 'orthorhombic'
loop_
_space_group_symop_operation_xyz
x,y,z
-x,-y,z
x,-y,-z
-x,y,-z
-x,-y,-z
x,y,-z
-x,y,z
x,-y,z
1/2+x,1/2+y,z
1/2-x,1/2-y,z
1/2+x,1/2-y,-z
1/2-x,1/2+y,-z
1/2-x,1/2-y,-z
1/2+x,1/2+y,-z
1/2-x,1/2+y,z
1/2+x,1/2-y,z
loop_
_atom_site_type_symbol
_atom_site_label
_atom_site_fract_x
_atom_site_fract_y
_atom_site_fract_z
Si Si1 0.562809 0.391388 0.829848
Si Si2 0.745377 0.346452 0.322506
Si Si3 0.834067 0.244647 0.324653
Si Si4 0.440726 0.929607 0.319931
Si Si5 0.827169 0.567045 0.818359
Si Si6 0.057354 0.248745 0.175025
Si Si7 0.437027 0.430688 0.500000
O O1 0.500000 0.412420 0.830149
O O2 0.560503 0.321510 0.825041
O O3 0.586564 0.411072 0.665334
O O4 0.585224 0.407640 0.000000
O O5 0.735870 0.361950 0.500000
O O6 0.789660 0.294852 0.320767
O O7 0.692220 0.314297 0.256168
O O8 0.774796 0.398300 0.237757
O O9 0.845658 0.230642 0.500000
O O10 0.888237 0.267832 0.252256
O O11 0.438267 0.916339 0.500000
O O12 0.500000 0.909664 0.260882
O O13 0.384828 0.909783 0.244233
O O14 0.441101 0.000000 0.304572
O O15 0.822689 0.500000 0.768422
O O16 0.829630 0.569175 0.000000
O O17 0.000000 0.265203 0.247750
O O18 0.057275 0.267790 0.000000
O O19 0.437063 0.500000 0.500000
O O20 0.500000 0.409318 0.500000
#
# Coordination Sequence:
#
# PCOD9488291 Si02
#       7
#    16  16  16  16  16  16   8
#     4   8  15  27  41  62  94 127 161 205 254 308
#     4   9  19  37  56  78 109 139 176 223 271 322
#     4   9  19  35  57  82 105 135 176 226 273 315
#     4   8  14  26  45  69  98 136 181 222 263 314
#     4  10  20  32  50  79 110 141 180 224 267 314
#     4   9  18  32  51  78 109 138 171 212 264 327
#     4   9  16  24  38  62  88 121 166 208 251 308
#
# _framework density 20.821729999999999
#
# number of rings (size 3 to 8) (size 9 to 14) (size 15 to 20)
#    0.000    3.154    0.000    2.769    1.077    3.077 
#    0.000    5.385    0.000    1.846    0.000    0.000 
#    0.000    0.000    0.000    0.000    0.000    0.000 
#
# Total GULP energy -289573.446041 kJ/mol
# GULP energy per Si atom -5568.720116 kJ/mol
# Density = 2.077434 g / cm^3
# Si number density = 20.821730 Si / 1000 Ang^3
#
#
#
# Elastic Constant Matrix: (Units=GPa)
#
#
# Indices 1 2 3 4 5 6 
#
# 1 79.1654 16.2078 12.6001 0.0000 0.0000 0.0000
# 2 16.2078 52.1099 21.4927 0.0000 0.0000 0.0000
# 3 12.6001 21.4927 69.6734 0.0000 0.0000 0.0000
# 4 0.0000 0.0000 0.0000 6.0476 0.0000 0.0000
# 5 0.0000 0.0000 0.0000 0.0000 20.2424 0.0000
# 6 0.0000 0.0000 0.0000 0.0000 0.0000 3.6673
#
#
#
# Elastic Compliance Matrix: (Units=1/GPa)
#
#
# Indices 1 2 3 4 5 6 
#
# 1 0.013596 -0.003683 -0.001323 0.000000 0.000000 0.000000
# 2 -0.003683 0.022986 -0.006424 0.000000 0.000000 0.000000
# 3 -0.001323 -0.006424 0.016574 0.000000 0.000000 0.000000
# 4 0.000000 0.000000 0.000000 0.165354 0.000000 0.000000
# 5 0.000000 0.000000 0.000000 0.000000 0.049401 0.000000
# 6 0.000000 0.000000 0.000000 0.000000 0.000000 0.272683
#
#
# Mechanical properties :
#
#
# Convention : Reuss Voigt Hill
#
# Bulk Modulus (GPa) = 33.00896 33.50557 33.25727
# Shear Modulus (GPa) = 8.71758 16.03467 12.37613
#
# Velocity S-wave (km/s) = 2.04838 2.77807 2.44065
# Velocity P-wave (km/s) = 4.63487 5.13972 4.89381
#
# Compressibility (1/GPa) = 0.03029480
#
# Stress axis : x y z
#
# Youngs Moduli (GPa) = 73.54888 43.50545 60.33673
#
# Poissons Ratio (x) = 0.16025 0.07980
# Poissons Ratio (y) = 0.27091 0.38763
# Poissons Ratio (z) = 0.09728 0.27950
#
# Static dielectric constant tensor:
#      x y z
#    x 1.769030 0.000000 0.000000 
#    y 0.000000 1.800290 0.000000 
#    z 0.000000 0.000000 1.750880 
# 
# From -- ./inp_files/17000.got.cif
#   From: 2010.05.17/outbox.cif.g08.bks.cpg/sg65_9_cif.got.tgz:17000.got - 2010.06.03 17:01:31.
