data_PCOD9488367
_publ_section_title
;
Structure prediction by ZEFSAII (Michael W. Deem and Ramdas Pophale) SiO2 
 PCOD9488367
Probable space group: C M M M
;
_chemical_formula_sum "Si O2"
_cell_formula_units_Z 80
_cell_length_a 27.019643
_cell_length_b 24.055905
_cell_length_c 8.821696
_cell_angle_alpha 90.000000
_cell_angle_beta 90.000000
_cell_angle_gamma 90.000000
_cell_volume 5733.943302
_symmetry_space_group_name_H-M "C M M M"
_symmetry_group_IT_number 65
_symmetry_cell_setting 'orthorhombic'
loop_
_space_group_symop_operation_xyz
x,y,z
-x,-y,z
x,-y,-z
-x,y,-z
-x,-y,-z
x,y,-z
-x,y,z
x,-y,z
1/2+x,1/2+y,z
1/2-x,1/2-y,z
1/2+x,1/2-y,-z
1/2-x,1/2+y,-z
1/2-x,1/2-y,-z
1/2+x,1/2+y,-z
1/2-x,1/2+y,z
1/2+x,1/2-y,z
loop_
_atom_site_type_symbol
_atom_site_label
_atom_site_fract_x
_atom_site_fract_y
_atom_site_fract_z
Si Si1 0.260385 0.115609 0.320342
Si Si2 0.893471 0.500000 0.680503
Si Si3 0.442971 0.109043 0.181896
Si Si4 0.298453 0.290065 0.825027
Si Si5 0.283142 0.000000 0.180823
Si Si6 0.351902 0.815913 0.817251
O O1 0.263103 0.109577 0.500000
O O2 0.215942 0.156752 0.272787
O O3 0.257725 0.055811 0.242007
O O4 0.310634 0.145257 0.260256
O O5 0.887953 0.500000 0.500000
O O6 0.922769 0.445598 0.735359
O O7 0.839340 0.500000 0.756242
O O8 0.500000 0.119857 0.220887
O O9 0.405620 0.159436 0.216922
O O10 0.440134 0.099343 0.000000
O O11 0.250000 0.250000 0.822355
O O12 0.341632 0.248096 0.773697
O O13 0.306361 0.306662 0.000000
O O14 0.284592 0.000000 0.000000
O O15 0.343960 0.819026 0.000000
#
# Coordination Sequence:
#
# PCOD9488367 Si02
#       6
#    16   8  16  16   8  16
#     4  11  20  29  43  65  86 106 136 176 216 254
#     4  12  23  33  44  61  82 110 146 189 231 259
#     4  10  20  33  48  63  81 113 152 185 219 258
#     4   8  15  28  44  61  81 109 140 168 206 255
#     4  12  22  33  47  60  82 115 145 177 214 259
#     4   9  17  30  46  61  82 112 143 176 212 255
#
# _framework density 13.952002999999999
#
# number of rings (size 3 to 8) (size 9 to 14) (size 15 to 20)
#    0.000    2.000    2.000    5.100    0.000    5.200 
#    0.000    0.000    0.000    0.000    0.000    0.000 
#    0.000    0.000    0.000    0.900    0.000   21.200 
#
# Total GULP energy -223075.093125 kJ/mol
# GULP energy per Si atom -5576.877328 kJ/mol
# Density = 1.392025 g / cm^3
# Si number density = 13.952003 Si / 1000 Ang^3
#
#
#
# Elastic Constant Matrix: (Units=GPa)
#
#
# Indices 1 2 3 4 5 6 
#
# 1 65.1431 61.3652 33.7430 0.0000 0.0000 0.0000
# 2 61.3652 112.2440 54.0615 0.0000 0.0000 0.0000
# 3 33.7430 54.0615 67.1161 0.0000 0.0000 0.0000
# 4 0.0000 0.0000 0.0000 -39.0242 0.0000 0.0000
# 5 0.0000 0.0000 0.0000 0.0000 3.1631 0.0000
# 6 0.0000 0.0000 0.0000 0.0000 0.0000 10.4111
#
#
#
# Elastic Compliance Matrix: (Units=1/GPa)
#
#
# Indices 1 2 3 4 5 6 
#
# 1 0.032085 -0.015966 -0.003270 0.000000 0.000000 0.000000
# 2 -0.015966 0.022502 -0.010098 0.000000 0.000000 0.000000
# 3 -0.003270 -0.010098 0.024677 0.000000 0.000000 0.000000
# 4 0.000000 0.000000 0.000000 -0.025625 0.000000 0.000000
# 5 0.000000 0.000000 0.000000 0.000000 0.316148 0.000000
# 6 0.000000 0.000000 0.000000 0.000000 0.000000 0.096051
#
#
# Mechanical properties :
#
#
# Convention : Reuss Voigt Hill
#
# Bulk Modulus (GPa) = 48.55425 60.31584 54.43505
# Shear Modulus (GPa) = 9.40961 1.26557 5.33759
#
# Velocity S-wave (km/s) = 2.59979 0.95345 1.95806
# Velocity P-wave (km/s) = 6.62483 6.67360 6.64926
#
# Compressibility (1/GPa) = 0.02059552
#
# Stress axis : x y z
#
# Youngs Moduli (GPa) = 31.16725 44.44137 40.52293
#
# Poissons Ratio (x) = 0.70956 0.13252
# Poissons Ratio (y) = 0.49762 0.40919
# Poissons Ratio (z) = 0.10193 0.44876
#
# Static dielectric constant tensor:
#      x y z
#    x 1.451790 0.000000 0.000000 
#    y 0.000000 1.466510 0.000000 
#    z 0.000000 0.000000 1.463560 
# 
# From -- ./inp_files/12126.got.cif
#   From: 2010.05.17/outbox.cif.g08.bks.cpg/sg65_7_cif.got.tgz:12126.got - 2010.06.03 17:01:31.
