data_PCOD9488923
_publ_section_title
;
Structure prediction by ZEFSAII (Michael W. Deem and Ramdas Pophale) SiO2 
 PCOD9488923
Probable space group: C M M M
;
_chemical_formula_sum "Si O2"
_cell_formula_units_Z 80
_cell_length_a 7.509022
_cell_length_b 29.741236
_cell_length_c 16.267902
_cell_angle_alpha 90.000000
_cell_angle_beta 90.000000
_cell_angle_gamma 90.000000
_cell_volume 3633.071436
_symmetry_space_group_name_H-M "C M M M"
_symmetry_group_IT_number 65
_symmetry_cell_setting 'orthorhombic'
loop_
_space_group_symop_operation_xyz
x,y,z
-x,-y,z
x,-y,-z
-x,y,-z
-x,-y,-z
x,y,-z
-x,y,z
x,-y,z
1/2+x,1/2+y,z
1/2-x,1/2-y,z
1/2+x,1/2-y,-z
1/2-x,1/2+y,-z
1/2-x,1/2-y,-z
1/2+x,1/2+y,-z
1/2-x,1/2+y,z
1/2+x,1/2-y,z
loop_
_atom_site_type_symbol
_atom_site_label
_atom_site_fract_x
_atom_site_fract_y
_atom_site_fract_z
Si Si1 0.786345 0.950231 0.162939
Si Si2 0.710057 0.950702 0.643537
Si Si3 0.709050 0.855383 0.909917
Si Si4 0.713485 0.197331 0.751769
Si Si5 0.718130 0.145918 0.589914
O O1 0.728963 0.944797 0.258001
O O2 0.722074 0.908199 0.110671
O O3 0.000000 0.949641 0.161248
O O4 0.726376 0.000000 0.135654
O O5 0.500000 0.952357 0.624453
O O6 0.779497 0.905621 0.601894
O O7 0.785603 0.000000 0.622392
O O8 0.500000 0.843941 0.913724
O O9 0.784929 0.828104 0.832523
O O10 0.786614 0.846045 0.000000
O O11 0.500000 0.190784 0.751320
O O12 0.750000 0.250000 0.754952
O O13 0.779906 0.175049 0.667299
O O14 0.771604 0.162765 0.500000
O O15 0.500000 0.145516 0.591837
#
# Coordination Sequence:
#
# PCOD9488923 Si02
#       5
#    16  16  16  16  16
#     4  10  20  33  52  80 114 148 180 216 261 312
#     4   9  16  29  52  79 108 144 183 218 258 312
#     4  10  21  38  59  81 106 139 180 222 265 317
#     4  10  21  38  57  79 106 138 176 222 273 323
#     4   9  17  31  53  81 111 140 174 219 266 313
#
# _framework density 22.019936000000001
#
# number of rings (size 3 to 8) (size 9 to 14) (size 15 to 20)
#    0.000    2.400    2.000    0.600    0.000    4.000 
#    0.000    4.000    0.000    1.800    0.000    2.800 
#    0.000    0.000    0.000    0.000    0.000    0.000 
#
# Total GULP energy -223363.630971 kJ/mol
# GULP energy per Si atom -5584.090774 kJ/mol
# Density = 2.196982 g / cm^3
# Si number density = 22.019936 Si / 1000 Ang^3
#
#
#
# Elastic Constant Matrix: (Units=GPa)
#
#
# Indices 1 2 3 4 5 6 
#
# 1 59.8461 -3.9892 4.0070 0.0000 0.0000 0.0000
# 2 -3.9892 138.8426 109.8012 0.0000 0.0000 0.0000
# 3 4.0070 109.8012 192.2118 0.0000 0.0000 0.0000
# 4 0.0000 0.0000 0.0000 -1.7893 0.0000 0.0000
# 5 0.0000 0.0000 0.0000 0.0000 -23.3732 0.0000
# 6 0.0000 0.0000 0.0000 0.0000 0.0000 14.9524
#
#
#
# Elastic Compliance Matrix: (Units=1/GPa)
#
#
# Indices 1 2 3 4 5 6 
#
# 1 0.016879 0.001392 -0.001147 0.000000 0.000000 0.000000
# 2 0.001392 0.013252 -0.007599 0.000000 0.000000 0.000000
# 3 -0.001147 -0.007599 0.009568 0.000000 0.000000 0.000000
# 4 0.000000 0.000000 0.000000 -0.558885 0.000000 0.000000
# 5 0.000000 0.000000 0.000000 0.000000 -0.042784 0.000000
# 6 0.000000 0.000000 0.000000 0.000000 0.000000 0.066879
#
#
# Mechanical properties :
#
#
# Convention : Reuss Voigt Hill
#
# Bulk Modulus (GPa) = 40.01551 67.83762 53.92656
# Shear Modulus (GPa) = -10.59205 16.69674 3.05234
#
# Velocity S-wave (km/s) = -2.19560 2.75663 1.17864
# Velocity P-wave (km/s) = 3.43283 6.40361 5.13763
#
# Compressibility (1/GPa) = 0.02499031
#
# Stress axis : x y z
#
# Youngs Moduli (GPa) = 59.24476 75.45901 104.51875
#
# Poissons Ratio (x) = -0.10505 0.11990
# Poissons Ratio (y) = -0.08248 0.79428
# Poissons Ratio (z) = 0.06796 0.57344
#
# Static dielectric constant tensor:
#      x y z
#    x 1.875450 0.000000 0.000000 
#    y 0.000000 1.770300 0.000000 
#    z 0.000000 0.000000 1.806060 
# 
# From -- ./inp_files/49883.got.cif
#   From: 2010.05.17/outbox.cif.g08.bks.cpg/sg65_25_cif.got.tgz:49883.got - 2010.06.03 17:01:31.
