data_PCOD9488867
_publ_section_title
;
Structure prediction by ZEFSAII (Michael W. Deem and Ramdas Pophale) SiO2 
 PCOD9488867
Probable space group: C M M M
;
_chemical_formula_sum "Si O2"
_cell_formula_units_Z 80
_cell_length_a 14.716193
_cell_length_b 32.256807
_cell_length_c 7.423469
_cell_angle_alpha 90.000000
_cell_angle_beta 90.000000
_cell_angle_gamma 90.000000
_cell_volume 3523.901414
_symmetry_space_group_name_H-M "C M M M"
_symmetry_group_IT_number 65
_symmetry_cell_setting 'orthorhombic'
loop_
_space_group_symop_operation_xyz
x,y,z
-x,-y,z
x,-y,-z
-x,y,-z
-x,-y,-z
x,y,-z
-x,y,z
x,-y,z
1/2+x,1/2+y,z
1/2-x,1/2-y,z
1/2+x,1/2-y,-z
1/2-x,1/2+y,-z
1/2-x,1/2-y,-z
1/2+x,1/2+y,-z
1/2-x,1/2+y,z
1/2+x,1/2-y,z
loop_
_atom_site_type_symbol
_atom_site_label
_atom_site_fract_x
_atom_site_fract_y
_atom_site_fract_z
Si Si1 0.393947 0.370128 0.280115
Si Si2 0.099293 0.437875 0.216190
Si Si3 0.195933 0.044592 0.708830
Si Si4 0.222251 0.206234 0.703116
Si Si5 0.401141 0.839943 0.783586
O O1 0.385753 0.369233 0.500000
O O2 0.500000 0.372073 0.234661
O O3 0.342725 0.412019 0.216250
O O4 0.347486 0.327302 0.216014
O O5 0.194454 0.454578 0.285683
O O6 0.101200 0.388811 0.254370
O O7 0.000000 0.453091 0.279437
O O8 0.100791 0.443667 0.000000
O O9 0.167341 0.044313 0.500000
O O10 0.166539 0.000000 0.787888
O O11 0.188766 0.215988 0.500000
O O12 0.250000 0.250000 0.790464
O O13 0.316584 0.181700 0.695735
O O14 0.500000 0.823612 0.728418
O O15 0.393635 0.835416 0.000000
#
# Coordination Sequence:
#
# PCOD9488867 Si02
#       5
#    16  16  16  16  16
#     4   9  18  34  53  73 103 138 171 214 262 304
#     4   9  18  33  53  76 103 138 175 208 253 315
#     4  10  20  33  52  78 103 132 176 222 262 309
#     4  10  20  33  53  81 107 135 172 210 256 313
#     4   9  18  33  53  76 103 136 172 209 252 306
#
# _framework density 22.702110999999999
#
# number of rings (size 3 to 8) (size 9 to 14) (size 15 to 20)
#    0.000    2.600    2.000    1.200    0.000    3.200 
#    0.000    8.000    0.000    2.400    0.000    1.400 
#    0.000    0.000    0.000    0.000    0.000    0.000 
#
# Total GULP energy -223145.974106 kJ/mol
# GULP energy per Si atom -5578.649353 kJ/mol
# Density = 2.265044 g / cm^3
# Si number density = 22.702111 Si / 1000 Ang^3
#
#
#
# Elastic Constant Matrix: (Units=GPa)
#
#
# Indices 1 2 3 4 5 6 
#
# 1 130.2051 75.8708 -1.4914 0.0000 0.0000 0.0000
# 2 75.8708 182.5268 15.4430 0.0000 0.0000 0.0000
# 3 -1.4914 15.4430 63.5997 0.0000 0.0000 0.0000
# 4 0.0000 0.0000 0.0000 -9.8316 0.0000 0.0000
# 5 0.0000 0.0000 0.0000 0.0000 28.4679 0.0000
# 6 0.0000 0.0000 0.0000 0.0000 0.0000 -11.9096
#
#
#
# Elastic Compliance Matrix: (Units=1/GPa)
#
#
# Indices 1 2 3 4 5 6 
#
# 1 0.010239 -0.004366 0.001300 0.000000 0.000000 0.000000
# 2 -0.004366 0.007455 -0.001913 0.000000 0.000000 0.000000
# 3 0.001300 -0.001913 0.016218 0.000000 0.000000 0.000000
# 4 0.000000 0.000000 0.000000 -0.101713 0.000000 0.000000
# 5 0.000000 0.000000 0.000000 0.000000 0.035127 0.000000
# 6 0.000000 0.000000 0.000000 0.000000 0.000000 -0.083966
#
#
# Mechanical properties :
#
#
# Convention : Reuss Voigt Hill
#
# Bulk Modulus (GPa) = 41.74356 61.77514 51.75935
# Shear Modulus (GPa) = -50.66035 20.44596 -15.10719
#
# Velocity S-wave (km/s) = -4.72903 3.00429 -2.58244
# Velocity P-wave (km/s) = 3.37503 6.26934 3.73589
#
# Compressibility (1/GPa) = 0.02395579
#
# Stress axis : x y z
#
# Youngs Moduli (GPa) = 97.66340 134.13190 61.65887
#
# Poissons Ratio (x) = 0.58564 -0.08017
# Poissons Ratio (y) = 0.42641 0.11793
# Poissons Ratio (z) = -0.12699 0.25655
#
# Static dielectric constant tensor:
#      x y z
#    x 1.798810 0.000000 0.000000 
#    y 0.000000 1.868180 0.000000 
#    z 0.000000 0.000000 1.871650 
# 
# From -- ./inp_files/22847.got.cif
#   From: 2010.05.17/outbox.cif.g08.bks.cpg/sg65_12_cif.got.tgz:22847.got - 2010.06.03 17:01:31.
