data_PCOD9488743
_publ_section_title
;
Structure prediction by ZEFSAII (Michael W. Deem and Ramdas Pophale) SiO2 
 PCOD9488743
Probable space group: C M M M
;
_chemical_formula_sum "Si O2"
_cell_formula_units_Z 104
_cell_length_a 24.696437
_cell_length_b 27.122750
_cell_length_c 8.950248
_cell_angle_alpha 90.000000
_cell_angle_beta 90.000000
_cell_angle_gamma 90.000000
_cell_volume 5995.191935
_symmetry_space_group_name_H-M "C M M M"
_symmetry_group_IT_number 65
_symmetry_cell_setting 'orthorhombic'
loop_
_space_group_symop_operation_xyz
x,y,z
-x,-y,z
x,-y,-z
-x,y,-z
-x,-y,-z
x,y,-z
-x,y,z
x,-y,z
1/2+x,1/2+y,z
1/2-x,1/2-y,z
1/2+x,1/2-y,-z
1/2-x,1/2+y,-z
1/2-x,1/2-y,-z
1/2+x,1/2+y,-z
1/2-x,1/2+y,z
1/2+x,1/2-y,z
loop_
_atom_site_type_symbol
_atom_site_label
_atom_site_fract_x
_atom_site_fract_y
_atom_site_fract_z
Si Si1 0.062123 0.398831 0.179539
Si Si2 0.648336 0.557130 0.680310
Si Si3 0.764947 0.137544 0.678698
Si Si4 0.844411 0.325955 0.819913
Si Si5 0.437397 0.368780 0.820267
Si Si6 0.934132 0.500000 0.328697
Si Si7 0.150018 0.788441 0.179790
O O1 0.101003 0.354403 0.222447
O O2 0.082811 0.450098 0.247365
O O3 0.000000 0.390938 0.227716
O O4 0.062168 0.403113 0.000000
O O5 0.643918 0.558620 0.500000
O O6 0.649381 0.500000 0.727146
O O7 0.702868 0.587425 0.721006
O O8 0.598149 0.587547 0.748604
O O9 0.761235 0.139279 0.500000
O O10 0.706547 0.146172 0.749577
O O11 0.802910 0.181488 0.738836
O O12 0.848072 0.268633 0.776118
O O13 0.839132 0.327360 0.000000
O O14 0.500000 0.368579 0.771676
O O15 0.405699 0.317687 0.786468
O O16 0.436438 0.374595 0.000000
O O17 0.916778 0.500000 0.500000
O O18 0.000000 0.500000 0.324036
O O19 0.158170 0.791245 0.000000
#
# Coordination Sequence:
#
# PCOD9488743 Si02
#       7
#    16  16  16  16  16   8  16
#     4   9  18  33  52  73  99 130 163 201 245 295
#     4   9  19  36  54  71  97 134 172 209 251 301
#     4  10  20  34  52  73  98 130 169 211 253 299
#     4  10  20  33  51  76 102 129 166 207 248 298
#     4   9  18  32  51  77 106 134 167 206 248 296
#     4   9  17  31  51  71  93 125 161 195 236 285
#     4   9  18  33  52  72 100 136 167 202 248 297
#
# _framework density 17.347234
#
# number of rings (size 3 to 8) (size 9 to 14) (size 15 to 20)
#    0.000    2.692    0.000    1.154    0.000    6.154 
#    1.385    4.615    0.000    0.000    0.000    4.308 
#    0.000    0.000    0.000    0.000    0.000    0.000 
#
# Total GULP energy -289895.329336 kJ/mol
# GULP energy per Si atom -5574.910180 kJ/mol
# Density = 1.730775 g / cm^3
# Si number density = 17.347234 Si / 1000 Ang^3
#
#
#
# Elastic Constant Matrix: (Units=GPa)
#
#
# Indices 1 2 3 4 5 6 
#
# 1 118.9859 65.2657 28.7257 0.0000 0.0000 0.0000
# 2 65.2657 69.9928 21.7379 0.0000 0.0000 0.0000
# 3 28.7257 21.7379 9.2643 0.0000 0.0000 0.0000
# 4 0.0000 0.0000 0.0000 15.3406 0.0000 0.0000
# 5 0.0000 0.0000 0.0000 0.0000 18.0167 0.0000
# 6 0.0000 0.0000 0.0000 0.0000 0.0000 9.9491
#
#
#
# Elastic Compliance Matrix: (Units=1/GPa)
#
#
# Indices 1 2 3 4 5 6 
#
# 1 0.033697 0.003792 -0.113380 0.000000 0.000000 0.000000
# 2 0.003792 0.053095 -0.136339 0.000000 0.000000 0.000000
# 3 -0.113380 -0.136339 0.779401 0.000000 0.000000 0.000000
# 4 0.000000 0.000000 0.000000 0.065187 0.000000 0.000000
# 5 0.000000 0.000000 0.000000 0.000000 0.055504 0.000000
# 6 0.000000 0.000000 0.000000 0.000000 0.000000 0.100512
#
#
# Mechanical properties :
#
#
# Convention : Reuss Voigt Hill
#
# Bulk Modulus (GPa) = 2.67138 47.74465 25.20801
# Shear Modulus (GPa) = 2.93422 14.16217 8.54820
#
# Velocity S-wave (km/s) = 1.30197 2.86036 2.22225
# Velocity P-wave (km/s) = 1.95025 6.20416 4.59864
#
# Compressibility (1/GPa) = 0.37433873
#
# Stress axis : x y z
#
# Youngs Moduli (GPa) = 29.67639 18.83422 1.28304
#
# Poissons Ratio (x) = -0.07141 0.14547
# Poissons Ratio (y) = -0.11253 0.17493
# Poissons Ratio (z) = 3.36470 2.56784
#
# Static dielectric constant tensor:
#      x y z
#    x 1.582200 0.000000 0.000000 
#    y 0.000000 1.575860 0.000000 
#    z 0.000000 0.000000 1.582530 
# 
# From -- ./inp_files/12431.got.cif
#   From: 2010.05.17/outbox.cif.g08.bks.cpg/sg65_7_cif.got.tgz:12431.got - 2010.06.03 17:01:31.
