data_PCOD9488386
_publ_section_title
;
Structure prediction by ZEFSAII (Michael W. Deem and Ramdas Pophale) SiO2 
 PCOD9488386
Probable space group: C M M M
;
_chemical_formula_sum "Si O2"
_cell_formula_units_Z 88
_cell_length_a 31.007494
_cell_length_b 20.177760
_cell_length_c 8.627327
_cell_angle_alpha 90.000000
_cell_angle_beta 90.000000
_cell_angle_gamma 90.000000
_cell_volume 5397.788700
_symmetry_space_group_name_H-M "C M M M"
_symmetry_group_IT_number 65
_symmetry_cell_setting 'orthorhombic'
loop_
_space_group_symop_operation_xyz
x,y,z
-x,-y,z
x,-y,-z
-x,y,-z
-x,-y,-z
x,y,-z
-x,y,z
x,-y,z
1/2+x,1/2+y,z
1/2-x,1/2-y,z
1/2+x,1/2-y,-z
1/2-x,1/2+y,-z
1/2-x,1/2-y,-z
1/2+x,1/2+y,-z
1/2-x,1/2+y,z
1/2+x,1/2-y,z
loop_
_atom_site_type_symbol
_atom_site_label
_atom_site_fract_x
_atom_site_fract_y
_atom_site_fract_z
Si Si1 0.549854 0.856944 0.685142
Si Si2 0.552340 0.000000 0.176773
Si Si3 0.671376 0.075145 0.681547
Si Si4 0.206637 0.791040 0.315058
Si Si5 0.233759 0.926212 0.183139
Si Si6 0.631170 0.797312 0.819703
O O1 0.552212 0.854667 0.500000
O O2 0.500000 0.846638 0.732798
O O3 0.563042 0.931281 0.738317
O O4 0.582729 0.803902 0.755776
O O5 0.500000 0.000000 0.171110
O O6 0.568584 0.000000 0.000000
O O7 0.663934 0.091119 0.500000
O O8 0.722217 0.076887 0.718340
O O9 0.650199 0.129491 0.789373
O O10 0.656570 0.000000 0.710662
O O11 0.208943 0.798684 0.500000
O O12 0.250000 0.750000 0.266811
O O13 0.206848 0.862765 0.235090
O O14 0.164011 0.750786 0.268981
O O15 0.214722 0.000000 0.208092
O O16 0.244044 0.920915 0.000000
O O17 0.631361 0.781020 0.000000
#
# Coordination Sequence:
#
# PCOD9488386 Si02
#       6
#    16   8  16  16  16  16
#     4  10  21  37  54  71  96 130 169 213 260 310
#     4   9  17  31  51  73  97 127 167 215 263 305
#     4  10  20  33  48  68  97 133 174 215 255 303
#     4  11  22  36  54  75 103 138 174 212 254 304
#     4  10  20  34  53  76 102 133 170 212 257 303
#     4  12  24  35  52  74 100 133 171 217 263 308
#
# _framework density 16.302973000000001
#
# number of rings (size 3 to 8) (size 9 to 14) (size 15 to 20)
#    0.000    1.545    1.818    4.091    1.273    5.091 
#    0.000    0.000    0.000    0.000    0.000    0.000 
#    0.000    0.727    0.000    7.636    0.000    3.273 
#
# Total GULP energy -245716.030937 kJ/mol
# GULP energy per Si atom -5584.455249 kJ/mol
# Density = 1.626587 g / cm^3
# Si number density = 16.302973 Si / 1000 Ang^3
#
#
#
# Elastic Constant Matrix: (Units=GPa)
#
#
# Indices 1 2 3 4 5 6 
#
# 1 74.8133 39.1432 6.6919 0.0000 0.0000 0.0000
# 2 39.1432 76.3067 15.9706 0.0000 0.0000 0.0000
# 3 6.6919 15.9706 45.5053 0.0000 0.0000 0.0000
# 4 0.0000 0.0000 0.0000 26.4686 0.0000 0.0000
# 5 0.0000 0.0000 0.0000 0.0000 22.3134 0.0000
# 6 0.0000 0.0000 0.0000 0.0000 0.0000 23.4254
#
#
#
# Elastic Compliance Matrix: (Units=1/GPa)
#
#
# Indices 1 2 3 4 5 6 
#
# 1 0.018288 -0.009517 0.000651 0.000000 0.000000 0.000000
# 2 -0.009517 0.019097 -0.005303 0.000000 0.000000 0.000000
# 3 0.000651 -0.005303 0.023741 0.000000 0.000000 0.000000
# 4 0.000000 0.000000 0.000000 0.037781 0.000000 0.000000
# 5 0.000000 0.000000 0.000000 0.000000 0.044816 0.000000
# 6 0.000000 0.000000 0.000000 0.000000 0.000000 0.042689
#
#
# Mechanical properties :
#
#
# Convention : Reuss Voigt Hill
#
# Bulk Modulus (GPa) = 30.49968 35.58186 33.04077
# Shear Modulus (GPa) = 22.15535 23.42944 22.79239
#
# Velocity S-wave (km/s) = 3.69043 3.79506 3.74311
# Velocity P-wave (km/s) = 6.07517 6.40906 6.24435
#
# Compressibility (1/GPa) = 0.03278723
#
# Stress axis : x y z
#
# Youngs Moduli (GPa) = 54.68059 52.36418 42.12159
#
# Poissons Ratio (x) = 0.49837 -0.02741
# Poissons Ratio (y) = 0.52042 0.22336
# Poissons Ratio (z) = -0.03559 0.27767
#
# Static dielectric constant tensor:
#      x y z
#    x 1.577620 0.000000 0.000000 
#    y 0.000000 1.542970 0.000000 
#    z 0.000000 0.000000 1.546050 
# 
# From -- ./inp_files/12626.got.cif
#   From: 2010.05.17/outbox.cif.g08.bks.cpg/sg65_7_cif.got.tgz:12626.got - 2010.06.03 17:01:31.
