data_PCOD9488625
_publ_section_title
;
Structure prediction by ZEFSAII (Michael W. Deem and Ramdas Pophale) SiO2 
 PCOD9488625
Probable space group: C M M M
;
_chemical_formula_sum "Si O2"
_cell_formula_units_Z 88
_cell_length_a 22.436824
_cell_length_b 8.286751
_cell_length_c 23.889353
_cell_angle_alpha 90.000000
_cell_angle_beta 90.000000
_cell_angle_gamma 90.000000
_cell_volume 4441.708552
_symmetry_space_group_name_H-M "C M M M"
_symmetry_group_IT_number 65
_symmetry_cell_setting 'orthorhombic'
loop_
_space_group_symop_operation_xyz
x,y,z
-x,-y,z
x,-y,-z
-x,y,-z
-x,-y,-z
x,y,-z
-x,y,z
x,-y,z
1/2+x,1/2+y,z
1/2-x,1/2-y,z
1/2+x,1/2-y,-z
1/2-x,1/2+y,-z
1/2-x,1/2-y,-z
1/2+x,1/2+y,-z
1/2-x,1/2+y,z
1/2+x,1/2-y,z
loop_
_atom_site_type_symbol
_atom_site_label
_atom_site_fract_x
_atom_site_fract_y
_atom_site_fract_z
Si Si1 0.433255 0.305334 0.434550
Si Si2 0.183382 0.309331 0.938944
Si Si3 0.815119 0.693097 0.630239
Si Si4 0.897346 0.181802 0.851245
Si Si5 0.314659 0.808261 0.241466
Si Si6 0.000000 0.801113 0.065678
O O1 0.428682 0.258804 0.500000
O O2 0.500000 0.252281 0.414653
O O3 0.432949 0.500000 0.431906
O O4 0.374568 0.245743 0.402414
O O5 0.179804 0.500000 0.924068
O O6 0.250000 0.250000 0.945226
O O7 0.158568 0.193384 0.891988
O O8 0.153336 0.288912 0.000000
O O9 0.813809 0.500000 0.630792
O O10 0.750000 0.750000 0.608246
O O11 0.819625 0.753630 0.694672
O O12 0.872202 0.260458 0.794993
O O13 0.945630 0.254027 0.894418
O O14 0.916063 0.000000 0.838154
O O15 0.250000 0.750000 0.219104
O O16 0.311948 0.000000 0.242580
O O17 0.000000 0.000000 0.063619
O O18 0.000000 0.749606 0.000000
#
# Coordination Sequence:
#
# PCOD9488625 Si02
#       6
#    16  16  16  16  16   8
#     4   9  19  37  60  87 121 161 203 248 298 351
#     4  10  20  33  50  74 102 130 163 206 259 317
#     4  10  21  37  59  86 118 157 201 249 300 353
#     4  11  21  35  56  78 102 135 176 220 267 324
#     4  10  21  38  58  82 112 145 182 228 280 335
#     4   9  20  38  57  77 103 137 178 223 270 325
#
# _framework density 19.812194999999999
#
# number of rings (size 3 to 8) (size 9 to 14) (size 15 to 20)
#    0.000    2.091    0.000    3.818    0.000    5.091 
#    1.636    2.727    0.000    3.273    0.000    0.000 
#    0.000    0.000    0.000    0.000    0.000    0.000 
#
# Total GULP energy -244948.953279 kJ/mol
# GULP energy per Si atom -5567.021665 kJ/mol
# Density = 1.976710 g / cm^3
# Si number density = 19.812195 Si / 1000 Ang^3
#
#
#
# Elastic Constant Matrix: (Units=GPa)
#
#
# Indices 1 2 3 4 5 6 
#
# 1 149.5217 13.7543 75.7996 0.0000 0.0000 0.0000
# 2 13.7543 38.4253 15.0742 0.0000 0.0000 0.0000
# 3 75.7996 15.0742 79.2843 0.0000 0.0000 0.0000
# 4 0.0000 0.0000 0.0000 29.0354 0.0000 0.0000
# 5 0.0000 0.0000 0.0000 0.0000 29.7947 0.0000
# 6 0.0000 0.0000 0.0000 0.0000 0.0000 22.8586
#
#
#
# Elastic Compliance Matrix: (Units=1/GPa)
#
#
# Indices 1 2 3 4 5 6 
#
# 1 0.012980 0.000240 -0.012455 0.000000 0.000000 0.000000
# 2 0.000240 0.028127 -0.005577 0.000000 0.000000 0.000000
# 3 -0.012455 -0.005577 0.025581 0.000000 0.000000 0.000000
# 4 0.000000 0.000000 0.000000 0.034441 0.000000 0.000000
# 5 0.000000 0.000000 0.000000 0.000000 0.033563 0.000000
# 6 0.000000 0.000000 0.000000 0.000000 0.000000 0.043747
#
#
# Mechanical properties :
#
#
# Convention : Reuss Voigt Hill
#
# Bulk Modulus (GPa) = 32.15127 52.94303 42.54715
# Shear Modulus (GPa) = 22.28259 27.17796 24.73027
#
# Velocity S-wave (km/s) = 3.35728 3.70777 3.53687
# Velocity P-wave (km/s) = 5.59390 6.71644 6.18071
#
# Compressibility (1/GPa) = 0.03110297
#
# Stress axis : x y z
#
# Youngs Moduli (GPa) = 77.04154 35.55365 39.09167
#
# Poissons Ratio (x) = -0.00853 0.48689
# Poissons Ratio (y) = -0.01849 0.21802
# Poissons Ratio (z) = 0.95956 0.19828
#
# Static dielectric constant tensor:
#      x y z
#    x 1.947460 0.000000 0.000000 
#    y 0.000000 1.743520 0.000000 
#    z 0.000000 0.000000 1.722300 
# 
# From -- ./inp_files/71032.got.cif
#   From: 2010.05.17/outbox.cif.g08.bks.cpg/sg65_36_cif.got.tgz:71032.got - 2010.06.03 17:01:31.
