data_PCOD9488496
_publ_section_title
;
Structure prediction by ZEFSAII (Michael W. Deem and Ramdas Pophale) SiO2 
 PCOD9488496
Probable space group: C M M M
;
_chemical_formula_sum "Si O2"
_cell_formula_units_Z 116
_cell_length_a 30.944910
_cell_length_b 7.762886
_cell_length_c 24.770609
_cell_angle_alpha 90.000000
_cell_angle_beta 90.000000
_cell_angle_gamma 90.000000
_cell_volume 5950.440494
_symmetry_space_group_name_H-M "C M M M"
_symmetry_group_IT_number 65
_symmetry_cell_setting 'orthorhombic'
loop_
_space_group_symop_operation_xyz
x,y,z
-x,-y,z
x,-y,-z
-x,y,-z
-x,-y,-z
x,y,-z
-x,y,z
x,-y,z
1/2+x,1/2+y,z
1/2-x,1/2-y,z
1/2+x,1/2-y,-z
1/2-x,1/2+y,-z
1/2-x,1/2-y,-z
1/2+x,1/2+y,-z
1/2-x,1/2+y,z
1/2+x,1/2-y,z
loop_
_atom_site_type_symbol
_atom_site_label
_atom_site_fract_x
_atom_site_fract_y
_atom_site_fract_z
Si Si1 0.784172 0.500000 0.500000
Si Si2 0.450728 0.792786 0.729906
Si Si3 0.200744 0.206423 0.748719
Si Si4 0.129392 0.700719 0.662364
Si Si5 0.176762 0.811139 0.557069
Si Si6 0.950956 0.207424 0.148111
Si Si7 0.119154 0.211323 0.061601
Si Si8 0.701378 0.293362 0.872132
O O1 0.791486 0.347395 0.546583
O O2 0.500000 0.728282 0.722767
O O3 0.415127 0.728880 0.687666
O O4 0.436697 0.751326 0.791151
O O5 0.451835 0.000000 0.725455
O O6 0.250000 0.250000 0.732976
O O7 0.165889 0.283729 0.708407
O O8 0.194795 0.269240 0.810524
O O9 0.195648 0.000000 0.747716
O O10 0.123107 0.500000 0.648999
O O11 0.147516 0.790245 0.609047
O O12 0.150628 0.807340 0.500000
O O13 0.198609 0.000000 0.558201
O O14 0.918651 0.268902 0.101970
O O15 0.000000 0.272340 0.141377
O O16 0.952088 0.000000 0.144692
O O17 0.164549 0.268186 0.087400
O O18 0.118856 0.000000 0.061371
O O19 0.113642 0.267334 0.000000
O O20 0.698031 0.500000 0.869725
O O21 0.750000 0.250000 0.888980
#
# Coordination Sequence:
#
# PCOD9488496 Si02
#       8
#     4  16  16  16  16  16  16  16
#     4   8  14  32  48  74 107 138 188 226 256 324
#     4   9  19  33  50  74 103 135 169 206 255 313
#     4  10  20  33  49  73 101 130 167 209 258 315
#     4  11  19  31  52  76 104 137 172 215 262 308
#     4   9  17  30  50  76 105 142 183 223 268 315
#     4   9  17  30  48  69  94 123 157 201 249 299
#     4   9  17  29  46  69  94 121 157 200 247 300
#     4   9  18  32  48  65  91 124 157 198 248 301
#
# _framework density 19.494354999999999
#
# number of rings (size 3 to 8) (size 9 to 14) (size 15 to 20)
#    0.414    2.207    0.690    1.655    0.000    3.310 
#    0.000    2.069    0.000    2.069    0.000    5.310 
#    0.000    0.000    0.000    0.000    0.000    0.000 
#
# Total GULP energy -322909.523203 kJ/mol
# GULP energy per Si atom -5567.405572 kJ/mol
# Density = 1.944998 g / cm^3
# Si number density = 19.494355 Si / 1000 Ang^3
#
#
#
# Elastic Constant Matrix: (Units=GPa)
#
#
# Indices 1 2 3 4 5 6 
#
# 1 96.9573 13.1538 83.1510 0.0000 0.0000 0.0000
# 2 13.1538 68.2299 19.0012 0.0000 0.0000 0.0000
# 3 83.1510 19.0012 120.3861 0.0000 0.0000 0.0000
# 4 0.0000 0.0000 0.0000 14.3686 0.0000 0.0000
# 5 0.0000 0.0000 0.0000 0.0000 -13.1365 0.0000
# 6 0.0000 0.0000 0.0000 0.0000 0.0000 15.3330
#
#
#
# Elastic Compliance Matrix: (Units=1/GPa)
#
#
# Indices 1 2 3 4 5 6 
#
# 1 0.025301 -0.000011 -0.017473 0.000000 0.000000 0.000000
# 2 -0.000011 0.015330 -0.002412 0.000000 0.000000 0.000000
# 3 -0.017473 -0.002412 0.020756 0.000000 0.000000 0.000000
# 4 0.000000 0.000000 0.000000 0.069596 0.000000 0.000000
# 5 0.000000 0.000000 0.000000 0.000000 -0.076124 0.000000
# 6 0.000000 0.000000 0.000000 0.000000 0.000000 0.065219
#
#
# Mechanical properties :
#
#
# Convention : Reuss Voigt Hill
#
# Bulk Modulus (GPa) = 46.30959 57.35392 51.83176
# Shear Modulus (GPa) = 29.92763 14.66417 22.29590
#
# Velocity S-wave (km/s) = 3.92241 2.74565 3.38555
# Velocity P-wave (km/s) = 6.65738 6.28777 6.47521
#
# Compressibility (1/GPa) = 0.02159380
#
# Stress axis : x y z
#
# Youngs Moduli (GPa) = 39.52461 65.23083 48.17828
#
# Poissons Ratio (x) = 0.00075 0.84184
# Poissons Ratio (y) = 0.00045 0.11619
# Poissons Ratio (z) = 0.69063 0.15732
#
# Static dielectric constant tensor:
#      x y z
#    x 1.693980 0.000000 0.000000 
#    y 0.000000 1.734890 0.000000 
#    z 0.000000 0.000000 1.665330 
# 
# From -- ./inp_files/72277.got.cif
#   From: 2010.05.17/outbox.cif.g08.bks.cpg/sg65_37_cif.got.tgz:72277.got - 2010.06.03 17:01:31.
