data_PCOD9488687
_publ_section_title
;
Structure prediction by ZEFSAII (Michael W. Deem and Ramdas Pophale) SiO2 
 PCOD9488687
Probable space group: C M M M
;
_chemical_formula_sum "Si O2"
_cell_formula_units_Z 72
_cell_length_a 14.620147
_cell_length_b 29.648736
_cell_length_c 7.644040
_cell_angle_alpha 90.000000
_cell_angle_beta 90.000000
_cell_angle_gamma 90.000000
_cell_volume 3313.453447
_symmetry_space_group_name_H-M "C M M M"
_symmetry_group_IT_number 65
_symmetry_cell_setting 'orthorhombic'
loop_
_space_group_symop_operation_xyz
x,y,z
-x,-y,z
x,-y,-z
-x,y,-z
-x,-y,-z
x,y,-z
-x,y,z
x,-y,z
1/2+x,1/2+y,z
1/2-x,1/2-y,z
1/2+x,1/2-y,-z
1/2-x,1/2+y,-z
1/2-x,1/2-y,-z
1/2+x,1/2+y,-z
1/2-x,1/2+y,z
1/2+x,1/2-y,z
loop_
_atom_site_type_symbol
_atom_site_label
_atom_site_fract_x
_atom_site_fract_y
_atom_site_fract_z
Si Si1 0.605417 0.500000 0.214795
Si Si2 0.397908 0.874880 0.795291
Si Si3 0.784543 0.912786 0.208436
Si Si4 0.611418 0.774513 0.298715
Si Si5 0.894599 0.177270 0.288280
O O1 0.500000 0.500000 0.270733
O O2 0.658440 0.544720 0.275145
O O3 0.604464 0.500000 0.000000
O O4 0.500000 0.878585 0.717743
O O5 0.317316 0.905183 0.718074
O O6 0.367934 0.822358 0.786260
O O7 0.405250 0.886024 0.000000
O O8 0.838461 0.866266 0.235707
O O9 0.775902 0.919505 0.000000
O O10 0.641827 0.778316 0.500000
O O11 0.500000 0.771031 0.297284
O O12 0.642620 0.726087 0.226340
O O13 0.895106 0.179968 0.500000
O O14 0.000000 0.172031 0.230104
#
# Coordination Sequence:
#
# PCOD9488687 Si02
#       5
#     8  16  16  16  16
#     4   9  18  34  54  74  96 121 153 197 246 295
#     4   9  18  32  48  69  99 130 161 201 242 278
#     4  10  20  33  51  73  95 125 165 202 241 291
#     4   8  15  29  48  69  96 132 167 195 232 285
#     4   9  18  32  49  72 102 131 161 200 242 285
#
# _framework density 21.729593999999999
#
# number of rings (size 3 to 8) (size 9 to 14) (size 15 to 20)
#    0.000    3.000    0.000    2.000    0.000    4.000 
#    0.000    7.778    0.000    5.333    0.000    0.000 
#    0.000    5.333    0.000    0.000    0.000    0.000 
#
# Total GULP energy -200862.154544 kJ/mol
# GULP energy per Si atom -5579.504293 kJ/mol
# Density = 2.168014 g / cm^3
# Si number density = 21.729594 Si / 1000 Ang^3
#
#
#
# Elastic Constant Matrix: (Units=GPa)
#
#
# Indices 1 2 3 4 5 6 
#
# 1 154.5484 111.0747 5.2426 0.0000 0.0000 0.0000
# 2 111.0747 136.6792 4.4672 0.0000 0.0000 0.0000
# 3 5.2426 4.4672 39.0700 0.0000 0.0000 0.0000
# 4 0.0000 0.0000 0.0000 24.7591 0.0000 0.0000
# 5 0.0000 0.0000 0.0000 0.0000 0.4466 0.0000
# 6 0.0000 0.0000 0.0000 0.0000 0.0000 32.3387
#
#
#
# Elastic Compliance Matrix: (Units=1/GPa)
#
#
# Indices 1 2 3 4 5 6 
#
# 1 0.015573 -0.012634 -0.000645 0.000000 0.000000 0.000000
# 2 -0.012634 0.017594 -0.000316 0.000000 0.000000 0.000000
# 3 -0.000645 -0.000316 0.025718 0.000000 0.000000 0.000000
# 4 0.000000 0.000000 0.000000 0.040389 0.000000 0.000000
# 5 0.000000 0.000000 0.000000 0.000000 2.238918 0.000000
# 6 0.000000 0.000000 0.000000 0.000000 0.000000 0.030923
#
#
# Mechanical properties :
#
#
# Convention : Reuss Voigt Hill
#
# Bulk Modulus (GPa) = 31.55243 63.54075 47.54659
# Shear Modulus (GPa) = 2.07739 25.47643 13.77691
#
# Velocity S-wave (km/s) = 0.97882 3.42779 2.52070
# Velocity P-wave (km/s) = 3.97863 6.70607 5.51366
#
# Compressibility (1/GPa) = 0.03169328
#
# Stress axis : x y z
#
# Youngs Moduli (GPa) = 64.21483 56.83666 38.88359
#
# Poissons Ratio (x) = 0.71810 0.02508
# Poissons Ratio (y) = 0.81131 0.01230
# Poissons Ratio (z) = 0.04142 0.01798
#
# Static dielectric constant tensor:
#      x y z
#    x 1.841430 0.000000 0.000000 
#    y 0.000000 1.763970 0.000000 
#    z 0.000000 0.000000 1.809830 
# 
# From -- ./inp_files/7208.got.cif
#   From: 2010.05.17/outbox.cif.g08.bks.cpg/sg65_4_cif.got.tgz:7208.got - 2010.06.03 17:01:31.
