data_PCOD9488759
_publ_section_title
;
Structure prediction by ZEFSAII (Michael W. Deem and Ramdas Pophale) SiO2 
 PCOD9488759
Probable space group: C M M M
;
_chemical_formula_sum "Si O2"
_cell_formula_units_Z 72
_cell_length_a 28.664952
_cell_length_b 16.446181
_cell_length_c 9.058870
_cell_angle_alpha 90.000000
_cell_angle_beta 90.000000
_cell_angle_gamma 90.000000
_cell_volume 4270.613925
_symmetry_space_group_name_H-M "C M M M"
_symmetry_group_IT_number 65
_symmetry_cell_setting 'orthorhombic'
loop_
_space_group_symop_operation_xyz
x,y,z
-x,-y,z
x,-y,-z
-x,y,-z
-x,-y,-z
x,y,-z
-x,y,z
x,-y,z
1/2+x,1/2+y,z
1/2-x,1/2-y,z
1/2+x,1/2-y,-z
1/2-x,1/2+y,-z
1/2-x,1/2-y,-z
1/2+x,1/2+y,-z
1/2-x,1/2+y,z
1/2+x,1/2-y,z
loop_
_atom_site_type_symbol
_atom_site_label
_atom_site_fract_x
_atom_site_fract_y
_atom_site_fract_z
Si Si1 0.690267 0.906893 0.325024
Si Si2 0.443438 0.500000 0.168599
Si Si3 0.444684 0.331230 0.675639
Si Si4 0.636004 0.759264 0.822515
Si Si5 0.724217 0.337888 0.167729
O O1 0.687479 0.892360 0.500000
O O2 0.657878 0.842040 0.241251
O O3 0.743335 0.891967 0.270653
O O4 0.677029 0.000000 0.294146
O O5 0.500000 0.500000 0.162988
O O6 0.430635 0.582024 0.253974
O O7 0.425969 0.500000 0.000000
O O8 0.437378 0.332142 0.500000
O O9 0.500000 0.319604 0.702772
O O10 0.413314 0.263037 0.752411
O O11 0.672329 0.686221 0.783543
O O12 0.634259 0.763436 0.000000
O O13 0.750000 0.250000 0.162488
O O14 0.723461 0.370088 0.000000
#
# Coordination Sequence:
#
# PCOD9488759 Si02
#       5
#    16   8  16  16  16
#     4  10  20  33  51  76 104 135 171 211 257 308
#     4   9  17  31  51  73  99 131 167 207 249 297
#     4  10  20  34  53  77 105 137 172 212 259 307
#     4  10  20  34  53  76 102 136 175 213 256 305
#     4   8  16  31  49  70  96 127 164 205 249 298
#
# _framework density 16.859403
#
# number of rings (size 3 to 8) (size 9 to 14) (size 15 to 20)
#    0.000    2.556    0.000    3.667    0.000    9.333 
#    2.000    0.000    0.000    0.667    0.000    4.667 
#    0.000    0.000    0.000    0.000    0.000    0.000 
#
# Total GULP energy -200670.242070 kJ/mol
# GULP energy per Si atom -5574.173391 kJ/mol
# Density = 1.682103 g / cm^3
# Si number density = 16.859403 Si / 1000 Ang^3
#
#
#
# Elastic Constant Matrix: (Units=GPa)
#
#
# Indices 1 2 3 4 5 6 
#
# 1 78.9680 48.3995 58.5753 0.0000 0.0000 0.0000
# 2 48.3995 88.5119 64.7101 0.0000 0.0000 0.0000
# 3 58.5753 64.7101 95.8205 0.0000 0.0000 0.0000
# 4 0.0000 0.0000 0.0000 104.3683 0.0000 0.0000
# 5 0.0000 0.0000 0.0000 0.0000 25.6742 0.0000
# 6 0.0000 0.0000 0.0000 0.0000 0.0000 20.5100
#
#
#
# Elastic Compliance Matrix: (Units=1/GPa)
#
#
# Indices 1 2 3 4 5 6 
#
# 1 0.024145 -0.004764 -0.011543 0.000000 0.000000 0.000000
# 2 -0.004764 0.023256 -0.012793 0.000000 0.000000 0.000000
# 3 -0.011543 -0.012793 0.026131 0.000000 0.000000 0.000000
# 4 0.000000 0.000000 0.000000 0.009581 0.000000 0.000000
# 5 0.000000 0.000000 0.000000 0.000000 0.038950 0.000000
# 6 0.000000 0.000000 0.000000 0.000000 0.000000 0.048757
#
#
# Mechanical properties :
#
#
# Convention : Reuss Voigt Hill
#
# Bulk Modulus (GPa) = 65.21819 67.40779 66.31299
# Shear Modulus (GPa) = 21.35562 36.21822 28.78692
#
# Velocity S-wave (km/s) = 3.56292 4.63995 4.13664
# Velocity P-wave (km/s) = 7.46280 8.29305 7.88885
#
# Compressibility (1/GPa) = 0.01533315
#
# Stress axis : x y z
#
# Youngs Moduli (GPa) = 41.41617 43.00013 38.26802
#
# Poissons Ratio (x) = 0.20486 0.44171
# Poissons Ratio (y) = 0.19732 0.48956
# Poissons Ratio (z) = 0.47805 0.55009
#
# Static dielectric constant tensor:
#      x y z
#    x 1.584600 0.000000 0.000000 
#    y 0.000000 1.557510 0.000000 
#    z 0.000000 0.000000 1.563730 
# 
# From -- ./inp_files/7657.got.cif
#   From: 2010.05.17/outbox.cif.g08.bks.cpg/sg65_4_cif.got.tgz:7657.got - 2010.06.03 17:01:31.
