data_PCOD9488527
_publ_section_title
;
Structure prediction by ZEFSAII (Michael W. Deem and Ramdas Pophale) SiO2 
 PCOD9488527
Probable space group: C M M M
;
_chemical_formula_sum "Si O2"
_cell_formula_units_Z 88
_cell_length_a 28.030922
_cell_length_b 8.669176
_cell_length_c 21.830348
_cell_angle_alpha 90.000000
_cell_angle_beta 90.000000
_cell_angle_gamma 90.000000
_cell_volume 5304.883634
_symmetry_space_group_name_H-M "C M M M"
_symmetry_group_IT_number 65
_symmetry_cell_setting 'orthorhombic'
loop_
_space_group_symop_operation_xyz
x,y,z
-x,-y,z
x,-y,-z
-x,y,-z
-x,-y,-z
x,y,-z
-x,y,z
x,-y,z
1/2+x,1/2+y,z
1/2-x,1/2-y,z
1/2+x,1/2-y,-z
1/2-x,1/2+y,-z
1/2-x,1/2-y,-z
1/2+x,1/2+y,-z
1/2-x,1/2+y,z
1/2+x,1/2-y,z
loop_
_atom_site_type_symbol
_atom_site_label
_atom_site_fract_x
_atom_site_fract_y
_atom_site_fract_z
Si Si1 0.054790 0.686275 0.683571
Si Si2 0.444554 0.187951 0.931881
Si Si3 0.606930 0.186183 0.190604
Si Si4 0.196324 0.683815 0.500000
Si Si5 0.802282 0.184173 0.746688
Si Si6 0.353960 0.684767 0.620231
O O1 0.057148 0.500000 0.678963
O O2 0.072523 0.728322 0.752241
O O3 0.092923 0.758024 0.636916
O O4 0.000000 0.733552 0.673984
O O5 0.500000 0.231938 0.924087
O O6 0.413937 0.240892 0.874103
O O7 0.443502 0.000000 0.931348
O O8 0.428802 0.237282 0.000000
O O9 0.658672 0.251738 0.206298
O O10 0.609249 0.000000 0.189550
O O11 0.198957 0.500000 0.500000
O O12 0.250000 0.750000 0.500000
O O13 0.168179 0.741437 0.559847
O O14 0.750000 0.250000 0.756925
O O15 0.821500 0.228761 0.679001
O O16 0.801347 0.000000 0.749646
O O17 0.353730 0.500000 0.614588
#
# Coordination Sequence:
#
# PCOD9488527 Si02
#       6
#    16  16  16   8  16  16
#     4   9  17  30  49  73 101 132 165 200 239 284
#     4   8  13  22  40  69 101 129 159 195 233 276
#     4   9  16  27  46  71  98 128 161 198 239 283
#     4  12  24  38  57  78 101 128 158 195 239 287
#     4  10  20  33  50  71  95 123 156 197 242 286
#     4  10  21  36  53  75 101 128 160 197 239 286
#
# _framework density 16.588488000000002
#
# number of rings (size 3 to 8) (size 9 to 14) (size 15 to 20)
#    0.000    2.545    0.000    3.545    0.000    6.182 
#    0.000    0.455    0.000    5.455    0.000    1.273 
#    0.000    0.000    0.000    0.000    0.000    0.000 
#
# Total GULP energy -245404.838102 kJ/mol
# GULP energy per Si atom -5577.382684 kJ/mol
# Density = 1.655073 g / cm^3
# Si number density = 16.588488 Si / 1000 Ang^3
#
#
#
# Elastic Constant Matrix: (Units=GPa)
#
#
# Indices 1 2 3 4 5 6 
#
# 1 162.4347 40.3103 96.4137 0.0000 0.0000 0.0000
# 2 40.3103 29.0312 39.9961 0.0000 0.0000 0.0000
# 3 96.4137 39.9961 152.8758 0.0000 0.0000 0.0000
# 4 0.0000 0.0000 0.0000 13.2707 0.0000 0.0000
# 5 0.0000 0.0000 0.0000 0.0000 19.4439 0.0000
# 6 0.0000 0.0000 0.0000 0.0000 0.0000 25.2376
#
#
#
# Elastic Compliance Matrix: (Units=1/GPa)
#
#
# Indices 1 2 3 4 5 6 
#
# 1 0.011189 -0.009091 -0.004678 0.000000 0.000000 0.000000
# 2 -0.009091 0.061245 -0.010290 0.000000 0.000000 0.000000
# 3 -0.004678 -0.010290 0.012184 0.000000 0.000000 0.000000
# 4 0.000000 0.000000 0.000000 0.075354 0.000000 0.000000
# 5 0.000000 0.000000 0.000000 0.000000 0.051430 0.000000
# 6 0.000000 0.000000 0.000000 0.000000 0.000000 0.039623
#
#
# Mechanical properties :
#
#
# Convention : Reuss Voigt Hill
#
# Bulk Modulus (GPa) = 27.39751 77.53131 52.46441
# Shear Modulus (GPa) = 16.06117 22.76522 19.41319
#
# Velocity S-wave (km/s) = 3.11499 3.70854 3.42465
# Velocity P-wave (km/s) = 5.43041 8.07324 6.87992
#
# Compressibility (1/GPa) = 0.03649967
#
# Stress axis : x y z
#
# Youngs Moduli (GPa) = 89.37210 16.32788 82.07741
#
# Poissons Ratio (x) = 0.14844 0.38397
# Poissons Ratio (y) = 0.81251 0.84454
# Poissons Ratio (z) = 0.41809 0.16801
#
# Static dielectric constant tensor:
#      x y z
#    x 1.534090 0.000000 0.000000 
#    y 0.000000 1.560240 0.000000 
#    z 0.000000 0.000000 1.554860 
# 
# From -- ./inp_files/59779.got.cif
#   From: 2010.05.17/outbox.cif.g08.bks.cpg/sg65_30_cif.got.tgz:59779.got - 2010.06.03 17:01:31.
