data_PCOD9488414
_publ_section_title
;
Structure prediction by ZEFSAII (Michael W. Deem and Ramdas Pophale) SiO2 
 PCOD9488414
Probable space group: C M M M
;
_chemical_formula_sum "Si O2"
_cell_formula_units_Z 104
_cell_length_a 9.397953
_cell_length_b 30.389379
_cell_length_c 23.738696
_cell_angle_alpha 90.000000
_cell_angle_beta 90.000000
_cell_angle_gamma 90.000000
_cell_volume 6779.723045
_symmetry_space_group_name_H-M "C M M M"
_symmetry_group_IT_number 65
_symmetry_cell_setting 'orthorhombic'
loop_
_space_group_symop_operation_xyz
x,y,z
-x,-y,z
x,-y,-z
-x,y,-z
-x,-y,-z
x,y,-z
-x,y,z
x,-y,z
1/2+x,1/2+y,z
1/2-x,1/2-y,z
1/2+x,1/2-y,-z
1/2-x,1/2+y,-z
1/2-x,1/2-y,-z
1/2+x,1/2+y,-z
1/2-x,1/2+y,z
1/2+x,1/2-y,z
loop_
_atom_site_type_symbol
_atom_site_label
_atom_site_fract_x
_atom_site_fract_y
_atom_site_fract_z
Si Si1 0.168398 0.707628 0.823648
Si Si2 0.667490 0.320162 0.063996
Si Si3 0.331415 0.111099 0.218011
Si Si4 0.834695 0.946664 0.562209
Si Si5 0.341582 0.000000 0.933402
Si Si6 0.170102 0.551382 0.674386
Si Si7 0.665899 0.582577 0.892002
O O1 0.250000 0.750000 0.800373
O O2 0.236621 0.698657 0.885594
O O3 0.188511 0.663891 0.785664
O O4 0.000000 0.715436 0.829112
O O5 0.500000 0.308726 0.072596
O O6 0.678387 0.373004 0.071176
O O7 0.707677 0.307648 0.000000
O O8 0.500000 0.103241 0.205969
O O9 0.296581 0.084977 0.275073
O O10 0.232756 0.092920 0.168586
O O11 0.785057 0.931757 0.500000
O O12 0.743995 0.933985 0.616415
O O13 0.000000 0.933914 0.568711
O O14 0.830768 0.000000 0.561219
O O15 0.255247 0.042924 0.916589
O O16 0.500000 0.000000 0.907709
O O17 0.354618 0.000000 0.000000
O O18 0.211069 0.500000 0.686875
O O19 0.000000 0.551523 0.666970
O O20 0.500000 0.571401 0.887976
#
# Coordination Sequence:
#
# PCOD9488414 Si02
#       7
#    16  16  16  16   8  16  16
#     4  10  20  34  51  69  90 116 148 185 228 279
#     4   9  18  33  51  69  90 113 138 176 228 282
#     4   9  19  34  49  68  94 123 152 187 231 277
#     4   8  14  25  40  60  90 127 162 194 225 255
#     4  11  23  35  47  63  85 117 154 189 228 275
#     4   9  17  28  44  67  94 126 159 190 223 262
#     4  10  20  33  49  68  88 114 149 190 231 271
#
# _framework density 15.339859000000001
#
# number of rings (size 3 to 8) (size 9 to 14) (size 15 to 20)
#    0.000    2.692    0.000    2.077    1.077    4.000 
#    0.000    1.538    0.000    0.000    0.000    0.000 
#    0.000    0.615    0.000    1.385    0.000    2.462 
#
# Total GULP energy -289709.448987 kJ/mol
# GULP energy per Si atom -5571.335557 kJ/mol
# Density = 1.530494 g / cm^3
# Si number density = 15.339859 Si / 1000 Ang^3
#
#
#
# Elastic Constant Matrix: (Units=GPa)
#
#
# Indices 1 2 3 4 5 6 
#
# 1 68.4955 48.3476 41.4516 0.0000 0.0000 0.0000
# 2 48.3476 76.8630 40.1915 0.0000 0.0000 0.0000
# 3 41.4516 40.1915 100.6244 0.0000 0.0000 0.0000
# 4 0.0000 0.0000 0.0000 -8.2708 0.0000 0.0000
# 5 0.0000 0.0000 0.0000 0.0000 23.2910 0.0000
# 6 0.0000 0.0000 0.0000 0.0000 0.0000 24.6558
#
#
#
# Elastic Compliance Matrix: (Units=1/GPa)
#
#
# Indices 1 2 3 4 5 6 
#
# 1 0.028736 -0.015023 -0.005837 0.000000 0.000000 0.000000
# 2 -0.015023 0.024299 -0.003517 0.000000 0.000000 0.000000
# 3 -0.005837 -0.003517 0.013747 0.000000 0.000000 0.000000
# 4 0.000000 0.000000 0.000000 -0.120908 0.000000 0.000000
# 5 0.000000 0.000000 0.000000 0.000000 0.042935 0.000000
# 6 0.000000 0.000000 0.000000 0.000000 0.000000 0.040558
#
#
# Mechanical properties :
#
#
# Convention : Reuss Voigt Hill
#
# Bulk Modulus (GPa) = 55.46904 56.21826 55.84365
# Shear Modulus (GPa) = 59.43157 15.66802 37.54980
#
# Velocity S-wave (km/s) = 6.23116 3.19939 4.95295
# Velocity P-wave (km/s) = 9.38128 7.09762 8.31819
#
# Compressibility (1/GPa) = 0.01802808
#
# Stress axis : x y z
#
# Youngs Moduli (GPa) = 34.79970 41.15453 72.74225
#
# Poissons Ratio (x) = 0.61826 0.42460
# Poissons Ratio (y) = 0.52279 0.25582
# Poissons Ratio (z) = 0.20313 0.14473
#
# Static dielectric constant tensor:
#      x y z
#    x 1.515730 0.000000 0.000000 
#    y 0.000000 1.513710 0.000000 
#    z 0.000000 0.000000 1.497730 
# 
# From -- ./inp_files/68478.got.cif
#   From: 2010.05.17/outbox.cif.g08.bks.cpg/sg65_35_cif.got.tgz:68478.got - 2010.06.03 17:01:31.
