data_PCOD9488939
_publ_section_title
;
Structure prediction by ZEFSAII (Michael W. Deem and Ramdas Pophale) SiO2 
 PCOD9488939
Probable space group: C M M M
;
_chemical_formula_sum "Si O2"
_cell_formula_units_Z 88
_cell_length_a 8.042298
_cell_length_b 26.670419
_cell_length_c 24.159280
_cell_angle_alpha 90.000000
_cell_angle_beta 90.000000
_cell_angle_gamma 90.000000
_cell_volume 5181.959177
_symmetry_space_group_name_H-M "C M M M"
_symmetry_group_IT_number 65
_symmetry_cell_setting 'orthorhombic'
loop_
_space_group_symop_operation_xyz
x,y,z
-x,-y,z
x,-y,-z
-x,y,-z
-x,-y,-z
x,y,-z
-x,y,z
x,-y,z
1/2+x,1/2+y,z
1/2-x,1/2-y,z
1/2+x,1/2-y,-z
1/2-x,1/2+y,-z
1/2-x,1/2-y,-z
1/2+x,1/2+y,-z
1/2-x,1/2+y,z
1/2+x,1/2-y,z
loop_
_atom_site_type_symbol
_atom_site_label
_atom_site_fract_x
_atom_site_fract_y
_atom_site_fract_z
Si Si1 0.500000 0.624080 0.065906
Si Si2 0.500000 0.440341 0.829994
Si Si3 0.811523 0.695398 0.932924
Si Si4 0.302603 0.902801 0.368792
Si Si5 0.696109 0.939302 0.248270
Si Si6 0.801956 0.806099 0.437016
Si Si7 0.802138 0.000000 0.437868
O O1 0.500000 0.577941 0.107246
O O2 0.334048 0.656108 0.079068
O O3 0.500000 0.613117 0.000000
O O4 0.500000 0.500000 0.828497
O O5 0.669191 0.424503 0.798107
O O6 0.750000 0.750000 0.913520
O O7 0.000000 0.684292 0.913589
O O8 0.819415 0.697827 0.000000
O O9 0.500000 0.903745 0.367657
O O10 0.250093 0.913035 0.305596
O O11 0.249589 0.850616 0.396318
O O12 0.246687 0.949866 0.405593
O O13 0.500000 0.928042 0.236260
O O14 0.704938 0.000000 0.256133
O O15 0.735759 0.814476 0.500000
O O16 0.750000 0.750000 0.419756
O O17 0.000000 0.806954 0.440039
O O18 0.731209 0.000000 0.500000
O O19 0.000000 0.000000 0.441635
#
# Coordination Sequence:
#
# PCOD9488939 Si02
#       7
#     8   8  16  16  16  16   8
#     4  10  20  33  52  84 118 146 187 222 268 339
#     4  10  22  37  58  80 106 152 186 227 283 318
#     4   9  15  26  48  79 113 146 177 214 259 315
#     4  11  21  34  55  80 106 139 178 227 280 330
#     4   9  19  36  57  82 105 134 187 237 276 332
#     4  10  21  36  53  76 106 143 186 226 266 324
#     4  11  23  33  47  79 119 147 169 214 281 342
#
# _framework density 16.981992999999999
#
# number of rings (size 3 to 8) (size 9 to 14) (size 15 to 20)
#    0.000    2.091    1.818    1.909    2.545    4.909 
#    0.000    0.000    0.000    1.091    0.000    5.091 
#    0.000    0.000    0.000    0.000    0.000    0.000 
#
# Total GULP energy -245228.790821 kJ/mol
# GULP energy per Si atom -5573.381610 kJ/mol
# Density = 1.694334 g / cm^3
# Si number density = 16.981993 Si / 1000 Ang^3
#
#
#
# Elastic Constant Matrix: (Units=GPa)
#
#
# Indices 1 2 3 4 5 6 
#
# 1 89.8346 23.6727 38.2535 0.0000 0.0000 0.0000
# 2 23.6727 66.6919 43.3700 0.0000 0.0000 0.0000
# 3 38.2535 43.3700 82.4718 0.0000 0.0000 0.0000
# 4 0.0000 0.0000 0.0000 10.3326 0.0000 0.0000
# 5 0.0000 0.0000 0.0000 0.0000 -57.2285 0.0000
# 6 0.0000 0.0000 0.0000 0.0000 0.0000 24.9941
#
#
#
# Elastic Compliance Matrix: (Units=1/GPa)
#
#
# Indices 1 2 3 4 5 6 
#
# 1 0.013927 -0.001129 -0.005866 0.000000 0.000000 0.000000
# 2 -0.001129 0.022878 -0.011508 0.000000 0.000000 0.000000
# 3 -0.005866 -0.011508 0.020898 0.000000 0.000000 0.000000
# 4 0.000000 0.000000 0.000000 0.096781 0.000000 0.000000
# 5 0.000000 0.000000 0.000000 0.000000 -0.017474 0.000000
# 6 0.000000 0.000000 0.000000 0.000000 0.000000 0.040009
#
#
# Mechanical properties :
#
#
# Convention : Reuss Voigt Hill
#
# Bulk Modulus (GPa) = 48.31362 49.95454 49.13408
# Shear Modulus (GPa) = 22.63210 4.53312 13.58261
#
# Velocity S-wave (km/s) = 3.65459 1.63559 2.83118
# Velocity P-wave (km/s) = 6.80586 5.74865 6.29947
#
# Compressibility (1/GPa) = 0.02069810
#
# Stress axis : x y z
#
# Youngs Moduli (GPa) = 71.80310 43.70920 47.85126
#
# Poissons Ratio (x) = 0.04933 0.28071
# Poissons Ratio (y) = 0.08103 0.55066
# Poissons Ratio (z) = 0.42122 0.50300
#
# Static dielectric constant tensor:
#      x y z
#    x 1.517370 0.000000 0.000000 
#    y 0.000000 1.550730 0.000000 
#    z 0.000000 0.000000 1.577760 
# 
# From -- ./inp_files/59902.got.cif
#   From: 2010.05.17/outbox.cif.g08.bks.cpg/sg65_30_cif.got.tgz:59902.got - 2010.06.03 17:01:31.
