data_PCOD9488917
_publ_section_title
;
Structure prediction by ZEFSAII (Michael W. Deem and Ramdas Pophale) SiO2 
 PCOD9488917
Probable space group: C M M M
;
_chemical_formula_sum "Si O2"
_cell_formula_units_Z 120
_cell_length_a 29.520082
_cell_length_b 9.993600
_cell_length_c 22.965095
_cell_angle_alpha 90.000000
_cell_angle_beta 90.000000
_cell_angle_gamma 90.000000
_cell_volume 6774.976114
_symmetry_space_group_name_H-M "C M M M"
_symmetry_group_IT_number 65
_symmetry_cell_setting 'orthorhombic'
loop_
_space_group_symop_operation_xyz
x,y,z
-x,-y,z
x,-y,-z
-x,y,-z
-x,-y,-z
x,y,-z
-x,y,z
x,-y,z
1/2+x,1/2+y,z
1/2-x,1/2-y,z
1/2+x,1/2-y,-z
1/2-x,1/2+y,-z
1/2-x,1/2-y,-z
1/2+x,1/2+y,-z
1/2-x,1/2+y,z
1/2+x,1/2-y,z
loop_
_atom_site_type_symbol
_atom_site_label
_atom_site_fract_x
_atom_site_fract_y
_atom_site_fract_z
Si Si1 0.448173 0.845959 0.385165
Si Si2 0.874411 0.842964 0.931718
Si Si3 0.294362 0.339105 0.157842
Si Si4 0.364856 0.660785 0.396929
Si Si5 0.351709 0.653589 0.268237
Si Si6 0.449940 0.249146 0.746390
Si Si7 0.448109 0.151526 0.124473
Si Si8 0.706002 0.657497 0.500000
O O1 0.500000 0.815687 0.403387
O O2 0.410817 0.743075 0.408867
O O3 0.447576 0.830808 0.314475
O O4 0.438010 0.000000 0.400273
O O5 0.828355 0.819760 0.896089
O O6 0.913677 0.754246 0.903808
O O7 0.885757 0.000000 0.924690
O O8 0.869182 0.814635 0.000000
O O9 0.285034 0.500000 0.161783
O O10 0.250000 0.250000 0.151629
O O11 0.321656 0.291588 0.215775
O O12 0.374492 0.500000 0.394155
O O13 0.347655 0.709452 0.333371
O O14 0.326240 0.681995 0.444429
O O15 0.338002 0.500000 0.272745
O O16 0.405069 0.661031 0.253154
O O17 0.500000 0.315505 0.747034
O O18 0.446903 0.163654 0.805247
O O19 0.500000 0.179889 0.106966
O O20 0.436819 0.000000 0.107691
O O21 0.718659 0.500000 0.500000
O O22 0.750000 0.750000 0.500000
#
# Coordination Sequence:
#
# PCOD9488917 Si02
#       8
#    16  16  16  16  16  16  16   8
#     4   9  17  30  50  79 114 147 179 217 260 309
#     4  10  22  40  58  75 101 138 178 219 263 315
#     4  10  21  38  56  78 104 130 167 218 272 321
#     4   9  19  35  55  79 109 143 180 220 262 311
#     4   9  17  32  53  79 110 139 171 216 263 310
#     4   9  16  28  49  78 111 144 175 210 257 311
#     4  10  20  33  52  80 112 143 175 213 257 309
#     4  10  22  40  59  80 107 141 182 227 271 320
#
# _framework density 17.712239
#
# number of rings (size 3 to 8) (size 9 to 14) (size 15 to 20)
#    0.000    2.533    1.333    0.400    0.000    4.800 
#    0.000    6.333    0.000    2.000    0.000    0.000 
#    0.000    0.000    0.000    0.000    0.000    0.000 
#
# Total GULP energy -334227.377376 kJ/mol
# GULP energy per Si atom -5570.456290 kJ/mol
# Density = 1.767193 g / cm^3
# Si number density = 17.712239 Si / 1000 Ang^3
#
#
#
# Elastic Constant Matrix: (Units=GPa)
#
#
# Indices 1 2 3 4 5 6 
#
# 1 134.7435 77.2744 70.2967 0.0000 0.0000 0.0000
# 2 77.2744 64.2460 44.1007 0.0000 0.0000 0.0000
# 3 70.2967 44.1007 82.2151 0.0000 0.0000 0.0000
# 4 0.0000 0.0000 0.0000 9.1034 0.0000 0.0000
# 5 0.0000 0.0000 0.0000 0.0000 10.9491 0.0000
# 6 0.0000 0.0000 0.0000 0.0000 0.0000 35.6533
#
#
#
# Elastic Compliance Matrix: (Units=1/GPa)
#
#
# Indices 1 2 3 4 5 6 
#
# 1 0.027725 -0.027026 -0.009209 0.000000 0.000000 0.000000
# 2 -0.027026 0.050982 -0.004238 0.000000 0.000000 0.000000
# 3 -0.009209 -0.004238 0.022311 0.000000 0.000000 0.000000
# 4 0.000000 0.000000 0.000000 0.109849 0.000000 0.000000
# 5 0.000000 0.000000 0.000000 0.000000 0.091332 0.000000
# 6 0.000000 0.000000 0.000000 0.000000 0.000000 0.028048
#
#
# Mechanical properties :
#
#
# Convention : Reuss Voigt Hill
#
# Bulk Modulus (GPa) = 49.82526 73.83868 61.83197
# Shear Modulus (GPa) = 11.96505 17.11001 14.53753
#
# Velocity S-wave (km/s) = 2.60190 3.11142 2.86800
# Velocity P-wave (km/s) = 6.10066 7.39502 6.77881
#
# Compressibility (1/GPa) = 0.02007014
#
# Stress axis : x y z
#
# Youngs Moduli (GPa) = 36.06814 19.61493 44.82148
#
# Poissons Ratio (x) = 0.53012 0.41276
# Poissons Ratio (y) = 0.97479 0.18997
# Poissons Ratio (z) = 0.33215 0.08314
#
# Static dielectric constant tensor:
#      x y z
#    x 1.583440 0.000000 0.000000 
#    y 0.000000 1.597400 0.000000 
#    z 0.000000 0.000000 1.633790 
# 
# From -- ./inp_files/66095.got.cif
#   From: 2010.05.17/outbox.cif.g08.bks.cpg/sg65_34_cif.got.tgz:66095.got - 2010.06.03 17:01:31.
