data_PCOD9488282
_publ_section_title
;
Structure prediction by ZEFSAII (Michael W. Deem and Ramdas Pophale) SiO2 
 PCOD9488282
Probable space group: C M M M
;
_chemical_formula_sum "Si O2"
_cell_formula_units_Z 96
_cell_length_a 14.170267
_cell_length_b 31.663647
_cell_length_c 12.250233
_cell_angle_alpha 90.000000
_cell_angle_beta 90.000000
_cell_angle_gamma 90.000000
_cell_volume 5496.463112
_symmetry_space_group_name_H-M "C M M M"
_symmetry_group_IT_number 65
_symmetry_cell_setting 'orthorhombic'
loop_
_space_group_symop_operation_xyz
x,y,z
-x,-y,z
x,-y,-z
-x,y,-z
-x,-y,-z
x,y,-z
-x,y,z
x,-y,z
1/2+x,1/2+y,z
1/2-x,1/2-y,z
1/2+x,1/2-y,-z
1/2-x,1/2+y,-z
1/2-x,1/2-y,-z
1/2+x,1/2+y,-z
1/2-x,1/2+y,z
1/2+x,1/2-y,z
loop_
_atom_site_type_symbol
_atom_site_label
_atom_site_fract_x
_atom_site_fract_y
_atom_site_fract_z
Si Si1 0.271869 0.550059 0.369770
Si Si2 0.250000 0.750000 0.213345
Si Si3 0.388996 0.292151 0.623005
Si Si4 0.114196 0.547504 0.000000
Si Si5 0.112014 0.409642 0.230597
Si Si6 0.278289 0.841652 0.124744
Si Si7 0.389478 0.379278 0.251815
O O1 0.279422 0.556333 0.500000
O O2 0.280099 0.500000 0.347614
O O3 0.172076 0.567591 0.324145
O O4 0.349295 0.578195 0.306298
O O5 0.335819 0.737492 0.292380
O O6 0.269768 0.791833 0.144181
O O7 0.352992 0.287297 0.500000
O O8 0.500000 0.283055 0.624493
O O9 0.377917 0.340665 0.662166
O O10 0.139499 0.568846 0.114525
O O11 0.150769 0.500000 0.000000
O O12 0.000000 0.546807 0.000000
O O13 0.148142 0.362049 0.210340
O O14 0.000000 0.412458 0.246596
O O15 0.178924 0.864611 0.153371
O O16 0.306342 0.849371 0.000000
O O17 0.500000 0.382538 0.223697
#
# Coordination Sequence:
#
# PCOD9488282 Si02
#       7
#    16   8  16   8  16  16  16
#     4  10  21  35  53  81 113 142 174 214 263 320
#     4  10  20  32  50  76 106 136 170 214 266 320
#     4   9  17  31  51  73  99 134 175 215 257 308
#     4   9  16  28  50  75  95 125 173 218 252 291
#     4  10  20  35  54  77 106 142 180 216 260 312
#     4  10  20  35  54  77 105 137 175 220 270 322
#     4   9  19  35  55  77 102 136 178 221 265 314
#
# _framework density 17.465776999999999
#
# number of rings (size 3 to 8) (size 9 to 14) (size 15 to 20)
#    0.000    2.417    0.833    1.500    0.000    3.667 
#    0.000    2.500    0.000    3.000    0.000    2.333 
#    0.000    0.000    0.000    0.000    0.000    0.000 
#
# Total GULP energy -267505.816101 kJ/mol
# GULP energy per Si atom -5573.037835 kJ/mol
# Density = 1.742602 g / cm^3
# Si number density = 17.465777 Si / 1000 Ang^3
#
#
#
# Elastic Constant Matrix: (Units=GPa)
#
#
# Indices 1 2 3 4 5 6 
#
# 1 64.5404 24.2180 -3.2624 0.0000 0.0000 0.0000
# 2 24.2180 107.2351 17.7955 0.0000 0.0000 0.0000
# 3 -3.2624 17.7955 34.3683 0.0000 0.0000 0.0000
# 4 0.0000 0.0000 0.0000 13.8614 0.0000 0.0000
# 5 0.0000 0.0000 0.0000 0.0000 20.0749 0.0000
# 6 0.0000 0.0000 0.0000 0.0000 0.0000 17.9449
#
#
#
# Elastic Compliance Matrix: (Units=1/GPa)
#
#
# Indices 1 2 3 4 5 6 
#
# 1 0.017427 -0.004606 0.004039 0.000000 0.000000 0.000000
# 2 -0.004606 0.011419 -0.006350 0.000000 0.000000 0.000000
# 3 0.004039 -0.006350 0.032768 0.000000 0.000000 0.000000
# 4 0.000000 0.000000 0.000000 0.072143 0.000000 0.000000
# 5 0.000000 0.000000 0.000000 0.000000 0.049813 0.000000
# 6 0.000000 0.000000 0.000000 0.000000 0.000000 0.055726
#
#
# Mechanical properties :
#
#
# Convention : Reuss Voigt Hill
#
# Bulk Modulus (GPa) = 20.92916 31.51623 26.22269
# Shear Modulus (GPa) = 18.58345 21.53575 20.05960
#
# Velocity S-wave (km/s) = 3.26543 3.51526 3.39264
# Velocity P-wave (km/s) = 5.12116 5.87876 5.51299
#
# Compressibility (1/GPa) = 0.04778022
#
# Stress axis : x y z
#
# Youngs Moduli (GPa) = 57.38338 87.57132 30.51769
#
# Poissons Ratio (x) = 0.40335 -0.12326
# Poissons Ratio (y) = 0.26430 0.19379
# Poissons Ratio (z) = -0.23178 0.55607
#
# Static dielectric constant tensor:
#      x y z
#    x 1.589400 0.000000 0.000000 
#    y 0.000000 1.609300 0.000000 
#    z 0.000000 0.000000 1.576930 
# 
# From -- ./inp_files/25448.got.cif
#   From: 2010.05.17/outbox.cif.g08.bks.cpg/sg65_13_cif.got.tgz:25448.got - 2010.06.03 17:01:31.
