data_PCOD9488669
_publ_section_title
;
Structure prediction by ZEFSAII (Michael W. Deem and Ramdas Pophale) SiO2 
 PCOD9488669
Probable space group: C M M M
;
_chemical_formula_sum "Si O2"
_cell_formula_units_Z 88
_cell_length_a 15.783977
_cell_length_b 9.022928
_cell_length_c 31.002997
_cell_angle_alpha 90.000000
_cell_angle_beta 90.000000
_cell_angle_gamma 90.000000
_cell_volume 4415.375155
_symmetry_space_group_name_H-M "C M M M"
_symmetry_group_IT_number 65
_symmetry_cell_setting 'orthorhombic'
loop_
_space_group_symop_operation_xyz
x,y,z
-x,-y,z
x,-y,-z
-x,y,-z
-x,-y,-z
x,y,-z
-x,y,z
x,-y,z
1/2+x,1/2+y,z
1/2-x,1/2-y,z
1/2+x,1/2-y,-z
1/2-x,1/2+y,-z
1/2-x,1/2-y,-z
1/2+x,1/2+y,-z
1/2-x,1/2+y,z
1/2+x,1/2-y,z
loop_
_atom_site_type_symbol
_atom_site_label
_atom_site_fract_x
_atom_site_fract_y
_atom_site_fract_z
Si Si1 0.342512 0.176854 0.047038
Si Si2 0.500000 0.674231 0.551649
Si Si3 0.098081 0.319985 0.311332
Si Si4 0.162497 0.678650 0.595643
Si Si5 0.899305 0.835245 0.132087
Si Si6 0.603855 0.171709 0.782761
O O1 0.250000 0.250000 0.046958
O O2 0.386433 0.239536 0.089364
O O3 0.336324 0.000000 0.049810
O O4 0.382227 0.213147 0.000000
O O5 0.500000 0.500000 0.563823
O O6 0.500000 0.683766 0.500000
O O7 0.417305 0.755087 0.570395
O O8 0.097066 0.500000 0.309056
O O9 0.148955 0.279233 0.353912
O O10 0.129887 0.268927 0.264402
O O11 0.000000 0.272760 0.317015
O O12 0.163770 0.500000 0.592305
O O13 0.250000 0.750000 0.580185
O O14 0.865491 0.761533 0.175826
O O15 0.000000 0.846713 0.138399
O O16 0.863613 0.000000 0.125661
O O17 0.500000 0.173628 0.781998
O O18 0.628817 0.000000 0.787316
#
# Coordination Sequence:
#
# PCOD9488669 Si02
#       6
#    16   8  16  16  16  16
#     4  10  21  37  56  75  96 127 170 218 272 335
#     4  11  25  45  67  93 125 163 211 261 312 371
#     4   8  14  29  55  83 110 149 197 240 287 345
#     4  11  22  39  64  94 129 165 207 257 310 368
#     4  10  20  33  50  76 110 142 177 221 269 323
#     4   8  14  27  50  76 104 143 188 228 273 328
#
# _framework density 19.930356
#
# number of rings (size 3 to 8) (size 9 to 14) (size 15 to 20)
#    0.000    2.455    0.909    3.000    0.000    3.636 
#    0.000    4.545    0.000    2.182    0.000    0.000 
#    0.000    0.000    0.000    0.000    0.000    0.000 
#
# Total GULP energy -245448.557257 kJ/mol
# GULP energy per Si atom -5578.376301 kJ/mol
# Density = 1.988499 g / cm^3
# Si number density = 19.930356 Si / 1000 Ang^3
#
#
#
# Elastic Constant Matrix: (Units=GPa)
#
#
# Indices 1 2 3 4 5 6 
#
# 1 77.6682 34.8194 40.6407 0.0000 0.0000 0.0000
# 2 34.8194 95.5665 61.4305 0.0000 0.0000 0.0000
# 3 40.6407 61.4305 124.3007 0.0000 0.0000 0.0000
# 4 0.0000 0.0000 0.0000 8.9387 0.0000 0.0000
# 5 0.0000 0.0000 0.0000 0.0000 7.3903 0.0000
# 6 0.0000 0.0000 0.0000 0.0000 0.0000 22.2147
#
#
#
# Elastic Compliance Matrix: (Units=1/GPa)
#
#
# Indices 1 2 3 4 5 6 
#
# 1 0.016380 -0.003701 -0.003526 0.000000 0.000000 0.000000
# 2 -0.003701 0.016172 -0.006782 0.000000 0.000000 0.000000
# 3 -0.003526 -0.006782 0.012550 0.000000 0.000000 0.000000
# 4 0.000000 0.000000 0.000000 0.111873 0.000000 0.000000
# 5 0.000000 0.000000 0.000000 0.000000 0.135312 0.000000
# 6 0.000000 0.000000 0.000000 0.000000 0.000000 0.045015
#
#
# Mechanical properties :
#
#
# Convention : Reuss Voigt Hill
#
# Bulk Modulus (GPa) = 58.54067 63.47963 61.01015
# Shear Modulus (GPa) = 13.47654 18.41840 15.94747
#
# Velocity S-wave (km/s) = 2.60317 3.04326 2.83178
# Velocity P-wave (km/s) = 6.20256 6.65345 6.43196
#
# Compressibility (1/GPa) = 0.01708214
#
# Stress axis : x y z
#
# Youngs Moduli (GPa) = 61.05114 61.83478 79.68253
#
# Poissons Ratio (x) = 0.22886 0.28098
# Poissons Ratio (y) = 0.22596 0.54043
# Poissons Ratio (z) = 0.21528 0.41938
#
# Static dielectric constant tensor:
#      x y z
#    x 1.742640 0.000000 0.000000 
#    y 0.000000 1.678030 0.000000 
#    z 0.000000 0.000000 1.725460 
# 
# From -- ./inp_files/77831.got.cif
#   From: 2010.05.17/outbox.cif.g08.bks.cpg/sg65_39_cif.got.tgz:77831.got - 2010.06.03 17:01:31.
