data_PCOD9488593
_publ_section_title
;
Structure prediction by ZEFSAII (Michael W. Deem and Ramdas Pophale) SiO2 
 PCOD9488593
Probable space group: C M M M
;
_chemical_formula_sum "Si O2"
_cell_formula_units_Z 66
_cell_length_a 17.027367
_cell_length_b 7.703147
_cell_length_c 24.301041
_cell_angle_alpha 90.000000
_cell_angle_beta 90.000000
_cell_angle_gamma 90.000000
_cell_volume 3187.429300
_symmetry_space_group_name_H-M "C M M M"
_symmetry_group_IT_number 65
_symmetry_cell_setting 'orthorhombic'
loop_
_space_group_symop_operation_xyz
x,y,z
-x,-y,z
x,-y,-z
-x,y,-z
-x,-y,-z
x,y,-z
-x,y,z
x,-y,z
1/2+x,1/2+y,z
1/2-x,1/2-y,z
1/2+x,1/2-y,-z
1/2-x,1/2+y,-z
1/2-x,1/2-y,-z
1/2+x,1/2+y,-z
1/2-x,1/2+y,z
1/2+x,1/2-y,z
loop_
_atom_site_type_symbol
_atom_site_label
_atom_site_fract_x
_atom_site_fract_y
_atom_site_fract_z
Si Si1 0.500000 0.805094 0.886589
Si Si2 0.410067 0.289555 0.730481
Si Si3 0.338777 0.802141 0.157585
Si Si4 0.000000 0.500000 0.000000
Si Si5 0.591275 0.711996 0.500000
Si Si6 0.659152 0.291746 0.615640
O O1 0.582329 0.718059 0.868681
O O2 0.500000 0.000000 0.858685
O O3 0.500000 0.851062 0.950839
O O4 0.500000 0.242215 0.743051
O O5 0.404357 0.500000 0.731982
O O6 0.352822 0.217372 0.777128
O O7 0.387751 0.229704 0.669213
O O8 0.250000 0.750000 0.143906
O O9 0.342293 0.000000 0.139202
O O10 0.596497 0.500000 0.500000
O O11 0.500000 0.757392 0.500000
O O12 0.630577 0.775002 0.443573
O O13 0.648843 0.500000 0.614327
O O14 0.750000 0.250000 0.623169
#
# Coordination Sequence:
#
# PCOD9488593 Si02
#       6
#     8  16  16   2   8  16
#     4   8  18  36  61  83 115 152 194 224 276 331
#     4  10  20  34  53  80 111 148 187 237 287 342
#     4  11  21  36  57  88 119 154 194 236 283 343
#     4   8  16  40  68  84 118 162 196 234 278 332
#     4   9  17  32  53  71  90 127 176 230 276 337
#     4  10  20  33  50  73 101 134 178 226 283 340
#
# _framework density 20.706340999999998
#
# number of rings (size 3 to 8) (size 9 to 14) (size 15 to 20)
#    0.364    1.818    1.212    2.545    0.000    5.818 
#    0.000    0.606    0.000    2.909    0.000    3.394 
#    0.000    0.000    0.000    0.000    0.000    0.000 
#
# Total GULP energy -183733.256786 kJ/mol
# GULP energy per Si atom -5567.674448 kJ/mol
# Density = 2.065921 g / cm^3
# Si number density = 20.706341 Si / 1000 Ang^3
#
#
#
# Elastic Constant Matrix: (Units=GPa)
#
#
# Indices 1 2 3 4 5 6 
#
# 1 165.8097 14.0037 38.9175 0.0000 0.0000 0.0000
# 2 14.0037 26.9778 -0.3408 0.0000 0.0000 0.0000
# 3 38.9175 -0.3408 114.5032 0.0000 0.0000 0.0000
# 4 0.0000 0.0000 0.0000 14.2925 0.0000 0.0000
# 5 0.0000 0.0000 0.0000 0.0000 2.9585 0.0000
# 6 0.0000 0.0000 0.0000 0.0000 0.0000 19.1320
#
#
#
# Elastic Compliance Matrix: (Units=1/GPa)
#
#
# Indices 1 2 3 4 5 6 
#
# 1 0.006887 -0.003605 -0.002352 0.000000 0.000000 0.000000
# 2 -0.003605 0.038956 0.001341 0.000000 0.000000 0.000000
# 3 -0.002352 0.001341 0.009537 0.000000 0.000000 0.000000
# 4 0.000000 0.000000 0.000000 0.069967 0.000000 0.000000
# 5 0.000000 0.000000 0.000000 0.000000 0.338006 0.000000
# 6 0.000000 0.000000 0.000000 0.000000 0.000000 0.052268
#
#
# Mechanical properties :
#
#
# Convention : Reuss Voigt Hill
#
# Bulk Modulus (GPa) = 21.66888 45.82796 33.74842
# Shear Modulus (GPa) = 9.25524 24.25729 16.75627
#
# Velocity S-wave (km/s) = 2.11648 3.42642 2.84779
# Velocity P-wave (km/s) = 4.05712 6.15095 5.21030
#
# Compressibility (1/GPa) = 0.04614914
#
# Stress axis : x y z
#
# Youngs Moduli (GPa) = 145.19224 25.67017 104.85863
#
# Poissons Ratio (x) = 0.09254 0.24659
# Poissons Ratio (y) = 0.52340 -0.14063
# Poissons Ratio (z) = 0.34144 -0.03443
#
# Static dielectric constant tensor:
#      x y z
#    x 1.740190 0.000000 0.000000 
#    y 0.000000 1.771340 0.000000 
#    z 0.000000 0.000000 1.720270 
# 
# From -- ./inp_files/74555.got.cif
#   From: 2010.05.17/outbox.cif.g08.bks.cpg/sg65_38_cif.got.tgz:74555.got - 2010.06.03 17:01:31.
