data_PCOD9488274
_publ_section_title
;
Structure prediction by ZEFSAII (Michael W. Deem and Ramdas Pophale) SiO2 
 PCOD9488274
Probable space group: C M M M
;
_chemical_formula_sum "Si O2"
_cell_formula_units_Z 72
_cell_length_a 29.389237
_cell_length_b 9.078052
_cell_length_c 15.781702
_cell_angle_alpha 90.000000
_cell_angle_beta 90.000000
_cell_angle_gamma 90.000000
_cell_volume 4210.511091
_symmetry_space_group_name_H-M "C M M M"
_symmetry_group_IT_number 65
_symmetry_cell_setting 'orthorhombic'
loop_
_space_group_symop_operation_xyz
x,y,z
-x,-y,z
x,-y,-z
-x,y,-z
-x,-y,-z
x,y,-z
-x,y,z
x,-y,z
1/2+x,1/2+y,z
1/2-x,1/2-y,z
1/2+x,1/2-y,-z
1/2-x,1/2+y,-z
1/2-x,1/2-y,-z
1/2+x,1/2+y,-z
1/2-x,1/2+y,z
1/2+x,1/2-y,z
loop_
_atom_site_type_symbol
_atom_site_label
_atom_site_fract_x
_atom_site_fract_y
_atom_site_fract_z
Si Si1 0.446744 0.675500 0.175190
Si Si2 0.635421 0.822679 0.748422
Si Si3 0.298075 0.823149 0.402503
Si Si4 0.200718 0.322990 0.904100
Si Si5 0.944880 0.666480 0.000000
O O1 0.500000 0.710159 0.190404
O O2 0.442253 0.500000 0.170369
O O3 0.412879 0.744201 0.243330
O O4 0.433107 0.747993 0.085301
O O5 0.663259 0.781927 0.664344
O O6 0.666049 0.780264 0.830077
O O7 0.629526 0.000000 0.750304
O O8 0.308781 0.783069 0.500000
O O9 0.250000 0.750000 0.379822
O O10 0.292879 0.000000 0.398461
O O11 0.205805 0.500000 0.900291
O O12 0.250000 0.250000 0.890983
O O13 0.185195 0.284839 0.000000
O O14 0.926155 0.500000 0.000000
O O15 0.000000 0.657417 0.000000
#
# Coordination Sequence:
#
# PCOD9488274 Si02
#       5
#    16  16  16  16   8
#     4  10  21  35  50  72 102 133 170 217 260 299
#     4  10  20  32  50  74  99 132 171 210 253 306
#     4   9  18  33  53  78 106 133 166 211 259 307
#     4   9  18  31  45  65  95 128 162 199 237 288
#     4   9  17  31  51  71  94 129 170 209 251 297
#
# _framework density 17.100061
#
# number of rings (size 3 to 8) (size 9 to 14) (size 15 to 20)
#    0.000    2.556    0.000    1.667    1.556    4.444 
#    0.000    0.000    0.000    0.667    0.000    4.667 
#    0.000    0.000    0.000    0.000    0.000    0.000 
#
# Total GULP energy -200868.938278 kJ/mol
# GULP energy per Si atom -5579.692730 kJ/mol
# Density = 1.706114 g / cm^3
# Si number density = 17.100061 Si / 1000 Ang^3
#
#
#
# Elastic Constant Matrix: (Units=GPa)
#
#
# Indices 1 2 3 4 5 6 
#
# 1 112.5783 48.7170 79.0539 0.0000 0.0000 0.0000
# 2 48.7170 34.7854 41.5656 0.0000 0.0000 0.0000
# 3 79.0539 41.5656 92.5173 0.0000 0.0000 0.0000
# 4 0.0000 0.0000 0.0000 16.8995 0.0000 0.0000
# 5 0.0000 0.0000 0.0000 0.0000 26.3173 0.0000
# 6 0.0000 0.0000 0.0000 0.0000 0.0000 30.1637
#
#
#
# Elastic Compliance Matrix: (Units=1/GPa)
#
#
# Indices 1 2 3 4 5 6 
#
# 1 0.029228 -0.023947 -0.014216 0.000000 0.000000 0.000000
# 2 -0.023947 0.081690 -0.016239 0.000000 0.000000 0.000000
# 3 -0.014216 -0.016239 0.030252 0.000000 0.000000 0.000000
# 4 0.000000 0.000000 0.000000 0.059173 0.000000 0.000000
# 5 0.000000 0.000000 0.000000 0.000000 0.037998 0.000000
# 6 0.000000 0.000000 0.000000 0.000000 0.000000 0.033152
#
#
# Mechanical properties :
#
#
# Convention : Reuss Voigt Hill
#
# Bulk Modulus (GPa) = 30.89679 64.28377 47.59028
# Shear Modulus (GPa) = 12.78490 19.37907 16.08199
#
# Velocity S-wave (km/s) = 2.73729 3.37007 3.07002
# Velocity P-wave (km/s) = 5.30074 7.26756 6.36063
#
# Compressibility (1/GPa) = 0.03236582
#
# Stress axis : x y z
#
# Youngs Moduli (GPa) = 34.21343 12.24139 33.05606
#
# Poissons Ratio (x) = 0.29315 0.46992
# Poissons Ratio (y) = 0.81932 0.53679
# Poissons Ratio (z) = 0.48638 0.19878
#
# Static dielectric constant tensor:
#      x y z
#    x 1.578970 0.000000 0.000000 
#    y 0.000000 1.567460 0.000000 
#    z 0.000000 0.000000 1.581060 
# 
# From -- ./inp_files/36565.got.cif
#   From: 2010.05.17/outbox.cif.g08.bks.cpg/sg65_19_cif.got.tgz:36565.got - 2010.06.03 17:01:31.
