data_PCOD9488351
_publ_section_title
;
Structure prediction by ZEFSAII (Michael W. Deem and Ramdas Pophale) SiO2 
 PCOD9488351
Probable space group: C M M M
;
_chemical_formula_sum "Si O2"
_cell_formula_units_Z 52
_cell_length_a 14.394701
_cell_length_b 33.389540
_cell_length_c 7.423203
_cell_angle_alpha 90.000000
_cell_angle_beta 90.000000
_cell_angle_gamma 90.000000
_cell_volume 3567.832206
_symmetry_space_group_name_H-M "C M M M"
_symmetry_group_IT_number 65
_symmetry_cell_setting 'orthorhombic'
loop_
_space_group_symop_operation_xyz
x,y,z
-x,-y,z
x,-y,-z
-x,y,-z
-x,-y,-z
x,y,-z
-x,y,z
x,-y,z
1/2+x,1/2+y,z
1/2-x,1/2-y,z
1/2+x,1/2-y,-z
1/2-x,1/2+y,-z
1/2-x,1/2-y,-z
1/2+x,1/2+y,-z
1/2-x,1/2+y,z
1/2+x,1/2-y,z
loop_
_atom_site_type_symbol
_atom_site_label
_atom_site_fract_x
_atom_site_fract_y
_atom_site_fract_z
Si Si1 0.308171 0.153658 0.500000
Si Si2 0.000000 0.769029 0.787576
Si Si3 0.706213 0.293678 0.785845
Si Si4 0.887020 0.566049 0.500000
Si Si5 0.112125 0.500000 0.794845
Si Si6 0.000000 0.700182 0.500000
O O1 0.254220 0.171631 0.328058
O O2 0.328335 0.106606 0.500000
O O3 0.408895 0.173837 0.500000
O O4 0.096067 0.791660 0.747822
O O5 0.000000 0.728845 0.672741
O O6 0.000000 0.759720 0.000000
O O7 0.750000 0.250000 0.737069
O O8 0.720293 0.298793 0.000000
O O9 0.864377 0.538907 0.675042
O O10 0.000000 0.573258 0.500000
O O11 0.000000 0.500000 0.803965
O O12 0.147684 0.500000 0.000000
#
# Coordination Sequence:
#
# PCOD9488351 Si02
#       6
#     8   8  16   8   8   4
#     4  12  21  30  45  70  97 122 156 200 237 268
#     4  10  20  34  48  62  85 124 170 204 233 274
#     4  10  20  33  47  64  89 124 163 201 238 276
#     4   9  18  30  45  68  95 120 151 188 223 270
#     4   8  15  31  50  65  87 122 153 176 219 281
#     4  12  20  28  46  65  90 126 158 197 242 266
#
# _framework density 14.574678
#
# number of rings (size 3 to 8) (size 9 to 14) (size 15 to 20)
#    0.000    2.000    3.846    2.308    0.000    1.231 
#    0.000    0.000    0.000    0.000    0.000    0.000 
#    0.000    9.846    0.000   27.692    0.000    0.000 
#
# Total GULP energy -144943.717920 kJ/mol
# GULP energy per Si atom -5574.758382 kJ/mol
# Density = 1.454150 g / cm^3
# Si number density = 14.574678 Si / 1000 Ang^3
#
#
#
# Elastic Constant Matrix: (Units=GPa)
#
#
# Indices 1 2 3 4 5 6 
#
# 1 98.1890 51.6349 43.3511 0.0000 0.0000 0.0000
# 2 51.6349 132.8098 68.9530 0.0000 0.0000 0.0000
# 3 43.3511 68.9530 97.8684 0.0000 0.0000 0.0000
# 4 0.0000 0.0000 0.0000 8.3157 0.0000 0.0000
# 5 0.0000 0.0000 0.0000 0.0000 67.7935 0.0000
# 6 0.0000 0.0000 0.0000 0.0000 0.0000 57.3714
#
#
#
# Elastic Compliance Matrix: (Units=1/GPa)
#
#
# Indices 1 2 3 4 5 6 
#
# 1 0.013568 -0.003397 -0.003616 0.000000 0.000000 0.000000
# 2 -0.003397 0.012723 -0.007459 0.000000 0.000000 0.000000
# 3 -0.003616 -0.007459 0.017075 0.000000 0.000000 0.000000
# 4 0.000000 0.000000 0.000000 0.120255 0.000000 0.000000
# 5 0.000000 0.000000 0.000000 0.000000 0.014751 0.000000
# 6 0.000000 0.000000 0.000000 0.000000 0.000000 0.017430
#
#
# Mechanical properties :
#
#
# Convention : Reuss Voigt Hill
#
# Bulk Modulus (GPa) = 69.34735 72.97167 71.15951
# Shear Modulus (GPa) = 21.78141 37.69133 29.73637
#
# Velocity S-wave (km/s) = 3.87003 5.09087 4.52184
# Velocity P-wave (km/s) = 8.22518 9.20500 8.72885
#
# Compressibility (1/GPa) = 0.01442016
#
# Stress axis : x y z
#
# Youngs Moduli (GPa) = 73.70483 78.59687 58.56548
#
# Poissons Ratio (x) = 0.26703 0.21178
# Poissons Ratio (y) = 0.25041 0.43685
# Poissons Ratio (z) = 0.26653 0.58627
#
# Static dielectric constant tensor:
#      x y z
#    x 1.479340 0.000000 0.000000 
#    y 0.000000 1.452780 0.000000 
#    z 0.000000 0.000000 1.509680 
# 
# From -- ./inp_files/4692.got.cif
#   From: 2010.05.17/outbox.cif.g08.bks.cpg/sg65_3_cif.got.tgz:4692.got - 2010.06.03 17:01:31.
