data_PCOD9488373
_publ_section_title
;
Structure prediction by ZEFSAII (Michael W. Deem and Ramdas Pophale) SiO2 
 PCOD9488373
Probable space group: C M M M
;
_chemical_formula_sum "Si O2"
_cell_formula_units_Z 104
_cell_length_a 33.106837
_cell_length_b 21.236856
_cell_length_c 7.612989
_cell_angle_alpha 90.000000
_cell_angle_beta 90.000000
_cell_angle_gamma 90.000000
_cell_volume 5352.579361
_symmetry_space_group_name_H-M "C M M M"
_symmetry_group_IT_number 65
_symmetry_cell_setting 'orthorhombic'
loop_
_space_group_symop_operation_xyz
x,y,z
-x,-y,z
x,-y,-z
-x,y,-z
-x,-y,-z
x,y,-z
-x,y,z
x,-y,z
1/2+x,1/2+y,z
1/2-x,1/2-y,z
1/2+x,1/2-y,-z
1/2-x,1/2+y,-z
1/2-x,1/2-y,-z
1/2+x,1/2+y,-z
1/2-x,1/2+y,z
1/2+x,1/2-y,z
loop_
_atom_site_type_symbol
_atom_site_label
_atom_site_fract_x
_atom_site_fract_y
_atom_site_fract_z
Si Si1 0.545846 0.000000 0.289565
Si Si2 0.132146 0.193961 0.289279
Si Si3 0.955551 0.757127 0.789046
Si Si4 0.176576 0.069917 0.714169
Si Si5 0.085960 0.368868 0.794149
Si Si6 0.170587 0.322098 0.299714
Si Si7 0.729380 0.070749 0.285410
O O1 0.567999 0.937264 0.229584
O O2 0.500000 0.000000 0.223795
O O3 0.545300 0.000000 0.500000
O O4 0.136934 0.195217 0.500000
O O5 0.084531 0.203693 0.256735
O O6 0.149757 0.128102 0.223443
O O7 0.157764 0.254364 0.220855
O O8 0.944852 0.685580 0.733227
O O9 0.000000 0.776181 0.722167
O O10 0.957795 0.757542 0.000000
O O11 0.175316 0.069927 0.500000
O O12 0.223617 0.078353 0.761972
O O13 0.163672 0.000000 0.771804
O O14 0.128244 0.359313 0.698324
O O15 0.093882 0.357662 0.000000
O O16 0.184226 0.309671 0.500000
O O17 0.202905 0.370495 0.220111
O O18 0.726949 0.070880 0.500000
O O19 0.716239 0.000000 0.229802
#
# Coordination Sequence:
#
# PCOD9488373 Si02
#       7
#     8  16  16  16  16  16  16
#     4  11  23  35  47  65  89 119 157 201 245 281
#     4   9  17  28  45  71  96 117 149 196 239 275
#     4   9  18  33  51  68  89 120 154 187 228 284
#     4   8  14  26  44  67  95 124 154 188 231 280
#     4  10  20  33  48  66  90 122 158 194 234 280
#     4   9  17  28  43  67  95 121 155 197 238 273
#     4   8  14  24  40  63  91 126 161 191 227 273
#
# _framework density 19.429884999999999
#
# number of rings (size 3 to 8) (size 9 to 14) (size 15 to 20)
#    0.000    3.000    0.000    2.077    1.077    2.769 
#    0.000    3.077    0.000    1.846    0.000    9.692 
#    0.000    0.000    0.000    0.000    0.000    0.000 
#
# Total GULP energy -289820.834491 kJ/mol
# GULP energy per Si atom -5573.477586 kJ/mol
# Density = 1.938566 g / cm^3
# Si number density = 19.429885 Si / 1000 Ang^3
#
#
#
# Elastic Constant Matrix: (Units=GPa)
#
#
# Indices 1 2 3 4 5 6 
#
# 1 104.4806 109.8354 1.2605 0.0000 0.0000 0.0000
# 2 109.8354 181.1926 3.1234 0.0000 0.0000 0.0000
# 3 1.2605 3.1234 43.4348 0.0000 0.0000 0.0000
# 4 0.0000 0.0000 0.0000 2.6254 0.0000 0.0000
# 5 0.0000 0.0000 0.0000 0.0000 83.6311 0.0000
# 6 0.0000 0.0000 0.0000 0.0000 0.0000 15.5415
#
#
#
# Elastic Compliance Matrix: (Units=1/GPa)
#
#
# Indices 1 2 3 4 5 6 
#
# 1 0.026391 -0.016005 0.000385 0.000000 0.000000 0.000000
# 2 -0.016005 0.015231 -0.000631 0.000000 0.000000 0.000000
# 3 0.000385 -0.000631 0.023057 0.000000 0.000000 0.000000
# 4 0.000000 0.000000 0.000000 0.380893 0.000000 0.000000
# 5 0.000000 0.000000 0.000000 0.000000 0.011957 0.000000
# 6 0.000000 0.000000 0.000000 0.000000 0.000000 0.064344
#
#
# Mechanical properties :
#
#
# Convention : Reuss Voigt Hill
#
# Bulk Modulus (GPa) = 31.07594 61.94964 46.51279
# Shear Modulus (GPa) = 8.84798 34.68551 21.76675
#
# Velocity S-wave (km/s) = 2.13628 4.22970 3.35068
# Velocity P-wave (km/s) = 4.70250 7.47039 6.24181
#
# Compressibility (1/GPa) = 0.03217923
#
# Stress axis : x y z
#
# Youngs Moduli (GPa) = 37.89129 65.65350 43.37042
#
# Poissons Ratio (x) = 1.05075 -0.01670
# Poissons Ratio (y) = 0.60643 0.02736
# Poissons Ratio (z) = -0.01459 0.04142
#
# Static dielectric constant tensor:
#      x y z
#    x 1.665840 0.000000 0.000000 
#    y 0.000000 1.673010 0.000000 
#    z 0.000000 0.000000 1.734440 
# 
# From -- ./inp_files/18699.got.cif
#   From: 2010.05.17/outbox.cif.g08.bks.cpg/sg65_10_cif.got.tgz:18699.got - 2010.06.03 17:01:31.
