data_PCOD9488737
_publ_section_title
;
Structure prediction by ZEFSAII (Michael W. Deem and Ramdas Pophale) SiO2 
 PCOD9488737
Probable space group: C M M M
;
_chemical_formula_sum "Si O2"
_cell_formula_units_Z 88
_cell_length_a 20.283717
_cell_length_b 16.488203
_cell_length_c 13.538561
_cell_angle_alpha 90.000000
_cell_angle_beta 90.000000
_cell_angle_gamma 90.000000
_cell_volume 4527.864007
_symmetry_space_group_name_H-M "C M M M"
_symmetry_group_IT_number 65
_symmetry_cell_setting 'orthorhombic'
loop_
_space_group_symop_operation_xyz
x,y,z
-x,-y,z
x,-y,-z
-x,y,-z
-x,-y,-z
x,y,-z
-x,y,z
x,-y,z
1/2+x,1/2+y,z
1/2-x,1/2-y,z
1/2+x,1/2-y,-z
1/2-x,1/2+y,-z
1/2-x,1/2-y,-z
1/2+x,1/2+y,-z
1/2-x,1/2+y,z
1/2+x,1/2-y,z
loop_
_atom_site_type_symbol
_atom_site_label
_atom_site_fract_x
_atom_site_fract_y
_atom_site_fract_z
Si Si1 0.884277 0.120115 0.110734
Si Si2 0.741827 0.088553 0.806890
Si Si3 0.000000 0.406473 0.120592
Si Si4 0.872784 0.312477 0.114027
Si Si5 0.289248 0.664214 0.385987
Si Si6 0.924972 0.906969 0.671737
O O1 0.808390 0.095102 0.129138
O O2 0.885905 0.217506 0.115912
O O3 0.921767 0.091242 0.208276
O O4 0.905769 0.096058 0.000000
O O5 0.693098 0.160601 0.833111
O O6 0.761145 0.101025 0.693288
O O7 0.711546 0.000000 0.824550
O O8 0.064932 0.360488 0.155612
O O9 0.000000 0.500000 0.148032
O O10 0.000000 0.401304 0.000000
O O11 0.864130 0.336960 0.000000
O O12 0.278990 0.642832 0.500000
O O13 0.250000 0.750000 0.370280
O O14 0.368363 0.655873 0.364151
O O15 0.000000 0.886780 0.641860
O O16 0.910217 0.000000 0.638356
#
# Coordination Sequence:
#
# PCOD9488737 Si02
#       6
#    16  16   8  16  16  16
#     4  10  20  33  51  75 111 153 191 226 266 322
#     4  11  21  33  53  80 108 141 182 228 278 331
#     4   9  18  32  48  70 100 134 178 229 274 318
#     4  10  20  33  51  75 107 146 186 229 273 320
#     4  10  21  39  61  82 108 141 182 233 286 340
#     4  10  22  38  57  85 120 154 189 232 281 338
#
# _framework density 19.435213000000001
#
# number of rings (size 3 to 8) (size 9 to 14) (size 15 to 20)
#    0.000    1.909    0.000    6.000    1.273    6.909 
#    0.000    1.818    0.000    0.000    0.000    0.000 
#    0.000    2.182    0.000    0.182    0.000    0.000 
#
# Total GULP energy -245420.494461 kJ/mol
# GULP energy per Si atom -5577.738510 kJ/mol
# Density = 1.939098 g / cm^3
# Si number density = 19.435213 Si / 1000 Ang^3
#
#
#
# Elastic Constant Matrix: (Units=GPa)
#
#
# Indices 1 2 3 4 5 6 
#
# 1 98.4217 31.2254 4.5075 0.0000 0.0000 0.0000
# 2 31.2254 84.8395 7.9647 0.0000 0.0000 0.0000
# 3 4.5075 7.9647 65.6500 0.0000 0.0000 0.0000
# 4 0.0000 0.0000 0.0000 6.6451 0.0000 0.0000
# 5 0.0000 0.0000 0.0000 0.0000 7.3597 0.0000
# 6 0.0000 0.0000 0.0000 0.0000 0.0000 22.9354
#
#
#
# Elastic Compliance Matrix: (Units=1/GPa)
#
#
# Indices 1 2 3 4 5 6 
#
# 1 0.011509 -0.004210 -0.000279 0.000000 0.000000 0.000000
# 2 -0.004210 0.013463 -0.001344 0.000000 0.000000 0.000000
# 3 -0.000279 -0.001344 0.015415 0.000000 0.000000 0.000000
# 4 0.000000 0.000000 0.000000 0.150486 0.000000 0.000000
# 5 0.000000 0.000000 0.000000 0.000000 0.135875 0.000000
# 6 0.000000 0.000000 0.000000 0.000000 0.000000 0.043601
#
#
# Mechanical properties :
#
#
# Convention : Reuss Voigt Hill
#
# Bulk Modulus (GPa) = 34.81996 37.36740 36.09368
# Shear Modulus (GPa) = 12.76855 21.06895 16.91875
#
# Velocity S-wave (km/s) = 2.56594 3.29608 2.95366
# Velocity P-wave (km/s) = 5.17045 5.80981 5.49943
#
# Compressibility (1/GPa) = 0.02871916
#
# Stress axis : x y z
#
# Youngs Moduli (GPa) = 86.89086 74.28036 64.87369
#
# Poissons Ratio (x) = 0.31269 0.01813
# Poissons Ratio (y) = 0.36577 0.08721
# Poissons Ratio (z) = 0.02428 0.09985
#
# Static dielectric constant tensor:
#      x y z
#    x 1.705550 0.000000 0.000000 
#    y 0.000000 1.679580 0.000000 
#    z 0.000000 0.000000 1.682700 
# 
# From -- ./inp_files/43970.got.cif
#   From: 2010.05.17/outbox.cif.g08.bks.cpg/sg65_22_cif.got.tgz:43970.got - 2010.06.03 17:01:31.
