data_PCOD9488782
_publ_section_title
;
Structure prediction by ZEFSAII (Michael W. Deem and Ramdas Pophale) SiO2 
 PCOD9488782
Probable space group: C M M M
;
_chemical_formula_sum "Si O2"
_cell_formula_units_Z 120
_cell_length_a 28.501480
_cell_length_b 27.889642
_cell_length_c 7.672458
_cell_angle_alpha 90.000000
_cell_angle_beta 90.000000
_cell_angle_gamma 90.000000
_cell_volume 6098.806740
_symmetry_space_group_name_H-M "C M M M"
_symmetry_group_IT_number 65
_symmetry_cell_setting 'orthorhombic'
loop_
_space_group_symop_operation_xyz
x,y,z
-x,-y,z
x,-y,-z
-x,y,-z
-x,-y,-z
x,y,-z
-x,y,z
x,-y,z
1/2+x,1/2+y,z
1/2-x,1/2-y,z
1/2+x,1/2-y,-z
1/2-x,1/2+y,-z
1/2-x,1/2-y,-z
1/2+x,1/2+y,-z
1/2-x,1/2+y,z
1/2+x,1/2-y,z
loop_
_atom_site_type_symbol
_atom_site_label
_atom_site_fract_x
_atom_site_fract_y
_atom_site_fract_z
Si Si1 0.781360 0.098349 0.713777
Si Si2 0.241285 0.697714 0.296973
Si Si3 0.052845 0.709167 0.208140
Si Si4 0.357125 0.153919 0.793654
Si Si5 0.183974 0.446829 0.289273
Si Si6 0.946406 0.181091 0.710574
Si Si7 0.114137 0.092450 0.707770
Si Si8 0.946949 0.000000 0.791930
O O1 0.780388 0.097648 0.500000
O O2 0.770233 0.152558 0.774374
O O3 0.737168 0.066082 0.768207
O O4 0.833067 0.083966 0.773399
O O5 0.255264 0.700794 0.500000
O O6 0.250000 0.750000 0.218145
O O7 0.187128 0.681864 0.286882
O O8 0.093653 0.674371 0.274790
O O9 0.066098 0.764635 0.239873
O O10 0.000000 0.701926 0.279053
O O11 0.050196 0.702205 0.000000
O O12 0.348563 0.097492 0.765101
O O13 0.355009 0.163121 0.000000
O O14 0.184070 0.447048 0.500000
O O15 0.170612 0.500000 0.228843
O O16 0.946905 0.178839 0.500000
O O17 0.910961 0.140521 0.776368
O O18 0.000000 0.171906 0.770783
O O19 0.118670 0.099050 0.500000
O O20 0.081068 0.047187 0.737360
O O21 0.000000 0.000000 0.721872
O O22 0.949290 0.000000 0.000000
#
# Coordination Sequence:
#
# PCOD9488782 Si02
#       8
#    16  16  16  16  16  16  16   8
#     4   8  16  30  49  77 102 126 163 203 246 295
#     4   9  18  32  52  75 103 139 173 204 245 302
#     4   9  19  35  53  74 104 142 176 205 246 302
#     4  10  20  33  51  77 106 136 171 212 257 303
#     4   9  18  34  56  77 102 135 171 209 251 309
#     4   9  18  31  49  76 103 127 164 214 260 300
#     4  10  20  34  56  78  98 126 166 217 262 304
#     4  11  25  41  53  69  97 133 173 217 266 317
#
# _framework density 19.675979999999999
#
# number of rings (size 3 to 8) (size 9 to 14) (size 15 to 20)
#    0.000    2.733    0.000    1.800    2.800    3.200 
#    0.000    4.000    0.000    0.400    0.000    2.800 
#    0.000    0.000    0.000    0.000    0.000    0.000 
#
# Total GULP energy -334694.624878 kJ/mol
# GULP energy per Si atom -5578.243748 kJ/mol
# Density = 1.963120 g / cm^3
# Si number density = 19.675980 Si / 1000 Ang^3
#
#
#
# Elastic Constant Matrix: (Units=GPa)
#
#
# Indices 1 2 3 4 5 6 
#
# 1 126.4175 73.8166 -10.1420 0.0000 0.0000 0.0000
# 2 73.8166 125.3823 -15.1169 0.0000 0.0000 0.0000
# 3 -10.1420 -15.1169 28.8108 0.0000 0.0000 0.0000
# 4 0.0000 0.0000 0.0000 23.1266 0.0000 0.0000
# 5 0.0000 0.0000 0.0000 0.0000 15.3080 0.0000
# 6 0.0000 0.0000 0.0000 0.0000 0.0000 16.5480
#
#
#
# Elastic Compliance Matrix: (Units=1/GPa)
#
#
# Indices 1 2 3 4 5 6 
#
# 1 0.012062 -0.007035 0.000555 0.000000 0.000000 0.000000
# 2 -0.007035 0.012617 0.004144 0.000000 0.000000 0.000000
# 3 0.000555 0.004144 0.037079 0.000000 0.000000 0.000000
# 4 0.000000 0.000000 0.000000 0.043240 0.000000 0.000000
# 5 0.000000 0.000000 0.000000 0.000000 0.065325 0.000000
# 6 0.000000 0.000000 0.000000 0.000000 0.000000 0.060430
#
#
# Mechanical properties :
#
#
# Convention : Reuss Voigt Hill
#
# Bulk Modulus (GPa) = 17.51733 41.96956 29.74345
# Shear Modulus (GPa) = 19.64991 26.46672 23.05831
#
# Velocity S-wave (km/s) = 3.16361 3.67158 3.42702
# Velocity P-wave (km/s) = 4.71877 6.27301 5.55056
#
# Compressibility (1/GPa) = 0.05708631
#
# Stress axis : x y z
#
# Youngs Moduli (GPa) = 82.90210 79.26016 26.96957
#
# Poissons Ratio (x) = 0.55756 -0.01497
# Poissons Ratio (y) = 0.58318 -0.11175
# Poissons Ratio (z) = -0.04603 -0.32842
#
# Static dielectric constant tensor:
#      x y z
#    x 1.696520 0.000000 0.000000 
#    y 0.000000 1.672020 0.000000 
#    z 0.000000 0.000000 1.749320 
# 
# From -- ./inp_files/17114.got.cif
#   From: 2010.05.17/outbox.cif.g08.bks.cpg/sg65_9_cif.got.tgz:17114.got - 2010.06.03 17:01:31.
