data_PCOD9488514
_publ_section_title
;
Structure prediction by ZEFSAII (Michael W. Deem and Ramdas Pophale) SiO2 
 PCOD9488514
Probable space group: C M M M
;
_chemical_formula_sum "Si O2"
_cell_formula_units_Z 96
_cell_length_a 27.965050
_cell_length_b 8.794716
_cell_length_c 24.724956
_cell_angle_alpha 90.000000
_cell_angle_beta 90.000000
_cell_angle_gamma 90.000000
_cell_volume 6080.971210
_symmetry_space_group_name_H-M "C M M M"
_symmetry_group_IT_number 65
_symmetry_cell_setting 'orthorhombic'
loop_
_space_group_symop_operation_xyz
x,y,z
-x,-y,z
x,-y,-z
-x,y,-z
-x,-y,-z
x,y,-z
-x,y,z
x,-y,z
1/2+x,1/2+y,z
1/2-x,1/2-y,z
1/2+x,1/2-y,-z
1/2-x,1/2+y,-z
1/2-x,1/2-y,-z
1/2+x,1/2+y,-z
1/2-x,1/2+y,z
1/2+x,1/2-y,z
loop_
_atom_site_type_symbol
_atom_site_label
_atom_site_fract_x
_atom_site_fract_y
_atom_site_fract_z
Si Si1 0.895744 0.317890 0.438795
Si Si2 0.851688 0.181929 0.726110
Si Si3 0.196564 0.680856 0.830372
Si Si4 0.301862 0.318553 0.387843
Si Si5 0.696306 0.317767 0.940751
Si Si6 0.553878 0.316737 0.335992
O O1 0.908977 0.275315 0.500000
O O2 0.894920 0.500000 0.434728
O O3 0.843240 0.253852 0.424496
O O4 0.931028 0.251623 0.393633
O O5 0.833579 0.267780 0.778692
O O6 0.817652 0.212585 0.674349
O O7 0.904890 0.226651 0.706599
O O8 0.850632 0.000000 0.735894
O O9 0.200336 0.500000 0.833665
O O10 0.250000 0.750000 0.824409
O O11 0.175007 0.746073 0.886466
O O12 0.301625 0.500000 0.395110
O O13 0.250000 0.250000 0.398647
O O14 0.698790 0.500000 0.935252
O O15 0.750000 0.250000 0.942280
O O16 0.674554 0.282967 0.000000
O O17 0.500000 0.272561 0.321206
O O18 0.556087 0.500000 0.340500
#
# Coordination Sequence:
#
# PCOD9488514 Si02
#       6
#    16  16  16  16  16  16
#     4  10  21  35  50  70  95 121 150 184 222 268
#     4   9  18  32  48  67  91 116 147 186 224 268
#     4  11  20  28  42  64  92 126 160 191 224 262
#     4  10  20  33  50  69  91 122 155 189 228 268
#     4   9  16  26  40  58  84 120 159 195 228 260
#     4   9  19  36  56  74  91 115 146 183 231 280
#
# _framework density 15.786951
#
# number of rings (size 3 to 8) (size 9 to 14) (size 15 to 20)
#    0.000    2.333    0.000    5.500    0.000    8.000 
#    0.000    1.667    0.000    0.000    0.000    0.000 
#    0.000    0.667    0.000    7.667    0.000    2.167 
#
# Total GULP energy -267668.209979 kJ/mol
# GULP energy per Si atom -5576.421041 kJ/mol
# Density = 1.575102 g / cm^3
# Si number density = 15.786951 Si / 1000 Ang^3
#
#
#
# Elastic Constant Matrix: (Units=GPa)
#
#
# Indices 1 2 3 4 5 6 
#
# 1 67.8370 18.5201 27.1357 0.0000 0.0000 0.0000
# 2 18.5201 53.6419 44.5076 0.0000 0.0000 0.0000
# 3 27.1357 44.5076 115.1058 0.0000 0.0000 0.0000
# 4 0.0000 0.0000 0.0000 27.3526 0.0000 0.0000
# 5 0.0000 0.0000 0.0000 0.0000 6.0897 0.0000
# 6 0.0000 0.0000 0.0000 0.0000 0.0000 18.2102
#
#
#
# Elastic Compliance Matrix: (Units=1/GPa)
#
#
# Indices 1 2 3 4 5 6 
#
# 1 0.016759 -0.003693 -0.002523 0.000000 0.000000 0.000000
# 2 -0.003693 0.028262 -0.010057 0.000000 0.000000 0.000000
# 3 -0.002523 -0.010057 0.013171 0.000000 0.000000 0.000000
# 4 0.000000 0.000000 0.000000 0.036560 0.000000 0.000000
# 5 0.000000 0.000000 0.000000 0.000000 0.164213 0.000000
# 6 0.000000 0.000000 0.000000 0.000000 0.000000 0.054914
#
#
# Mechanical properties :
#
#
# Convention : Reuss Voigt Hill
#
# Bulk Modulus (GPa) = 38.99284 46.32352 42.65818
# Shear Modulus (GPa) = 14.08558 20.09191 17.08874
#
# Velocity S-wave (km/s) = 2.99026 3.57135 3.29365
# Velocity P-wave (km/s) = 6.05601 6.81268 6.44546
#
# Compressibility (1/GPa) = 0.02564573
#
# Stress axis : x y z
#
# Youngs Moduli (GPa) = 59.67098 35.38341 75.92266
#
# Poissons Ratio (x) = 0.13066 0.19155
# Poissons Ratio (y) = 0.22034 0.76358
# Poissons Ratio (z) = 0.15055 0.35587
#
# Static dielectric constant tensor:
#      x y z
#    x 1.509800 0.000000 0.000000 
#    y 0.000000 1.527170 0.000000 
#    z 0.000000 0.000000 1.548590 
# 
# From -- ./inp_files/71684.got.cif
#   From: 2010.05.17/outbox.cif.g08.bks.cpg/sg65_36_cif.got.tgz:71684.got - 2010.06.03 17:01:31.
