data_PCOD9488075
_publ_section_title
;
Structure prediction by ZEFSAII (Michael W. Deem and Ramdas Pophale) SiO2 
 PCOD9488075
Probable space group: C M M M
;
_chemical_formula_sum "Si O2"
_cell_formula_units_Z 80
_cell_length_a 17.939639
_cell_length_b 20.971503
_cell_length_c 14.084460
_cell_angle_alpha 90.000000
_cell_angle_beta 90.000000
_cell_angle_gamma 90.000000
_cell_volume 5298.872345
_symmetry_space_group_name_H-M "C M M M"
_symmetry_group_IT_number 65
_symmetry_cell_setting 'orthorhombic'
loop_
_space_group_symop_operation_xyz
x,y,z
-x,-y,z
x,-y,-z
-x,y,-z
-x,-y,-z
x,y,-z
-x,y,z
x,-y,z
1/2+x,1/2+y,z
1/2-x,1/2-y,z
1/2+x,1/2-y,-z
1/2-x,1/2+y,-z
1/2-x,1/2-y,-z
1/2+x,1/2+y,-z
1/2-x,1/2+y,z
1/2+x,1/2-y,z
loop_
_atom_site_type_symbol
_atom_site_label
_atom_site_fract_x
_atom_site_fract_y
_atom_site_fract_z
Si Si1 0.087255 0.000000 0.386671
Si Si2 0.913276 0.923492 0.888883
Si Si3 0.585099 0.000000 0.614850
Si Si4 0.820008 0.375074 0.386672
Si Si5 0.339793 0.375831 0.292138
Si Si6 0.087565 0.754603 0.611348
O O1 0.124538 0.936846 0.345004
O O2 0.094540 0.000000 0.500000
O O3 0.000000 0.000000 0.361621
O O4 0.857847 0.888025 0.818059
O O5 0.000000 0.908391 0.865250
O O6 0.904889 0.000000 0.877093
O O7 0.901723 0.909103 0.000000
O O8 0.630567 0.063512 0.640097
O O9 0.500000 0.000000 0.650538
O O10 0.580934 0.000000 0.500000
O O11 0.801080 0.380053 0.500000
O O12 0.745720 0.372688 0.324383
O O13 0.867681 0.310845 0.374273
O O14 0.379790 0.311768 0.327163
O O15 0.096014 0.772235 0.500000
O O16 0.000000 0.745067 0.629622
#
# Coordination Sequence:
#
# PCOD9488075 Si02
#       6
#     8  16   8  16  16  16
#     4  11  21  29  40  65 100 132 157 181 220 282
#     4   9  18  33  51  70  94 126 164 202 241 290
#     4   9  17  31  49  66  90 129 172 207 235 268
#     4  10  20  32  47  70 100 131 164 203 242 283
#     4  12  20  30  48  71  99 127 158 200 248 288
#     4  10  20  33  48  67  96 137 175 199 230 286
#
# _framework density 15.097552
#
# number of rings (size 3 to 8) (size 9 to 14) (size 15 to 20)
#    0.000    1.800    1.000    6.000    0.000    6.400 
#    0.000    0.000    0.000    2.400    0.000    0.000 
#    0.000    3.200    0.000    0.000    0.000    0.200 
#
# Total GULP energy -223272.717200 kJ/mol
# GULP energy per Si atom -5581.817930 kJ/mol
# Density = 1.506319 g / cm^3
# Si number density = 15.097552 Si / 1000 Ang^3
#
#
#
# Elastic Constant Matrix: (Units=GPa)
#
#
# Indices 1 2 3 4 5 6 
#
# 1 117.2117 45.4449 65.7211 0.0000 0.0000 0.0000
# 2 45.4449 92.1347 46.6373 0.0000 0.0000 0.0000
# 3 65.7211 46.6373 74.3322 0.0000 0.0000 0.0000
# 4 0.0000 0.0000 0.0000 15.4244 0.0000 0.0000
# 5 0.0000 0.0000 0.0000 0.0000 -14.6702 0.0000
# 6 0.0000 0.0000 0.0000 0.0000 0.0000 25.5365
#
#
#
# Elastic Compliance Matrix: (Units=1/GPa)
#
#
# Indices 1 2 3 4 5 6 
#
# 1 0.017000 -0.001138 -0.014317 0.000000 0.000000 0.000000
# 2 -0.001138 0.015981 -0.009020 0.000000 0.000000 0.000000
# 3 -0.014317 -0.009020 0.031771 0.000000 0.000000 0.000000
# 4 0.000000 0.000000 0.000000 0.064833 0.000000 0.000000
# 5 0.000000 0.000000 0.000000 0.000000 -0.068165 0.000000
# 6 0.000000 0.000000 0.000000 0.000000 0.000000 0.039160
#
#
# Mechanical properties :
#
#
# Convention : Reuss Voigt Hill
#
# Bulk Modulus (GPa) = 63.28525 66.58723 64.93624
# Shear Modulus (GPa) = 32.30038 13.64981 22.97510
#
# Velocity S-wave (km/s) = 4.63043 3.01010 3.90523
# Velocity P-wave (km/s) = 8.40217 7.50209 7.96485
#
# Compressibility (1/GPa) = 0.01580147
#
# Stress axis : x y z
#
# Youngs Moduli (GPa) = 58.82224 62.57373 31.47553
#
# Poissons Ratio (x) = 0.07124 0.45062
# Poissons Ratio (y) = 0.06697 0.28392
# Poissons Ratio (z) = 0.84214 0.56443
#
# Static dielectric constant tensor:
#      x y z
#    x 1.498540 0.000000 0.000000 
#    y 0.000000 1.484690 0.000000 
#    z 0.000000 0.000000 1.492940 
# 
# From -- ./inp_files/42372.got.cif
#   From: 2010.05.17/outbox.cif.g08.bks.cpg/sg65_22_cif.got.tgz:42372.got - 2010.06.03 17:01:31.
