data_PCOD9488505
_publ_section_title
;
Structure prediction by ZEFSAII (Michael W. Deem and Ramdas Pophale) SiO2 
 PCOD9488505
Probable space group: C M M M
;
_chemical_formula_sum "Si O2"
_cell_formula_units_Z 56
_cell_length_a 29.430981
_cell_length_b 8.774612
_cell_length_c 12.452980
_cell_angle_alpha 90.000000
_cell_angle_beta 90.000000
_cell_angle_gamma 90.000000
_cell_volume 3215.925288
_symmetry_space_group_name_H-M "C M M M"
_symmetry_group_IT_number 65
_symmetry_cell_setting 'orthorhombic'
loop_
_space_group_symop_operation_xyz
x,y,z
-x,-y,z
x,-y,-z
-x,y,-z
-x,-y,-z
x,y,-z
-x,y,z
x,-y,z
1/2+x,1/2+y,z
1/2-x,1/2-y,z
1/2+x,1/2-y,-z
1/2-x,1/2+y,-z
1/2-x,1/2-y,-z
1/2+x,1/2+y,-z
1/2-x,1/2+y,z
1/2+x,1/2-y,z
loop_
_atom_site_type_symbol
_atom_site_label
_atom_site_fract_x
_atom_site_fract_y
_atom_site_fract_z
Si Si1 0.500000 0.828518 0.629234
Si Si2 0.447845 0.184554 0.000000
Si Si3 0.800285 0.817917 0.000000
Si Si4 0.129849 0.682723 0.166259
Si Si5 0.903797 0.181948 0.375288
O O1 0.500000 0.842132 0.500000
O O2 0.545618 0.738785 0.654633
O O3 0.500000 0.000000 0.675913
O O4 0.416745 0.227584 0.897321
O O5 0.500000 0.241103 0.000000
O O6 0.450230 0.000000 0.000000
O O7 0.750000 0.750000 0.000000
O O8 0.828881 0.757029 0.101614
O O9 0.798933 0.000000 0.000000
O O10 0.133141 0.500000 0.160989
O O11 0.127942 0.739369 0.287977
O O12 0.895307 0.224921 0.500000
O O13 0.901267 0.000000 0.367622
#
# Coordination Sequence:
#
# PCOD9488505 Si02
#       5
#     8   8   8  16  16
#     4   9  17  29  45  66  95 140 193 233 266 309
#     4   8  16  30  47  71 104 140 177 222 268 310
#     4  11  22  40  64  86 111 138 175 224 278 333
#     4  10  20  34  55  82 110 142 185 227 272 327
#     4  10  20  33  49  73 109 149 187 230 276 321
#
# _framework density 17.413340999999999
#
# number of rings (size 3 to 8) (size 9 to 14) (size 15 to 20)
#    0.000    2.286    0.000    4.286    2.000    3.429 
#    0.000    0.000    0.000    3.429    0.000    0.000 
#    0.000    0.000    0.000    0.000    0.000    0.000 
#
# Total GULP energy -156199.155120 kJ/mol
# GULP energy per Si atom -5578.541254 kJ/mol
# Density = 1.737371 g / cm^3
# Si number density = 17.413341 Si / 1000 Ang^3
#
#
#
# Elastic Constant Matrix: (Units=GPa)
#
#
# Indices 1 2 3 4 5 6 
#
# 1 127.9923 50.9092 64.9875 0.0000 0.0000 0.0000
# 2 50.9092 97.7015 58.8630 0.0000 0.0000 0.0000
# 3 64.9875 58.8630 128.5574 0.0000 0.0000 0.0000
# 4 0.0000 0.0000 0.0000 26.8898 0.0000 0.0000
# 5 0.0000 0.0000 0.0000 0.0000 -3.6469 0.0000
# 6 0.0000 0.0000 0.0000 0.0000 0.0000 25.4154
#
#
#
# Elastic Compliance Matrix: (Units=1/GPa)
#
#
# Indices 1 2 3 4 5 6 
#
# 1 0.011259 -0.003366 -0.004150 0.000000 0.000000 0.000000
# 2 -0.003366 0.015141 -0.005231 0.000000 0.000000 0.000000
# 3 -0.004150 -0.005231 0.012272 0.000000 0.000000 0.000000
# 4 0.000000 0.000000 0.000000 0.037189 0.000000 0.000000
# 5 0.000000 0.000000 0.000000 0.000000 -0.274208 0.000000
# 6 0.000000 0.000000 0.000000 0.000000 0.000000 0.039346
#
#
# Mechanical properties :
#
#
# Convention : Reuss Voigt Hill
#
# Bulk Modulus (GPa) = 75.89128 78.19675 77.04401
# Shear Modulus (GPa) = -38.72568 21.69775 -8.51397
#
# Velocity S-wave (km/s) = -4.72095 3.53376 -2.21358
# Velocity P-wave (km/s) = 3.73636 7.85199 6.14874
#
# Compressibility (1/GPa) = 0.01317675
#
# Stress axis : x y z
#
# Youngs Moduli (GPa) = 88.81572 66.04660 81.48801
#
# Poissons Ratio (x) = 0.22234 0.33820
# Poissons Ratio (y) = 0.29899 0.42625
# Poissons Ratio (z) = 0.36862 0.34548
#
# Static dielectric constant tensor:
#      x y z
#    x 1.589470 0.000000 0.000000 
#    y 0.000000 1.579070 0.000000 
#    z 0.000000 0.000000 1.622530 
# 
# From -- ./inp_files/20488.got.cif
#   From: 2010.05.17/outbox.cif.g08.bks.cpg/sg65_11_cif.got.tgz:20488.got - 2010.06.03 17:01:31.
