data_PCOD9488789
_publ_section_title
;
Structure prediction by ZEFSAII (Michael W. Deem and Ramdas Pophale) SiO2 
 PCOD9488789
Probable space group: C M M M
;
_chemical_formula_sum "Si O2"
_cell_formula_units_Z 96
_cell_length_a 8.135786
_cell_length_b 18.762101
_cell_length_c 31.880896
_cell_angle_alpha 90.000000
_cell_angle_beta 90.000000
_cell_angle_gamma 90.000000
_cell_volume 4866.441473
_symmetry_space_group_name_H-M "C M M M"
_symmetry_group_IT_number 65
_symmetry_cell_setting 'orthorhombic'
loop_
_space_group_symop_operation_xyz
x,y,z
-x,-y,z
x,-y,-z
-x,y,-z
-x,-y,-z
x,y,-z
-x,y,z
x,-y,z
1/2+x,1/2+y,z
1/2-x,1/2-y,z
1/2+x,1/2-y,-z
1/2-x,1/2+y,-z
1/2-x,1/2-y,-z
1/2+x,1/2+y,-z
1/2-x,1/2+y,z
1/2+x,1/2-y,z
loop_
_atom_site_type_symbol
_atom_site_label
_atom_site_fract_x
_atom_site_fract_y
_atom_site_fract_z
Si Si1 0.198604 0.668659 0.452818
Si Si2 0.200432 0.582537 0.952964
Si Si3 0.698116 0.918606 0.790616
Si Si4 0.698528 0.918884 0.627240
Si Si5 0.698795 0.168308 0.127981
Si Si6 0.694914 0.331956 0.708822
O O1 0.255695 0.650133 0.500000
O O2 0.250000 0.750000 0.444202
O O3 0.257928 0.617197 0.415935
O O4 0.000000 0.666076 0.453050
O O5 0.247435 0.500000 0.945648
O O6 0.257587 0.632796 0.915441
O O7 0.000000 0.583914 0.952915
O O8 0.253877 0.603199 0.000000
O O9 0.500000 0.921668 0.793179
O O10 0.757340 0.877429 0.832111
O O11 0.741542 0.874680 0.749215
O O12 0.759233 0.000000 0.788657
O O13 0.500000 0.921087 0.625422
O O14 0.745063 0.870801 0.666752
O O15 0.758146 0.000000 0.632010
O O16 0.500000 0.165379 0.127857
O O17 0.750000 0.250000 0.131578
O O18 0.500000 0.333725 0.709424
O O19 0.750000 0.250000 0.709904
#
# Coordination Sequence:
#
# PCOD9488789 Si02
#       6
#    16  16  16  16  16  16
#     4   9  18  33  54  80 109 143 183 224 266 314
#     4   8  14  27  49  75 101 132 174 220 261 306
#     4  10  21  38  59  81 107 139 176 220 269 320
#     4  10  21  37  57  82 113 147 182 222 269 319
#     4  10  20  33  51  77 107 139 175 215 261 313
#     4  12  25  40  59  82 109 141 179 222 268 320
#
# _framework density 19.726939000000002
#
# number of rings (size 3 to 8) (size 9 to 14) (size 15 to 20)
#    0.000    2.167    0.000    4.000    0.000    9.333 
#    0.000    1.667    0.000    1.500    0.000    4.667 
#    0.000    0.000    0.000    0.000    0.000    0.000 
#
# Total GULP energy -268079.562402 kJ/mol
# GULP energy per Si atom -5584.990883 kJ/mol
# Density = 1.968204 g / cm^3
# Si number density = 19.726939 Si / 1000 Ang^3
#
#
#
# Elastic Constant Matrix: (Units=GPa)
#
#
# Indices 1 2 3 4 5 6 
#
# 1 14.1445 12.0632 12.8973 0.0000 0.0000 0.0000
# 2 12.0632 195.4430 137.1530 0.0000 0.0000 0.0000
# 3 12.8973 137.1530 192.8424 0.0000 0.0000 0.0000
# 4 0.0000 0.0000 0.0000 45.4162 0.0000 0.0000
# 5 0.0000 0.0000 0.0000 0.0000 -5.0085 0.0000
# 6 0.0000 0.0000 0.0000 0.0000 0.0000 26.0881
#
#
#
# Elastic Compliance Matrix: (Units=1/GPa)
#
#
# Indices 1 2 3 4 5 6 
#
# 1 0.075777 -0.002237 -0.003477 0.000000 0.000000 0.000000
# 2 -0.002237 0.010281 -0.007162 0.000000 0.000000 0.000000
# 3 -0.003477 -0.007162 0.010512 0.000000 0.000000 0.000000
# 4 0.000000 0.000000 0.000000 0.022019 0.000000 0.000000
# 5 0.000000 0.000000 0.000000 0.000000 -0.199659 0.000000
# 6 0.000000 0.000000 0.000000 0.000000 0.000000 0.038332
#
#
# Mechanical properties :
#
#
# Convention : Reuss Voigt Hill
#
# Bulk Modulus (GPa) = 14.12085 80.73966 47.43026
# Shear Modulus (GPa) = 755.28534 29.32025 392.30280
#
# Velocity S-wave (km/s) = 19.58829 3.85945 14.11730
# Velocity P-wave (km/s) = 22.77664 7.80243 17.02429
#
# Compressibility (1/GPa) = 0.07081726
#
# Stress axis : x y z
#
# Youngs Moduli (GPa) = 13.19660 97.26832 95.12889
#
# Poissons Ratio (x) = 0.21762 0.33074
# Poissons Ratio (y) = 0.02953 0.68134
# Poissons Ratio (z) = 0.04588 0.69666
#
# Static dielectric constant tensor:
#      x y z
#    x 1.709710 0.000000 0.000000 
#    y 0.000000 1.646930 0.000000 
#    z 0.000000 0.000000 1.691600 
# 
# From -- ./inp_files/73136.got.cif
#   From: 2010.05.17/outbox.cif.g08.bks.cpg/sg65_37_cif.got.tgz:73136.got - 2010.06.03 17:01:31.
