data_PCOD9488452
_publ_section_title
;
Structure prediction by ZEFSAII (Michael W. Deem and Ramdas Pophale) SiO2 
 PCOD9488452
Probable space group: C M M M
;
_chemical_formula_sum "Si O2"
_cell_formula_units_Z 120
_cell_length_a 9.795500
_cell_length_b 26.556906
_cell_length_c 26.273444
_cell_angle_alpha 90.000000
_cell_angle_beta 90.000000
_cell_angle_gamma 90.000000
_cell_volume 6834.725713
_symmetry_space_group_name_H-M "C M M M"
_symmetry_group_IT_number 65
_symmetry_cell_setting 'orthorhombic'
loop_
_space_group_symop_operation_xyz
x,y,z
-x,-y,z
x,-y,-z
-x,y,-z
-x,-y,-z
x,y,-z
-x,y,z
x,-y,z
1/2+x,1/2+y,z
1/2-x,1/2-y,z
1/2+x,1/2-y,-z
1/2-x,1/2+y,-z
1/2-x,1/2-y,-z
1/2+x,1/2+y,-z
1/2-x,1/2+y,z
1/2+x,1/2-y,z
loop_
_atom_site_type_symbol
_atom_site_label
_atom_site_fract_x
_atom_site_fract_y
_atom_site_fract_z
Si Si1 0.836589 0.297251 0.591646
Si Si2 0.847590 0.409992 0.560092
Si Si3 0.343613 0.500000 0.437477
Si Si4 0.342335 0.560655 0.943150
Si Si5 0.341111 0.093047 0.150539
Si Si6 0.665954 0.055686 0.263328
Si Si7 0.659096 0.205120 0.809712
Si Si8 0.834432 0.337041 0.701182
O O1 0.750000 0.250000 0.572175
O O2 0.810517 0.351454 0.566012
O O3 0.795906 0.308308 0.650217
O O4 0.000000 0.287591 0.588069
O O5 0.858609 0.420035 0.500000
O O6 0.739590 0.450506 0.579644
O O7 0.000000 0.416803 0.583153
O O8 0.500000 0.500000 0.420483
O O9 0.346567 0.500000 0.500000
O O10 0.500000 0.576373 0.935950
O O11 0.340377 0.500000 0.943031
O O12 0.249141 0.578548 0.897253
O O13 0.298332 0.577132 0.000000
O O14 0.500000 0.079847 0.141925
O O15 0.299601 0.066717 0.203967
O O16 0.332203 0.152807 0.160250
O O17 0.500000 0.055525 0.265568
O O18 0.711760 0.104606 0.295265
O O19 0.713905 0.000000 0.278601
O O20 0.500000 0.219787 0.807345
O O21 0.750000 0.250000 0.830533
O O22 0.707728 0.191141 0.752531
O O23 0.000000 0.338485 0.701932
#
# Coordination Sequence:
#
# PCOD9488452 Si02
#       8
#    16  16   8  16  16  16  16  16
#     4  10  20  33  49  70  96 128 166 203 242 289
#     4   9  18  33  51  72 100 130 160 200 247 289
#     4   9  17  31  53  77  97 121 157 197 237 287
#     4   9  18  31  45  64  92 122 149 178 215 262
#     4   9  17  28  44  67  91 115 147 187 228 268
#     4   8  13  23  41  65  92 118 144 184 233 274
#     4   9  17  29  46  67  91 116 148 191 233 272
#     4   8  15  28  43  64  93 121 154 193 231 276
#
# _framework density 17.557399
#
# number of rings (size 3 to 8) (size 9 to 14) (size 15 to 20)
#    0.000    3.133    0.000    3.000    0.000    3.200 
#    1.200    0.667    0.000    1.200    0.000    0.000 
#    0.000    0.000    0.000    0.000    0.000    0.000 
#
# Total GULP energy -334195.166641 kJ/mol
# GULP energy per Si atom -5569.919444 kJ/mol
# Density = 1.751744 g / cm^3
# Si number density = 17.557399 Si / 1000 Ang^3
#
#
#
# Elastic Constant Matrix: (Units=GPa)
#
#
# Indices 1 2 3 4 5 6 
#
# 1 57.1181 53.5210 11.5459 0.0000 0.0000 0.0000
# 2 53.5210 106.9272 -2.4768 0.0000 0.0000 0.0000
# 3 11.5459 -2.4768 17.3798 0.0000 0.0000 0.0000
# 4 0.0000 0.0000 0.0000 4.7133 0.0000 0.0000
# 5 0.0000 0.0000 0.0000 0.0000 13.7253 0.0000
# 6 0.0000 0.0000 0.0000 0.0000 0.0000 29.2719
#
#
#
# Elastic Compliance Matrix: (Units=1/GPa)
#
#
# Indices 1 2 3 4 5 6 
#
# 1 0.047866 -0.024777 -0.035330 0.000000 0.000000 0.000000
# 2 -0.024777 0.022208 0.019625 0.000000 0.000000 0.000000
# 3 -0.035330 0.019625 0.083805 0.000000 0.000000 0.000000
# 4 0.000000 0.000000 0.000000 0.212167 0.000000 0.000000
# 5 0.000000 0.000000 0.000000 0.000000 0.072858 0.000000
# 6 0.000000 0.000000 0.000000 0.000000 0.000000 0.034162
#
#
# Mechanical properties :
#
#
# Convention : Reuss Voigt Hill
#
# Bulk Modulus (GPa) = 13.71429 34.06725 23.89077
# Shear Modulus (GPa) = 8.64549 17.46443 13.05496
#
# Velocity S-wave (km/s) = 2.22145 3.15732 2.72979
# Velocity P-wave (km/s) = 3.79577 5.72163 4.85514
#
# Compressibility (1/GPa) = 0.07291665
#
# Stress axis : x y z
#
# Youngs Moduli (GPa) = 20.89182 45.02785 11.93239
#
# Poissons Ratio (x) = 1.11565 0.42157
# Poissons Ratio (y) = 0.51763 -0.23417
# Poissons Ratio (z) = 0.73810 -0.88367
#
# Static dielectric constant tensor:
#      x y z
#    x 1.585080 0.000000 0.000000 
#    y 0.000000 1.611470 0.000000 
#    z 0.000000 0.000000 1.615200 
# 
# From -- ./inp_files/73918.got.cif
#   From: 2010.05.17/outbox.cif.g08.bks.cpg/sg65_37_cif.got.tgz:73918.got - 2010.06.03 17:01:31.
