data_PCOD9488882
_publ_section_title
;
Structure prediction by ZEFSAII (Michael W. Deem and Ramdas Pophale) SiO2 
 PCOD9488882
Probable space group: C M M M
;
_chemical_formula_sum "Si O2"
_cell_formula_units_Z 116
_cell_length_a 7.839747
_cell_length_b 29.819660
_cell_length_c 25.641629
_cell_angle_alpha 90.000000
_cell_angle_beta 90.000000
_cell_angle_gamma 90.000000
_cell_volume 5994.463874
_symmetry_space_group_name_H-M "C M M M"
_symmetry_group_IT_number 65
_symmetry_cell_setting 'orthorhombic'
loop_
_space_group_symop_operation_xyz
x,y,z
-x,-y,z
x,-y,-z
-x,y,-z
-x,-y,-z
x,y,-z
-x,y,z
x,-y,z
1/2+x,1/2+y,z
1/2-x,1/2-y,z
1/2+x,1/2-y,-z
1/2-x,1/2+y,-z
1/2-x,1/2-y,-z
1/2+x,1/2+y,-z
1/2-x,1/2+y,z
1/2+x,1/2-y,z
loop_
_atom_site_type_symbol
_atom_site_label
_atom_site_fract_x
_atom_site_fract_y
_atom_site_fract_z
Si Si1 0.301298 0.606034 0.307163
Si Si2 0.199320 0.643438 0.056336
Si Si3 0.196221 0.050524 0.906023
Si Si4 0.294421 0.198766 0.846554
Si Si5 0.803153 0.449395 0.209011
Si Si6 0.203641 0.698971 0.271534
Si Si7 0.500000 0.934682 0.500000
Si Si8 0.202261 0.053324 0.412062
O O1 0.500000 0.597047 0.299976
O O2 0.214887 0.584790 0.256253
O O3 0.270824 0.659252 0.307663
O O4 0.251991 0.581334 0.360316
O O5 0.210525 0.590327 0.064858
O O6 0.273747 0.667288 0.107549
O O7 0.000000 0.656148 0.054948
O O8 0.275360 0.655501 0.000000
O O9 0.202581 0.060261 0.843875
O O10 0.000000 0.051000 0.923020
O O11 0.264292 0.000000 0.913238
O O12 0.500000 0.193688 0.843916
O O13 0.250000 0.250000 0.859095
O O14 0.230285 0.190338 0.787680
O O15 0.757890 0.500000 0.226867
O O16 0.000000 0.449206 0.192400
O O17 0.250000 0.750000 0.285745
O O18 0.000000 0.695901 0.270946
O O19 0.653520 0.936876 0.455059
O O20 0.000000 0.063133 0.425935
O O21 0.208510 0.000000 0.401374
#
# Coordination Sequence:
#
# PCOD9488882 Si02
#       8
#    16  16  16  16  16  16   4  16
#     4  11  22  35  54  83 120 152 188 234 288 336
#     4  10  21  36  53  74 101 133 174 223 273 324
#     4  10  21  36  53  73  99 134 177 222 274 330
#     4   9  19  35  54  77 104 136 172 216 269 331
#     4  10  20  33  52  78 109 145 182 221 270 340
#     4  10  20  35  56  81 112 146 186 231 283 346
#     4  12  23  38  64  86 120 172 214 250 290 340
#     4  10  22  38  57  87 125 163 207 253 293 337
#
# _framework density 19.351189000000002
#
# number of rings (size 3 to 8) (size 9 to 14) (size 15 to 20)
#    0.000    1.931    0.000    3.724    1.931    5.793 
#    0.000    1.379    0.000    0.000    0.000    0.483 
#    0.000    0.000    0.000    0.000    0.000    0.000 
#
# Total GULP energy -323148.289376 kJ/mol
# GULP energy per Si atom -5571.522231 kJ/mol
# Density = 1.930714 g / cm^3
# Si number density = 19.351189 Si / 1000 Ang^3
#
#
#
# Elastic Constant Matrix: (Units=GPa)
#
#
# Indices 1 2 3 4 5 6 
#
# 1 44.5253 5.4616 15.2620 0.0000 0.0000 0.0000
# 2 5.4616 56.7391 34.9072 0.0000 0.0000 0.0000
# 3 15.2620 34.9072 49.4558 0.0000 0.0000 0.0000
# 4 0.0000 0.0000 0.0000 67.8862 0.0000 0.0000
# 5 0.0000 0.0000 0.0000 0.0000 13.7197 0.0000
# 6 0.0000 0.0000 0.0000 0.0000 0.0000 23.4531
#
#
#
# Elastic Compliance Matrix: (Units=1/GPa)
#
#
# Indices 1 2 3 4 5 6 
#
# 1 0.025683 0.004249 -0.010925 0.000000 0.000000 0.000000
# 2 0.004249 0.031855 -0.023795 0.000000 0.000000 0.000000
# 3 -0.010925 -0.023795 0.040387 0.000000 0.000000 0.000000
# 4 0.000000 0.000000 0.000000 0.014731 0.000000 0.000000
# 5 0.000000 0.000000 0.000000 0.000000 0.072888 0.000000
# 6 0.000000 0.000000 0.000000 0.000000 0.000000 0.042638
#
#
# Mechanical properties :
#
#
# Convention : Reuss Voigt Hill
#
# Bulk Modulus (GPa) = 27.03991 29.10907 28.07449
# Shear Modulus (GPa) = 16.58644 27.35106 21.96875
#
# Velocity S-wave (km/s) = 2.93085 3.76361 3.37303
# Velocity P-wave (km/s) = 5.04547 5.82765 5.45061
#
# Compressibility (1/GPa) = 0.03698237
#
# Stress axis : x y z
#
# Youngs Moduli (GPa) = 38.93679 31.39222 24.76053
#
# Poissons Ratio (x) = -0.13338 0.27050
# Poissons Ratio (y) = -0.16544 0.58919
# Poissons Ratio (z) = 0.42537 0.74699
#
# Static dielectric constant tensor:
#      x y z
#    x 1.717060 0.000000 0.000000 
#    y 0.000000 1.676210 0.000000 
#    z 0.000000 0.000000 1.682430 
# 
# From -- ./inp_files/68648.got.cif
#   From: 2010.05.17/outbox.cif.g08.bks.cpg/sg65_35_cif.got.tgz:68648.got - 2010.06.03 17:01:31.
