data_PCOD9488583
_publ_section_title
;
Structure prediction by ZEFSAII (Michael W. Deem and Ramdas Pophale) SiO2 
 PCOD9488583
Probable space group: C M M M
;
_chemical_formula_sum "Si O2"
_cell_formula_units_Z 104
_cell_length_a 32.906110
_cell_length_b 20.167554
_cell_length_c 9.323359
_cell_angle_alpha 90.000000
_cell_angle_beta 90.000000
_cell_angle_gamma 90.000000
_cell_volume 6187.314346
_symmetry_space_group_name_H-M "C M M M"
_symmetry_group_IT_number 65
_symmetry_cell_setting 'orthorhombic'
loop_
_space_group_symop_operation_xyz
x,y,z
-x,-y,z
x,-y,-z
-x,y,-z
-x,-y,-z
x,y,-z
-x,y,z
x,-y,z
1/2+x,1/2+y,z
1/2-x,1/2-y,z
1/2+x,1/2-y,-z
1/2-x,1/2+y,-z
1/2-x,1/2-y,-z
1/2+x,1/2+y,-z
1/2-x,1/2+y,z
1/2+x,1/2-y,z
loop_
_atom_site_type_symbol
_atom_site_label
_atom_site_fract_x
_atom_site_fract_y
_atom_site_fract_z
Si Si1 0.548150 0.000000 0.340258
Si Si2 0.127228 0.183663 0.329845
Si Si3 0.953716 0.772061 0.829650
Si Si4 0.181607 0.077930 0.830693
Si Si5 0.078184 0.374190 0.831789
Si Si6 0.157378 0.330347 0.330925
Si Si7 0.733635 0.076630 0.330377
O O1 0.560748 0.935096 0.255068
O O2 0.500000 0.000000 0.351613
O O3 0.566358 0.000000 0.500000
O O4 0.123612 0.172574 0.500000
O O5 0.082796 0.195726 0.260543
O O6 0.149902 0.124029 0.251437
O O7 0.154068 0.251027 0.309735
O O8 0.947771 0.692901 0.811060
O O9 0.000000 0.790571 0.789837
O O10 0.948186 0.785855 0.000000
O O11 0.226211 0.088004 0.762667
O O12 0.171798 0.000000 0.812599
O O13 0.181940 0.092860 0.000000
O O14 0.122657 0.359715 0.769711
O O15 0.079434 0.388764 0.000000
O O16 0.147976 0.342206 0.500000
O O17 0.199252 0.368577 0.300595
O O18 0.743802 0.081259 0.500000
O O19 0.719547 0.000000 0.305176
#
# Coordination Sequence:
#
# PCOD9488583 Si02
#       7
#     8  16  16  16  16  16  16
#     4  11  23  35  47  65  93 133 179 225 273 321
#     4  10  20  34  54  80 109 138 172 214 258 312
#     4   9  18  34  55  77 104 137 171 210 258 312
#     4  10  21  37  56  78 104 135 172 215 262 315
#     4  10  20  33  50  73 100 134 175 221 267 310
#     4   9  19  34  51  76 107 140 177 216 261 310
#     4   9  18  33  53  75 102 141 182 218 258 306
#
# _framework density 16.808585000000001
#
# number of rings (size 3 to 8) (size 9 to 14) (size 15 to 20)
#    0.000    2.385    0.000    2.077    1.077    4.923 
#    0.000    3.077    0.000    0.462    0.000    3.231 
#    0.000    0.000    0.000    0.000    0.000    0.000 
#
# Total GULP energy -290013.815238 kJ/mol
# GULP energy per Si atom -5577.188755 kJ/mol
# Density = 1.677033 g / cm^3
# Si number density = 16.808585 Si / 1000 Ang^3
#
#
#
# Elastic Constant Matrix: (Units=GPa)
#
#
# Indices 1 2 3 4 5 6 
#
# 1 113.5625 73.8144 78.8671 0.0000 0.0000 0.0000
# 2 73.8144 77.3327 73.2019 0.0000 0.0000 0.0000
# 3 78.8671 73.2019 102.4180 0.0000 0.0000 0.0000
# 4 0.0000 0.0000 0.0000 28.4264 0.0000 0.0000
# 5 0.0000 0.0000 0.0000 0.0000 23.3695 0.0000
# 6 0.0000 0.0000 0.0000 0.0000 0.0000 8.2476
#
#
#
# Elastic Compliance Matrix: (Units=1/GPa)
#
#
# Indices 1 2 3 4 5 6 
#
# 1 0.024592 -0.017152 -0.006678 0.000000 0.000000 0.000000
# 2 -0.017152 0.051942 -0.023917 0.000000 0.000000 0.000000
# 3 -0.006678 -0.023917 0.032001 0.000000 0.000000 0.000000
# 4 0.000000 0.000000 0.000000 0.035179 0.000000 0.000000
# 5 0.000000 0.000000 0.000000 0.000000 0.042791 0.000000
# 6 0.000000 0.000000 0.000000 0.000000 0.000000 0.121247
#
#
# Mechanical properties :
#
#
# Convention : Reuss Voigt Hill
#
# Bulk Modulus (GPa) = 76.68189 82.78668 79.73429
# Shear Modulus (GPa) = 12.26713 16.50404 14.38559
#
# Velocity S-wave (km/s) = 2.70444 3.13690 2.92866
# Velocity P-wave (km/s) = 7.44793 7.90441 7.67956
#
# Compressibility (1/GPa) = 0.01304089
#
# Stress axis : x y z
#
# Youngs Moduli (GPa) = 40.66359 19.25215 31.24909
#
# Poissons Ratio (x) = 0.33021 0.20869
# Poissons Ratio (y) = 0.69745 0.74739
# Poissons Ratio (z) = 0.27156 0.46046
#
# Static dielectric constant tensor:
#      x y z
#    x 1.545590 0.000000 0.000000 
#    y 0.000000 1.554330 0.000000 
#    z 0.000000 0.000000 1.561710 
# 
# From -- ./inp_files/18701.got.cif
#   From: 2010.05.17/outbox.cif.g08.bks.cpg/sg65_10_cif.got.tgz:18701.got - 2010.06.03 17:01:31.
