data_PCOD9488579
_publ_section_title
;
Structure prediction by ZEFSAII (Michael W. Deem and Ramdas Pophale) SiO2 
 PCOD9488579
Probable space group: C M M M
;
_chemical_formula_sum "Si O2"
_cell_formula_units_Z 72
_cell_length_a 14.578545
_cell_length_b 9.235278
_cell_length_c 24.103573
_cell_angle_alpha 90.000000
_cell_angle_beta 90.000000
_cell_angle_gamma 90.000000
_cell_volume 3245.230731
_symmetry_space_group_name_H-M "C M M M"
_symmetry_group_IT_number 65
_symmetry_cell_setting 'orthorhombic'
loop_
_space_group_symop_operation_xyz
x,y,z
-x,-y,z
x,-y,-z
-x,y,-z
-x,-y,-z
x,y,-z
-x,y,z
x,-y,z
1/2+x,1/2+y,z
1/2-x,1/2-y,z
1/2+x,1/2-y,-z
1/2-x,1/2+y,-z
1/2-x,1/2-y,-z
1/2+x,1/2+y,-z
1/2-x,1/2+y,z
1/2+x,1/2-y,z
loop_
_atom_site_type_symbol
_atom_site_label
_atom_site_fract_x
_atom_site_fract_y
_atom_site_fract_z
Si Si1 0.393198 0.661539 0.828650
Si Si2 0.848520 0.326718 0.060975
Si Si3 0.387839 0.834241 0.500000
Si Si4 0.887936 0.165593 0.389256
Si Si5 0.612446 0.834476 0.721714
O O1 0.500000 0.642949 0.815411
O O2 0.352249 0.500000 0.835285
O O3 0.390748 0.752241 0.885287
O O4 0.355611 0.751490 0.776857
O O5 0.842278 0.500000 0.068139
O O6 0.750000 0.250000 0.058388
O O7 0.892001 0.301266 0.000000
O O8 0.500000 0.837041 0.500000
O O9 0.359901 0.750191 0.444556
O O10 0.356159 0.000000 0.500000
O O11 0.860672 0.249246 0.333632
O O12 0.000000 0.162415 0.389461
O O13 0.855893 0.000000 0.389338
O O14 0.500000 0.838623 0.722229
O O15 0.644339 0.000000 0.721049
#
# Coordination Sequence:
#
# PCOD9488579 Si02
#       5
#    16  16   8  16  16
#     4  10  20  33  50  73 100 129 162 200 241 286
#     4  10  21  37  56  76  99 128 161 197 239 288
#     4   9  15  21  29  43  65  97 140 185 226 271
#     4   9  15  22  32  47  70 102 141 184 229 276
#     4   9  16  26  40  58  82 113 149 189 233 280
#
# _framework density 22.186404
#
# number of rings (size 3 to 8) (size 9 to 14) (size 15 to 20)
#    0.000    2.556    0.000    3.000    0.000    9.778 
#    0.000    2.222    0.000    0.000    0.000    0.000 
#    0.000    0.000    0.000    1.000    0.000   15.111 
#
# Total GULP energy -201095.131536 kJ/mol
# GULP energy per Si atom -5585.975876 kJ/mol
# Density = 2.213591 g / cm^3
# Si number density = 22.186404 Si / 1000 Ang^3
#
#
#
# Elastic Constant Matrix: (Units=GPa)
#
#
# Indices 1 2 3 4 5 6 
#
# 1 50.7906 11.0465 6.2056 0.0000 0.0000 0.0000
# 2 11.0465 251.0615 157.9713 0.0000 0.0000 0.0000
# 3 6.2056 157.9713 245.9517 0.0000 0.0000 0.0000
# 4 0.0000 0.0000 0.0000 42.9937 0.0000 0.0000
# 5 0.0000 0.0000 0.0000 0.0000 -28.5575 0.0000
# 6 0.0000 0.0000 0.0000 0.0000 0.0000 9.3039
#
#
#
# Elastic Compliance Matrix: (Units=1/GPa)
#
#
# Indices 1 2 3 4 5 6 
#
# 1 0.019880 -0.000938 0.000101 0.000000 0.000000 0.000000
# 2 -0.000938 0.006729 -0.004298 0.000000 0.000000 0.000000
# 3 0.000101 -0.004298 0.006824 0.000000 0.000000 0.000000
# 4 0.000000 0.000000 0.000000 0.023259 0.000000 0.000000
# 5 0.000000 0.000000 0.000000 0.000000 -0.035017 0.000000
# 6 0.000000 0.000000 0.000000 0.000000 0.000000 0.107482
#
#
# Mechanical properties :
#
#
# Convention : Reuss Voigt Hill
#
# Bulk Modulus (GPa) = 43.17350 99.80562 71.48956
# Shear Modulus (GPa) = 33.97926 29.58671 31.78299
#
# Velocity S-wave (km/s) = 3.91773 3.65574 3.78900
# Velocity P-wave (km/s) = 6.32191 7.93108 7.17177
#
# Compressibility (1/GPa) = 0.02316236
#
# Stress axis : x y z
#
# Youngs Moduli (GPa) = 50.30077 148.61422 146.54304
#
# Poissons Ratio (x) = 0.13945 -0.01481
# Poissons Ratio (y) = 0.04720 0.62987
# Poissons Ratio (z) = -0.00508 0.63877
#
# Static dielectric constant tensor:
#      x y z
#    x 1.979310 0.000000 0.000000 
#    y 0.000000 1.778760 0.000000 
#    z 0.000000 0.000000 1.781300 
# 
# From -- ./inp_files/59233.got.cif
#   From: 2010.05.17/outbox.cif.g08.bks.cpg/sg65_30_cif.got.tgz:59233.got - 2010.06.03 17:01:31.
