data_PCOD9488702
_publ_section_title
;
Structure prediction by ZEFSAII (Michael W. Deem and Ramdas Pophale) SiO2 
 PCOD9488702
Probable space group: C M M M
;
_chemical_formula_sum "Si O2"
_cell_formula_units_Z 96
_cell_length_a 19.198643
_cell_length_b 8.326300
_cell_length_c 31.890101
_cell_angle_alpha 90.000000
_cell_angle_beta 90.000000
_cell_angle_gamma 90.000000
_cell_volume 5097.749401
_symmetry_space_group_name_H-M "C M M M"
_symmetry_group_IT_number 65
_symmetry_cell_setting 'orthorhombic'
loop_
_space_group_symop_operation_xyz
x,y,z
-x,-y,z
x,-y,-z
-x,y,-z
-x,-y,-z
x,y,-z
-x,y,z
x,-y,z
1/2+x,1/2+y,z
1/2-x,1/2-y,z
1/2+x,1/2-y,-z
1/2-x,1/2+y,-z
1/2-x,1/2-y,-z
1/2+x,1/2+y,-z
1/2-x,1/2+y,z
1/2+x,1/2-y,z
loop_
_atom_site_type_symbol
_atom_site_label
_atom_site_fract_x
_atom_site_fract_y
_atom_site_fract_z
Si Si1 0.079715 0.808277 0.123988
Si Si2 0.829495 0.694314 0.705779
Si Si3 0.919932 0.303626 0.374455
Si Si4 0.080352 0.306510 0.784944
Si Si5 0.329220 0.807786 0.953352
Si Si6 0.171904 0.694048 0.452392
O O1 0.105145 0.744436 0.168951
O O2 0.124622 0.755036 0.084547
O O3 0.000000 0.749915 0.119078
O O4 0.079258 0.000000 0.125887
O O5 0.829799 0.500000 0.705916
O O6 0.750000 0.750000 0.704329
O O7 0.873342 0.747265 0.665089
O O8 0.869782 0.750048 0.747634
O O9 0.920583 0.500000 0.374354
O O10 0.882787 0.251481 0.417459
O O11 0.000000 0.251013 0.371225
O O12 0.078776 0.500000 0.783355
O O13 0.000000 0.249948 0.779539
O O14 0.250000 0.750000 0.948278
O O15 0.330280 0.000000 0.952628
O O16 0.352985 0.754077 0.000000
O O17 0.156310 0.748431 0.500000
O O18 0.171543 0.500000 0.452452
O O19 0.250000 0.750000 0.441754
#
# Coordination Sequence:
#
# PCOD9488702 Si02
#       6
#    16  16  16  16  16  16
#     4  10  21  36  55  80 109 140 173 211 256 305
#     4  10  20  33  51  74  98 127 163 204 251 300
#     4   9  17  30  49  72  97 126 164 208 248 290
#     4   9  18  34  54  73  96 129 169 209 249 297
#     4  10  21  37  57  80 107 140 177 217 260 305
#     4   9  17  29  47  71  98 129 163 201 247 296
#
# _framework density 18.83184
#
# number of rings (size 3 to 8) (size 9 to 14) (size 15 to 20)
#    0.000    2.500    0.000    2.000    0.000    6.000 
#    0.000    5.000    0.000    3.000    0.000    2.333 
#    0.000    0.000    0.000    0.000    0.000    0.000 
#
# Total GULP energy -267849.234894 kJ/mol
# GULP energy per Si atom -5580.192394 kJ/mol
# Density = 1.878898 g / cm^3
# Si number density = 18.831840 Si / 1000 Ang^3
#
#
#
# Elastic Constant Matrix: (Units=GPa)
#
#
# Indices 1 2 3 4 5 6 
#
# 1 136.0498 12.0922 125.2349 0.0000 0.0000 0.0000
# 2 12.0922 9.2980 18.4546 0.0000 0.0000 0.0000
# 3 125.2349 18.4546 191.5743 0.0000 0.0000 0.0000
# 4 0.0000 0.0000 0.0000 8.9466 0.0000 0.0000
# 5 0.0000 0.0000 0.0000 0.0000 42.6261 0.0000
# 6 0.0000 0.0000 0.0000 0.0000 0.0000 27.1562
#
#
#
# Elastic Compliance Matrix: (Units=1/GPa)
#
#
# Indices 1 2 3 4 5 6 
#
# 1 0.018456 -0.000069 -0.012059 0.000000 0.000000 0.000000
# 2 -0.000069 0.132974 -0.012764 0.000000 0.000000 0.000000
# 3 -0.012059 -0.012764 0.014332 0.000000 0.000000 0.000000
# 4 0.000000 0.000000 0.000000 0.111775 0.000000 0.000000
# 5 0.000000 0.000000 0.000000 0.000000 0.023460 0.000000
# 6 0.000000 0.000000 0.000000 0.000000 0.000000 0.036824
#
#
# Mechanical properties :
#
#
# Convention : Reuss Voigt Hill
#
# Bulk Modulus (GPa) = 8.62225 72.05395 40.33810
# Shear Modulus (GPa) = 11.72978 27.82180 19.77579
#
# Velocity S-wave (km/s) = 2.49844 3.84784 3.24408
# Velocity P-wave (km/s) = 3.59325 7.62142 5.95808
#
# Compressibility (1/GPa) = 0.11597895
#
# Stress axis : x y z
#
# Youngs Moduli (GPa) = 54.18182 7.52025 69.77216
#
# Poissons Ratio (x) = 0.00052 0.84135
# Poissons Ratio (y) = 0.00375 0.89060
# Poissons Ratio (z) = 0.65335 0.09599
#
# Static dielectric constant tensor:
#      x y z
#    x 1.621240 0.000000 0.000000 
#    y 0.000000 1.655640 0.000000 
#    z 0.000000 0.000000 1.650660 
# 
# From -- ./inp_files/73218.got.cif
#   From: 2010.05.17/outbox.cif.g08.bks.cpg/sg65_37_cif.got.tgz:73218.got - 2010.06.03 17:01:31.
