data_PCOD9488581
_publ_section_title
;
Structure prediction by ZEFSAII (Michael W. Deem and Ramdas Pophale) SiO2 
 PCOD9488581
Probable space group: C M M M
;
_chemical_formula_sum "Si O2"
_cell_formula_units_Z 96
_cell_length_a 19.213484
_cell_length_b 8.878445
_cell_length_c 32.312268
_cell_angle_alpha 90.000000
_cell_angle_beta 90.000000
_cell_angle_gamma 90.000000
_cell_volume 5512.016056
_symmetry_space_group_name_H-M "C M M M"
_symmetry_group_IT_number 65
_symmetry_cell_setting 'orthorhombic'
loop_
_space_group_symop_operation_xyz
x,y,z
-x,-y,z
x,-y,-z
-x,y,-z
-x,-y,-z
x,y,-z
-x,y,z
x,-y,z
1/2+x,1/2+y,z
1/2-x,1/2-y,z
1/2+x,1/2-y,-z
1/2-x,1/2+y,-z
1/2-x,1/2-y,-z
1/2+x,1/2+y,-z
1/2-x,1/2+y,z
1/2+x,1/2-y,z
loop_
_atom_site_type_symbol
_atom_site_label
_atom_site_fract_x
_atom_site_fract_y
_atom_site_fract_z
Si Si1 0.672346 0.679923 0.372383
Si Si2 0.082814 0.821518 0.119526
Si Si3 0.082454 0.679404 0.207393
Si Si4 0.173450 0.319909 0.952772
Si Si5 0.172680 0.180318 0.719631
Si Si6 0.172016 0.680237 0.545384
O O1 0.676819 0.500000 0.377278
O O2 0.750000 0.750000 0.370952
O O3 0.643225 0.713208 0.326650
O O4 0.638039 0.750730 0.413357
O O5 0.104196 0.748117 0.163194
O O6 0.122875 0.748089 0.081410
O O7 0.000000 0.796813 0.114907
O O8 0.095691 0.000000 0.120779
O O9 0.092508 0.500000 0.206918
O O10 0.125087 0.752322 0.244624
O O11 0.000000 0.710329 0.212446
O O12 0.177160 0.500000 0.948567
O O13 0.250000 0.250000 0.947356
O O14 0.150764 0.285100 0.000000
O O15 0.250000 0.250000 0.722548
O O16 0.177734 0.000000 0.723527
O O17 0.140394 0.713755 0.500000
O O18 0.177076 0.500000 0.549562
O O19 0.250000 0.750000 0.544134
#
# Coordination Sequence:
#
# PCOD9488581 Si02
#       6
#    16  16  16  16  16  16
#     4   9  16  25  38  57  83 116 152 192 237 284
#     4  10  21  37  57  80 106 136 170 209 252 298
#     4  10  21  37  56  77 102 132 167 208 253 300
#     4  10  21  37  57  81 110 142 175 212 252 295
#     4  10  20  33  50  73 100 130 166 206 249 298
#     4   9  15  21  31  49  75 110 150 189 231 281
#
# _framework density 17.416495000000001
#
# number of rings (size 3 to 8) (size 9 to 14) (size 15 to 20)
#    0.000    2.333    0.000    4.000    0.000    7.000 
#    0.000    5.000    0.000    0.000    0.000    0.000 
#    0.000    0.667    0.000    7.333    0.000    8.167 
#
# Total GULP energy -267585.869595 kJ/mol
# GULP energy per Si atom -5574.705617 kJ/mol
# Density = 1.737685 g / cm^3
# Si number density = 17.416495 Si / 1000 Ang^3
#
#
#
# Elastic Constant Matrix: (Units=GPa)
#
#
# Indices 1 2 3 4 5 6 
#
# 1 28.5777 39.2641 65.7466 0.0000 0.0000 0.0000
# 2 39.2641 89.5861 95.5046 0.0000 0.0000 0.0000
# 3 65.7466 95.5046 220.6711 0.0000 0.0000 0.0000
# 4 0.0000 0.0000 0.0000 36.5557 0.0000 0.0000
# 5 0.0000 0.0000 0.0000 0.0000 -31.3644 0.0000
# 6 0.0000 0.0000 0.0000 0.0000 0.0000 21.2850
#
#
#
# Elastic Compliance Matrix: (Units=1/GPa)
#
#
# Indices 1 2 3 4 5 6 
#
# 1 0.152261 -0.034110 -0.030602 0.000000 0.000000 0.000000
# 2 -0.034110 0.028366 -0.002114 0.000000 0.000000 0.000000
# 3 -0.030602 -0.002114 0.014564 0.000000 0.000000 0.000000
# 4 0.000000 0.000000 0.000000 0.027356 0.000000 0.000000
# 5 0.000000 0.000000 0.000000 0.000000 -0.031883 0.000000
# 6 0.000000 0.000000 0.000000 0.000000 0.000000 0.046981
#
#
# Mechanical properties :
#
#
# Convention : Reuss Voigt Hill
#
# Bulk Modulus (GPa) = 16.24969 82.20729 49.22849
# Shear Modulus (GPa) = 12.76131 14.51657 13.63894
#
# Velocity S-wave (km/s) = 2.70981 2.89016 2.80144
# Velocity P-wave (km/s) = 4.37505 7.64465 6.22823
#
# Compressibility (1/GPa) = 0.06153964
#
# Stress axis : x y z
#
# Youngs Moduli (GPa) = 6.56765 35.25405 68.66200
#
# Poissons Ratio (x) = 1.20250 2.10122
# Poissons Ratio (y) = 0.22402 0.14514
# Poissons Ratio (z) = 0.20099 0.07452
#
# Static dielectric constant tensor:
#      x y z
#    x 1.555230 0.000000 0.000000 
#    y 0.000000 1.577470 0.000000 
#    z 0.000000 0.000000 1.633480 
# 
# From -- ./inp_files/75356.got.cif
#   From: 2010.05.17/outbox.cif.g08.bks.cpg/sg65_38_cif.got.tgz:75356.got - 2010.06.03 17:01:31.
