data_PCOD9488816
_publ_section_title
;
Structure prediction by ZEFSAII (Michael W. Deem and Ramdas Pophale) SiO2 
 PCOD9488816
Probable space group: C M M M
;
_chemical_formula_sum "Si O2"
_cell_formula_units_Z 88
_cell_length_a 18.187173
_cell_length_b 28.531856
_cell_length_c 7.483184
_cell_angle_alpha 90.000000
_cell_angle_beta 90.000000
_cell_angle_gamma 90.000000
_cell_volume 3883.127454
_symmetry_space_group_name_H-M "C M M M"
_symmetry_group_IT_number 65
_symmetry_cell_setting 'orthorhombic'
loop_
_space_group_symop_operation_xyz
x,y,z
-x,-y,z
x,-y,-z
-x,y,-z
-x,-y,-z
x,y,-z
-x,y,z
x,-y,z
1/2+x,1/2+y,z
1/2-x,1/2-y,z
1/2+x,1/2-y,-z
1/2-x,1/2+y,-z
1/2-x,1/2-y,-z
1/2+x,1/2+y,-z
1/2-x,1/2+y,z
1/2+x,1/2-y,z
loop_
_atom_site_type_symbol
_atom_site_label
_atom_site_fract_x
_atom_site_fract_y
_atom_site_fract_z
Si Si1 0.156389 0.052862 0.793440
Si Si2 0.417399 0.173674 0.214883
Si Si3 0.317101 0.914400 0.289424
Si Si4 0.168484 0.235350 0.218241
Si Si5 0.083029 0.855230 0.218720
Si Si6 0.916710 0.500000 0.281635
O O1 0.237774 0.075390 0.791434
O O2 0.104498 0.093090 0.714997
O O3 0.157512 0.000000 0.716752
O O4 0.134289 0.048017 0.000000
O O5 0.500000 0.162540 0.280983
O O6 0.356112 0.135191 0.260939
O O7 0.388898 0.224480 0.273753
O O8 0.420984 0.174677 0.000000
O O9 0.306989 0.921194 0.500000
O O10 0.373238 0.954077 0.223195
O O11 0.250000 0.250000 0.276769
O O12 0.140551 0.184494 0.276786
O O13 0.169615 0.234840 0.000000
O O14 0.000000 0.842598 0.268860
O O15 0.085688 0.855929 0.000000
O O16 0.918006 0.500000 0.500000
O O17 0.000000 0.500000 0.219645
#
# Coordination Sequence:
#
# PCOD9488816 Si02
#       6
#    16  16  16  16  16   8
#     4  10  20  34  54  80 109 138 173 224 275 315
#     4  10  20  33  51  78 110 140 174 220 268 310
#     4  11  21  35  54  75 103 141 181 218 260 318
#     4   9  16  28  49  77 109 143 177 214 259 313
#     4   9  17  30  51  80 111 143 179 218 264 319
#     4   9  18  32  49  69  94 127 170 214 253 301
#
# _framework density 22.662147000000001
#
# number of rings (size 3 to 8) (size 9 to 14) (size 15 to 20)
#    0.000    2.273    0.909    2.727    0.000    6.545 
#    0.000    1.818    0.000    7.636    0.000    1.273 
#    0.000    0.000    0.000    0.000    0.000    0.000 
#
# Total GULP energy -245843.254229 kJ/mol
# GULP energy per Si atom -5587.346687 kJ/mol
# Density = 2.261057 g / cm^3
# Si number density = 22.662147 Si / 1000 Ang^3
#
#
#
# Elastic Constant Matrix: (Units=GPa)
#
#
# Indices 1 2 3 4 5 6 
#
# 1 104.4257 51.0278 -4.2536 0.0000 0.0000 0.0000
# 2 51.0278 164.8417 1.6699 0.0000 0.0000 0.0000
# 3 -4.2536 1.6699 65.3423 0.0000 0.0000 0.0000
# 4 0.0000 0.0000 0.0000 331.0613 0.0000 0.0000
# 5 0.0000 0.0000 0.0000 0.0000 -23.1545 0.0000
# 6 0.0000 0.0000 0.0000 0.0000 0.0000 47.0165
#
#
#
# Elastic Compliance Matrix: (Units=1/GPa)
#
#
# Indices 1 2 3 4 5 6 
#
# 1 0.011327 -0.003515 0.000827 0.000000 0.000000 0.000000
# 2 -0.003515 0.007159 -0.000412 0.000000 0.000000 0.000000
# 3 0.000827 -0.000412 0.015368 0.000000 0.000000 0.000000
# 4 0.000000 0.000000 0.000000 0.003021 0.000000 0.000000
# 5 0.000000 0.000000 0.000000 0.000000 -0.043188 0.000000
# 6 0.000000 0.000000 0.000000 0.000000 0.000000 0.021269
#
#
# Mechanical properties :
#
#
# Convention : Reuss Voigt Hill
#
# Bulk Modulus (GPa) = 36.15895 47.94419 42.05157
# Shear Modulus (GPa) = 164.61818 90.06238 127.34028
#
# Velocity S-wave (km/s) = 8.53217 6.31091 7.50418
# Velocity P-wave (km/s) = 10.63269 8.62006 9.67883
#
# Compressibility (1/GPa) = 0.02765567
#
# Stress axis : x y z
#
# Youngs Moduli (GPa) = 88.28139 139.69129 65.06860
#
# Poissons Ratio (x) = 0.49099 -0.05383
# Poissons Ratio (y) = 0.31030 0.02679
# Poissons Ratio (z) = -0.07303 0.05752
#
# Static dielectric constant tensor:
#      x y z
#    x 1.809580 0.000000 0.000000 
#    y 0.000000 1.725220 0.000000 
#    z 0.000000 0.000000 1.850860 
# 
# From -- ./inp_files/10072.got.cif
#   From: 2010.05.17/outbox.cif.g08.bks.cpg/sg65_6_cif.got.tgz:10072.got - 2010.06.03 17:01:31.
