data_PCOD9488362
_publ_section_title
;
Structure prediction by ZEFSAII (Michael W. Deem and Ramdas Pophale) SiO2 
 PCOD9488362
Probable space group: C M M M
;
_chemical_formula_sum "Si O2"
_cell_formula_units_Z 96
_cell_length_a 19.027912
_cell_length_b 17.574157
_cell_length_c 16.596885
_cell_angle_alpha 90.000000
_cell_angle_beta 90.000000
_cell_angle_gamma 90.000000
_cell_volume 5549.990259
_symmetry_space_group_name_H-M "C M M M"
_symmetry_group_IT_number 65
_symmetry_cell_setting 'orthorhombic'
loop_
_space_group_symop_operation_xyz
x,y,z
-x,-y,z
x,-y,-z
-x,y,-z
-x,-y,-z
x,y,-z
-x,y,z
x,-y,z
1/2+x,1/2+y,z
1/2-x,1/2-y,z
1/2+x,1/2-y,-z
1/2-x,1/2+y,-z
1/2-x,1/2-y,-z
1/2+x,1/2+y,-z
1/2-x,1/2+y,z
1/2+x,1/2-y,z
loop_
_atom_site_type_symbol
_atom_site_label
_atom_site_fract_x
_atom_site_fract_y
_atom_site_fract_z
Si Si1 0.420978 0.716246 0.297921
Si Si2 0.138982 0.089607 0.408175
Si Si3 0.919256 0.412248 0.902883
Si Si4 0.314318 0.203195 0.816641
Si Si5 0.717655 0.915269 0.320623
Si Si6 0.921303 0.632871 0.595995
O O1 0.500000 0.715029 0.265616
O O2 0.402933 0.639017 0.343953
O O3 0.365977 0.738423 0.229164
O O4 0.417111 0.783313 0.364784
O O5 0.125706 0.114287 0.500000
O O6 0.221123 0.099336 0.385460
O O7 0.122790 0.000000 0.402416
O O8 0.904016 0.500000 0.877862
O O9 0.863293 0.352369 0.869301
O O10 0.000000 0.395032 0.876815
O O11 0.918325 0.410623 0.000000
O O12 0.250000 0.250000 0.855702
O O13 0.281529 0.148711 0.747598
O O14 0.641933 0.911963 0.363049
O O15 0.729440 0.000000 0.287139
O O16 0.912814 0.635382 0.500000
O O17 0.000000 0.603067 0.613649
#
# Coordination Sequence:
#
# PCOD9488362 Si02
#       6
#    16  16  16  16  16  16
#     4  10  20  34  49  70  98 130 171 219 267 316
#     4  10  20  33  49  68  91 129 180 230 276 313
#     4   9  19  37  61  88 116 144 172 205 250 308
#     4  11  20  34  54  81 107 141 173 207 256 306
#     4  10  20  33  47  68  99 133 170 214 259 312
#     4   9  18  30  45  66  92 125 165 213 270 324
#
# _framework density 17.297326999999999
#
# number of rings (size 3 to 8) (size 9 to 14) (size 15 to 20)
#    0.000    2.167    1.667    2.500    0.000    3.667 
#    0.000    4.167    0.000    0.000    0.000    0.000 
#    0.000    0.000    0.000   11.000    0.000    0.000 
#
# Total GULP energy -267709.711040 kJ/mol
# GULP energy per Si atom -5577.285647 kJ/mol
# Density = 1.725796 g / cm^3
# Si number density = 17.297327 Si / 1000 Ang^3
#
#
#
# Elastic Constant Matrix: (Units=GPa)
#
#
# Indices 1 2 3 4 5 6 
#
# 1 89.0994 52.9218 21.2258 0.0000 0.0000 0.0000
# 2 52.9218 60.6397 22.4536 0.0000 0.0000 0.0000
# 3 21.2258 22.4536 31.7078 0.0000 0.0000 0.0000
# 4 0.0000 0.0000 0.0000 17.7892 0.0000 0.0000
# 5 0.0000 0.0000 0.0000 0.0000 23.1479 0.0000
# 6 0.0000 0.0000 0.0000 0.0000 0.0000 29.2926
#
#
#
# Elastic Compliance Matrix: (Units=1/GPa)
#
#
# Indices 1 2 3 4 5 6 
#
# 1 0.023365 -0.019788 -0.001628 0.000000 0.000000 0.000000
# 2 -0.019788 0.039111 -0.014449 0.000000 0.000000 0.000000
# 3 -0.001628 -0.014449 0.042860 0.000000 0.000000 0.000000
# 4 0.000000 0.000000 0.000000 0.056214 0.000000 0.000000
# 5 0.000000 0.000000 0.000000 0.000000 0.043201 0.000000
# 6 0.000000 0.000000 0.000000 0.000000 0.000000 0.034138
#
#
# Mechanical properties :
#
#
# Convention : Reuss Voigt Hill
#
# Bulk Modulus (GPa) = 29.75795 41.62771 35.69283
# Shear Modulus (GPa) = 15.53660 19.70231 17.61946
#
# Velocity S-wave (km/s) = 3.00026 3.37862 3.19505
# Velocity P-wave (km/s) = 5.40770 6.27203 5.85583
#
# Compressibility (1/GPa) = 0.03360446
#
# Stress axis : x y z
#
# Youngs Moduli (GPa) = 42.79962 25.56842 23.33179
#
# Poissons Ratio (x) = 0.50595 0.03798
# Poissons Ratio (y) = 0.84693 0.33713
# Poissons Ratio (z) = 0.06968 0.36945
#
# Static dielectric constant tensor:
#      x y z
#    x 1.605490 0.000000 0.000000 
#    y 0.000000 1.595470 0.000000 
#    z 0.000000 0.000000 1.557070 
# 
# From -- ./inp_files/40384.got.cif
#   From: 2010.05.17/outbox.cif.g08.bks.cpg/sg65_21_cif.got.tgz:40384.got - 2010.06.03 17:01:31.
