data_PCOD9488679
_publ_section_title
;
Structure prediction by ZEFSAII (Michael W. Deem and Ramdas Pophale) SiO2 
 PCOD9488679
Probable space group: C M M M
;
_chemical_formula_sum "Si O2"
_cell_formula_units_Z 112
_cell_length_a 27.242471
_cell_length_b 15.041680
_cell_length_c 14.276995
_cell_angle_alpha 90.000000
_cell_angle_beta 90.000000
_cell_angle_gamma 90.000000
_cell_volume 5850.320379
_symmetry_space_group_name_H-M "C M M M"
_symmetry_group_IT_number 65
_symmetry_cell_setting 'orthorhombic'
loop_
_space_group_symop_operation_xyz
x,y,z
-x,-y,z
x,-y,-z
-x,y,-z
-x,-y,-z
x,y,-z
-x,y,z
x,-y,z
1/2+x,1/2+y,z
1/2-x,1/2-y,z
1/2+x,1/2-y,-z
1/2-x,1/2+y,-z
1/2-x,1/2-y,-z
1/2+x,1/2+y,-z
1/2-x,1/2+y,z
1/2+x,1/2-y,z
loop_
_atom_site_type_symbol
_atom_site_label
_atom_site_fract_x
_atom_site_fract_y
_atom_site_fract_z
Si Si1 0.839484 0.846203 0.893329
Si Si2 0.557681 0.897802 0.727093
Si Si3 0.133267 0.711824 0.388270
Si Si4 0.662741 0.596156 0.691803
Si Si5 0.127975 0.646024 0.891963
Si Si6 0.764491 0.400252 0.111681
Si Si7 0.737250 0.145308 0.393008
O O1 0.852950 0.900154 0.800813
O O2 0.867331 0.752915 0.891585
O O3 0.780910 0.833977 0.874973
O O4 0.843944 0.883141 0.000000
O O5 0.500000 0.878802 0.733720
O O6 0.585920 0.830922 0.658699
O O7 0.584635 0.886953 0.826819
O O8 0.563693 0.000000 0.695514
O O9 0.130434 0.713577 0.500000
O O10 0.142653 0.812756 0.353504
O O11 0.180361 0.648852 0.364456
O O12 0.647163 0.500000 0.652531
O O13 0.721897 0.602574 0.673575
O O14 0.181089 0.616379 0.851674
O O15 0.122234 0.617016 0.000000
O O16 0.747717 0.500000 0.136345
O O17 0.772147 0.398062 0.000000
O O18 0.742250 0.110983 0.500000
O O19 0.750000 0.250000 0.396478
#
# Coordination Sequence:
#
# PCOD9488679 Si02
#       7
#    16  16  16  16  16  16  16
#     4  10  20  33  50  80 123 166 201 231 270 331
#     4  11  25  43  64  90 115 143 189 246 302 361
#     4  10  22  42  63  85 118 155 194 245 300 352
#     4  11  21  33  57  91 125 162 199 236 279 337
#     4  10  20  36  58  83 116 159 198 237 287 342
#     4   9  17  28  45  76 117 158 198 233 268 322
#     4   8  17  33  53  80 116 155 192 232 277 332
#
# _framework density 19.14425
#
# number of rings (size 3 to 8) (size 9 to 14) (size 15 to 20)
#    0.000    2.143    1.429    2.571    2.000    7.143 
#    0.000    2.857    0.000    0.429    0.000    1.000 
#    0.000    2.286    0.000    0.000    0.000    0.000 
#
# Total GULP energy -312171.623079 kJ/mol
# GULP energy per Si atom -5574.493269 kJ/mol
# Density = 1.910068 g / cm^3
# Si number density = 19.144250 Si / 1000 Ang^3
#
#
#
# Elastic Constant Matrix: (Units=GPa)
#
#
# Indices 1 2 3 4 5 6 
#
# 1 97.5297 41.9445 24.1891 0.0000 0.0000 0.0000
# 2 41.9445 84.5449 31.1239 0.0000 0.0000 0.0000
# 3 24.1891 31.1239 108.5736 0.0000 0.0000 0.0000
# 4 0.0000 0.0000 0.0000 -1.9844 0.0000 0.0000
# 5 0.0000 0.0000 0.0000 0.0000 -11.4895 0.0000
# 6 0.0000 0.0000 0.0000 0.0000 0.0000 34.0564
#
#
#
# Elastic Compliance Matrix: (Units=1/GPa)
#
#
# Indices 1 2 3 4 5 6 
#
# 1 0.013170 -0.006097 -0.001186 0.000000 0.000000 0.000000
# 2 -0.006097 0.016046 -0.003241 0.000000 0.000000 0.000000
# 3 -0.001186 -0.003241 0.010404 0.000000 0.000000 0.000000
# 4 0.000000 0.000000 0.000000 -0.503927 0.000000 0.000000
# 5 0.000000 0.000000 0.000000 0.000000 -0.087036 0.000000
# 6 0.000000 0.000000 0.000000 0.000000 0.000000 0.029363
#
#
# Mechanical properties :
#
#
# Convention : Reuss Voigt Hill
#
# Bulk Modulus (GPa) = 53.84994 53.90702 53.87848
# Shear Modulus (GPa) = -10.10630 17.00921 3.45146
#
# Velocity S-wave (km/s) = -2.30011 2.98397 1.34417
# Velocity P-wave (km/s) = 4.59735 6.33179 5.53295
#
# Compressibility (1/GPa) = 0.01857012
#
# Stress axis : x y z
#
# Youngs Moduli (GPa) = 75.93220 62.32008 96.11837
#
# Poissons Ratio (x) = 0.37997 0.11402
# Poissons Ratio (y) = 0.46296 0.31157
# Poissons Ratio (z) = 0.09008 0.20201
#
# Static dielectric constant tensor:
#      x y z
#    x 1.651120 0.000000 0.000000 
#    y 0.000000 1.704250 0.000000 
#    z 0.000000 0.000000 1.721240 
# 
# From -- ./inp_files/45741.got.cif
#   From: 2010.05.17/outbox.cif.g08.bks.cpg/sg65_23_cif.got.tgz:45741.got - 2010.06.03 17:01:31.
