data_PCOD9488997
_publ_section_title
;
Structure prediction by ZEFSAII (Michael W. Deem and Ramdas Pophale) SiO2 
 PCOD9488997
Probable space group: C M M M
;
_chemical_formula_sum "Si O2"
_cell_formula_units_Z 80
_cell_length_a 23.363131
_cell_length_b 24.085683
_cell_length_c 7.560249
_cell_angle_alpha 90.000000
_cell_angle_beta 90.000000
_cell_angle_gamma 90.000000
_cell_volume 4254.280388
_symmetry_space_group_name_H-M "C M M M"
_symmetry_group_IT_number 65
_symmetry_cell_setting 'orthorhombic'
loop_
_space_group_symop_operation_xyz
x,y,z
-x,-y,z
x,-y,-z
-x,y,-z
-x,-y,-z
x,y,-z
-x,y,z
x,-y,z
1/2+x,1/2+y,z
1/2-x,1/2-y,z
1/2+x,1/2-y,-z
1/2-x,1/2+y,-z
1/2-x,1/2-y,-z
1/2+x,1/2+y,-z
1/2-x,1/2+y,z
1/2+x,1/2-y,z
loop_
_atom_site_type_symbol
_atom_site_label
_atom_site_fract_x
_atom_site_fract_y
_atom_site_fract_z
Si Si1 0.728170 0.643316 0.709066
Si Si2 0.384883 0.286443 0.708489
Si Si3 0.934406 0.562398 0.786704
Si Si4 0.644090 0.167245 0.291204
Si Si5 0.823239 0.065398 0.000000
Si Si6 0.435290 0.365051 0.000000
O O1 0.731099 0.629185 0.500000
O O2 0.680762 0.691785 0.726513
O O3 0.791075 0.660506 0.774103
O O4 0.706093 0.592923 0.828369
O O5 0.400172 0.290162 0.500000
O O6 0.386473 0.223022 0.774905
O O7 0.422359 0.326560 0.829618
O O8 0.917680 0.500000 0.727434
O O9 0.892280 0.611579 0.733829
O O10 0.000000 0.572530 0.727583
O O11 0.935068 0.561463 0.000000
O O12 0.650019 0.177468 0.500000
O O13 0.888729 0.086173 0.000000
O O14 0.817992 0.000000 0.000000
O O15 0.500000 0.384683 0.000000
#
# Coordination Sequence:
#
# PCOD9488997 Si02
#       6
#    16  16  16  16   8   8
#     4   9  19  36  56  81 114 144 173 217 271 325
#     4   9  19  36  56  81 114 144 173 217 271 325
#     4   9  20  37  51  66  97 141 182 220 261 303
#     4  10  20  33  54  82 106 137 180 219 263 323
#     4  10  22  38  57  81 108 144 184 224 275 326
#     4  10  22  38  57  81 108 144 184 224 275 326
#
# _framework density 18.804590000000001
#
# number of rings (size 3 to 8) (size 9 to 14) (size 15 to 20)
#    0.000    2.600    0.000    1.200    2.800    5.800 
#    0.000    8.000    0.000    0.000    0.000    5.600 
#    0.000    0.000    0.000    0.000    0.000    0.000 
#
# Total GULP energy -223150.610551 kJ/mol
# GULP energy per Si atom -5578.765264 kJ/mol
# Density = 1.876179 g / cm^3
# Si number density = 18.804590 Si / 1000 Ang^3
#
#
#
# Elastic Constant Matrix: (Units=GPa)
#
#
# Indices 1 2 3 4 5 6 
#
# 1 12.7309 -18.1853 2.1288 0.0000 0.0000 0.0000
# 2 -18.1853 82.1841 13.4867 0.0000 0.0000 0.0000
# 3 2.1288 13.4867 62.5634 0.0000 0.0000 0.0000
# 4 0.0000 0.0000 0.0000 21.8300 0.0000 0.0000
# 5 0.0000 0.0000 0.0000 0.0000 17.2794 0.0000
# 6 0.0000 0.0000 0.0000 0.0000 0.0000 5.8820
#
#
#
# Elastic Compliance Matrix: (Units=1/GPa)
#
#
# Indices 1 2 3 4 5 6 
#
# 1 0.120864 0.028425 -0.010240 0.000000 0.000000 0.000000
# 2 0.028425 0.019299 -0.005127 0.000000 0.000000 0.000000
# 3 -0.010240 -0.005127 0.017438 0.000000 0.000000 0.000000
# 4 0.000000 0.000000 0.000000 0.045809 0.000000 0.000000
# 5 0.000000 0.000000 0.000000 0.000000 0.057872 0.000000
# 6 0.000000 0.000000 0.000000 0.000000 0.000000 0.170011
#
#
# Mechanical properties :
#
#
# Convention : Reuss Voigt Hill
#
# Bulk Modulus (GPa) = 5.44321 16.92653 11.18487
# Shear Modulus (GPa) = 10.72002 19.66816 15.19409
#
# Velocity S-wave (km/s) = 2.39021 3.23758 2.84562
# Velocity P-wave (km/s) = 3.24321 4.79549 4.09360
#
# Compressibility (1/GPa) = 0.18371515
#
# Stress axis : x y z
#
# Youngs Moduli (GPa) = 8.27374 51.81635 57.34755
#
# Poissons Ratio (x) = -1.47287 0.58724
# Poissons Ratio (y) = -0.23518 0.29405
# Poissons Ratio (z) = 0.08472 0.26569
#
# Static dielectric constant tensor:
#      x y z
#    x 1.637140 0.000000 0.000000 
#    y 0.000000 1.630560 0.000000 
#    z 0.000000 0.000000 1.679510 
# 
# From -- ./inp_files/13866.got.cif
#   From: 2010.05.17/outbox.cif.g08.bks.cpg/sg65_7_cif.got.tgz:13866.got - 2010.06.03 17:01:31.
