data_PCOD9488893
_publ_section_title
;
Structure prediction by ZEFSAII (Michael W. Deem and Ramdas Pophale) SiO2 
 PCOD9488893
Probable space group: C M M M
;
_chemical_formula_sum "Si O2"
_cell_formula_units_Z 80
_cell_length_a 19.704959
_cell_length_b 9.163877
_cell_length_c 26.034027
_cell_angle_alpha 90.000000
_cell_angle_beta 90.000000
_cell_angle_gamma 90.000000
_cell_volume 4701.063720
_symmetry_space_group_name_H-M "C M M M"
_symmetry_group_IT_number 65
_symmetry_cell_setting 'orthorhombic'
loop_
_space_group_symop_operation_xyz
x,y,z
-x,-y,z
x,-y,-z
-x,y,-z
-x,-y,-z
x,y,-z
-x,y,z
x,-y,z
1/2+x,1/2+y,z
1/2-x,1/2-y,z
1/2+x,1/2-y,-z
1/2-x,1/2+y,-z
1/2-x,1/2-y,-z
1/2+x,1/2+y,-z
1/2-x,1/2+y,z
1/2+x,1/2-y,z
loop_
_atom_site_type_symbol
_atom_site_label
_atom_site_fract_x
_atom_site_fract_y
_atom_site_fract_z
Si Si1 0.822516 0.326372 0.440247
Si Si2 0.082400 0.167668 0.756126
Si Si3 0.419869 0.675527 0.359300
Si Si4 0.581133 0.172223 0.859550
Si Si5 0.822113 0.826540 0.939785
O O1 0.841391 0.300399 0.500000
O O2 0.816642 0.500000 0.432697
O O3 0.750000 0.250000 0.431612
O O4 0.876781 0.257662 0.401838
O O5 0.103164 0.214320 0.698821
O O6 0.102741 0.268214 0.803531
O O7 0.000000 0.166512 0.754875
O O8 0.104125 0.000000 0.764908
O O9 0.500000 0.708844 0.364159
O O10 0.412572 0.500000 0.364223
O O11 0.500000 0.196321 0.864435
O O12 0.621436 0.258093 0.903152
O O13 0.593899 0.000000 0.863537
O O14 0.750000 0.750000 0.929286
O O15 0.816692 0.000000 0.931740
O O16 0.838237 0.801174 0.000000
#
# Coordination Sequence:
#
# PCOD9488893 Si02
#       5
#    16  16  16  16  16
#     4  10  21  36  53  73 100 135 172 211 256 304
#     4   8  15  30  51  74 102 135 169 206 250 299
#     4   9  18  33  54  79 105 134 168 207 252 301
#     4  10  20  33  52  79 108 137 170 209 252 298
#     4  10  21  37  56  76 101 135 172 211 257 306
#
# _framework density 17.017426
#
# number of rings (size 3 to 8) (size 9 to 14) (size 15 to 20)
#    0.000    2.600    0.000    3.000    0.000    5.600 
#    0.000    7.000    0.000    4.800    0.000    0.000 
#    0.000    0.000    0.000    0.000    0.000    0.000 
#
# Total GULP energy -223072.778749 kJ/mol
# GULP energy per Si atom -5576.819469 kJ/mol
# Density = 1.697869 g / cm^3
# Si number density = 17.017426 Si / 1000 Ang^3
#
#
#
# Elastic Constant Matrix: (Units=GPa)
#
#
# Indices 1 2 3 4 5 6 
#
# 1 60.8206 63.1357 78.6229 0.0000 0.0000 0.0000
# 2 63.1357 97.1116 94.8568 0.0000 0.0000 0.0000
# 3 78.6229 94.8568 138.3839 0.0000 0.0000 0.0000
# 4 0.0000 0.0000 0.0000 33.3125 0.0000 0.0000
# 5 0.0000 0.0000 0.0000 0.0000 -73.8756 0.0000
# 6 0.0000 0.0000 0.0000 0.0000 0.0000 31.4123
#
#
#
# Elastic Compliance Matrix: (Units=1/GPa)
#
#
# Indices 1 2 3 4 5 6 
#
# 1 0.074135 -0.021352 -0.027484 0.000000 0.000000 0.000000
# 2 -0.021352 0.037311 -0.013444 0.000000 0.000000 0.000000
# 3 -0.027484 -0.013444 0.032057 0.000000 0.000000 0.000000
# 4 0.000000 0.000000 0.000000 0.030019 0.000000 0.000000
# 5 0.000000 0.000000 0.000000 0.000000 -0.013536 0.000000
# 6 0.000000 0.000000 0.000000 0.000000 0.000000 0.031835
#
#
# Mechanical properties :
#
#
# Convention : Reuss Voigt Hill
#
# Bulk Modulus (GPa) = 52.79081 85.50520 69.14801
# Shear Modulus (GPa) = 15.49457 2.14990 8.82223
#
# Velocity S-wave (km/s) = 3.02074 1.12521 2.27936
# Velocity P-wave (km/s) = 6.57689 7.21408 6.90284
#
# Compressibility (1/GPa) = 0.01894269
#
# Stress axis : x y z
#
# Youngs Moduli (GPa) = 13.48896 26.80157 31.19483
#
# Poissons Ratio (x) = 0.57227 0.85735
# Poissons Ratio (y) = 0.28802 0.41939
# Poissons Ratio (z) = 0.37073 0.36033
#
# Static dielectric constant tensor:
#      x y z
#    x 1.548100 0.000000 0.000000 
#    y 0.000000 1.563630 0.000000 
#    z 0.000000 0.000000 1.573050 
# 
# From -- ./inp_files/72787.got.cif
#   From: 2010.05.17/outbox.cif.g08.bks.cpg/sg65_37_cif.got.tgz:72787.got - 2010.06.03 17:01:31.
