data_PCOD9488728
_publ_section_title
;
Structure prediction by ZEFSAII (Michael W. Deem and Ramdas Pophale) SiO2 
 PCOD9488728
Probable space group: C M M M
;
_chemical_formula_sum "Si O2"
_cell_formula_units_Z 80
_cell_length_a 8.963960
_cell_length_b 18.447278
_cell_length_c 26.600402
_cell_angle_alpha 90.000000
_cell_angle_beta 90.000000
_cell_angle_gamma 90.000000
_cell_volume 4398.660087
_symmetry_space_group_name_H-M "C M M M"
_symmetry_group_IT_number 65
_symmetry_cell_setting 'orthorhombic'
loop_
_space_group_symop_operation_xyz
x,y,z
-x,-y,z
x,-y,-z
-x,y,-z
-x,-y,-z
x,y,-z
-x,y,z
x,-y,z
1/2+x,1/2+y,z
1/2-x,1/2-y,z
1/2+x,1/2-y,-z
1/2-x,1/2+y,-z
1/2-x,1/2-y,-z
1/2+x,1/2+y,-z
1/2-x,1/2+y,z
1/2+x,1/2-y,z
loop_
_atom_site_type_symbol
_atom_site_label
_atom_site_fract_x
_atom_site_fract_y
_atom_site_fract_z
Si Si1 0.322095 0.670601 0.000000
Si Si2 0.678782 0.085448 0.300024
Si Si3 0.318245 0.083056 0.500000
Si Si4 0.175944 0.587056 0.907677
Si Si5 0.828473 0.088170 0.803736
Si Si6 0.819610 0.329225 0.400764
O O1 0.250000 0.750000 0.000000
O O2 0.265117 0.627448 0.951134
O O3 0.500000 0.675547 0.000000
O O4 0.500000 0.091162 0.293575
O O5 0.757872 0.111500 0.249126
O O6 0.722745 0.129694 0.349437
O O7 0.712724 0.000000 0.307405
O O8 0.500000 0.081702 0.500000
O O9 0.272346 0.125012 0.550331
O O10 0.267113 0.000000 0.500000
O O11 0.197064 0.500000 0.912438
O O12 0.235055 0.609723 0.852747
O O13 0.000000 0.601802 0.912418
O O14 0.000000 0.111237 0.808277
O O15 0.825625 0.000000 0.802908
O O16 0.750000 0.250000 0.402427
O O17 0.000000 0.324356 0.401624
#
# Coordination Sequence:
#
# PCOD9488728 Si02
#       6
#     8  16   8  16  16  16
#     4  12  25  40  57  79 111 147 183 224 271 324
#     4   9  17  31  51  74 100 133 174 216 257 305
#     4   9  17  32  55  79 100 129 174 220 258 303
#     4  10  20  36  59  85 112 143 181 224 269 319
#     4   9  17  30  51  80 109 136 171 218 269 315
#     4  10  20  33  51  75 104 137 171 211 259 311
#
# _framework density 18.187356999999999
#
# number of rings (size 3 to 8) (size 9 to 14) (size 15 to 20)
#    0.000    2.300    0.000    3.300    0.000    8.000 
#    0.000    1.000    0.000    4.800    0.000    0.000 
#    0.000    0.000    0.000    0.000    0.000    0.000 
#
# Total GULP energy -223282.628216 kJ/mol
# GULP energy per Si atom -5582.065705 kJ/mol
# Density = 1.814596 g / cm^3
# Si number density = 18.187357 Si / 1000 Ang^3
#
#
#
# Elastic Constant Matrix: (Units=GPa)
#
#
# Indices 1 2 3 4 5 6 
#
# 1 86.5427 53.6767 80.1653 0.0000 0.0000 0.0000
# 2 53.6767 83.8887 79.8391 0.0000 0.0000 0.0000
# 3 80.1653 79.8391 198.3784 0.0000 0.0000 0.0000
# 4 0.0000 0.0000 0.0000 -10.5112 0.0000 0.0000
# 5 0.0000 0.0000 0.0000 0.0000 15.2872 0.0000
# 6 0.0000 0.0000 0.0000 0.0000 0.0000 26.9916
#
#
#
# Elastic Compliance Matrix: (Units=1/GPa)
#
#
# Indices 1 2 3 4 5 6 
#
# 1 0.022081 -0.009136 -0.005246 0.000000 0.000000 0.000000
# 2 -0.009136 0.023101 -0.005605 0.000000 0.000000 0.000000
# 3 -0.005246 -0.005605 0.009417 0.000000 0.000000 0.000000
# 4 0.000000 0.000000 0.000000 -0.095137 0.000000 0.000000
# 5 0.000000 0.000000 0.000000 0.000000 0.065414 0.000000
# 6 0.000000 0.000000 0.000000 0.000000 0.000000 0.037049
#
#
# Mechanical properties :
#
#
# Convention : Reuss Voigt Hill
#
# Bulk Modulus (GPa) = 68.38056 88.46354 78.42205
# Shear Modulus (GPa) = 46.82811 16.69544 31.76177
#
# Velocity S-wave (km/s) = 5.07972 3.03309 4.18349
# Velocity P-wave (km/s) = 8.49024 7.81101 8.15770
#
# Compressibility (1/GPa) = 0.01462404
#
# Stress axis : x y z
#
# Youngs Moduli (GPa) = 45.28819 43.28851 106.19279
#
# Poissons Ratio (x) = 0.39547 0.55711
# Poissons Ratio (y) = 0.41373 0.59525
# Poissons Ratio (z) = 0.23759 0.24265
#
# Static dielectric constant tensor:
#      x y z
#    x 1.612160 0.000000 0.000000 
#    y 0.000000 1.601470 0.000000 
#    z 0.000000 0.000000 1.607590 
# 
# From -- ./inp_files/72868.got.cif
#   From: 2010.05.17/outbox.cif.g08.bks.cpg/sg65_37_cif.got.tgz:72868.got - 2010.06.03 17:01:31.
