data_PCOD9488810
_publ_section_title
;
Structure prediction by ZEFSAII (Michael W. Deem and Ramdas Pophale) SiO2 
 PCOD9488810
Probable space group: C M M M
;
_chemical_formula_sum "Si O2"
_cell_formula_units_Z 104
_cell_length_a 29.637759
_cell_length_b 8.332611
_cell_length_c 23.674607
_cell_angle_alpha 90.000000
_cell_angle_beta 90.000000
_cell_angle_gamma 90.000000
_cell_volume 5846.678972
_symmetry_space_group_name_H-M "C M M M"
_symmetry_group_IT_number 65
_symmetry_cell_setting 'orthorhombic'
loop_
_space_group_symop_operation_xyz
x,y,z
-x,-y,z
x,-y,-z
-x,y,-z
-x,-y,-z
x,y,-z
-x,y,z
x,-y,z
1/2+x,1/2+y,z
1/2-x,1/2-y,z
1/2+x,1/2-y,-z
1/2-x,1/2+y,-z
1/2-x,1/2-y,-z
1/2+x,1/2+y,-z
1/2-x,1/2+y,z
1/2+x,1/2-y,z
loop_
_atom_site_type_symbol
_atom_site_label
_atom_site_fract_x
_atom_site_fract_y
_atom_site_fract_z
Si Si1 0.700080 0.808340 0.564279
Si Si2 0.698415 0.194435 0.000000
Si Si3 0.449719 0.694152 0.280089
Si Si4 0.198599 0.807479 0.222395
Si Si5 0.145632 0.306041 0.888457
Si Si6 0.050180 0.693721 0.848846
Si Si7 0.857386 0.193672 0.332414
O O1 0.691920 0.749803 0.500000
O O2 0.750000 0.750000 0.581463
O O3 0.663595 0.751363 0.609239
O O4 0.700550 0.000000 0.563467
O O5 0.750000 0.250000 0.000000
O O6 0.672167 0.250121 0.056094
O O7 0.698223 0.000000 0.000000
O O8 0.500000 0.744557 0.298375
O O9 0.448854 0.500000 0.278149
O O10 0.442900 0.755109 0.216218
O O11 0.408347 0.747833 0.318959
O O12 0.250000 0.750000 0.221196
O O13 0.171788 0.745672 0.167867
O O14 0.173735 0.752716 0.279740
O O15 0.197710 0.000000 0.221460
O O16 0.145095 0.500000 0.890028
O O17 0.093638 0.250142 0.883865
O O18 0.049685 0.500000 0.850952
O O19 0.000000 0.750594 0.866180
O O20 0.857064 0.000000 0.332709
#
# Coordination Sequence:
#
# PCOD9488810 Si02
#       7
#    16   8  16  16  16  16  16
#     4  10  21  36  54  76 103 138 177 214 253 300
#     4  10  22  38  53  71  95 131 176 216 255 304
#     4   9  17  31  51  76 106 136 167 205 250 301
#     4  11  22  34  49  74 104 132 166 208 257 307
#     4  10  20  35  53  73 100 133 169 211 255 303
#     4   9  17  30  50  76 103 131 164 203 252 308
#     4  10  20  33  51  78 106 134 169 209 255 304
#
# _framework density 17.787876000000001
#
# number of rings (size 3 to 8) (size 9 to 14) (size 15 to 20)
#    0.000    2.154    1.538    1.846    0.000    5.846 
#    0.000    0.385    0.000    2.769    0.000    3.231 
#    0.000    4.308    0.000    0.000    0.000    0.000 
#
# Total GULP energy -290153.182362 kJ/mol
# GULP energy per Si atom -5579.868892 kJ/mol
# Density = 1.774739 g / cm^3
# Si number density = 17.787876 Si / 1000 Ang^3
#
#
#
# Elastic Constant Matrix: (Units=GPa)
#
#
# Indices 1 2 3 4 5 6 
#
# 1 195.2300 19.6482 87.9617 0.0000 0.0000 0.0000
# 2 19.6482 7.5149 13.1658 0.0000 0.0000 0.0000
# 3 87.9617 13.1658 99.3902 0.0000 0.0000 0.0000
# 4 0.0000 0.0000 0.0000 11.4991 0.0000 0.0000
# 5 0.0000 0.0000 0.0000 0.0000 23.2372 0.0000
# 6 0.0000 0.0000 0.0000 0.0000 0.0000 10.4772
#
#
#
# Elastic Compliance Matrix: (Units=1/GPa)
#
#
# Indices 1 2 3 4 5 6 
#
# 1 0.009407 -0.013034 -0.006599 0.000000 0.000000 0.000000
# 2 -0.013034 0.191343 -0.013811 0.000000 0.000000 0.000000
# 3 -0.006599 -0.013811 0.017731 0.000000 0.000000 0.000000
# 4 0.000000 0.000000 0.000000 0.086963 0.000000 0.000000
# 5 0.000000 0.000000 0.000000 0.000000 0.043034 0.000000
# 6 0.000000 0.000000 0.000000 0.000000 0.000000 0.095445
#
#
# Mechanical properties :
#
#
# Convention : Reuss Voigt Hill
#
# Bulk Modulus (GPa) = 6.59660 60.40962 33.50311
# Shear Modulus (GPa) = 8.90720 21.13333 15.02027
#
# Velocity S-wave (km/s) = 2.24016 3.45059 2.90903
# Velocity P-wave (km/s) = 3.22609 7.06472 5.49172
#
# Compressibility (1/GPa) = 0.15159315
#
# Stress axis : x y z
#
# Youngs Moduli (GPa) = 106.30304 5.22621 56.39901
#
# Poissons Ratio (x) = 0.06812 0.37216
# Poissons Ratio (y) = 1.38561 0.77891
# Poissons Ratio (z) = 0.70147 0.07218
#
# Static dielectric constant tensor:
#      x y z
#    x 1.623090 0.000000 0.000000 
#    y 0.000000 1.583170 0.000000 
#    z 0.000000 0.000000 1.582720 
# 
# From -- ./inp_files/66338.got.cif
#   From: 2010.05.17/outbox.cif.g08.bks.cpg/sg65_34_cif.got.tgz:66338.got - 2010.06.03 17:01:31.
