data_PCOD9488009
_publ_section_title
;
Structure prediction by ZEFSAII (Michael W. Deem and Ramdas Pophale) SiO2 
 PCOD9488009
Probable space group: C M M M
;
_chemical_formula_sum "Si O2"
_cell_formula_units_Z 96
_cell_length_a 7.507983
_cell_length_b 19.164801
_cell_length_c 32.758313
_cell_angle_alpha 90.000000
_cell_angle_beta 90.000000
_cell_angle_gamma 90.000000
_cell_volume 4713.560903
_symmetry_space_group_name_H-M "C M M M"
_symmetry_group_IT_number 65
_symmetry_cell_setting 'orthorhombic'
loop_
_space_group_symop_operation_xyz
x,y,z
-x,-y,z
x,-y,-z
-x,y,-z
-x,-y,-z
x,y,-z
-x,y,z
x,-y,z
1/2+x,1/2+y,z
1/2-x,1/2-y,z
1/2+x,1/2-y,-z
1/2-x,1/2+y,-z
1/2-x,1/2-y,-z
1/2+x,1/2+y,-z
1/2-x,1/2+y,z
1/2+x,1/2-y,z
loop_
_atom_site_type_symbol
_atom_site_label
_atom_site_fract_x
_atom_site_fract_y
_atom_site_fract_z
Si Si1 0.217351 0.081582 0.377564
Si Si2 0.286235 0.580679 0.288806
Si Si3 0.217165 0.419518 0.954014
Si Si4 0.786284 0.331808 0.122999
Si Si5 0.713589 0.668079 0.545183
Si Si6 0.288244 0.079756 0.800507
O O1 0.274573 0.109134 0.332760
O O2 0.282503 0.124554 0.416419
O O3 0.000000 0.083939 0.378046
O O4 0.266117 0.000000 0.380650
O O5 0.500000 0.579604 0.290143
O O6 0.223264 0.500000 0.287601
O O7 0.237993 0.610950 0.244835
O O8 0.268252 0.500000 0.945892
O O9 0.280012 0.368672 0.918359
O O10 0.000000 0.418276 0.954162
O O11 0.274567 0.400846 0.000000
O O12 0.750000 0.250000 0.124270
O O13 0.717881 0.372534 0.162988
O O14 0.000000 0.339769 0.122765
O O15 0.781081 0.647681 0.500000
O O16 0.500000 0.658894 0.544388
O O17 0.750000 0.750000 0.550624
O O18 0.500000 0.074215 0.806139
O O19 0.216247 0.000000 0.801726
#
# Coordination Sequence:
#
# PCOD9488009 Si02
#       6
#    16  16  16  16  16  16
#     4   8  14  26  45  68  90 111 141 182 222 259
#     4   8  14  26  45  67  89 113 142 179 223 266
#     4   8  14  27  49  73  92 114 150 190 221 256
#     4  10  20  32  46  67  95 123 149 181 223 265
#     4   9  17  29  45  64  87 116 147 178 214 258
#     4   9  17  30  48  67  87 114 150 188 220 254
#
# _framework density 20.366766999999999
#
# number of rings (size 3 to 8) (size 9 to 14) (size 15 to 20)
#    0.000    3.333    0.000    2.000    0.000    3.333 
#    0.000    3.333    0.000    7.000    0.000    3.500 
#    0.000    0.000    0.000    0.000    0.000    0.000 
#
# Total GULP energy -267473.764658 kJ/mol
# GULP energy per Si atom -5572.370097 kJ/mol
# Density = 2.032041 g / cm^3
# Si number density = 20.366767 Si / 1000 Ang^3
#
#
#
# Elastic Constant Matrix: (Units=GPa)
#
#
# Indices 1 2 3 4 5 6 
#
# 1 52.8464 0.4145 8.7567 0.0000 0.0000 0.0000
# 2 0.4145 84.6886 117.4806 0.0000 0.0000 0.0000
# 3 8.7567 117.4806 258.2645 0.0000 0.0000 0.0000
# 4 0.0000 0.0000 0.0000 32.2534 0.0000 0.0000
# 5 0.0000 0.0000 0.0000 0.0000 10.7522 0.0000
# 6 0.0000 0.0000 0.0000 0.0000 0.0000 14.5821
#
#
#
# Elastic Compliance Matrix: (Units=1/GPa)
#
#
# Indices 1 2 3 4 5 6 
#
# 1 0.019178 0.002190 -0.001647 0.000000 0.000000 0.000000
# 2 0.002190 0.032252 -0.014745 0.000000 0.000000 0.000000
# 3 -0.001647 -0.014745 0.010635 0.000000 0.000000 0.000000
# 4 0.000000 0.000000 0.000000 0.031004 0.000000 0.000000
# 5 0.000000 0.000000 0.000000 0.000000 0.093004 0.000000
# 6 0.000000 0.000000 0.000000 0.000000 0.000000 0.068577
#
#
# Mechanical properties :
#
#
# Convention : Reuss Voigt Hill
#
# Bulk Modulus (GPa) = 29.70662 72.12257 50.91459
# Shear Modulus (GPa) = 16.99090 29.46072 23.22581
#
# Velocity S-wave (km/s) = 2.89147 3.80743 3.38061
# Velocity P-wave (km/s) = 5.07592 7.40388 6.34753
#
# Compressibility (1/GPa) = 0.03366253
#
# Stress axis : x y z
#
# Youngs Moduli (GPa) = 52.14194 31.00608 94.02784
#
# Poissons Ratio (x) = -0.06791 0.15483
# Poissons Ratio (y) = -0.11421 1.38645
# Poissons Ratio (z) = 0.08586 0.45719
#
# Static dielectric constant tensor:
#      x y z
#    x 2.121620 0.000000 0.000000 
#    y 0.000000 1.671540 0.000000 
#    z 0.000000 0.000000 1.765240 
# 
# From -- ./inp_files/69022.got.cif
#   From: 2010.05.17/outbox.cif.g08.bks.cpg/sg65_35_cif.got.tgz:69022.got - 2010.06.03 17:01:31.
