data_PCOD9488319
_publ_section_title
;
Structure prediction by ZEFSAII (Michael W. Deem and Ramdas Pophale) SiO2 
 PCOD9488319
Probable space group: C M M M
;
_chemical_formula_sum "Si O2"
_cell_formula_units_Z 72
_cell_length_a 9.327685
_cell_length_b 29.610875
_cell_length_c 15.356882
_cell_angle_alpha 90.000000
_cell_angle_beta 90.000000
_cell_angle_gamma 90.000000
_cell_volume 4241.584853
_symmetry_space_group_name_H-M "C M M M"
_symmetry_group_IT_number 65
_symmetry_cell_setting 'orthorhombic'
loop_
_space_group_symop_operation_xyz
x,y,z
-x,-y,z
x,-y,-z
-x,y,-z
-x,-y,-z
x,y,-z
-x,y,z
x,-y,z
1/2+x,1/2+y,z
1/2-x,1/2-y,z
1/2+x,1/2-y,-z
1/2-x,1/2+y,-z
1/2-x,1/2-y,-z
1/2+x,1/2+y,-z
1/2-x,1/2+y,z
1/2+x,1/2-y,z
loop_
_atom_site_type_symbol
_atom_site_label
_atom_site_fract_x
_atom_site_fract_y
_atom_site_fract_z
Si Si1 0.171474 0.797626 0.401502
Si Si2 0.668568 0.796361 0.896235
Si Si3 0.170987 0.858917 0.765304
Si Si4 0.829171 0.052179 0.674517
Si Si5 0.337653 0.945170 0.500000
O O1 0.208382 0.813414 0.500000
O O2 0.250000 0.750000 0.386909
O O3 0.205440 0.832427 0.324632
O O4 0.000000 0.790455 0.399327
O O5 0.500000 0.792104 0.876793
O O6 0.750000 0.750000 0.872883
O O7 0.740109 0.836265 0.841906
O O8 0.684957 0.803138 0.000000
O O9 0.202764 0.911543 0.748924
O O10 0.000000 0.853831 0.780902
O O11 0.747261 0.066631 0.587179
O O12 0.000000 0.054397 0.657352
O O13 0.793446 0.000000 0.694900
O O14 0.500000 0.927922 0.500000
O O15 0.342983 0.000000 0.500000
#
# Coordination Sequence:
#
# PCOD9488319 Si02
#       5
#    16  16  16  16   8
#     4   9  18  31  45  64  95 131 164 199 240 291
#     4  10  21  37  57  80 106 133 164 207 258 311
#     4  10  20  32  52  77 101 133 172 215 257 304
#     4   9  18  32  50  72 100 136 176 217 262 308
#     4   9  17  29  45  67  96 131 174 221 263 299
#
# _framework density 16.974786999999999
#
# number of rings (size 3 to 8) (size 9 to 14) (size 15 to 20)
#    0.000    2.556    0.000    1.667    1.556    6.222 
#    0.000    0.000    0.000    0.667    0.000    4.667 
#    0.000    0.000    0.000    0.000    0.000    0.000 
#
# Total GULP energy -200808.638085 kJ/mol
# GULP energy per Si atom -5578.017725 kJ/mol
# Density = 1.693615 g / cm^3
# Si number density = 16.974787 Si / 1000 Ang^3
#
#
#
# Elastic Constant Matrix: (Units=GPa)
#
#
# Indices 1 2 3 4 5 6 
#
# 1 57.2135 57.7613 51.2510 0.0000 0.0000 0.0000
# 2 57.7613 100.5078 53.7972 0.0000 0.0000 0.0000
# 3 51.2510 53.7972 54.3764 0.0000 0.0000 0.0000
# 4 0.0000 0.0000 0.0000 26.2658 0.0000 0.0000
# 5 0.0000 0.0000 0.0000 0.0000 28.6995 0.0000
# 6 0.0000 0.0000 0.0000 0.0000 0.0000 20.7973
#
#
#
# Elastic Compliance Matrix: (Units=1/GPa)
#
#
# Indices 1 2 3 4 5 6 
#
# 1 0.127302 -0.018998 -0.101189 0.000000 0.000000 0.000000
# 2 -0.018998 0.023984 -0.005823 0.000000 0.000000 0.000000
# 3 -0.101189 -0.005823 0.119524 0.000000 0.000000 0.000000
# 4 0.000000 0.000000 0.000000 0.038072 0.000000 0.000000
# 5 0.000000 0.000000 0.000000 0.000000 0.034844 0.000000
# 6 0.000000 0.000000 0.000000 0.000000 0.000000 0.048083
#
#
# Mechanical properties :
#
#
# Convention : Reuss Voigt Hill
#
# Bulk Modulus (GPa) = 53.21879 59.74631 56.48255
# Shear Modulus (GPa) = 7.69121 18.43839 13.06480
#
# Velocity S-wave (km/s) = 2.13091 3.29936 2.77728
# Velocity P-wave (km/s) = 6.12161 7.05605 6.60538
#
# Compressibility (1/GPa) = 0.01879036
#
# Stress axis : x y z
#
# Youngs Moduli (GPa) = 7.85535 41.69431 8.36650
#
# Poissons Ratio (x) = 0.79210 0.84660
# Poissons Ratio (y) = 0.14923 0.04872
# Poissons Ratio (z) = 0.79488 0.24278
#
# Static dielectric constant tensor:
#      x y z
#    x 1.568290 0.000000 0.000000 
#    y 0.000000 1.582000 0.000000 
#    z 0.000000 0.000000 1.559950 
# 
# From -- ./inp_files/36588.got.cif
#   From: 2010.05.17/outbox.cif.g08.bks.cpg/sg65_19_cif.got.tgz:36588.got - 2010.06.03 17:01:31.
