data_PCOD9488641
_publ_section_title
;
Structure prediction by ZEFSAII (Michael W. Deem and Ramdas Pophale) SiO2 
 PCOD9488641
Probable space group: C M M M
;
_chemical_formula_sum "Si O2"
_cell_formula_units_Z 96
_cell_length_a 18.013162
_cell_length_b 8.952806
_cell_length_c 32.505468
_cell_angle_alpha 90.000000
_cell_angle_beta 90.000000
_cell_angle_gamma 90.000000
_cell_volume 5242.103022
_symmetry_space_group_name_H-M "C M M M"
_symmetry_group_IT_number 65
_symmetry_cell_setting 'orthorhombic'
loop_
_space_group_symop_operation_xyz
x,y,z
-x,-y,z
x,-y,-z
-x,y,-z
-x,-y,-z
x,y,-z
-x,y,z
x,-y,z
1/2+x,1/2+y,z
1/2-x,1/2-y,z
1/2+x,1/2-y,-z
1/2-x,1/2+y,-z
1/2-x,1/2-y,-z
1/2+x,1/2+y,-z
1/2-x,1/2+y,z
1/2+x,1/2-y,z
loop_
_atom_site_type_symbol
_atom_site_label
_atom_site_fract_x
_atom_site_fract_y
_atom_site_fract_z
Si Si1 0.167328 0.820671 0.287521
Si Si2 0.167976 0.322116 0.794871
Si Si3 0.168657 0.822298 0.378049
Si Si4 0.589654 0.672052 0.129313
Si Si5 0.409739 0.174345 0.954379
Si Si6 0.410906 0.824557 0.545625
O O1 0.250000 0.750000 0.289084
O O2 0.132937 0.746766 0.246956
O O3 0.134764 0.787329 0.332758
O O4 0.171392 0.000000 0.282473
O O5 0.173792 0.500000 0.791317
O O6 0.250000 0.250000 0.798828
O O7 0.122169 0.273418 0.834673
O O8 0.250000 0.750000 0.380037
O O9 0.122632 0.763344 0.416424
O O10 0.176276 0.000000 0.380132
O O11 0.500000 0.679418 0.130141
O O12 0.611874 0.500000 0.135727
O O13 0.615110 0.729715 0.084517
O O14 0.500000 0.180177 0.954656
O O15 0.389684 0.000000 0.949018
O O16 0.384976 0.223760 0.000000
O O17 0.386047 0.773263 0.500000
O O18 0.500000 0.813611 0.546574
O O19 0.391639 0.000000 0.549370
#
# Coordination Sequence:
#
# PCOD9488641 Si02
#       6
#    16  16  16  16  16  16
#     4   9  17  31  50  73 100 129 164 204 247 294
#     4  11  21  34  54  76 100 132 170 207 247 300
#     4  10  20  33  53  79 104 131 164 206 251 294
#     4  10  20  33  50  74 104 134 166 208 253 294
#     4   8  14  26  45  69  97 129 165 204 246 294
#     4   9  19  36  55  74 100 135 171 207 249 297
#
# _framework density 18.31326
#
# number of rings (size 3 to 8) (size 9 to 14) (size 15 to 20)
#    0.000    2.500    0.000    5.000    0.000    4.333 
#    0.000    3.333    0.000    1.500    0.000    0.000 
#    0.000    0.000    0.000    0.000    0.000    0.000 
#
# Total GULP energy -267551.866214 kJ/mol
# GULP energy per Si atom -5573.997213 kJ/mol
# Density = 1.827158 g / cm^3
# Si number density = 18.313260 Si / 1000 Ang^3
#
#
#
# Elastic Constant Matrix: (Units=GPa)
#
#
# Indices 1 2 3 4 5 6 
#
# 1 7.6233 17.9774 25.9309 0.0000 0.0000 0.0000
# 2 17.9774 107.8891 78.6741 0.0000 0.0000 0.0000
# 3 25.9309 78.6741 181.3752 0.0000 0.0000 0.0000
# 4 0.0000 0.0000 0.0000 38.1838 0.0000 0.0000
# 5 0.0000 0.0000 0.0000 0.0000 23.3302 0.0000
# 6 0.0000 0.0000 0.0000 0.0000 0.0000 21.0988
#
#
#
# Elastic Compliance Matrix: (Units=1/GPa)
#
#
# Indices 1 2 3 4 5 6 
#
# 1 0.302843 -0.027629 -0.031312 0.000000 0.000000 0.000000
# 2 -0.027629 0.016078 -0.003024 0.000000 0.000000 0.000000
# 3 -0.031312 -0.003024 0.011302 0.000000 0.000000 0.000000
# 4 0.000000 0.000000 0.000000 0.026189 0.000000 0.000000
# 5 0.000000 0.000000 0.000000 0.000000 0.042863 0.000000
# 6 0.000000 0.000000 0.000000 0.000000 0.000000 0.047396
#
#
# Mechanical properties :
#
#
# Convention : Reuss Voigt Hill
#
# Bulk Modulus (GPa) = 4.84750 60.22804 32.53777
# Shear Modulus (GPa) = 7.82027 28.14291 17.98159
#
# Velocity S-wave (km/s) = 2.06871 3.92439 3.13691
# Velocity P-wave (km/s) = 2.89116 7.31393 5.56113
#
# Compressibility (1/GPa) = 0.20629198
#
# Stress axis : x y z
#
# Youngs Moduli (GPa) = 3.30204 62.19851 88.48198
#
# Poissons Ratio (x) = 1.71847 2.77059
# Poissons Ratio (y) = 0.09123 0.26755
# Poissons Ratio (z) = 0.10339 0.18808
#
# Static dielectric constant tensor:
#      x y z
#    x 1.615410 0.000000 0.000000 
#    y 0.000000 1.614840 0.000000 
#    z 0.000000 0.000000 1.672200 
# 
# From -- ./inp_files/73191.got.cif
#   From: 2010.05.17/outbox.cif.g08.bks.cpg/sg65_37_cif.got.tgz:73191.got - 2010.06.03 17:01:31.
