data_PCOD9488541
_publ_section_title
;
Structure prediction by ZEFSAII (Michael W. Deem and Ramdas Pophale) SiO2 
 PCOD9488541
Probable space group: C M M M
;
_chemical_formula_sum "Si O2"
_cell_formula_units_Z 104
_cell_length_a 27.890710
_cell_length_b 15.918254
_cell_length_c 14.098811
_cell_angle_alpha 90.000000
_cell_angle_beta 90.000000
_cell_angle_gamma 90.000000
_cell_volume 6259.468943
_symmetry_space_group_name_H-M "C M M M"
_symmetry_group_IT_number 65
_symmetry_cell_setting 'orthorhombic'
loop_
_space_group_symop_operation_xyz
x,y,z
-x,-y,z
x,-y,-z
-x,y,-z
-x,-y,-z
x,y,-z
-x,y,z
x,-y,z
1/2+x,1/2+y,z
1/2-x,1/2-y,z
1/2+x,1/2-y,-z
1/2-x,1/2+y,-z
1/2-x,1/2-y,-z
1/2+x,1/2+y,-z
1/2-x,1/2+y,z
1/2+x,1/2-y,z
loop_
_atom_site_type_symbol
_atom_site_label
_atom_site_fract_x
_atom_site_fract_y
_atom_site_fract_z
Si Si1 0.860486 0.762397 0.615457
Si Si2 0.884356 0.899769 0.892469
Si Si3 0.775278 0.158347 0.893493
Si Si4 0.289312 0.594646 0.308807
Si Si5 0.057565 0.000000 0.603683
Si Si6 0.187891 0.408941 0.389475
Si Si7 0.943099 0.833145 0.279835
O O1 0.861058 0.770243 0.500000
O O2 0.828711 0.837099 0.661711
O O3 0.836453 0.675077 0.646851
O O4 0.913072 0.765111 0.661688
O O5 0.833429 0.850760 0.891076
O O6 0.920475 0.853932 0.821907
O O7 0.877360 0.000000 0.869159
O O8 0.902428 0.897657 0.000000
O O9 0.750000 0.250000 0.886820
O O10 0.765261 0.110731 0.794834
O O11 0.761984 0.125498 0.000000
O O12 0.309109 0.500000 0.311438
O O13 0.244945 0.600737 0.380245
O O14 0.068277 0.082925 0.660615
O O15 0.080232 0.000000 0.500000
O O16 0.000000 0.000000 0.594053
O O17 0.175119 0.412171 0.500000
O O18 0.175274 0.500000 0.346199
O O19 0.000000 0.819323 0.276245
#
# Coordination Sequence:
#
# PCOD9488541 Si02
#       7
#    16  16  16  16   8  16  16
#     4  11  22  34  53  76 103 140 177 212 256 311
#     4  10  20  35  54  75 101 136 179 220 259 307
#     4  10  20  33  50  72 100 136 176 214 252 296
#     4  11  21  32  50  77 109 141 173 208 250 309
#     4   9  18  32  47  65  97 137 170 206 253 301
#     4   9  19  36  55  77 104 133 170 217 262 305
#     4  11  22  35  50  72 102 135 176 221 261 306
#
# _framework density 16.614827999999999
#
# number of rings (size 3 to 8) (size 9 to 14) (size 15 to 20)
#    0.000    1.769    2.308    2.769    1.077    4.308 
#    0.000    0.769    0.000    0.462    0.000    2.154 
#    0.000    0.000    0.000    1.385    0.000    0.000 
#
# Total GULP energy -289501.191848 kJ/mol
# GULP energy per Si atom -5567.330612 kJ/mol
# Density = 1.657701 g / cm^3
# Si number density = 16.614828 Si / 1000 Ang^3
#
#
#
# Elastic Constant Matrix: (Units=GPa)
#
#
# Indices 1 2 3 4 5 6 
#
# 1 77.7737 56.2485 22.0666 0.0000 0.0000 0.0000
# 2 56.2485 96.6104 26.9011 0.0000 0.0000 0.0000
# 3 22.0666 26.9011 73.4587 0.0000 0.0000 0.0000
# 4 0.0000 0.0000 0.0000 17.4144 0.0000 0.0000
# 5 0.0000 0.0000 0.0000 0.0000 23.3684 0.0000
# 6 0.0000 0.0000 0.0000 0.0000 0.0000 6.4555
#
#
#
# Elastic Compliance Matrix: (Units=1/GPa)
#
#
# Indices 1 2 3 4 5 6 
#
# 1 0.022521 -0.012503 -0.002186 0.000000 0.000000 0.000000
# 2 -0.012503 0.018468 -0.003007 0.000000 0.000000 0.000000
# 3 -0.002186 -0.003007 0.015371 0.000000 0.000000 0.000000
# 4 0.000000 0.000000 0.000000 0.057424 0.000000 0.000000
# 5 0.000000 0.000000 0.000000 0.000000 0.042793 0.000000
# 6 0.000000 0.000000 0.000000 0.000000 0.000000 0.154907
#
#
# Mechanical properties :
#
#
# Convention : Reuss Voigt Hill
#
# Bulk Modulus (GPa) = 47.69567 50.91945 49.30756
# Shear Modulus (GPa) = 14.12964 18.95610 16.54287
#
# Velocity S-wave (km/s) = 2.91937 3.38141 3.15885
# Velocity P-wave (km/s) = 6.33503 6.77929 6.56092
#
# Compressibility (1/GPa) = 0.02096626
#
# Stress axis : x y z
#
# Youngs Moduli (GPa) = 44.40299 54.14805 65.05716
#
# Poissons Ratio (x) = 0.67703 0.14224
# Poissons Ratio (y) = 0.55519 0.19563
# Poissons Ratio (z) = 0.09708 0.16283
#
# Static dielectric constant tensor:
#      x y z
#    x 1.551080 0.000000 0.000000 
#    y 0.000000 1.584170 0.000000 
#    z 0.000000 0.000000 1.623000 
# 
# From -- ./inp_files/48012.got.cif
#   From: 2010.05.17/outbox.cif.g08.bks.cpg/sg65_25_cif.got.tgz:48012.got - 2010.06.03 17:01:31.
