data_PCOD9488821
_publ_section_title
;
Structure prediction by ZEFSAII (Michael W. Deem and Ramdas Pophale) SiO2 
 PCOD9488821
Probable space group: C M M M
;
_chemical_formula_sum "Si O2"
_cell_formula_units_Z 72
_cell_length_a 15.114743
_cell_length_b 8.431697
_cell_length_c 24.814529
_cell_angle_alpha 90.000000
_cell_angle_beta 90.000000
_cell_angle_gamma 90.000000
_cell_volume 3162.436362
_symmetry_space_group_name_H-M "C M M M"
_symmetry_group_IT_number 65
_symmetry_cell_setting 'orthorhombic'
loop_
_space_group_symop_operation_xyz
x,y,z
-x,-y,z
x,-y,-z
-x,y,-z
-x,-y,-z
x,y,-z
-x,y,z
x,-y,z
1/2+x,1/2+y,z
1/2-x,1/2-y,z
1/2+x,1/2-y,-z
1/2-x,1/2+y,-z
1/2-x,1/2-y,-z
1/2+x,1/2+y,-z
1/2-x,1/2+y,z
1/2+x,1/2-y,z
loop_
_atom_site_type_symbol
_atom_site_label
_atom_site_fract_x
_atom_site_fract_y
_atom_site_fract_z
Si Si1 0.394087 0.500000 0.064033
Si Si2 0.393432 0.176115 0.328723
Si Si3 0.100959 0.674194 0.111654
Si Si4 0.652071 0.315346 0.217248
Si Si5 0.107800 0.186163 0.558707
O O1 0.500000 0.500000 0.078339
O O2 0.357120 0.666336 0.086852
O O3 0.386358 0.500000 0.000000
O O4 0.500000 0.171775 0.331779
O O5 0.370322 0.290014 0.279718
O O6 0.360564 0.227286 0.387619
O O7 0.360248 0.000000 0.315353
O O8 0.141394 0.500000 0.101848
O O9 0.097323 0.709485 0.175531
O O10 0.000000 0.667074 0.090853
O O11 0.642268 0.500000 0.203722
O O12 0.750000 0.250000 0.209166
O O13 0.137087 0.248278 0.500000
O O14 0.000000 0.195698 0.558861
O O15 0.129819 0.000000 0.562097
#
# Coordination Sequence:
#
# PCOD9488821 Si02
#       5
#     8  16  16  16  16
#     4   9  18  34  58  90 122 152 188 228 274 323
#     4  10  20  33  51  78 110 141 179 226 274 329
#     4  10  20  36  59  88 119 151 189 231 275 328
#     4  12  24  38  56  79 108 146 186 231 282 335
#     4   8  14  26  45  70 100 135 175 219 269 323
#
# _framework density 22.767256
#
# number of rings (size 3 to 8) (size 9 to 14) (size 15 to 20)
#    0.000    2.111    1.111    4.000    0.000    4.889 
#    0.000    4.444    0.000    1.333    0.000    0.000 
#    0.000    0.000    0.000    0.000    0.000    0.000 
#
# Total GULP energy -200995.242353 kJ/mol
# GULP energy per Si atom -5583.201176 kJ/mol
# Density = 2.271544 g / cm^3
# Si number density = 22.767256 Si / 1000 Ang^3
#
#
#
# Elastic Constant Matrix: (Units=GPa)
#
#
# Indices 1 2 3 4 5 6 
#
# 1 39.9903 10.1120 -2.8459 0.0000 0.0000 0.0000
# 2 10.1120 176.7993 49.8165 0.0000 0.0000 0.0000
# 3 -2.8459 49.8165 75.9733 0.0000 0.0000 0.0000
# 4 0.0000 0.0000 0.0000 14.0627 0.0000 0.0000
# 5 0.0000 0.0000 0.0000 0.0000 -31.7149 0.0000
# 6 0.0000 0.0000 0.0000 0.0000 0.0000 13.7433
#
#
#
# Elastic Compliance Matrix: (Units=1/GPa)
#
#
# Indices 1 2 3 4 5 6 
#
# 1 0.025715 -0.002137 0.002365 0.000000 0.000000 0.000000
# 2 -0.002137 0.007116 -0.004746 0.000000 0.000000 0.000000
# 3 0.002365 -0.004746 0.016363 0.000000 0.000000 0.000000
# 4 0.000000 0.000000 0.000000 0.071110 0.000000 0.000000
# 5 0.000000 0.000000 0.000000 0.000000 -0.031531 0.000000
# 6 0.000000 0.000000 0.000000 0.000000 0.000000 0.072763
#
#
# Mechanical properties :
#
#
# Convention : Reuss Voigt Hill
#
# Bulk Modulus (GPa) = 24.90249 45.21423 35.05836
# Shear Modulus (GPa) = 27.18022 14.93023 21.05523
#
# Velocity S-wave (km/s) = 3.45893 2.56359 3.04436
# Velocity P-wave (km/s) = 5.18786 5.35398 5.27157
#
# Compressibility (1/GPa) = 0.04015663
#
# Stress axis : x y z
#
# Youngs Moduli (GPa) = 38.88830 140.53673 61.11360
#
# Poissons Ratio (x) = 0.30033 -0.14450
# Poissons Ratio (y) = 0.08310 0.29003
# Poissons Ratio (z) = -0.09195 0.66696
#
# Static dielectric constant tensor:
#      x y z
#    x 1.825070 0.000000 0.000000 
#    y 0.000000 1.845730 0.000000 
#    z 0.000000 0.000000 1.830740 
# 
# From -- ./inp_files/70297.got.cif
#   From: 2010.05.17/outbox.cif.g08.bks.cpg/sg65_36_cif.got.tgz:70297.got - 2010.06.03 17:01:31.
