data_PCOD9488125
_publ_section_title
;
Structure prediction by ZEFSAII (Michael W. Deem and Ramdas Pophale) SiO2 
 PCOD9488125
Probable space group: C M M M
;
_chemical_formula_sum "Si O2"
_cell_formula_units_Z 80
_cell_length_a 14.422229
_cell_length_b 25.017895
_cell_length_c 10.892542
_cell_angle_alpha 90.000000
_cell_angle_beta 90.000000
_cell_angle_gamma 90.000000
_cell_volume 3930.179588
_symmetry_space_group_name_H-M "C M M M"
_symmetry_group_IT_number 65
_symmetry_cell_setting 'orthorhombic'
loop_
_space_group_symop_operation_xyz
x,y,z
-x,-y,z
x,-y,-z
-x,y,-z
-x,-y,-z
x,y,-z
-x,y,z
x,-y,z
1/2+x,1/2+y,z
1/2-x,1/2-y,z
1/2+x,1/2-y,-z
1/2-x,1/2+y,-z
1/2-x,1/2-y,-z
1/2+x,1/2+y,-z
1/2-x,1/2+y,z
1/2+x,1/2-y,z
loop_
_atom_site_type_symbol
_atom_site_label
_atom_site_fract_x
_atom_site_fract_y
_atom_site_fract_z
Si Si1 0.895192 0.840766 0.251903
Si Si2 0.283370 0.811364 0.631071
Si Si3 0.609926 0.224286 0.137030
Si Si4 0.400120 0.935067 0.857750
Si Si5 0.804510 0.939698 0.147053
O O1 0.813366 0.841702 0.350765
O O2 0.877483 0.787354 0.169951
O O3 0.879542 0.895234 0.178440
O O4 0.000000 0.836227 0.298921
O O5 0.328437 0.825613 0.500000
O O6 0.250000 0.750000 0.623126
O O7 0.345317 0.810079 0.753810
O O8 0.500000 0.214946 0.135835
O O9 0.647091 0.213420 0.000000
O O10 0.500000 0.918153 0.802824
O O11 0.298448 0.923109 0.805087
O O12 0.401270 0.000000 0.860819
O O13 0.401011 0.916505 0.000000
O O14 0.826124 0.000000 0.190047
O O15 0.795634 0.942032 0.000000
#
# Coordination Sequence:
#
# PCOD9488125 Si02
#       5
#    16  16  16  16  16
#     4  10  20  32  48  71 102 141 184 228 272 318
#     4   9  19  35  55  78 101 130 173 223 271 321
#     4   9  18  33  54  80 109 140 172 211 269 338
#     4   7  10  19  36  56  80 115 159 205 254 306
#     4   9  17  28  43  67 101 141 185 230 272 316
#
# _framework density 20.355305000000001
#
# number of rings (size 3 to 8) (size 9 to 14) (size 15 to 20)
#    0.000    3.200    0.000    2.400    0.000    6.800 
#    0.000    6.000    0.000    4.200    0.000    1.400 
#    0.000    0.000    0.000    6.800    0.000    4.000 
#
# Total GULP energy -222679.850861 kJ/mol
# GULP energy per Si atom -5566.996272 kJ/mol
# Density = 2.030898 g / cm^3
# Si number density = 20.355305 Si / 1000 Ang^3
#
#
#
# Elastic Constant Matrix: (Units=GPa)
#
#
# Indices 1 2 3 4 5 6 
#
# 1 83.9567 16.4821 42.7476 0.0000 0.0000 0.0000
# 2 16.4821 97.0950 15.1623 0.0000 0.0000 0.0000
# 3 42.7476 15.1623 112.0349 0.0000 0.0000 0.0000
# 4 0.0000 0.0000 0.0000 35.6104 0.0000 0.0000
# 5 0.0000 0.0000 0.0000 0.0000 9.8367 0.0000
# 6 0.0000 0.0000 0.0000 0.0000 0.0000 27.7370
#
#
#
# Elastic Compliance Matrix: (Units=1/GPa)
#
#
# Indices 1 2 3 4 5 6 
#
# 1 0.015051 -0.001694 -0.005513 0.000000 0.000000 0.000000
# 2 -0.001694 0.010712 -0.000803 0.000000 0.000000 0.000000
# 3 -0.005513 -0.000803 0.011138 0.000000 0.000000 0.000000
# 4 0.000000 0.000000 0.000000 0.028082 0.000000 0.000000
# 5 0.000000 0.000000 0.000000 0.000000 0.101661 0.000000
# 6 0.000000 0.000000 0.000000 0.000000 0.000000 0.036053
#
#
# Mechanical properties :
#
#
# Convention : Reuss Voigt Hill
#
# Bulk Modulus (GPa) = 47.89375 49.09675 48.49525
# Shear Modulus (GPa) = 22.15549 29.21644 25.68597
#
# Velocity S-wave (km/s) = 3.30273 3.79268 3.55615
# Velocity P-wave (km/s) = 6.17446 6.58418 6.38261
#
# Compressibility (1/GPa) = 0.02087955
#
# Stress axis : x y z
#
# Youngs Moduli (GPa) = 66.44211 93.35149 89.78105
#
# Poissons Ratio (x) = 0.15813 0.49500
# Poissons Ratio (y) = 0.11255 0.07213
# Poissons Ratio (z) = 0.36632 0.07500
#
# Static dielectric constant tensor:
#      x y z
#    x 1.772280 0.000000 0.000000 
#    y 0.000000 1.752960 0.000000 
#    z 0.000000 0.000000 1.761120 
# 
# From -- ./inp_files/24989.got.cif
#   From: 2010.05.17/outbox.cif.g08.bks.cpg/sg65_13_cif.got.tgz:24989.got - 2010.06.03 17:01:31.
