data_PCOD9488205
_publ_section_title
;
Structure prediction by ZEFSAII (Michael W. Deem and Ramdas Pophale) SiO2 
 PCOD9488205
Probable space group: C M M M
;
_chemical_formula_sum "Si O2"
_cell_formula_units_Z 104
_cell_length_a 22.163783
_cell_length_b 26.694650
_cell_length_c 7.558832
_cell_angle_alpha 90.000000
_cell_angle_beta 90.000000
_cell_angle_gamma 90.000000
_cell_volume 4472.216437
_symmetry_space_group_name_H-M "C M M M"
_symmetry_group_IT_number 65
_symmetry_cell_setting 'orthorhombic'
loop_
_space_group_symop_operation_xyz
x,y,z
-x,-y,z
x,-y,-z
-x,y,-z
-x,-y,-z
x,y,-z
-x,y,z
x,-y,z
1/2+x,1/2+y,z
1/2-x,1/2-y,z
1/2+x,1/2-y,-z
1/2-x,1/2+y,-z
1/2-x,1/2-y,-z
1/2+x,1/2+y,-z
1/2-x,1/2+y,z
1/2+x,1/2-y,z
loop_
_atom_site_type_symbol
_atom_site_label
_atom_site_fract_x
_atom_site_fract_y
_atom_site_fract_z
Si Si1 0.153752 0.943282 0.713551
Si Si2 0.748504 0.138466 0.285584
Si Si3 0.568030 0.640239 0.791787
Si Si4 0.570521 0.000000 0.784498
Si Si5 0.112780 0.392561 0.792751
Si Si6 0.934889 0.710673 0.293820
Si Si7 0.165835 0.779438 0.299592
O O1 0.156047 0.944143 0.500000
O O2 0.207221 0.906289 0.774436
O O3 0.092062 0.916067 0.767700
O O4 0.159641 0.000000 0.777426
O O5 0.750631 0.140638 0.500000
O O6 0.681518 0.124515 0.232170
O O7 0.775867 0.191907 0.222732
O O8 0.500000 0.646576 0.727492
O O9 0.616073 0.675856 0.696990
O O10 0.570093 0.652544 0.000000
O O11 0.600948 0.051618 0.722485
O O12 0.500000 0.000000 0.737906
O O13 0.574588 0.000000 0.000000
O O14 0.072366 0.348828 0.711935
O O15 0.098134 0.393148 0.000000
O O16 0.935542 0.725931 0.500000
O O17 0.874310 0.735493 0.214648
O O18 0.000000 0.725590 0.216210
O O19 0.181351 0.763475 0.500000
#
# Coordination Sequence:
#
# PCOD9488205 Si02
#       7
#    16  16  16   8  16  16  16
#     4   9  19  35  54  75 101 141 190 237 285 339
#     4   9  19  36  57  82 112 145 185 234 282 330
#     4  10  20  32  48  75 110 145 183 231 287 340
#     4   9  20  40  61  81 111 151 192 231 276 335
#     4  11  23  38  59  86 115 151 190 231 283 343
#     4  10  21  38  61  88 115 145 187 237 286 336
#     4   9  19  37  60  82 109 149 191 231 278 336
#
# _framework density 23.25469
#
# number of rings (size 3 to 8) (size 9 to 14) (size 15 to 20)
#    0.000    2.385    0.000    2.769    1.077    7.077 
#    0.000    5.769    0.000    2.769    0.000    0.000 
#    0.000    0.000    0.000    0.000    0.000    0.000 
#
# Total GULP energy -290473.788528 kJ/mol
# GULP energy per Si atom -5586.034395 kJ/mol
# Density = 2.320176 g / cm^3
# Si number density = 23.254690 Si / 1000 Ang^3
#
#
#
# Elastic Constant Matrix: (Units=GPa)
#
#
# Indices 1 2 3 4 5 6 
#
# 1 131.0344 51.5410 -3.8364 0.0000 0.0000 0.0000
# 2 51.5410 158.9634 0.2114 0.0000 0.0000 0.0000
# 3 -3.8364 0.2114 63.9704 0.0000 0.0000 0.0000
# 4 0.0000 0.0000 0.0000 78.2353 0.0000 0.0000
# 5 0.0000 0.0000 0.0000 0.0000 15.1306 0.0000
# 6 0.0000 0.0000 0.0000 0.0000 0.0000 24.1716
#
#
#
# Elastic Compliance Matrix: (Units=1/GPa)
#
#
# Indices 1 2 3 4 5 6 
#
# 1 0.008765 -0.002843 0.000535 0.000000 0.000000 0.000000
# 2 -0.002843 0.007213 -0.000194 0.000000 0.000000 0.000000
# 3 0.000535 -0.000194 0.015665 0.000000 0.000000 0.000000
# 4 0.000000 0.000000 0.000000 0.012782 0.000000 0.000000
# 5 0.000000 0.000000 0.000000 0.000000 0.066091 0.000000
# 6 0.000000 0.000000 0.000000 0.000000 0.000000 0.041371
#
#
# Mechanical properties :
#
#
# Convention : Reuss Voigt Hill
#
# Bulk Modulus (GPa) = 37.53878 49.97780 43.75829
# Shear Modulus (GPa) = 30.16216 43.91099 37.03657
#
# Velocity S-wave (km/s) = 3.60534 4.35013 3.99513
# Velocity P-wave (km/s) = 5.78868 6.83883 6.33555
#
# Compressibility (1/GPa) = 0.02663912
#
# Stress axis : x y z
#
# Youngs Moduli (GPa) = 114.08478 138.64391 63.83673
#
# Poissons Ratio (x) = 0.39413 -0.03416
# Poissons Ratio (y) = 0.32431 0.01240
# Poissons Ratio (z) = -0.06104 0.02694
#
# Static dielectric constant tensor:
#      x y z
#    x 1.881750 0.000000 0.000000 
#    y 0.000000 1.894100 0.000000 
#    z 0.000000 0.000000 1.928270 
# 
# From -- ./inp_files/12407.got.cif
#   From: 2010.05.17/outbox.cif.g08.bks.cpg/sg65_7_cif.got.tgz:12407.got - 2010.06.03 17:01:31.
