data_PCOD9488827
_publ_section_title
;
Structure prediction by ZEFSAII (Michael W. Deem and Ramdas Pophale) SiO2 
 PCOD9488827
Probable space group: C M M M
;
_chemical_formula_sum "Si O2"
_cell_formula_units_Z 80
_cell_length_a 28.005152
_cell_length_b 8.962261
_cell_length_c 19.022842
_cell_angle_alpha 90.000000
_cell_angle_beta 90.000000
_cell_angle_gamma 90.000000
_cell_volume 4774.533252
_symmetry_space_group_name_H-M "C M M M"
_symmetry_group_IT_number 65
_symmetry_cell_setting 'orthorhombic'
loop_
_space_group_symop_operation_xyz
x,y,z
-x,-y,z
x,-y,-z
-x,y,-z
-x,-y,-z
x,y,-z
-x,y,z
x,-y,z
1/2+x,1/2+y,z
1/2-x,1/2-y,z
1/2+x,1/2-y,-z
1/2-x,1/2+y,-z
1/2-x,1/2-y,-z
1/2+x,1/2+y,-z
1/2-x,1/2+y,z
1/2+x,1/2-y,z
loop_
_atom_site_type_symbol
_atom_site_label
_atom_site_fract_x
_atom_site_fract_y
_atom_site_fract_z
Si Si1 0.142629 0.821045 0.292853
Si Si2 0.944880 0.678051 0.214814
Si Si3 0.800735 0.178088 0.152278
Si Si4 0.898948 0.179677 0.080543
Si Si5 0.698149 0.822309 0.418062
O O1 0.092047 0.756884 0.267418
O O2 0.179998 0.781696 0.230200
O O3 0.160958 0.750191 0.364703
O O4 0.140572 0.000000 0.297300
O O5 0.937814 0.500000 0.216857
O O6 0.931713 0.739134 0.137415
O O7 0.000000 0.710918 0.230913
O O8 0.750000 0.250000 0.136916
O O9 0.844037 0.218554 0.099951
O O10 0.795482 0.000000 0.149902
O O11 0.903508 0.000000 0.089756
O O12 0.909748 0.216454 0.000000
O O13 0.686181 0.794835 0.500000
O O14 0.750000 0.750000 0.404898
O O15 0.700883 0.000000 0.407160
#
# Coordination Sequence:
#
# PCOD9488827 Si02
#       5
#    16  16  16  16  16
#     4  10  20  34  53  75 101 134 171 211 252 299
#     4  10  21  36  54  76 100 126 161 209 262 312
#     4   9  18  30  45  68  96 128 165 202 242 289
#     4   9  19  35  51  69  97 131 167 207 251 303
#     4  10  20  33  51  78 112 146 176 206 244 291
#
# _framework density 16.755565000000001
#
# number of rings (size 3 to 8) (size 9 to 14) (size 15 to 20)
#    0.000    2.400    0.000    3.600    0.000    9.600 
#    0.000    2.000    0.000    0.600    0.000    4.200 
#    0.000    0.000    0.000    0.000    0.000    0.000 
#
# Total GULP energy -223208.895084 kJ/mol
# GULP energy per Si atom -5580.222377 kJ/mol
# Density = 1.671743 g / cm^3
# Si number density = 16.755565 Si / 1000 Ang^3
#
#
#
# Elastic Constant Matrix: (Units=GPa)
#
#
# Indices 1 2 3 4 5 6 
#
# 1 80.5441 39.6260 51.8429 0.0000 0.0000 0.0000
# 2 39.6260 51.2230 52.8175 0.0000 0.0000 0.0000
# 3 51.8429 52.8175 109.1488 0.0000 0.0000 0.0000
# 4 0.0000 0.0000 0.0000 27.4569 0.0000 0.0000
# 5 0.0000 0.0000 0.0000 0.0000 8.8948 0.0000
# 6 0.0000 0.0000 0.0000 0.0000 0.0000 30.9261
#
#
#
# Elastic Compliance Matrix: (Units=1/GPa)
#
#
# Indices 1 2 3 4 5 6 
#
# 1 0.020972 -0.011881 -0.004212 0.000000 0.000000 0.000000
# 2 -0.011881 0.045695 -0.016469 0.000000 0.000000 0.000000
# 3 -0.004212 -0.016469 0.019132 0.000000 0.000000 0.000000
# 4 0.000000 0.000000 0.000000 0.036421 0.000000 0.000000
# 5 0.000000 0.000000 0.000000 0.000000 0.112425 0.000000
# 6 0.000000 0.000000 0.000000 0.000000 0.000000 0.032335
#
#
# Mechanical properties :
#
#
# Convention : Reuss Voigt Hill
#
# Bulk Modulus (GPa) = 48.36677 58.83208 53.59942
# Shear Modulus (GPa) = 14.74952 19.89753 17.32352
#
# Velocity S-wave (km/s) = 2.97016 3.44978 3.21891
# Velocity P-wave (km/s) = 6.37897 7.14536 6.77301
#
# Compressibility (1/GPa) = 0.02067535
#
# Stress axis : x y z
#
# Youngs Moduli (GPa) = 47.68366 21.88428 52.26912
#
# Poissons Ratio (x) = 0.26000 0.22015
# Poissons Ratio (y) = 0.56651 0.86082
# Poissons Ratio (z) = 0.20084 0.36041
#
# Static dielectric constant tensor:
#      x y z
#    x 1.544970 0.000000 0.000000 
#    y 0.000000 1.558250 0.000000 
#    z 0.000000 0.000000 1.559010 
# 
# From -- ./inp_files/49848.got.cif
#   From: 2010.05.17/outbox.cif.g08.bks.cpg/sg65_25_cif.got.tgz:49848.got - 2010.06.03 17:01:31.
