data_PCOD9488803
_publ_section_title
;
Structure prediction by ZEFSAII (Michael W. Deem and Ramdas Pophale) SiO2 
 PCOD9488803
Probable space group: C M M M
;
_chemical_formula_sum "Si O2"
_cell_formula_units_Z 104
_cell_length_a 21.710069
_cell_length_b 28.748871
_cell_length_c 8.074862
_cell_angle_alpha 90.000000
_cell_angle_beta 90.000000
_cell_angle_gamma 90.000000
_cell_volume 5039.844151
_symmetry_space_group_name_H-M "C M M M"
_symmetry_group_IT_number 65
_symmetry_cell_setting 'orthorhombic'
loop_
_space_group_symop_operation_xyz
x,y,z
-x,-y,z
x,-y,-z
-x,y,-z
-x,-y,-z
x,y,-z
-x,y,z
x,-y,z
1/2+x,1/2+y,z
1/2-x,1/2-y,z
1/2+x,1/2-y,-z
1/2-x,1/2+y,-z
1/2-x,1/2-y,-z
1/2+x,1/2+y,-z
1/2-x,1/2+y,z
1/2+x,1/2-y,z
loop_
_atom_site_type_symbol
_atom_site_label
_atom_site_fract_x
_atom_site_fract_y
_atom_site_fract_z
Si Si1 0.432928 0.770849 0.301172
Si Si2 0.160662 0.947377 0.304297
Si Si3 0.664843 0.701079 0.310003
Si Si4 0.500000 0.946789 0.797747
Si Si5 0.100930 0.626983 0.200756
Si Si6 0.258621 0.128381 0.196122
Si Si7 0.429019 0.374084 0.193305
O O1 0.432221 0.764090 0.500000
O O2 0.500000 0.753178 0.239887
O O3 0.372003 0.744805 0.234803
O O4 0.428236 0.825056 0.262188
O O5 0.148449 0.947748 0.500000
O O6 0.217367 0.912598 0.272204
O O7 0.102189 0.924226 0.215716
O O8 0.173116 0.000000 0.249056
O O9 0.681021 0.710924 0.500000
O O10 0.724439 0.677495 0.229177
O O11 0.612277 0.661192 0.298676
O O12 0.559812 0.916936 0.746838
O O13 0.500000 0.000000 0.740033
O O14 0.500000 0.947809 0.000000
O O15 0.171619 0.626129 0.258109
O O16 0.100559 0.628021 0.000000
O O17 0.258889 0.121045 0.000000
O O18 0.500000 0.373584 0.241816
O O19 0.423554 0.360534 0.000000
#
# Coordination Sequence:
#
# PCOD9488803 Si02
#       7
#    16  16  16   8  16  16  16
#     4  10  21  36  56  82 112 147 185 227 273 326
#     4  10  21  36  54  76 103 140 184 227 274 329
#     4  10  20  35  55  79 109 149 191 227 271 325
#     4   9  18  36  61  87 113 141 181 229 278 337
#     4  10  21  37  59  85 111 143 180 224 277 332
#     4  10  21  36  55  81 111 143 183 229 280 333
#     4  10  20  33  51  77 108 142 182 229 279 325
#
# _framework density 20.635559000000001
#
# number of rings (size 3 to 8) (size 9 to 14) (size 15 to 20)
#    0.000    2.077    0.769    4.154    0.000    7.077 
#    0.000    6.154    0.000    0.923    0.000    0.000 
#    0.000    0.000    0.000    0.000    0.000    0.000 
#
# Total GULP energy -290288.058638 kJ/mol
# GULP energy per Si atom -5582.462666 kJ/mol
# Density = 2.058859 g / cm^3
# Si number density = 20.635559 Si / 1000 Ang^3
#
#
#
# Elastic Constant Matrix: (Units=GPa)
#
#
# Indices 1 2 3 4 5 6 
#
# 1 143.9229 42.2798 1.3940 0.0000 0.0000 0.0000
# 2 42.2798 114.6411 -6.7388 0.0000 0.0000 0.0000
# 3 1.3940 -6.7388 22.5587 0.0000 0.0000 0.0000
# 4 0.0000 0.0000 0.0000 77.4958 0.0000 0.0000
# 5 0.0000 0.0000 0.0000 0.0000 185.6934 0.0000
# 6 0.0000 0.0000 0.0000 0.0000 0.0000 7.0072
#
#
#
# Elastic Compliance Matrix: (Units=1/GPa)
#
#
# Indices 1 2 3 4 5 6 
#
# 1 0.007834 -0.002970 -0.001371 0.000000 0.000000 0.000000
# 2 -0.002970 0.010005 0.003172 0.000000 0.000000 0.000000
# 3 -0.001371 0.003172 0.045361 0.000000 0.000000 0.000000
# 4 0.000000 0.000000 0.000000 0.012904 0.000000 0.000000
# 5 0.000000 0.000000 0.000000 0.000000 0.005385 0.000000
# 6 0.000000 0.000000 0.000000 0.000000 0.000000 0.142710
#
#
# Mechanical properties :
#
#
# Convention : Reuss Voigt Hill
#
# Bulk Modulus (GPa) = 16.43067 39.44365 27.93716
# Shear Modulus (GPa) = 20.25739 70.31847 45.28793
#
# Velocity S-wave (km/s) = 3.13657 5.84383 4.68980
# Velocity P-wave (km/s) = 4.59315 8.04299 6.54930
#
# Compressibility (1/GPa) = 0.06086180
#
# Stress axis : x y z
#
# Youngs Moduli (GPa) = 127.65108 99.95425 22.04533
#
# Poissons Ratio (x) = 0.29684 0.03023
# Poissons Ratio (y) = 0.37909 -0.06993
# Poissons Ratio (z) = 0.17504 -0.31706
#
# Static dielectric constant tensor:
#      x y z
#    x 1.757500 0.000000 0.000000 
#    y 0.000000 1.738790 0.000000 
#    z 0.000000 0.000000 1.737390 
# 
# From -- ./inp_files/12827.got.cif
#   From: 2010.05.17/outbox.cif.g08.bks.cpg/sg65_7_cif.got.tgz:12827.got - 2010.06.03 17:01:31.
