data_PCOD9488216
_publ_section_title
;
Structure prediction by ZEFSAII (Michael W. Deem and Ramdas Pophale) SiO2 
 PCOD9488216
Probable space group: C M M M
;
_chemical_formula_sum "Si O2"
_cell_formula_units_Z 72
_cell_length_a 27.780248
_cell_length_b 7.847148
_cell_length_c 16.648335
_cell_angle_alpha 90.000000
_cell_angle_beta 90.000000
_cell_angle_gamma 90.000000
_cell_volume 3629.265734
_symmetry_space_group_name_H-M "C M M M"
_symmetry_group_IT_number 65
_symmetry_cell_setting 'orthorhombic'
loop_
_space_group_symop_operation_xyz
x,y,z
-x,-y,z
x,-y,-z
-x,y,-z
-x,-y,-z
x,y,-z
-x,y,z
x,-y,z
1/2+x,1/2+y,z
1/2-x,1/2-y,z
1/2+x,1/2-y,-z
1/2-x,1/2+y,-z
1/2-x,1/2-y,-z
1/2+x,1/2+y,-z
1/2-x,1/2+y,z
1/2+x,1/2-y,z
loop_
_atom_site_type_symbol
_atom_site_label
_atom_site_fract_x
_atom_site_fract_y
_atom_site_fract_z
Si Si1 0.597329 0.699690 0.411861
Si Si2 0.305917 0.705350 0.000000
Si Si3 0.946433 0.791362 0.753480
Si Si4 0.195663 0.301170 0.662931
Si Si5 0.151931 0.206600 0.831446
O O1 0.589248 0.775553 0.500000
O O2 0.584803 0.500000 0.416187
O O3 0.567612 0.769429 0.336211
O O4 0.653476 0.711132 0.387191
O O5 0.250000 0.750000 0.000000
O O6 0.329868 0.768306 0.082480
O O7 0.310634 0.500000 0.000000
O O8 0.902572 0.739228 0.810764
O O9 0.000000 0.736726 0.775992
O O10 0.946022 0.000000 0.752486
O O11 0.189747 0.500000 0.648313
O O12 0.250000 0.250000 0.643123
O O13 0.184837 0.264026 0.756831
O O14 0.153174 0.000000 0.831162
#
# Coordination Sequence:
#
# PCOD9488216 Si02
#       5
#    16   8  16  16  16
#     4   9  18  32  49  71  99 128 161 202 243 286
#     4  10  20  32  49  73 101 131 162 200 243 286
#     4   8  14  27  49  74  99 128 160 196 240 288
#     4  11  21  33  50  70  95 129 165 201 244 293
#     4   9  18  33  50  72 101 129 162 202 241 286
#
# _framework density 19.838723999999999
#
# number of rings (size 3 to 8) (size 9 to 14) (size 15 to 20)
#    0.000    2.667    0.000    4.000    0.000    4.000 
#    0.000    2.778    0.000   14.000    0.000    6.222 
#    0.000    8.000    0.000    0.000    0.000    0.000 
#
# Total GULP energy -200831.670894 kJ/mol
# GULP energy per Si atom -5578.657525 kJ/mol
# Density = 1.979357 g / cm^3
# Si number density = 19.838724 Si / 1000 Ang^3
#
#
#
# Elastic Constant Matrix: (Units=GPa)
#
#
# Indices 1 2 3 4 5 6 
#
# 1 105.5832 -8.9723 25.6713 0.0000 0.0000 0.0000
# 2 -8.9723 27.4818 -0.9749 0.0000 0.0000 0.0000
# 3 25.6713 -0.9749 101.7975 0.0000 0.0000 0.0000
# 4 0.0000 0.0000 0.0000 8.3261 0.0000 0.0000
# 5 0.0000 0.0000 0.0000 0.0000 -87.1426 0.0000
# 6 0.0000 0.0000 0.0000 0.0000 0.0000 13.1886
#
#
#
# Elastic Compliance Matrix: (Units=1/GPa)
#
#
# Indices 1 2 3 4 5 6 
#
# 1 0.010380 0.003297 -0.002586 0.000000 0.000000 0.000000
# 2 0.003297 0.037447 -0.000473 0.000000 0.000000 0.000000
# 3 -0.002586 -0.000473 0.010471 0.000000 0.000000 0.000000
# 4 0.000000 0.000000 0.000000 0.120104 0.000000 0.000000
# 5 0.000000 0.000000 0.000000 0.000000 -0.011475 0.000000
# 6 0.000000 0.000000 0.000000 0.000000 0.000000 0.075823
#
#
# Mechanical properties :
#
#
# Convention : Reuss Voigt Hill
#
# Bulk Modulus (GPa) = 17.01398 29.59006 23.30202
# Shear Modulus (GPa) = 19.09379 1.48365 10.28872
#
# Velocity S-wave (km/s) = 3.10570 0.86573 2.27979
# Velocity P-wave (km/s) = 4.63199 3.99337 4.32448
#
# Compressibility (1/GPa) = 0.05877519
#
# Stress axis : x y z
#
# Youngs Moduli (GPa) = 96.33745 26.70408 95.50131
#
# Poissons Ratio (x) = -0.08805 0.24698
# Poissons Ratio (y) = -0.31765 0.04516
# Poissons Ratio (z) = 0.24914 0.01263
#
# Static dielectric constant tensor:
#      x y z
#    x 1.688830 0.000000 0.000000 
#    y 0.000000 1.740710 0.000000 
#    z 0.000000 0.000000 1.701090 
# 
# From -- ./inp_files/47479.got.cif
#   From: 2010.05.17/outbox.cif.g08.bks.cpg/sg65_24_cif.got.tgz:47479.got - 2010.06.03 17:01:31.
