data_PCOD9488412
_publ_section_title
;
Structure prediction by ZEFSAII (Michael W. Deem and Ramdas Pophale) SiO2 
 PCOD9488412
Probable space group: C M M M
;
_chemical_formula_sum "Si O2"
_cell_formula_units_Z 104
_cell_length_a 22.987861
_cell_length_b 27.826834
_cell_length_c 7.445597
_cell_angle_alpha 90.000000
_cell_angle_beta 90.000000
_cell_angle_gamma 90.000000
_cell_volume 4762.794962
_symmetry_space_group_name_H-M "C M M M"
_symmetry_group_IT_number 65
_symmetry_cell_setting 'orthorhombic'
loop_
_space_group_symop_operation_xyz
x,y,z
-x,-y,z
x,-y,-z
-x,y,-z
-x,-y,-z
x,y,-z
-x,y,z
x,-y,z
1/2+x,1/2+y,z
1/2-x,1/2-y,z
1/2+x,1/2-y,-z
1/2-x,1/2+y,-z
1/2-x,1/2-y,-z
1/2+x,1/2+y,-z
1/2-x,1/2+y,z
1/2+x,1/2-y,z
loop_
_atom_site_type_symbol
_atom_site_label
_atom_site_fract_x
_atom_site_fract_y
_atom_site_fract_z
Si Si1 0.905209 0.553755 0.795493
Si Si2 0.725541 0.057189 0.702412
Si Si3 0.567587 0.500000 0.719502
Si Si4 0.679450 0.202085 0.719218
Si Si5 0.938121 0.343733 0.294291
Si Si6 0.690751 0.312482 0.281739
Si Si7 0.148418 0.911139 0.280468
O O1 0.913347 0.500000 0.719084
O O2 0.835985 0.564356 0.794938
O O3 0.934269 0.598656 0.702671
O O4 0.925726 0.552992 0.000000
O O5 0.719346 0.077647 0.500000
O O6 0.786479 0.074508 0.778283
O O7 0.732242 0.000000 0.689127
O O8 0.500000 0.500000 0.774812
O O9 0.568279 0.500000 0.500000
O O10 0.602181 0.548424 0.777268
O O11 0.680461 0.200439 0.500000
O O12 0.621907 0.175550 0.785549
O O13 0.676453 0.258097 0.772246
O O14 0.741710 0.180114 0.775148
O O15 0.938731 0.326427 0.500000
O O16 0.000000 0.329661 0.211216
O O17 0.690658 0.312882 0.500000
O O18 0.646892 0.355005 0.226515
O O19 0.147610 0.913134 0.500000
#
# Coordination Sequence:
#
# PCOD9488412 Si02
#       7
#    16  16   8  16  16  16  16
#     4  10  21  34  47  67  95 121 148 186 232 280
#     4   9  15  25  44  68  92 119 154 195 232 269
#     4   9  16  24  32  50  91 137 166 189 224 275
#     4   8  14  26  41  63  88 110 142 190 238 275
#     4  10  20  33  49  67  89 121 159 195 228 266
#     4   8  13  21  39  62  86 113 145 187 236 282
#     4   9  14  22  37  61  89 123 161 192 228 277
#
# _framework density 21.835916999999998
#
# number of rings (size 3 to 8) (size 9 to 14) (size 15 to 20)
#    0.000    3.000    0.769    2.308    0.000    4.000 
#    0.000    2.308    0.000    4.615    0.000    8.615 
#    0.000    1.231    0.000    0.000    0.000    0.000 
#
# Total GULP energy -289928.125955 kJ/mol
# GULP energy per Si atom -5575.540884 kJ/mol
# Density = 2.178622 g / cm^3
# Si number density = 21.835917 Si / 1000 Ang^3
#
#
#
# Elastic Constant Matrix: (Units=GPa)
#
#
# Indices 1 2 3 4 5 6 
#
# 1 127.7415 89.6347 1.6452 0.0000 0.0000 0.0000
# 2 89.6347 138.6817 -0.4886 0.0000 0.0000 0.0000
# 3 1.6452 -0.4886 62.9178 0.0000 0.0000 0.0000
# 4 0.0000 0.0000 0.0000 -52.5988 0.0000 0.0000
# 5 0.0000 0.0000 0.0000 0.0000 27.6305 0.0000
# 6 0.0000 0.0000 0.0000 0.0000 0.0000 16.1845
#
#
#
# Elastic Compliance Matrix: (Units=1/GPa)
#
#
# Indices 1 2 3 4 5 6 
#
# 1 0.014338 -0.009268 -0.000447 0.000000 0.000000 0.000000
# 2 -0.009268 0.013203 0.000345 0.000000 0.000000 0.000000
# 3 -0.000447 0.000345 0.015908 0.000000 0.000000 0.000000
# 4 0.000000 0.000000 0.000000 -0.019012 0.000000 0.000000
# 5 0.000000 0.000000 0.000000 0.000000 0.036192 0.000000
# 6 0.000000 0.000000 0.000000 0.000000 0.000000 0.061788
#
#
# Mechanical properties :
#
#
# Convention : Reuss Voigt Hill
#
# Bulk Modulus (GPa) = 40.47384 56.76929 48.62156
# Shear Modulus (GPa) = 33.46882 14.14654 23.80768
#
# Velocity S-wave (km/s) = 3.91927 2.54806 3.30555
# Velocity P-wave (km/s) = 6.24953 5.89164 6.07322
#
# Compressibility (1/GPa) = 0.02470732
#
# Stress axis : x y z
#
# Youngs Moduli (GPa) = 69.74641 75.74314 62.86095
#
# Poissons Ratio (x) = 0.70202 0.02809
# Poissons Ratio (y) = 0.64644 -0.02168
# Poissons Ratio (z) = 0.03117 -0.02612
#
# Static dielectric constant tensor:
#      x y z
#    x 1.791490 0.000000 0.000000 
#    y 0.000000 1.812910 0.000000 
#    z 0.000000 0.000000 1.851430 
# 
# From -- ./inp_files/15051.got.cif
#   From: 2010.05.17/outbox.cif.g08.bks.cpg/sg65_8_cif.got.tgz:15051.got - 2010.06.03 17:01:31.
