data_PCOD9488293
_publ_section_title
;
Structure prediction by ZEFSAII (Michael W. Deem and Ramdas Pophale) SiO2 
 PCOD9488293
Probable space group: C M M M
;
_chemical_formula_sum "Si O2"
_cell_formula_units_Z 112
_cell_length_a 15.932836
_cell_length_b 14.515474
_cell_length_c 24.895031
_cell_angle_alpha 90.000000
_cell_angle_beta 90.000000
_cell_angle_gamma 90.000000
_cell_volume 5757.540207
_symmetry_space_group_name_H-M "C M M M"
_symmetry_group_IT_number 65
_symmetry_cell_setting 'orthorhombic'
loop_
_space_group_symop_operation_xyz
x,y,z
-x,-y,z
x,-y,-z
-x,y,-z
-x,-y,-z
x,y,-z
-x,y,z
x,-y,z
1/2+x,1/2+y,z
1/2-x,1/2-y,z
1/2+x,1/2-y,-z
1/2-x,1/2+y,-z
1/2-x,1/2-y,-z
1/2+x,1/2+y,-z
1/2-x,1/2+y,z
1/2+x,1/2-y,z
loop_
_atom_site_type_symbol
_atom_site_label
_atom_site_fract_x
_atom_site_fract_y
_atom_site_fract_z
Si Si1 0.097173 0.695848 0.060518
Si Si2 0.723380 0.108382 0.146569
Si Si3 0.287603 0.891989 0.268924
Si Si4 0.720547 0.143699 0.560510
Si Si5 0.143815 0.100301 0.351479
Si Si6 0.094147 0.896355 0.098945
Si Si7 0.907063 0.694480 0.644091
O O1 0.165200 0.660159 0.103330
O O2 0.098507 0.807308 0.061253
O O3 0.000000 0.669105 0.073629
O O4 0.116356 0.663372 0.000000
O O5 0.708359 0.139365 0.207567
O O6 0.823251 0.114670 0.135444
O O7 0.702114 0.000000 0.142783
O O8 0.195550 0.888522 0.295887
O O9 0.346518 0.833098 0.307349
O O10 0.312459 0.000000 0.271138
O O11 0.718531 0.107697 0.500000
O O12 0.750000 0.250000 0.557981
O O13 0.786626 0.098356 0.600998
O O14 0.632069 0.148152 0.590990
O O15 0.094412 0.194513 0.360953
O O16 0.101370 0.000000 0.351007
O O17 0.000000 0.891848 0.124424
O O18 0.100076 0.000000 0.074984
O O19 0.000000 0.661535 0.654414
#
# Coordination Sequence:
#
# PCOD9488293 Si02
#       7
#    16  16  16  16  16  16  16
#     4  10  22  38  55  79 111 145 181 221 265 316
#     4  10  21  37  59  83 106 139 180 222 273 328
#     4   9  19  37  57  75  99 134 177 220 260 309
#     4   8  15  30  51  72  97 135 180 218 253 300
#     4   9  18  33  52  74 103 139 177 215 256 310
#     4   9  19  36  57  82 110 138 173 218 267 323
#     4  10  20  32  50  79 111 140 171 215 269 317
#
# _framework density 19.452750999999999
#
# number of rings (size 3 to 8) (size 9 to 14) (size 15 to 20)
#    0.000    2.714    0.000    1.714    0.000    6.000 
#    0.000    7.143    0.000    2.571    0.000    8.000 
#    0.000    0.000    0.000    0.000    0.000    0.000 
#
# Total GULP energy -311903.932302 kJ/mol
# GULP energy per Si atom -5569.713077 kJ/mol
# Density = 1.940848 g / cm^3
# Si number density = 19.452751 Si / 1000 Ang^3
#
#
#
# Elastic Constant Matrix: (Units=GPa)
#
#
# Indices 1 2 3 4 5 6 
#
# 1 84.5962 19.9010 41.2388 0.0000 0.0000 0.0000
# 2 19.9010 67.4071 23.8973 0.0000 0.0000 0.0000
# 3 41.2388 23.8973 125.9219 0.0000 0.0000 0.0000
# 4 0.0000 0.0000 0.0000 37.2056 0.0000 0.0000
# 5 0.0000 0.0000 0.0000 0.0000 4.7968 0.0000
# 6 0.0000 0.0000 0.0000 0.0000 0.0000 17.6747
#
#
#
# Elastic Compliance Matrix: (Units=1/GPa)
#
#
# Indices 1 2 3 4 5 6 
#
# 1 0.014541 -0.002793 -0.004232 0.000000 0.000000 0.000000
# 2 -0.002793 0.016442 -0.002206 0.000000 0.000000 0.000000
# 3 -0.004232 -0.002206 0.009746 0.000000 0.000000 0.000000
# 4 0.000000 0.000000 0.000000 0.026878 0.000000 0.000000
# 5 0.000000 0.000000 0.000000 0.000000 0.208474 0.000000
# 6 0.000000 0.000000 0.000000 0.000000 0.000000 0.056578
#
#
# Mechanical properties :
#
#
# Convention : Reuss Voigt Hill
#
# Bulk Modulus (GPa) = 44.90803 49.77773 47.34288
# Shear Modulus (GPa) = 13.94536 24.79460 19.36998
#
# Velocity S-wave (km/s) = 2.68037 3.57404 3.15897
# Velocity P-wave (km/s) = 5.71970 6.53271 6.13968
#
# Compressibility (1/GPa) = 0.02226773
#
# Stress axis : x y z
#
# Youngs Moduli (GPa) = 68.77166 60.82096 102.60604
#
# Poissons Ratio (x) = 0.16985 0.43424
# Poissons Ratio (y) = 0.19205 0.22632
# Poissons Ratio (z) = 0.29105 0.13415
#
# Static dielectric constant tensor:
#      x y z
#    x 1.679400 0.000000 0.000000 
#    y 0.000000 1.736990 0.000000 
#    z 0.000000 0.000000 1.660330 
# 
# From -- ./inp_files/69946.got.cif
#   From: 2010.05.17/outbox.cif.g08.bks.cpg/sg65_35_cif.got.tgz:69946.got - 2010.06.03 17:01:31.
