data_PCOD9488729
_publ_section_title
;
Structure prediction by ZEFSAII (Michael W. Deem and Ramdas Pophale) SiO2 
 PCOD9488729
Probable space group: C M M M
;
_chemical_formula_sum "Si O2"
_cell_formula_units_Z 80
_cell_length_a 29.597008
_cell_length_b 8.186002
_cell_length_c 15.139277
_cell_angle_alpha 90.000000
_cell_angle_beta 90.000000
_cell_angle_gamma 90.000000
_cell_volume 3667.961694
_symmetry_space_group_name_H-M "C M M M"
_symmetry_group_IT_number 65
_symmetry_cell_setting 'orthorhombic'
loop_
_space_group_symop_operation_xyz
x,y,z
-x,-y,z
x,-y,-z
-x,y,-z
-x,-y,-z
x,y,-z
-x,y,z
x,-y,z
1/2+x,1/2+y,z
1/2-x,1/2-y,z
1/2+x,1/2-y,-z
1/2-x,1/2+y,-z
1/2-x,1/2-y,-z
1/2+x,1/2+y,-z
1/2-x,1/2+y,z
1/2+x,1/2-y,z
loop_
_atom_site_type_symbol
_atom_site_label
_atom_site_fract_x
_atom_site_fract_y
_atom_site_fract_z
Si Si1 0.103931 0.821719 0.396938
Si Si2 0.896090 0.818293 0.895982
Si Si3 0.704120 0.692317 0.165220
Si Si4 0.447296 0.000000 0.391773
Si Si5 0.299010 0.811867 0.637337
Si Si6 0.552243 0.000000 0.108295
O O1 0.091164 0.829420 0.500000
O O2 0.078141 0.663728 0.360075
O O3 0.157584 0.789179 0.392901
O O4 0.094108 0.000000 0.357039
O O5 0.842722 0.786275 0.885004
O O6 0.923419 0.664699 0.859610
O O7 0.905602 0.000000 0.858966
O O8 0.906283 0.826000 0.000000
O O9 0.708231 0.500000 0.186633
O O10 0.750000 0.750000 0.118420
O O11 0.701397 0.791642 0.256499
O O12 0.500000 0.000000 0.368290
O O13 0.444513 0.000000 0.500000
O O14 0.250000 0.750000 0.606453
O O15 0.305162 0.000000 0.612383
O O16 0.500000 0.000000 0.132469
O O17 0.554993 0.000000 0.000000
#
# Coordination Sequence:
#
# PCOD9488729 Si02
#       6
#    16  16  16   8  16   8
#     4  10  20  35  55  80 109 139 175 219 265 312
#     4   9  19  34  52  77 107 137 172 216 263 310
#     4  10  20  33  51  75 104 140 179 214 258 314
#     4   9  18  34  55  81 111 141 177 219 266 317
#     4  11  21  34  53  76 106 142 180 218 261 316
#     4   9  18  32  53  79 105 137 175 217 266 315
#
# _framework density 21.810479000000001
#
# number of rings (size 3 to 8) (size 9 to 14) (size 15 to 20)
#    0.000    2.200    1.000    3.600    2.800    1.600 
#    0.000    4.000    0.000    2.400    0.000    2.800 
#    0.000    0.000    0.000    0.000    0.000    0.000 
#
# Total GULP energy -223361.523539 kJ/mol
# GULP energy per Si atom -5584.038088 kJ/mol
# Density = 2.176084 g / cm^3
# Si number density = 21.810479 Si / 1000 Ang^3
#
#
#
# Elastic Constant Matrix: (Units=GPa)
#
#
# Indices 1 2 3 4 5 6 
#
# 1 138.3296 108.2517 -5.2179 0.0000 0.0000 0.0000
# 2 108.2517 209.3734 11.3177 0.0000 0.0000 0.0000
# 3 -5.2179 11.3177 41.5605 0.0000 0.0000 0.0000
# 4 0.0000 0.0000 0.0000 -15.6622 0.0000 0.0000
# 5 0.0000 0.0000 0.0000 0.0000 32.8914 0.0000
# 6 0.0000 0.0000 0.0000 0.0000 0.0000 30.5152
#
#
#
# Elastic Compliance Matrix: (Units=1/GPa)
#
#
# Indices 1 2 3 4 5 6 
#
# 1 0.012599 -0.006698 0.003406 0.000000 0.000000 0.000000
# 2 -0.006698 0.008409 -0.003131 0.000000 0.000000 0.000000
# 3 0.003406 -0.003131 0.025341 0.000000 0.000000 0.000000
# 4 0.000000 0.000000 0.000000 -0.063848 0.000000 0.000000
# 5 0.000000 0.000000 0.000000 0.000000 0.030403 0.000000
# 6 0.000000 0.000000 0.000000 0.000000 0.000000 0.032771
#
#
# Mechanical properties :
#
#
# Convention : Reuss Voigt Hill
#
# Bulk Modulus (GPa) = 29.84797 68.66294 49.25546
# Shear Modulus (GPa) = 71.74701 27.87636 49.81169
#
# Velocity S-wave (km/s) = 5.74170 3.57896 4.78414
# Velocity P-wave (km/s) = 7.59414 6.97342 7.29039
#
# Compressibility (1/GPa) = 0.03350312
#
# Stress axis : x y z
#
# Youngs Moduli (GPa) = 79.36825 118.92539 39.46101
#
# Poissons Ratio (x) = 0.79661 -0.13440
# Poissons Ratio (y) = 0.53164 0.12354
# Poissons Ratio (z) = -0.27032 0.37233
#
# Static dielectric constant tensor:
#      x y z
#    x 1.775590 0.000000 0.000000 
#    y 0.000000 1.811820 0.000000 
#    z 0.000000 0.000000 1.824920 
# 
# From -- ./inp_files/57289.got.cif
#   From: 2010.05.17/outbox.cif.g08.bks.cpg/sg65_29_cif.got.tgz:57289.got - 2010.06.03 17:01:31.
