data_PCOD9488771
_publ_section_title
;
Structure prediction by ZEFSAII (Michael W. Deem and Ramdas Pophale) SiO2 
 PCOD9488771
Probable space group: C M M M
;
_chemical_formula_sum "Si O2"
_cell_formula_units_Z 90
_cell_length_a 28.724943
_cell_length_b 8.134388
_cell_length_c 21.823577
_cell_angle_alpha 90.000000
_cell_angle_beta 90.000000
_cell_angle_gamma 90.000000
_cell_volume 5099.293328
_symmetry_space_group_name_H-M "C M M M"
_symmetry_group_IT_number 65
_symmetry_cell_setting 'orthorhombic'
loop_
_space_group_symop_operation_xyz
x,y,z
-x,-y,z
x,-y,-z
-x,y,-z
-x,-y,-z
x,y,-z
-x,y,z
x,-y,z
1/2+x,1/2+y,z
1/2-x,1/2-y,z
1/2+x,1/2-y,-z
1/2-x,1/2+y,-z
1/2-x,1/2-y,-z
1/2+x,1/2+y,-z
1/2-x,1/2+y,z
1/2+x,1/2-y,z
loop_
_atom_site_type_symbol
_atom_site_label
_atom_site_fract_x
_atom_site_fract_y
_atom_site_fract_z
Si Si1 0.552988 0.197801 0.742447
Si Si2 0.361999 0.695777 0.819397
Si Si3 0.612888 0.804467 0.624347
Si Si4 0.198558 0.695891 0.930360
Si Si5 0.927121 0.188264 0.500000
Si Si6 0.000000 0.500000 0.500000
Si Si7 0.196910 0.802820 0.297664
O O1 0.500000 0.258944 0.747536
O O2 0.587221 0.245257 0.797842
O O3 0.577702 0.251626 0.678935
O O4 0.551441 0.000000 0.740108
O O5 0.362466 0.500000 0.818189
O O6 0.341680 0.750296 0.884247
O O7 0.326147 0.754434 0.766535
O O8 0.602226 0.710776 0.562079
O O9 0.664302 0.771159 0.649747
O O10 0.606062 0.000000 0.615785
O O11 0.198595 0.500000 0.932666
O O12 0.250000 0.750000 0.908518
O O13 0.192642 0.760389 0.000000
O O14 0.960625 0.349367 0.500000
O O15 0.946354 0.000000 0.500000
O O16 0.250000 0.750000 0.301783
O O17 0.193772 0.000000 0.300078
#
# Coordination Sequence:
#
# PCOD9488771 Si02
#       7
#    16  16  16  16   8   2  16
#     4   9  19  34  56  79 106 142 179 220 271 323
#     4  10  20  33  51  77 109 141 177 221 267 318
#     4  10  20  37  59  81 114 146 179 228 277 329
#     4  10  20  33  51  76 106 139 175 214 261 318
#     4  12  25  41  62  87 116 150 188 232 281 340
#     4  12  26  44  60  86 116 152 190 228 282 346
#     4  10  20  34  53  80 108 143 186 225 272 325
#
# _framework density 17.649505000000001
#
# number of rings (size 3 to 8) (size 9 to 14) (size 15 to 20)
#    0.000    1.956    0.889    2.800    1.244    5.689 
#    0.000    0.444    0.000    0.533    0.000    3.733 
#    0.000    0.000    0.000    0.000    0.000    0.000 
#
# Total GULP energy -250783.564245 kJ/mol
# GULP energy per Si atom -5572.968094 kJ/mol
# Density = 1.760933 g / cm^3
# Si number density = 17.649505 Si / 1000 Ang^3
#
#
#
# Elastic Constant Matrix: (Units=GPa)
#
#
# Indices 1 2 3 4 5 6 
#
# 1 151.3537 22.0838 64.0809 0.0000 0.0000 0.0000
# 2 22.0838 59.8879 16.9189 0.0000 0.0000 0.0000
# 3 64.0809 16.9189 95.6912 0.0000 0.0000 0.0000
# 4 0.0000 0.0000 0.0000 17.3179 0.0000 0.0000
# 5 0.0000 0.0000 0.0000 0.0000 39.5554 0.0000
# 6 0.0000 0.0000 0.0000 0.0000 0.0000 24.8235
#
#
#
# Elastic Compliance Matrix: (Units=1/GPa)
#
#
# Indices 1 2 3 4 5 6 
#
# 1 0.009398 -0.001776 -0.005979 0.000000 0.000000 0.000000
# 2 -0.001776 0.017911 -0.001977 0.000000 0.000000 0.000000
# 3 -0.005979 -0.001977 0.014804 0.000000 0.000000 0.000000
# 4 0.000000 0.000000 0.000000 0.057744 0.000000 0.000000
# 5 0.000000 0.000000 0.000000 0.000000 0.025281 0.000000
# 6 0.000000 0.000000 0.000000 0.000000 0.000000 0.040284
#
#
# Mechanical properties :
#
#
# Convention : Reuss Voigt Hill
#
# Bulk Modulus (GPa) = 44.15516 57.01111 50.58314
# Shear Modulus (GPa) = 25.98251 29.92932 27.95591
#
# Velocity S-wave (km/s) = 3.84101 4.12243 3.98420
# Velocity P-wave (km/s) = 6.68904 7.41830 7.06309
#
# Compressibility (1/GPa) = 0.02264741
#
# Stress axis : x y z
#
# Youngs Moduli (GPa) = 106.40842 55.83013 67.54929
#
# Poissons Ratio (x) = 0.09917 0.40390
# Poissons Ratio (y) = 0.18901 0.13357
# Poissons Ratio (z) = 0.63625 0.11040
#
# Static dielectric constant tensor:
#      x y z
#    x 1.589080 0.000000 0.000000 
#    y 0.000000 1.619230 0.000000 
#    z 0.000000 0.000000 1.610840 
# 
# From -- ./inp_files/65249.got.cif
#   From: 2010.05.17/outbox.cif.g08.bks.cpg/sg65_33_cif.got.tgz:65249.got - 2010.06.03 17:01:31.
