data_PCOD9488709
_publ_section_title
;
Structure prediction by ZEFSAII (Michael W. Deem and Ramdas Pophale) SiO2 
 PCOD9488709
Probable space group: C M M M
;
_chemical_formula_sum "Si O2"
_cell_formula_units_Z 88
_cell_length_a 18.341008
_cell_length_b 32.022091
_cell_length_c 8.008022
_cell_angle_alpha 90.000000
_cell_angle_beta 90.000000
_cell_angle_gamma 90.000000
_cell_volume 4703.250878
_symmetry_space_group_name_H-M "C M M M"
_symmetry_group_IT_number 65
_symmetry_cell_setting 'orthorhombic'
loop_
_space_group_symop_operation_xyz
x,y,z
-x,-y,z
x,-y,-z
-x,y,-z
-x,-y,-z
x,y,-z
-x,y,z
x,-y,z
1/2+x,1/2+y,z
1/2-x,1/2-y,z
1/2+x,1/2-y,-z
1/2-x,1/2+y,-z
1/2-x,1/2-y,-z
1/2+x,1/2+y,-z
1/2-x,1/2+y,z
1/2+x,1/2-y,z
loop_
_atom_site_type_symbol
_atom_site_label
_atom_site_fract_x
_atom_site_fract_y
_atom_site_fract_z
Si Si1 0.693341 0.619529 0.806952
Si Si2 0.652936 0.914207 0.701054
Si Si3 0.916312 0.046847 0.299524
Si Si4 0.417026 0.000000 0.704298
Si Si5 0.736892 0.796375 0.199723
Si Si6 0.580114 0.170878 0.299543
O O1 0.771735 0.597655 0.786657
O O2 0.634193 0.586510 0.740855
O O3 0.711087 0.666008 0.733079
O O4 0.675137 0.625704 0.000000
O O5 0.665559 0.914852 0.500000
O O6 0.623918 0.958525 0.756928
O O7 0.593900 0.878154 0.733331
O O8 0.918175 0.044709 0.500000
O O9 0.000000 0.052699 0.240560
O O10 0.891606 0.000000 0.241434
O O11 0.500000 0.000000 0.760954
O O12 0.417999 0.000000 0.500000
O O13 0.750000 0.750000 0.267862
O O14 0.652213 0.807430 0.229341
O O15 0.748709 0.795488 0.000000
O O16 0.581201 0.176493 0.500000
O O17 0.500000 0.183844 0.237735
#
# Coordination Sequence:
#
# PCOD9488709 Si02
#       6
#    16  16  16   8  16  16
#     4  10  20  33  51  75 100 128 164 207 251 296
#     4   9  17  29  46  68  96 131 165 198 235 280
#     4   9  19  36  56  76 100 133 171 208 250 307
#     4   9  16  26  43  67  92 123 164 199 225 262
#     4   9  19  36  54  72  98 133 171 208 249 303
#     4   9  17  30  49  73  99 126 161 206 250 290
#
# _framework density 18.710463000000001
#
# number of rings (size 3 to 8) (size 9 to 14) (size 15 to 20)
#    0.000    2.818    0.000    1.636    1.273    4.364 
#    0.000    1.818    0.000    7.636    0.000    0.000 
#    0.000    0.000    0.000    0.000    0.000    0.000 
#
# Total GULP energy -245019.250226 kJ/mol
# GULP energy per Si atom -5568.619323 kJ/mol
# Density = 1.866788 g / cm^3
# Si number density = 18.710463 Si / 1000 Ang^3
#
#
#
# Elastic Constant Matrix: (Units=GPa)
#
#
# Indices 1 2 3 4 5 6 
#
# 1 83.5813 67.9992 8.0961 0.0000 0.0000 0.0000
# 2 67.9992 172.2440 14.7597 0.0000 0.0000 0.0000
# 3 8.0961 14.7597 11.4825 0.0000 0.0000 0.0000
# 4 0.0000 0.0000 0.0000 38.0518 0.0000 0.0000
# 5 0.0000 0.0000 0.0000 0.0000 53.7423 0.0000
# 6 0.0000 0.0000 0.0000 0.0000 0.0000 16.8894
#
#
#
# Elastic Compliance Matrix: (Units=1/GPa)
#
#
# Indices 1 2 3 4 5 6 
#
# 1 0.017783 -0.006682 -0.003949 0.000000 0.000000 0.000000
# 2 -0.006682 0.009035 -0.006902 0.000000 0.000000 0.000000
# 3 -0.003949 -0.006902 0.098746 0.000000 0.000000 0.000000
# 4 0.000000 0.000000 0.000000 0.026280 0.000000 0.000000
# 5 0.000000 0.000000 0.000000 0.000000 0.018607 0.000000
# 6 0.000000 0.000000 0.000000 0.000000 0.000000 0.059209
#
#
# Mechanical properties :
#
#
# Convention : Reuss Voigt Hill
#
# Bulk Modulus (GPa) = 11.05017 49.89087 30.47052
# Shear Modulus (GPa) = 16.95525 33.50023 25.22774
#
# Velocity S-wave (km/s) = 3.01357 4.23597 3.67593
# Velocity P-wave (km/s) = 4.24588 7.11668 5.85980
#
# Compressibility (1/GPa) = 0.09049633
#
# Stress axis : x y z
#
# Youngs Moduli (GPa) = 56.23229 110.67820 10.12701
#
# Poissons Ratio (x) = 0.73957 0.04000
# Poissons Ratio (y) = 0.37575 0.06990
# Poissons Ratio (z) = 0.22209 0.76395
#
# Static dielectric constant tensor:
#      x y z
#    x 1.622910 0.000000 0.000000 
#    y 0.000000 1.677940 0.000000 
#    z 0.000000 0.000000 1.683960 
# 
# From -- ./inp_files/10026.got.cif
#   From: 2010.05.17/outbox.cif.g08.bks.cpg/sg65_6_cif.got.tgz:10026.got - 2010.06.03 17:01:31.
