data_PCOD9488666
_publ_section_title
;
Structure prediction by ZEFSAII (Michael W. Deem and Ramdas Pophale) SiO2 
 PCOD9488666
Probable space group: C M M M
;
_chemical_formula_sum "Si O2"
_cell_formula_units_Z 104
_cell_length_a 17.430768
_cell_length_b 21.957040
_cell_length_c 16.123410
_cell_angle_alpha 90.000000
_cell_angle_beta 90.000000
_cell_angle_gamma 90.000000
_cell_volume 6170.881594
_symmetry_space_group_name_H-M "C M M M"
_symmetry_group_IT_number 65
_symmetry_cell_setting 'orthorhombic'
loop_
_space_group_symop_operation_xyz
x,y,z
-x,-y,z
x,-y,-z
-x,y,-z
-x,-y,-z
x,y,-z
-x,y,z
x,-y,z
1/2+x,1/2+y,z
1/2-x,1/2-y,z
1/2+x,1/2-y,-z
1/2-x,1/2+y,-z
1/2-x,1/2-y,-z
1/2+x,1/2+y,-z
1/2-x,1/2+y,z
1/2+x,1/2-y,z
loop_
_atom_site_type_symbol
_atom_site_label
_atom_site_fract_x
_atom_site_fract_y
_atom_site_fract_z
Si Si1 0.206741 0.569298 0.596147
Si Si2 0.408865 0.106320 0.088728
Si Si3 0.909146 0.246240 0.909455
Si Si4 0.000000 0.931909 0.600150
Si Si5 0.092593 0.613552 0.730415
Si Si6 0.644446 0.651005 0.598765
Si Si7 0.158252 0.750571 0.736584
O O1 0.184194 0.577384 0.500000
O O2 0.235985 0.500000 0.605055
O O3 0.135688 0.580010 0.656534
O O4 0.274708 0.617054 0.613743
O O5 0.500000 0.093425 0.087218
O O6 0.400854 0.180012 0.089525
O O7 0.382014 0.086637 0.179664
O O8 0.376721 0.084153 0.000000
O O9 0.869731 0.223720 0.825643
O O10 0.000000 0.234076 0.904509
O O11 0.880830 0.224206 0.000000
O O12 0.076153 0.894959 0.621211
O O13 0.000000 0.936046 0.500000
O O14 0.000000 0.000000 0.634264
O O15 0.120687 0.683824 0.727832
O O16 0.000000 0.611325 0.725282
O O17 0.639856 0.665212 0.500000
O O18 0.636376 0.708955 0.657574
O O19 0.250000 0.750000 0.738890
#
# Coordination Sequence:
#
# PCOD9488666 Si02
#       7
#    16  16  16   8  16  16  16
#     4  10  21  38  56  71  94 132 175 217 256 293
#     4   7  11  23  44  67  93 127 162 196 240 289
#     4   8  15  28  46  69 100 136 168 202 244 294
#     4   9  18  34  56  78  97 125 172 222 259 298
#     4  10  20  33  50  76 105 135 169 207 251 302
#     4  10  21  35  52  76 104 135 168 208 259 307
#     4  11  20  31  49  75 108 140 169 203 253 311
#
# _framework density 16.853345999999998
#
# number of rings (size 3 to 8) (size 9 to 14) (size 15 to 20)
#    0.000    2.692    1.538    2.769    2.154    3.692 
#    0.000    0.769    0.000    0.462    0.000    2.154 
#    0.000    2.462    0.000    0.000    0.000    0.000 
#
# Total GULP energy -289499.781612 kJ/mol
# GULP energy per Si atom -5567.303493 kJ/mol
# Density = 1.681499 g / cm^3
# Si number density = 16.853346 Si / 1000 Ang^3
#
#
#
# Elastic Constant Matrix: (Units=GPa)
#
#
# Indices 1 2 3 4 5 6 
#
# 1 53.5540 0.1860 27.1568 0.0000 0.0000 0.0000
# 2 0.1860 23.1298 24.9730 0.0000 0.0000 0.0000
# 3 27.1568 24.9730 97.0731 0.0000 0.0000 0.0000
# 4 0.0000 0.0000 0.0000 -14.2391 0.0000 0.0000
# 5 0.0000 0.0000 0.0000 0.0000 19.7160 0.0000
# 6 0.0000 0.0000 0.0000 0.0000 0.0000 4.6937
#
#
#
# Elastic Compliance Matrix: (Units=1/GPa)
#
#
# Indices 1 2 3 4 5 6 
#
# 1 0.023154 0.009426 -0.008902 0.000000 0.000000 0.000000
# 2 0.009426 0.063698 -0.019024 0.000000 0.000000 0.000000
# 3 -0.008902 -0.019024 0.017686 0.000000 0.000000 0.000000
# 4 0.000000 0.000000 0.000000 -0.070229 0.000000 0.000000
# 5 0.000000 0.000000 0.000000 0.000000 0.050720 0.000000
# 6 0.000000 0.000000 0.000000 0.000000 0.000000 0.213053
#
#
# Mechanical properties :
#
#
# Convention : Reuss Voigt Hill
#
# Bulk Modulus (GPa) = 14.80666 30.93208 22.86937
# Shear Modulus (GPa) = 13.98225 10.13019 12.05622
#
# Velocity S-wave (km/s) = 2.88348 2.45435 2.67752
# Velocity P-wave (km/s) = 4.45988 5.14055 4.81227
#
# Compressibility (1/GPa) = 0.06753719
#
# Stress axis : x y z
#
# Youngs Moduli (GPa) = 43.18853 15.69905 56.54170
#
# Poissons Ratio (x) = -0.14797 0.50335
# Poissons Ratio (y) = -0.40707 1.07564
# Poissons Ratio (z) = 0.38448 0.29866
#
# Static dielectric constant tensor:
#      x y z
#    x 1.558260 0.000000 0.000000 
#    y 0.000000 1.573320 0.000000 
#    z 0.000000 0.000000 1.610740 
# 
# From -- ./inp_files/43072.got.cif
#   From: 2010.05.17/outbox.cif.g08.bks.cpg/sg65_22_cif.got.tgz:43072.got - 2010.06.03 17:01:31.
