data_PCOD9488064
_publ_section_title
;
Structure prediction by ZEFSAII (Michael W. Deem and Ramdas Pophale) SiO2 
 PCOD9488064
Probable space group: C M M M
;
_chemical_formula_sum "Si O2"
_cell_formula_units_Z 80
_cell_length_a 28.093962
_cell_length_b 8.884061
_cell_length_c 19.252217
_cell_angle_alpha 90.000000
_cell_angle_beta 90.000000
_cell_angle_gamma 90.000000
_cell_volume 4805.131426
_symmetry_space_group_name_H-M "C M M M"
_symmetry_group_IT_number 65
_symmetry_cell_setting 'orthorhombic'
loop_
_space_group_symop_operation_xyz
x,y,z
-x,-y,z
x,-y,-z
-x,y,-z
-x,-y,-z
x,y,-z
-x,y,z
x,-y,z
1/2+x,1/2+y,z
1/2-x,1/2-y,z
1/2+x,1/2-y,-z
1/2-x,1/2+y,-z
1/2-x,1/2-y,-z
1/2+x,1/2+y,-z
1/2-x,1/2+y,z
1/2+x,1/2-y,z
loop_
_atom_site_type_symbol
_atom_site_label
_atom_site_fract_x
_atom_site_fract_y
_atom_site_fract_z
Si Si1 0.945493 0.319553 0.153587
Si Si2 0.102157 0.180161 0.287496
Si Si3 0.856718 0.181659 0.078384
Si Si4 0.800659 0.180374 0.214228
Si Si5 0.055992 0.319395 0.579696
O O1 0.941312 0.500000 0.154304
O O2 0.931246 0.255711 0.229172
O O3 0.907289 0.250633 0.100611
O O4 0.000000 0.279740 0.137079
O O5 0.156268 0.220691 0.266187
O O6 0.086959 0.237136 0.362723
O O7 0.097580 0.000000 0.282311
O O8 0.819013 0.228000 0.137486
O O9 0.860561 0.000000 0.081789
O O10 0.843774 0.224730 0.000000
O O11 0.750000 0.250000 0.231129
O O12 0.796429 0.000000 0.214220
O O13 0.067941 0.279604 0.500000
O O14 0.061044 0.500000 0.586825
O O15 0.000000 0.284324 0.590501
#
# Coordination Sequence:
#
# PCOD9488064 Si02
#       5
#    16  16  16  16  16
#     4  10  20  32  47  69  97 129 165 202 238 281
#     4  10  20  33  50  73 100 128 162 203 241 283
#     4   9  19  35  51  69  96 126 157 197 245 295
#     4   9  19  34  51  72  95 121 157 201 247 292
#     4   9  18  32  50  75 107 138 165 194 231 277
#
# _framework density 16.648868
#
# number of rings (size 3 to 8) (size 9 to 14) (size 15 to 20)
#    0.000    2.600    0.000    3.600    0.000   10.000 
#    0.000    3.000    0.000    0.600    0.000    0.000 
#    0.000    0.000    0.000    0.000    0.000    0.000 
#
# Total GULP energy -223091.945711 kJ/mol
# GULP energy per Si atom -5577.298643 kJ/mol
# Density = 1.661097 g / cm^3
# Si number density = 16.648868 Si / 1000 Ang^3
#
#
#
# Elastic Constant Matrix: (Units=GPa)
#
#
# Indices 1 2 3 4 5 6 
#
# 1 66.5651 16.4127 29.0431 0.0000 0.0000 0.0000
# 2 16.4127 15.1044 20.8300 0.0000 0.0000 0.0000
# 3 29.0431 20.8300 99.9285 0.0000 0.0000 0.0000
# 4 0.0000 0.0000 0.0000 22.7470 0.0000 0.0000
# 5 0.0000 0.0000 0.0000 0.0000 8.8462 0.0000
# 6 0.0000 0.0000 0.0000 0.0000 0.0000 29.6724
#
#
#
# Elastic Compliance Matrix: (Units=1/GPa)
#
#
# Indices 1 2 3 4 5 6 
#
# 1 0.020767 -0.019988 -0.001869 0.000000 0.000000 0.000000
# 2 -0.019988 0.112154 -0.017569 0.000000 0.000000 0.000000
# 3 -0.001869 -0.017569 0.014213 0.000000 0.000000 0.000000
# 4 0.000000 0.000000 0.000000 0.043962 0.000000 0.000000
# 5 0.000000 0.000000 0.000000 0.000000 0.113043 0.000000
# 6 0.000000 0.000000 0.000000 0.000000 0.000000 0.033701
#
#
# Mechanical properties :
#
#
# Convention : Reuss Voigt Hill
#
# Bulk Modulus (GPa) = 14.64536 34.90775 24.77656
# Shear Modulus (GPa) = 11.37780 19.94059 15.65920
#
# Velocity S-wave (km/s) = 2.61702 3.46456 3.07018
# Velocity P-wave (km/s) = 4.23644 6.08414 5.24234
#
# Compressibility (1/GPa) = 0.06828099
#
# Stress axis : x y z
#
# Youngs Moduli (GPa) = 48.15390 8.91633 70.35963
#
# Poissons Ratio (x) = 0.17822 0.13152
# Poissons Ratio (y) = 0.96249 1.23616
# Poissons Ratio (z) = 0.09001 0.15665
#
# Static dielectric constant tensor:
#      x y z
#    x 1.539820 0.000000 0.000000 
#    y 0.000000 1.559060 0.000000 
#    z 0.000000 0.000000 1.559570 
# 
# From -- ./inp_files/49840.got.cif
#   From: 2010.05.17/outbox.cif.g08.bks.cpg/sg65_25_cif.got.tgz:49840.got - 2010.06.03 17:01:31.
