data_PCOD9488166
_publ_section_title
;
Structure prediction by ZEFSAII (Michael W. Deem and Ramdas Pophale) SiO2 
 PCOD9488166
Probable space group: C M M M
;
_chemical_formula_sum "Si O2"
_cell_formula_units_Z 120
_cell_length_a 9.321480
_cell_length_b 28.534368
_cell_length_c 26.563328
_cell_angle_alpha 90.000000
_cell_angle_beta 90.000000
_cell_angle_gamma 90.000000
_cell_volume 7065.381469
_symmetry_space_group_name_H-M "C M M M"
_symmetry_group_IT_number 65
_symmetry_cell_setting 'orthorhombic'
loop_
_space_group_symop_operation_xyz
x,y,z
-x,-y,z
x,-y,-z
-x,y,-z
-x,-y,-z
x,y,-z
-x,y,z
x,-y,z
1/2+x,1/2+y,z
1/2-x,1/2-y,z
1/2+x,1/2-y,-z
1/2-x,1/2+y,-z
1/2-x,1/2-y,-z
1/2+x,1/2+y,-z
1/2-x,1/2+y,z
1/2+x,1/2-y,z
loop_
_atom_site_type_symbol
_atom_site_label
_atom_site_fract_x
_atom_site_fract_y
_atom_site_fract_z
Si Si1 0.665978 0.944185 0.500000
Si Si2 0.832844 0.120073 0.698454
Si Si3 0.832589 0.555397 0.231223
Si Si4 0.325646 0.553179 0.057966
Si Si5 0.668164 0.383878 0.421806
Si Si6 0.671867 0.699921 0.220971
Si Si7 0.827088 0.884525 0.850722
Si Si8 0.659193 0.208745 0.441237
O O1 0.500000 0.927120 0.500000
O O2 0.748683 0.925002 0.549176
O O3 0.665499 0.000000 0.500000
O O4 0.728099 0.080631 0.719581
O O5 0.820990 0.119300 0.638519
O O6 0.798767 0.168252 0.728851
O O7 0.000000 0.109724 0.711419
O O8 0.815657 0.500000 0.233881
O O9 0.738505 0.577413 0.186963
O O10 0.000000 0.566388 0.223660
O O11 0.500000 0.552714 0.058257
O O12 0.281092 0.500000 0.074119
O O13 0.281510 0.595725 0.094584
O O14 0.280098 0.559654 0.000000
O O15 0.500000 0.385190 0.434926
O O16 0.746100 0.337241 0.440116
O O17 0.500000 0.707261 0.218863
O O18 0.750000 0.750000 0.221129
O O19 0.713607 0.666025 0.173450
O O20 0.000000 0.885674 0.848965
O O21 0.640144 0.220897 0.500000
O O22 0.500000 0.202386 0.419425
O O23 0.750000 0.250000 0.415959
#
# Coordination Sequence:
#
# PCOD9488166 Si02
#       8
#     8  16  16  16  16  16  16  16
#     4  11  25  43  60  79 106 141 177 209 245 297
#     4   9  21  38  54  76 102 130 166 207 253 306
#     4  10  20  32  48  73 102 131 165 205 250 303
#     4   8  13  22  41  72 104 132 169 218 266 308
#     4  11  22  38  60  82 106 133 167 213 259 305
#     4   9  18  33  51  72  99 130 168 209 254 306
#     4   9  17  30  49  72  99 134 173 213 258 308
#     4  10  20  34  54  79 107 135 164 197 242 296
#
# _framework density 16.984220000000001
#
# number of rings (size 3 to 8) (size 9 to 14) (size 15 to 20)
#    0.000    2.467    0.667    3.000    0.000    6.933 
#    0.000    4.000    0.000    0.800    0.000    1.867 
#    0.000    0.000    0.000    0.000    0.000    0.267 
#
# Total GULP energy -334046.332451 kJ/mol
# GULP energy per Si atom -5567.438874 kJ/mol
# Density = 1.694556 g / cm^3
# Si number density = 16.984220 Si / 1000 Ang^3
#
#
#
# Elastic Constant Matrix: (Units=GPa)
#
#
# Indices 1 2 3 4 5 6 
#
# 1 60.9994 43.1845 25.8051 0.0000 0.0000 0.0000
# 2 43.1845 95.4302 39.7384 0.0000 0.0000 0.0000
# 3 25.8051 39.7384 81.3176 0.0000 0.0000 0.0000
# 4 0.0000 0.0000 0.0000 44.4434 0.0000 0.0000
# 5 0.0000 0.0000 0.0000 0.0000 -2.4960 0.0000
# 6 0.0000 0.0000 0.0000 0.0000 0.0000 28.1260
#
#
#
# Elastic Compliance Matrix: (Units=1/GPa)
#
#
# Indices 1 2 3 4 5 6 
#
# 1 0.024684 -0.009929 -0.002981 0.000000 0.000000 0.000000
# 2 -0.009929 0.017150 -0.005230 0.000000 0.000000 0.000000
# 3 -0.002981 -0.005230 0.015799 0.000000 0.000000 0.000000
# 4 0.000000 0.000000 0.000000 0.022501 0.000000 0.000000
# 5 0.000000 0.000000 0.000000 0.000000 -0.400646 0.000000
# 6 0.000000 0.000000 0.000000 0.000000 0.000000 0.035554
#
#
# Mechanical properties :
#
#
# Convention : Reuss Voigt Hill
#
# Bulk Modulus (GPa) = 46.83146 50.57812 48.70479
# Shear Modulus (GPa) = -20.69865 22.61596 0.95866
#
# Velocity S-wave (km/s) = -3.49477 3.65305 0.75211
# Velocity P-wave (km/s) = 3.36880 6.90197 5.43074
#
# Compressibility (1/GPa) = 0.02135317
#
# Stress axis : x y z
#
# Youngs Moduli (GPa) = 40.51258 58.31028 63.29393
#
# Poissons Ratio (x) = 0.57894 0.18869
# Poissons Ratio (y) = 0.40223 0.33103
# Poissons Ratio (z) = 0.12077 0.30496
#
# Static dielectric constant tensor:
#      x y z
#    x 1.589910 0.000000 0.000000 
#    y 0.000000 1.576660 0.000000 
#    z 0.000000 0.000000 1.633450 
# 
# From -- ./inp_files/74011.got.cif
#   From: 2010.05.17/outbox.cif.g08.bks.cpg/sg65_38_cif.got.tgz:74011.got - 2010.06.03 17:01:31.
