data_PCOD9488097
_publ_section_title
;
Structure prediction by ZEFSAII (Michael W. Deem and Ramdas Pophale) SiO2 
 PCOD9488097
Probable space group: C M M M
;
_chemical_formula_sum "Si O2"
_cell_formula_units_Z 80
_cell_length_a 14.145031
_cell_length_b 28.705961
_cell_length_c 12.056912
_cell_angle_alpha 90.000000
_cell_angle_beta 90.000000
_cell_angle_gamma 90.000000
_cell_volume 4895.669429
_symmetry_space_group_name_H-M "C M M M"
_symmetry_group_IT_number 65
_symmetry_cell_setting 'orthorhombic'
loop_
_space_group_symop_operation_xyz
x,y,z
-x,-y,z
x,-y,-z
-x,y,-z
-x,-y,-z
x,y,-z
-x,y,z
x,-y,z
1/2+x,1/2+y,z
1/2-x,1/2-y,z
1/2+x,1/2-y,-z
1/2-x,1/2+y,-z
1/2-x,1/2-y,-z
1/2+x,1/2+y,-z
1/2-x,1/2+y,z
1/2+x,1/2-y,z
loop_
_atom_site_type_symbol
_atom_site_label
_atom_site_fract_x
_atom_site_fract_y
_atom_site_fract_z
Si Si1 0.615559 0.659455 0.000000
Si Si2 0.106057 0.682029 0.225570
Si Si3 0.357134 0.731686 0.625676
Si Si4 0.386939 0.447055 0.368758
Si Si5 0.306439 0.359778 0.240905
Si Si6 0.886330 0.266994 0.000000
O O1 0.658461 0.639159 0.886410
O O2 0.500000 0.656037 0.000000
O O3 0.645520 0.713935 0.000000
O O4 0.097463 0.724822 0.311289
O O5 0.193647 0.648768 0.254251
O O6 0.000000 0.661562 0.213195
O O7 0.138930 0.705784 0.110612
O O8 0.390815 0.723419 0.500000
O O9 0.250000 0.750000 0.618357
O O10 0.356711 0.684677 0.698566
O O11 0.368445 0.441388 0.500000
O O12 0.500000 0.442827 0.353206
O O13 0.359979 0.500000 0.337515
O O14 0.336246 0.406969 0.300851
O O15 0.000000 0.264684 0.000000
#
# Coordination Sequence:
#
# PCOD9488097 Si02
#       6
#     8  16  16  16  16   8
#     4  11  21  31  49  77 104 133 172 213 252 295
#     4  10  20  32  47  71 103 139 174 206 240 287
#     4   9  18  30  44  66  96 130 168 207 246 288
#     4   9  19  37  59  79  98 124 163 211 261 313
#     4  11  20  32  53  74 100 134 169 207 251 301
#     4   9  17  31  47  66 100 141 177 205 235 281
#
# _framework density 16.340973000000002
#
# number of rings (size 3 to 8) (size 9 to 14) (size 15 to 20)
#    0.000    2.200    2.000    2.400    0.000    2.800 
#    0.000    0.500    0.000    2.400    0.000    1.400 
#    0.000    4.000    0.000    0.000    0.000    0.000 
#
# Total GULP energy -222993.303887 kJ/mol
# GULP energy per Si atom -5574.832597 kJ/mol
# Density = 1.630378 g / cm^3
# Si number density = 16.340973 Si / 1000 Ang^3
#
#
#
# Elastic Constant Matrix: (Units=GPa)
#
#
# Indices 1 2 3 4 5 6 
#
# 1 97.8392 52.4182 39.3271 0.0000 0.0000 0.0000
# 2 52.4182 123.5266 61.9045 0.0000 0.0000 0.0000
# 3 39.3271 61.9045 111.5351 0.0000 0.0000 0.0000
# 4 0.0000 0.0000 0.0000 12.3307 0.0000 0.0000
# 5 0.0000 0.0000 0.0000 0.0000 21.8591 0.0000
# 6 0.0000 0.0000 0.0000 0.0000 0.0000 24.4850
#
#
#
# Elastic Compliance Matrix: (Units=1/GPa)
#
#
# Indices 1 2 3 4 5 6 
#
# 1 0.013610 -0.004669 -0.002207 0.000000 0.000000 0.000000
# 2 -0.004669 0.012817 -0.005467 0.000000 0.000000 0.000000
# 3 -0.002207 -0.005467 0.012778 0.000000 0.000000 0.000000
# 4 0.000000 0.000000 0.000000 0.081099 0.000000 0.000000
# 5 0.000000 0.000000 0.000000 0.000000 0.045748 0.000000
# 6 0.000000 0.000000 0.000000 0.000000 0.000000 0.040841
#
#
# Mechanical properties :
#
#
# Convention : Reuss Voigt Hill
#
# Bulk Modulus (GPa) = 68.88193 71.13339 70.00766
# Shear Modulus (GPa) = 21.14895 23.68502 22.41698
#
# Velocity S-wave (km/s) = 3.60144 3.81126 3.70784
# Velocity P-wave (km/s) = 7.71610 7.93680 7.82723
#
# Compressibility (1/GPa) = 0.01451760
#
# Stress axis : x y z
#
# Youngs Moduli (GPa) = 73.47783 78.02416 78.25648
#
# Poissons Ratio (x) = 0.36429 0.17274
# Poissons Ratio (y) = 0.34307 0.42784
# Poissons Ratio (z) = 0.16219 0.42657
#
# Static dielectric constant tensor:
#      x y z
#    x 1.598230 0.000000 0.000000 
#    y 0.000000 1.507290 0.000000 
#    z 0.000000 0.000000 1.580630 
# 
# From -- ./inp_files/24660.got.cif
#   From: 2010.05.17/outbox.cif.g08.bks.cpg/sg65_13_cif.got.tgz:24660.got - 2010.06.03 17:01:31.
