data_PCOD9488380
_publ_section_title
;
Structure prediction by ZEFSAII (Michael W. Deem and Ramdas Pophale) SiO2 
 PCOD9488380
Probable space group: C M M M
;
_chemical_formula_sum "Si O2"
_cell_formula_units_Z 80
_cell_length_a 19.126151
_cell_length_b 14.443197
_cell_length_c 14.105644
_cell_angle_alpha 90.000000
_cell_angle_beta 90.000000
_cell_angle_gamma 90.000000
_cell_volume 3896.582125
_symmetry_space_group_name_H-M "C M M M"
_symmetry_group_IT_number 65
_symmetry_cell_setting 'orthorhombic'
loop_
_space_group_symop_operation_xyz
x,y,z
-x,-y,z
x,-y,-z
-x,y,-z
-x,-y,-z
x,y,-z
-x,y,z
x,-y,z
1/2+x,1/2+y,z
1/2-x,1/2-y,z
1/2+x,1/2-y,-z
1/2-x,1/2+y,-z
1/2-x,1/2-y,-z
1/2+x,1/2+y,-z
1/2-x,1/2+y,z
1/2+x,1/2-y,z
loop_
_atom_site_type_symbol
_atom_site_label
_atom_site_fract_x
_atom_site_fract_y
_atom_site_fract_z
Si Si1 0.865160 0.395065 0.216840
Si Si2 0.273635 0.355726 0.893394
Si Si3 0.500000 0.386666 0.389224
Si Si4 0.500000 0.886017 0.108474
Si Si5 0.785042 0.613760 0.393288
Si Si6 0.642841 0.388041 0.290659
O O1 0.887151 0.500000 0.239487
O O2 0.795821 0.400752 0.152050
O O3 0.840002 0.351373 0.315165
O O4 0.930140 0.353222 0.161380
O O5 0.250000 0.250000 0.899226
O O6 0.335649 0.363441 0.816997
O O7 0.289335 0.388643 0.000000
O O8 0.500000 0.500000 0.389692
O O9 0.500000 0.358350 0.500000
O O10 0.569540 0.355942 0.333524
O O11 0.500000 0.000000 0.105741
O O12 0.500000 0.855320 0.000000
O O13 0.798362 0.643625 0.500000
O O14 0.786676 0.500000 0.391469
O O15 0.708190 0.640620 0.356707
O O16 0.641441 0.500000 0.293160
#
# Coordination Sequence:
#
# PCOD9488380 Si02
#       6
#    16  16   8   8  16  16
#     4   9  17  29  47  69  90 115 149 188 230 275
#     4  10  20  33  48  67  92 123 159 197 237 281
#     4   9  16  28  50  79 105 127 157 198 240 284
#     4   9  16  26  42  65  89 111 143 187 226 261
#     4   8  13  23  41  65  91 117 146 181 220 264
#     4   9  17  29  48  73  97 124 159 196 236 282
#
# _framework density 20.530812999999998
#
# number of rings (size 3 to 8) (size 9 to 14) (size 15 to 20)
#    0.000    3.000    0.000    3.000    0.000    4.800 
#    0.000    2.000    0.000   22.200    0.000    0.000 
#    0.000    0.000    0.000    0.000    0.000    0.000 
#
# Total GULP energy -223103.926563 kJ/mol
# GULP energy per Si atom -5577.598164 kJ/mol
# Density = 2.048408 g / cm^3
# Si number density = 20.530813 Si / 1000 Ang^3
#
#
#
# Elastic Constant Matrix: (Units=GPa)
#
#
# Indices 1 2 3 4 5 6 
#
# 1 166.7343 4.5620 127.8104 0.0000 0.0000 0.0000
# 2 4.5620 40.1822 3.3798 0.0000 0.0000 0.0000
# 3 127.8104 3.3798 242.8790 0.0000 0.0000 0.0000
# 4 0.0000 0.0000 0.0000 -1.7298 0.0000 0.0000
# 5 0.0000 0.0000 0.0000 0.0000 22.1733 0.0000
# 6 0.0000 0.0000 0.0000 0.0000 0.0000 108.6837
#
#
#
# Elastic Compliance Matrix: (Units=1/GPa)
#
#
# Indices 1 2 3 4 5 6 
#
# 1 0.010072 -0.000699 -0.005291 0.000000 0.000000 0.000000
# 2 -0.000699 0.024964 0.000020 0.000000 0.000000 0.000000
# 3 -0.005291 0.000020 0.006901 0.000000 0.000000 0.000000
# 4 0.000000 0.000000 0.000000 -0.578117 0.000000 0.000000
# 5 0.000000 0.000000 0.000000 0.000000 0.045099 0.000000
# 6 0.000000 0.000000 0.000000 0.000000 0.000000 0.009201
#
#
# Mechanical properties :
#
#
# Convention : Reuss Voigt Hill
#
# Bulk Modulus (GPa) = 33.33367 80.14442 56.73904
# Shear Modulus (GPa) = -10.87095 46.76168 17.94536
#
# Velocity S-wave (km/s) = -2.30357 4.77763 2.95967
# Velocity P-wave (km/s) = 3.03248 8.33998 6.27500
#
# Compressibility (1/GPa) = 0.02999970
#
# Stress axis : x y z
#
# Youngs Moduli (GPa) = 99.28345 40.05728 144.90541
#
# Poissons Ratio (x) = 0.02798 0.76663
# Poissons Ratio (y) = 0.06935 -0.00293
# Poissons Ratio (z) = 0.52527 -0.00081
#
# Static dielectric constant tensor:
#      x y z
#    x 1.701340 0.000000 0.000000 
#    y 0.000000 1.900300 0.000000 
#    z 0.000000 0.000000 1.733610 
# 
# From -- ./inp_files/42398.got.cif
#   From: 2010.05.17/outbox.cif.g08.bks.cpg/sg65_22_cif.got.tgz:42398.got - 2010.06.03 17:01:31.
