data_PCOD9488588
_publ_section_title
;
Structure prediction by ZEFSAII (Michael W. Deem and Ramdas Pophale) SiO2 
 PCOD9488588
Probable space group: C M M M
;
_chemical_formula_sum "Si O2"
_cell_formula_units_Z 96
_cell_length_a 20.529254
_cell_length_b 28.231387
_cell_length_c 7.407828
_cell_angle_alpha 90.000000
_cell_angle_beta 90.000000
_cell_angle_gamma 90.000000
_cell_volume 4293.349796
_symmetry_space_group_name_H-M "C M M M"
_symmetry_group_IT_number 65
_symmetry_cell_setting 'orthorhombic'
loop_
_space_group_symop_operation_xyz
x,y,z
-x,-y,z
x,-y,-z
-x,y,-z
-x,-y,-z
x,y,-z
-x,y,z
x,-y,z
1/2+x,1/2+y,z
1/2-x,1/2-y,z
1/2+x,1/2-y,-z
1/2-x,1/2+y,-z
1/2-x,1/2-y,-z
1/2+x,1/2+y,-z
1/2-x,1/2+y,z
1/2+x,1/2-y,z
loop_
_atom_site_type_symbol
_atom_site_label
_atom_site_fract_x
_atom_site_fract_y
_atom_site_fract_z
Si Si1 0.203137 0.897780 0.778932
Si Si2 0.574428 0.247378 0.710833
Si Si3 0.833890 0.552932 0.220203
Si Si4 0.428596 0.444946 0.780237
Si Si5 0.208362 0.207361 0.207366
Si Si6 0.925544 0.361540 0.782110
O O1 0.260421 0.933501 0.728029
O O2 0.132647 0.915071 0.717882
O O3 0.217454 0.844724 0.714526
O O4 0.201792 0.896815 0.000000
O O5 0.572497 0.258977 0.500000
O O6 0.500000 0.252735 0.782475
O O7 0.632310 0.278352 0.792579
O O8 0.593077 0.191871 0.729281
O O9 0.851828 0.500000 0.279582
O O10 0.880097 0.595788 0.281010
O O11 0.836323 0.552770 0.000000
O O12 0.500000 0.427973 0.722107
O O13 0.421592 0.500000 0.728496
O O14 0.428153 0.444086 0.000000
O O15 0.250000 0.250000 0.290881
O O16 0.231409 0.203343 0.000000
O O17 0.000000 0.368819 0.722631
O O18 0.924354 0.362179 0.000000
#
# Coordination Sequence:
#
# PCOD9488588 Si02
#       6
#    16  16  16  16  16  16
#     4   9  16  25  39  61  90 123 155 187 229 282
#     4  10  21  36  53  73  98 130 169 211 255 303
#     4   9  16  26  43  68  97 127 158 194 237 286
#     4   8  13  21  33  51  79 114 147 178 216 266
#     4  10  20  33  50  73 101 131 164 204 248 295
#     4   9  17  30  49  72  98 128 161 198 242 292
#
# _framework density 22.360164000000001
#
# number of rings (size 3 to 8) (size 9 to 14) (size 15 to 20)
#    0.000    2.833    0.000    2.500    0.000    7.000 
#    0.000    3.333    0.000    0.500    0.000    2.333 
#    0.000    2.000    0.000    9.167    0.000    7.000 
#
# Total GULP energy -268066.197115 kJ/mol
# GULP energy per Si atom -5584.712440 kJ/mol
# Density = 2.230927 g / cm^3
# Si number density = 22.360164 Si / 1000 Ang^3
#
#
#
# Elastic Constant Matrix: (Units=GPa)
#
#
# Indices 1 2 3 4 5 6 
#
# 1 35.9238 -5.2742 -5.4431 0.0000 0.0000 0.0000
# 2 -5.2742 39.6254 -6.3451 0.0000 0.0000 0.0000
# 3 -5.4431 -6.3451 74.2766 0.0000 0.0000 0.0000
# 4 0.0000 0.0000 0.0000 24.1474 0.0000 0.0000
# 5 0.0000 0.0000 0.0000 0.0000 1.5445 0.0000
# 6 0.0000 0.0000 0.0000 0.0000 0.0000 42.0803
#
#
#
# Elastic Compliance Matrix: (Units=1/GPa)
#
#
# Indices 1 2 3 4 5 6 
#
# 1 0.028833 0.004234 0.002475 0.000000 0.000000 0.000000
# 2 0.004234 0.026208 0.002549 0.000000 0.000000 0.000000
# 3 0.002475 0.002549 0.013862 0.000000 0.000000 0.000000
# 4 0.000000 0.000000 0.000000 0.041412 0.000000 0.000000
# 5 0.000000 0.000000 0.000000 0.000000 0.647454 0.000000
# 6 0.000000 0.000000 0.000000 0.000000 0.000000 0.023764
#
#
# Mechanical properties :
#
#
# Convention : Reuss Voigt Hill
#
# Bulk Modulus (GPa) = 11.43913 12.85565 12.14739
# Shear Modulus (GPa) = 6.31187 24.68032 15.49610
#
# Velocity S-wave (km/s) = 1.68195 3.32590 2.63539
# Velocity P-wave (km/s) = 2.98310 4.52887 3.83468
#
# Compressibility (1/GPa) = 0.08741926
#
# Stress axis : x y z
#
# Youngs Moduli (GPa) = 34.68211 38.15620 72.13808
#
# Poissons Ratio (x) = -0.16155 -0.17852
# Poissons Ratio (y) = -0.14684 -0.18389
# Poissons Ratio (z) = -0.08583 -0.09726
#
# Static dielectric constant tensor:
#      x y z
#    x 1.805060 0.000000 0.000000 
#    y 0.000000 1.801120 0.000000 
#    z 0.000000 0.000000 1.964240 
# 
# From -- ./inp_files/12231.got.cif
#   From: 2010.05.17/outbox.cif.g08.bks.cpg/sg65_7_cif.got.tgz:12231.got - 2010.06.03 17:01:31.
