data_PCOD9488963
_publ_section_title
;
Structure prediction by ZEFSAII (Michael W. Deem and Ramdas Pophale) SiO2 
 PCOD9488963
Probable space group: C M M M
;
_chemical_formula_sum "Si O2"
_cell_formula_units_Z 72
_cell_length_a 18.794045
_cell_length_b 8.724315
_cell_length_c 24.302068
_cell_angle_alpha 90.000000
_cell_angle_beta 90.000000
_cell_angle_gamma 90.000000
_cell_volume 3984.692679
_symmetry_space_group_name_H-M "C M M M"
_symmetry_group_IT_number 65
_symmetry_cell_setting 'orthorhombic'
loop_
_space_group_symop_operation_xyz
x,y,z
-x,-y,z
x,-y,-z
-x,y,-z
-x,-y,-z
x,y,-z
-x,y,z
x,-y,z
1/2+x,1/2+y,z
1/2-x,1/2-y,z
1/2+x,1/2-y,-z
1/2-x,1/2+y,-z
1/2-x,1/2-y,-z
1/2+x,1/2+y,-z
1/2-x,1/2+y,z
1/2+x,1/2-y,z
loop_
_atom_site_type_symbol
_atom_site_label
_atom_site_fract_x
_atom_site_fract_y
_atom_site_fract_z
Si Si1 0.669577 0.316604 0.896972
Si Si2 0.415810 0.183760 0.000000
Si Si3 0.083836 0.815869 0.561168
Si Si4 0.329380 0.817106 0.662228
Si Si5 0.669769 0.815841 0.783198
O O1 0.673382 0.500000 0.897608
O O2 0.750000 0.250000 0.902446
O O3 0.622239 0.254182 0.946616
O O4 0.638898 0.258448 0.838329
O O5 0.500000 0.216883 0.000000
O O6 0.406275 0.000000 0.000000
O O7 0.108519 0.766413 0.500000
O O8 0.125396 0.742965 0.611433
O O9 0.000000 0.780460 0.565152
O O10 0.091193 0.000000 0.563749
O O11 0.250000 0.750000 0.658667
O O12 0.360780 0.777168 0.722857
O O13 0.324566 0.000000 0.660117
O O14 0.750000 0.750000 0.781170
O O15 0.671420 0.000000 0.789303
#
# Coordination Sequence:
#
# PCOD9488963 Si02
#       5
#    16   8  16  16  16
#     4  11  21  35  58  84 109 138 177 218 256 307
#     4  11  24  41  58  77 107 143 176 217 268 311
#     4   9  19  36  55  74 100 136 176 218 264 313
#     4  10  20  33  53  80 108 138 172 214 261 310
#     4   9  17  31  51  77 107 137 172 213 259 307
#
# _framework density 18.069148999999999
#
# number of rings (size 3 to 8) (size 9 to 14) (size 15 to 20)
#    0.000    2.111    0.000    6.000    0.000    4.889 
#    0.000    2.222    0.000    1.333    0.000    0.000 
#    0.000    0.000    0.000    0.000    0.000    0.000 
#
# Total GULP energy -200811.841643 kJ/mol
# GULP energy per Si atom -5578.106712 kJ/mol
# Density = 1.802802 g / cm^3
# Si number density = 18.069149 Si / 1000 Ang^3
#
#
#
# Elastic Constant Matrix: (Units=GPa)
#
#
# Indices 1 2 3 4 5 6 
#
# 1 53.8096 44.7039 78.3303 0.0000 0.0000 0.0000
# 2 44.7039 98.4358 83.7721 0.0000 0.0000 0.0000
# 3 78.3303 83.7721 237.9455 0.0000 0.0000 0.0000
# 4 0.0000 0.0000 0.0000 34.2112 0.0000 0.0000
# 5 0.0000 0.0000 0.0000 0.0000 -52.9468 0.0000
# 6 0.0000 0.0000 0.0000 0.0000 0.0000 22.4075
#
#
#
# Elastic Compliance Matrix: (Units=1/GPa)
#
#
# Indices 1 2 3 4 5 6 
#
# 1 0.042071 -0.010451 -0.010170 0.000000 0.000000 0.000000
# 2 -0.010451 0.017101 -0.002580 0.000000 0.000000 0.000000
# 3 -0.010170 -0.002580 0.008459 0.000000 0.000000 0.000000
# 4 0.000000 0.000000 0.000000 0.029230 0.000000 0.000000
# 5 0.000000 0.000000 0.000000 0.000000 -0.018887 0.000000
# 6 0.000000 0.000000 0.000000 0.000000 0.000000 0.044628
#
#
# Mechanical properties :
#
#
# Convention : Reuss Voigt Hill
#
# Bulk Modulus (GPa) = 47.10705 89.31150 68.20928
# Shear Modulus (GPa) = 28.39586 12.96002 20.67794
#
# Velocity S-wave (km/s) = 3.96853 2.68105 3.38654
# Velocity P-wave (km/s) = 6.86484 7.68889 7.28852
#
# Compressibility (1/GPa) = 0.02122824
#
# Stress axis : x y z
#
# Youngs Moduli (GPa) = 23.76914 58.47581 118.21759
#
# Poissons Ratio (x) = 0.61115 1.20229
# Poissons Ratio (y) = 0.24842 0.30502
# Poissons Ratio (z) = 0.24174 0.15088
#
# Static dielectric constant tensor:
#      x y z
#    x 1.594580 0.000000 0.000000 
#    y 0.000000 1.602830 0.000000 
#    z 0.000000 0.000000 1.660600 
# 
# From -- ./inp_files/70316.got.cif
#   From: 2010.05.17/outbox.cif.g08.bks.cpg/sg65_36_cif.got.tgz:70316.got - 2010.06.03 17:01:31.
