data_PCOD9488025
_publ_section_title
;
Structure prediction by ZEFSAII (Michael W. Deem and Ramdas Pophale) SiO2 
 PCOD9488025
Probable space group: C M M M
;
_chemical_formula_sum "Si O2"
_cell_formula_units_Z 104
_cell_length_a 9.181280
_cell_length_b 31.301247
_cell_length_c 22.248132
_cell_angle_alpha 90.000000
_cell_angle_beta 90.000000
_cell_angle_gamma 90.000000
_cell_volume 6393.790829
_symmetry_space_group_name_H-M "C M M M"
_symmetry_group_IT_number 65
_symmetry_cell_setting 'orthorhombic'
loop_
_space_group_symop_operation_xyz
x,y,z
-x,-y,z
x,-y,-z
-x,y,-z
-x,-y,-z
x,y,-z
-x,y,z
x,-y,z
1/2+x,1/2+y,z
1/2-x,1/2-y,z
1/2+x,1/2-y,-z
1/2-x,1/2+y,-z
1/2-x,1/2-y,-z
1/2+x,1/2+y,-z
1/2-x,1/2+y,z
1/2+x,1/2-y,z
loop_
_atom_site_type_symbol
_atom_site_label
_atom_site_fract_x
_atom_site_fract_y
_atom_site_fract_z
Si Si1 0.832651 0.948287 0.500000
Si Si2 0.325871 0.949172 0.624008
Si Si3 0.173090 0.881318 0.291760
Si Si4 0.668599 0.206809 0.706594
Si Si5 0.826663 0.450360 0.929453
Si Si6 0.671617 0.620634 0.148164
Si Si7 0.167176 0.292559 0.147052
O O1 0.746144 0.936526 0.439728
O O2 0.000000 0.932842 0.500000
O O3 0.837776 0.000000 0.500000
O O4 0.500000 0.943012 0.622638
O O5 0.251699 0.920073 0.674476
O O6 0.298880 0.000000 0.633582
O O7 0.245678 0.836214 0.310513
O O8 0.193563 0.885237 0.219816
O O9 0.000000 0.881103 0.303887
O O10 0.500000 0.205715 0.687182
O O11 0.750000 0.250000 0.686525
O O12 0.668025 0.207978 0.779743
O O13 0.793192 0.500000 0.916795
O O14 0.738318 0.418676 0.887763
O O15 0.000000 0.444391 0.920334
O O16 0.796514 0.442654 0.000000
O O17 0.500000 0.624525 0.137616
O O18 0.751260 0.664268 0.129239
O O19 0.250000 0.250000 0.126851
O O20 0.000000 0.292654 0.127363
#
# Coordination Sequence:
#
# PCOD9488025 Si02
#       7
#     8  16  16  16  16  16  16
#     4   9  17  31  51  71  92 123 162 201 241 285
#     4  10  20  33  49  70  97 129 165 203 241 284
#     4  10  20  32  46  69 101 132 162 197 240 288
#     4   9  16  27  44  66  93 125 160 197 237 281
#     4   9  19  36  55  72  91 120 160 202 242 287
#     4  10  20  32  48  72 100 128 159 197 241 288
#     4   9  16  27  45  68  95 126 158 192 232 281
#
# _framework density 16.265782000000002
#
# number of rings (size 3 to 8) (size 9 to 14) (size 15 to 20)
#    0.000    2.538    0.000    3.000    0.000    8.615 
#    0.000    3.846    0.000    0.462    0.000    0.538 
#    0.000    0.000    0.000    0.000    0.000    0.000 
#
# Total GULP energy -289941.071360 kJ/mol
# GULP energy per Si atom -5575.789834 kJ/mol
# Density = 1.622876 g / cm^3
# Si number density = 16.265782 Si / 1000 Ang^3
#
#
#
# Elastic Constant Matrix: (Units=GPa)
#
#
# Indices 1 2 3 4 5 6 
#
# 1 149.3273 104.1208 61.1901 0.0000 0.0000 0.0000
# 2 104.1208 129.5740 58.8632 0.0000 0.0000 0.0000
# 3 61.1901 58.8632 37.4798 0.0000 0.0000 0.0000
# 4 0.0000 0.0000 0.0000 -6.6764 0.0000 0.0000
# 5 0.0000 0.0000 0.0000 0.0000 24.1382 0.0000
# 6 0.0000 0.0000 0.0000 0.0000 0.0000 35.1803
#
#
#
# Elastic Compliance Matrix: (Units=1/GPa)
#
#
# Indices 1 2 3 4 5 6 
#
# 1 0.020967 -0.004529 -0.027118 0.000000 0.000000 0.000000
# 2 -0.004529 0.027913 -0.036444 0.000000 0.000000 0.000000
# 3 -0.027118 -0.036444 0.128189 0.000000 0.000000 0.000000
# 4 0.000000 0.000000 0.000000 -0.149782 0.000000 0.000000
# 5 0.000000 0.000000 0.000000 0.000000 0.041428 0.000000
# 6 0.000000 0.000000 0.000000 0.000000 0.000000 0.028425
#
#
# Mechanical properties :
#
#
# Convention : Reuss Voigt Hill
#
# Bulk Modulus (GPa) = 24.45678 84.96993 54.71336
# Shear Modulus (GPa) = 20.24709 16.67555 18.46132
#
# Velocity S-wave (km/s) = 3.53195 3.20534 3.37260
# Velocity P-wave (km/s) = 5.63039 8.12716 6.99114
#
# Compressibility (1/GPa) = 0.04088845
#
# Stress axis : x y z
#
# Youngs Moduli (GPa) = 47.69498 35.82619 7.80095
#
# Poissons Ratio (x) = 0.16225 0.21154
# Poissons Ratio (y) = 0.21601 0.28429
# Poissons Ratio (z) = 1.29337 1.30563
#
# Static dielectric constant tensor:
#      x y z
#    x 1.542850 0.000000 0.000000 
#    y 0.000000 1.528090 0.000000 
#    z 0.000000 0.000000 1.523790 
# 
# From -- ./inp_files/66309.got.cif
#   From: 2010.05.17/outbox.cif.g08.bks.cpg/sg65_34_cif.got.tgz:66309.got - 2010.06.03 17:01:31.
