data_PCOD9488089
_publ_section_title
;
Structure prediction by ZEFSAII (Michael W. Deem and Ramdas Pophale) SiO2 
 PCOD9488089
Probable space group: C M M M
;
_chemical_formula_sum "Si O2"
_cell_formula_units_Z 88
_cell_length_a 9.129157
_cell_length_b 18.945427
_cell_length_c 29.344066
_cell_angle_alpha 90.000000
_cell_angle_beta 90.000000
_cell_angle_gamma 90.000000
_cell_volume 5075.225750
_symmetry_space_group_name_H-M "C M M M"
_symmetry_group_IT_number 65
_symmetry_cell_setting 'orthorhombic'
loop_
_space_group_symop_operation_xyz
x,y,z
-x,-y,z
x,-y,-z
-x,y,-z
-x,-y,-z
x,y,-z
-x,y,z
x,-y,z
1/2+x,1/2+y,z
1/2-x,1/2-y,z
1/2+x,1/2-y,-z
1/2-x,1/2+y,-z
1/2-x,1/2-y,-z
1/2+x,1/2+y,-z
1/2-x,1/2+y,z
1/2+x,1/2-y,z
loop_
_atom_site_type_symbol
_atom_site_label
_atom_site_fract_x
_atom_site_fract_y
_atom_site_fract_z
Si Si1 0.323130 0.826284 0.000000
Si Si2 0.175822 0.417300 0.911641
Si Si3 0.821817 0.418660 0.551245
Si Si4 0.675440 0.082723 0.274183
Si Si5 0.177207 0.673930 0.637154
Si Si6 0.831413 0.085858 0.818585
O O1 0.250000 0.750000 0.000000
O O2 0.281775 0.870628 0.044995
O O3 0.500000 0.819556 0.000000
O O4 0.213662 0.500000 0.919351
O O5 0.250343 0.392503 0.864865
O O6 0.000000 0.413993 0.906479
O O7 0.775291 0.398201 0.500000
O O8 0.777320 0.500000 0.559399
O O9 0.774405 0.367585 0.591627
O O10 0.000000 0.418448 0.551505
O O11 0.500000 0.086491 0.268133
O O12 0.715522 0.128044 0.318300
O O13 0.752418 0.108105 0.227932
O O14 0.712425 0.000000 0.281609
O O15 0.250000 0.750000 0.639274
O O16 0.000000 0.680100 0.636013
O O17 0.000000 0.108061 0.819005
O O18 0.826629 0.000000 0.818400
#
# Coordination Sequence:
#
# PCOD9488089 Si02
#       6
#     8  16  16  16  16  16
#     4  10  21  35  51  73 101 132 164 198 238 284
#     4   9  17  32  54  76  98 127 164 201 236 280
#     4   8  14  27  49  74  96 121 159 204 242 279
#     4   9  17  31  51  71  92 123 163 202 237 278
#     4  10  20  32  47  70  99 129 161 197 239 287
#     4   9  17  29  48  76 103 123 151 197 249 292
#
# _framework density 17.339130000000001
#
# number of rings (size 3 to 8) (size 9 to 14) (size 15 to 20)
#    0.000    2.909    0.000    1.909    0.000    7.273 
#    0.000    0.909    0.000    4.364    0.000    1.273 
#    0.000    0.000    0.000    0.000    0.000    0.000 
#
# Total GULP energy -245255.484252 kJ/mol
# GULP energy per Si atom -5573.988278 kJ/mol
# Density = 1.729967 g / cm^3
# Si number density = 17.339130 Si / 1000 Ang^3
#
#
#
# Elastic Constant Matrix: (Units=GPa)
#
#
# Indices 1 2 3 4 5 6 
#
# 1 21.9002 36.7308 58.4560 0.0000 0.0000 0.0000
# 2 36.7308 93.2384 103.3786 0.0000 0.0000 0.0000
# 3 58.4560 103.3786 212.4957 0.0000 0.0000 0.0000
# 4 0.0000 0.0000 0.0000 -2.7733 0.0000 0.0000
# 5 0.0000 0.0000 0.0000 0.0000 10.4538 0.0000
# 6 0.0000 0.0000 0.0000 0.0000 0.0000 25.5033
#
#
#
# Elastic Compliance Matrix: (Units=1/GPa)
#
#
# Indices 1 2 3 4 5 6 
#
# 1 0.237062 -0.045774 -0.042945 0.000000 0.000000 0.000000
# 2 -0.045774 0.032124 -0.003036 0.000000 0.000000 0.000000
# 3 -0.042945 -0.003036 0.017997 0.000000 0.000000 0.000000
# 4 0.000000 0.000000 0.000000 -0.360581 0.000000 0.000000
# 5 0.000000 0.000000 0.000000 0.000000 0.095659 0.000000
# 6 0.000000 0.000000 0.000000 0.000000 0.000000 0.039211
#
#
# Mechanical properties :
#
#
# Convention : Reuss Voigt Hill
#
# Bulk Modulus (GPa) = 9.64573 80.52947 45.08760
# Shear Modulus (GPa) = 17.88651 15.24136 16.56393
#
# Velocity S-wave (km/s) = 3.21529 2.96804 3.09413
# Velocity P-wave (km/s) = 4.39991 7.63481 6.23095
#
# Compressibility (1/GPa) = 0.10367282
#
# Stress axis : x y z
#
# Youngs Moduli (GPa) = 4.21830 31.12939 55.56485
#
# Poissons Ratio (x) = 1.42491 2.38625
# Poissons Ratio (y) = 0.19309 0.16871
# Poissons Ratio (z) = 0.18116 0.09451
#
# Static dielectric constant tensor:
#      x y z
#    x 1.581800 0.000000 0.000000 
#    y 0.000000 1.563000 0.000000 
#    z 0.000000 0.000000 1.583080 
# 
# From -- ./inp_files/73185.got.cif
#   From: 2010.05.17/outbox.cif.g08.bks.cpg/sg65_37_cif.got.tgz:73185.got - 2010.06.03 17:01:31.
