data_PCOD9488120
_publ_section_title
;
Structure prediction by ZEFSAII (Michael W. Deem and Ramdas Pophale) SiO2 
 PCOD9488120
Probable space group: C M M M
;
_chemical_formula_sum "Si O2"
_cell_formula_units_Z 88
_cell_length_a 7.783512
_cell_length_b 18.750558
_cell_length_c 31.405100
_cell_angle_alpha 90.000000
_cell_angle_beta 90.000000
_cell_angle_gamma 90.000000
_cell_volume 4583.423387
_symmetry_space_group_name_H-M "C M M M"
_symmetry_group_IT_number 65
_symmetry_cell_setting 'orthorhombic'
loop_
_space_group_symop_operation_xyz
x,y,z
-x,-y,z
x,-y,-z
-x,y,-z
-x,-y,-z
x,y,-z
-x,y,z
x,-y,z
1/2+x,1/2+y,z
1/2-x,1/2-y,z
1/2+x,1/2-y,-z
1/2-x,1/2+y,-z
1/2-x,1/2-y,-z
1/2+x,1/2+y,-z
1/2-x,1/2+y,z
1/2+x,1/2-y,z
loop_
_atom_site_type_symbol
_atom_site_label
_atom_site_fract_x
_atom_site_fract_y
_atom_site_fract_z
Si Si1 0.706839 0.667275 0.952475
Si Si2 0.706640 0.332919 0.786636
Si Si3 0.190862 0.586820 0.608972
Si Si4 0.000000 0.912772 0.451076
Si Si5 0.289404 0.582150 0.870014
Si Si6 0.208171 0.917150 0.296399
O O1 0.500000 0.661085 0.953361
O O2 0.750000 0.750000 0.944568
O O3 0.769635 0.618881 0.913763
O O4 0.770935 0.648607 0.000000
O O5 0.500000 0.339831 0.786407
O O6 0.750000 0.250000 0.788009
O O7 0.768825 0.373557 0.828855
O O8 0.768863 0.370404 0.743334
O O9 0.197958 0.500000 0.609711
O O10 0.334138 0.610523 0.575736
O O11 0.228006 0.608592 0.657599
O O12 0.000000 0.608495 0.596316
O O13 0.000000 0.889531 0.500000
O O14 0.000000 0.000000 0.451412
O O15 0.500000 0.583507 0.870168
O O16 0.237208 0.500000 0.867274
O O17 0.000000 0.915949 0.297779
O O18 0.259615 0.000000 0.290527
#
# Coordination Sequence:
#
# PCOD9488120 Si02
#       6
#    16  16  16   8  16  16
#     4   9  17  29  47  70  95 125 160 202 251 301
#     4  10  20  32  48  69  94 125 156 198 247 299
#     4   9  16  26  42  65  93 129 170 210 255 303
#     4   9  16  26  40  62  98 138 172 210 254 304
#     4   9  17  30  48  70  94 122 163 206 245 295
#     4   9  16  29  48  66  88 123 165 204 245 299
#
# _framework density 19.199621
#
# number of rings (size 3 to 8) (size 9 to 14) (size 15 to 20)
#    0.000    2.818    0.909    1.091    0.000    3.636 
#    0.000    3.636    0.000    3.273    0.000    2.545 
#    0.000    0.727    0.364    0.000    0.000    0.000 
#
# Total GULP energy -245466.360588 kJ/mol
# GULP energy per Si atom -5578.780922 kJ/mol
# Density = 1.915592 g / cm^3
# Si number density = 19.199621 Si / 1000 Ang^3
#
#
#
# Elastic Constant Matrix: (Units=GPa)
#
#
# Indices 1 2 3 4 5 6 
#
# 1 61.5400 20.2198 57.4008 0.0000 0.0000 0.0000
# 2 20.2198 82.1642 89.9260 0.0000 0.0000 0.0000
# 3 57.4008 89.9260 212.4383 0.0000 0.0000 0.0000
# 4 0.0000 0.0000 0.0000 -14.1527 0.0000 0.0000
# 5 0.0000 0.0000 0.0000 0.0000 -6.9270 0.0000
# 6 0.0000 0.0000 0.0000 0.0000 0.0000 16.8778
#
#
#
# Elastic Compliance Matrix: (Units=1/GPa)
#
#
# Indices 1 2 3 4 5 6 
#
# 1 0.021904 0.002026 -0.006776 0.000000 0.000000 0.000000
# 2 0.002026 0.022864 -0.010226 0.000000 0.000000 0.000000
# 3 -0.006776 -0.010226 0.010867 0.000000 0.000000 0.000000
# 4 0.000000 0.000000 0.000000 -0.070658 0.000000 0.000000
# 5 0.000000 0.000000 0.000000 0.000000 -0.144362 0.000000
# 6 0.000000 0.000000 0.000000 0.000000 0.000000 0.059249
#
#
# Mechanical properties :
#
#
# Convention : Reuss Voigt Hill
#
# Bulk Modulus (GPa) = 38.93651 76.80397 57.87024
# Shear Modulus (GPa) = -81.13933 11.73268 -34.70333
#
# Velocity S-wave (km/s) = -6.50789 2.47470 -4.25608
# Velocity P-wave (km/s) = 6.01218 6.94660 2.46058
#
# Compressibility (1/GPa) = 0.02568283
#
# Stress axis : x y z
#
# Youngs Moduli (GPa) = 45.65322 43.73680 92.02388
#
# Poissons Ratio (x) = -0.08860 0.62355
# Poissons Ratio (y) = -0.09248 0.94102
# Poissons Ratio (z) = 0.30935 0.44724
#
# Static dielectric constant tensor:
#      x y z
#    x 1.705680 0.000000 0.000000 
#    y 0.000000 1.623240 0.000000 
#    z 0.000000 0.000000 1.660040 
# 
# From -- ./inp_files/76456.got.cif
#   From: 2010.05.17/outbox.cif.g08.bks.cpg/sg65_39_cif.got.tgz:76456.got - 2010.06.03 17:01:31.
