data_PCOD9488016
_publ_section_title
;
Structure prediction by ZEFSAII (Michael W. Deem and Ramdas Pophale) SiO2 
 PCOD9488016
Probable space group: C M M M
;
_chemical_formula_sum "Si O2"
_cell_formula_units_Z 88
_cell_length_a 29.022175
_cell_length_b 8.615382
_cell_length_c 19.772989
_cell_angle_alpha 90.000000
_cell_angle_beta 90.000000
_cell_angle_gamma 90.000000
_cell_volume 4943.981304
_symmetry_space_group_name_H-M "C M M M"
_symmetry_group_IT_number 65
_symmetry_cell_setting 'orthorhombic'
loop_
_space_group_symop_operation_xyz
x,y,z
-x,-y,z
x,-y,-z
-x,y,-z
-x,-y,-z
x,y,-z
-x,y,z
x,-y,z
1/2+x,1/2+y,z
1/2-x,1/2-y,z
1/2+x,1/2-y,-z
1/2-x,1/2+y,-z
1/2-x,1/2-y,-z
1/2+x,1/2+y,-z
1/2-x,1/2+y,z
1/2+x,1/2-y,z
loop_
_atom_site_type_symbol
_atom_site_label
_atom_site_fract_x
_atom_site_fract_y
_atom_site_fract_z
Si Si1 0.114383 0.189271 0.923084
Si Si2 0.199231 0.187149 0.170525
Si Si3 0.901405 0.315021 0.577384
Si Si4 0.448146 0.689059 0.800732
Si Si5 0.636748 0.687006 0.293028
Si Si6 0.000000 0.174437 0.581853
O O1 0.161837 0.236207 0.885938
O O2 0.072534 0.235112 0.873724
O O3 0.114419 0.000000 0.924286
O O4 0.110955 0.244086 0.000000
O O5 0.250000 0.250000 0.159077
O O6 0.178271 0.234679 0.243492
O O7 0.200345 0.000000 0.169584
O O8 0.893428 0.260508 0.500000
O O9 0.901319 0.500000 0.577098
O O10 0.865332 0.253118 0.631928
O O11 0.952350 0.257331 0.599093
O O12 0.500000 0.744356 0.788804
O O13 0.448963 0.500000 0.799532
O O14 0.410171 0.736440 0.745729
O O15 0.636621 0.500000 0.296430
O O16 0.000000 0.166813 0.500000
O O17 0.000000 0.000000 0.610140
#
# Coordination Sequence:
#
# PCOD9488016 Si02
#       6
#    16  16  16  16  16   8
#     4   8  14  25  41  64  95 125 153 191 237 280
#     4   9  18  32  49  70  95 122 156 198 242 287
#     4  10  20  32  46  68  98 126 156 199 243 281
#     4   8  14  24  39  62  91 123 160 196 228 269
#     4   9  18  31  47  68  93 123 160 199 238 286
#     4   9  17  29  45  65  91 127 164 191 224 273
#
# _framework density 17.799419
#
# number of rings (size 3 to 8) (size 9 to 14) (size 15 to 20)
#    0.000    3.182    0.000    3.000    1.273    3.636 
#    0.000    1.818    0.000    0.545    0.000    0.000 
#    0.000    0.000    0.000    8.000    0.000    8.000 
#
# Total GULP energy -245130.761612 kJ/mol
# GULP energy per Si atom -5571.153673 kJ/mol
# Density = 1.775891 g / cm^3
# Si number density = 17.799419 Si / 1000 Ang^3
#
#
#
# Elastic Constant Matrix: (Units=GPa)
#
#
# Indices 1 2 3 4 5 6 
#
# 1 48.5896 -0.3609 -6.0499 0.0000 0.0000 0.0000
# 2 -0.3609 8.2149 7.5191 0.0000 0.0000 0.0000
# 3 -6.0499 7.5191 79.7648 0.0000 0.0000 0.0000
# 4 0.0000 0.0000 0.0000 6.2255 0.0000 0.0000
# 5 0.0000 0.0000 0.0000 0.0000 14.0944 0.0000
# 6 0.0000 0.0000 0.0000 0.0000 0.0000 22.3988
#
#
#
# Elastic Compliance Matrix: (Units=1/GPa)
#
#
# Indices 1 2 3 4 5 6 
#
# 1 0.020779 -0.000580 0.001631 0.000000 0.000000 0.000000
# 2 -0.000580 0.133241 -0.012604 0.000000 0.000000 0.000000
# 3 0.001631 -0.012604 0.013849 0.000000 0.000000 0.000000
# 4 0.000000 0.000000 0.000000 0.160629 0.000000 0.000000
# 5 0.000000 0.000000 0.000000 0.000000 0.070950 0.000000
# 6 0.000000 0.000000 0.000000 0.000000 0.000000 0.044645
#
#
# Mechanical properties :
#
#
# Convention : Reuss Voigt Hill
#
# Bulk Modulus (GPa) = 6.90782 15.42063 11.16423
# Shear Modulus (GPa) = 9.70018 17.57449 13.63733
#
# Velocity S-wave (km/s) = 2.33700 3.14564 2.77098
# Velocity P-wave (km/s) = 3.34237 4.67716 4.06492
#
# Compressibility (1/GPa) = 0.14476340
#
# Stress axis : x y z
#
# Youngs Moduli (GPa) = 48.12488 7.50517 72.20911
#
# Poissons Ratio (x) = 0.00435 -0.11775
# Poissons Ratio (y) = 0.02790 0.91013
# Poissons Ratio (z) = -0.07848 0.09460
#
# Static dielectric constant tensor:
#      x y z
#    x 1.590540 0.000000 0.000000 
#    y 0.000000 1.613300 0.000000 
#    z 0.000000 0.000000 1.635330 
# 
# From -- ./inp_files/58021.got.cif
#   From: 2010.05.17/outbox.cif.g08.bks.cpg/sg65_30_cif.got.tgz:58021.got - 2010.06.03 17:01:31.
