data_PCOD9488724
_publ_section_title
;
Structure prediction by ZEFSAII (Michael W. Deem and Ramdas Pophale) SiO2 
 PCOD9488724
Probable space group: C M M M
;
_chemical_formula_sum "Si O2"
_cell_formula_units_Z 72
_cell_length_a 8.588143
_cell_length_b 32.816331
_cell_length_c 13.966618
_cell_angle_alpha 90.000000
_cell_angle_beta 90.000000
_cell_angle_gamma 90.000000
_cell_volume 3936.230713
_symmetry_space_group_name_H-M "C M M M"
_symmetry_group_IT_number 65
_symmetry_cell_setting 'orthorhombic'
loop_
_space_group_symop_operation_xyz
x,y,z
-x,-y,z
x,-y,-z
-x,y,-z
-x,-y,-z
x,y,-z
-x,y,z
x,-y,z
1/2+x,1/2+y,z
1/2-x,1/2-y,z
1/2+x,1/2-y,-z
1/2-x,1/2+y,-z
1/2-x,1/2-y,-z
1/2+x,1/2+y,-z
1/2-x,1/2+y,z
1/2+x,1/2-y,z
loop_
_atom_site_type_symbol
_atom_site_label
_atom_site_fract_x
_atom_site_fract_y
_atom_site_fract_z
Si Si1 0.689402 0.377204 0.106378
Si Si2 0.313159 0.166311 0.608365
Si Si3 0.187386 0.083714 0.303296
Si Si4 0.313302 0.000000 0.611981
Si Si5 0.313861 0.293529 0.203535
O O1 0.500000 0.377611 0.104588
O O2 0.735675 0.406523 0.193602
O O3 0.736410 0.331438 0.137069
O O4 0.745052 0.387585 0.000000
O O5 0.266485 0.176990 0.500000
O O6 0.500000 0.167151 0.614365
O O7 0.254582 0.120831 0.633748
O O8 0.244063 0.195517 0.689713
O O9 0.247692 0.040599 0.339258
O O10 0.000000 0.085159 0.308513
O O11 0.500000 0.000000 0.618176
O O12 0.269097 0.000000 0.500000
O O13 0.500000 0.292576 0.203871
O O14 0.250000 0.250000 0.172664
#
# Coordination Sequence:
#
# PCOD9488724 Si02
#       5
#    16  16  16   8  16
#     4   8  16  33  55  77 102 133 169 209 256 308
#     4  10  20  34  52  73 101 138 174 210 257 311
#     4  10  20  34  55  81 106 134 170 213 256 300
#     4  11  23  37  54  77 108 144 175 207 250 299
#     4  10  20  33  51  75 103 135 172 216 260 303
#
# _framework density 18.291609999999999
#
# number of rings (size 3 to 8) (size 9 to 14) (size 15 to 20)
#    0.000    2.333    0.000    4.333    0.000    6.222 
#    0.000    0.556    0.000   26.667    0.000    0.000 
#    0.000    0.000    0.000    0.000    0.000    0.000 
#
# Total GULP energy -200922.116099 kJ/mol
# GULP energy per Si atom -5581.169892 kJ/mol
# Density = 1.824998 g / cm^3
# Si number density = 18.291610 Si / 1000 Ang^3
#
#
#
# Elastic Constant Matrix: (Units=GPa)
#
#
# Indices 1 2 3 4 5 6 
#
# 1 38.8125 14.8556 18.1207 0.0000 0.0000 0.0000
# 2 14.8556 91.4433 26.3398 0.0000 0.0000 0.0000
# 3 18.1207 26.3398 111.2824 0.0000 0.0000 0.0000
# 4 0.0000 0.0000 0.0000 215.8608 0.0000 0.0000
# 5 0.0000 0.0000 0.0000 0.0000 -7.5439 0.0000
# 6 0.0000 0.0000 0.0000 0.0000 0.0000 33.1036
#
#
#
# Elastic Compliance Matrix: (Units=1/GPa)
#
#
# Indices 1 2 3 4 5 6 
#
# 1 0.028942 -0.003589 -0.003863 0.000000 0.000000 0.000000
# 2 -0.003589 0.012181 -0.002299 0.000000 0.000000 0.000000
# 3 -0.003863 -0.002299 0.010159 0.000000 0.000000 0.000000
# 4 0.000000 0.000000 0.000000 0.004633 0.000000 0.000000
# 5 0.000000 0.000000 0.000000 0.000000 -0.132557 0.000000
# 6 0.000000 0.000000 0.000000 0.000000 0.000000 0.030208
#
#
# Mechanical properties :
#
#
# Convention : Reuss Voigt Hill
#
# Bulk Modulus (GPa) = 31.46596 40.01892 35.74244
# Shear Modulus (GPa) = -306.03836 60.43225 -122.80306
#
# Velocity S-wave (km/s) = -12.94890 5.75413 -8.20256
# Velocity P-wave (km/s) = 14.36404 8.12849 8.37416
#
# Compressibility (1/GPa) = 0.03178038
#
# Stress axis : x y z
#
# Youngs Moduli (GPa) = 34.55147 82.09542 98.43175
#
# Poissons Ratio (x) = 0.29465 0.38027
# Poissons Ratio (y) = 0.12401 0.22627
# Poissons Ratio (z) = 0.13348 0.18871
#
# Static dielectric constant tensor:
#      x y z
#    x 1.618970 0.000000 0.000000 
#    y 0.000000 1.599890 0.000000 
#    z 0.000000 0.000000 1.637510 
# 
# From -- ./inp_files/36930.got.cif
#   From: 2010.05.17/outbox.cif.g08.bks.cpg/sg65_19_cif.got.tgz:36930.got - 2010.06.03 17:01:31.
