data_PCOD9488779
_publ_section_title
;
Structure prediction by ZEFSAII (Michael W. Deem and Ramdas Pophale) SiO2 
 PCOD9488779
Probable space group: C M M M
;
_chemical_formula_sum "Si O2"
_cell_formula_units_Z 116
_cell_length_a 25.742395
_cell_length_b 18.054830
_cell_length_c 14.723915
_cell_angle_alpha 90.000000
_cell_angle_beta 90.000000
_cell_angle_gamma 90.000000
_cell_volume 6843.301197
_symmetry_space_group_name_H-M "C M M M"
_symmetry_group_IT_number 65
_symmetry_cell_setting 'orthorhombic'
loop_
_space_group_symop_operation_xyz
x,y,z
-x,-y,z
x,-y,-z
-x,y,-z
-x,-y,-z
x,y,-z
-x,y,z
x,-y,z
1/2+x,1/2+y,z
1/2-x,1/2-y,z
1/2+x,1/2-y,-z
1/2-x,1/2+y,-z
1/2-x,1/2-y,-z
1/2+x,1/2+y,-z
1/2-x,1/2+y,z
1/2+x,1/2-y,z
loop_
_atom_site_type_symbol
_atom_site_label
_atom_site_fract_x
_atom_site_fract_y
_atom_site_fract_z
Si Si1 0.912184 0.384539 0.607861
Si Si2 0.444011 0.413310 0.141564
Si Si3 0.500000 0.000000 0.335392
Si Si4 0.282049 0.681298 0.736169
Si Si5 0.560025 0.582479 0.639194
Si Si6 0.330216 0.410770 0.898990
Si Si7 0.125335 0.774621 0.397366
Si Si8 0.709384 0.085534 0.394076
O O1 0.922622 0.396529 0.500000
O O2 0.954077 0.434792 0.658368
O O3 0.910965 0.296088 0.625518
O O4 0.852238 0.407298 0.625063
O O5 0.500000 0.380124 0.115810
O O6 0.445759 0.500000 0.115291
O O7 0.439726 0.411732 0.251007
O O8 0.390256 0.383921 0.103477
O O9 0.250000 0.750000 0.775029
O O10 0.301866 0.629067 0.816535
O O11 0.329212 0.713323 0.675274
O O12 0.244212 0.636218 0.669361
O O13 0.500000 0.587358 0.610653
O O14 0.579623 0.500000 0.615583
O O15 0.593024 0.649707 0.602308
O O16 0.330135 0.500000 0.884872
O O17 0.308873 0.396464 0.000000
O O18 0.145688 0.760603 0.500000
O O19 0.716918 0.105120 0.500000
O O20 0.724423 0.000000 0.381974
#
# Coordination Sequence:
#
# PCOD9488779 Si02
#       8
#    16  16   4  16  16  16  16  16
#     4  10  20  33  51  77 104 136 179 233 290 335
#     4   8  14  28  52  78 104 135 170 210 259 311
#     4  12  21  36  60  80 110 146 185 244 303 342
#     4  12  23  37  56  75 107 151 183 229 284 331
#     4   9  18  33  51  73 109 152 187 220 259 312
#     4  10  21  37  57  82 110 140 181 228 272 330
#     4  11  23  35  51  78 110 147 198 236 270 326
#     4  10  20  35  54  78 108 144 190 234 275 329
#
# _framework density 16.950883000000001
#
# number of rings (size 3 to 8) (size 9 to 14) (size 15 to 20)
#    0.000    1.931    3.448    2.276    0.966    2.207 
#    0.000    2.069    0.000    0.000    0.000    0.000 
#    0.000    0.000    0.000    1.448    0.000    0.345 
#
# Total GULP energy -322919.513503 kJ/mol
# GULP energy per Si atom -5567.577819 kJ/mol
# Density = 1.691230 g / cm^3
# Si number density = 16.950883 Si / 1000 Ang^3
#
#
#
# Elastic Constant Matrix: (Units=GPa)
#
#
# Indices 1 2 3 4 5 6 
#
# 1 79.4840 43.6565 35.1409 0.0000 0.0000 0.0000
# 2 43.6565 103.4525 32.9210 0.0000 0.0000 0.0000
# 3 35.1409 32.9210 73.6478 0.0000 0.0000 0.0000
# 4 0.0000 0.0000 0.0000 11.2655 0.0000 0.0000
# 5 0.0000 0.0000 0.0000 0.0000 1.1657 0.0000
# 6 0.0000 0.0000 0.0000 0.0000 0.0000 25.5521
#
#
#
# Elastic Compliance Matrix: (Units=1/GPa)
#
#
# Indices 1 2 3 4 5 6 
#
# 1 0.018548 -0.005842 -0.006239 0.000000 0.000000 0.000000
# 2 -0.005842 0.013109 -0.003072 0.000000 0.000000 0.000000
# 3 -0.006239 -0.003072 0.017928 0.000000 0.000000 0.000000
# 4 0.000000 0.000000 0.000000 0.088767 0.000000 0.000000
# 5 0.000000 0.000000 0.000000 0.000000 0.857846 0.000000
# 6 0.000000 0.000000 0.000000 0.000000 0.000000 0.039136
#
#
# Mechanical properties :
#
#
# Convention : Reuss Voigt Hill
#
# Bulk Modulus (GPa) = 51.86891 53.33569 52.60230
# Shear Modulus (GPa) = 4.66389 17.25439 10.95914
#
# Velocity S-wave (km/s) = 1.66054 3.19392 2.54544
# Velocity P-wave (km/s) = 5.86025 6.71824 6.30385
#
# Compressibility (1/GPa) = 0.01927937
#
# Stress axis : x y z
#
# Youngs Moduli (GPa) = 53.91410 76.28205 55.77752
#
# Poissons Ratio (x) = 0.44563 0.34798
# Poissons Ratio (y) = 0.31496 0.17138
# Poissons Ratio (z) = 0.33636 0.23438
#
# Static dielectric constant tensor:
#      x y z
#    x 1.590480 0.000000 0.000000 
#    y 0.000000 1.584660 0.000000 
#    z 0.000000 0.000000 1.583290 
# 
# From -- ./inp_files/46017.got.cif
#   From: 2010.05.17/outbox.cif.g08.bks.cpg/sg65_24_cif.got.tgz:46017.got - 2010.06.03 17:01:31.
