data_PCOD9488092
_publ_section_title
;
Structure prediction by ZEFSAII (Michael W. Deem and Ramdas Pophale) SiO2 
 PCOD9488092
Probable space group: C M M M
;
_chemical_formula_sum "Si O2"
_cell_formula_units_Z 104
_cell_length_a 24.616634
_cell_length_b 29.034336
_cell_length_c 9.021061
_cell_angle_alpha 90.000000
_cell_angle_beta 90.000000
_cell_angle_gamma 90.000000
_cell_volume 6447.601483
_symmetry_space_group_name_H-M "C M M M"
_symmetry_group_IT_number 65
_symmetry_cell_setting 'orthorhombic'
loop_
_space_group_symop_operation_xyz
x,y,z
-x,-y,z
x,-y,-z
-x,y,-z
-x,-y,-z
x,y,-z
-x,y,z
x,-y,z
1/2+x,1/2+y,z
1/2-x,1/2-y,z
1/2+x,1/2-y,-z
1/2-x,1/2+y,-z
1/2-x,1/2-y,-z
1/2+x,1/2+y,-z
1/2-x,1/2+y,z
1/2+x,1/2-y,z
loop_
_atom_site_type_symbol
_atom_site_label
_atom_site_fract_x
_atom_site_fract_y
_atom_site_fract_z
Si Si1 0.436774 0.127445 0.320814
Si Si2 0.435715 0.324428 0.823628
Si Si3 0.267490 0.554166 0.822498
Si Si4 0.872322 0.908410 0.677903
Si Si5 0.065892 0.729972 0.329460
Si Si6 0.642059 0.946655 0.821582
Si Si7 0.937728 0.000000 0.319834
O O1 0.435099 0.126186 0.500000
O O2 0.500000 0.121449 0.276666
O O3 0.417742 0.179020 0.276544
O O4 0.399202 0.088260 0.253531
O O5 0.500000 0.330156 0.787115
O O6 0.401293 0.363717 0.743827
O O7 0.418574 0.273720 0.768032
O O8 0.429922 0.327874 0.000000
O O9 0.276927 0.500000 0.788095
O O10 0.311705 0.584270 0.738402
O O11 0.204859 0.564266 0.783684
O O12 0.273494 0.559548 0.000000
O O13 0.872425 0.906372 0.500000
O O14 0.906350 0.953844 0.725764
O O15 0.083629 0.736619 0.500000
O O16 0.000000 0.728476 0.331323
O O17 0.631718 0.000000 0.779559
O O18 0.637405 0.943873 0.000000
O O19 0.938460 0.000000 0.500000
O O20 0.000000 0.000000 0.268200
#
# Coordination Sequence:
#
# PCOD9488092 Si02
#       7
#    16  16  16  16  16  16   8
#     4   9  18  32  51  77 106 133 161 197 244 292
#     4  10  20  32  47  71 100 129 164 203 245 293
#     4   9  18  34  52  68  93 128 167 209 248 287
#     4  11  20  31  49  71  96 128 166 206 248 294
#     4   8  15  30  50  70  95 128 163 198 240 291
#     4   9  19  34  51  73 101 135 169 200 239 289
#     4   9  18  30  43  65  97 127 156 195 242 291
#
# _framework density 16.130027999999999
#
# number of rings (size 3 to 8) (size 9 to 14) (size 15 to 20)
#    0.000    2.692    0.769    3.231    0.000    3.692 
#    0.000    4.615    0.000    2.769    0.000    6.462 
#    0.000    0.000    0.000    0.000    0.000    0.000 
#
# Total GULP energy -289854.187052 kJ/mol
# GULP energy per Si atom -5574.118982 kJ/mol
# Density = 1.609332 g / cm^3
# Si number density = 16.130028 Si / 1000 Ang^3
#
#
#
# Elastic Constant Matrix: (Units=GPa)
#
#
# Indices 1 2 3 4 5 6 
#
# 1 93.8193 85.7817 44.0547 0.0000 0.0000 0.0000
# 2 85.7817 149.5528 54.1054 0.0000 0.0000 0.0000
# 3 44.0547 54.1054 40.3633 0.0000 0.0000 0.0000
# 4 0.0000 0.0000 0.0000 27.7817 0.0000 0.0000
# 5 0.0000 0.0000 0.0000 0.0000 26.2521 0.0000
# 6 0.0000 0.0000 0.0000 0.0000 0.0000 6.7857
#
#
#
# Elastic Compliance Matrix: (Units=1/GPa)
#
#
# Indices 1 2 3 4 5 6 
#
# 1 0.027427 -0.009517 -0.017178 0.000000 0.000000 0.000000
# 2 -0.009517 0.016285 -0.011442 0.000000 0.000000 0.000000
# 3 -0.017178 -0.011442 0.058861 0.000000 0.000000 0.000000
# 4 0.000000 0.000000 0.000000 0.035995 0.000000 0.000000
# 5 0.000000 0.000000 0.000000 0.000000 0.038092 0.000000
# 6 0.000000 0.000000 0.000000 0.000000 0.000000 0.147369
#
#
# Mechanical properties :
#
#
# Convention : Reuss Voigt Hill
#
# Bulk Modulus (GPa) = 38.02373 72.40211 55.21292
# Shear Modulus (GPa) = 12.22288 18.81681 15.51984
#
# Velocity S-wave (km/s) = 2.75575 3.41921 3.10525
# Velocity P-wave (km/s) = 5.80947 7.78280 6.86739
#
# Compressibility (1/GPa) = 0.02629937
#
# Stress axis : x y z
#
# Youngs Moduli (GPa) = 36.46095 61.40662 16.98910
#
# Poissons Ratio (x) = 0.58440 0.29184
# Poissons Ratio (y) = 0.34700 0.19439
# Poissons Ratio (z) = 0.62632 0.70261
#
# Static dielectric constant tensor:
#      x y z
#    x 1.524490 0.000000 0.000000 
#    y 0.000000 1.533920 0.000000 
#    z 0.000000 0.000000 1.536090 
# 
# From -- ./inp_files/16756.got.cif
#   From: 2010.05.17/outbox.cif.g08.bks.cpg/sg65_9_cif.got.tgz:16756.got - 2010.06.03 17:01:31.
