data_PCOD9488194
_publ_section_title
;
Structure prediction by ZEFSAII (Michael W. Deem and Ramdas Pophale) SiO2 
 PCOD9488194
Probable space group: C M M M
;
_chemical_formula_sum "Si O2"
_cell_formula_units_Z 96
_cell_length_a 32.475326
_cell_length_b 18.105562
_cell_length_c 9.217021
_cell_angle_alpha 90.000000
_cell_angle_beta 90.000000
_cell_angle_gamma 90.000000
_cell_volume 5419.461137
_symmetry_space_group_name_H-M "C M M M"
_symmetry_group_IT_number 65
_symmetry_cell_setting 'orthorhombic'
loop_
_space_group_symop_operation_xyz
x,y,z
-x,-y,z
x,-y,-z
-x,y,-z
-x,-y,-z
x,y,-z
-x,y,z
x,-y,z
1/2+x,1/2+y,z
1/2-x,1/2-y,z
1/2+x,1/2-y,-z
1/2-x,1/2+y,-z
1/2-x,1/2-y,-z
1/2+x,1/2+y,-z
1/2-x,1/2+y,z
1/2+x,1/2-y,z
loop_
_atom_site_type_symbol
_atom_site_label
_atom_site_fract_x
_atom_site_fract_y
_atom_site_fract_z
Si Si1 0.046590 0.172509 0.672344
Si Si2 0.381478 0.410782 0.169488
Si Si3 0.953299 0.330924 0.172734
Si Si4 0.880176 0.410955 0.333262
Si Si5 0.208520 0.914382 0.176657
Si Si6 0.201846 0.409719 0.168619
O O1 0.051230 0.182335 0.500000
O O2 0.081754 0.120397 0.735569
O O3 0.049992 0.250951 0.752775
O O4 0.000000 0.144050 0.699471
O O5 0.380679 0.500000 0.175416
O O6 0.336016 0.382823 0.218186
O O7 0.387339 0.390278 0.000000
O O8 0.918333 0.381654 0.241061
O O9 0.000000 0.358549 0.200272
O O10 0.947958 0.324448 0.000000
O O11 0.883623 0.386739 0.500000
O O12 0.880246 0.500000 0.330279
O O13 0.836888 0.386032 0.263519
O O14 0.252989 0.882658 0.219612
O O15 0.208401 0.000000 0.224532
O O16 0.208822 0.915072 0.000000
O O17 0.203346 0.500000 0.171489
O O18 0.195817 0.388786 0.000000
#
# Coordination Sequence:
#
# PCOD9488194 Si02
#       6
#    16  16  16  16  16  16
#     4  10  21  36  52  70  96 130 164 199 245 300
#     4   9  17  30  50  76 103 130 164 205 244 283
#     4  10  21  37  56  74  92 121 164 207 244 288
#     4  10  20  32  48  74 106 134 159 192 238 288
#     4   7  11  22  42  68  96 126 160 198 238 278
#     4   8  13  24  44  68  95 128 164 198 232 275
#
# _framework density 17.713937999999999
#
# number of rings (size 3 to 8) (size 9 to 14) (size 15 to 20)
#    0.000    3.000    0.000    3.500    0.000    4.000 
#    0.000    4.167    0.000    4.000    0.000    7.000 
#    0.000    0.000    0.000    0.000    0.000    0.000 
#
# Total GULP energy -267298.869582 kJ/mol
# GULP energy per Si atom -5568.726450 kJ/mol
# Density = 1.767362 g / cm^3
# Si number density = 17.713938 Si / 1000 Ang^3
#
#
#
# Elastic Constant Matrix: (Units=GPa)
#
#
# Indices 1 2 3 4 5 6 
#
# 1 186.6064 32.6917 85.9844 0.0000 0.0000 0.0000
# 2 32.6917 7.1145 18.5662 0.0000 0.0000 0.0000
# 3 85.9844 18.5662 86.2134 0.0000 0.0000 0.0000
# 4 0.0000 0.0000 0.0000 22.6497 0.0000 0.0000
# 5 0.0000 0.0000 0.0000 0.0000 16.2234 0.0000
# 6 0.0000 0.0000 0.0000 0.0000 0.0000 -39.8345
#
#
#
# Elastic Compliance Matrix: (Units=1/GPa)
#
#
# Indices 1 2 3 4 5 6 
#
# 1 0.027492 -0.125052 -0.000489 0.000000 0.000000 0.000000
# 2 -0.125052 0.889720 -0.066883 0.000000 0.000000 0.000000
# 3 -0.000489 -0.066883 0.026490 0.000000 0.000000 0.000000
# 4 0.000000 0.000000 0.000000 0.044151 0.000000 0.000000
# 5 0.000000 0.000000 0.000000 0.000000 0.061639 0.000000
# 6 0.000000 0.000000 0.000000 0.000000 0.000000 -0.025104
#
#
# Mechanical properties :
#
#
# Convention : Reuss Voigt Hill
#
# Bulk Modulus (GPa) = 1.78938 61.60211 31.69574
# Shear Modulus (GPa) = 3.13377 9.32051 6.22714
#
# Velocity S-wave (km/s) = 1.33152 2.29632 1.87697
# Velocity P-wave (km/s) = 1.83746 6.47166 4.75703
#
# Compressibility (1/GPa) = 0.55885418
#
# Stress axis : x y z
#
# Youngs Moduli (GPa) = 36.37405 1.12395 37.75022
#
# Poissons Ratio (x) = 0.14055 0.01845
# Poissons Ratio (y) = 4.54866 2.52483
# Poissons Ratio (z) = 0.01778 0.07517
#
# Static dielectric constant tensor:
#      x y z
#    x 1.638950 0.000000 0.000000 
#    y 0.000000 1.592430 0.000000 
#    z 0.000000 0.000000 1.585370 
# 
# From -- ./inp_files/16307.got.cif
#   From: 2010.05.17/outbox.cif.g08.bks.cpg/sg65_9_cif.got.tgz:16307.got - 2010.06.03 17:01:31.
