data_PCOD9488591
_publ_section_title
;
Structure prediction by ZEFSAII (Michael W. Deem and Ramdas Pophale) SiO2 
 PCOD9488591
Probable space group: C M M M
;
_chemical_formula_sum "Si O2"
_cell_formula_units_Z 72
_cell_length_a 29.071261
_cell_length_b 16.718780
_cell_length_c 8.833426
_cell_angle_alpha 90.000000
_cell_angle_beta 90.000000
_cell_angle_gamma 90.000000
_cell_volume 4293.363189
_symmetry_space_group_name_H-M "C M M M"
_symmetry_group_IT_number 65
_symmetry_cell_setting 'orthorhombic'
loop_
_space_group_symop_operation_xyz
x,y,z
-x,-y,z
x,-y,-z
-x,y,-z
-x,-y,-z
x,y,-z
-x,y,z
x,-y,z
1/2+x,1/2+y,z
1/2-x,1/2-y,z
1/2+x,1/2-y,-z
1/2-x,1/2+y,-z
1/2-x,1/2-y,-z
1/2+x,1/2+y,-z
1/2-x,1/2+y,z
1/2+x,1/2-y,z
loop_
_atom_site_type_symbol
_atom_site_label
_atom_site_fract_x
_atom_site_fract_y
_atom_site_fract_z
Si Si1 0.862098 0.240160 0.818075
Si Si2 0.053594 0.324301 0.683630
Si Si3 0.690850 0.590623 0.319791
Si Si4 0.776179 0.335755 0.827116
Si Si5 0.055839 0.500000 0.673810
O O1 0.911731 0.260443 0.752130
O O2 0.841033 0.157180 0.758257
O O3 0.826635 0.311255 0.770575
O O4 0.862177 0.238708 0.000000
O O5 0.056331 0.324365 0.500000
O O6 0.067895 0.413584 0.740276
O O7 0.000000 0.311039 0.722838
O O8 0.686859 0.598916 0.500000
O O9 0.678699 0.500000 0.276227
O O10 0.743501 0.608506 0.271266
O O11 0.750000 0.250000 0.831840
O O12 0.778631 0.365734 0.000000
O O13 0.072470 0.500000 0.500000
O O14 0.000000 0.500000 0.667731
#
# Coordination Sequence:
#
# PCOD9488591 Si02
#       5
#    16  16  16  16   8
#     4  10  20  33  50  73 101 134 168 201 244 296
#     4   9  17  31  52  75 100 132 168 206 247 289
#     4  10  20  33  51  75  99 126 165 209 250 293
#     4   8  16  31  48  67  94 127 160 194 238 291
#     4   7  12  26  47  69  93 123 159 197 239 285
#
# _framework density 16.77007
#
# number of rings (size 3 to 8) (size 9 to 14) (size 15 to 20)
#    0.000    3.000    0.000    4.000    0.000    7.111 
#    2.000    0.556    0.000    2.667    0.000    4.667 
#    0.000    0.000    0.000    0.000    0.000    0.000 
#
# Total GULP energy -200408.418821 kJ/mol
# GULP energy per Si atom -5566.900523 kJ/mol
# Density = 1.673190 g / cm^3
# Si number density = 16.770070 Si / 1000 Ang^3
#
#
#
# Elastic Constant Matrix: (Units=GPa)
#
#
# Indices 1 2 3 4 5 6 
#
# 1 102.0783 56.8012 33.3678 0.0000 0.0000 0.0000
# 2 56.8012 98.1987 37.6279 0.0000 0.0000 0.0000
# 3 33.3678 37.6279 33.2796 0.0000 0.0000 0.0000
# 4 0.0000 0.0000 0.0000 -0.6258 0.0000 0.0000
# 5 0.0000 0.0000 0.0000 0.0000 23.6908 0.0000
# 6 0.0000 0.0000 0.0000 0.0000 0.0000 21.2224
#
#
#
# Elastic Compliance Matrix: (Units=1/GPa)
#
#
# Indices 1 2 3 4 5 6 
#
# 1 0.016107 -0.005520 -0.009908 0.000000 0.000000 0.000000
# 2 -0.005520 0.019860 -0.016920 0.000000 0.000000 0.000000
# 3 -0.009908 -0.016920 0.059114 0.000000 0.000000 0.000000
# 4 0.000000 0.000000 0.000000 -1.598027 0.000000 0.000000
# 5 0.000000 0.000000 0.000000 0.000000 0.042210 0.000000
# 6 0.000000 0.000000 0.000000 0.000000 0.000000 0.047120
#
#
# Mechanical properties :
#
#
# Convention : Reuss Voigt Hill
#
# Bulk Modulus (GPa) = 32.91232 54.35005 43.63119
# Shear Modulus (GPa) = -3.73471 15.90813 6.08671
#
# Velocity S-wave (km/s) = -1.49394 3.08328 1.90719
# Velocity P-wave (km/s) = 4.08564 6.71973 5.56090
#
# Compressibility (1/GPa) = 0.03038376
#
# Stress axis : x y z
#
# Youngs Moduli (GPa) = 62.08532 50.35279 16.91654
#
# Poissons Ratio (x) = 0.27795 0.16761
# Poissons Ratio (y) = 0.34271 0.28623
# Poissons Ratio (z) = 0.61516 0.85197
#
# Static dielectric constant tensor:
#      x y z
#    x 1.569710 0.000000 0.000000 
#    y 0.000000 1.576940 0.000000 
#    z 0.000000 0.000000 1.567810 
# 
# From -- ./inp_files/18026.got.cif
#   From: 2010.05.17/outbox.cif.g08.bks.cpg/sg65_10_cif.got.tgz:18026.got - 2010.06.03 17:01:31.
