data_PCOD9488106
_publ_section_title
;
Structure prediction by ZEFSAII (Michael W. Deem and Ramdas Pophale) SiO2 
 PCOD9488106
Probable space group: C M M M
;
_chemical_formula_sum "Si O2"
_cell_formula_units_Z 112
_cell_length_a 23.147403
_cell_length_b 17.405941
_cell_length_c 13.930936
_cell_angle_alpha 90.000000
_cell_angle_beta 90.000000
_cell_angle_gamma 90.000000
_cell_volume 5612.806586
_symmetry_space_group_name_H-M "C M M M"
_symmetry_group_IT_number 65
_symmetry_cell_setting 'orthorhombic'
loop_
_space_group_symop_operation_xyz
x,y,z
-x,-y,z
x,-y,-z
-x,y,-z
-x,-y,-z
x,y,-z
-x,y,z
x,-y,z
1/2+x,1/2+y,z
1/2-x,1/2-y,z
1/2+x,1/2-y,-z
1/2-x,1/2+y,-z
1/2-x,1/2-y,-z
1/2+x,1/2+y,-z
1/2-x,1/2+y,z
1/2+x,1/2-y,z
loop_
_atom_site_type_symbol
_atom_site_label
_atom_site_fract_x
_atom_site_fract_y
_atom_site_fract_z
Si Si1 0.660746 0.910956 0.724320
Si Si2 0.564101 0.674624 0.757583
Si Si3 0.568297 0.817254 0.387713
Si Si4 0.263389 0.662614 0.614638
Si Si5 0.225117 0.335423 0.887460
Si Si6 0.846659 0.911704 0.114771
Si Si7 0.383891 0.411847 0.607969
O O1 0.607491 0.882830 0.659405
O O2 0.717661 0.893899 0.661511
O O3 0.672687 0.859632 0.819011
O O4 0.655676 0.000000 0.749408
O O5 0.500000 0.684785 0.798867
O O6 0.576279 0.745696 0.685363
O O7 0.611699 0.650573 0.835445
O O8 0.566497 0.603905 0.683130
O O9 0.585090 0.802131 0.500000
O O10 0.500000 0.835195 0.387947
O O11 0.257814 0.659072 0.500000
O O12 0.250000 0.750000 0.644734
O O13 0.328161 0.637513 0.637843
O O14 0.250000 0.250000 0.870848
O O15 0.279694 0.391091 0.866708
O O16 0.210104 0.341352 0.000000
O O17 0.858430 0.000000 0.145752
O O18 0.854596 0.907770 0.000000
O O19 0.401249 0.390392 0.500000
O O20 0.365987 0.500000 0.607440
#
# Coordination Sequence:
#
# PCOD9488106 Si02
#       7
#    16  16  16  16  16  16  16
#     4  12  23  35  59  90 118 150 190 237 289 349
#     4  11  22  37  58  79 104 147 200 245 287 341
#     4  10  23  43  63  84 114 152 196 247 298 349
#     4  10  20  34  53  77 108 146 187 233 285 343
#     4  10  21  39  64  91 120 156 197 240 287 343
#     4  10  21  37  58  87 124 160 193 238 298 355
#     4  10  20  32  47  72 107 141 176 227 290 350
#
# _framework density 19.954367999999999
#
# number of rings (size 3 to 8) (size 9 to 14) (size 15 to 20)
#    0.000    1.571    0.000    5.143    0.000    6.286 
#    0.000    2.143    0.000    1.286    0.000    1.000 
#    0.000    0.000    0.000    0.000    0.000    0.000 
#
# Total GULP energy -312741.438096 kJ/mol
# GULP energy per Si atom -5584.668537 kJ/mol
# Density = 1.990895 g / cm^3
# Si number density = 19.954368 Si / 1000 Ang^3
#
#
#
# Elastic Constant Matrix: (Units=GPa)
#
#
# Indices 1 2 3 4 5 6 
#
# 1 52.7918 20.8153 37.3756 0.0000 0.0000 0.0000
# 2 20.8153 85.3522 26.4725 0.0000 0.0000 0.0000
# 3 37.3756 26.4725 96.6462 0.0000 0.0000 0.0000
# 4 0.0000 0.0000 0.0000 20.1619 0.0000 0.0000
# 5 0.0000 0.0000 0.0000 0.0000 26.1292 0.0000
# 6 0.0000 0.0000 0.0000 0.0000 0.0000 18.2959
#
#
#
# Elastic Compliance Matrix: (Units=1/GPa)
#
#
# Indices 1 2 3 4 5 6 
#
# 1 0.027097 -0.003670 -0.009474 0.000000 0.000000 0.000000
# 2 -0.003670 0.013301 -0.002224 0.000000 0.000000 0.000000
# 3 -0.009474 -0.002224 0.014620 0.000000 0.000000 0.000000
# 4 0.000000 0.000000 0.000000 0.049598 0.000000 0.000000
# 5 0.000000 0.000000 0.000000 0.000000 0.038271 0.000000
# 6 0.000000 0.000000 0.000000 0.000000 0.000000 0.054657
#
#
# Mechanical properties :
#
#
# Convention : Reuss Voigt Hill
#
# Bulk Modulus (GPa) = 41.18246 44.90189 43.04217
# Shear Modulus (GPa) = 21.15295 22.92585 22.03940
#
# Velocity S-wave (km/s) = 3.25940 3.39324 3.32699
# Velocity P-wave (km/s) = 5.90322 6.15656 6.03122
#
# Compressibility (1/GPa) = 0.02428219
#
# Stress axis : x y z
#
# Youngs Moduli (GPa) = 36.90509 75.18263 68.39965
#
# Poissons Ratio (x) = 0.27591 0.64800
# Poissons Ratio (y) = 0.13544 0.15213
# Poissons Ratio (z) = 0.34963 0.16721
#
# Static dielectric constant tensor:
#      x y z
#    x 1.707680 0.000000 0.000000 
#    y 0.000000 1.739130 0.000000 
#    z 0.000000 0.000000 1.731910 
# 
# From -- ./inp_files/45794.got.cif
#   From: 2010.05.17/outbox.cif.g08.bks.cpg/sg65_23_cif.got.tgz:45794.got - 2010.06.03 17:01:31.
