data_PCOD9488261
_publ_section_title
;
Structure prediction by ZEFSAII (Michael W. Deem and Ramdas Pophale) SiO2 
 PCOD9488261
Probable space group: C M M M
;
_chemical_formula_sum "Si O2"
_cell_formula_units_Z 96
_cell_length_a 17.155995
_cell_length_b 21.796992
_cell_length_c 13.777503
_cell_angle_alpha 90.000000
_cell_angle_beta 90.000000
_cell_angle_gamma 90.000000
_cell_volume 5152.084651
_symmetry_space_group_name_H-M "C M M M"
_symmetry_group_IT_number 65
_symmetry_cell_setting 'orthorhombic'
loop_
_space_group_symop_operation_xyz
x,y,z
-x,-y,z
x,-y,-z
-x,y,-z
-x,-y,-z
x,y,-z
-x,y,z
x,-y,z
1/2+x,1/2+y,z
1/2-x,1/2-y,z
1/2+x,1/2-y,-z
1/2-x,1/2+y,-z
1/2-x,1/2-y,-z
1/2+x,1/2+y,-z
1/2-x,1/2+y,z
1/2+x,1/2-y,z
loop_
_atom_site_type_symbol
_atom_site_label
_atom_site_fract_x
_atom_site_fract_y
_atom_site_fract_z
Si Si1 0.588187 0.427974 0.811272
Si Si2 0.641667 0.621642 0.387805
Si Si3 0.246519 0.121587 0.108627
Si Si4 0.186501 0.373669 0.316598
Si Si5 0.149230 0.500000 0.101290
Si Si6 0.589071 0.000000 0.305702
Si Si7 0.412775 0.241296 0.383960
O O1 0.500000 0.408989 0.835464
O O2 0.597043 0.500000 0.834299
O O3 0.601908 0.418884 0.695647
O O4 0.656190 0.391238 0.866228
O O5 0.618332 0.610235 0.500000
O O6 0.734226 0.614623 0.375518
O O7 0.621762 0.692060 0.360769
O O8 0.286057 0.146365 0.207388
O O9 0.292732 0.057307 0.104758
O O10 0.254292 0.149725 0.000000
O O11 0.136075 0.436643 0.326947
O O12 0.138569 0.316089 0.354181
O O13 0.090666 0.500000 0.189243
O O14 0.105988 0.500000 0.000000
O O15 0.500000 0.000000 0.343071
O O16 0.417435 0.240111 0.500000
O O17 0.500000 0.236247 0.342964
#
# Coordination Sequence:
#
# PCOD9488261 Si02
#       7
#    16  16  16  16   8   8  16
#     4  10  20  32  49  78 111 142 180 226 279 330
#     4  10  21  36  56  78 105 140 184 227 269 327
#     4   9  17  31  51  75 104 139 180 222 266 319
#     4  10  20  34  56  79 108 142 184 227 268 326
#     4   8  14  27  47  69  96 130 168 210 256 309
#     4  10  20  33  49  75 110 142 172 218 273 319
#     4  10  20  36  58  82 106 138 182 229 276 325
#
# _framework density 18.633234999999999
#
# number of rings (size 3 to 8) (size 9 to 14) (size 15 to 20)
#    0.000    2.333    0.833    2.000    3.500    3.167 
#    0.000    2.917    0.000   12.500    0.000    0.000 
#    0.000    0.000    0.000    0.000    0.000    0.000 
#
# Total GULP energy -267282.191581 kJ/mol
# GULP energy per Si atom -5568.378991 kJ/mol
# Density = 1.859082 g / cm^3
# Si number density = 18.633235 Si / 1000 Ang^3
#
#
#
# Elastic Constant Matrix: (Units=GPa)
#
#
# Indices 1 2 3 4 5 6 
#
# 1 102.0558 19.1802 -8.9142 0.0000 0.0000 0.0000
# 2 19.1802 26.1514 -3.8286 0.0000 0.0000 0.0000
# 3 -8.9142 -3.8286 36.5444 0.0000 0.0000 0.0000
# 4 0.0000 0.0000 0.0000 31.9324 0.0000 0.0000
# 5 0.0000 0.0000 0.0000 0.0000 13.4635 0.0000
# 6 0.0000 0.0000 0.0000 0.0000 0.0000 26.7050
#
#
#
# Elastic Compliance Matrix: (Units=1/GPa)
#
#
# Indices 1 2 3 4 5 6 
#
# 1 0.011501 -0.008149 0.001952 0.000000 0.000000 0.000000
# 2 -0.008149 0.044609 0.002686 0.000000 0.000000 0.000000
# 3 0.001952 0.002686 0.028121 0.000000 0.000000 0.000000
# 4 0.000000 0.000000 0.000000 0.031316 0.000000 0.000000
# 5 0.000000 0.000000 0.000000 0.000000 0.074275 0.000000
# 6 0.000000 0.000000 0.000000 0.000000 0.000000 0.037446
#
#
# Mechanical properties :
#
#
# Convention : Reuss Voigt Hill
#
# Bulk Modulus (GPa) = 12.95219 19.73627 16.34423
# Shear Modulus (GPa) = 19.22873 24.97446 22.10160
#
# Velocity S-wave (km/s) = 3.21590 3.66501 3.44777
# Velocity P-wave (km/s) = 4.55582 5.34085 4.96388
#
# Compressibility (1/GPa) = 0.07720703
#
# Stress axis : x y z
#
# Youngs Moduli (GPa) = 86.95229 22.41705 35.56013
#
# Poissons Ratio (x) = 0.18268 -0.06940
# Poissons Ratio (y) = 0.70859 -0.09550
# Poissons Ratio (z) = -0.16969 -0.06020
#
# Static dielectric constant tensor:
#      x y z
#    x 1.645480 0.000000 0.000000 
#    y 0.000000 1.614770 0.000000 
#    z 0.000000 0.000000 1.698630 
# 
# From -- ./inp_files/40409.got.cif
#   From: 2010.05.17/outbox.cif.g08.bks.cpg/sg65_21_cif.got.tgz:40409.got - 2010.06.03 17:01:31.
