data_PCOD9488557
_publ_section_title
;
Structure prediction by ZEFSAII (Michael W. Deem and Ramdas Pophale) SiO2 
 PCOD9488557
Probable space group: C M M M
;
_chemical_formula_sum "Si O2"
_cell_formula_units_Z 80
_cell_length_a 9.376347
_cell_length_b 19.600790
_cell_length_c 26.187665
_cell_angle_alpha 90.000000
_cell_angle_beta 90.000000
_cell_angle_gamma 90.000000
_cell_volume 4812.868810
_symmetry_space_group_name_H-M "C M M M"
_symmetry_group_IT_number 65
_symmetry_cell_setting 'orthorhombic'
loop_
_space_group_symop_operation_xyz
x,y,z
-x,-y,z
x,-y,-z
-x,y,-z
-x,-y,-z
x,y,-z
-x,y,z
x,-y,z
1/2+x,1/2+y,z
1/2-x,1/2-y,z
1/2+x,1/2-y,-z
1/2-x,1/2+y,-z
1/2-x,1/2-y,-z
1/2+x,1/2+y,-z
1/2-x,1/2+y,z
1/2+x,1/2-y,z
loop_
_atom_site_type_symbol
_atom_site_label
_atom_site_fract_x
_atom_site_fract_y
_atom_site_fract_z
Si Si1 0.164058 0.917018 0.099082
Si Si2 0.663583 0.083352 0.000000
Si Si3 0.830121 0.320586 0.411149
Si Si4 0.829847 0.321533 0.708031
Si Si5 0.173559 0.577622 0.500000
Si Si6 0.170378 0.918624 0.214392
O O1 0.209290 0.897231 0.156291
O O2 0.000000 0.896259 0.091417
O O3 0.165602 0.000000 0.098927
O O4 0.258521 0.893766 0.051698
O O5 0.500000 0.104167 0.000000
O O6 0.668304 0.000000 0.000000
O O7 0.750000 0.250000 0.422303
O O8 0.805553 0.338661 0.351815
O O9 0.784158 0.379591 0.449990
O O10 0.000000 0.309992 0.417607
O O11 0.750000 0.250000 0.717643
O O12 0.761094 0.377641 0.744647
O O13 0.000000 0.315109 0.715892
O O14 0.225629 0.500000 0.500000
O O15 0.000000 0.575086 0.500000
O O16 0.000000 0.906691 0.220596
O O17 0.193186 0.000000 0.218986
#
# Coordination Sequence:
#
# PCOD9488557 Si02
#       6
#    16   8  16  16   8  16
#     4   8  14  25  40  58  84 120 157 190 230 283
#     4   9  15  21  33  57  88 119 152 193 236 275
#     4   9  18  32  51  72  93 123 160 197 236 279
#     4  10  20  33  50  72  97 126 163 204 243 287
#     4   9  17  30  49  73 100 127 156 192 234 281
#     4   9  18  32  49  70  97 128 161 199 245 293
#
# _framework density 16.622102999999999
#
# number of rings (size 3 to 8) (size 9 to 14) (size 15 to 20)
#    0.000    3.000    0.000    2.400    0.000    4.000 
#    0.000    4.000    0.000    1.200    0.000    0.700 
#    0.000    0.000    0.000    0.000    0.000    0.000 
#
# Total GULP energy -222837.086306 kJ/mol
# GULP energy per Si atom -5570.927158 kJ/mol
# Density = 1.658427 g / cm^3
# Si number density = 16.622103 Si / 1000 Ang^3
#
#
#
# Elastic Constant Matrix: (Units=GPa)
#
#
# Indices 1 2 3 4 5 6 
#
# 1 67.6490 51.3978 80.1040 0.0000 0.0000 0.0000
# 2 51.3978 73.1648 85.5700 0.0000 0.0000 0.0000
# 3 80.1040 85.5700 142.8223 0.0000 0.0000 0.0000
# 4 0.0000 0.0000 0.0000 -25.3860 0.0000 0.0000
# 5 0.0000 0.0000 0.0000 0.0000 13.1174 0.0000
# 6 0.0000 0.0000 0.0000 0.0000 0.0000 22.4173
#
#
#
# Elastic Compliance Matrix: (Units=1/GPa)
#
#
# Indices 1 2 3 4 5 6 
#
# 1 0.045061 -0.007006 -0.021075 0.000000 0.000000 0.000000
# 2 -0.007006 0.046758 -0.024085 0.000000 0.000000 0.000000
# 3 -0.021075 -0.024085 0.033252 0.000000 0.000000 0.000000
# 4 0.000000 0.000000 0.000000 -0.039392 0.000000 0.000000
# 5 0.000000 0.000000 0.000000 0.000000 0.076234 0.000000
# 6 0.000000 0.000000 0.000000 0.000000 0.000000 0.044608
#
#
# Mechanical properties :
#
#
# Convention : Reuss Voigt Hill
#
# Bulk Modulus (GPa) = 48.22001 79.75330 63.98665
# Shear Modulus (GPa) = 15.73469 6.46737 11.10103
#
# Velocity S-wave (km/s) = 3.08004 1.97466 2.58708
# Velocity P-wave (km/s) = 6.45921 7.29955 6.89220
#
# Compressibility (1/GPa) = 0.02073828
#
# Stress axis : x y z
#
# Youngs Moduli (GPa) = 22.19207 21.38653 30.07301
#
# Poissons Ratio (x) = 0.14984 0.63380
# Poissons Ratio (y) = 0.15549 0.72431
# Poissons Ratio (z) = 0.46771 0.51510
#
# Static dielectric constant tensor:
#      x y z
#    x 1.549880 0.000000 0.000000 
#    y 0.000000 1.535790 0.000000 
#    z 0.000000 0.000000 1.567500 
# 
# From -- ./inp_files/72931.got.cif
#   From: 2010.05.17/outbox.cif.g08.bks.cpg/sg65_37_cif.got.tgz:72931.got - 2010.06.03 17:01:31.
