data_PCOD9488265
_publ_section_title
;
Structure prediction by ZEFSAII (Michael W. Deem and Ramdas Pophale) SiO2 
 PCOD9488265
Probable space group: C M M M
;
_chemical_formula_sum "Si O2"
_cell_formula_units_Z 72
_cell_length_a 15.744571
_cell_length_b 29.843834
_cell_length_c 7.933345
_cell_angle_alpha 90.000000
_cell_angle_beta 90.000000
_cell_angle_gamma 90.000000
_cell_volume 3727.707164
_symmetry_space_group_name_H-M "C M M M"
_symmetry_group_IT_number 65
_symmetry_cell_setting 'orthorhombic'
loop_
_space_group_symop_operation_xyz
x,y,z
-x,-y,z
x,-y,-z
-x,y,-z
-x,-y,-z
x,y,-z
-x,y,z
x,-y,z
1/2+x,1/2+y,z
1/2-x,1/2-y,z
1/2+x,1/2-y,-z
1/2-x,1/2+y,-z
1/2-x,1/2-y,-z
1/2+x,1/2+y,-z
1/2-x,1/2+y,z
1/2+x,1/2-y,z
loop_
_atom_site_type_symbol
_atom_site_label
_atom_site_fract_x
_atom_site_fract_y
_atom_site_fract_z
Si Si1 0.000000 0.945697 0.690980
Si Si2 0.903092 0.292946 0.796125
Si Si3 0.095997 0.809840 0.301402
Si Si4 0.313038 0.449437 0.200744
Si Si5 0.761838 0.638964 0.197979
O O1 0.089424 0.933855 0.773269
O O2 0.000000 0.928974 0.500000
O O3 0.000000 0.000000 0.690208
O O4 0.889907 0.243275 0.724137
O O5 0.834813 0.328775 0.731677
O O6 0.000000 0.306471 0.758297
O O7 0.895003 0.289080 0.000000
O O8 0.099196 0.819967 0.500000
O O9 0.171825 0.835999 0.213782
O O10 0.000000 0.820078 0.239887
O O11 0.303370 0.500000 0.270225
O O12 0.252221 0.410745 0.271111
O O13 0.299971 0.452115 0.000000
O O14 0.781669 0.633501 0.000000
#
# Coordination Sequence:
#
# PCOD9488265 Si02
#       5
#     8  16  16  16  16
#     4   9  17  29  45  65  91 123 157 193 233 277
#     4   9  18  34  53  71  94 125 161 200 240 284
#     4  10  21  34  48  71 102 130 156 192 239 288
#     4   9  18  32  48  67  94 127 161 196 234 279
#     4  10  20  32  50  73  95 126 165 199 235 283
#
# _framework density 19.314821999999999
#
# number of rings (size 3 to 8) (size 9 to 14) (size 15 to 20)
#    0.000    2.556    0.000    1.667    1.556    7.111 
#    0.000    0.000    0.000    0.667    0.000    4.667 
#    0.000    0.000    0.000   13.111    0.000   13.778 
#
# Total GULP energy -200822.680934 kJ/mol
# GULP energy per Si atom -5578.407804 kJ/mol
# Density = 1.927086 g / cm^3
# Si number density = 19.314822 Si / 1000 Ang^3
#
#
#
# Elastic Constant Matrix: (Units=GPa)
#
#
# Indices 1 2 3 4 5 6 
#
# 1 51.4022 42.6276 -3.8609 0.0000 0.0000 0.0000
# 2 42.6276 77.2938 -4.9746 0.0000 0.0000 0.0000
# 3 -3.8609 -4.9746 18.6851 0.0000 0.0000 0.0000
# 4 0.0000 0.0000 0.0000 -8.6196 0.0000 0.0000
# 5 0.0000 0.0000 0.0000 0.0000 1.4624 0.0000
# 6 0.0000 0.0000 0.0000 0.0000 0.0000 21.6085
#
#
#
# Elastic Compliance Matrix: (Units=1/GPa)
#
#
# Indices 1 2 3 4 5 6 
#
# 1 0.035939 -0.019680 0.002187 0.000000 0.000000 0.000000
# 2 -0.019680 0.023939 0.002307 0.000000 0.000000 0.000000
# 3 0.002187 0.002307 0.054585 0.000000 0.000000 0.000000
# 4 0.000000 0.000000 0.000000 -0.116015 0.000000 0.000000
# 5 0.000000 0.000000 0.000000 0.000000 0.683830 0.000000
# 6 0.000000 0.000000 0.000000 0.000000 0.000000 0.046278
#
#
# Mechanical properties :
#
#
# Convention : Reuss Voigt Hill
#
# Bulk Modulus (GPa) = 11.89183 23.88504 17.88843
# Shear Modulus (GPa) = 6.35358 10.46284 8.40821
#
# Velocity S-wave (km/s) = 1.81566 2.32997 2.08871
# Velocity P-wave (km/s) = 3.25049 4.43073 3.88568
#
# Compressibility (1/GPa) = 0.08409135
#
# Stress axis : x y z
#
# Youngs Moduli (GPa) = 27.82505 41.77207 18.32015
#
# Poissons Ratio (x) = 0.82206 -0.04006
# Poissons Ratio (y) = 0.54759 -0.04227
# Poissons Ratio (z) = -0.06084 -0.09637
#
# Static dielectric constant tensor:
#      x y z
#    x 1.660890 0.000000 0.000000 
#    y 0.000000 1.725530 0.000000 
#    z 0.000000 0.000000 1.690910 
# 
# From -- ./inp_files/7228.got.cif
#   From: 2010.05.17/outbox.cif.g08.bks.cpg/sg65_4_cif.got.tgz:7228.got - 2010.06.03 17:01:31.
