data_PCOD9488056
_publ_section_title
;
Structure prediction by ZEFSAII (Michael W. Deem and Ramdas Pophale) SiO2 
 PCOD9488056
Probable space group: C M M M
;
_chemical_formula_sum "Si O2"
_cell_formula_units_Z 88
_cell_length_a 9.296933
_cell_length_b 18.607751
_cell_length_c 29.436745
_cell_angle_alpha 90.000000
_cell_angle_beta 90.000000
_cell_angle_gamma 90.000000
_cell_volume 5092.410123
_symmetry_space_group_name_H-M "C M M M"
_symmetry_group_IT_number 65
_symmetry_cell_setting 'orthorhombic'
loop_
_space_group_symop_operation_xyz
x,y,z
-x,-y,z
x,-y,-z
-x,y,-z
-x,-y,-z
x,y,-z
-x,y,z
x,-y,z
1/2+x,1/2+y,z
1/2-x,1/2-y,z
1/2+x,1/2-y,-z
1/2-x,1/2+y,-z
1/2-x,1/2-y,-z
1/2+x,1/2+y,-z
1/2-x,1/2+y,z
1/2+x,1/2-y,z
loop_
_atom_site_type_symbol
_atom_site_label
_atom_site_fract_x
_atom_site_fract_y
_atom_site_fract_z
Si Si1 0.166014 0.912297 0.000000
Si Si2 0.165970 0.412266 0.909430
Si Si3 0.825104 0.416940 0.550729
Si Si4 0.670431 0.085151 0.271616
Si Si5 0.173506 0.673959 0.637849
Si Si6 0.834290 0.087630 0.819206
O O1 0.248811 0.889469 0.045504
O O2 0.000000 0.889413 0.000000
O O3 0.166138 0.000000 0.000000
O O4 0.166521 0.500000 0.909356
O O5 0.245836 0.388937 0.863497
O O6 0.000000 0.389534 0.910407
O O7 0.779308 0.393944 0.500000
O O8 0.781444 0.500000 0.557412
O O9 0.778559 0.367598 0.592276
O O10 0.000000 0.416617 0.550989
O O11 0.500000 0.093911 0.262474
O O12 0.706611 0.127260 0.317435
O O13 0.759569 0.109778 0.227774
O O14 0.695960 0.000000 0.278473
O O15 0.250000 0.750000 0.640662
O O16 0.000000 0.682112 0.636002
O O17 0.000000 0.110320 0.821597
O O18 0.832180 0.000000 0.819464
#
# Coordination Sequence:
#
# PCOD9488056 Si02
#       6
#     8  16  16  16  16  16
#     4   9  15  21  29  43  67 101 140 181 224 269
#     4   9  15  22  32  47  70 102 140 179 220 270
#     4   8  14  27  49  74  96 121 158 199 231 264
#     4   9  17  30  47  64  83 112 152 193 229 269
#     4  10  20  32  47  69  96 124 153 188 232 279
#     4   9  16  25  38  57  79 103 136 181 230 275
#
# _framework density 17.280619999999999
#
# number of rings (size 3 to 8) (size 9 to 14) (size 15 to 20)
#    0.000    3.000    0.000    2.455    0.000    8.727 
#    0.000    0.000    0.000    1.636    0.000    1.273 
#    0.000    0.000    0.000    0.818    0.000   12.000 
#
# Total GULP energy -245175.713250 kJ/mol
# GULP energy per Si atom -5572.175301 kJ/mol
# Density = 1.724129 g / cm^3
# Si number density = 17.280620 Si / 1000 Ang^3
#
#
#
# Elastic Constant Matrix: (Units=GPa)
#
#
# Indices 1 2 3 4 5 6 
#
# 1 95.3263 34.5912 98.9936 0.0000 0.0000 0.0000
# 2 34.5912 32.9820 57.8954 0.0000 0.0000 0.0000
# 3 98.9936 57.8954 205.8379 0.0000 0.0000 0.0000
# 4 0.0000 0.0000 0.0000 -3.6373 0.0000 0.0000
# 5 0.0000 0.0000 0.0000 0.0000 13.4741 0.0000
# 6 0.0000 0.0000 0.0000 0.0000 0.0000 15.7890
#
#
#
# Elastic Compliance Matrix: (Units=1/GPa)
#
#
# Indices 1 2 3 4 5 6 
#
# 1 0.022227 -0.008982 -0.008163 0.000000 0.000000 0.000000
# 2 -0.008982 0.063517 -0.013546 0.000000 0.000000 0.000000
# 3 -0.008163 -0.013546 0.012594 0.000000 0.000000 0.000000
# 4 0.000000 0.000000 0.000000 -0.274929 0.000000 0.000000
# 5 0.000000 0.000000 0.000000 0.000000 0.074216 0.000000
# 6 0.000000 0.000000 0.000000 0.000000 0.000000 0.063335
#
#
# Mechanical properties :
#
#
# Convention : Reuss Voigt Hill
#
# Bulk Modulus (GPa) = 27.05867 79.67852 53.36860
# Shear Modulus (GPa) = 144.25329 14.63622 79.44476
#
# Velocity S-wave (km/s) = 9.14648 2.91344 6.78772
# Velocity P-wave (km/s) = 11.27992 7.58460 9.61152
#
# Compressibility (1/GPa) = 0.03695673
#
# Stress axis : x y z
#
# Youngs Moduli (GPa) = 44.99064 15.74374 79.40207
#
# Poissons Ratio (x) = 0.14141 0.64818
# Poissons Ratio (y) = 0.40409 1.07556
# Poissons Ratio (z) = 0.36727 0.21326
#
# Static dielectric constant tensor:
#      x y z
#    x 1.577810 0.000000 0.000000 
#    y 0.000000 1.551730 0.000000 
#    z 0.000000 0.000000 1.582830 
# 
# From -- ./inp_files/76667.got.cif
#   From: 2010.05.17/outbox.cif.g08.bks.cpg/sg65_39_cif.got.tgz:76667.got - 2010.06.03 17:01:31.
