data_PCOD9488870
_publ_section_title
;
Structure prediction by ZEFSAII (Michael W. Deem and Ramdas Pophale) SiO2 
 PCOD9488870
Probable space group: C M M M
;
_chemical_formula_sum "Si O2"
_cell_formula_units_Z 112
_cell_length_a 15.759053
_cell_length_b 30.970483
_cell_length_c 11.623526
_cell_angle_alpha 90.000000
_cell_angle_beta 90.000000
_cell_angle_gamma 90.000000
_cell_volume 5673.041832
_symmetry_space_group_name_H-M "C M M M"
_symmetry_group_IT_number 65
_symmetry_cell_setting 'orthorhombic'
loop_
_space_group_symop_operation_xyz
x,y,z
-x,-y,z
x,-y,-z
-x,y,-z
-x,-y,-z
x,y,-z
-x,y,z
x,-y,z
1/2+x,1/2+y,z
1/2-x,1/2-y,z
1/2+x,1/2-y,-z
1/2-x,1/2+y,-z
1/2-x,1/2-y,-z
1/2+x,1/2+y,-z
1/2-x,1/2+y,z
1/2+x,1/2-y,z
loop_
_atom_site_type_symbol
_atom_site_label
_atom_site_fract_x
_atom_site_fract_y
_atom_site_fract_z
Si Si1 0.250044 0.451409 0.795618
Si Si2 0.094416 0.838186 0.697862
Si Si3 0.096102 0.064163 0.629328
Si Si4 0.598673 0.198649 0.133669
Si Si5 0.852286 0.252943 0.372253
Si Si6 0.239390 0.141808 0.123798
Si Si7 0.905472 0.552245 0.370022
O O1 0.236718 0.500000 0.842704
O O2 0.333290 0.452231 0.715753
O O3 0.261524 0.410075 0.875287
O O4 0.170018 0.438458 0.716093
O O5 0.098384 0.883623 0.631710
O O6 0.108842 0.794988 0.627035
O O7 0.172374 0.840914 0.785342
O O8 0.000000 0.836337 0.751710
O O9 0.113697 0.049648 0.500000
O O10 0.000000 0.051670 0.661109
O O11 0.500000 0.185733 0.138285
O O12 0.616441 0.226533 0.250309
O O13 0.666410 0.159956 0.143688
O O14 0.611195 0.216588 0.000000
O O15 0.872212 0.273074 0.500000
O O16 0.750000 0.250000 0.365442
O O17 0.211455 0.158195 0.000000
O O18 0.888161 0.567809 0.500000
O O19 0.908413 0.500000 0.375292
O O20 0.000000 0.567051 0.335592
#
# Coordination Sequence:
#
# PCOD9488870 Si02
#       7
#    16  16  16  16  16  16  16
#     4  10  20  33  52  78 104 137 182 234 290 349
#     4  10  20  36  58  84 114 152 191 232 282 340
#     4   9  18  32  51  76 108 146 184 222 270 333
#     4  10  22  41  63  86 117 162 207 243 289 349
#     4  11  22  37  62  96 130 162 195 239 293 348
#     4  10  22  40  58  78 108 146 190 247 296 345
#     4   8  14  26  45  70 100 131 164 208 266 333
#
# _framework density 19.742495000000002
#
# number of rings (size 3 to 8) (size 9 to 14) (size 15 to 20)
#    0.000    2.286    1.429    1.714    0.000    4.857 
#    0.000    1.429    0.000    0.000    0.000    8.000 
#    0.000    0.000    0.000    0.000    0.000    0.000 
#
# Total GULP energy -311792.646029 kJ/mol
# GULP energy per Si atom -5567.725822 kJ/mol
# Density = 1.969756 g / cm^3
# Si number density = 19.742495 Si / 1000 Ang^3
#
#
#
# Elastic Constant Matrix: (Units=GPa)
#
#
# Indices 1 2 3 4 5 6 
#
# 1 105.9567 16.6748 58.9765 0.0000 0.0000 0.0000
# 2 16.6748 71.8605 29.1509 0.0000 0.0000 0.0000
# 3 58.9765 29.1509 119.6511 0.0000 0.0000 0.0000
# 4 0.0000 0.0000 0.0000 -74.8195 0.0000 0.0000
# 5 0.0000 0.0000 0.0000 0.0000 17.2215 0.0000
# 6 0.0000 0.0000 0.0000 0.0000 0.0000 24.2006
#
#
#
# Elastic Compliance Matrix: (Units=1/GPa)
#
#
# Indices 1 2 3 4 5 6 
#
# 1 0.013020 -0.000464 -0.006305 0.000000 0.000000 0.000000
# 2 -0.000464 0.015459 -0.003538 0.000000 0.000000 0.000000
# 3 -0.006305 -0.003538 0.012327 0.000000 0.000000 0.000000
# 4 0.000000 0.000000 0.000000 -0.013366 0.000000 0.000000
# 5 0.000000 0.000000 0.000000 0.000000 0.058067 0.000000
# 6 0.000000 0.000000 0.000000 0.000000 0.000000 0.041321
#
#
# Mechanical properties :
#
#
# Convention : Reuss Voigt Hill
#
# Bulk Modulus (GPa) = 49.52040 56.34141 52.93090
# Shear Modulus (GPa) = 32.43136 6.16492 19.29814
#
# Velocity S-wave (km/s) = 4.05744 1.76902 3.12988
# Velocity P-wave (km/s) = 6.86207 5.72474 6.31905
#
# Compressibility (1/GPa) = 0.02019370
#
# Stress axis : x y z
#
# Youngs Moduli (GPa) = 76.80482 64.68921 81.12196
#
# Poissons Ratio (x) = 0.02999 0.51145
# Poissons Ratio (y) = 0.03561 0.28698
# Poissons Ratio (z) = 0.48423 0.22885
#
# Static dielectric constant tensor:
#      x y z
#    x 1.680080 0.000000 0.000000 
#    y 0.000000 1.713220 0.000000 
#    z 0.000000 0.000000 1.739140 
# 
# From -- ./inp_files/25560.got.cif
#   From: 2010.05.17/outbox.cif.g08.bks.cpg/sg65_13_cif.got.tgz:25560.got - 2010.06.03 17:01:31.
