data_PCOD9488634
_publ_section_title
;
Structure prediction by ZEFSAII (Michael W. Deem and Ramdas Pophale) SiO2 
 PCOD9488634
Probable space group: C M M M
;
_chemical_formula_sum "Si O2"
_cell_formula_units_Z 80
_cell_length_a 19.085481
_cell_length_b 13.745915
_cell_length_c 12.992190
_cell_angle_alpha 90.000000
_cell_angle_beta 90.000000
_cell_angle_gamma 90.000000
_cell_volume 3408.467261
_symmetry_space_group_name_H-M "C M M M"
_symmetry_group_IT_number 65
_symmetry_cell_setting 'orthorhombic'
loop_
_space_group_symop_operation_xyz
x,y,z
-x,-y,z
x,-y,-z
-x,y,-z
-x,-y,-z
x,y,-z
-x,y,z
x,-y,z
1/2+x,1/2+y,z
1/2-x,1/2-y,z
1/2+x,1/2-y,-z
1/2-x,1/2+y,-z
1/2-x,1/2-y,-z
1/2+x,1/2+y,-z
1/2-x,1/2+y,z
1/2+x,1/2-y,z
loop_
_atom_site_type_symbol
_atom_site_label
_atom_site_fract_x
_atom_site_fract_y
_atom_site_fract_z
Si Si1 0.923667 0.884365 0.807559
Si Si2 0.119856 0.382077 0.111594
Si Si3 0.076263 0.708823 0.675513
Si Si4 0.725540 0.616370 0.833934
Si Si5 0.219188 0.384035 0.611508
O O1 0.921751 0.823182 0.701961
O O2 0.852620 0.854710 0.866513
O O3 0.000000 0.865183 0.856056
O O4 0.919395 0.000000 0.789383
O O5 0.118495 0.500000 0.120697
O O6 0.081980 0.338793 0.210286
O O7 0.201913 0.350050 0.116807
O O8 0.090661 0.356451 0.000000
O O9 0.144579 0.669500 0.619144
O O10 0.000000 0.684348 0.630690
O O11 0.727226 0.500000 0.847121
O O12 0.735580 0.639658 0.712383
O O13 0.252070 0.364180 0.500000
O O14 0.205711 0.500000 0.618314
#
# Coordination Sequence:
#
# PCOD9488634 Si02
#       5
#    16  16  16  16  16
#     4   9  18  34  55  74  96 132 171 209 255 294
#     4   9  18  32  51  77 106 133 161 197 246 301
#     4  10  20  33  50  74 103 133 169 208 243 290
#     4   8  15  31  53  74  99 130 165 205 246 293
#     4   9  18  32  51  77 106 133 161 197 246 301
#
# _framework density 23.470960000000002
#
# number of rings (size 3 to 8) (size 9 to 14) (size 15 to 20)
#    0.000    3.000    0.000    1.800    0.000    5.600 
#    0.000    6.000    0.000    7.200    0.000   19.600 
#    0.000    0.000    0.000    0.000    0.000    0.000 
#
# Total GULP energy -223176.922399 kJ/mol
# GULP energy per Si atom -5579.423060 kJ/mol
# Density = 2.341754 g / cm^3
# Si number density = 23.470960 Si / 1000 Ang^3
#
#
#
# Elastic Constant Matrix: (Units=GPa)
#
#
# Indices 1 2 3 4 5 6 
#
# 1 145.7419 26.1949 -2.7374 0.0000 0.0000 0.0000
# 2 26.1949 98.9276 1.8863 0.0000 0.0000 0.0000
# 3 -2.7374 1.8863 97.3735 0.0000 0.0000 0.0000
# 4 0.0000 0.0000 0.0000 4.6107 0.0000 0.0000
# 5 0.0000 0.0000 0.0000 0.0000 -9.0217 0.0000
# 6 0.0000 0.0000 0.0000 0.0000 0.0000 28.3115
#
#
#
# Elastic Compliance Matrix: (Units=1/GPa)
#
#
# Indices 1 2 3 4 5 6 
#
# 1 0.007210 -0.001914 0.000240 0.000000 0.000000 0.000000
# 2 -0.001914 0.010620 -0.000260 0.000000 0.000000 0.000000
# 3 0.000240 -0.000260 0.010282 0.000000 0.000000 0.000000
# 4 0.000000 0.000000 0.000000 0.216886 0.000000 0.000000
# 5 0.000000 0.000000 0.000000 0.000000 -0.110844 0.000000
# 6 0.000000 0.000000 0.000000 0.000000 0.000000 0.035321
#
#
# Mechanical properties :
#
#
# Convention : Reuss Voigt Hill
#
# Bulk Modulus (GPa) = 41.24630 43.63673 42.44151
# Shear Modulus (GPa) = 27.55979 25.89338 26.72658
#
# Velocity S-wave (km/s) = 3.43039 3.32506 3.37814
# Velocity P-wave (km/s) = 5.77075 5.77698 5.77387
#
# Compressibility (1/GPa) = 0.02424460
#
# Stress axis : x y z
#
# Youngs Moduli (GPa) = 138.69818 94.16129 97.26202
#
# Poissons Ratio (x) = 0.18019 -0.02332
# Poissons Ratio (y) = 0.26542 0.02524
# Poissons Ratio (z) = -0.03325 0.02444
#
# Static dielectric constant tensor:
#      x y z
#    x 1.897140 0.000000 0.000000 
#    y 0.000000 1.947590 0.000000 
#    z 0.000000 0.000000 1.840740 
# 
# From -- ./inp_files/43887.got.cif
#   From: 2010.05.17/outbox.cif.g08.bks.cpg/sg65_22_cif.got.tgz:43887.got - 2010.06.03 17:01:31.
