data_PCOD9488464
_publ_section_title
;
Structure prediction by ZEFSAII (Michael W. Deem and Ramdas Pophale) SiO2 
 PCOD9488464
Probable space group: C M M M
;
_chemical_formula_sum "Si O2"
_cell_formula_units_Z 96
_cell_length_a 9.228063
_cell_length_b 26.301652
_cell_length_c 19.175576
_cell_angle_alpha 90.000000
_cell_angle_beta 90.000000
_cell_angle_gamma 90.000000
_cell_volume 4654.167362
_symmetry_space_group_name_H-M "C M M M"
_symmetry_group_IT_number 65
_symmetry_cell_setting 'orthorhombic'
loop_
_space_group_symop_operation_xyz
x,y,z
-x,-y,z
x,-y,-z
-x,y,-z
-x,-y,-z
x,y,-z
-x,y,z
x,-y,z
1/2+x,1/2+y,z
1/2-x,1/2-y,z
1/2+x,1/2-y,-z
1/2-x,1/2+y,-z
1/2-x,1/2-y,-z
1/2+x,1/2+y,-z
1/2-x,1/2+y,z
1/2+x,1/2-y,z
loop_
_atom_site_type_symbol
_atom_site_label
_atom_site_fract_x
_atom_site_fract_y
_atom_site_fract_z
Si Si1 0.173401 0.413276 0.729475
Si Si2 0.840133 0.297142 0.582504
Si Si3 0.177031 0.586929 0.422845
Si Si4 0.671999 0.800596 0.782847
Si Si5 0.326259 0.664805 0.922231
Si Si6 0.172938 0.054949 0.869685
O O1 0.218994 0.434008 0.653098
O O2 0.200861 0.352320 0.738916
O O3 0.251769 0.438550 0.794713
O O4 0.000000 0.420196 0.735512
O O5 0.857889 0.287428 0.500000
O O6 0.750000 0.250000 0.609466
O O7 0.777957 0.353866 0.583395
O O8 0.000000 0.298573 0.615362
O O9 0.223358 0.567686 0.500000
O O10 0.000000 0.585933 0.424420
O O11 0.500000 0.793575 0.787055
O O12 0.750000 0.750000 0.756615
O O13 0.737980 0.810282 0.859741
O O14 0.500000 0.671729 0.911846
O O15 0.293948 0.604438 0.915282
O O16 0.289324 0.682486 0.000000
O O17 0.000000 0.055742 0.859285
O O18 0.212880 0.000000 0.900060
#
# Coordination Sequence:
#
# PCOD9488464 Si02
#       6
#    16  16  16  16  16  16
#     4   9  18  32  50  72  96 125 165 208 245 287
#     4   8  13  21  33  50  74 104 137 174 218 267
#     4   8  14  26  44  64  87 117 153 196 246 291
#     4  10  20  33  49  70  99 136 174 207 240 281
#     4   9  18  33  53  77 103 129 160 199 240 284
#     4   9  18  33  53  76 101 128 156 190 239 296
#
# _framework density 20.626677000000001
#
# number of rings (size 3 to 8) (size 9 to 14) (size 15 to 20)
#    0.000    3.167    0.000    1.500    0.000    2.667 
#    0.000    2.500    0.000    2.000    0.000    8.167 
#    0.000    0.000    0.000    0.000    0.000    0.000 
#
# Total GULP energy -267398.902743 kJ/mol
# GULP energy per Si atom -5570.810474 kJ/mol
# Density = 2.057973 g / cm^3
# Si number density = 20.626677 Si / 1000 Ang^3
#
#
#
# Elastic Constant Matrix: (Units=GPa)
#
#
# Indices 1 2 3 4 5 6 
#
# 1 15.7081 14.6016 22.5389 0.0000 0.0000 0.0000
# 2 14.6016 60.4680 -1.0821 0.0000 0.0000 0.0000
# 3 22.5389 -1.0821 146.4192 0.0000 0.0000 0.0000
# 4 0.0000 0.0000 0.0000 -4.1552 0.0000 0.0000
# 5 0.0000 0.0000 0.0000 0.0000 10.4485 0.0000
# 6 0.0000 0.0000 0.0000 0.0000 0.0000 15.6930
#
#
#
# Elastic Compliance Matrix: (Units=1/GPa)
#
#
# Indices 1 2 3 4 5 6 
#
# 1 0.115858 -0.028300 -0.018044 0.000000 0.000000 0.000000
# 2 -0.028300 0.023452 0.004530 0.000000 0.000000 0.000000
# 3 -0.018044 0.004530 0.009641 0.000000 0.000000 0.000000
# 4 0.000000 0.000000 0.000000 -0.240661 0.000000 0.000000
# 5 0.000000 0.000000 0.000000 0.000000 0.095707 0.000000
# 6 0.000000 0.000000 0.000000 0.000000 0.000000 0.063723
#
#
# Mechanical properties :
#
#
# Convention : Reuss Voigt Hill
#
# Bulk Modulus (GPa) = 15.30847 32.74579 24.02713
# Shear Modulus (GPa) = 28.88139 16.83305 22.85722
#
# Velocity S-wave (km/s) = 3.74598 2.85981 3.33248
# Velocity P-wave (km/s) = 5.11347 5.17828 5.14598
#
# Compressibility (1/GPa) = 0.06532330
#
# Stress axis : x y z
#
# Youngs Moduli (GPa) = 8.63129 42.63946 103.72703
#
# Poissons Ratio (x) = 1.20669 1.87160
# Poissons Ratio (y) = 0.24426 -0.46984
# Poissons Ratio (z) = 0.15574 -0.19314
#
# Static dielectric constant tensor:
#      x y z
#    x 1.697720 0.000000 0.000000 
#    y 0.000000 1.814140 0.000000 
#    z 0.000000 0.000000 1.761560 
# 
# From -- ./inp_files/60252.got.cif
#   From: 2010.05.17/outbox.cif.g08.bks.cpg/sg65_31_cif.got.tgz:60252.got - 2010.06.03 17:01:31.
