data_PCOD9488487
_publ_section_title
;
Structure prediction by ZEFSAII (Michael W. Deem and Ramdas Pophale) SiO2 
 PCOD9488487
Probable space group: C M M M
;
_chemical_formula_sum "Si O2"
_cell_formula_units_Z 112
_cell_length_a 19.608178
_cell_length_b 16.072129
_cell_length_c 18.727586
_cell_angle_alpha 90.000000
_cell_angle_beta 90.000000
_cell_angle_gamma 90.000000
_cell_volume 5901.908204
_symmetry_space_group_name_H-M "C M M M"
_symmetry_group_IT_number 65
_symmetry_cell_setting 'orthorhombic'
loop_
_space_group_symop_operation_xyz
x,y,z
-x,-y,z
x,-y,-z
-x,y,-z
-x,-y,-z
x,y,-z
-x,y,z
x,-y,z
1/2+x,1/2+y,z
1/2-x,1/2-y,z
1/2+x,1/2-y,-z
1/2-x,1/2+y,-z
1/2-x,1/2-y,-z
1/2+x,1/2+y,-z
1/2-x,1/2+y,z
1/2+x,1/2-y,z
loop_
_atom_site_type_symbol
_atom_site_label
_atom_site_fract_x
_atom_site_fract_y
_atom_site_fract_z
Si Si1 0.791697 0.835180 0.152996
Si Si2 0.920764 0.101357 0.577454
Si Si3 0.318123 0.404471 0.306748
Si Si4 0.162053 0.591677 0.914312
Si Si5 0.925200 0.596569 0.586403
Si Si6 0.920551 0.243202 0.913703
Si Si7 0.283507 0.840541 0.416651
O O1 0.750000 0.750000 0.143453
O O2 0.802074 0.854448 0.235946
O O3 0.737774 0.898791 0.118433
O O4 0.865763 0.822998 0.116938
O O5 0.893218 0.130795 0.500000
O O6 0.880674 0.130150 0.646427
O O7 0.000000 0.123058 0.580480
O O8 0.915996 0.000000 0.576942
O O9 0.331757 0.500000 0.286569
O O10 0.256971 0.400008 0.363569
O O11 0.134924 0.500000 0.896152
O O12 0.111233 0.666499 0.892614
O O13 0.168830 0.597694 0.000000
O O14 0.928332 0.597040 0.500000
O O15 0.912198 0.500000 0.606951
O O16 0.862459 0.655057 0.605288
O O17 0.000000 0.621401 0.613119
O O18 0.000000 0.233831 0.891563
O O19 0.919042 0.238522 0.000000
O O20 0.278327 0.866348 0.500000
O O21 0.250000 0.750000 0.410002
#
# Coordination Sequence:
#
# PCOD9488487 Si02
#       7
#    16  16  16  16  16  16  16
#     4  10  20  34  51  73 106 143 176 208 252 311
#     4   8  15  29  47  66  89 117 154 205 261 311
#     4  11  21  32  50  73  96 129 175 222 263 307
#     4   9  17  31  54  82 110 141 176 212 250 298
#     4   8  14  27  49  74  97 123 158 201 249 303
#     4   9  18  33  55  83 111 139 172 212 259 307
#     4  10  20  33  49  72 102 132 166 215 274 329
#
# _framework density 18.976913
#
# number of rings (size 3 to 8) (size 9 to 14) (size 15 to 20)
#    0.000    2.714    0.000    3.000    0.000    4.000 
#    0.000    2.143    0.000   10.714    0.000    5.000 
#    0.000    0.000    0.000    0.000    0.000    0.000 
#
# Total GULP energy -312026.702932 kJ/mol
# GULP energy per Si atom -5571.905409 kJ/mol
# Density = 1.893372 g / cm^3
# Si number density = 18.976913 Si / 1000 Ang^3
#
#
#
# Elastic Constant Matrix: (Units=GPa)
#
#
# Indices 1 2 3 4 5 6 
#
# 1 139.2010 16.0166 22.1627 0.0000 0.0000 0.0000
# 2 16.0166 22.4400 -1.8414 0.0000 0.0000 0.0000
# 3 22.1627 -1.8414 27.1380 0.0000 0.0000 0.0000
# 4 0.0000 0.0000 0.0000 -6.6643 0.0000 0.0000
# 5 0.0000 0.0000 0.0000 0.0000 8.7429 0.0000
# 6 0.0000 0.0000 0.0000 0.0000 0.0000 18.1603
#
#
#
# Elastic Compliance Matrix: (Units=1/GPa)
#
#
# Indices 1 2 3 4 5 6 
#
# 1 0.009316 -0.007314 -0.008104 0.000000 0.000000 0.000000
# 2 -0.007314 0.050555 0.009404 0.000000 0.000000 0.000000
# 3 -0.008104 0.009404 0.044105 0.000000 0.000000 0.000000
# 4 0.000000 0.000000 0.000000 -0.150054 0.000000 0.000000
# 5 0.000000 0.000000 0.000000 0.000000 0.114378 0.000000
# 6 0.000000 0.000000 0.000000 0.000000 0.000000 0.055065
#
#
# Mechanical properties :
#
#
# Convention : Reuss Voigt Hill
#
# Bulk Modulus (GPa) = 10.87583 29.05052 19.96318
# Shear Modulus (GPa) = 30.11249 14.21053 22.16151
#
# Velocity S-wave (km/s) = 3.98778 2.73945 3.42104
# Velocity P-wave (km/s) = 5.19102 5.03465 5.11343
#
# Compressibility (1/GPa) = 0.09194699
#
# Stress axis : x y z
#
# Youngs Moduli (GPa) = 107.34546 19.78031 22.67305
#
# Poissons Ratio (x) = 0.14468 0.18375
# Poissons Ratio (y) = 0.78514 -0.21321
# Poissons Ratio (z) = 0.86994 -0.18601
#
# Static dielectric constant tensor:
#      x y z
#    x 1.692440 0.000000 0.000000 
#    y 0.000000 1.703620 0.000000 
#    z 0.000000 0.000000 1.629180 
# 
# From -- ./inp_files/54823.got.cif
#   From: 2010.05.17/outbox.cif.g08.bks.cpg/sg65_28_cif.got.tgz:54823.got - 2010.06.03 17:01:31.
