data_PCOD9488966
_publ_section_title
;
Structure prediction by ZEFSAII (Michael W. Deem and Ramdas Pophale) SiO2 
 PCOD9488966
Probable space group: C M M M
;
_chemical_formula_sum "Si O2"
_cell_formula_units_Z 104
_cell_length_a 31.029826
_cell_length_b 21.301145
_cell_length_c 8.349493
_cell_angle_alpha 90.000000
_cell_angle_beta 90.000000
_cell_angle_gamma 90.000000
_cell_volume 5518.771259
_symmetry_space_group_name_H-M "C M M M"
_symmetry_group_IT_number 65
_symmetry_cell_setting 'orthorhombic'
loop_
_space_group_symop_operation_xyz
x,y,z
-x,-y,z
x,-y,-z
-x,y,-z
-x,-y,-z
x,y,-z
-x,y,z
x,-y,z
1/2+x,1/2+y,z
1/2-x,1/2-y,z
1/2+x,1/2-y,-z
1/2-x,1/2+y,-z
1/2-x,1/2-y,-z
1/2+x,1/2+y,-z
1/2-x,1/2+y,z
1/2+x,1/2-y,z
loop_
_atom_site_type_symbol
_atom_site_label
_atom_site_fract_x
_atom_site_fract_y
_atom_site_fract_z
Si Si1 0.549783 0.862932 0.809338
Si Si2 0.724537 0.186640 0.193414
Si Si3 0.282711 0.428876 0.806852
Si Si4 0.947945 0.500000 0.682264
Si Si5 0.131106 0.715845 0.691682
Si Si6 0.867574 0.860023 0.694206
Si Si7 0.953033 0.072644 0.304919
O O1 0.500000 0.852579 0.749359
O O2 0.563418 0.934267 0.764821
O O3 0.586579 0.816301 0.746015
O O4 0.548339 0.857636 0.000000
O O5 0.750000 0.250000 0.248781
O O6 0.749337 0.124285 0.249858
O O7 0.675067 0.184549 0.247049
O O8 0.774387 0.311985 0.000000
O O9 0.275499 0.500000 0.748249
O O10 0.329349 0.403142 0.757598
O O11 0.280412 0.430288 0.000000
O O12 0.931988 0.500000 0.500000
O O13 0.000000 0.500000 0.679875
O O14 0.131273 0.715253 0.500000
O O15 0.135311 0.788070 0.747099
O O16 0.866153 0.861410 0.500000
O O17 0.913094 0.887197 0.750255
O O18 0.952855 0.073773 0.500000
O O19 0.000000 0.095387 0.251954
O O20 0.948210 0.000000 0.258078
#
# Coordination Sequence:
#
# PCOD9488966 Si02
#       7
#    16  16  16   8  16  16  16
#     4  10  21  38  60  85 115 154 197 235 277 340
#     4  10  20  38  61  80 106 149 189 229 285 350
#     4  10  21  37  58  83 108 138 181 232 285 342
#     4   9  17  33  59  87 115 147 185 235 291 339
#     4  11  23  36  55  84 115 148 187 236 287 335
#     4  10  20  33  53  80 108 143 184 227 278 335
#     4   8  14  26  45  70 101 136 174 216 262 316
#
# _framework density 18.844774000000001
#
# number of rings (size 3 to 8) (size 9 to 14) (size 15 to 20)
#    0.000    2.231    1.538    2.077    0.000    4.923 
#    1.385    1.538    0.000    0.462    0.000    2.154 
#    0.000    0.000    0.000    0.000    0.000    0.000 
#
# Total GULP energy -290025.787499 kJ/mol
# GULP energy per Si atom -5577.418990 kJ/mol
# Density = 1.880188 g / cm^3
# Si number density = 18.844774 Si / 1000 Ang^3
#
#
#
# Elastic Constant Matrix: (Units=GPa)
#
#
# Indices 1 2 3 4 5 6 
#
# 1 148.3996 82.8577 11.3397 0.0000 0.0000 0.0000
# 2 82.8577 143.0625 17.2293 0.0000 0.0000 0.0000
# 3 11.3397 17.2293 13.5739 0.0000 0.0000 0.0000
# 4 0.0000 0.0000 0.0000 18.0326 0.0000 0.0000
# 5 0.0000 0.0000 0.0000 0.0000 26.0213 0.0000
# 6 0.0000 0.0000 0.0000 0.0000 0.0000 35.6615
#
#
#
# Elastic Compliance Matrix: (Units=1/GPa)
#
#
# Indices 1 2 3 4 5 6 
#
# 1 0.009975 -0.005635 -0.001181 0.000000 0.000000 0.000000
# 2 -0.005635 0.011435 -0.009806 0.000000 0.000000 0.000000
# 3 -0.001181 -0.009806 0.087104 0.000000 0.000000 0.000000
# 4 0.000000 0.000000 0.000000 0.055455 0.000000 0.000000
# 5 0.000000 0.000000 0.000000 0.000000 0.038430 0.000000
# 6 0.000000 0.000000 0.000000 0.000000 0.000000 0.028041
#
#
# Mechanical properties :
#
#
# Convention : Reuss Voigt Hill
#
# Bulk Modulus (GPa) = 13.28558 58.65437 35.96997
# Shear Modulus (GPa) = 17.31456 28.85034 23.08245
#
# Velocity S-wave (km/s) = 3.03446 3.91698 3.50362
# Velocity P-wave (km/s) = 4.39802 7.18676 5.95785
#
# Compressibility (1/GPa) = 0.07526957
#
# Stress axis : x y z
#
# Youngs Moduli (GPa) = 100.24970 87.45367 11.48054
#
# Poissons Ratio (x) = 0.49281 0.01355
# Poissons Ratio (y) = 0.56492 0.11258
# Poissons Ratio (z) = 0.11836 0.85759
#
# Static dielectric constant tensor:
#      x y z
#    x 1.641740 0.000000 0.000000 
#    y 0.000000 1.657260 0.000000 
#    z 0.000000 0.000000 1.656870 
# 
# From -- ./inp_files/18686.got.cif
#   From: 2010.05.17/outbox.cif.g08.bks.cpg/sg65_10_cif.got.tgz:18686.got - 2010.06.03 17:01:31.
