data_PCOD9488823
_publ_section_title
;
Structure prediction by ZEFSAII (Michael W. Deem and Ramdas Pophale) SiO2 
 PCOD9488823
Probable space group: C M M M
;
_chemical_formula_sum "Si O2"
_cell_formula_units_Z 58
_cell_length_a 8.077848
_cell_length_b 32.054759
_cell_length_c 12.186490
_cell_angle_alpha 90.000000
_cell_angle_beta 90.000000
_cell_angle_gamma 90.000000
_cell_volume 3155.490154
_symmetry_space_group_name_H-M "C M M M"
_symmetry_group_IT_number 65
_symmetry_cell_setting 'orthorhombic'
loop_
_space_group_symop_operation_xyz
x,y,z
-x,-y,z
x,-y,-z
-x,y,-z
-x,-y,-z
x,y,-z
-x,y,z
x,-y,z
1/2+x,1/2+y,z
1/2-x,1/2-y,z
1/2+x,1/2-y,-z
1/2-x,1/2+y,-z
1/2-x,1/2-y,-z
1/2+x,1/2+y,-z
1/2-x,1/2+y,z
1/2+x,1/2-y,z
loop_
_atom_site_type_symbol
_atom_site_label
_atom_site_fract_x
_atom_site_fract_y
_atom_site_fract_z
Si Si1 0.696146 0.408466 0.625587
Si Si2 0.302126 0.202314 0.000000
Si Si3 0.812565 0.935358 0.000000
Si Si4 0.000000 0.500000 0.000000
Si Si5 0.695738 0.867844 0.835197
Si Si6 0.311709 0.000000 0.633151
O O1 0.758477 0.405391 0.500000
O O2 0.500000 0.402876 0.624375
O O3 0.774429 0.375034 0.707099
O O4 0.731946 0.456048 0.665310
O O5 0.250000 0.250000 0.000000
O O6 0.249991 0.175194 0.106764
O O7 0.500000 0.202556 0.000000
O O8 0.792457 0.904824 0.895878
O O9 0.650892 0.964579 0.000000
O O10 0.000000 0.953040 0.000000
O O11 0.500000 0.872805 0.857237
O O12 0.500000 0.000000 0.673969
O O13 0.309978 0.000000 0.500000
#
# Coordination Sequence:
#
# PCOD9488823 Si02
#       6
#    16   8   8   2  16   8
#     4  10  20  33  51  78 110 148 195 242 284 332
#     4   9  20  37  62  89 112 137 174 232 290 356
#     4  11  22  38  58  79 109 154 195 242 295 338
#     4  12  22  40  52  82 118 152 202 244 284 360
#     4  10  20  38  57  81 115 146 187 237 286 347
#     4   9  17  30  47  68  97 140 191 234 272 316
#
# _framework density 18.380662999999998
#
# number of rings (size 3 to 8) (size 9 to 14) (size 15 to 20)
#    0.000    2.069    1.379    3.103    0.000    7.724 
#    2.483    2.759    0.000    0.828    0.000    0.000 
#    0.000    0.000    0.000    0.000    0.000    0.000 
#
# Total GULP energy -161444.396748 kJ/mol
# GULP energy per Si atom -5567.048164 kJ/mol
# Density = 1.833883 g / cm^3
# Si number density = 18.380663 Si / 1000 Ang^3
#
#
#
# Elastic Constant Matrix: (Units=GPa)
#
#
# Indices 1 2 3 4 5 6 
#
# 1 95.5994 39.0682 17.7487 0.0000 0.0000 0.0000
# 2 39.0682 142.2599 62.7279 0.0000 0.0000 0.0000
# 3 17.7487 62.7279 96.6996 0.0000 0.0000 0.0000
# 4 0.0000 0.0000 0.0000 17.4534 0.0000 0.0000
# 5 0.0000 0.0000 0.0000 0.0000 23.4940 0.0000
# 6 0.0000 0.0000 0.0000 0.0000 0.0000 26.5604
#
#
#
# Elastic Compliance Matrix: (Units=1/GPa)
#
#
# Indices 1 2 3 4 5 6 
#
# 1 0.011783 -0.003197 -0.000089 0.000000 0.000000 0.000000
# 2 -0.003197 0.010713 -0.006362 0.000000 0.000000 0.000000
# 3 -0.000089 -0.006362 0.014485 0.000000 0.000000 0.000000
# 4 0.000000 0.000000 0.000000 0.057295 0.000000 0.000000
# 5 0.000000 0.000000 0.000000 0.000000 0.042564 0.000000
# 6 0.000000 0.000000 0.000000 0.000000 0.000000 0.037650
#
#
# Mechanical properties :
#
#
# Convention : Reuss Voigt Hill
#
# Bulk Modulus (GPa) = 56.54718 63.73872 60.14295
# Shear Modulus (GPa) = 25.03983 27.83583 26.43783
#
# Velocity S-wave (km/s) = 3.69493 3.89576 3.79667
# Velocity P-wave (km/s) = 7.00247 7.41541 7.21190
#
# Compressibility (1/GPa) = 0.01768435
#
# Stress axis : x y z
#
# Youngs Moduli (GPa) = 84.86635 93.34671 69.03727
#
# Poissons Ratio (x) = 0.29840 0.00615
# Poissons Ratio (y) = 0.27129 0.43925
# Poissons Ratio (z) = 0.00756 0.59392
#
# Static dielectric constant tensor:
#      x y z
#    x 1.649170 0.000000 0.000000 
#    y 0.000000 1.616840 0.000000 
#    z 0.000000 0.000000 1.722910 
# 
# From -- ./inp_files/20870.got.cif
#   From: 2010.05.17/outbox.cif.g08.bks.cpg/sg65_11_cif.got.tgz:20870.got - 2010.06.03 17:01:31.
