data_PCOD9488861
_publ_section_title
;
Structure prediction by ZEFSAII (Michael W. Deem and Ramdas Pophale) SiO2 
 PCOD9488861
Probable space group: C M M M
;
_chemical_formula_sum "Si O2"
_cell_formula_units_Z 96
_cell_length_a 28.905147
_cell_length_b 20.694346
_cell_length_c 7.694657
_cell_angle_alpha 90.000000
_cell_angle_beta 90.000000
_cell_angle_gamma 90.000000
_cell_volume 4602.736933
_symmetry_space_group_name_H-M "C M M M"
_symmetry_group_IT_number 65
_symmetry_cell_setting 'orthorhombic'
loop_
_space_group_symop_operation_xyz
x,y,z
-x,-y,z
x,-y,-z
-x,y,-z
-x,-y,-z
x,y,-z
-x,y,z
x,-y,z
1/2+x,1/2+y,z
1/2-x,1/2-y,z
1/2+x,1/2-y,-z
1/2-x,1/2+y,-z
1/2-x,1/2-y,-z
1/2+x,1/2+y,-z
1/2-x,1/2+y,z
1/2+x,1/2-y,z
loop_
_atom_site_type_symbol
_atom_site_label
_atom_site_fract_x
_atom_site_fract_y
_atom_site_fract_z
Si Si1 0.447472 0.072692 0.290511
Si Si2 0.286958 0.199320 0.204651
Si Si3 0.947140 0.820922 0.213067
Si Si4 0.890562 0.697611 0.792733
Si Si5 0.232391 0.073689 0.706025
Si Si6 0.627048 0.573513 0.209762
O O1 0.448370 0.071551 0.500000
O O2 0.500000 0.087690 0.231098
O O3 0.412046 0.127472 0.237037
O O4 0.435772 0.000000 0.231179
O O5 0.250000 0.250000 0.280612
O O6 0.338618 0.203678 0.278957
O O7 0.266399 0.127452 0.219802
O O8 0.291017 0.214872 0.000000
O O9 0.925038 0.753205 0.272148
O O10 0.912485 0.877695 0.269573
O O11 0.000000 0.828795 0.270252
O O12 0.947749 0.821421 0.000000
O O13 0.887833 0.706857 0.000000
O O14 0.239589 0.072025 0.500000
O O15 0.179099 0.093235 0.740315
O O16 0.238291 0.000000 0.773505
O O17 0.619928 0.500000 0.271931
O O18 0.625617 0.572846 0.000000
#
# Coordination Sequence:
#
# PCOD9488861 Si02
#       6
#    16  16  16  16  16  16
#     4   9  19  36  55  74 100 135 170 204 247 300
#     4  10  21  37  56  77 103 136 174 215 259 309
#     4   9  17  30  50  77 107 135 166 208 254 298
#     4  10  20  33  52  77 102 131 168 210 255 301
#     4  10  21  36  54  77 105 137 173 213 258 308
#     4   9  17  31  53  78 104 137 174 210 250 297
#
# _framework density 20.857156
#
# number of rings (size 3 to 8) (size 9 to 14) (size 15 to 20)
#    0.000    2.500    0.000    2.500    0.000    7.000 
#    0.000    8.333    0.000    1.500    0.000    2.333 
#    0.000    0.000    0.000    0.000    0.000    0.000 
#
# Total GULP energy -268012.705794 kJ/mol
# GULP energy per Si atom -5583.598037 kJ/mol
# Density = 2.080968 g / cm^3
# Si number density = 20.857156 Si / 1000 Ang^3
#
#
#
# Elastic Constant Matrix: (Units=GPa)
#
#
# Indices 1 2 3 4 5 6 
#
# 1 51.6963 9.1328 -4.9493 0.0000 0.0000 0.0000
# 2 9.1328 39.6118 -8.4011 0.0000 0.0000 0.0000
# 3 -4.9493 -8.4011 32.6737 0.0000 0.0000 0.0000
# 4 0.0000 0.0000 0.0000 108.6499 0.0000 0.0000
# 5 0.0000 0.0000 0.0000 0.0000 -18.8345 0.0000
# 6 0.0000 0.0000 0.0000 0.0000 0.0000 27.4189
#
#
#
# Elastic Compliance Matrix: (Units=1/GPa)
#
#
# Indices 1 2 3 4 5 6 
#
# 1 0.020285 -0.004257 0.001978 0.000000 0.000000 0.000000
# 2 -0.004257 0.027595 0.006450 0.000000 0.000000 0.000000
# 3 0.001978 0.006450 0.032564 0.000000 0.000000 0.000000
# 4 0.000000 0.000000 0.000000 0.009204 0.000000 0.000000
# 5 0.000000 0.000000 0.000000 0.000000 -0.053094 0.000000
# 6 0.000000 0.000000 0.000000 0.000000 0.000000 0.036471
#
#
# Mechanical properties :
#
#
# Convention : Reuss Voigt Hill
#
# Bulk Modulus (GPa) = 11.26311 12.83852 12.05081
# Shear Modulus (GPa) = 53.03475 31.99350 42.51413
#
# Velocity S-wave (km/s) = 5.04805 3.92080 4.51970
# Velocity P-wave (km/s) = 6.27606 5.16388 5.74694
#
# Compressibility (1/GPa) = 0.08878544
#
# Stress axis : x y z
#
# Youngs Moduli (GPa) = 49.29691 36.23899 30.70899
#
# Poissons Ratio (x) = 0.15428 -0.06074
# Poissons Ratio (y) = 0.20988 -0.19808
# Poissons Ratio (z) = -0.09751 -0.23375
#
# Static dielectric constant tensor:
#      x y z
#    x 1.724640 0.000000 0.000000 
#    y 0.000000 1.735070 0.000000 
#    z 0.000000 0.000000 1.788650 
# 
# From -- ./inp_files/12233.got.cif
#   From: 2010.05.17/outbox.cif.g08.bks.cpg/sg65_7_cif.got.tgz:12233.got - 2010.06.03 17:01:31.
