data_PCOD9488531
_publ_section_title
;
Structure prediction by ZEFSAII (Michael W. Deem and Ramdas Pophale) SiO2 
 PCOD9488531
Probable space group: C M M M
;
_chemical_formula_sum "Si O2"
_cell_formula_units_Z 80
_cell_length_a 19.045027
_cell_length_b 8.711936
_cell_length_c 27.167776
_cell_angle_alpha 90.000000
_cell_angle_beta 90.000000
_cell_angle_gamma 90.000000
_cell_volume 4507.651757
_symmetry_space_group_name_H-M "C M M M"
_symmetry_group_IT_number 65
_symmetry_cell_setting 'orthorhombic'
loop_
_space_group_symop_operation_xyz
x,y,z
-x,-y,z
x,-y,-z
-x,y,-z
-x,-y,-z
x,y,-z
-x,y,z
x,-y,z
1/2+x,1/2+y,z
1/2-x,1/2-y,z
1/2+x,1/2-y,-z
1/2-x,1/2+y,-z
1/2-x,1/2-y,-z
1/2+x,1/2+y,-z
1/2-x,1/2+y,z
1/2+x,1/2-y,z
loop_
_atom_site_type_symbol
_atom_site_label
_atom_site_fract_x
_atom_site_fract_y
_atom_site_fract_z
Si Si1 0.670828 0.816604 0.653125
Si Si2 0.080953 0.814285 0.148571
Si Si3 0.828887 0.316079 0.237816
Si Si4 0.672551 0.314739 0.055741
Si Si5 0.670493 0.683672 0.553724
O O1 0.750000 0.750000 0.654262
O O2 0.642137 0.777428 0.707334
O O3 0.636708 0.749172 0.603595
O O4 0.673963 0.000000 0.648612
O O5 0.123216 0.749687 0.194854
O O6 0.119044 0.765434 0.098047
O O7 0.000000 0.765971 0.149428
O O8 0.083200 0.000000 0.150378
O O9 0.824871 0.500000 0.234346
O O10 0.750000 0.250000 0.233368
O O11 0.676016 0.500000 0.056578
O O12 0.750000 0.250000 0.065965
O O13 0.652622 0.268126 0.000000
O O14 0.638972 0.723163 0.500000
O O15 0.674308 0.500000 0.557409
O O16 0.750000 0.750000 0.552731
#
# Coordination Sequence:
#
# PCOD9488531 Si02
#       5
#    16  16  16  16  16
#     4   9  16  25  38  57  81 112 151 191 232 279
#     4  10  21  35  51  73 100 130 164 201 243 290
#     4  10  20  33  50  71  95 126 164 205 247 290
#     4   9  18  33  53  76 101 129 162 199 237 281
#     4   9  15  21  31  50  78 112 147 183 227 278
#
# _framework density 17.747599999999998
#
# number of rings (size 3 to 8) (size 9 to 14) (size 15 to 20)
#    0.000    2.600    0.000    3.600    0.000    6.800 
#    0.000    2.000    0.000    0.000    0.000    4.200 
#    0.000    0.800    0.000    8.800    0.000    9.800 
#
# Total GULP energy -222828.133130 kJ/mol
# GULP energy per Si atom -5570.703328 kJ/mol
# Density = 1.770721 g / cm^3
# Si number density = 17.747600 Si / 1000 Ang^3
#
#
#
# Elastic Constant Matrix: (Units=GPa)
#
#
# Indices 1 2 3 4 5 6 
#
# 1 63.5976 21.7916 87.5755 0.0000 0.0000 0.0000
# 2 21.7916 36.6707 49.3094 0.0000 0.0000 0.0000
# 3 87.5755 49.3094 210.9534 0.0000 0.0000 0.0000
# 4 0.0000 0.0000 0.0000 28.2181 0.0000 0.0000
# 5 0.0000 0.0000 0.0000 0.0000 -3.0862 0.0000
# 6 0.0000 0.0000 0.0000 0.0000 0.0000 15.5208
#
#
#
# Elastic Compliance Matrix: (Units=1/GPa)
#
#
# Indices 1 2 3 4 5 6 
#
# 1 0.036803 -0.001934 -0.014826 0.000000 0.000000 0.000000
# 2 -0.001934 0.039871 -0.008517 0.000000 0.000000 0.000000
# 3 -0.014826 -0.008517 0.012886 0.000000 0.000000 0.000000
# 4 0.000000 0.000000 0.000000 0.035438 0.000000 0.000000
# 5 0.000000 0.000000 0.000000 0.000000 -0.324024 0.000000
# 6 0.000000 0.000000 0.000000 0.000000 0.000000 0.064430
#
#
# Mechanical properties :
#
#
# Convention : Reuss Voigt Hill
#
# Bulk Modulus (GPa) = 25.63705 69.84162 47.73934
# Shear Modulus (GPa) = -70.38312 18.30022 -26.04145
#
# Velocity S-wave (km/s) = -6.30428 3.21462 -3.83472
# Velocity P-wave (km/s) = 6.20606 7.29496 2.71121
#
# Compressibility (1/GPa) = 0.03900604
#
# Stress axis : x y z
#
# Youngs Moduli (GPa) = 27.17195 25.08076 77.60253
#
# Poissons Ratio (x) = 0.04850 1.15056
# Poissons Ratio (y) = 0.05254 0.66093
# Poissons Ratio (z) = 0.40286 0.21361
#
# Static dielectric constant tensor:
#      x y z
#    x 1.554140 0.000000 0.000000 
#    y 0.000000 1.597430 0.000000 
#    z 0.000000 0.000000 1.675970 
# 
# From -- ./inp_files/75011.got.cif
#   From: 2010.05.17/outbox.cif.g08.bks.cpg/sg65_38_cif.got.tgz:75011.got - 2010.06.03 17:01:31.
