data_PCOD9488382
_publ_section_title
;
Structure prediction by ZEFSAII (Michael W. Deem and Ramdas Pophale) SiO2 
 PCOD9488382
Probable space group: C M M M
;
_chemical_formula_sum "Si O2"
_cell_formula_units_Z 88
_cell_length_a 14.872002
_cell_length_b 8.802988
_cell_length_c 30.642234
_cell_angle_alpha 90.000000
_cell_angle_beta 90.000000
_cell_angle_gamma 90.000000
_cell_volume 4011.621680
_symmetry_space_group_name_H-M "C M M M"
_symmetry_group_IT_number 65
_symmetry_cell_setting 'orthorhombic'
loop_
_space_group_symop_operation_xyz
x,y,z
-x,-y,z
x,-y,-z
-x,y,-z
-x,-y,-z
x,y,-z
-x,y,z
x,-y,z
1/2+x,1/2+y,z
1/2-x,1/2-y,z
1/2+x,1/2-y,-z
1/2-x,1/2+y,-z
1/2-x,1/2-y,-z
1/2+x,1/2+y,-z
1/2-x,1/2+y,z
1/2+x,1/2-y,z
loop_
_atom_site_type_symbol
_atom_site_label
_atom_site_fract_x
_atom_site_fract_y
_atom_site_fract_z
Si Si1 0.349295 0.179542 0.228987
Si Si2 0.351142 0.683580 0.046981
Si Si3 0.393916 0.332855 0.317951
Si Si4 0.148272 0.182755 0.858389
Si Si5 0.889635 0.676861 0.405529
Si Si6 0.106043 0.315232 0.500000
O O1 0.250000 0.250000 0.229573
O O2 0.386162 0.226773 0.275928
O O3 0.394026 0.251225 0.185745
O O4 0.347542 0.000000 0.224125
O O5 0.346482 0.500000 0.047155
O O6 0.250000 0.750000 0.046802
O O7 0.391876 0.725111 0.094138
O O8 0.392119 0.728889 0.000000
O O9 0.500000 0.348556 0.325375
O O10 0.355182 0.500000 0.308132
O O11 0.357349 0.266159 0.363092
O O12 0.250000 0.250000 0.859698
O O13 0.151297 0.000000 0.854922
O O14 0.864765 0.500000 0.401408
O O15 0.858697 0.737331 0.452937
O O16 0.000000 0.680314 0.406202
O O17 0.112080 0.500000 0.500000
O O18 0.000000 0.277800 0.500000
#
# Coordination Sequence:
#
# PCOD9488382 Si02
#       6
#    16  16  16  16  16   8
#     4  11  21  33  49  67  90 120 156 193 229 272
#     4   8  13  20  31  49  74 105 138 171 210 257
#     4  10  20  33  48  68  95 123 152 189 231 271
#     4   9  15  24  38  56  81 111 144 181 220 262
#     4   8  13  23  40  62  88 118 150 182 219 262
#     4   7  10  18  35  59  86 115 146 179 214 257
#
# _framework density 21.936267000000001
#
# number of rings (size 3 to 8) (size 9 to 14) (size 15 to 20)
#    0.000    3.000    0.000    4.909    0.000    1.818 
#    0.000    0.455    0.000    2.727    0.000    0.636 
#    0.000    0.727    0.000    8.364    0.000    5.455 
#
# Total GULP energy -245113.244937 kJ/mol
# GULP energy per Si atom -5570.755567 kJ/mol
# Density = 2.188634 g / cm^3
# Si number density = 21.936267 Si / 1000 Ang^3
#
#
#
# Elastic Constant Matrix: (Units=GPa)
#
#
# Indices 1 2 3 4 5 6 
#
# 1 50.0046 4.4474 14.7951 0.0000 0.0000 0.0000
# 2 4.4474 94.1278 71.1513 0.0000 0.0000 0.0000
# 3 14.7951 71.1513 252.7729 0.0000 0.0000 0.0000
# 4 0.0000 0.0000 0.0000 44.8931 0.0000 0.0000
# 5 0.0000 0.0000 0.0000 0.0000 0.7434 0.0000
# 6 0.0000 0.0000 0.0000 0.0000 0.0000 3.3338
#
#
#
# Elastic Compliance Matrix: (Units=1/GPa)
#
#
# Indices 1 2 3 4 5 6 
#
# 1 0.020351 -0.000078 -0.001169 0.000000 0.000000 0.000000
# 2 -0.000078 0.013496 -0.003794 0.000000 0.000000 0.000000
# 3 -0.001169 -0.003794 0.005093 0.000000 0.000000 0.000000
# 4 0.000000 0.000000 0.000000 0.022275 0.000000 0.000000
# 5 0.000000 0.000000 0.000000 0.000000 1.345196 0.000000
# 6 0.000000 0.000000 0.000000 0.000000 0.000000 0.299957
#
#
# Mechanical properties :
#
#
# Convention : Reuss Voigt Hill
#
# Bulk Modulus (GPa) = 34.65394 64.18813 49.42104
# Shear Modulus (GPa) = 2.89676 30.22815 16.56245
#
# Velocity S-wave (km/s) = 1.15039 3.71617 2.75075
# Velocity P-wave (km/s) = 4.19480 6.90926 5.71552
#
# Compressibility (1/GPa) = 0.02885674
#
# Stress axis : x y z
#
# Youngs Moduli (GPa) = 49.13756 74.09825 196.36428
#
# Poissons Ratio (x) = 0.00576 0.22961
# Poissons Ratio (y) = 0.00382 0.74505
# Poissons Ratio (z) = 0.05746 0.28115
#
# Static dielectric constant tensor:
#      x y z
#    x 10.722010 0.000000 0.000000 
#    y 0.000000 1.764940 0.000000 
#    z 0.000000 0.000000 1.899160 
# 
# From -- ./inp_files/78095.got.cif
#   From: 2010.05.17/outbox.cif.g08.bks.cpg/sg65_40_cif.got.tgz:78095.got - 2010.06.03 17:01:31.
