data_PCOD9488682
_publ_section_title
;
Structure prediction by ZEFSAII (Michael W. Deem and Ramdas Pophale) SiO2 
 PCOD9488682
Probable space group: C M M M
;
_chemical_formula_sum "Si O2"
_cell_formula_units_Z 104
_cell_length_a 8.214513
_cell_length_b 26.897547
_cell_length_c 23.201708
_cell_angle_alpha 90.000000
_cell_angle_beta 90.000000
_cell_angle_gamma 90.000000
_cell_volume 5126.423171
_symmetry_space_group_name_H-M "C M M M"
_symmetry_group_IT_number 65
_symmetry_cell_setting 'orthorhombic'
loop_
_space_group_symop_operation_xyz
x,y,z
-x,-y,z
x,-y,-z
-x,y,-z
-x,-y,-z
x,y,-z
-x,y,z
x,-y,z
1/2+x,1/2+y,z
1/2-x,1/2-y,z
1/2+x,1/2-y,-z
1/2-x,1/2+y,-z
1/2-x,1/2-y,-z
1/2+x,1/2+y,-z
1/2-x,1/2+y,z
1/2+x,1/2-y,z
loop_
_atom_site_type_symbol
_atom_site_label
_atom_site_fract_x
_atom_site_fract_y
_atom_site_fract_z
Si Si1 0.197366 0.944805 0.313082
Si Si2 0.695262 0.195513 0.397115
Si Si3 0.693536 0.840042 0.728562
Si Si4 0.799938 0.892092 0.066798
Si Si5 0.687936 0.500000 0.929784
Si Si6 0.307346 0.695436 0.148368
Si Si7 0.694822 0.590244 0.437938
O O1 0.259814 0.898076 0.276897
O O2 0.254219 0.935643 0.379300
O O3 0.000000 0.942822 0.312514
O O4 0.246871 0.000000 0.294025
O O5 0.500000 0.192432 0.399549
O O6 0.750000 0.250000 0.416375
O O7 0.750134 0.186299 0.330662
O O8 0.766856 0.148768 0.431364
O O9 0.500000 0.835446 0.730685
O O10 0.764432 0.815839 0.785577
O O11 0.740649 0.946693 0.086687
O O12 0.740880 0.848153 0.107531
O O13 0.000000 0.893743 0.068080
O O14 0.754950 0.884332 0.000000
O O15 0.500000 0.500000 0.909794
O O16 0.684608 0.500000 0.000000
O O17 0.500000 0.694250 0.142702
O O18 0.250000 0.750000 0.131688
O O19 0.758305 0.572462 0.500000
O O20 0.500000 0.583538 0.438197
#
# Coordination Sequence:
#
# PCOD9488682 Si02
#       7
#    16  16  16  16   8  16  16
#     4   9  18  34  56  80 106 136 172 215 260 311
#     4  10  20  33  51  72  94 128 170 214 261 310
#     4  10  21  37  55  75 102 136 176 220 268 319
#     4   8  15  29  50  77 108 141 178 221 269 319
#     4   7  10  22  46  72  99 131 167 211 258 301
#     4  11  22  35  53  79 110 144 181 224 270 324
#     4   9  18  32  50  74 104 135 167 206 253 307
#
# _framework density 20.287049
#
# number of rings (size 3 to 8) (size 9 to 14) (size 15 to 20)
#    0.000    2.692    0.000    2.769    0.000    4.615 
#    1.385    1.538    0.000    1.385    0.000    4.308 
#    0.000    7.385    0.000    0.000    0.000    0.000 
#
# Total GULP energy -290108.764271 kJ/mol
# GULP energy per Si atom -5579.014698 kJ/mol
# Density = 2.024087 g / cm^3
# Si number density = 20.287049 Si / 1000 Ang^3
#
#
#
# Elastic Constant Matrix: (Units=GPa)
#
#
# Indices 1 2 3 4 5 6 
#
# 1 10.6645 3.0301 4.5040 0.0000 0.0000 0.0000
# 2 3.0301 117.1430 24.4849 0.0000 0.0000 0.0000
# 3 4.5040 24.4849 52.4010 0.0000 0.0000 0.0000
# 4 0.0000 0.0000 0.0000 -2.7465 0.0000 0.0000
# 5 0.0000 0.0000 0.0000 0.0000 1.0879 0.0000
# 6 0.0000 0.0000 0.0000 0.0000 0.0000 24.6563
#
#
#
# Elastic Compliance Matrix: (Units=1/GPa)
#
#
# Indices 1 2 3 4 5 6 
#
# 1 0.097378 -0.000853 -0.007971 0.000000 0.000000 0.000000
# 2 -0.000853 0.009468 -0.004351 0.000000 0.000000 0.000000
# 3 -0.007971 -0.004351 0.021802 0.000000 0.000000 0.000000
# 4 0.000000 0.000000 0.000000 -0.364103 0.000000 0.000000
# 5 0.000000 0.000000 0.000000 0.000000 0.919178 0.000000
# 6 0.000000 0.000000 0.000000 0.000000 0.000000 0.040558
#
#
# Mechanical properties :
#
#
# Convention : Reuss Voigt Hill
#
# Bulk Modulus (GPa) = 9.77539 27.13851 18.45695
# Shear Modulus (GPa) = 6.37162 14.47886 10.42524
#
# Velocity S-wave (km/s) = 1.77413 2.67441 2.26937
# Velocity P-wave (km/s) = 3.00429 4.78988 3.99804
#
# Compressibility (1/GPa) = 0.10229773
#
# Stress axis : x y z
#
# Youngs Moduli (GPa) = 10.26930 105.61883 45.86802
#
# Poissons Ratio (x) = 0.09006 0.36563
# Poissons Ratio (y) = 0.00876 0.19956
# Poissons Ratio (z) = 0.08186 0.45952
#
# Static dielectric constant tensor:
#      x y z
#    x 1.725920 0.000000 0.000000 
#    y 0.000000 1.721780 0.000000 
#    z 0.000000 0.000000 1.732350 
# 
# From -- ./inp_files/68228.got.cif
#   From: 2010.05.17/outbox.cif.g08.bks.cpg/sg65_35_cif.got.tgz:68228.got - 2010.06.03 17:01:31.
