data_PCOD9488775
_publ_section_title
;
Structure prediction by ZEFSAII (Michael W. Deem and Ramdas Pophale) SiO2 
 PCOD9488775
Probable space group: C M M M
;
_chemical_formula_sum "Si O2"
_cell_formula_units_Z 96
_cell_length_a 19.769099
_cell_length_b 14.148084
_cell_length_c 19.277164
_cell_angle_alpha 90.000000
_cell_angle_beta 90.000000
_cell_angle_gamma 90.000000
_cell_volume 5391.723942
_symmetry_space_group_name_H-M "C M M M"
_symmetry_group_IT_number 65
_symmetry_cell_setting 'orthorhombic'
loop_
_space_group_symop_operation_xyz
x,y,z
-x,-y,z
x,-y,-z
-x,y,-z
-x,-y,-z
x,y,-z
-x,y,z
x,-y,z
1/2+x,1/2+y,z
1/2-x,1/2-y,z
1/2+x,1/2-y,-z
1/2-x,1/2+y,-z
1/2-x,1/2-y,-z
1/2+x,1/2+y,-z
1/2-x,1/2+y,z
1/2+x,1/2-y,z
loop_
_atom_site_type_symbol
_atom_site_label
_atom_site_fract_x
_atom_site_fract_y
_atom_site_fract_z
Si Si1 0.420557 0.608719 0.583437
Si Si2 0.920949 0.385770 0.924984
Si Si3 0.313105 0.612547 0.811126
Si Si4 0.575238 0.614676 0.080080
Si Si5 0.829105 0.236046 0.677294
Si Si6 0.842283 0.612822 0.210667
O O1 0.415493 0.613689 0.500000
O O2 0.500000 0.620601 0.601894
O O3 0.401036 0.500000 0.603511
O O4 0.374993 0.689947 0.617960
O O5 0.914823 0.500000 0.924488
O O6 0.889921 0.355175 0.852194
O O7 0.000000 0.362745 0.925630
O O8 0.891522 0.355050 0.000000
O O9 0.319938 0.500000 0.806004
O O10 0.362379 0.644902 0.872534
O O11 0.333105 0.660493 0.739539
O O12 0.233505 0.632999 0.817531
O O13 0.500000 0.643483 0.104876
O O14 0.575573 0.500000 0.080322
O O15 0.582202 0.643516 0.000000
O O16 0.750000 0.250000 0.656933
O O17 0.851713 0.331894 0.717018
O O18 0.848843 0.500000 0.221202
#
# Coordination Sequence:
#
# PCOD9488775 Si02
#       6
#    16  16  16  16  16  16
#     4   9  19  37  61  88 114 137 165 206 254 303
#     4   8  14  26  44  63  83 113 159 214 263 300
#     4   9  17  29  45  66  93 126 164 207 255 307
#     4   8  14  25  41  62  90 125 165 210 262 319
#     4  10  20  33  51  76 107 138 170 208 254 307
#     4   9  18  31  46  67  96 130 170 213 255 303
#
# _framework density 17.805066
#
# number of rings (size 3 to 8) (size 9 to 14) (size 15 to 20)
#    0.000    3.167    0.000    2.000    0.000    3.000 
#    0.000    5.833    0.000    5.500    0.000    1.167 
#    0.000    0.000    0.000    0.000    0.000    0.000 
#
# Total GULP energy -267315.016991 kJ/mol
# GULP energy per Si atom -5569.062854 kJ/mol
# Density = 1.776454 g / cm^3
# Si number density = 17.805066 Si / 1000 Ang^3
#
#
#
# Elastic Constant Matrix: (Units=GPa)
#
#
# Indices 1 2 3 4 5 6 
#
# 1 63.4629 34.4617 50.6449 0.0000 0.0000 0.0000
# 2 34.4617 95.6197 33.4427 0.0000 0.0000 0.0000
# 3 50.6449 33.4427 67.8709 0.0000 0.0000 0.0000
# 4 0.0000 0.0000 0.0000 108.9155 0.0000 0.0000
# 5 0.0000 0.0000 0.0000 0.0000 27.6071 0.0000
# 6 0.0000 0.0000 0.0000 0.0000 0.0000 15.8679
#
#
#
# Elastic Compliance Matrix: (Units=1/GPa)
#
#
# Indices 1 2 3 4 5 6 
#
# 1 0.040767 -0.004897 -0.028007 0.000000 0.000000 0.000000
# 2 -0.004897 0.013224 -0.002862 0.000000 0.000000 0.000000
# 3 -0.028007 -0.002862 0.037043 0.000000 0.000000 0.000000
# 4 0.000000 0.000000 0.000000 0.009181 0.000000 0.000000
# 5 0.000000 0.000000 0.000000 0.000000 0.036223 0.000000
# 6 0.000000 0.000000 0.000000 0.000000 0.000000 0.063020
#
#
# Mechanical properties :
#
#
# Convention : Reuss Voigt Hill
#
# Bulk Modulus (GPa) = 51.27774 51.56134 51.41954
# Shear Modulus (GPa) = 18.01873 37.70506 27.86189
#
# Velocity S-wave (km/s) = 3.18465 4.60680 3.96008
# Velocity P-wave (km/s) = 6.51035 7.57089 7.06056
#
# Compressibility (1/GPa) = 0.01950164
#
# Stress axis : x y z
#
# Youngs Moduli (GPa) = 24.52989 75.62049 26.99600
#
# Poissons Ratio (x) = 0.37032 0.75607
# Poissons Ratio (y) = 0.12013 0.07726
# Poissons Ratio (z) = 0.68700 0.21641
#
# Static dielectric constant tensor:
#      x y z
#    x 1.616500 0.000000 0.000000 
#    y 0.000000 1.681110 0.000000 
#    z 0.000000 0.000000 1.590570 
# 
# From -- ./inp_files/40381.got.cif
#   From: 2010.05.17/outbox.cif.g08.bks.cpg/sg65_21_cif.got.tgz:40381.got - 2010.06.03 17:01:31.
