data_PCOD9488931
_publ_section_title
;
Structure prediction by ZEFSAII (Michael W. Deem and Ramdas Pophale) SiO2 
 PCOD9488931
Probable space group: C M M M
;
_chemical_formula_sum "Si O2"
_cell_formula_units_Z 104
_cell_length_a 8.902733
_cell_length_b 29.165728
_cell_length_c 23.337662
_cell_angle_alpha 90.000000
_cell_angle_beta 90.000000
_cell_angle_gamma 90.000000
_cell_volume 6059.733372
_symmetry_space_group_name_H-M "C M M M"
_symmetry_group_IT_number 65
_symmetry_cell_setting 'orthorhombic'
loop_
_space_group_symop_operation_xyz
x,y,z
-x,-y,z
x,-y,-z
-x,y,-z
-x,-y,-z
x,y,-z
-x,y,z
x,-y,z
1/2+x,1/2+y,z
1/2-x,1/2-y,z
1/2+x,1/2-y,-z
1/2-x,1/2+y,-z
1/2-x,1/2-y,-z
1/2+x,1/2+y,-z
1/2-x,1/2+y,z
1/2+x,1/2-y,z
loop_
_atom_site_type_symbol
_atom_site_label
_atom_site_fract_x
_atom_site_fract_y
_atom_site_fract_z
Si Si1 0.819770 0.199721 0.274859
Si Si2 0.820945 0.299359 0.932662
Si Si3 0.680150 0.551846 0.343008
Si Si4 0.321190 0.052789 0.782688
Si Si5 0.679076 0.199312 0.500000
Si Si6 0.680684 0.352742 0.392730
Si Si7 0.319851 0.639803 0.164053
O O1 0.750000 0.250000 0.274906
O O2 0.781364 0.172340 0.332822
O O3 0.774082 0.170963 0.218879
O O4 0.000000 0.203784 0.273449
O O5 0.750000 0.250000 0.917748
O O6 0.749238 0.337456 0.892222
O O7 0.000000 0.297452 0.924547
O O8 0.790434 0.307734 0.000000
O O9 0.500000 0.554664 0.333438
O O10 0.714724 0.500000 0.363015
O O11 0.759352 0.558996 0.281901
O O12 0.719410 0.593566 0.384920
O O13 0.500000 0.059734 0.783055
O O14 0.241621 0.089333 0.823177
O O15 0.289676 0.000000 0.798746
O O16 0.500000 0.203024 0.500000
O O17 0.750000 0.250000 0.500000
O O18 0.736125 0.171979 0.444345
O O19 0.500000 0.349111 0.401193
O O20 0.500000 0.639476 0.160969
#
# Coordination Sequence:
#
# PCOD9488931 Si02
#       7
#    16  16  16  16   8  16  16
#     4  10  21  34  50  77 108 139 174 219 271 322
#     4  10  21  37  56  80 112 151 192 231 274 327
#     4   9  17  33  58  84 111 143 179 221 270 325
#     4  10  20  33  52  81 115 148 182 222 275 334
#     4  12  26  42  59  80 103 141 188 227 273 326
#     4  10  20  38  58  80 109 142 181 224 270 323
#     4  11  21  35  55  81 111 145 187 230 277 328
#
# _framework density 17.162469999999999
#
# number of rings (size 3 to 8) (size 9 to 14) (size 15 to 20)
#    0.000    1.846    1.538    3.000    0.000    6.769 
#    0.000    0.385    0.000    2.769    0.000    3.231 
#    0.000    0.000    0.000    0.000    0.000    0.000 
#
# Total GULP energy -290389.435105 kJ/mol
# GULP energy per Si atom -5584.412214 kJ/mol
# Density = 1.712341 g / cm^3
# Si number density = 17.162470 Si / 1000 Ang^3
#
#
#
# Elastic Constant Matrix: (Units=GPa)
#
#
# Indices 1 2 3 4 5 6 
#
# 1 56.9783 67.4975 52.2112 0.0000 0.0000 0.0000
# 2 67.4975 159.0908 74.5146 0.0000 0.0000 0.0000
# 3 52.2112 74.5146 86.1231 0.0000 0.0000 0.0000
# 4 0.0000 0.0000 0.0000 32.3136 0.0000 0.0000
# 5 0.0000 0.0000 0.0000 0.0000 27.4452 0.0000
# 6 0.0000 0.0000 0.0000 0.0000 0.0000 30.9187
#
#
#
# Elastic Compliance Matrix: (Units=1/GPa)
#
#
# Indices 1 2 3 4 5 6 
#
# 1 0.049853 -0.011762 -0.020046 0.000000 0.000000 0.000000
# 2 -0.011762 0.013344 -0.004414 0.000000 0.000000 0.000000
# 3 -0.020046 -0.004414 0.027584 0.000000 0.000000 0.000000
# 4 0.000000 0.000000 0.000000 0.030947 0.000000 0.000000
# 5 0.000000 0.000000 0.000000 0.000000 0.036436 0.000000
# 6 0.000000 0.000000 0.000000 0.000000 0.000000 0.032343
#
#
# Mechanical properties :
#
#
# Convention : Reuss Voigt Hill
#
# Bulk Modulus (GPa) = 54.54111 76.73764 65.63937
# Shear Modulus (GPa) = 18.58300 25.33342 21.95821
#
# Velocity S-wave (km/s) = 3.29412 3.84617 3.58080
# Velocity P-wave (km/s) = 6.80563 8.03328 7.44480
#
# Compressibility (1/GPa) = 0.01833479
#
# Stress axis : x y z
#
# Youngs Moduli (GPa) = 20.05898 74.94233 36.25342
#
# Poissons Ratio (x) = 0.88146 0.72675
# Poissons Ratio (y) = 0.23593 0.16004
# Poissons Ratio (z) = 0.40211 0.33083
#
# Static dielectric constant tensor:
#      x y z
#    x 1.572560 0.000000 0.000000 
#    y 0.000000 1.581810 0.000000 
#    z 0.000000 0.000000 1.556110 
# 
# From -- ./inp_files/60375.got.cif
#   From: 2010.05.17/outbox.cif.g08.bks.cpg/sg65_31_cif.got.tgz:60375.got - 2010.06.03 17:01:31.
