data_PCOD9488665
_publ_section_title
;
Structure prediction by ZEFSAII (Michael W. Deem and Ramdas Pophale) SiO2 
 PCOD9488665
Probable space group: C M M M
;
_chemical_formula_sum "Si O2"
_cell_formula_units_Z 120
_cell_length_a 8.350294
_cell_length_b 29.885567
_cell_length_c 26.175183
_cell_angle_alpha 90.000000
_cell_angle_beta 90.000000
_cell_angle_gamma 90.000000
_cell_volume 6532.102532
_symmetry_space_group_name_H-M "C M M M"
_symmetry_group_IT_number 65
_symmetry_cell_setting 'orthorhombic'
loop_
_space_group_symop_operation_xyz
x,y,z
-x,-y,z
x,-y,-z
-x,y,-z
-x,-y,-z
x,y,-z
-x,y,z
x,-y,z
1/2+x,1/2+y,z
1/2-x,1/2-y,z
1/2+x,1/2-y,-z
1/2-x,1/2+y,-z
1/2-x,1/2-y,-z
1/2+x,1/2+y,-z
1/2-x,1/2+y,z
1/2+x,1/2-y,z
loop_
_atom_site_type_symbol
_atom_site_label
_atom_site_fract_x
_atom_site_fract_y
_atom_site_fract_z
Si Si1 0.687870 0.950341 0.811284
Si Si2 0.312767 0.300357 0.755214
Si Si3 0.812672 0.390640 0.559969
Si Si4 0.688359 0.550550 0.697815
Si Si5 0.308898 0.639720 0.150292
Si Si6 0.807996 0.300116 0.058871
Si Si7 0.316338 0.144741 0.336821
Si Si8 0.500000 0.549917 0.561184
O O1 0.500000 0.947507 0.797600
O O2 0.787495 0.946466 0.758894
O O3 0.733234 0.909309 0.846860
O O4 0.717017 0.000000 0.832915
O O5 0.500000 0.297398 0.764779
O O6 0.250000 0.250000 0.755298
O O7 0.245890 0.331362 0.801046
O O8 0.284613 0.325005 0.701327
O O9 0.796287 0.378386 0.500000
O O10 0.790199 0.351921 0.602248
O O11 0.667535 0.424998 0.572163
O O12 0.000000 0.406463 0.566231
O O13 0.500000 0.555816 0.685773
O O14 0.740223 0.500000 0.682975
O O15 0.783386 0.592475 0.675422
O O16 0.500000 0.635193 0.154898
O O17 0.265678 0.665793 0.099040
O O18 0.750000 0.250000 0.071344
O O19 0.000000 0.301549 0.062218
O O20 0.761139 0.309302 0.000000
O O21 0.500000 0.155329 0.325530
O O22 0.500000 0.500000 0.582881
O O23 0.500000 0.546540 0.500000
#
# Coordination Sequence:
#
# PCOD9488665 Si02
#       8
#    16  16  16  16  16  16  16   8
#     4  10  20  34  54  80 112 150 191 233 275 325
#     4  11  24  39  57  83 115 147 182 226 278 338
#     4   9  20  37  55  77 105 142 189 234 282 341
#     4  10  20  33  50  75 109 146 185 229 274 326
#     4  11  22  36  58  85 115 153 190 229 277 330
#     4  10  21  37  58  85 117 152 191 236 282 330
#     4  11  22  36  57  80 108 145 184 231 284 338
#     4   9  18  32  52  78 108 144 186 232 281 333
#
# _framework density 18.370808
#
# number of rings (size 3 to 8) (size 9 to 14) (size 15 to 20)
#    0.000    1.800    1.333    2.800    1.867    5.867 
#    0.000    2.667    0.000    0.800    0.000    2.800 
#    0.000    0.000    0.000    0.000    0.000    0.000 
#
# Total GULP energy -334762.698005 kJ/mol
# GULP energy per Si atom -5579.378300 kJ/mol
# Density = 1.832900 g / cm^3
# Si number density = 18.370808 Si / 1000 Ang^3
#
#
#
# Elastic Constant Matrix: (Units=GPa)
#
#
# Indices 1 2 3 4 5 6 
#
# 1 52.0478 19.5947 15.5993 0.0000 0.0000 0.0000
# 2 19.5947 99.6152 52.1008 0.0000 0.0000 0.0000
# 3 15.5993 52.1008 76.3365 0.0000 0.0000 0.0000
# 4 0.0000 0.0000 0.0000 -5.2378 0.0000 0.0000
# 5 0.0000 0.0000 0.0000 0.0000 26.5571 0.0000
# 6 0.0000 0.0000 0.0000 0.0000 0.0000 29.5513
#
#
#
# Elastic Compliance Matrix: (Units=1/GPa)
#
#
# Indices 1 2 3 4 5 6 
#
# 1 0.021004 -0.002934 -0.002290 0.000000 0.000000 0.000000
# 2 -0.002934 0.016021 -0.010335 0.000000 0.000000 0.000000
# 3 -0.002290 -0.010335 0.020622 0.000000 0.000000 0.000000
# 4 0.000000 0.000000 0.000000 -0.190922 0.000000 0.000000
# 5 0.000000 0.000000 0.000000 0.000000 0.037655 0.000000
# 6 0.000000 0.000000 0.000000 0.000000 0.000000 0.033839
#
#
# Mechanical properties :
#
#
# Convention : Reuss Voigt Hill
#
# Bulk Modulus (GPa) = 37.69430 44.73212 41.21321
# Shear Modulus (GPa) = -229.15013 19.55444 -104.79784
#
# Velocity S-wave (km/s) = -11.18064 3.26610 -7.56106
# Velocity P-wave (km/s) = 12.08770 6.21495 7.33099
#
# Compressibility (1/GPa) = 0.02652921
#
# Stress axis : x y z
#
# Youngs Moduli (GPa) = 47.61015 62.41691 48.49262
#
# Poissons Ratio (x) = 0.18313 0.11103
# Poissons Ratio (y) = 0.13969 0.50118
# Poissons Ratio (z) = 0.10901 0.64509
#
# Static dielectric constant tensor:
#      x y z
#    x 1.640190 0.000000 0.000000 
#    y 0.000000 1.612560 0.000000 
#    z 0.000000 0.000000 1.645460 
# 
# From -- ./inp_files/73941.got.cif
#   From: 2010.05.17/outbox.cif.g08.bks.cpg/sg65_37_cif.got.tgz:73941.got - 2010.06.03 17:01:31.
