data_PCOD9488530
_publ_section_title
;
Structure prediction by ZEFSAII (Michael W. Deem and Ramdas Pophale) SiO2 
 PCOD9488530
Probable space group: C M M M
;
_chemical_formula_sum "Si O2"
_cell_formula_units_Z 72
_cell_length_a 7.994588
_cell_length_b 20.610704
_cell_length_c 23.768590
_cell_angle_alpha 90.000000
_cell_angle_beta 90.000000
_cell_angle_gamma 90.000000
_cell_volume 3916.447713
_symmetry_space_group_name_H-M "C M M M"
_symmetry_group_IT_number 65
_symmetry_cell_setting 'orthorhombic'
loop_
_space_group_symop_operation_xyz
x,y,z
-x,-y,z
x,-y,-z
-x,y,-z
-x,-y,-z
x,y,-z
-x,y,z
x,-y,z
1/2+x,1/2+y,z
1/2-x,1/2-y,z
1/2+x,1/2-y,-z
1/2-x,1/2+y,-z
1/2-x,1/2-y,-z
1/2+x,1/2+y,-z
1/2-x,1/2+y,z
1/2+x,1/2-y,z
loop_
_atom_site_type_symbol
_atom_site_label
_atom_site_fract_x
_atom_site_fract_y
_atom_site_fract_z
Si Si1 0.692978 0.578810 0.500000
Si Si2 0.794583 0.075079 0.623116
Si Si3 0.798752 0.426527 0.936726
Si Si4 0.298046 0.323436 0.283213
Si Si5 0.801270 0.177231 0.844023
O O1 0.689607 0.500000 0.500000
O O2 0.500000 0.601414 0.500000
O O3 0.765672 0.596530 0.439172
O O4 0.738829 0.123478 0.671969
O O5 0.000000 0.075597 0.621460
O O6 0.746173 0.000000 0.632901
O O7 0.739770 0.500000 0.924336
O O8 0.750999 0.375523 0.889458
O O9 0.000000 0.428459 0.938551
O O10 0.740213 0.409068 0.000000
O O11 0.500000 0.327154 0.282334
O O12 0.250000 0.250000 0.298830
O O13 0.234939 0.335166 0.219400
O O14 0.750000 0.250000 0.860619
O O15 0.000000 0.175839 0.840369
#
# Coordination Sequence:
#
# PCOD9488530 Si02
#       5
#     8  16  16  16  16
#     4   7  10  18  35  60  87 113 144 185 228 266
#     4   8  13  23  41  64  88 115 150 190 228 266
#     4   9  19  36  55  74  98 126 153 186 232 281
#     4   9  18  31  46  65  92 123 151 186 230 272
#     4  10  20  33  50  71  95 126 162 197 234 277
#
# _framework density 18.384007
#
# number of rings (size 3 to 8) (size 9 to 14) (size 15 to 20)
#    0.000    3.222    0.000    2.667    0.000    3.111 
#    0.000    3.889    0.000    0.667    0.000    0.000 
#    0.000    2.667    0.000    0.000    0.000    0.000 
#
# Total GULP energy -200514.491096 kJ/mol
# GULP energy per Si atom -5569.846975 kJ/mol
# Density = 1.834216 g / cm^3
# Si number density = 18.384007 Si / 1000 Ang^3
#
#
#
# Elastic Constant Matrix: (Units=GPa)
#
#
# Indices 1 2 3 4 5 6 
#
# 1 14.4367 9.2428 13.2414 0.0000 0.0000 0.0000
# 2 9.2428 136.0205 134.9000 0.0000 0.0000 0.0000
# 3 13.2414 134.9000 171.0294 0.0000 0.0000 0.0000
# 4 0.0000 0.0000 0.0000 -160.1805 0.0000 0.0000
# 5 0.0000 0.0000 0.0000 0.0000 5.0741 0.0000
# 6 0.0000 0.0000 0.0000 0.0000 0.0000 18.3631
#
#
#
# Elastic Compliance Matrix: (Units=1/GPa)
#
#
# Indices 1 2 3 4 5 6 
#
# 1 0.074835 0.003036 -0.008188 0.000000 0.000000 0.000000
# 2 0.003036 0.033887 -0.026963 0.000000 0.000000 0.000000
# 3 -0.008188 -0.026963 0.027748 0.000000 0.000000 0.000000
# 4 0.000000 0.000000 0.000000 -0.006243 0.000000 0.000000
# 5 0.000000 0.000000 0.000000 0.000000 0.197077 0.000000
# 6 0.000000 0.000000 0.000000 0.000000 0.000000 0.054457
#
#
# Mechanical properties :
#
#
# Convention : Reuss Voigt Hill
#
# Bulk Modulus (GPa) = 13.84313 70.69500 42.26906
# Shear Modulus (GPa) = 10.63665 -16.40850 -2.88592
#
# Velocity S-wave (km/s) = 2.40798 -2.99079 -1.25428
# Velocity P-wave (km/s) = 3.90864 5.15865 4.57653
#
# Compressibility (1/GPa) = 0.07223798
#
# Stress axis : x y z
#
# Youngs Moduli (GPa) = 13.36279 29.50993 36.03810
#
# Poissons Ratio (x) = -0.08958 0.29509
# Poissons Ratio (y) = -0.04056 0.97171
# Poissons Ratio (z) = 0.10942 0.79569
#
# Static dielectric constant tensor:
#      x y z
#    x 1.658940 0.000000 0.000000 
#    y 0.000000 1.573230 0.000000 
#    z 0.000000 0.000000 1.669300 
# 
# From -- ./inp_files/59200.got.cif
#   From: 2010.05.17/outbox.cif.g08.bks.cpg/sg65_30_cif.got.tgz:59200.got - 2010.06.03 17:01:31.
