data_PCOD9488345
_publ_section_title
;
Structure prediction by ZEFSAII (Michael W. Deem and Ramdas Pophale) SiO2 
 PCOD9488345
Probable space group: C M M M
;
_chemical_formula_sum "Si O2"
_cell_formula_units_Z 104
_cell_length_a 9.040126
_cell_length_b 28.478212
_cell_length_c 29.347869
_cell_angle_alpha 90.000000
_cell_angle_beta 90.000000
_cell_angle_gamma 90.000000
_cell_volume 7555.509817
_symmetry_space_group_name_H-M "C M M M"
_symmetry_group_IT_number 65
_symmetry_cell_setting 'orthorhombic'
loop_
_space_group_symop_operation_xyz
x,y,z
-x,-y,z
x,-y,-z
-x,y,-z
-x,-y,-z
x,y,-z
-x,y,z
x,-y,z
1/2+x,1/2+y,z
1/2-x,1/2-y,z
1/2+x,1/2-y,-z
1/2-x,1/2+y,-z
1/2-x,1/2-y,-z
1/2+x,1/2+y,-z
1/2-x,1/2+y,z
1/2+x,1/2-y,z
loop_
_atom_site_type_symbol
_atom_site_label
_atom_site_fract_x
_atom_site_fract_y
_atom_site_fract_z
Si Si1 0.677204 0.105922 0.413786
Si Si2 0.326825 0.556319 0.500000
Si Si3 0.175254 0.199943 0.554512
Si Si4 0.674467 0.443599 0.328487
Si Si5 0.326699 0.057010 0.050335
Si Si6 0.829562 0.057267 0.857476
Si Si7 0.830589 0.442935 0.234711
O O1 0.500000 0.106099 0.416378
O O2 0.746440 0.076338 0.455516
O O3 0.742558 0.158099 0.419662
O O4 0.733863 0.082582 0.367286
O O5 0.321716 0.500000 0.500000
O O6 0.500000 0.570957 0.500000
O O7 0.192360 0.191499 0.500000
O O8 0.250000 0.250000 0.564469
O O9 0.000000 0.200547 0.564322
O O10 0.500000 0.433810 0.333155
O O11 0.694423 0.500000 0.333436
O O12 0.733032 0.429958 0.278427
O O13 0.500000 0.068925 0.054957
O O14 0.237640 0.073406 0.094408
O O15 0.318704 0.000000 0.050299
O O16 0.274797 0.072523 0.000000
O O17 0.737535 0.072786 0.813351
O O18 0.000000 0.070925 0.853017
O O19 0.824403 0.000000 0.857845
O O20 0.831076 0.500000 0.233512
O O21 0.000000 0.427512 0.239987
#
# Coordination Sequence:
#
# PCOD9488345 Si02
#       7
#    16   8  16  16  16  16  16
#     4  12  23  34  50  70  91 113 139 167 200 241
#     4  11  23  37  50  65  88 117 145 171 201 237
#     4  10  20  35  55  74  94 114 136 165 199 237
#     4  10  20  33  47  62  83 110 138 169 205 243
#     4   8  13  20  28  38  54  77 105 139 182 230
#     4   9  15  21  30  44  61  82 110 145 186 231
#     4   9  16  26  39  53  69  91 122 158 194 233
#
# _framework density 13.76479
#
# number of rings (size 3 to 8) (size 9 to 14) (size 15 to 20)
#    0.000    2.231    0.769    4.385    0.000    8.000 
#    0.000    1.538    0.000    0.000    0.000    0.000 
#    0.000    0.000    0.000    0.000    0.000    0.000 
#
# Total GULP energy -289903.077278 kJ/mol
# GULP energy per Si atom -5575.059178 kJ/mol
# Density = 1.373346 g / cm^3
# Si number density = 13.764790 Si / 1000 Ang^3
#
#
#
# Elastic Constant Matrix: (Units=GPa)
#
#
# Indices 1 2 3 4 5 6 
#
# 1 118.1520 33.7707 58.6590 0.0000 0.0000 0.0000
# 2 33.7707 36.5750 26.4131 0.0000 0.0000 0.0000
# 3 58.6590 26.4131 106.1713 0.0000 0.0000 0.0000
# 4 0.0000 0.0000 0.0000 0.0309 0.0000 0.0000
# 5 0.0000 0.0000 0.0000 0.0000 25.4576 0.0000
# 6 0.0000 0.0000 0.0000 0.0000 0.0000 14.8800
#
#
#
# Elastic Compliance Matrix: (Units=1/GPa)
#
#
# Indices 1 2 3 4 5 6 
#
# 1 0.013608 -0.008698 -0.005355 0.000000 0.000000 0.000000
# 2 -0.008698 0.038888 -0.004869 0.000000 0.000000 0.000000
# 3 -0.005355 -0.004869 0.013588 0.000000 0.000000 0.000000
# 4 0.000000 0.000000 0.000000 32.374313 0.000000 0.000000
# 5 0.000000 0.000000 0.000000 0.000000 0.039281 0.000000
# 6 0.000000 0.000000 0.000000 0.000000 0.000000 0.067204
#
#
# Mechanical properties :
#
#
# Convention : Reuss Voigt Hill
#
# Bulk Modulus (GPa) = 35.40837 55.39821 45.40329
# Shear Modulus (GPa) = 0.15340 17.54407 8.84873
#
# Velocity S-wave (km/s) = 0.33420 3.57397 2.53820
# Velocity P-wave (km/s) = 5.09202 7.57395 6.45342
#
# Compressibility (1/GPa) = 0.02824191
#
# Stress axis : x y z
#
# Youngs Moduli (GPa) = 73.48553 25.71462 73.59215
#
# Poissons Ratio (x) = 0.22366 0.39405
# Poissons Ratio (y) = 0.63917 0.35832
# Poissons Ratio (z) = 0.39348 0.12521
#
# Static dielectric constant tensor:
#      x y z
#    x 1.459270 0.000000 0.000000 
#    y 0.000000 1.420440 0.000000 
#    z 0.000000 0.000000 1.456210 
# 
# From -- ./inp_files/73753.got.cif
#   From: 2010.05.17/outbox.cif.g08.bks.cpg/sg65_37_cif.got.tgz:73753.got - 2010.06.03 17:01:31.
