data_PCOD9488506
_publ_section_title
;
Structure prediction by ZEFSAII (Michael W. Deem and Ramdas Pophale) SiO2 
 PCOD9488506
Probable space group: C M M M
;
_chemical_formula_sum "Si O2"
_cell_formula_units_Z 100
_cell_length_a 28.284286
_cell_length_b 22.909707
_cell_length_c 8.893529
_cell_angle_alpha 90.000000
_cell_angle_beta 90.000000
_cell_angle_gamma 90.000000
_cell_volume 5762.870765
_symmetry_space_group_name_H-M "C M M M"
_symmetry_group_IT_number 65
_symmetry_cell_setting 'orthorhombic'
loop_
_space_group_symop_operation_xyz
x,y,z
-x,-y,z
x,-y,-z
-x,y,-z
-x,-y,-z
x,y,-z
-x,y,z
x,-y,z
1/2+x,1/2+y,z
1/2-x,1/2-y,z
1/2+x,1/2-y,-z
1/2-x,1/2+y,-z
1/2-x,1/2-y,-z
1/2+x,1/2+y,-z
1/2-x,1/2+y,z
1/2+x,1/2-y,z
loop_
_atom_site_type_symbol
_atom_site_label
_atom_site_fract_x
_atom_site_fract_y
_atom_site_fract_z
Si Si1 0.322456 0.070034 0.170553
Si Si2 0.726279 0.428982 0.673287
Si Si3 0.626636 0.431203 0.179605
Si Si4 0.421484 0.904383 0.321154
Si Si5 0.556833 0.782141 0.171383
Si Si6 0.000000 0.500000 0.236583
Si Si7 0.444033 0.660406 0.679385
O O1 0.273656 0.091856 0.243430
O O2 0.368174 0.082198 0.271034
O O3 0.318328 0.000000 0.162021
O O4 0.329047 0.091990 0.000000
O O5 0.725495 0.409998 0.500000
O O6 0.727826 0.500000 0.673579
O O7 0.677960 0.413015 0.757143
O O8 0.620074 0.500000 0.214829
O O9 0.586382 0.392225 0.254441
O O10 0.625790 0.424716 0.000000
O O11 0.427947 0.911883 0.500000
O O12 0.430873 0.838407 0.269680
O O13 0.458434 0.948791 0.243703
O O14 0.500000 0.779978 0.165548
O O15 0.572043 0.721223 0.245283
O O16 0.574444 0.788264 0.000000
O O17 0.438458 0.663959 0.500000
O O18 0.500000 0.652425 0.711453
#
# Coordination Sequence:
#
# PCOD9488506 Si02
#       7
#    16  16  16  16  16   4  16
#     4  10  20  33  49  74 106 141 180 226 277 328
#     4   9  17  31  52  77 105 140 180 222 268 323
#     4  10  20  34  55  84 116 147 177 219 272 322
#     4  12  22  36  54  77 109 147 187 229 278 327
#     4  10  21  37  55  76 103 141 185 228 272 324
#     4  12  25  36  53  82 117 152 187 234 283 328
#     4  10  21  37  57  81 109 145 186 225 265 318
#
# _framework density 17.352461999999999
#
# number of rings (size 3 to 8) (size 9 to 14) (size 15 to 20)
#    0.000    1.760    1.600    3.600    0.000    5.440 
#    0.000    3.200    0.000    0.960    0.000    6.720 
#    0.000    0.000    0.000    0.000    0.000    0.000 
#
# Total GULP energy -278473.926404 kJ/mol
# GULP energy per Si atom -5569.478528 kJ/mol
# Density = 1.731297 g / cm^3
# Si number density = 17.352462 Si / 1000 Ang^3
#
#
#
# Elastic Constant Matrix: (Units=GPa)
#
#
# Indices 1 2 3 4 5 6 
#
# 1 91.7875 43.7883 25.0510 0.0000 0.0000 0.0000
# 2 43.7883 71.3085 21.1102 0.0000 0.0000 0.0000
# 3 25.0510 21.1102 44.2693 0.0000 0.0000 0.0000
# 4 0.0000 0.0000 0.0000 22.1888 0.0000 0.0000
# 5 0.0000 0.0000 0.0000 0.0000 26.0549 0.0000
# 6 0.0000 0.0000 0.0000 0.0000 0.0000 -8.4912
#
#
#
# Elastic Compliance Matrix: (Units=1/GPa)
#
#
# Indices 1 2 3 4 5 6 
#
# 1 0.016379 -0.008516 -0.005207 0.000000 0.000000 0.000000
# 2 -0.008516 0.020757 -0.005079 0.000000 0.000000 0.000000
# 3 -0.005207 -0.005079 0.027958 0.000000 0.000000 0.000000
# 4 0.000000 0.000000 0.000000 0.045068 0.000000 0.000000
# 5 0.000000 0.000000 0.000000 0.000000 0.038381 0.000000
# 6 0.000000 0.000000 0.000000 0.000000 0.000000 -0.117769
#
#
# Mechanical properties :
#
#
# Convention : Reuss Voigt Hill
#
# Bulk Modulus (GPa) = 36.37917 43.02938 39.70428
# Shear Modulus (GPa) = 64.48284 15.77820 40.13052
#
# Velocity S-wave (km/s) = 6.10257 3.01869 4.81424
# Velocity P-wave (km/s) = 8.40627 6.08286 7.33712
#
# Compressibility (1/GPa) = 0.02748826
#
# Stress axis : x y z
#
# Youngs Moduli (GPa) = 61.05530 48.17751 35.76833
#
# Poissons Ratio (x) = 0.41028 0.18626
# Poissons Ratio (y) = 0.51995 0.18167
# Poissons Ratio (z) = 0.31794 0.24469
#
# Static dielectric constant tensor:
#      x y z
#    x 1.573830 0.000000 0.000000 
#    y 0.000000 1.568210 0.000000 
#    z 0.000000 0.000000 1.609550 
# 
# From -- ./inp_files/16422.got.cif
#   From: 2010.05.17/outbox.cif.g08.bks.cpg/sg65_9_cif.got.tgz:16422.got - 2010.06.03 17:01:31.
