data_PCOD9488402
_publ_section_title
;
Structure prediction by ZEFSAII (Michael W. Deem and Ramdas Pophale) SiO2 
 PCOD9488402
Probable space group: C M M M
;
_chemical_formula_sum "Si O2"
_cell_formula_units_Z 88
_cell_length_a 26.633323
_cell_length_b 21.439357
_cell_length_c 8.511317
_cell_angle_alpha 90.000000
_cell_angle_beta 90.000000
_cell_angle_gamma 90.000000
_cell_volume 4859.973241
_symmetry_space_group_name_H-M "C M M M"
_symmetry_group_IT_number 65
_symmetry_cell_setting 'orthorhombic'
loop_
_space_group_symop_operation_xyz
x,y,z
-x,-y,z
x,-y,-z
-x,y,-z
-x,-y,-z
x,y,-z
-x,y,z
x,-y,z
1/2+x,1/2+y,z
1/2-x,1/2-y,z
1/2+x,1/2-y,-z
1/2-x,1/2+y,-z
1/2-x,1/2-y,-z
1/2+x,1/2+y,-z
1/2-x,1/2+y,z
1/2+x,1/2-y,z
loop_
_atom_site_type_symbol
_atom_site_label
_atom_site_fract_x
_atom_site_fract_y
_atom_site_fract_z
Si Si1 0.791148 0.367649 0.311786
Si Si2 0.207930 0.500000 0.812241
Si Si3 0.174768 0.869983 0.686126
Si Si4 0.438855 0.929005 0.500000
Si Si5 0.860164 0.257368 0.817827
Si Si6 0.560243 0.858207 0.177977
Si Si7 0.325350 0.500000 0.186422
O O1 0.792701 0.367631 0.500000
O O2 0.811895 0.434111 0.250887
O O3 0.732875 0.362269 0.258446
O O4 0.821843 0.308956 0.249013
O O5 0.266741 0.500000 0.760709
O O6 0.204999 0.500000 0.000000
O O7 0.176671 0.876039 0.500000
O O8 0.145220 0.808085 0.731988
O O9 0.153398 0.934568 0.753669
O O10 0.500000 0.929759 0.500000
O O11 0.424357 0.896130 0.664799
O O12 0.420705 0.000000 0.500000
O O13 0.914050 0.290826 0.806265
O O14 0.848478 0.246958 0.000000
O O15 0.500000 0.855361 0.179444
O O16 0.574791 0.881876 0.000000
O O17 0.325966 0.500000 0.000000
#
# Coordination Sequence:
#
# PCOD9488402 Si02
#       7
#    16   8  16   8  16  16   8
#     4  10  20  33  48  70 101 136 171 210 253 299
#     4   9  17  31  49  67  94 133 174 211 249 296
#     4  10  20  33  51  74 103 135 168 207 252 301
#     4   9  18  34  58  82 101 131 175 219 268 318
#     4  11  22  34  51  75 100 132 171 212 256 305
#     4   9  20  38  56  77 106 136 172 219 265 312
#     4   9  17  31  51  73  98 131 168 207 247 296
#
# _framework density 18.107095000000001
#
# number of rings (size 3 to 8) (size 9 to 14) (size 15 to 20)
#    0.000    2.273    0.000    2.727    2.545    6.909 
#    1.636    1.818    0.000    0.000    0.000    0.636 
#    0.000    5.091    0.000    0.000    0.000    0.000 
#
# Total GULP energy -245425.886905 kJ/mol
# GULP energy per Si atom -5577.861066 kJ/mol
# Density = 1.806588 g / cm^3
# Si number density = 18.107095 Si / 1000 Ang^3
#
#
#
# Elastic Constant Matrix: (Units=GPa)
#
#
# Indices 1 2 3 4 5 6 
#
# 1 22.6630 15.1388 20.6942 0.0000 0.0000 0.0000
# 2 15.1388 138.7535 49.2801 0.0000 0.0000 0.0000
# 3 20.6942 49.2801 74.1378 0.0000 0.0000 0.0000
# 4 0.0000 0.0000 0.0000 36.3671 0.0000 0.0000
# 5 0.0000 0.0000 0.0000 0.0000 16.5343 0.0000
# 6 0.0000 0.0000 0.0000 0.0000 0.0000 20.5903
#
#
#
# Elastic Compliance Matrix: (Units=1/GPa)
#
#
# Indices 1 2 3 4 5 6 
#
# 1 0.059282 -0.000774 -0.016033 0.000000 0.000000 0.000000
# 2 -0.000774 0.009444 -0.006062 0.000000 0.000000 0.000000
# 3 -0.016033 -0.006062 0.021993 0.000000 0.000000 0.000000
# 4 0.000000 0.000000 0.000000 0.027497 0.000000 0.000000
# 5 0.000000 0.000000 0.000000 0.000000 0.060480 0.000000
# 6 0.000000 0.000000 0.000000 0.000000 0.000000 0.048567
#
#
# Mechanical properties :
#
#
# Convention : Reuss Voigt Hill
#
# Bulk Modulus (GPa) = 22.23104 45.08671 33.65888
# Shear Modulus (GPa) = 17.36140 24.72775 21.04458
#
# Velocity S-wave (km/s) = 3.09984 3.69946 3.41285
# Velocity P-wave (km/s) = 5.01160 6.57283 5.84458
#
# Compressibility (1/GPa) = 0.04498215
#
# Stress axis : x y z
#
# Youngs Moduli (GPa) = 16.86853 105.88329 45.46875
#
# Poissons Ratio (x) = 0.08191 0.72901
# Poissons Ratio (y) = 0.01305 0.27562
# Poissons Ratio (z) = 0.27046 0.64185
#
# Static dielectric constant tensor:
#      x y z
#    x 1.635510 0.000000 0.000000 
#    y 0.000000 1.615760 0.000000 
#    z 0.000000 0.000000 1.630580 
# 
# From -- ./inp_files/18396.got.cif
#   From: 2010.05.17/outbox.cif.g08.bks.cpg/sg65_10_cif.got.tgz:18396.got - 2010.06.03 17:01:31.
