data_PCOD9488681
_publ_section_title
;
Structure prediction by ZEFSAII (Michael W. Deem and Ramdas Pophale) SiO2 
 PCOD9488681
Probable space group: C M M M
;
_chemical_formula_sum "Si O2"
_cell_formula_units_Z 64
_cell_length_a 7.609083
_cell_length_b 22.451132
_cell_length_c 17.405073
_cell_angle_alpha 90.000000
_cell_angle_beta 90.000000
_cell_angle_gamma 90.000000
_cell_volume 2973.352600
_symmetry_space_group_name_H-M "C M M M"
_symmetry_group_IT_number 65
_symmetry_cell_setting 'orthorhombic'
loop_
_space_group_symop_operation_xyz
x,y,z
-x,-y,z
x,-y,-z
-x,y,-z
-x,-y,-z
x,y,-z
-x,y,z
x,-y,z
1/2+x,1/2+y,z
1/2-x,1/2-y,z
1/2+x,1/2-y,-z
1/2-x,1/2+y,-z
1/2-x,1/2-y,-z
1/2+x,1/2+y,-z
1/2-x,1/2+y,z
1/2+x,1/2-y,z
loop_
_atom_site_type_symbol
_atom_site_label
_atom_site_fract_x
_atom_site_fract_y
_atom_site_fract_z
Si Si1 0.713809 0.500000 0.408977
Si Si2 0.790920 0.818208 0.500000
Si Si3 0.285951 0.934047 0.909559
Si Si4 0.713312 0.374860 0.657040
Si Si5 0.299402 0.180374 0.180712
O O1 0.500000 0.500000 0.413980
O O2 0.771316 0.500000 0.500000
O O3 0.765377 0.557200 0.359123
O O4 0.750000 0.750000 0.500000
O O5 0.723201 0.844173 0.420932
O O6 0.000000 0.830405 0.500000
O O7 0.500000 0.934940 0.902651
O O8 0.216030 0.874867 0.867022
O O9 0.226003 0.000000 0.881451
O O10 0.245188 0.930184 0.000000
O O11 0.500000 0.372057 0.661816
O O12 0.782520 0.341210 0.731395
O O13 0.500000 0.180117 0.155963
O O14 0.250000 0.250000 0.173155
#
# Coordination Sequence:
#
# PCOD9488681 Si02
#       5
#     8   8  16  16  16
#     4   9  16  32  57  81 104 137 182 228 277 333
#     4  10  20  33  51  71  97 138 185 224 263 316
#     4   8  16  34  59  84 110 143 182 222 269 327
#     4  10  20  35  55  79 108 143 182 225 273 327
#     4  11  23  37  56  83 115 147 184 229 275 327
#
# _framework density 21.524525000000001
#
# number of rings (size 3 to 8) (size 9 to 14) (size 15 to 20)
#    0.000    2.375    1.250    2.250    1.750    3.500 
#    0.000    0.000    0.000    3.000    0.000    7.000 
#    0.000    0.000    0.000    0.000    0.000    0.000 
#
# Total GULP energy -178367.247299 kJ/mol
# GULP energy per Si atom -5573.976478 kJ/mol
# Density = 2.147553 g / cm^3
# Si number density = 21.524525 Si / 1000 Ang^3
#
#
#
# Elastic Constant Matrix: (Units=GPa)
#
#
# Indices 1 2 3 4 5 6 
#
# 1 36.4078 11.9448 -6.8149 0.0000 0.0000 0.0000
# 2 11.9448 260.7554 89.9806 0.0000 0.0000 0.0000
# 3 -6.8149 89.9806 85.4872 0.0000 0.0000 0.0000
# 4 0.0000 0.0000 0.0000 131.1058 0.0000 0.0000
# 5 0.0000 0.0000 0.0000 0.0000 38.2913 0.0000
# 6 0.0000 0.0000 0.0000 0.0000 0.0000 -23.7656
#
#
#
# Elastic Compliance Matrix: (Units=1/GPa)
#
#
# Indices 1 2 3 4 5 6 
#
# 1 0.029706 -0.003420 0.005968 0.000000 0.000000 0.000000
# 2 -0.003420 0.006416 -0.007026 0.000000 0.000000 0.000000
# 3 0.005968 -0.007026 0.019569 0.000000 0.000000 0.000000
# 4 0.000000 0.000000 0.000000 0.007627 0.000000 0.000000
# 5 0.000000 0.000000 0.000000 0.000000 0.026116 0.000000
# 6 0.000000 0.000000 0.000000 0.000000 0.000000 -0.042078
#
#
# Mechanical properties :
#
#
# Convention : Reuss Voigt Hill
#
# Bulk Modulus (GPa) = 21.39747 63.65239 42.52493
# Shear Modulus (GPa) = 69.54947 48.29561 58.92254
#
# Velocity S-wave (km/s) = 5.69051 4.74196 5.23775
# Velocity P-wave (km/s) = 7.28961 7.72126 7.50854
#
# Compressibility (1/GPa) = 0.04673450
#
# Stress axis : x y z
#
# Youngs Moduli (GPa) = 33.66331 155.85414 51.10151
#
# Poissons Ratio (x) = 0.53306 -0.30498
# Poissons Ratio (y) = 0.11514 0.35905
# Poissons Ratio (z) = -0.20091 1.09506
#
# Static dielectric constant tensor:
#      x y z
#    x 1.824140 0.000000 0.000000 
#    y 0.000000 1.871660 0.000000 
#    z 0.000000 0.000000 1.731410 
# 
# From -- ./inp_files/36067.got.cif
#   From: 2010.05.17/outbox.cif.g08.bks.cpg/sg65_19_cif.got.tgz:36067.got - 2010.06.03 17:01:31.
