data_PCOD9488934
_publ_section_title
;
Structure prediction by ZEFSAII (Michael W. Deem and Ramdas Pophale) SiO2 
 PCOD9488934
Probable space group: C M M M
;
_chemical_formula_sum "Si O2"
_cell_formula_units_Z 96
_cell_length_a 23.233180
_cell_length_b 9.510218
_cell_length_c 23.324682
_cell_angle_alpha 90.000000
_cell_angle_beta 90.000000
_cell_angle_gamma 90.000000
_cell_volume 5153.649287
_symmetry_space_group_name_H-M "C M M M"
_symmetry_group_IT_number 65
_symmetry_cell_setting 'orthorhombic'
loop_
_space_group_symop_operation_xyz
x,y,z
-x,-y,z
x,-y,-z
-x,y,-z
-x,-y,-z
x,y,-z
-x,y,z
x,-y,z
1/2+x,1/2+y,z
1/2-x,1/2-y,z
1/2+x,1/2-y,-z
1/2-x,1/2+y,-z
1/2-x,1/2-y,-z
1/2+x,1/2+y,-z
1/2-x,1/2+y,z
1/2+x,1/2-y,z
loop_
_atom_site_type_symbol
_atom_site_label
_atom_site_fract_x
_atom_site_fract_y
_atom_site_fract_z
Si Si1 0.000000 0.340406 0.068917
Si Si2 0.884076 0.165651 0.067514
Si Si3 0.355351 0.662991 0.669174
Si Si4 0.250000 0.750000 0.748914
Si Si5 0.310127 0.834299 0.434629
Si Si6 0.335397 0.152634 0.157135
Si Si7 0.933284 0.338909 0.249405
O O1 0.942517 0.251737 0.081316
O O2 0.000000 0.500000 0.093408
O O3 0.000000 0.354281 0.000000
O O4 0.835369 0.226883 0.109550
O O5 0.892804 0.000000 0.076987
O O6 0.871225 0.186651 0.000000
O O7 0.363703 0.500000 0.655193
O O8 0.296989 0.677737 0.707637
O O9 0.348132 0.758791 0.613081
O O10 0.406608 0.727976 0.706671
O O11 0.287208 0.841204 0.793492
O O12 0.332333 0.823891 0.500000
O O13 0.250000 0.750000 0.433070
O O14 0.301380 0.000000 0.421727
O O15 0.394236 0.168458 0.193061
O O16 0.334303 0.000000 0.128608
O O17 0.927063 0.500000 0.271559
O O18 0.000000 0.313463 0.237418
#
# Coordination Sequence:
#
# PCOD9488934 Si02
#       7
#     8  16  16   8  16  16  16
#     4   9  17  31  53  77 101 133 173 213 256 317
#     4  10  21  36  53  77 108 139 173 219 278 333
#     4  11  21  34  58  85 114 150 186 228 275 328
#     4  10  22  38  56  80 112 146 184 226 274 328
#     4  10  20  33  52  81 116 151 188 230 276 325
#     4  10  21  36  58  82 107 142 184 227 270 327
#     4   9  20  38  57  80 112 148 184 226 276 327
#
# _framework density 18.627579000000001
#
# number of rings (size 3 to 8) (size 9 to 14) (size 15 to 20)
#    0.000    2.083    0.833    2.250    1.167    8.000 
#    0.000    0.417    0.000    0.500    0.000    3.500 
#    0.000    0.000    0.000    0.000    0.000    0.000 
#
# Total GULP energy -267729.179447 kJ/mol
# GULP energy per Si atom -5577.691238 kJ/mol
# Density = 1.858518 g / cm^3
# Si number density = 18.627579 Si / 1000 Ang^3
#
#
#
# Elastic Constant Matrix: (Units=GPa)
#
#
# Indices 1 2 3 4 5 6 
#
# 1 61.6949 24.1899 18.4906 0.0000 0.0000 0.0000
# 2 24.1899 143.4921 58.9905 0.0000 0.0000 0.0000
# 3 18.4906 58.9905 72.6805 0.0000 0.0000 0.0000
# 4 0.0000 0.0000 0.0000 26.8521 0.0000 0.0000
# 5 0.0000 0.0000 0.0000 0.0000 22.0693 0.0000
# 6 0.0000 0.0000 0.0000 0.0000 0.0000 11.1297
#
#
#
# Elastic Compliance Matrix: (Units=1/GPa)
#
#
# Indices 1 2 3 4 5 6 
#
# 1 0.017822 -0.001712 -0.003145 0.000000 0.000000 0.000000
# 2 -0.001712 0.010623 -0.008187 0.000000 0.000000 0.000000
# 3 -0.003145 -0.008187 0.021204 0.000000 0.000000 0.000000
# 4 0.000000 0.000000 0.000000 0.037241 0.000000 0.000000
# 5 0.000000 0.000000 0.000000 0.000000 0.045312 0.000000
# 6 0.000000 0.000000 0.000000 0.000000 0.000000 0.089849
#
#
# Mechanical properties :
#
#
# Convention : Reuss Voigt Hill
#
# Bulk Modulus (GPa) = 42.44010 53.46772 47.95391
# Shear Modulus (GPa) = 19.53181 23.75667 21.64424
#
# Velocity S-wave (km/s) = 3.24163 3.57508 3.41243
# Velocity P-wave (km/s) = 6.06991 6.76812 6.42850
#
# Compressibility (1/GPa) = 0.02356262
#
# Stress axis : x y z
#
# Youngs Moduli (GPa) = 56.10892 94.13355 47.16154
#
# Poissons Ratio (x) = 0.16112 0.14832
# Poissons Ratio (y) = 0.09603 0.38610
# Poissons Ratio (z) = 0.17646 0.77065
#
# Static dielectric constant tensor:
#      x y z
#    x 1.649770 0.000000 0.000000 
#    y 0.000000 1.642510 0.000000 
#    z 0.000000 0.000000 1.645600 
# 
# From -- ./inp_files/71460.got.cif
#   From: 2010.05.17/outbox.cif.g08.bks.cpg/sg65_36_cif.got.tgz:71460.got - 2010.06.03 17:01:31.
