data_PCOD9488761
_publ_section_title
;
Structure prediction by ZEFSAII (Michael W. Deem and Ramdas Pophale) SiO2 
 PCOD9488761
Probable space group: C M M M
;
_chemical_formula_sum "Si O2"
_cell_formula_units_Z 64
_cell_length_a 7.767302
_cell_length_b 16.849940
_cell_length_c 22.525965
_cell_angle_alpha 90.000000
_cell_angle_beta 90.000000
_cell_angle_gamma 90.000000
_cell_volume 2948.166147
_symmetry_space_group_name_H-M "C M M M"
_symmetry_group_IT_number 65
_symmetry_cell_setting 'orthorhombic'
loop_
_space_group_symop_operation_xyz
x,y,z
-x,-y,z
x,-y,-z
-x,y,-z
-x,-y,-z
x,y,-z
-x,y,z
x,-y,z
1/2+x,1/2+y,z
1/2-x,1/2-y,z
1/2+x,1/2-y,-z
1/2-x,1/2+y,-z
1/2-x,1/2-y,-z
1/2+x,1/2+y,-z
1/2-x,1/2+y,z
1/2+x,1/2-y,z
loop_
_atom_site_type_symbol
_atom_site_label
_atom_site_fract_x
_atom_site_fract_y
_atom_site_fract_z
Si Si1 0.210013 0.907692 0.500000
Si Si2 0.701255 0.161126 0.130630
Si Si3 0.206887 0.158618 0.625381
Si Si4 0.289277 0.000000 0.069331
Si Si5 0.708076 0.411330 0.251246
O O1 0.272933 0.868830 0.438892
O O2 0.000000 0.901662 0.500000
O O3 0.253725 0.000000 0.500000
O O4 0.500000 0.156324 0.120393
O O5 0.750000 0.250000 0.111386
O O6 0.736851 0.149369 0.200559
O O7 0.776494 0.082027 0.099161
O O8 0.250000 0.250000 0.634348
O O9 0.269715 0.110792 0.682843
O O10 0.000000 0.148633 0.623955
O O11 0.500000 0.000000 0.074210
O O12 0.246699 0.000000 0.000000
O O13 0.500000 0.411450 0.252355
O O14 0.767759 0.500000 0.235174
#
# Coordination Sequence:
#
# PCOD9488761 Si02
#       5
#     8  16  16   8  16
#     4   9  17  32  53  73  96 131 180 228 274 331
#     4  11  22  38  61  89 119 155 195 236 286 340
#     4  10  20  33  51  76 104 139 179 226 279 334
#     4   9  20  40  63  87 119 156 193 234 282 339
#     4  10  20  35  56  82 113 147 188 237 286 336
#
# _framework density 21.708410000000001
#
# number of rings (size 3 to 8) (size 9 to 14) (size 15 to 20)
#    0.000    2.000    1.250    2.625    0.000    6.500 
#    0.000    0.000    0.000    8.250    0.000    0.000 
#    0.000    0.000    0.000    0.000    0.000    0.000 
#
# Total GULP energy -178694.910897 kJ/mol
# GULP energy per Si atom -5584.215966 kJ/mol
# Density = 2.165900 g / cm^3
# Si number density = 21.708410 Si / 1000 Ang^3
#
#
#
# Elastic Constant Matrix: (Units=GPa)
#
#
# Indices 1 2 3 4 5 6 
#
# 1 29.4453 13.6016 3.2727 0.0000 0.0000 0.0000
# 2 13.6016 155.7364 63.9480 0.0000 0.0000 0.0000
# 3 3.2727 63.9480 112.2977 0.0000 0.0000 0.0000
# 4 0.0000 0.0000 0.0000 -8.5372 0.0000 0.0000
# 5 0.0000 0.0000 0.0000 0.0000 -30.1494 0.0000
# 6 0.0000 0.0000 0.0000 0.0000 0.0000 23.6807
#
#
#
# Elastic Compliance Matrix: (Units=1/GPa)
#
#
# Indices 1 2 3 4 5 6 
#
# 1 0.035467 -0.003489 0.000953 0.000000 0.000000 0.000000
# 2 -0.003489 0.008724 -0.004866 0.000000 0.000000 0.000000
# 3 0.000953 -0.004866 0.011648 0.000000 0.000000 0.000000
# 4 0.000000 0.000000 0.000000 -0.117135 0.000000 0.000000
# 5 0.000000 0.000000 0.000000 0.000000 -0.033168 0.000000
# 6 0.000000 0.000000 0.000000 0.000000 0.000000 0.042228
#
#
# Mechanical properties :
#
#
# Convention : Reuss Voigt Hill
#
# Bulk Modulus (GPa) = 24.36938 51.01378 37.69158
# Shear Modulus (GPa) = -210.49707 11.44264 -99.52722
#
# Velocity S-wave (km/s) = -9.85780 2.29837 -6.77841
# Velocity P-wave (km/s) = 10.87741 5.53118 6.62285
#
# Compressibility (1/GPa) = 0.04103510
#
# Stress axis : x y z
#
# Youngs Moduli (GPa) = 28.19529 114.62692 85.85036
#
# Poissons Ratio (x) = 0.39993 -0.08183
# Poissons Ratio (y) = 0.09837 0.41776
# Poissons Ratio (z) = -0.02687 0.55780
#
# Static dielectric constant tensor:
#      x y z
#    x 1.794030 0.000000 0.000000 
#    y 0.000000 1.838090 0.000000 
#    z 0.000000 0.000000 1.792750 
# 
# From -- ./inp_files/66741.got.cif
#   From: 2010.05.17/outbox.cif.g08.bks.cpg/sg65_34_cif.got.tgz:66741.got - 2010.06.03 17:01:31.
