data_PCOD9488065
_publ_section_title
;
Structure prediction by ZEFSAII (Michael W. Deem and Ramdas Pophale) SiO2 
 PCOD9488065
Probable space group: C M M M
;
_chemical_formula_sum "Si O2"
_cell_formula_units_Z 88
_cell_length_a 28.964434
_cell_length_b 8.834478
_cell_length_c 21.510437
_cell_angle_alpha 90.000000
_cell_angle_beta 90.000000
_cell_angle_gamma 90.000000
_cell_volume 5504.212260
_symmetry_space_group_name_H-M "C M M M"
_symmetry_group_IT_number 65
_symmetry_cell_setting 'orthorhombic'
loop_
_space_group_symop_operation_xyz
x,y,z
-x,-y,z
x,-y,-z
-x,y,-z
-x,-y,-z
x,y,-z
-x,y,z
x,-y,z
1/2+x,1/2+y,z
1/2-x,1/2-y,z
1/2+x,1/2-y,-z
1/2-x,1/2+y,-z
1/2-x,1/2-y,-z
1/2+x,1/2+y,-z
1/2-x,1/2+y,z
1/2+x,1/2-y,z
loop_
_atom_site_type_symbol
_atom_site_label
_atom_site_fract_x
_atom_site_fract_y
_atom_site_fract_z
Si Si1 0.301395 0.318626 0.305154
Si Si2 0.801714 0.681418 0.568062
Si Si3 0.446171 0.180665 0.868691
Si Si4 0.140342 0.819153 0.817217
Si Si5 0.801341 0.681630 0.070246
Si Si6 0.443989 0.327821 0.000000
O O1 0.297434 0.500000 0.309907
O O2 0.250000 0.250000 0.296861
O O3 0.322035 0.252881 0.369405
O O4 0.332531 0.280107 0.245812
O O5 0.822795 0.716037 0.500000
O O6 0.799102 0.500000 0.574209
O O7 0.750000 0.750000 0.566385
O O8 0.500000 0.220518 0.858702
O O9 0.411271 0.254430 0.820188
O O10 0.431901 0.241544 0.936900
O O11 0.442071 0.000000 0.868113
O O12 0.167464 0.749404 0.875696
O O13 0.139416 0.000000 0.823127
O O14 0.799409 0.500000 0.075934
O O15 0.750000 0.750000 0.076263
O O16 0.817901 0.718247 0.000000
O O17 0.426340 0.500000 0.000000
O O18 0.500000 0.334198 0.000000
#
# Coordination Sequence:
#
# PCOD9488065 Si02
#       6
#    16  16  16  16  16   8
#     4  10  20  32  47  69  97 130 165 198 234 276
#     4   9  16  26  43  67  94 126 161 194 230 272
#     4  10  21  36  53  72  94 120 153 196 246 298
#     4  11  23  35  50  71  95 126 162 199 242 291
#     4  10  21  36  52  69  91 121 159 202 244 285
#     4   9  17  31  51  71  90 113 142 183 237 291
#
# _framework density 15.987755999999999
#
# number of rings (size 3 to 8) (size 9 to 14) (size 15 to 20)
#    0.000    2.091    0.000    4.636    1.273    8.727 
#    0.000    0.000    0.000    0.000    0.000    0.000 
#    0.000    0.727    0.000    8.000    0.000    5.818 
#
# Total GULP energy -245502.994224 kJ/mol
# GULP energy per Si atom -5579.613505 kJ/mol
# Density = 1.595137 g / cm^3
# Si number density = 15.987756 Si / 1000 Ang^3
#
#
#
# Elastic Constant Matrix: (Units=GPa)
#
#
# Indices 1 2 3 4 5 6 
#
# 1 66.3424 35.5154 64.3483 0.0000 0.0000 0.0000
# 2 35.5154 67.9407 62.3216 0.0000 0.0000 0.0000
# 3 64.3483 62.3216 143.5056 0.0000 0.0000 0.0000
# 4 0.0000 0.0000 0.0000 24.3741 0.0000 0.0000
# 5 0.0000 0.0000 0.0000 0.0000 7.0196 0.0000
# 6 0.0000 0.0000 0.0000 0.0000 0.0000 22.2747
#
#
#
# Elastic Compliance Matrix: (Units=1/GPa)
#
#
# Indices 1 2 3 4 5 6 
#
# 1 0.027711 -0.005132 -0.010197 0.000000 0.000000 0.000000
# 2 -0.005132 0.025415 -0.008736 0.000000 0.000000 0.000000
# 3 -0.010197 -0.008736 0.015335 0.000000 0.000000 0.000000
# 4 0.000000 0.000000 0.000000 0.041027 0.000000 0.000000
# 5 0.000000 0.000000 0.000000 0.000000 0.142457 0.000000
# 6 0.000000 0.000000 0.000000 0.000000 0.000000 0.044894
#
#
# Mechanical properties :
#
#
# Convention : Reuss Voigt Hill
#
# Bulk Modulus (GPa) = 49.18703 66.90659 58.04681
# Shear Modulus (GPa) = 14.21479 18.44059 16.32769
#
# Velocity S-wave (km/s) = 2.98502 3.39989 3.19919
# Velocity P-wave (km/s) = 6.53550 7.57310 7.07335
#
# Compressibility (1/GPa) = 0.02033056
#
# Stress axis : x y z
#
# Youngs Moduli (GPa) = 36.08643 39.34700 65.21224
#
# Poissons Ratio (x) = 0.20194 0.66497
# Poissons Ratio (y) = 0.18520 0.56969
# Poissons Ratio (z) = 0.36797 0.34373
#
# Static dielectric constant tensor:
#      x y z
#    x 1.535010 0.000000 0.000000 
#    y 0.000000 1.533540 0.000000 
#    z 0.000000 0.000000 1.558200 
# 
# From -- ./inp_files/66198.got.cif
#   From: 2010.05.17/outbox.cif.g08.bks.cpg/sg65_34_cif.got.tgz:66198.got - 2010.06.03 17:01:31.
