data_PCOD9488192
_publ_section_title
;
Structure prediction by ZEFSAII (Michael W. Deem and Ramdas Pophale) SiO2 
 PCOD9488192
Probable space group: C M M M
;
_chemical_formula_sum "Si O2"
_cell_formula_units_Z 120
_cell_length_a 8.320873
_cell_length_b 26.870745
_cell_length_c 28.056750
_cell_angle_alpha 90.000000
_cell_angle_beta 90.000000
_cell_angle_gamma 90.000000
_cell_volume 6273.154206
_symmetry_space_group_name_H-M "C M M M"
_symmetry_group_IT_number 65
_symmetry_cell_setting 'orthorhombic'
loop_
_space_group_symop_operation_xyz
x,y,z
-x,-y,z
x,-y,-z
-x,y,-z
-x,-y,-z
x,y,-z
-x,y,z
x,-y,z
1/2+x,1/2+y,z
1/2-x,1/2-y,z
1/2+x,1/2-y,-z
1/2-x,1/2+y,-z
1/2-x,1/2-y,-z
1/2+x,1/2+y,-z
1/2-x,1/2+y,z
1/2+x,1/2-y,z
loop_
_atom_site_type_symbol
_atom_site_label
_atom_site_fract_x
_atom_site_fract_y
_atom_site_fract_z
Si Si1 0.691462 0.055100 0.912812
Si Si2 0.694083 0.556467 0.293260
Si Si3 0.807502 0.159825 0.051697
Si Si4 0.807492 0.000000 0.554805
Si Si5 0.194840 0.090354 0.188411
Si Si6 0.807099 0.802738 0.152360
Si Si7 0.692001 0.901978 0.389462
Si Si8 0.693986 0.195619 0.555089
O O1 0.500000 0.058606 0.919400
O O2 0.771760 0.101559 0.939277
O O3 0.732209 0.061948 0.856812
O O4 0.744688 0.000000 0.928245
O O5 0.500000 0.557419 0.293881
O O6 0.746506 0.500000 0.303994
O O7 0.745181 0.570659 0.239872
O O8 0.755390 0.591866 0.334862
O O9 0.744375 0.188499 0.098235
O O10 0.000000 0.166039 0.051218
O O11 0.742840 0.175199 0.000000
O O12 0.751667 0.049678 0.581770
O O13 0.749685 0.000000 0.500000
O O14 0.000000 0.000000 0.554853
O O15 0.239539 0.148326 0.181777
O O16 0.000000 0.086109 0.184839
O O17 0.750000 0.750000 0.171137
O O18 0.000000 0.802387 0.150637
O O19 0.500000 0.901876 0.391729
O O20 0.751460 0.850957 0.413693
O O21 0.747471 0.189478 0.500000
O O22 0.500000 0.195266 0.555275
O O23 0.750000 0.250000 0.571705
#
# Coordination Sequence:
#
# PCOD9488192 Si02
#       8
#    16  16  16   8  16  16  16  16
#     4  10  20  32  48  74 105 133 165 211 261 310
#     4  10  20  35  56  80 108 142 181 221 263 317
#     4   9  19  35  52  71  98 134 175 213 251 308
#     4  11  23  37  55  81 113 151 193 231 270 325
#     4   9  19  36  56  76  99 135 177 216 257 309
#     4   9  18  33  53  76 101 129 168 215 263 312
#     4  11  22  36  55  82 116 149 181 226 282 333
#     4   9  19  36  57  80 106 141 186 230 273 322
#
# _framework density 19.129131000000001
#
# number of rings (size 3 to 8) (size 9 to 14) (size 15 to 20)
#    0.000    2.333    0.667    2.600    0.000    7.200 
#    0.000    3.333    0.000    3.200    0.000    0.000 
#    0.000    0.000    0.000    0.000    0.000    0.000 
#
# Total GULP energy -334865.870156 kJ/mol
# GULP energy per Si atom -5581.097836 kJ/mol
# Density = 1.908559 g / cm^3
# Si number density = 19.129131 Si / 1000 Ang^3
#
#
#
# Elastic Constant Matrix: (Units=GPa)
#
#
# Indices 1 2 3 4 5 6 
#
# 1 6.8358 2.8558 6.0713 0.0000 0.0000 0.0000
# 2 2.8558 98.0373 12.3345 0.0000 0.0000 0.0000
# 3 6.0713 12.3345 71.1348 0.0000 0.0000 0.0000
# 4 0.0000 0.0000 0.0000 1.4083 0.0000 0.0000
# 5 0.0000 0.0000 0.0000 0.0000 12.3095 0.0000
# 6 0.0000 0.0000 0.0000 0.0000 0.0000 25.7064
#
#
#
# Elastic Compliance Matrix: (Units=1/GPa)
#
#
# Indices 1 2 3 4 5 6 
#
# 1 0.159141 -0.002992 -0.013064 0.000000 0.000000 0.000000
# 2 -0.002992 0.010484 -0.001562 0.000000 0.000000 0.000000
# 3 -0.013064 -0.001562 0.015444 0.000000 0.000000 0.000000
# 4 0.000000 0.000000 0.000000 0.710100 0.000000 0.000000
# 5 0.000000 0.000000 0.000000 0.000000 0.081238 0.000000
# 6 0.000000 0.000000 0.000000 0.000000 0.000000 0.038901
#
#
# Mechanical properties :
#
#
# Convention : Reuss Voigt Hill
#
# Bulk Modulus (GPa) = 6.67415 24.28126 15.47770
# Shear Modulus (GPa) = 4.54344 18.20126 11.37235
#
# Velocity S-wave (km/s) = 1.54282 3.08798 2.44089
# Velocity P-wave (km/s) = 2.58269 5.04332 4.00658
#
# Compressibility (1/GPa) = 0.14983174
#
# Stress axis : x y z
#
# Youngs Moduli (GPa) = 6.28373 95.38397 64.75111
#
# Poissons Ratio (x) = 0.28540 0.84590
# Poissons Ratio (y) = 0.01880 0.10117
# Poissons Ratio (z) = 0.08209 0.14904
#
# Static dielectric constant tensor:
#      x y z
#    x 1.666880 0.000000 0.000000 
#    y 0.000000 1.658710 0.000000 
#    z 0.000000 0.000000 1.667050 
# 
# From -- ./inp_files/73968.got.cif
#   From: 2010.05.17/outbox.cif.g08.bks.cpg/sg65_37_cif.got.tgz:73968.got - 2010.06.03 17:01:31.
