data_PCOD9488037
_publ_section_title
;
Structure prediction by ZEFSAII (Michael W. Deem and Ramdas Pophale) SiO2 
 PCOD9488037
Probable space group: C M M M
;
_chemical_formula_sum "Si O2"
_cell_formula_units_Z 104
_cell_length_a 27.689091
_cell_length_b 9.181908
_cell_length_c 27.407885
_cell_angle_alpha 90.000000
_cell_angle_beta 90.000000
_cell_angle_gamma 90.000000
_cell_volume 6968.144673
_symmetry_space_group_name_H-M "C M M M"
_symmetry_group_IT_number 65
_symmetry_cell_setting 'orthorhombic'
loop_
_space_group_symop_operation_xyz
x,y,z
-x,-y,z
x,-y,-z
-x,y,-z
-x,-y,-z
x,y,-z
-x,y,z
x,-y,z
1/2+x,1/2+y,z
1/2-x,1/2-y,z
1/2+x,1/2-y,-z
1/2-x,1/2+y,-z
1/2-x,1/2-y,-z
1/2+x,1/2+y,-z
1/2-x,1/2+y,z
1/2+x,1/2-y,z
loop_
_atom_site_type_symbol
_atom_site_label
_atom_site_fract_x
_atom_site_fract_y
_atom_site_fract_z
Si Si1 0.643296 0.324877 0.099646
Si Si2 0.699985 0.673150 0.197644
Si Si3 0.802210 0.824743 0.000000
Si Si4 0.944013 0.674051 0.150494
Si Si5 0.943157 0.174311 0.651525
Si Si6 0.900214 0.824378 0.244778
Si Si7 0.441525 0.828387 0.553564
O O1 0.635498 0.500000 0.101229
O O2 0.680136 0.288128 0.143682
O O3 0.667426 0.286156 0.048329
O O4 0.593443 0.244652 0.112361
O O5 0.707120 0.500000 0.198687
O O6 0.750000 0.750000 0.208542
O O7 0.655763 0.708795 0.233712
O O8 0.750000 0.750000 0.000000
O O9 0.795659 0.000000 0.000000
O O10 0.937119 0.500000 0.152661
O O11 0.930867 0.744994 0.202839
O O12 0.000000 0.703716 0.138838
O O13 0.916389 0.218062 0.701113
O O14 0.924351 0.246247 0.601759
O O15 0.000000 0.211283 0.657057
O O16 0.939752 0.000000 0.646909
O O17 0.906688 0.000000 0.239408
O O18 0.424637 0.776115 0.500000
O O19 0.500000 0.813807 0.553307
O O20 0.430924 0.000000 0.557260
#
# Coordination Sequence:
#
# PCOD9488037 Si02
#       7
#    16  16   8  16  16  16  16
#     4   9  19  34  50  69  92 118 147 176 211 261
#     4   9  17  29  45  64  86 112 140 171 210 256
#     4  10  20  34  53  76  97 117 146 183 223 266
#     4  10  20  32  47  68  91 116 149 185 218 254
#     4   9  16  25  39  59  82 110 144 179 211 245
#     4   9  18  31  45  63  88 117 147 178 216 263
#     4   8  14  24  36  51  76 111 145 175 210 250
#
# _framework density 14.925063
#
# number of rings (size 3 to 8) (size 9 to 14) (size 15 to 20)
#    0.000    2.923    0.000    2.769    0.000    5.846 
#    0.000    3.462    0.000    2.308    0.000    0.000 
#    0.000    0.615    0.000    1.385    0.000    2.462 
#
# Total GULP energy -289647.741202 kJ/mol
# GULP energy per Si atom -5570.148869 kJ/mol
# Density = 1.489109 g / cm^3
# Si number density = 14.925063 Si / 1000 Ang^3
#
#
#
# Elastic Constant Matrix: (Units=GPa)
#
#
# Indices 1 2 3 4 5 6 
#
# 1 96.6367 41.9767 66.7704 0.0000 0.0000 0.0000
# 2 41.9767 27.1320 43.2866 0.0000 0.0000 0.0000
# 3 66.7704 43.2866 153.2941 0.0000 0.0000 0.0000
# 4 0.0000 0.0000 0.0000 16.1820 0.0000 0.0000
# 5 0.0000 0.0000 0.0000 0.0000 13.9812 0.0000
# 6 0.0000 0.0000 0.0000 0.0000 0.0000 24.9937
#
#
#
# Elastic Compliance Matrix: (Units=1/GPa)
#
#
# Indices 1 2 3 4 5 6 
#
# 1 0.031553 -0.048936 0.000075 0.000000 0.000000 0.000000
# 2 -0.048936 0.142969 -0.019056 0.000000 0.000000 0.000000
# 3 0.000075 -0.019056 0.011872 0.000000 0.000000 0.000000
# 4 0.000000 0.000000 0.000000 0.061797 0.000000 0.000000
# 5 0.000000 0.000000 0.000000 0.000000 0.071525 0.000000
# 6 0.000000 0.000000 0.000000 0.000000 0.000000 0.040010
#
#
# Mechanical properties :
#
#
# Convention : Reuss Voigt Hill
#
# Bulk Modulus (GPa) = 19.77862 64.57001 42.17432
# Shear Modulus (GPa) = 9.75776 19.36664 14.56220
#
# Velocity S-wave (km/s) = 2.55969 3.60612 3.12699
# Velocity P-wave (km/s) = 4.69220 7.79073 6.43087
#
# Compressibility (1/GPa) = 0.05055964
#
# Stress axis : x y z
#
# Youngs Moduli (GPa) = 31.69290 6.99453 84.23284
#
# Poissons Ratio (x) = 0.34228 -0.00630
# Poissons Ratio (y) = 1.55091 1.60515
# Poissons Ratio (z) = -0.00237 0.13329
#
# Static dielectric constant tensor:
#      x y z
#    x 1.473450 0.000000 0.000000 
#    y 0.000000 1.500420 0.000000 
#    z 0.000000 0.000000 1.499920 
# 
# From -- ./inp_files/76010.got.cif
#   From: 2010.05.17/outbox.cif.g08.bks.cpg/sg65_39_cif.got.tgz:76010.got - 2010.06.03 17:01:31.
