data_PCOD9488820
_publ_section_title
;
Structure prediction by ZEFSAII (Michael W. Deem and Ramdas Pophale) SiO2 
 PCOD9488820
Probable space group: C M M M
;
_chemical_formula_sum "Si O2"
_cell_formula_units_Z 96
_cell_length_a 8.848155
_cell_length_b 18.570155
_cell_length_c 31.900769
_cell_angle_alpha 90.000000
_cell_angle_beta 90.000000
_cell_angle_gamma 90.000000
_cell_volume 5241.666709
_symmetry_space_group_name_H-M "C M M M"
_symmetry_group_IT_number 65
_symmetry_cell_setting 'orthorhombic'
loop_
_space_group_symop_operation_xyz
x,y,z
-x,-y,z
x,-y,-z
-x,y,-z
-x,-y,-z
x,y,-z
-x,y,z
x,-y,z
1/2+x,1/2+y,z
1/2-x,1/2-y,z
1/2+x,1/2-y,-z
1/2-x,1/2+y,-z
1/2-x,1/2-y,-z
1/2+x,1/2+y,-z
1/2-x,1/2+y,z
1/2+x,1/2-y,z
loop_
_atom_site_type_symbol
_atom_site_label
_atom_site_fract_x
_atom_site_fract_y
_atom_site_fract_z
Si Si1 0.677086 0.412634 0.546168
Si Si2 0.316054 0.417489 0.206948
Si Si3 0.681402 0.915319 0.048042
Si Si4 0.681388 0.670528 0.710502
Si Si5 0.179342 0.414474 0.633161
Si Si6 0.681253 0.670792 0.124632
O O1 0.729254 0.387586 0.500000
O O2 0.500000 0.394130 0.550804
O O3 0.685649 0.500000 0.545468
O O4 0.768542 0.389400 0.586957
O O5 0.500000 0.418955 0.207000
O O6 0.263170 0.500000 0.207731
O O7 0.269378 0.374101 0.248317
O O8 0.269382 0.376616 0.164717
O O9 0.500000 0.907077 0.051942
O O10 0.763307 0.867570 0.082377
O O11 0.716095 0.000000 0.054449
O O12 0.722413 0.896870 0.000000
O O13 0.500000 0.674806 0.710517
O O14 0.750000 0.750000 0.711704
O O15 0.736567 0.628865 0.669299
O O16 0.214740 0.500000 0.636873
O O17 0.000000 0.405816 0.637466
O O18 0.500000 0.675097 0.124831
O O19 0.750000 0.750000 0.127790
#
# Coordination Sequence:
#
# PCOD9488820 Si02
#       6
#    16  16  16  16  16  16
#     4   8  14  26  46  73 104 138 177 219 263 313
#     4   9  19  36  58  83 108 137 176 221 268 319
#     4   9  19  37  59  82 110 144 183 228 276 325
#     4  11  22  37  57  78 106 142 178 218 266 320
#     4  10  20  33  51  78 110 141 178 223 267 315
#     4  11  22  36  56  82 114 148 183 224 269 321
#
# _framework density 18.314785000000001
#
# number of rings (size 3 to 8) (size 9 to 14) (size 15 to 20)
#    0.000    2.333    0.000    4.000    0.000    3.667 
#    0.000    5.000    0.000    6.500    0.000    0.000 
#    0.000    0.000    0.000    0.000    0.000    0.000 
#
# Total GULP energy -267909.594962 kJ/mol
# GULP energy per Si atom -5581.449895 kJ/mol
# Density = 1.827310 g / cm^3
# Si number density = 18.314785 Si / 1000 Ang^3
#
#
#
# Elastic Constant Matrix: (Units=GPa)
#
#
# Indices 1 2 3 4 5 6 
#
# 1 46.3923 53.4037 59.6674 0.0000 0.0000 0.0000
# 2 53.4037 118.5348 100.4550 0.0000 0.0000 0.0000
# 3 59.6674 100.4550 179.6899 0.0000 0.0000 0.0000
# 4 0.0000 0.0000 0.0000 -13.5751 0.0000 0.0000
# 5 0.0000 0.0000 0.0000 0.0000 11.6490 0.0000
# 6 0.0000 0.0000 0.0000 0.0000 0.0000 8.4525
#
#
#
# Elastic Compliance Matrix: (Units=1/GPa)
#
#
# Indices 1 2 3 4 5 6 
#
# 1 0.049661 -0.015961 -0.007568 0.000000 0.000000 0.000000
# 2 -0.015961 0.021161 -0.006530 0.000000 0.000000 0.000000
# 3 -0.007568 -0.006530 0.011729 0.000000 0.000000 0.000000
# 4 0.000000 0.000000 0.000000 -0.073664 0.000000 0.000000
# 5 0.000000 0.000000 0.000000 0.000000 0.085844 0.000000
# 6 0.000000 0.000000 0.000000 0.000000 0.000000 0.118309
#
#
# Mechanical properties :
#
#
# Convention : Reuss Voigt Hill
#
# Bulk Modulus (GPa) = 44.57479 85.74100 65.15790
# Shear Modulus (GPa) = 17.81672 10.04468 13.93070
#
# Velocity S-wave (km/s) = 3.12237 2.34443 2.76094
# Velocity P-wave (km/s) = 6.11473 7.36514 6.76887
#
# Compressibility (1/GPa) = 0.02243420
#
# Stress axis : x y z
#
# Youngs Moduli (GPa) = 20.13642 47.25577 85.26002
#
# Poissons Ratio (x) = 0.75423 0.64522
# Poissons Ratio (y) = 0.32139 0.55678
# Poissons Ratio (z) = 0.15239 0.30860
#
# Static dielectric constant tensor:
#      x y z
#    x 1.613000 0.000000 0.000000 
#    y 0.000000 1.604720 0.000000 
#    z 0.000000 0.000000 1.622120 
# 
# From -- ./inp_files/73167.got.cif
#   From: 2010.05.17/outbox.cif.g08.bks.cpg/sg65_37_cif.got.tgz:73167.got - 2010.06.03 17:01:31.
