data_PCOD9488245
_publ_section_title
;
Structure prediction by ZEFSAII (Michael W. Deem and Ramdas Pophale) SiO2 
 PCOD9488245
Probable space group: C M M M
;
_chemical_formula_sum "Si O2"
_cell_formula_units_Z 88
_cell_length_a 18.689087
_cell_length_b 9.232089
_cell_length_c 28.762741
_cell_angle_alpha 90.000000
_cell_angle_beta 90.000000
_cell_angle_gamma 90.000000
_cell_volume 4962.703616
_symmetry_space_group_name_H-M "C M M M"
_symmetry_group_IT_number 65
_symmetry_cell_setting 'orthorhombic'
loop_
_space_group_symop_operation_xyz
x,y,z
-x,-y,z
x,-y,-z
-x,y,-z
-x,-y,-z
x,y,-z
-x,y,z
x,-y,z
1/2+x,1/2+y,z
1/2-x,1/2-y,z
1/2+x,1/2-y,-z
1/2-x,1/2+y,-z
1/2-x,1/2-y,-z
1/2+x,1/2+y,-z
1/2-x,1/2+y,z
1/2+x,1/2-y,z
loop_
_atom_site_type_symbol
_atom_site_label
_atom_site_fract_x
_atom_site_fract_y
_atom_site_fract_z
Si Si1 0.416019 0.326842 0.592247
Si Si2 0.674121 0.828166 0.221755
Si Si3 0.326490 0.326298 0.500000
Si Si4 0.912996 0.668362 0.051856
Si Si5 0.413696 0.332338 0.855849
Si Si6 0.826172 0.672039 0.670029
O O1 0.500000 0.297161 0.585852
O O2 0.407948 0.500000 0.599905
O O3 0.371697 0.288701 0.545952
O O4 0.383406 0.240772 0.635436
O O5 0.750000 0.750000 0.214387
O O6 0.618424 0.759576 0.186142
O O7 0.654042 0.804465 0.275852
O O8 0.680878 0.000000 0.214409
O O9 0.316554 0.500000 0.500000
O O10 0.250000 0.250000 0.500000
O O11 0.892939 0.500000 0.058849
O O12 0.889128 0.765805 0.094815
O O13 0.000000 0.672646 0.051603
O O14 0.889525 0.713880 0.000000
O O15 0.500000 0.324909 0.854681
O O16 0.392490 0.500000 0.851877
O O17 0.818771 0.500000 0.662407
O O18 0.750000 0.750000 0.661890
#
# Coordination Sequence:
#
# PCOD9488245 Si02
#       6
#    16  16   8  16  16  16
#     4  10  21  37  57  81 111 145 178 217 265 313
#     4  10  21  37  56  76 102 137 175 216 262 314
#     4  10  21  37  57  81 109 144 185 222 260 310
#     4   8  14  26  45  69  98 133 172 213 258 308
#     4  10  20  32  49  76 107 137 172 215 260 309
#     4  10  21  37  57  80 105 136 176 219 262 313
#
# _framework density 17.732271000000001
#
# number of rings (size 3 to 8) (size 9 to 14) (size 15 to 20)
#    0.000    2.364    0.000    3.000    0.000    8.000 
#    0.000    5.455    0.000    2.182    0.000    0.000 
#    0.000    0.000    0.000    0.000    0.000    0.000 
#
# Total GULP energy -245527.046885 kJ/mol
# GULP energy per Si atom -5580.160156 kJ/mol
# Density = 1.769191 g / cm^3
# Si number density = 17.732271 Si / 1000 Ang^3
#
#
#
# Elastic Constant Matrix: (Units=GPa)
#
#
# Indices 1 2 3 4 5 6 
#
# 1 72.2336 54.8594 69.2612 0.0000 0.0000 0.0000
# 2 54.8594 96.7225 86.0433 0.0000 0.0000 0.0000
# 3 69.2612 86.0433 123.9426 0.0000 0.0000 0.0000
# 4 0.0000 0.0000 0.0000 33.3399 0.0000 0.0000
# 5 0.0000 0.0000 0.0000 0.0000 53.8732 0.0000
# 6 0.0000 0.0000 0.0000 0.0000 0.0000 30.0134
#
#
#
# Elastic Compliance Matrix: (Units=1/GPa)
#
#
# Indices 1 2 3 4 5 6 
#
# 1 0.030972 -0.005674 -0.013368 0.000000 0.000000 0.000000
# 2 -0.005674 0.028074 -0.016319 0.000000 0.000000 0.000000
# 3 -0.013368 -0.016319 0.026867 0.000000 0.000000 0.000000
# 4 0.000000 0.000000 0.000000 0.029994 0.000000 0.000000
# 5 0.000000 0.000000 0.000000 0.000000 0.018562 0.000000
# 6 0.000000 0.000000 0.000000 0.000000 0.000000 0.033318
#
#
# Mechanical properties :
#
#
# Convention : Reuss Voigt Hill
#
# Bulk Modulus (GPa) = 65.83003 79.24738 72.53871
# Shear Modulus (GPa) = 20.52766 28.96096 24.74431
#
# Velocity S-wave (km/s) = 3.40611 4.04571 3.73961
# Velocity P-wave (km/s) = 7.25767 8.16161 7.72287
#
# Compressibility (1/GPa) = 0.01519064
#
# Stress axis : x y z
#
# Youngs Moduli (GPa) = 32.28764 35.61993 37.21991
#
# Poissons Ratio (x) = 0.20212 0.49756
# Poissons Ratio (y) = 0.18321 0.60738
# Poissons Ratio (z) = 0.43163 0.58127
#
# Static dielectric constant tensor:
#      x y z
#    x 1.580840 0.000000 0.000000 
#    y 0.000000 1.590520 0.000000 
#    z 0.000000 0.000000 1.599820 
# 
# From -- ./inp_files/70956.got.cif
#   From: 2010.05.17/outbox.cif.g08.bks.cpg/sg65_36_cif.got.tgz:70956.got - 2010.06.03 17:01:31.
