data_PCOD9488992
_publ_section_title
;
Structure prediction by ZEFSAII (Michael W. Deem and Ramdas Pophale) SiO2 
 PCOD9488992
Probable space group: C M M M
;
_chemical_formula_sum "Si O2"
_cell_formula_units_Z 100
_cell_length_a 7.465555
_cell_length_b 25.320370
_cell_length_c 25.061714
_cell_angle_alpha 90.000000
_cell_angle_beta 90.000000
_cell_angle_gamma 90.000000
_cell_volume 4737.431207
_symmetry_space_group_name_H-M "C M M M"
_symmetry_group_IT_number 65
_symmetry_cell_setting 'orthorhombic'
loop_
_space_group_symop_operation_xyz
x,y,z
-x,-y,z
x,-y,-z
-x,y,-z
-x,-y,-z
x,y,-z
-x,y,z
x,-y,z
1/2+x,1/2+y,z
1/2-x,1/2-y,z
1/2+x,1/2-y,-z
1/2-x,1/2+y,-z
1/2-x,1/2-y,-z
1/2+x,1/2+y,-z
1/2-x,1/2+y,z
1/2+x,1/2-y,z
loop_
_atom_site_type_symbol
_atom_site_label
_atom_site_fract_x
_atom_site_fract_y
_atom_site_fract_z
Si Si1 0.294165 0.610428 0.688121
Si Si2 0.000000 0.311781 0.500000
Si Si3 0.287654 0.191093 0.098281
Si Si4 0.208065 0.079618 0.942467
Si Si5 0.720974 0.500000 0.731491
Si Si6 0.216101 0.191603 0.598326
Si Si7 0.712660 0.809593 0.220152
Si Si8 0.781431 0.000000 0.145646
O O1 0.500000 0.600488 0.673719
O O2 0.216730 0.553329 0.702314
O O3 0.224810 0.646406 0.639923
O O4 0.289125 0.646452 0.740985
O O5 0.158753 0.311223 0.546523
O O6 0.500000 0.184897 0.100036
O O7 0.250000 0.250000 0.078085
O O8 0.216318 0.142246 0.065193
O O9 0.217992 0.187288 0.159319
O O10 0.278711 0.050028 0.890028
O O11 0.000000 0.064273 0.944628
O O12 0.288605 0.065350 0.000000
O O13 0.500000 0.500000 0.731957
O O14 0.779415 0.500000 0.793379
O O15 0.250000 0.250000 0.622142
O O16 0.000000 0.187354 0.587268
O O17 0.500000 0.817142 0.219160
O O18 0.750000 0.750000 0.239101
O O19 0.000000 0.000000 0.149271
#
# Coordination Sequence:
#
# PCOD9488992 Si02
#       8
#    16   4  16  16   8  16  16   8
#     4  10  21  36  57  87 119 154 196 240 293 346
#     4  12  24  40  66  91 134 167 204 254 302 348
#     4  10  21  36  53  77 105 145 188 229 285 351
#     4  10  20  34  54  80 109 141 184 239 289 342
#     4   9  18  35  59  84 115 154 192 237 288 349
#     4  11  23  37  61  95 128 166 207 251 300 359
#     4  10  20  33  54  79 113 146 184 234 290 357
#     4   9  17  32  58  86 110 143 188 234 290 351
#
# _framework density 21.108485999999999
#
# number of rings (size 3 to 8) (size 9 to 14) (size 15 to 20)
#    0.000    1.920    0.800    3.120    1.120    6.080 
#    0.000    0.800    0.000    4.800    0.000    2.800 
#    0.000    0.000    0.000    0.000    0.000    0.000 
#
# Total GULP energy -278682.459235 kJ/mol
# GULP energy per Si atom -5573.649185 kJ/mol
# Density = 2.106044 g / cm^3
# Si number density = 21.108486 Si / 1000 Ang^3
#
#
#
# Elastic Constant Matrix: (Units=GPa)
#
#
# Indices 1 2 3 4 5 6 
#
# 1 97.6208 8.6661 21.5394 0.0000 0.0000 0.0000
# 2 8.6661 171.8699 84.1868 0.0000 0.0000 0.0000
# 3 21.5394 84.1868 122.4412 0.0000 0.0000 0.0000
# 4 0.0000 0.0000 0.0000 -9.4302 0.0000 0.0000
# 5 0.0000 0.0000 0.0000 0.0000 7.0339 0.0000
# 6 0.0000 0.0000 0.0000 0.0000 0.0000 9.4859
#
#
#
# Elastic Compliance Matrix: (Units=1/GPa)
#
#
# Indices 1 2 3 4 5 6 
#
# 1 0.010695 0.000576 -0.002278 0.000000 0.000000 0.000000
# 2 0.000576 0.008804 -0.006155 0.000000 0.000000 0.000000
# 3 -0.002278 -0.006155 0.012800 0.000000 0.000000 0.000000
# 4 0.000000 0.000000 0.000000 -0.106043 0.000000 0.000000
# 5 0.000000 0.000000 0.000000 0.000000 0.142169 0.000000
# 6 0.000000 0.000000 0.000000 0.000000 0.000000 0.105420
#
#
# Mechanical properties :
#
#
# Convention : Reuss Voigt Hill
#
# Bulk Modulus (GPa) = 60.28952 68.96849 64.62901
# Shear Modulus (GPa) = 25.62970 19.92057 22.77513
#
# Velocity S-wave (km/s) = 3.48830 3.07534 3.28831
# Velocity P-wave (km/s) = 6.69687 6.73458 6.71575
#
# Compressibility (1/GPa) = 0.01658663
#
# Stress axis : x y z
#
# Youngs Moduli (GPa) = 93.50057 113.58332 78.12637
#
# Poissons Ratio (x) = -0.06548 0.17796
# Poissons Ratio (y) = -0.05390 0.48086
# Poissons Ratio (z) = 0.21298 0.69909
#
# Static dielectric constant tensor:
#      x y z
#    x 1.811330 0.000000 0.000000 
#    y 0.000000 1.765360 0.000000 
#    z 0.000000 0.000000 1.751050 
# 
# From -- ./inp_files/73427.got.cif
#   From: 2010.05.17/outbox.cif.g08.bks.cpg/sg65_37_cif.got.tgz:73427.got - 2010.06.03 17:01:31.
