data_PCOD9488994
_publ_section_title
;
Structure prediction by ZEFSAII (Michael W. Deem and Ramdas Pophale) SiO2 
 PCOD9488994
Probable space group: C M M M
;
_chemical_formula_sum "Si O2"
_cell_formula_units_Z 68
_cell_length_a 17.345452
_cell_length_b 24.046142
_cell_length_c 7.253171
_cell_angle_alpha 90.000000
_cell_angle_beta 90.000000
_cell_angle_gamma 90.000000
_cell_volume 3025.233810
_symmetry_space_group_name_H-M "C M M M"
_symmetry_group_IT_number 65
_symmetry_cell_setting 'orthorhombic'
loop_
_space_group_symop_operation_xyz
x,y,z
-x,-y,z
x,-y,-z
-x,y,-z
-x,-y,-z
x,y,-z
-x,y,z
x,-y,z
1/2+x,1/2+y,z
1/2-x,1/2-y,z
1/2+x,1/2-y,-z
1/2-x,1/2+y,-z
1/2-x,1/2-y,-z
1/2+x,1/2+y,-z
1/2-x,1/2+y,z
1/2+x,1/2-y,z
loop_
_atom_site_type_symbol
_atom_site_label
_atom_site_fract_x
_atom_site_fract_y
_atom_site_fract_z
Si Si1 0.087069 0.436027 0.777363
Si Si2 0.290618 0.843121 0.707799
Si Si3 0.379835 0.632467 0.278883
Si Si4 0.916116 0.260513 0.722370
Si Si5 0.500000 0.412495 0.000000
O O1 0.101282 0.500000 0.724789
O O2 0.150032 0.394046 0.704258
O O3 0.000000 0.421295 0.719836
O O4 0.089349 0.433372 0.000000
O O5 0.270347 0.824367 0.500000
O O6 0.209400 0.864082 0.782463
O O7 0.341460 0.793454 0.792556
O O8 0.384768 0.622079 0.500000
O O9 0.410609 0.695105 0.241351
O O10 0.432442 0.591898 0.160958
O O11 0.915537 0.267387 0.500000
O O12 0.000000 0.281154 0.787935
#
# Coordination Sequence:
#
# PCOD9488994 Si02
#       5
#    16  16  16  16   4
#     4   9  19  36  54  76 112 150 178 216 270 322
#     4  10  20  33  54  81 106 141 183 227 275 318
#     4  10  21  37  54  78 112 145 185 233 273 322
#     4   9  16  31  52  72 107 150 179 214 270 320
#     4  12  22  36  58  78 103 152 195 220 278 330
#
# _framework density 22.477601
#
# number of rings (size 3 to 8) (size 9 to 14) (size 15 to 20)
#    0.000    2.353    1.176    2.471    1.647    4.706 
#    2.118    2.353    0.000    0.000    0.000    1.647 
#    0.000    3.765    0.000    0.000    0.000    0.000 
#
# Total GULP energy -189378.365496 kJ/mol
# GULP energy per Si atom -5569.951926 kJ/mol
# Density = 2.242644 g / cm^3
# Si number density = 22.477601 Si / 1000 Ang^3
#
#
#
# Elastic Constant Matrix: (Units=GPa)
#
#
# Indices 1 2 3 4 5 6 
#
# 1 136.6087 -3.8255 10.3984 0.0000 0.0000 0.0000
# 2 -3.8255 21.5558 -5.5686 0.0000 0.0000 0.0000
# 3 10.3984 -5.5686 118.5092 0.0000 0.0000 0.0000
# 4 0.0000 0.0000 0.0000 11.3532 0.0000 0.0000
# 5 0.0000 0.0000 0.0000 0.0000 207.0216 0.0000
# 6 0.0000 0.0000 0.0000 0.0000 0.0000 20.4887
#
#
#
# Elastic Compliance Matrix: (Units=1/GPa)
#
#
# Indices 1 2 3 4 5 6 
#
# 1 0.007398 0.001159 -0.000595 0.000000 0.000000 0.000000
# 2 0.001159 0.047143 0.002113 0.000000 0.000000 0.000000
# 3 -0.000595 0.002113 0.008590 0.000000 0.000000 0.000000
# 4 0.000000 0.000000 0.000000 0.088081 0.000000 0.000000
# 5 0.000000 0.000000 0.000000 0.000000 0.004830 0.000000
# 6 0.000000 0.000000 0.000000 0.000000 0.000000 0.048807
#
#
# Mechanical properties :
#
#
# Convention : Reuss Voigt Hill
#
# Bulk Modulus (GPa) = 14.60137 30.96472 22.78305
# Shear Modulus (GPa) = 22.48991 66.15065 44.32028
#
# Velocity S-wave (km/s) = 3.16658 5.43079 4.44526
# Velocity P-wave (km/s) = 4.45866 7.28906 6.04194
#
# Compressibility (1/GPa) = 0.06848671
#
# Stress axis : x y z
#
# Youngs Moduli (GPa) = 135.17337 21.21206 116.41924
#
# Poissons Ratio (x) = -0.02459 0.06923
# Poissons Ratio (y) = -0.15670 -0.24605
# Poissons Ratio (z) = 0.08038 -0.04483
#
# Static dielectric constant tensor:
#      x y z
#    x 1.839940 0.000000 0.000000 
#    y 0.000000 1.809970 0.000000 
#    z 0.000000 0.000000 1.885450 
# 
# From -- ./inp_files/9217.got.cif
#   From: 2010.05.17/outbox.cif.g08.bks.cpg/sg65_5_cif.got.tgz:9217.got - 2010.06.03 17:01:31.
