data_PCOD9488174
_publ_section_title
;
Structure prediction by ZEFSAII (Michael W. Deem and Ramdas Pophale) SiO2 
 PCOD9488174
Probable space group: C M M M
;
_chemical_formula_sum "Si O2"
_cell_formula_units_Z 104
_cell_length_a 25.698563
_cell_length_b 18.176836
_cell_length_c 12.679004
_cell_angle_alpha 90.000000
_cell_angle_beta 90.000000
_cell_angle_gamma 90.000000
_cell_volume 5922.598155
_symmetry_space_group_name_H-M "C M M M"
_symmetry_group_IT_number 65
_symmetry_cell_setting 'orthorhombic'
loop_
_space_group_symop_operation_xyz
x,y,z
-x,-y,z
x,-y,-z
-x,y,-z
-x,-y,-z
x,y,-z
-x,y,z
x,-y,z
1/2+x,1/2+y,z
1/2-x,1/2-y,z
1/2+x,1/2-y,-z
1/2-x,1/2+y,-z
1/2-x,1/2-y,-z
1/2+x,1/2+y,-z
1/2-x,1/2+y,z
1/2+x,1/2-y,z
loop_
_atom_site_type_symbol
_atom_site_label
_atom_site_fract_x
_atom_site_fract_y
_atom_site_fract_z
Si Si1 0.598729 0.085950 0.376915
Si Si2 0.705453 0.084860 0.254470
Si Si3 0.905540 0.160360 0.379523
Si Si4 0.939721 0.000000 0.372382
Si Si5 0.557843 0.212023 0.228401
Si Si6 0.166747 0.717387 0.878723
Si Si7 0.708974 0.690277 0.315017
O O1 0.593242 0.105093 0.500000
O O2 0.658841 0.093337 0.339726
O O3 0.567046 0.140642 0.302333
O O4 0.584297 0.000000 0.363371
O O5 0.689860 0.139217 0.159494
O O6 0.759003 0.115588 0.301464
O O7 0.708382 0.000000 0.224196
O O8 0.924656 0.165804 0.500000
O O9 0.913461 0.076733 0.340394
O O10 0.934545 0.217685 0.304553
O O11 0.844512 0.180591 0.376339
O O12 0.938234 0.000000 0.500000
O O13 0.000000 0.000000 0.339500
O O14 0.500000 0.211033 0.183237
O O15 0.605068 0.214703 0.145582
O O16 0.191615 0.776697 0.798775
O O17 0.177533 0.732497 0.000000
O O18 0.750000 0.750000 0.359431
#
# Coordination Sequence:
#
# PCOD9488174 Si02
#       7
#    16  16  16   8  16  16  16
#     4   9  18  32  48  70 103 139 168 196 233 280
#     4   9  18  31  49  73  99 128 164 198 233 286
#     4  10  20  32  48  73 104 134 167 203 243 292
#     4   9  18  32  48  68  97 133 171 209 247 286
#     4  10  20  33  51  74  95 124 167 208 248 293
#     4   9  19  36  52  68  95 124 156 203 254 300
#     4   9  19  32  48  73  99 131 162 198 244 293
#
# _framework density 17.559861000000001
#
# number of rings (size 3 to 8) (size 9 to 14) (size 15 to 20)
#    0.000    2.692    0.000    1.846    1.077    6.462 
#    0.000    0.769    0.000    0.000    0.000    4.308 
#    0.000    5.846    0.000    0.000    0.000    0.000 
#
# Total GULP energy -289947.372842 kJ/mol
# GULP energy per Si atom -5575.911016 kJ/mol
# Density = 1.751989 g / cm^3
# Si number density = 17.559861 Si / 1000 Ang^3
#
#
#
# Elastic Constant Matrix: (Units=GPa)
#
#
# Indices 1 2 3 4 5 6 
#
# 1 74.3308 6.0418 -19.9553 0.0000 0.0000 0.0000
# 2 6.0418 70.5320 3.6733 0.0000 0.0000 0.0000
# 3 -19.9553 3.6733 33.7956 0.0000 0.0000 0.0000
# 4 0.0000 0.0000 0.0000 9.7299 0.0000 0.0000
# 5 0.0000 0.0000 0.0000 0.0000 1.0270 0.0000
# 6 0.0000 0.0000 0.0000 0.0000 0.0000 17.5752
#
#
#
# Elastic Compliance Matrix: (Units=1/GPa)
#
#
# Indices 1 2 3 4 5 6 
#
# 1 0.016237 -0.001901 0.009794 0.000000 0.000000 0.000000
# 2 -0.001901 0.014481 -0.002696 0.000000 0.000000 0.000000
# 3 0.009794 -0.002696 0.035666 0.000000 0.000000 0.000000
# 4 0.000000 0.000000 0.000000 0.102776 0.000000 0.000000
# 5 0.000000 0.000000 0.000000 0.000000 0.973663 0.000000
# 6 0.000000 0.000000 0.000000 0.000000 0.000000 0.056899
#
#
# Mechanical properties :
#
#
# Convention : Reuss Voigt Hill
#
# Bulk Modulus (GPa) = 13.02452 17.57531 15.29992
# Shear Modulus (GPa) = 4.11550 18.25967 11.18758
#
# Velocity S-wave (km/s) = 1.53257 3.22817 2.52684
# Velocity P-wave (km/s) = 3.25039 4.89135 4.15273
#
# Compressibility (1/GPa) = 0.07677825
#
# Stress axis : x y z
#
# Youngs Moduli (GPa) = 61.58647 69.05492 28.03796
#
# Poissons Ratio (x) = 0.13127 -0.27461
# Poissons Ratio (y) = 0.11707 0.07560
# Poissons Ratio (z) = -0.60320 0.18620
#
# Static dielectric constant tensor:
#      x y z
#    x 1.613700 0.000000 0.000000 
#    y 0.000000 1.600340 0.000000 
#    z 0.000000 0.000000 1.564220 
# 
# From -- ./inp_files/27497.got.cif
#   From: 2010.05.17/outbox.cif.g08.bks.cpg/sg65_14_cif.got.tgz:27497.got - 2010.06.03 17:01:31.
