data_PCOD9488227
_publ_section_title
;
Structure prediction by ZEFSAII (Michael W. Deem and Ramdas Pophale) SiO2 
 PCOD9488227
Probable space group: C M M M
;
_chemical_formula_sum "Si O2"
_cell_formula_units_Z 128
_cell_length_a 7.492438
_cell_length_b 30.752785
_cell_length_c 25.886348
_cell_angle_alpha 90.000000
_cell_angle_beta 90.000000
_cell_angle_gamma 90.000000
_cell_volume 5964.559772
_symmetry_space_group_name_H-M "C M M M"
_symmetry_group_IT_number 65
_symmetry_cell_setting 'orthorhombic'
loop_
_space_group_symop_operation_xyz
x,y,z
-x,-y,z
x,-y,-z
-x,y,-z
-x,-y,-z
x,y,-z
-x,y,z
x,-y,z
1/2+x,1/2+y,z
1/2-x,1/2-y,z
1/2+x,1/2-y,-z
1/2-x,1/2+y,-z
1/2-x,1/2-y,-z
1/2+x,1/2+y,-z
1/2-x,1/2+y,z
1/2+x,1/2-y,z
loop_
_atom_site_type_symbol
_atom_site_label
_atom_site_fract_x
_atom_site_fract_y
_atom_site_fract_z
Si Si1 0.285072 0.124120 0.866658
Si Si2 0.782341 0.548972 0.058457
Si Si3 0.286393 0.297642 0.581311
Si Si4 0.212599 0.885422 0.253420
Si Si5 0.717839 0.605472 0.443596
Si Si6 0.713815 0.800782 0.941568
Si Si7 0.281634 0.550340 0.657201
Si Si8 0.713478 0.703346 0.698842
O O1 0.500000 0.125365 0.868761
O O2 0.219941 0.084387 0.901555
O O3 0.240708 0.114238 0.807582
O O4 0.220592 0.168017 0.895509
O O5 0.725995 0.500000 0.070814
O O6 0.000000 0.549286 0.058910
O O7 0.728228 0.559386 0.000000
O O8 0.500000 0.300981 0.581769
O O9 0.250000 0.250000 0.557970
O O10 0.223833 0.343874 0.559417
O O11 0.217227 0.295886 0.640219
O O12 0.277603 0.924077 0.290906
O O13 0.284125 0.839028 0.273051
O O14 0.000000 0.885219 0.261423
O O15 0.770896 0.587885 0.500000
O O16 0.500000 0.605450 0.442134
O O17 0.774517 0.577763 0.393638
O O18 0.500000 0.806139 0.943677
O O19 0.750000 0.750000 0.932035
O O20 0.780494 0.811483 0.000000
O O21 0.500000 0.549973 0.656752
O O22 0.224461 0.500000 0.655913
O O23 0.500000 0.699460 0.695597
O O24 0.750000 0.750000 0.723902
#
# Coordination Sequence:
#
# PCOD9488227 Si02
#       8
#    16  16  16  16  16  16  16  16
#     4  10  20  32  49  75 102 126 159 204 244 282
#     4   8  14  27  49  74  97 122 153 191 238 288
#     4   9  16  28  46  69  97 128 158 191 234 283
#     4  10  20  34  49  68  97 132 164 196 241 293
#     4   9  16  27  46  72 100 127 159 204 251 291
#     4   9  18  33  52  73 100 134 169 205 246 291
#     4   9  17  31  50  69  93 128 167 203 244 298
#     4   9  17  30  48  66  89 123 160 194 229 275
#
# _framework density 21.460090999999998
#
# number of rings (size 3 to 8) (size 9 to 14) (size 15 to 20)
#    0.000    2.875    1.250    0.750    0.000    4.000 
#    0.000    3.750    0.000    1.125    0.000    0.875 
#    0.000    0.000    0.000    2.250    0.000    2.500 
#
# Total GULP energy -356904.027173 kJ/mol
# GULP energy per Si atom -5576.625425 kJ/mol
# Density = 2.141125 g / cm^3
# Si number density = 21.460091 Si / 1000 Ang^3
#
#
#
# Elastic Constant Matrix: (Units=GPa)
#
#
# Indices 1 2 3 4 5 6 
#
# 1 57.6509 4.0455 0.8809 0.0000 0.0000 0.0000
# 2 4.0455 186.8770 132.4866 0.0000 0.0000 0.0000
# 3 0.8809 132.4866 171.2653 0.0000 0.0000 0.0000
# 4 0.0000 0.0000 0.0000 16.3194 0.0000 0.0000
# 5 0.0000 0.0000 0.0000 0.0000 38.3439 0.0000
# 6 0.0000 0.0000 0.0000 0.0000 0.0000 7.5649
#
#
#
# Elastic Compliance Matrix: (Units=1/GPa)
#
#
# Indices 1 2 3 4 5 6 
#
# 1 0.017388 -0.000693 0.000447 0.000000 0.000000 0.000000
# 2 -0.000693 0.011878 -0.009185 0.000000 0.000000 0.000000
# 3 0.000447 -0.009185 0.012942 0.000000 0.000000 0.000000
# 4 0.000000 0.000000 0.000000 0.061277 0.000000 0.000000
# 5 0.000000 0.000000 0.000000 0.000000 0.026080 0.000000
# 6 0.000000 0.000000 0.000000 0.000000 0.000000 0.132190
#
#
# Mechanical properties :
#
#
# Convention : Reuss Voigt Hill
#
# Bulk Modulus (GPa) = 42.83621 76.73550 59.78586
# Shear Modulus (GPa) = 17.33722 31.00432 24.17077
#
# Velocity S-wave (km/s) = 2.84541 3.80510 3.35970
# Velocity P-wave (km/s) = 5.54972 7.42563 6.55513
#
# Compressibility (1/GPa) = 0.02334473
#
# Stress axis : x y z
#
# Youngs Moduli (GPa) = 57.51230 84.19240 77.27028
#
# Poissons Ratio (x) = 0.05836 -0.03452
# Poissons Ratio (y) = 0.03986 0.70970
# Poissons Ratio (z) = -0.02569 0.77327
#
# Static dielectric constant tensor:
#      x y z
#    x 1.848580 0.000000 0.000000 
#    y 0.000000 1.772710 0.000000 
#    z 0.000000 0.000000 1.772760 
# 
# From -- ./inp_files/69357.got.cif
#   From: 2010.05.17/outbox.cif.g08.bks.cpg/sg65_35_cif.got.tgz:69357.got - 2010.06.03 17:01:31.
