data_PCOD9488886
_publ_section_title
;
Structure prediction by ZEFSAII (Michael W. Deem and Ramdas Pophale) SiO2 
 PCOD9488886
Probable space group: C M M M
;
_chemical_formula_sum "Si O2"
_cell_formula_units_Z 88
_cell_length_a 18.441049
_cell_length_b 26.618104
_cell_length_c 10.233538
_cell_angle_alpha 90.000000
_cell_angle_beta 90.000000
_cell_angle_gamma 90.000000
_cell_volume 5023.293409
_symmetry_space_group_name_H-M "C M M M"
_symmetry_group_IT_number 65
_symmetry_cell_setting 'orthorhombic'
loop_
_space_group_symop_operation_xyz
x,y,z
-x,-y,z
x,-y,-z
-x,y,-z
-x,-y,-z
x,y,-z
-x,y,z
x,-y,z
1/2+x,1/2+y,z
1/2-x,1/2-y,z
1/2+x,1/2-y,-z
1/2-x,1/2+y,-z
1/2-x,1/2-y,-z
1/2+x,1/2+y,-z
1/2-x,1/2+y,z
1/2+x,1/2-y,z
loop_
_atom_site_type_symbol
_atom_site_label
_atom_site_fract_x
_atom_site_fract_y
_atom_site_fract_z
Si Si1 0.666247 0.266883 0.852801
Si Si2 0.759934 0.442582 0.653554
Si Si3 0.079376 0.419096 0.343472
Si Si4 0.584410 0.199927 0.353619
Si Si5 0.500000 0.441665 0.157841
Si Si6 0.849117 0.886321 0.844284
O O1 0.750000 0.250000 0.847670
O O2 0.625005 0.233493 0.749096
O O3 0.654361 0.326095 0.828637
O O4 0.639673 0.256602 0.000000
O O5 0.757284 0.425900 0.500000
O O6 0.733994 0.500000 0.657462
O O7 0.844202 0.441820 0.698217
O O8 0.711561 0.409926 0.750516
O O9 0.076217 0.427688 0.500000
O O10 0.086767 0.359307 0.322627
O O11 0.000000 0.435308 0.291309
O O12 0.614353 0.206375 0.500000
O O13 0.500000 0.213937 0.355236
O O14 0.500000 0.500000 0.204803
O O15 0.573181 0.411124 0.192584
O O16 0.500000 0.443910 0.000000
O O17 0.836627 0.896680 0.000000
#
# Coordination Sequence:
#
# PCOD9488886 Si02
#       6
#    16  16  16  16   8  16
#     4  10  21  34  50  76 106 134 169 213 260 311
#     4  10  20  33  52  79 106 132 169 217 266 309
#     4   8  15  30  51  75 105 140 175 209 246 301
#     4   9  18  32  51  74 100 134 173 205 244 303
#     4   9  18  34  55  75  93 125 179 225 254 301
#     4  10  21  36  55  75 100 136 176 215 261 318
#
# _framework density 17.518388000000002
#
# number of rings (size 3 to 8) (size 9 to 14) (size 15 to 20)
#    0.000    2.636    0.000    2.727    1.273    2.909 
#    0.000    2.273    0.000    3.273    0.000    1.273 
#    0.000    0.000    0.000    0.000    0.000    0.000 
#
# Total GULP energy -245105.837500 kJ/mol
# GULP energy per Si atom -5570.587216 kJ/mol
# Density = 1.747852 g / cm^3
# Si number density = 17.518388 Si / 1000 Ang^3
#
#
#
# Elastic Constant Matrix: (Units=GPa)
#
#
# Indices 1 2 3 4 5 6 
#
# 1 92.1336 43.3615 35.3059 0.0000 0.0000 0.0000
# 2 43.3615 65.1320 41.8256 0.0000 0.0000 0.0000
# 3 35.3059 41.8256 58.2599 0.0000 0.0000 0.0000
# 4 0.0000 0.0000 0.0000 -0.8886 0.0000 0.0000
# 5 0.0000 0.0000 0.0000 0.0000 7.2833 0.0000
# 6 0.0000 0.0000 0.0000 0.0000 0.0000 15.9515
#
#
#
# Elastic Compliance Matrix: (Units=1/GPa)
#
#
# Indices 1 2 3 4 5 6 
#
# 1 0.016262 -0.008345 -0.003864 0.000000 0.000000 0.000000
# 2 -0.008345 0.032769 -0.018468 0.000000 0.000000 0.000000
# 3 -0.003864 -0.018468 0.032764 0.000000 0.000000 0.000000
# 4 0.000000 0.000000 0.000000 -1.125416 0.000000 0.000000
# 5 0.000000 0.000000 0.000000 0.000000 0.137300 0.000000
# 6 0.000000 0.000000 0.000000 0.000000 0.000000 0.062690
#
#
# Mechanical properties :
#
#
# Convention : Reuss Voigt Hill
#
# Bulk Modulus (GPa) = 48.92050 50.72350 49.82200
# Shear Modulus (GPa) = -6.44776 10.80475 2.17850
#
# Velocity S-wave (km/s) = -1.92056 2.48617 1.11635
# Velocity P-wave (km/s) = 4.80289 6.10399 5.49211
#
# Compressibility (1/GPa) = 0.02044133
#
# Stress axis : x y z
#
# Youngs Moduli (GPa) = 61.49325 30.51701 30.52113
#
# Poissons Ratio (x) = 0.25467 0.11793
# Poissons Ratio (y) = 0.51317 0.56366
# Poissons Ratio (z) = 0.23759 0.56358
#
# Static dielectric constant tensor:
#      x y z
#    x 1.609790 0.000000 0.000000 
#    y 0.000000 1.606330 0.000000 
#    z 0.000000 0.000000 1.580500 
# 
# From -- ./inp_files/24812.got.cif
#   From: 2010.05.17/outbox.cif.g08.bks.cpg/sg65_13_cif.got.tgz:24812.got - 2010.06.03 17:01:31.
