data_PCOD9488981
_publ_section_title
;
Structure prediction by ZEFSAII (Michael W. Deem and Ramdas Pophale) SiO2 
 PCOD9488981
Probable space group: C M M M
;
_chemical_formula_sum "Si O2"
_cell_formula_units_Z 116
_cell_length_a 17.461282
_cell_length_b 16.158025
_cell_length_c 23.417811
_cell_angle_alpha 90.000000
_cell_angle_beta 90.000000
_cell_angle_gamma 90.000000
_cell_volume 6607.097240
_symmetry_space_group_name_H-M "C M M M"
_symmetry_group_IT_number 65
_symmetry_cell_setting 'orthorhombic'
loop_
_space_group_symop_operation_xyz
x,y,z
-x,-y,z
x,-y,-z
-x,y,-z
-x,-y,-z
x,y,-z
-x,y,z
x,-y,z
1/2+x,1/2+y,z
1/2-x,1/2-y,z
1/2+x,1/2-y,-z
1/2-x,1/2+y,-z
1/2-x,1/2-y,-z
1/2+x,1/2+y,-z
1/2-x,1/2+y,z
1/2+x,1/2-y,z
loop_
_atom_site_type_symbol
_atom_site_label
_atom_site_fract_x
_atom_site_fract_y
_atom_site_fract_z
Si Si1 0.791992 0.335149 0.343538
Si Si2 0.112268 0.340127 0.868782
Si Si3 0.781093 0.904112 0.860423
Si Si4 0.161494 0.907593 0.268893
Si Si5 0.586246 0.765592 0.256245
Si Si6 0.586177 0.680289 0.066716
Si Si7 0.586587 0.900330 0.433640
Si Si8 0.500000 0.000000 0.869415
O O1 0.750000 0.250000 0.360414
O O2 0.725392 0.393048 0.317823
O O3 0.849937 0.314406 0.291782
O O4 0.845487 0.368438 0.393824
O O5 0.202250 0.357697 0.872262
O O6 0.095310 0.290947 0.809807
O O7 0.089295 0.277866 0.919065
O O8 0.066187 0.425952 0.868793
O O9 0.797370 0.901009 0.792692
O O10 0.850962 0.863540 0.894344
O O11 0.774055 0.000000 0.876901
O O12 0.102792 0.831147 0.268054
O O13 0.128602 0.000000 0.273934
O O14 0.500000 0.787127 0.273839
O O15 0.500000 0.650870 0.080347
O O16 0.600932 0.665900 0.000000
O O17 0.597296 0.876450 0.500000
O O18 0.500000 0.873364 0.416315
O O19 0.586971 0.000000 0.431095
#
# Coordination Sequence:
#
# PCOD9488981 Si02
#       8
#    16  16  16  16  16  16  16   4
#     4  10  20  33  53  82 114 154 190 236 288 337
#     4  12  22  41  61  86 118 150 188 235 296 347
#     4  11  23  38  62  87 115 151 189 235 291 346
#     4  10  21  35  54  83 114 149 187 232 283 343
#     4  11  21  35  56  81 115 151 187 236 285 342
#     4  11  25  44  65  87 114 150 190 237 292 351
#     4   9  18  34  54  78 113 155 197 241 284 332
#     4  12  24  40  65  92 116 148 189 244 288 358
#
# _framework density 17.556878000000001
#
# number of rings (size 3 to 8) (size 9 to 14) (size 15 to 20)
#    0.000    1.379    4.828    1.655    0.000    2.207 
#    1.241    2.759    0.000    0.000    0.000    0.000 
#    0.000    0.000    0.000   25.655    0.000    0.138 
#
# Total GULP energy -323143.559028 kJ/mol
# GULP energy per Si atom -5571.440673 kJ/mol
# Density = 1.751692 g / cm^3
# Si number density = 17.556878 Si / 1000 Ang^3
#
#
#
# Elastic Constant Matrix: (Units=GPa)
#
#
# Indices 1 2 3 4 5 6 
#
# 1 86.3211 15.6047 40.9084 0.0000 0.0000 0.0000
# 2 15.6047 52.3867 16.6021 0.0000 0.0000 0.0000
# 3 40.9084 16.6021 68.5101 0.0000 0.0000 0.0000
# 4 0.0000 0.0000 0.0000 6.9327 0.0000 0.0000
# 5 0.0000 0.0000 0.0000 0.0000 27.5390 0.0000
# 6 0.0000 0.0000 0.0000 0.0000 0.0000 29.7411
#
#
#
# Elastic Compliance Matrix: (Units=1/GPa)
#
#
# Indices 1 2 3 4 5 6 
#
# 1 0.016333 -0.001922 -0.009287 0.000000 0.000000 0.000000
# 2 -0.001922 0.020903 -0.003918 0.000000 0.000000 0.000000
# 3 -0.009287 -0.003918 0.021091 0.000000 0.000000 0.000000
# 4 0.000000 0.000000 0.000000 0.144245 0.000000 0.000000
# 5 0.000000 0.000000 0.000000 0.000000 0.036312 0.000000
# 6 0.000000 0.000000 0.000000 0.000000 0.000000 0.033624
#
#
# Mechanical properties :
#
#
# Convention : Reuss Voigt Hill
#
# Bulk Modulus (GPa) = 35.62049 39.27202 37.44626
# Shear Modulus (GPa) = 16.01951 21.78274 18.90112
#
# Velocity S-wave (km/s) = 3.02393 3.52617 3.28466
# Velocity P-wave (km/s) = 5.70306 6.24464 5.97998
#
# Compressibility (1/GPa) = 0.02807373
#
# Stress axis : x y z
#
# Youngs Moduli (GPa) = 61.22440 47.84013 47.41310
#
# Poissons Ratio (x) = 0.09195 0.44033
# Poissons Ratio (y) = 0.11768 0.18575
# Poissons Ratio (z) = 0.56860 0.18742
#
# Static dielectric constant tensor:
#      x y z
#    x 1.593420 0.000000 0.000000 
#    y 0.000000 1.603390 0.000000 
#    z 0.000000 0.000000 1.580970 
# 
# From -- ./inp_files/70580.got.cif
#   From: 2010.05.17/outbox.cif.g08.bks.cpg/sg65_36_cif.got.tgz:70580.got - 2010.06.03 17:01:31.
