data_PCOD9488114
_publ_section_title
;
Structure prediction by ZEFSAII (Michael W. Deem and Ramdas Pophale) SiO2 
 PCOD9488114
Probable space group: C M M M
;
_chemical_formula_sum "Si O2"
_cell_formula_units_Z 96
_cell_length_a 25.958547
_cell_length_b 16.304575
_cell_length_c 12.174767
_cell_angle_alpha 90.000000
_cell_angle_beta 90.000000
_cell_angle_gamma 90.000000
_cell_volume 5152.885840
_symmetry_space_group_name_H-M "C M M M"
_symmetry_group_IT_number 65
_symmetry_cell_setting 'orthorhombic'
loop_
_space_group_symop_operation_xyz
x,y,z
-x,-y,z
x,-y,-z
-x,y,-z
-x,-y,-z
x,y,-z
-x,y,z
x,-y,z
1/2+x,1/2+y,z
1/2-x,1/2-y,z
1/2+x,1/2-y,-z
1/2-x,1/2+y,-z
1/2-x,1/2-y,-z
1/2+x,1/2+y,-z
1/2-x,1/2+y,z
1/2+x,1/2-y,z
loop_
_atom_site_type_symbol
_atom_site_label
_atom_site_fract_x
_atom_site_fract_y
_atom_site_fract_z
Si Si1 0.665203 0.905683 0.797419
Si Si2 0.690405 0.592263 0.000000
Si Si3 0.750932 0.848401 0.627060
Si Si4 0.847244 0.901620 0.232313
Si Si5 0.558966 0.132762 0.872654
Si Si6 0.440757 0.330600 0.125921
Si Si7 0.788857 0.326760 0.000000
O O1 0.703102 0.884237 0.696936
O O2 0.603240 0.898897 0.791396
O O3 0.676333 0.000000 0.828819
O O4 0.678417 0.838483 0.891047
O O5 0.675146 0.630189 0.884545
O O6 0.670082 0.500000 0.000000
O O7 0.751471 0.594891 0.000000
O O8 0.746983 0.873013 0.500000
O O9 0.750000 0.750000 0.634497
O O10 0.805865 0.875445 0.677476
O O11 0.904604 0.866391 0.221248
O O12 0.849034 0.000000 0.233574
O O13 0.500000 0.108386 0.847182
O O14 0.560660 0.231945 0.871559
O O15 0.569597 0.106821 0.000000
O O16 0.500000 0.356371 0.139643
O O17 0.425247 0.355932 0.000000
O O18 0.750000 0.250000 0.000000
#
# Coordination Sequence:
#
# PCOD9488114 Si02
#       7
#    16   8  16  16  16  16   8
#     4  12  23  36  57  84 117 150 186 234 288 345
#     4  10  20  32  47  78 116 146 177 217 274 337
#     4  11  25  43  61  81 106 145 194 240 287 342
#     4  11  21  33  54  82 117 151 183 229 284 341
#     4   9  19  34  54  81 116 156 192 229 272 330
#     4   9  18  32  52  80 116 155 194 230 271 330
#     4  12  24  32  51  82 114 153 187 227 274 339
#
# _framework density 18.630337000000001
#
# number of rings (size 3 to 8) (size 9 to 14) (size 15 to 20)
#    0.000    1.500    3.333    3.750    2.333    2.000 
#    0.000    1.667    0.000    1.000    0.000    7.000 
#    0.000    0.000    0.000    0.000    0.000    0.000 
#
# Total GULP energy -267581.691698 kJ/mol
# GULP energy per Si atom -5574.618577 kJ/mol
# Density = 1.858793 g / cm^3
# Si number density = 18.630337 Si / 1000 Ang^3
#
#
#
# Elastic Constant Matrix: (Units=GPa)
#
#
# Indices 1 2 3 4 5 6 
#
# 1 148.5145 36.2141 64.6516 0.0000 0.0000 0.0000
# 2 36.2141 76.4024 29.6848 0.0000 0.0000 0.0000
# 3 64.6516 29.6848 89.7976 0.0000 0.0000 0.0000
# 4 0.0000 0.0000 0.0000 14.4042 0.0000 0.0000
# 5 0.0000 0.0000 0.0000 0.0000 11.7436 0.0000
# 6 0.0000 0.0000 0.0000 0.0000 0.0000 18.1547
#
#
#
# Elastic Compliance Matrix: (Units=1/GPa)
#
#
# Indices 1 2 3 4 5 6 
#
# 1 0.010136 -0.002259 -0.006551 0.000000 0.000000 0.000000
# 2 -0.002259 0.015521 -0.003504 0.000000 0.000000 0.000000
# 3 -0.006551 -0.003504 0.017011 0.000000 0.000000 0.000000
# 4 0.000000 0.000000 0.000000 0.069424 0.000000 0.000000
# 5 0.000000 0.000000 0.000000 0.000000 0.085153 0.000000
# 6 0.000000 0.000000 0.000000 0.000000 0.000000 0.055082
#
#
# Mechanical properties :
#
#
# Convention : Reuss Voigt Hill
#
# Bulk Modulus (GPa) = 55.43425 63.97951 59.70688
# Shear Modulus (GPa) = 17.66982 21.13810 19.40396
#
# Velocity S-wave (km/s) = 3.08302 3.37205 3.23077
# Velocity P-wave (km/s) = 6.51865 7.04110 6.78490
#
# Compressibility (1/GPa) = 0.01803939
#
# Stress axis : x y z
#
# Youngs Moduli (GPa) = 98.65917 64.42909 58.78583
#
# Poissons Ratio (x) = 0.14556 0.38509
# Poissons Ratio (y) = 0.22289 0.20600
# Poissons Ratio (z) = 0.64629 0.22578
#
# Static dielectric constant tensor:
#      x y z
#    x 1.720890 0.000000 0.000000 
#    y 0.000000 1.687310 0.000000 
#    z 0.000000 0.000000 1.642620 
# 
# From -- ./inp_files/30823.got.cif
#   From: 2010.05.17/outbox.cif.g08.bks.cpg/sg65_16_cif.got.tgz:30823.got - 2010.06.03 17:01:31.
