data_PCOD9488622
_publ_section_title
;
Structure prediction by ZEFSAII (Michael W. Deem and Ramdas Pophale) SiO2 
 PCOD9488622
Probable space group: C M M M
;
_chemical_formula_sum "Si O2"
_cell_formula_units_Z 96
_cell_length_a 7.549766
_cell_length_b 29.520097
_cell_length_c 21.556224
_cell_angle_alpha 90.000000
_cell_angle_beta 90.000000
_cell_angle_gamma 90.000000
_cell_volume 4804.231863
_symmetry_space_group_name_H-M "C M M M"
_symmetry_group_IT_number 65
_symmetry_cell_setting 'orthorhombic'
loop_
_space_group_symop_operation_xyz
x,y,z
-x,-y,z
x,-y,-z
-x,y,-z
-x,-y,-z
x,y,-z
-x,y,z
x,-y,z
1/2+x,1/2+y,z
1/2-x,1/2-y,z
1/2+x,1/2-y,-z
1/2-x,1/2+y,-z
1/2-x,1/2-y,-z
1/2+x,1/2+y,-z
1/2-x,1/2+y,z
1/2+x,1/2-y,z
loop_
_atom_site_type_symbol
_atom_site_label
_atom_site_fract_x
_atom_site_fract_y
_atom_site_fract_z
Si Si1 0.212398 0.303090 0.189737
Si Si2 0.792213 0.050353 0.890500
Si Si3 0.285735 0.050119 0.744781
Si Si4 0.787493 0.302448 0.569759
Si Si5 0.206183 0.648197 0.067163
Si Si6 0.282877 0.143253 0.688467
O O1 0.250000 0.250000 0.188965
O O2 0.283736 0.327541 0.127850
O O3 0.276098 0.326494 0.252972
O O4 0.000000 0.309636 0.189940
O O5 0.770326 0.056458 0.816306
O O6 0.712069 0.094149 0.922682
O O7 0.000000 0.050425 0.905278
O O8 0.721279 0.000000 0.905874
O O9 0.500000 0.050516 0.745165
O O10 0.226847 0.091949 0.702915
O O11 0.226591 0.000000 0.724992
O O12 0.719008 0.311086 0.500000
O O13 0.750000 0.250000 0.585270
O O14 0.721333 0.335059 0.624073
O O15 0.000000 0.307327 0.567565
O O16 0.000000 0.661622 0.065018
O O17 0.285758 0.659392 0.000000
O O18 0.500000 0.143814 0.687459
#
# Coordination Sequence:
#
# PCOD9488622 Si02
#       6
#    16  16  16  16  16  16
#     4  10  20  34  50  70  94 121 157 201 242 282
#     4  10  20  33  50  74 102 126 152 195 249 294
#     4   9  16  29  51  73  94 125 162 196 234 285
#     4   9  17  29  46  69  99 132 162 194 235 282
#     4  10  21  37  54  70  92 126 165 200 236 286
#     4   9  16  29  49  72  97 124 158 198 237 276
#
# _framework density 19.982382000000001
#
# number of rings (size 3 to 8) (size 9 to 14) (size 15 to 20)
#    0.000    2.500    1.667    1.000    0.000    2.667 
#    0.000    2.500    0.000    0.500    0.000    3.500 
#    0.000    0.000    0.000    8.333    0.000    8.667 
#
# Total GULP energy -267891.169630 kJ/mol
# GULP energy per Si atom -5581.066034 kJ/mol
# Density = 1.993690 g / cm^3
# Si number density = 19.982382 Si / 1000 Ang^3
#
#
#
# Elastic Constant Matrix: (Units=GPa)
#
#
# Indices 1 2 3 4 5 6 
#
# 1 48.9083 -5.5773 4.6713 0.0000 0.0000 0.0000
# 2 -5.5773 122.4193 77.8131 0.0000 0.0000 0.0000
# 3 4.6713 77.8131 129.2058 0.0000 0.0000 0.0000
# 4 0.0000 0.0000 0.0000 4.8348 0.0000 0.0000
# 5 0.0000 0.0000 0.0000 0.0000 -9.2069 0.0000
# 6 0.0000 0.0000 0.0000 0.0000 0.0000 16.5649
#
#
#
# Elastic Compliance Matrix: (Units=1/GPa)
#
#
# Indices 1 2 3 4 5 6 
#
# 1 0.020917 0.002323 -0.002155 0.000000 0.000000 0.000000
# 2 0.002323 0.013493 -0.008210 0.000000 0.000000 0.000000
# 3 -0.002155 -0.008210 0.012762 0.000000 0.000000 0.000000
# 4 0.000000 0.000000 0.000000 0.206835 0.000000 0.000000
# 5 0.000000 0.000000 0.000000 0.000000 -0.108614 0.000000
# 6 0.000000 0.000000 0.000000 0.000000 0.000000 0.060369
#
#
# Mechanical properties :
#
#
# Convention : Reuss Voigt Hill
#
# Bulk Modulus (GPa) = 32.16737 50.48309 41.32523
# Shear Modulus (GPa) = 21.53234 17.34697 19.43965
#
# Velocity S-wave (km/s) = 3.28619 2.94957 3.12242
# Velocity P-wave (km/s) = 5.52554 6.07607 5.80733
#
# Compressibility (1/GPa) = 0.03108740
#
# Stress axis : x y z
#
# Youngs Moduli (GPa) = 47.80767 74.11251 78.35807
#
# Poissons Ratio (x) = -0.17215 0.16887
# Poissons Ratio (y) = -0.11105 0.64332
# Poissons Ratio (z) = 0.10303 0.60847
#
# Static dielectric constant tensor:
#      x y z
#    x 1.726110 0.000000 0.000000 
#    y 0.000000 1.691130 0.000000 
#    z 0.000000 0.000000 1.705990 
# 
# From -- ./inp_files/60214.got.cif
#   From: 2010.05.17/outbox.cif.g08.bks.cpg/sg65_31_cif.got.tgz:60214.got - 2010.06.03 17:01:31.
