data_PCOD9488617
_publ_section_title
;
Structure prediction by ZEFSAII (Michael W. Deem and Ramdas Pophale) SiO2 
 PCOD9488617
Probable space group: C M M M
;
_chemical_formula_sum "Si O2"
_cell_formula_units_Z 96
_cell_length_a 25.828204
_cell_length_b 20.835553
_cell_length_c 12.123860
_cell_angle_alpha 90.000000
_cell_angle_beta 90.000000
_cell_angle_gamma 90.000000
_cell_volume 6524.393589
_symmetry_space_group_name_H-M "C M M M"
_symmetry_group_IT_number 65
_symmetry_cell_setting 'orthorhombic'
loop_
_space_group_symop_operation_xyz
x,y,z
-x,-y,z
x,-y,-z
-x,y,-z
-x,-y,-z
x,y,-z
-x,y,z
x,-y,z
1/2+x,1/2+y,z
1/2-x,1/2-y,z
1/2+x,1/2-y,-z
1/2-x,1/2+y,-z
1/2-x,1/2-y,-z
1/2+x,1/2+y,-z
1/2-x,1/2+y,z
1/2+x,1/2-y,z
loop_
_atom_site_type_symbol
_atom_site_label
_atom_site_fract_x
_atom_site_fract_y
_atom_site_fract_z
Si Si1 0.938462 0.136935 0.127030
Si Si2 0.705447 0.805539 0.626850
Si Si3 0.194005 0.712078 0.000000
Si Si4 0.235689 0.570873 0.000000
Si Si5 0.722343 0.608624 0.765816
Si Si6 0.335634 0.500000 0.630098
Si Si7 0.938890 0.000000 0.757468
Si Si8 0.855196 0.227308 0.787217
O O1 0.929220 0.065053 0.172834
O O2 0.909404 0.191556 0.196364
O O3 0.000000 0.146810 0.129031
O O4 0.920157 0.140437 0.000000
O O5 0.698043 0.825161 0.500000
O O6 0.750000 0.750000 0.627559
O O7 0.727069 0.862654 0.704199
O O8 0.655639 0.771609 0.681393
O O9 0.250000 0.750000 0.000000
O O10 0.202718 0.636052 0.000000
O O11 0.161925 0.732210 0.106822
O O12 0.266957 0.577303 0.115107
O O13 0.210842 0.500000 0.000000
O O14 0.692386 0.560637 0.685632
O O15 0.685689 0.669231 0.784875
O O16 0.328851 0.500000 0.500000
O O17 0.396369 0.500000 0.661455
O O18 0.000000 0.000000 0.725533
#
# Coordination Sequence:
#
# PCOD9488617 Si02
#       8
#    16  16   8   8  16   8   8  16
#     4  10  20  33  50  73  99 127 167 217 267 307
#     4   9  18  31  47  66  93 125 161 200 242 297
#     4  12  18  30  49  74  98 128 164 202 251 304
#     4  12  22  32  48  72 107 130 158 201 250 302
#     4  11  20  32  47  73  95 128 166 208 251 299
#     4  12  24  35  48  66  98 140 181 215 253 299
#     4  10  21  37  50  64  90 130 179 224 260 296
#     4  11  18  30  51  70  94 126 165 209 253 300
#
# _framework density 14.714012
#
# number of rings (size 3 to 8) (size 9 to 14) (size 15 to 20)
#    0.000    1.333    6.667    1.250    0.000    1.833 
#    1.500    0.000    0.000    0.500    0.000    0.000 
#    0.000    1.333    0.000    0.000    0.000    6.833 
#
# Total GULP energy -267497.532791 kJ/mol
# GULP energy per Si atom -5572.865266 kJ/mol
# Density = 1.468052 g / cm^3
# Si number density = 14.714012 Si / 1000 Ang^3
#
#
#
# Elastic Constant Matrix: (Units=GPa)
#
#
# Indices 1 2 3 4 5 6 
#
# 1 44.5787 29.6639 31.4990 0.0000 0.0000 0.0000
# 2 29.6639 83.3400 34.8753 0.0000 0.0000 0.0000
# 3 31.4990 34.8753 114.0587 0.0000 0.0000 0.0000
# 4 0.0000 0.0000 0.0000 15.2774 0.0000 0.0000
# 5 0.0000 0.0000 0.0000 0.0000 17.2182 0.0000
# 6 0.0000 0.0000 0.0000 0.0000 0.0000 27.3611
#
#
#
# Elastic Compliance Matrix: (Units=1/GPa)
#
#
# Indices 1 2 3 4 5 6 
#
# 1 0.032940 -0.009080 -0.006321 0.000000 0.000000 0.000000
# 2 -0.009080 0.016262 -0.002465 0.000000 0.000000 0.000000
# 3 -0.006321 -0.002465 0.011267 0.000000 0.000000 0.000000
# 4 0.000000 0.000000 0.000000 0.065456 0.000000 0.000000
# 5 0.000000 0.000000 0.000000 0.000000 0.058078 0.000000
# 6 0.000000 0.000000 0.000000 0.000000 0.000000 0.036548
#
#
# Mechanical properties :
#
#
# Convention : Reuss Voigt Hill
#
# Bulk Modulus (GPa) = 40.42268 48.22819 44.32544
# Shear Modulus (GPa) = 18.90155 21.70062 20.30108
#
# Velocity S-wave (km/s) = 3.58801 3.84451 3.71848
# Velocity P-wave (km/s) = 6.68558 7.24950 6.97324
#
# Compressibility (1/GPa) = 0.02473859
#
# Stress axis : x y z
#
# Youngs Moduli (GPa) = 30.35806 61.49168 88.75731
#
# Poissons Ratio (x) = 0.55832 0.56101
# Poissons Ratio (y) = 0.27564 0.21879
# Poissons Ratio (z) = 0.19188 0.15158
#
# Static dielectric constant tensor:
#      x y z
#    x 1.482590 0.000000 0.000000 
#    y 0.000000 1.482610 0.000000 
#    z 0.000000 0.000000 1.503470 
# 
# From -- ./inp_files/31029.got.cif
#   From: 2010.05.17/outbox.cif.g08.bks.cpg/sg65_16_cif.got.tgz:31029.got - 2010.06.03 17:01:31.
