data_PCOD9488407
_publ_section_title
;
Structure prediction by ZEFSAII (Michael W. Deem and Ramdas Pophale) SiO2 
 PCOD9488407
Probable space group: C M M M
;
_chemical_formula_sum "Si O2"
_cell_formula_units_Z 100
_cell_length_a 32.159121
_cell_length_b 21.382200
_cell_length_c 7.713253
_cell_angle_alpha 90.000000
_cell_angle_beta 90.000000
_cell_angle_gamma 90.000000
_cell_volume 5303.885426
_symmetry_space_group_name_H-M "C M M M"
_symmetry_group_IT_number 65
_symmetry_cell_setting 'orthorhombic'
loop_
_space_group_symop_operation_xyz
x,y,z
-x,-y,z
x,-y,-z
-x,y,-z
-x,-y,-z
x,y,-z
-x,y,z
x,-y,z
1/2+x,1/2+y,z
1/2-x,1/2-y,z
1/2+x,1/2-y,-z
1/2-x,1/2+y,-z
1/2-x,1/2-y,-z
1/2+x,1/2+y,-z
1/2-x,1/2+y,z
1/2+x,1/2-y,z
loop_
_atom_site_type_symbol
_atom_site_label
_atom_site_fract_x
_atom_site_fract_y
_atom_site_fract_z
Si Si1 0.830203 0.139514 0.702793
Si Si2 0.347849 0.095196 0.202577
Si Si3 0.374215 0.000000 0.500000
Si Si4 0.953996 0.803700 0.296375
Si Si5 0.372067 0.234540 0.710980
Si Si6 0.748353 0.070545 0.791927
Si Si7 0.589142 0.569657 0.201243
O O1 0.840755 0.137729 0.500000
O O2 0.840286 0.209893 0.762481
O O3 0.783304 0.117625 0.727178
O O4 0.862838 0.091727 0.787872
O O5 0.360506 0.167424 0.216885
O O6 0.298980 0.087731 0.250901
O O7 0.371764 0.054170 0.344870
O O8 0.352516 0.075360 0.000000
O O9 0.956651 0.789342 0.500000
O O10 0.917179 0.759564 0.228053
O O11 0.937944 0.874933 0.281966
O O12 0.000000 0.796536 0.219911
O O13 0.371876 0.230442 0.500000
O O14 0.756656 0.000000 0.727331
O O15 0.751267 0.069796 0.000000
O O16 0.584262 0.500000 0.275513
O O17 0.577469 0.567530 0.000000
#
# Coordination Sequence:
#
# PCOD9488407 Si02
#       7
#    16  16   4  16  16  16  16
#     4  10  21  33  52  76 106 148 193 237 281 327
#     4  11  23  38  60  87 114 150 188 228 282 336
#     4  12  22  40  64  84 121 146 180 240 273 336
#     4   9  19  36  58  82 109 141 181 228 277 335
#     4   9  19  37  55  80 113 145 182 228 281 335
#     4  10  21  35  50  75 110 146 193 238 279 330
#     4  10  20  33  48  71 107 148 191 237 284 328
#
# _framework density 18.854102000000001
#
# number of rings (size 3 to 8) (size 9 to 14) (size 15 to 20)
#    0.000    2.080    1.600    2.640    1.120    8.000 
#    0.000    4.800    0.000    0.000    0.000    1.120 
#    0.000    1.280    0.000    0.000    0.000    0.000 
#
# Total GULP energy -278422.408348 kJ/mol
# GULP energy per Si atom -5568.448167 kJ/mol
# Density = 1.881119 g / cm^3
# Si number density = 18.854102 Si / 1000 Ang^3
#
#
#
# Elastic Constant Matrix: (Units=GPa)
#
#
# Indices 1 2 3 4 5 6 
#
# 1 21.4717 34.6229 7.9250 0.0000 0.0000 0.0000
# 2 34.6229 146.2920 18.3668 0.0000 0.0000 0.0000
# 3 7.9250 18.3668 59.4127 0.0000 0.0000 0.0000
# 4 0.0000 0.0000 0.0000 18.4996 0.0000 0.0000
# 5 0.0000 0.0000 0.0000 0.0000 323.1371 0.0000
# 6 0.0000 0.0000 0.0000 0.0000 0.0000 5.8792
#
#
#
# Elastic Compliance Matrix: (Units=1/GPa)
#
#
# Indices 1 2 3 4 5 6 
#
# 1 0.076609 -0.017528 -0.004800 0.000000 0.000000 0.000000
# 2 -0.017528 0.011122 -0.001100 0.000000 0.000000 0.000000
# 3 -0.004800 -0.001100 0.017812 0.000000 0.000000 0.000000
# 4 0.000000 0.000000 0.000000 0.054055 0.000000 0.000000
# 5 0.000000 0.000000 0.000000 0.000000 0.003095 0.000000
# 6 0.000000 0.000000 0.000000 0.000000 0.000000 0.170091
#
#
# Mechanical properties :
#
#
# Convention : Reuss Voigt Hill
#
# Bulk Modulus (GPa) = 17.03998 38.77842 27.90920
# Shear Modulus (GPa) = 12.52496 80.58728 46.55612
#
# Velocity S-wave (km/s) = 2.58022 6.54487 4.97458
# Velocity P-wave (km/s) = 4.23487 8.81624 6.91593
#
# Compressibility (1/GPa) = 0.05868551
#
# Stress axis : x y z
#
# Youngs Moduli (GPa) = 13.05333 89.91027 56.14248
#
# Poissons Ratio (x) = 1.57598 0.26949
# Poissons Ratio (y) = 0.22880 0.06177
# Poissons Ratio (z) = 0.06266 0.09892
#
# Static dielectric constant tensor:
#      x y z
#    x 1.653270 0.000000 0.000000 
#    y 0.000000 1.643610 0.000000 
#    z 0.000000 0.000000 1.703120 
# 
# From -- ./inp_files/18665.got.cif
#   From: 2010.05.17/outbox.cif.g08.bks.cpg/sg65_10_cif.got.tgz:18665.got - 2010.06.03 17:01:31.
