data_PCOD9488374
_publ_section_title
;
Structure prediction by ZEFSAII (Michael W. Deem and Ramdas Pophale) SiO2 
 PCOD9488374
Probable space group: C M M M
;
_chemical_formula_sum "Si O2"
_cell_formula_units_Z 80
_cell_length_a 7.742953
_cell_length_b 20.228632
_cell_length_c 26.973827
_cell_angle_alpha 90.000000
_cell_angle_beta 90.000000
_cell_angle_gamma 90.000000
_cell_volume 4224.892905
_symmetry_space_group_name_H-M "C M M M"
_symmetry_group_IT_number 65
_symmetry_cell_setting 'orthorhombic'
loop_
_space_group_symop_operation_xyz
x,y,z
-x,-y,z
x,-y,-z
-x,y,-z
-x,-y,-z
x,y,-z
-x,y,z
x,-y,z
1/2+x,1/2+y,z
1/2-x,1/2-y,z
1/2+x,1/2-y,-z
1/2-x,1/2+y,-z
1/2-x,1/2-y,-z
1/2+x,1/2+y,-z
1/2-x,1/2+y,z
1/2+x,1/2-y,z
loop_
_atom_site_type_symbol
_atom_site_label
_atom_site_fract_x
_atom_site_fract_y
_atom_site_fract_z
Si Si1 0.712089 0.923410 0.608309
Si Si2 0.707935 0.173974 0.305598
Si Si3 0.706925 0.425202 0.107177
Si Si4 0.294984 0.825630 0.805761
Si Si5 0.199255 0.919460 0.000000
Si Si6 0.700228 0.919638 0.500000
O O1 0.500000 0.922471 0.606941
O O2 0.771075 0.876281 0.652519
O O3 0.773914 0.900789 0.553604
O O4 0.761456 0.000000 0.616082
O O5 0.500000 0.167814 0.304458
O O6 0.750000 0.250000 0.317464
O O7 0.774742 0.160405 0.249780
O O8 0.500000 0.429776 0.101136
O O9 0.770997 0.500000 0.116964
O O10 0.738869 0.376290 0.152219
O O11 0.776665 0.401223 0.053462
O O12 0.500000 0.830107 0.802656
O O13 0.250000 0.750000 0.818326
O O14 0.000000 0.895994 0.000000
O O15 0.196999 0.000000 0.000000
O O16 0.500000 0.898026 0.500000
O O17 0.700195 0.000000 0.500000
#
# Coordination Sequence:
#
# PCOD9488374 Si02
#       6
#    16  16  16  16   8   8
#     4   8  13  23  41  64  87 112 145 183 220 258
#     4   9  18  31  46  63  87 119 149 182 224 268
#     4   9  17  31  52  75  97 121 150 185 225 271
#     4  10  20  33  48  66  91 124 159 193 231 274
#     4   7  12  26  48  71  94 121 149 177 218 271
#     4   7  10  18  35  60  87 111 138 177 220 258
#
# _framework density 18.935390000000002
#
# number of rings (size 3 to 8) (size 9 to 14) (size 15 to 20)
#    0.000    3.400    0.000    3.000    0.000    2.000 
#    0.000    3.500    0.000    2.400    0.000    0.000 
#    0.000    2.400    0.000    0.000    0.000    0.000 
#
# Total GULP energy -222695.664619 kJ/mol
# GULP energy per Si atom -5567.391615 kJ/mol
# Density = 1.889229 g / cm^3
# Si number density = 18.935390 Si / 1000 Ang^3
#
#
#
# Elastic Constant Matrix: (Units=GPa)
#
#
# Indices 1 2 3 4 5 6 
#
# 1 28.7158 2.9141 9.9615 0.0000 0.0000 0.0000
# 2 2.9141 95.7913 125.2748 0.0000 0.0000 0.0000
# 3 9.9615 125.2748 216.0239 0.0000 0.0000 0.0000
# 4 0.0000 0.0000 0.0000 -30.4152 0.0000 0.0000
# 5 0.0000 0.0000 0.0000 0.0000 1.4010 0.0000
# 6 0.0000 0.0000 0.0000 0.0000 0.0000 10.5884
#
#
#
# Elastic Compliance Matrix: (Units=1/GPa)
#
#
# Indices 1 2 3 4 5 6 
#
# 1 0.035839 0.004433 -0.004224 0.000000 0.000000 0.000000
# 2 0.004433 0.043758 -0.025580 0.000000 0.000000 0.000000
# 3 -0.004224 -0.025580 0.019658 0.000000 0.000000 0.000000
# 4 0.000000 0.000000 0.000000 -0.032878 0.000000 0.000000
# 5 0.000000 0.000000 0.000000 0.000000 0.713758 0.000000
# 6 0.000000 0.000000 0.000000 0.000000 0.000000 0.094443
#
#
# Mechanical properties :
#
#
# Convention : Reuss Voigt Hill
#
# Bulk Modulus (GPa) = 20.61244 68.53686 44.57465
# Shear Modulus (GPa) = 5.31072 9.80689 7.55881
#
# Velocity S-wave (km/s) = 1.67653 2.27824 2.00014
# Velocity P-wave (km/s) = 3.82844 6.57223 5.37825
#
# Compressibility (1/GPa) = 0.04851440
#
# Stress axis : x y z
#
# Youngs Moduli (GPa) = 27.90236 22.85291 50.86943
#
# Poissons Ratio (x) = -0.10131 0.21485
# Poissons Ratio (y) = -0.12370 1.30125
# Poissons Ratio (z) = 0.11785 0.58458
#
# Static dielectric constant tensor:
#      x y z
#    x 1.701750 0.000000 0.000000 
#    y 0.000000 1.597820 0.000000 
#    z 0.000000 0.000000 1.719380 
# 
# From -- ./inp_files/72964.got.cif
#   From: 2010.05.17/outbox.cif.g08.bks.cpg/sg65_37_cif.got.tgz:72964.got - 2010.06.03 17:01:31.
