data_PCOD9488348
_publ_section_title
;
Structure prediction by ZEFSAII (Michael W. Deem and Ramdas Pophale) SiO2 
 PCOD9488348
Probable space group: C M M M
;
_chemical_formula_sum "Si O2"
_cell_formula_units_Z 72
_cell_length_a 7.244700
_cell_length_b 24.058038
_cell_length_c 18.840634
_cell_angle_alpha 90.000000
_cell_angle_beta 90.000000
_cell_angle_gamma 90.000000
_cell_volume 3283.795669
_symmetry_space_group_name_H-M "C M M M"
_symmetry_group_IT_number 65
_symmetry_cell_setting 'orthorhombic'
loop_
_space_group_symop_operation_xyz
x,y,z
-x,-y,z
x,-y,-z
-x,y,-z
-x,-y,-z
x,y,-z
-x,y,z
x,-y,z
1/2+x,1/2+y,z
1/2-x,1/2-y,z
1/2+x,1/2-y,-z
1/2-x,1/2+y,-z
1/2-x,1/2-y,-z
1/2+x,1/2+y,-z
1/2-x,1/2+y,z
1/2+x,1/2-y,z
loop_
_atom_site_type_symbol
_atom_site_label
_atom_site_fract_x
_atom_site_fract_y
_atom_site_fract_z
Si Si1 0.219257 0.315435 0.720804
Si Si2 0.275742 0.111039 0.150659
Si Si3 0.775049 0.624400 0.423332
Si Si4 0.275917 0.000000 0.393486
Si Si5 0.276598 0.000000 0.768794
Si Si6 0.725164 0.934049 0.000000
O O1 0.250000 0.250000 0.716152
O O2 0.286740 0.340087 0.796261
O O3 0.288396 0.345742 0.649018
O O4 0.000000 0.326007 0.720917
O O5 0.500000 0.114056 0.147377
O O6 0.220717 0.055078 0.191317
O O7 0.216312 0.099928 0.069986
O O8 0.720003 0.649041 0.500000
O O9 0.718537 0.559623 0.422791
O O10 0.000000 0.625502 0.421463
O O11 0.500000 0.000000 0.398535
O O12 0.219169 0.000000 0.311806
O O13 0.500000 0.000000 0.768571
O O14 0.500000 0.936143 0.000000
O O15 0.780907 0.000000 0.000000
#
# Coordination Sequence:
#
# PCOD9488348 Si02
#       6
#    16  16  16   8   8   8
#     4  10  20  33  47  63  88 122 156 187 217 253
#     4   9  15  24  39  63  92 117 142 178 224 267
#     4   9  16  25  40  64  91 116 143 180 227 273
#     4   9  13  20  36  62  92 115 134 170 231 285
#     4   9  12  18  36  60  87 114 138 171 223 275
#     4   9  14  20  37  66  97 119 135 168 225 282
#
# _framework density 21.925847999999998
#
# number of rings (size 3 to 8) (size 9 to 14) (size 15 to 20)
#    0.000    2.778    3.333    0.333    0.000    1.778 
#    0.000    0.556    0.000    0.000    0.000    3.111 
#    0.000    2.667    0.000    0.000    0.000    0.000 
#
# Total GULP energy -200811.545634 kJ/mol
# GULP energy per Si atom -5578.098490 kJ/mol
# Density = 2.187594 g / cm^3
# Si number density = 21.925848 Si / 1000 Ang^3
#
#
#
# Elastic Constant Matrix: (Units=GPa)
#
#
# Indices 1 2 3 4 5 6 
#
# 1 99.1422 -4.2506 7.7112 0.0000 0.0000 0.0000
# 2 -4.2506 138.0576 101.5524 0.0000 0.0000 0.0000
# 3 7.7112 101.5524 256.7442 0.0000 0.0000 0.0000
# 4 0.0000 0.0000 0.0000 5.9328 0.0000 0.0000
# 5 0.0000 0.0000 0.0000 0.0000 -20.8488 0.0000
# 6 0.0000 0.0000 0.0000 0.0000 0.0000 -1.6091
#
#
#
# Elastic Compliance Matrix: (Units=1/GPa)
#
#
# Indices 1 2 3 4 5 6 
#
# 1 0.010166 0.000758 -0.000605 0.000000 0.000000 0.000000
# 2 0.000758 0.010272 -0.004086 0.000000 0.000000 0.000000
# 3 -0.000605 -0.004086 0.005529 0.000000 0.000000 0.000000
# 4 0.000000 0.000000 0.000000 0.168555 0.000000 0.000000
# 5 0.000000 0.000000 0.000000 0.000000 -0.047964 0.000000
# 6 0.000000 0.000000 0.000000 0.000000 0.000000 -0.621479
#
#
# Mechanical properties :
#
#
# Convention : Reuss Voigt Hill
#
# Bulk Modulus (GPa) = 55.24324 78.21888 66.73106
# Shear Modulus (GPa) = -10.84550 22.62370 5.88910
#
# Velocity S-wave (km/s) = -2.22647 3.21569 1.64065
# Velocity P-wave (km/s) = 4.31748 7.03842 5.83866
#
# Compressibility (1/GPa) = 0.01810176
#
# Stress axis : x y z
#
# Youngs Moduli (GPa) = 98.36607 97.35077 180.85790
#
# Poissons Ratio (x) = -0.07381 0.10946
# Poissons Ratio (y) = -0.07458 0.73895
# Poissons Ratio (z) = 0.05953 0.39776
#
# Static dielectric constant tensor:
#      x y z
#    x 1.888910 0.000000 0.000000 
#    y 0.000000 1.746650 0.000000 
#    z 0.000000 0.000000 1.814430 
# 
# From -- ./inp_files/61335.got.cif
#   From: 2010.05.17/outbox.cif.g08.bks.cpg/sg65_31_cif.got.tgz:61335.got - 2010.06.03 17:01:31.
