data_PCOD9488800
_publ_section_title
;
Structure prediction by ZEFSAII (Michael W. Deem and Ramdas Pophale) SiO2 
 PCOD9488800
Probable space group: C M M M
;
_chemical_formula_sum "Si O2"
_cell_formula_units_Z 116
_cell_length_a 8.467651
_cell_length_b 26.948000
_cell_length_c 26.365675
_cell_angle_alpha 90.000000
_cell_angle_beta 90.000000
_cell_angle_gamma 90.000000
_cell_volume 6016.284748
_symmetry_space_group_name_H-M "C M M M"
_symmetry_group_IT_number 65
_symmetry_cell_setting 'orthorhombic'
loop_
_space_group_symop_operation_xyz
x,y,z
-x,-y,z
x,-y,-z
-x,y,-z
-x,-y,-z
x,y,-z
-x,y,z
x,-y,z
1/2+x,1/2+y,z
1/2-x,1/2-y,z
1/2+x,1/2-y,-z
1/2-x,1/2+y,-z
1/2-x,1/2-y,-z
1/2+x,1/2+y,-z
1/2-x,1/2+y,z
1/2+x,1/2-y,z
loop_
_atom_site_type_symbol
_atom_site_label
_atom_site_fract_x
_atom_site_fract_y
_atom_site_fract_z
Si Si1 0.318924 0.440704 0.813685
Si Si2 0.178908 0.302244 0.939024
Si Si3 0.189718 0.406488 0.294031
Si Si4 0.727606 0.500000 0.000000
Si Si5 0.309911 0.843718 0.444293
Si Si6 0.689248 0.198104 0.660858
Si Si7 0.811075 0.944838 0.399502
Si Si8 0.811825 0.413208 0.920639
O O1 0.500000 0.423892 0.821077
O O2 0.318486 0.500000 0.811595
O O3 0.253117 0.421702 0.760410
O O4 0.216325 0.425074 0.861946
O O5 0.250000 0.250000 0.920352
O O6 0.249876 0.356844 0.928792
O O7 0.000000 0.304598 0.919488
O O8 0.175185 0.298600 0.000000
O O9 0.234128 0.349607 0.306366
O O10 0.260675 0.437509 0.340851
O O11 0.000000 0.411227 0.295693
O O12 0.734631 0.544233 0.044266
O O13 0.249506 0.829780 0.500000
O O14 0.500000 0.839927 0.444757
O O15 0.250433 0.811781 0.396590
O O16 0.266331 0.900431 0.431073
O O17 0.500000 0.199295 0.659018
O O18 0.750000 0.250000 0.680674
O O19 0.000000 0.940463 0.403124
O O20 0.764224 0.000000 0.416393
O O21 0.000000 0.414626 0.933343
#
# Coordination Sequence:
#
# PCOD9488800 Si02
#       8
#    16  16  16   4  16  16  16  16
#     4  11  24  39  55  83 119 149 180 223 278 335
#     4   9  18  33  54  80 107 140 184 229 271 320
#     4  10  21  38  59  81 105 138 182 227 270 327
#     4  12  21  36  63  90 119 156 199 244 281 332
#     4   9  19  35  52  74 108 147 188 231 270 321
#     4   9  19  35  56  82 108 137 179 228 280 334
#     4  10  20  33  51  77 108 141 178 224 277 330
#     4  11  21  36  60  87 115 152 196 235 278 335
#
# _framework density 19.281001
#
# number of rings (size 3 to 8) (size 9 to 14) (size 15 to 20)
#    0.000    2.069    1.379    3.103    0.000    7.724 
#    0.000    2.759    0.000    0.000    0.000    0.000 
#    0.000    0.000    0.000    0.000    0.000    0.000 
#
# Total GULP energy -322999.654995 kJ/mol
# GULP energy per Si atom -5568.959569 kJ/mol
# Density = 1.923712 g / cm^3
# Si number density = 19.281001 Si / 1000 Ang^3
#
#
#
# Elastic Constant Matrix: (Units=GPa)
#
#
# Indices 1 2 3 4 5 6 
#
# 1 9.3466 9.1523 -0.7540 0.0000 0.0000 0.0000
# 2 9.1523 111.1813 -4.7299 0.0000 0.0000 0.0000
# 3 -0.7540 -4.7299 56.3140 0.0000 0.0000 0.0000
# 4 0.0000 0.0000 0.0000 -1.1765 0.0000 0.0000
# 5 0.0000 0.0000 0.0000 0.0000 7.3182 0.0000
# 6 0.0000 0.0000 0.0000 0.0000 0.0000 21.8160
#
#
#
# Elastic Compliance Matrix: (Units=1/GPa)
#
#
# Indices 1 2 3 4 5 6 
#
# 1 0.116404 -0.009550 0.000756 0.000000 0.000000 0.000000
# 2 -0.009550 0.009810 0.000696 0.000000 0.000000 0.000000
# 3 0.000756 0.000696 0.017826 0.000000 0.000000 0.000000
# 4 0.000000 0.000000 0.000000 -0.849959 0.000000 0.000000
# 5 0.000000 0.000000 0.000000 0.000000 0.136647 0.000000
# 6 0.000000 0.000000 0.000000 0.000000 0.000000 0.045838
#
#
# Mechanical properties :
#
#
# Convention : Reuss Voigt Hill
#
# Bulk Modulus (GPa) = 7.82199 20.46430 14.14314
# Shear Modulus (GPa) = -10.76137 17.13642 3.18753
#
# Velocity S-wave (km/s) = -2.36505 2.98446 1.28716
# Velocity P-wave (km/s) = 1.84182 4.74476 3.09196
#
# Compressibility (1/GPa) = 0.12784477
#
# Stress axis : x y z
#
# Youngs Moduli (GPa) = 8.59079 101.93594 56.09728
#
# Poissons Ratio (x) = 0.97349 -0.04243
# Poissons Ratio (y) = 0.08204 -0.03905
# Poissons Ratio (z) = -0.00650 -0.07096
#
# Static dielectric constant tensor:
#      x y z
#    x 1.699310 0.000000 0.000000 
#    y 0.000000 1.681010 0.000000 
#    z 0.000000 0.000000 1.649960 
# 
# From -- ./inp_files/68362.got.cif
#   From: 2010.05.17/outbox.cif.g08.bks.cpg/sg65_35_cif.got.tgz:68362.got - 2010.06.03 17:01:31.
