data_PCOD9488363
_publ_section_title
;
Structure prediction by ZEFSAII (Michael W. Deem and Ramdas Pophale) SiO2 
 PCOD9488363
Probable space group: C M M M
;
_chemical_formula_sum "Si O2"
_cell_formula_units_Z 80
_cell_length_a 19.454631
_cell_length_b 15.204267
_cell_length_c 13.095441
_cell_angle_alpha 90.000000
_cell_angle_beta 90.000000
_cell_angle_gamma 90.000000
_cell_volume 3873.545072
_symmetry_space_group_name_H-M "C M M M"
_symmetry_group_IT_number 65
_symmetry_cell_setting 'orthorhombic'
loop_
_space_group_symop_operation_xyz
x,y,z
-x,-y,z
x,-y,-z
-x,y,-z
-x,-y,-z
x,y,-z
-x,y,z
x,-y,z
1/2+x,1/2+y,z
1/2-x,1/2-y,z
1/2+x,1/2-y,-z
1/2-x,1/2+y,-z
1/2-x,1/2-y,-z
1/2+x,1/2+y,-z
1/2-x,1/2+y,z
1/2+x,1/2-y,z
loop_
_atom_site_type_symbol
_atom_site_label
_atom_site_fract_x
_atom_site_fract_y
_atom_site_fract_z
Si Si1 0.420993 0.629058 0.109394
Si Si2 0.579386 0.734023 0.615882
Si Si3 0.220656 0.396709 0.886085
Si Si4 0.678300 0.401642 0.713107
Si Si5 0.076938 0.669545 0.175959
O O1 0.500000 0.603535 0.112124
O O2 0.380812 0.590155 0.202213
O O3 0.418787 0.734550 0.122827
O O4 0.391355 0.604552 0.000000
O O5 0.583425 0.766736 0.500000
O O6 0.500000 0.697903 0.629755
O O7 0.640682 0.663659 0.634223
O O8 0.585835 0.807316 0.703881
O O9 0.238004 0.500000 0.888084
O O10 0.260893 0.362169 0.785295
O O11 0.139875 0.385655 0.865711
O O12 0.236042 0.359811 0.000000
O O13 0.695925 0.500000 0.673926
O O14 0.000000 0.634267 0.158980
#
# Coordination Sequence:
#
# PCOD9488363 Si02
#       5
#    16  16  16  16  16
#     4   9  17  28  44  68  96 128 165 202 245 298
#     4   9  19  36  57  79 101 130 170 213 258 304
#     4  10  21  35  51  74 105 140 173 205 249 304
#     4  10  20  33  47  69 104 137 167 206 248 294
#     4   9  18  34  54  75 100 128 166 218 263 302
#
# _framework density 20.652916000000001
#
# number of rings (size 3 to 8) (size 9 to 14) (size 15 to 20)
#    0.000    2.600    0.000    3.000    0.000    8.000 
#    0.000   10.000    0.000    1.800    0.000    2.800 
#    0.000    0.000    0.000    0.000    0.000    0.000 
#
# Total GULP energy -222848.894426 kJ/mol
# GULP energy per Si atom -5571.222361 kJ/mol
# Density = 2.060591 g / cm^3
# Si number density = 20.652916 Si / 1000 Ang^3
#
#
#
# Elastic Constant Matrix: (Units=GPa)
#
#
# Indices 1 2 3 4 5 6 
#
# 1 108.0176 5.7165 12.4392 0.0000 0.0000 0.0000
# 2 5.7165 21.6969 -0.4291 0.0000 0.0000 0.0000
# 3 12.4392 -0.4291 86.9895 0.0000 0.0000 0.0000
# 4 0.0000 0.0000 0.0000 -7.1960 0.0000 0.0000
# 5 0.0000 0.0000 0.0000 0.0000 48.7883 0.0000
# 6 0.0000 0.0000 0.0000 0.0000 0.0000 25.1134
#
#
#
# Elastic Compliance Matrix: (Units=1/GPa)
#
#
# Indices 1 2 3 4 5 6 
#
# 1 0.009551 -0.002544 -0.001378 0.000000 0.000000 0.000000
# 2 -0.002544 0.046772 0.000594 0.000000 0.000000 0.000000
# 3 -0.001378 0.000594 0.011696 0.000000 0.000000 0.000000
# 4 0.000000 0.000000 0.000000 -0.138966 0.000000 0.000000
# 5 0.000000 0.000000 0.000000 0.000000 0.020497 0.000000
# 6 0.000000 0.000000 0.000000 0.000000 0.000000 0.039819
#
#
# Mechanical properties :
#
#
# Convention : Reuss Voigt Hill
#
# Bulk Modulus (GPa) = 16.29642 28.01747 22.15695
# Shear Modulus (GPa) = 303.44188 26.60631 165.02410
#
# Velocity S-wave (km/s) = 12.13439 3.59313 8.94858
# Velocity P-wave (km/s) = 14.29099 5.55062 10.84070
#
# Compressibility (1/GPa) = 0.06136316
#
# Stress axis : x y z
#
# Youngs Moduli (GPa) = 104.70006 21.38051 85.50179
#
# Poissons Ratio (x) = 0.05439 0.11785
# Poissons Ratio (y) = 0.26633 -0.05083
# Poissons Ratio (z) = 0.14431 -0.01271
#
# Static dielectric constant tensor:
#      x y z
#    x 1.782730 0.000000 0.000000 
#    y 0.000000 1.769780 0.000000 
#    z 0.000000 0.000000 1.742170 
# 
# From -- ./inp_files/42334.got.cif
#   From: 2010.05.17/outbox.cif.g08.bks.cpg/sg65_22_cif.got.tgz:42334.got - 2010.06.03 17:01:31.
