data_PCOD9488134
_publ_section_title
;
Structure prediction by ZEFSAII (Michael W. Deem and Ramdas Pophale) SiO2 
 PCOD9488134
Probable space group: C M M M
;
_chemical_formula_sum "Si O2"
_cell_formula_units_Z 88
_cell_length_a 22.408706
_cell_length_b 8.072471
_cell_length_c 24.031413
_cell_angle_alpha 90.000000
_cell_angle_beta 90.000000
_cell_angle_gamma 90.000000
_cell_volume 4347.129516
_symmetry_space_group_name_H-M "C M M M"
_symmetry_group_IT_number 65
_symmetry_cell_setting 'orthorhombic'
loop_
_space_group_symop_operation_xyz
x,y,z
-x,-y,z
x,-y,-z
-x,y,-z
-x,-y,-z
x,y,-z
-x,y,z
x,-y,z
1/2+x,1/2+y,z
1/2-x,1/2-y,z
1/2+x,1/2-y,-z
1/2-x,1/2+y,-z
1/2-x,1/2-y,-z
1/2+x,1/2+y,-z
1/2-x,1/2+y,z
1/2+x,1/2-y,z
loop_
_atom_site_type_symbol
_atom_site_label
_atom_site_fract_x
_atom_site_fract_y
_atom_site_fract_z
Si Si1 0.433135 0.299994 0.435110
Si Si2 0.182304 0.303209 0.939587
Si Si3 0.815612 0.695786 0.632602
Si Si4 0.898962 0.186670 0.851508
Si Si5 0.316597 0.695850 0.239889
Si Si6 0.000000 0.795703 0.064884
O O1 0.428220 0.250754 0.500000
O O2 0.500000 0.245824 0.415410
O O3 0.433104 0.500000 0.432911
O O4 0.374361 0.241988 0.402505
O O5 0.177036 0.500000 0.927832
O O6 0.250000 0.250000 0.944974
O O7 0.158187 0.190182 0.890847
O O8 0.152680 0.271057 0.000000
O O9 0.813062 0.500000 0.637983
O O10 0.750000 0.750000 0.610116
O O11 0.821752 0.768513 0.694708
O O12 0.872668 0.266973 0.795317
O O13 0.945571 0.261533 0.895544
O O14 0.920487 0.000000 0.838889
O O15 0.319262 0.500000 0.231185
O O16 0.250000 0.750000 0.222170
O O17 0.000000 0.000000 0.062523
O O18 0.000000 0.741287 0.000000
#
# Coordination Sequence:
#
# PCOD9488134 Si02
#       6
#    16  16  16  16  16   8
#     4   9  19  38  63  90 122 161 203 247 298 352
#     4  10  20  32  48  72 100 128 161 205 260 320
#     4  11  22  37  59  86 120 159 202 249 299 353
#     4  10  20  34  54  77 101 134 177 221 268 324
#     4  10  20  35  55  80 109 142 183 230 285 343
#     4   9  18  34  55  77 103 137 178 223 270 327
#
# _framework density 20.243245000000002
#
# number of rings (size 3 to 8) (size 9 to 14) (size 15 to 20)
#    0.000    2.091    0.000    5.455    0.000    5.818 
#    1.636    1.364    0.000    1.636    0.000    0.000 
#    0.000    0.000    0.000    0.000    0.000    0.000 
#
# Total GULP energy -244952.516421 kJ/mol
# GULP energy per Si atom -5567.102646 kJ/mol
# Density = 2.019717 g / cm^3
# Si number density = 20.243245 Si / 1000 Ang^3
#
#
#
# Elastic Constant Matrix: (Units=GPa)
#
#
# Indices 1 2 3 4 5 6 
#
# 1 139.6351 0.2928 70.6717 0.0000 0.0000 0.0000
# 2 0.2928 44.7542 6.6855 0.0000 0.0000 0.0000
# 3 70.6717 6.6855 78.8374 0.0000 0.0000 0.0000
# 4 0.0000 0.0000 0.0000 23.9483 0.0000 0.0000
# 5 0.0000 0.0000 0.0000 0.0000 36.2984 0.0000
# 6 0.0000 0.0000 0.0000 0.0000 0.0000 21.8011
#
#
#
# Elastic Compliance Matrix: (Units=1/GPa)
#
#
# Indices 1 2 3 4 5 6 
#
# 1 0.013237 0.001708 -0.012010 0.000000 0.000000 0.000000
# 2 0.001708 0.022851 -0.003468 0.000000 0.000000 0.000000
# 3 -0.012010 -0.003468 0.023745 0.000000 0.000000 0.000000
# 4 0.000000 0.000000 0.000000 0.041757 0.000000 0.000000
# 5 0.000000 0.000000 0.000000 0.000000 0.027549 0.000000
# 6 0.000000 0.000000 0.000000 0.000000 0.000000 0.045869
#
#
# Mechanical properties :
#
#
# Convention : Reuss Voigt Hill
#
# Bulk Modulus (GPa) = 30.96933 46.50297 38.73615
# Shear Modulus (GPa) = 23.43962 28.78133 26.11048
#
# Velocity S-wave (km/s) = 3.40648 3.77473 3.59533
# Velocity P-wave (km/s) = 5.55013 6.48229 6.03424
#
# Compressibility (1/GPa) = 0.03229001
#
# Stress axis : x y z
#
# Youngs Moduli (GPa) = 75.54807 43.76131 42.11436
#
# Poissons Ratio (x) = -0.07472 0.50581
# Poissons Ratio (y) = -0.12900 0.14607
# Poissons Ratio (z) = 0.90736 0.15179
#
# Static dielectric constant tensor:
#      x y z
#    x 1.848160 0.000000 0.000000 
#    y 0.000000 1.770690 0.000000 
#    z 0.000000 0.000000 1.742880 
# 
# From -- ./inp_files/71033.got.cif
#   From: 2010.05.17/outbox.cif.g08.bks.cpg/sg65_36_cif.got.tgz:71033.got - 2010.06.03 17:01:31.
