data_PCOD9488372
_publ_section_title
;
Structure prediction by ZEFSAII (Michael W. Deem and Ramdas Pophale) SiO2 
 PCOD9488372
Probable space group: C M M M
;
_chemical_formula_sum "Si O2"
_cell_formula_units_Z 88
_cell_length_a 18.873495
_cell_length_b 29.486258
_cell_length_c 8.941137
_cell_angle_alpha 90.000000
_cell_angle_beta 90.000000
_cell_angle_gamma 90.000000
_cell_volume 4975.820912
_symmetry_space_group_name_H-M "C M M M"
_symmetry_group_IT_number 65
_symmetry_cell_setting 'orthorhombic'
loop_
_space_group_symop_operation_xyz
x,y,z
-x,-y,z
x,-y,-z
-x,y,-z
-x,-y,-z
x,y,-z
-x,y,z
x,-y,z
1/2+x,1/2+y,z
1/2-x,1/2-y,z
1/2+x,1/2-y,-z
1/2-x,1/2+y,-z
1/2-x,1/2-y,-z
1/2+x,1/2+y,-z
1/2-x,1/2+y,z
1/2+x,1/2-y,z
loop_
_atom_site_type_symbol
_atom_site_label
_atom_site_fract_x
_atom_site_fract_y
_atom_site_fract_z
Si Si1 0.354027 0.263590 0.174161
Si Si2 0.500000 0.847457 0.328599
Si Si3 0.707563 0.654633 0.322722
Si Si4 0.417104 0.404186 0.179613
Si Si5 0.000000 0.237192 0.327386
Si Si6 0.352690 0.845823 0.174780
Si Si7 0.414762 0.500000 0.670429
O O1 0.300800 0.293013 0.272153
O O2 0.431146 0.276837 0.236140
O O3 0.350698 0.209300 0.186043
O O4 0.344306 0.275542 0.000000
O O5 0.500000 0.862956 0.500000
O O6 0.500000 0.792221 0.331363
O O7 0.427321 0.860772 0.246145
O O8 0.705608 0.650735 0.500000
O O9 0.640639 0.629168 0.250219
O O10 0.782523 0.637390 0.258743
O O11 0.500000 0.394752 0.221516
O O12 0.397635 0.454224 0.240685
O O13 0.413212 0.402724 0.000000
O O14 0.000000 0.221336 0.500000
O O15 0.350087 0.857351 0.000000
O O16 0.500000 0.500000 0.660054
O O17 0.386638 0.500000 0.500000
#
# Coordination Sequence:
#
# PCOD9488372 Si02
#       7
#    16   8  16  16   8  16   8
#     4  10  20  33  48  65  91 129 169 210 256 308
#     4   9  17  31  51  71  91 118 159 206 251 297
#     4  12  24  34  48  71 101 131 166 214 261 303
#     4  10  21  37  56  77 103 137 174 210 252 305
#     4   9  17  29  45  65  87 116 159 206 247 293
#     4  10  20  35  52  70  94 129 171 212 258 309
#     4   9  17  33  57  81 105 132 165 204 249 303
#
# _framework density 17.685524000000001
#
# number of rings (size 3 to 8) (size 9 to 14) (size 15 to 20)
#    0.000    1.909    0.000    4.636    1.273    8.727 
#    0.000    0.000    0.000    0.000    0.000    0.000 
#    0.000    0.727    0.000    7.273    0.000    4.364 
#
# Total GULP energy -245594.349264 kJ/mol
# GULP energy per Si atom -5581.689756 kJ/mol
# Density = 1.764527 g / cm^3
# Si number density = 17.685524 Si / 1000 Ang^3
#
#
#
# Elastic Constant Matrix: (Units=GPa)
#
#
# Indices 1 2 3 4 5 6 
#
# 1 133.0230 19.1550 72.0267 0.0000 0.0000 0.0000
# 2 19.1550 40.9888 26.6433 0.0000 0.0000 0.0000
# 3 72.0267 26.6433 143.6579 0.0000 0.0000 0.0000
# 4 0.0000 0.0000 0.0000 15.9704 0.0000 0.0000
# 5 0.0000 0.0000 0.0000 0.0000 28.1869 0.0000
# 6 0.0000 0.0000 0.0000 0.0000 0.0000 -3.6253
#
#
#
# Elastic Compliance Matrix: (Units=1/GPa)
#
#
# Indices 1 2 3 4 5 6 
#
# 1 0.010419 -0.001675 -0.004913 0.000000 0.000000 0.000000
# 2 -0.001675 0.028011 -0.004355 0.000000 0.000000 0.000000
# 3 -0.004913 -0.004355 0.010232 0.000000 0.000000 0.000000
# 4 0.000000 0.000000 0.000000 0.062616 0.000000 0.000000
# 5 0.000000 0.000000 0.000000 0.000000 0.035477 0.000000
# 6 0.000000 0.000000 0.000000 0.000000 0.000000 -0.275841
#
#
# Mechanical properties :
#
#
# Convention : Reuss Voigt Hill
#
# Bulk Modulus (GPa) = 37.34875 61.47997 49.41436
# Shear Modulus (GPa) = -50.87810 21.42940 -14.72435
#
# Velocity S-wave (km/s) = -5.36942 3.48471 -2.88855
# Velocity P-wave (km/s) = 4.15654 7.14348 4.10807
#
# Compressibility (1/GPa) = 0.02677466
#
# Stress axis : x y z
#
# Youngs Moduli (GPa) = 95.97841 35.70075 97.73286
#
# Poissons Ratio (x) = 0.05981 0.48017
# Poissons Ratio (y) = 0.16081 0.42562
# Poissons Ratio (z) = 0.47155 0.15547
#
# Static dielectric constant tensor:
#      x y z
#    x 0.686670 0.000000 0.000000 
#    y 0.000000 1.605640 0.000000 
#    z 0.000000 0.000000 1.592090 
# 
# From -- ./inp_files/10204.got.cif
#   From: 2010.05.17/outbox.cif.g08.bks.cpg/sg65_6_cif.got.tgz:10204.got - 2010.06.03 17:01:31.
