data_PCOD9488172
_publ_section_title
;
Structure prediction by ZEFSAII (Michael W. Deem and Ramdas Pophale) SiO2 
 PCOD9488172
Probable space group: C M M M
;
_chemical_formula_sum "Si O2"
_cell_formula_units_Z 104
_cell_length_a 30.331551
_cell_length_b 8.545209
_cell_length_c 20.504766
_cell_angle_alpha 90.000000
_cell_angle_beta 90.000000
_cell_angle_gamma 90.000000
_cell_volume 5314.618870
_symmetry_space_group_name_H-M "C M M M"
_symmetry_group_IT_number 65
_symmetry_cell_setting 'orthorhombic'
loop_
_space_group_symop_operation_xyz
x,y,z
-x,-y,z
x,-y,-z
-x,y,-z
-x,-y,-z
x,y,-z
-x,y,z
x,-y,z
1/2+x,1/2+y,z
1/2-x,1/2-y,z
1/2+x,1/2-y,-z
1/2-x,1/2+y,-z
1/2-x,1/2-y,-z
1/2+x,1/2+y,-z
1/2-x,1/2+y,z
1/2+x,1/2-y,z
loop_
_atom_site_type_symbol
_atom_site_label
_atom_site_fract_x
_atom_site_fract_y
_atom_site_fract_z
Si Si1 0.357968 0.810704 0.429101
Si Si2 0.201683 0.189029 0.836745
Si Si3 0.949396 0.313407 0.000000
Si Si4 0.548234 0.190000 0.615048
Si Si5 0.550537 0.812461 0.768111
Si Si6 0.608307 0.685742 0.118371
Si Si7 0.201747 0.187146 0.686349
O O1 0.339985 0.761930 0.500000
O O2 0.408778 0.758242 0.423089
O O3 0.332146 0.749154 0.366767
O O4 0.357101 0.000000 0.426724
O O5 0.250000 0.250000 0.856242
O O6 0.159247 0.240713 0.878400
O O7 0.193408 0.238405 0.761253
O O8 0.202978 0.000000 0.837945
O O9 0.921890 0.260454 0.937095
O O10 0.951848 0.500000 0.000000
O O11 0.000000 0.252647 0.000000
O O12 0.500000 0.247009 0.593726
O O13 0.554238 0.227223 0.691712
O O14 0.547099 0.000000 0.610854
O O15 0.500000 0.777409 0.788516
O O16 0.585269 0.725206 0.812919
O O17 0.556670 0.000000 0.774514
O O18 0.608769 0.500000 0.108385
O O19 0.250000 0.250000 0.668831
O O20 0.201568 0.000000 0.685652
#
# Coordination Sequence:
#
# PCOD9488172 Si02
#       7
#    16  16   8  16  16  16  16
#     4  10  20  32  48  73 103 136 177 221 265 317
#     4   9  20  37  58  85 111 136 172 218 265 316
#     4  11  25  43  60  81 112 151 192 221 246 295
#     4   8  15  29  49  73 101 134 174 220 266 312
#     4   9  17  30  50  76 104 136 176 218 262 317
#     4  11  22  36  56  83 113 142 175 217 265 311
#     4  10  20  36  57  79 105 136 171 215 267 319
#
# _framework density 19.568664999999999
#
# number of rings (size 3 to 8) (size 9 to 14) (size 15 to 20)
#    0.000    2.385    0.000    3.462    0.000    5.538 
#    0.000    1.923    0.000    1.385    0.000    1.077 
#    0.000    0.000    0.000    0.000    0.000    0.000 
#
# Total GULP energy -290182.258369 kJ/mol
# GULP energy per Si atom -5580.428046 kJ/mol
# Density = 1.952413 g / cm^3
# Si number density = 19.568665 Si / 1000 Ang^3
#
#
#
# Elastic Constant Matrix: (Units=GPa)
#
#
# Indices 1 2 3 4 5 6 
#
# 1 151.2618 27.5829 61.6039 0.0000 0.0000 0.0000
# 2 27.5829 21.9997 16.4465 0.0000 0.0000 0.0000
# 3 61.6039 16.4465 46.8029 0.0000 0.0000 0.0000
# 4 0.0000 0.0000 0.0000 -9.2998 0.0000 0.0000
# 5 0.0000 0.0000 0.0000 0.0000 12.2735 0.0000
# 6 0.0000 0.0000 0.0000 0.0000 0.0000 19.5640
#
#
#
# Elastic Compliance Matrix: (Units=1/GPa)
#
#
# Indices 1 2 3 4 5 6 
#
# 1 0.014705 -0.005381 -0.017464 0.000000 0.000000 0.000000
# 2 -0.005381 0.063620 -0.015274 0.000000 0.000000 0.000000
# 3 -0.017464 -0.015274 0.049721 0.000000 0.000000 0.000000
# 4 0.000000 0.000000 0.000000 -0.107529 0.000000 0.000000
# 5 0.000000 0.000000 0.000000 0.000000 0.081476 0.000000
# 6 0.000000 0.000000 0.000000 0.000000 0.000000 0.051114
#
#
# Mechanical properties :
#
#
# Convention : Reuss Voigt Hill
#
# Bulk Modulus (GPa) = 19.30211 47.92567 33.61389
# Shear Modulus (GPa) = 20.27465 12.13629 16.20547
#
# Velocity S-wave (km/s) = 3.22231 2.49306 2.88085
# Velocity P-wave (km/s) = 4.87130 5.72986 5.31794
#
# Compressibility (1/GPa) = 0.05180780
#
# Stress axis : x y z
#
# Youngs Moduli (GPa) = 68.00446 15.71840 20.11232
#
# Poissons Ratio (x) = 0.08458 0.35125
# Poissons Ratio (y) = 0.36591 0.30719
# Poissons Ratio (z) = 1.18766 0.24008
#
# Static dielectric constant tensor:
#      x y z
#    x 1.698220 0.000000 0.000000 
#    y 0.000000 1.667820 0.000000 
#    z 0.000000 0.000000 1.686280 
# 
# From -- ./inp_files/66343.got.cif
#   From: 2010.05.17/outbox.cif.g08.bks.cpg/sg65_34_cif.got.tgz:66343.got - 2010.06.03 17:01:31.
