data_PCOD9488899
_publ_section_title
;
Structure prediction by ZEFSAII (Michael W. Deem and Ramdas Pophale) SiO2 
 PCOD9488899
Probable space group: C M M M
;
_chemical_formula_sum "Si O2"
_cell_formula_units_Z 56
_cell_length_a 29.644560
_cell_length_b 8.418366
_cell_length_c 12.653240
_cell_angle_alpha 90.000000
_cell_angle_beta 90.000000
_cell_angle_gamma 90.000000
_cell_volume 3157.726834
_symmetry_space_group_name_H-M "C M M M"
_symmetry_group_IT_number 65
_symmetry_cell_setting 'orthorhombic'
loop_
_space_group_symop_operation_xyz
x,y,z
-x,-y,z
x,-y,-z
-x,y,-z
-x,-y,-z
x,y,-z
-x,y,z
x,-y,z
1/2+x,1/2+y,z
1/2-x,1/2-y,z
1/2+x,1/2-y,-z
1/2-x,1/2+y,-z
1/2-x,1/2-y,-z
1/2+x,1/2+y,-z
1/2-x,1/2+y,z
1/2+x,1/2-y,z
loop_
_atom_site_type_symbol
_atom_site_label
_atom_site_fract_x
_atom_site_fract_y
_atom_site_fract_z
Si Si1 0.128024 0.810059 0.334122
Si Si2 0.500000 0.820519 0.872329
Si Si3 0.402002 0.807576 0.120364
Si Si4 0.552270 0.693542 0.500000
Si Si5 0.300859 0.188862 0.500000
O O1 0.129121 0.747057 0.215102
O O2 0.082732 0.757187 0.398675
O O3 0.170728 0.751005 0.400073
O O4 0.127603 0.000000 0.333939
O O5 0.547906 0.743841 0.848734
O O6 0.500000 0.000000 0.827770
O O7 0.500000 0.834753 0.000000
O O8 0.404597 0.000000 0.118784
O O9 0.391203 0.757653 0.000000
O O10 0.551010 0.500000 0.500000
O O11 0.500000 0.748252 0.500000
O O12 0.250000 0.250000 0.500000
O O13 0.301059 0.000000 0.500000
#
# Coordination Sequence:
#
# PCOD9488899 Si02
#       5
#    16   8  16   8   8
#     4  10  20  33  52  79 109 139 177 219 266 318
#     4   7  12  24  41  62  93 138 187 225 255 293
#     4   9  17  30  48  71 104 146 187 225 264 308
#     4   8  16  30  45  65 100 142 176 214 262 307
#     4  11  22  40  64  84 105 130 167 215 268 325
#
# _framework density 17.734276000000001
#
# number of rings (size 3 to 8) (size 9 to 14) (size 15 to 20)
#    0.000    2.857    0.000    4.714    2.000    0.571 
#    0.000    0.000    0.000    6.000    0.000    0.000 
#    0.000    0.000    0.000    0.000    0.000    0.000 
#
# Total GULP energy -155947.210816 kJ/mol
# GULP energy per Si atom -5569.543243 kJ/mol
# Density = 1.769391 g / cm^3
# Si number density = 17.734276 Si / 1000 Ang^3
#
#
#
# Elastic Constant Matrix: (Units=GPa)
#
#
# Indices 1 2 3 4 5 6 
#
# 1 120.2910 20.3291 70.2537 0.0000 0.0000 0.0000
# 2 20.3291 35.3825 32.7652 0.0000 0.0000 0.0000
# 3 70.2537 32.7652 153.9147 0.0000 0.0000 0.0000
# 4 0.0000 0.0000 0.0000 20.7943 0.0000 0.0000
# 5 0.0000 0.0000 0.0000 0.0000 14.2026 0.0000
# 6 0.0000 0.0000 0.0000 0.0000 0.0000 16.2606
#
#
#
# Elastic Compliance Matrix: (Units=1/GPa)
#
#
# Indices 1 2 3 4 5 6 
#
# 1 0.011467 -0.002169 -0.004772 0.000000 0.000000 0.000000
# 2 -0.002169 0.035612 -0.006591 0.000000 0.000000 0.000000
# 3 -0.004772 -0.006591 0.010078 0.000000 0.000000 0.000000
# 4 0.000000 0.000000 0.000000 0.048090 0.000000 0.000000
# 5 0.000000 0.000000 0.000000 0.000000 0.070410 0.000000
# 6 0.000000 0.000000 0.000000 0.000000 0.000000 0.061498
#
#
# Mechanical properties :
#
#
# Convention : Reuss Voigt Hill
#
# Bulk Modulus (GPa) = 33.23041 61.80937 47.51989
# Shear Modulus (GPa) = 18.23142 22.66749 20.44945
#
# Velocity S-wave (km/s) = 3.20977 3.57903 3.39942
# Velocity P-wave (km/s) = 5.70224 7.21166 6.50090
#
# Compressibility (1/GPa) = 0.03009292
#
# Stress axis : x y z
#
# Youngs Moduli (GPa) = 87.20752 28.08013 99.22132
#
# Poissons Ratio (x) = 0.06091 0.47351
# Poissons Ratio (y) = 0.18916 0.65397
# Poissons Ratio (z) = 0.41618 0.18508
#
# Static dielectric constant tensor:
#      x y z
#    x 1.616480 0.000000 0.000000 
#    y 0.000000 1.607480 0.000000 
#    z 0.000000 0.000000 1.615190 
# 
# From -- ./inp_files/20486.got.cif
#   From: 2010.05.17/outbox.cif.g08.bks.cpg/sg65_11_cif.got.tgz:20486.got - 2010.06.03 17:01:31.
