data_PCOD9488356
_publ_section_title
;
Structure prediction by ZEFSAII (Michael W. Deem and Ramdas Pophale) SiO2 
 PCOD9488356
Probable space group: C M M M
;
_chemical_formula_sum "Si O2"
_cell_formula_units_Z 128
_cell_length_a 20.179835
_cell_length_b 17.051454
_cell_length_c 21.166314
_cell_angle_alpha 90.000000
_cell_angle_beta 90.000000
_cell_angle_gamma 90.000000
_cell_volume 7283.233997
_symmetry_space_group_name_H-M "C M M M"
_symmetry_group_IT_number 65
_symmetry_cell_setting 'orthorhombic'
loop_
_space_group_symop_operation_xyz
x,y,z
-x,-y,z
x,-y,-z
-x,y,-z
-x,-y,-z
x,y,-z
-x,y,z
x,-y,z
1/2+x,1/2+y,z
1/2-x,1/2-y,z
1/2+x,1/2-y,-z
1/2-x,1/2+y,-z
1/2-x,1/2-y,-z
1/2+x,1/2+y,-z
1/2-x,1/2+y,z
1/2+x,1/2-y,z
loop_
_atom_site_type_symbol
_atom_site_label
_atom_site_fract_x
_atom_site_fract_y
_atom_site_fract_z
Si Si1 0.641127 0.594144 0.570051
Si Si2 0.213618 0.594950 0.385737
Si Si3 0.927588 0.342183 0.265790
Si Si4 0.924787 0.164117 0.307348
Si Si5 0.923598 0.095374 0.928644
Si Si6 0.781851 0.663197 0.756086
Si Si7 0.428272 0.090735 0.400234
Si Si8 0.657395 0.592692 0.808125
O O1 0.617726 0.614841 0.500000
O O2 0.633602 0.500000 0.578477
O O3 0.719419 0.611538 0.576694
O O4 0.603357 0.637379 0.625836
O O5 0.209177 0.500000 0.378709
O O6 0.221430 0.632774 0.316373
O O7 0.144488 0.622681 0.417375
O O8 0.924913 0.257739 0.300422
O O9 0.859581 0.343749 0.226822
O O10 0.926210 0.403729 0.323527
O O11 0.000000 0.348224 0.233905
O O12 0.879629 0.130725 0.251458
O O13 0.000000 0.135683 0.299295
O O14 0.875194 0.122301 0.873146
O O15 0.000000 0.117588 0.915071
O O16 0.921917 0.000000 0.929135
O O17 0.906836 0.121069 0.000000
O O18 0.750000 0.750000 0.758081
O O19 0.734404 0.611799 0.799881
O O20 0.500000 0.125944 0.419309
O O21 0.429658 0.000000 0.420026
O O22 0.647004 0.500000 0.804617
#
# Coordination Sequence:
#
# PCOD9488356 Si02
#       8
#    16  16  16  16  16  16  16  16
#     4  10  20  33  47  65  93 129 165 199 239 292
#     4   9  16  28  46  65  88 118 157 200 242 290
#     4   9  18  31  47  69  98 131 163 201 247 296
#     4  11  21  33  49  71  99 131 163 200 245 295
#     4   8  15  29  48  72 106 143 172 201 241 290
#     4  11  18  29  47  69  97 131 161 199 248 294
#     4   8  14  25  45  70  90 112 149 199 253 299
#     4  11  20  30  49  78 104 129 164 206 248 292
#
# _framework density 17.57461
#
# number of rings (size 3 to 8) (size 9 to 14) (size 15 to 20)
#    0.000    2.375    2.500    1.500    0.000    2.250 
#    0.000    0.625    0.000   10.125    0.000    6.125 
#    0.000    0.500    0.000    3.125    0.000    0.125 
#
# Total GULP energy -356538.392962 kJ/mol
# GULP energy per Si atom -5570.912390 kJ/mol
# Density = 1.753461 g / cm^3
# Si number density = 17.574610 Si / 1000 Ang^3
#
#
#
# Elastic Constant Matrix: (Units=GPa)
#
#
# Indices 1 2 3 4 5 6 
#
# 1 128.1522 5.3587 41.4664 0.0000 0.0000 0.0000
# 2 5.3587 23.4072 11.6592 0.0000 0.0000 0.0000
# 3 41.4664 11.6592 78.9220 0.0000 0.0000 0.0000
# 4 0.0000 0.0000 0.0000 13.1850 0.0000 0.0000
# 5 0.0000 0.0000 0.0000 0.0000 181.7781 0.0000
# 6 0.0000 0.0000 0.0000 0.0000 0.0000 20.6353
#
#
#
# Elastic Compliance Matrix: (Units=1/GPa)
#
#
# Indices 1 2 3 4 5 6 
#
# 1 0.009404 0.000333 -0.004990 0.000000 0.000000 0.000000
# 2 0.000333 0.046127 -0.006989 0.000000 0.000000 0.000000
# 3 -0.004990 -0.006989 0.016325 0.000000 0.000000 0.000000
# 4 0.000000 0.000000 0.000000 0.075844 0.000000 0.000000
# 5 0.000000 0.000000 0.000000 0.000000 0.005501 0.000000
# 6 0.000000 0.000000 0.000000 0.000000 0.000000 0.048461
#
#
# Mechanical properties :
#
#
# Convention : Reuss Voigt Hill
#
# Bulk Modulus (GPa) = 20.59184 38.60556 29.59870
# Shear Modulus (GPa) = 20.73461 54.58615 37.66038
#
# Velocity S-wave (km/s) = 3.43855 5.57917 4.63415
# Velocity P-wave (km/s) = 5.24472 7.96976 6.74627
#
# Compressibility (1/GPa) = 0.04856293
#
# Stress axis : x y z
#
# Youngs Moduli (GPa) = 106.33814 21.67925 61.25536
#
# Poissons Ratio (x) = -0.00721 0.30567
# Poissons Ratio (y) = -0.03538 0.42813
# Poissons Ratio (z) = 0.53064 0.15152
#
# Static dielectric constant tensor:
#      x y z
#    x 1.671240 0.000000 0.000000 
#    y 0.000000 1.612010 0.000000 
#    z 0.000000 0.000000 1.581850 
# 
# From -- ./inp_files/64845.got.cif
#   From: 2010.05.17/outbox.cif.g08.bks.cpg/sg65_33_cif.got.tgz:64845.got - 2010.06.03 17:01:31.
