data_PCOD9488858
_publ_section_title
;
Structure prediction by ZEFSAII (Michael W. Deem and Ramdas Pophale) SiO2 
 PCOD9488858
Probable space group: C M M M
;
_chemical_formula_sum "Si O2"
_cell_formula_units_Z 72
_cell_length_a 9.857984
_cell_length_b 20.749594
_cell_length_c 20.291421
_cell_angle_alpha 90.000000
_cell_angle_beta 90.000000
_cell_angle_gamma 90.000000
_cell_volume 4150.593236
_symmetry_space_group_name_H-M "C M M M"
_symmetry_group_IT_number 65
_symmetry_cell_setting 'orthorhombic'
loop_
_space_group_symop_operation_xyz
x,y,z
-x,-y,z
x,-y,-z
-x,y,-z
-x,-y,-z
x,y,-z
-x,y,z
x,-y,z
1/2+x,1/2+y,z
1/2-x,1/2-y,z
1/2+x,1/2-y,-z
1/2-x,1/2+y,-z
1/2-x,1/2-y,-z
1/2+x,1/2+y,-z
1/2-x,1/2+y,z
1/2+x,1/2-y,z
loop_
_atom_site_type_symbol
_atom_site_label
_atom_site_fract_x
_atom_site_fract_y
_atom_site_fract_z
Si Si1 0.839673 0.186531 0.734108
Si Si2 0.358387 0.303484 0.000000
Si Si3 0.845667 0.112712 0.868880
Si Si4 0.160286 0.075958 0.625648
Si Si5 0.337541 0.000000 0.920653
Si Si6 0.844514 0.422253 0.500000
O O1 0.750000 0.250000 0.721468
O O2 0.813355 0.157883 0.806890
O O3 0.815280 0.127097 0.683857
O O4 0.000000 0.202970 0.729955
O O5 0.250000 0.250000 0.000000
O O6 0.350761 0.346330 0.064589
O O7 0.500000 0.267471 0.000000
O O8 0.733039 0.059824 0.884203
O O9 0.000000 0.086217 0.857977
O O10 0.257390 0.094037 0.564785
O O11 0.000000 0.079999 0.607430
O O12 0.184670 0.000000 0.643368
O O13 0.500000 0.000000 0.914750
O O14 0.305301 0.000000 0.000000
O O15 0.852338 0.500000 0.500000
O O16 0.000000 0.397651 0.500000
#
# Coordination Sequence:
#
# PCOD9488858 Si02
#       6
#    16   8  16  16   8   8
#     4  10  22  38  58  83 114 151 189 232 280 332
#     4  10  20  33  52  77 101 138 184 226 275 326
#     4  10  21  37  57  79 107 146 186 225 276 337
#     4   9  18  34  57  84 112 147 188 228 271 328
#     4  11  23  37  55  83 111 138 177 234 291 333
#     4   9  17  31  54  85 116 145 179 227 280 327
#
# _framework density 17.346917999999999
#
# number of rings (size 3 to 8) (size 9 to 14) (size 15 to 20)
#    0.000    2.222    1.111    1.333    1.556    4.444 
#    0.000    0.556    0.000    0.000    0.000    0.000 
#    0.000    0.000    0.000    0.000    0.000    0.000 
#
# Total GULP energy -200584.875515 kJ/mol
# GULP energy per Si atom -5571.802098 kJ/mol
# Density = 1.730744 g / cm^3
# Si number density = 17.346918 Si / 1000 Ang^3
#
#
#
# Elastic Constant Matrix: (Units=GPa)
#
#
# Indices 1 2 3 4 5 6 
#
# 1 112.5334 76.3366 57.6007 0.0000 0.0000 0.0000
# 2 76.3366 98.8163 55.2501 0.0000 0.0000 0.0000
# 3 57.6007 55.2501 124.6235 0.0000 0.0000 0.0000
# 4 0.0000 0.0000 0.0000 -6.0606 0.0000 0.0000
# 5 0.0000 0.0000 0.0000 0.0000 48.4578 0.0000
# 6 0.0000 0.0000 0.0000 0.0000 0.0000 36.2138
#
#
#
# Elastic Compliance Matrix: (Units=1/GPa)
#
#
# Indices 1 2 3 4 5 6 
#
# 1 0.019536 -0.013353 -0.003110 0.000000 0.000000 0.000000
# 2 -0.013353 0.022582 -0.003840 0.000000 0.000000 0.000000
# 3 -0.003110 -0.003840 0.011164 0.000000 0.000000 0.000000
# 4 0.000000 0.000000 0.000000 -0.165001 0.000000 0.000000
# 5 0.000000 0.000000 0.000000 0.000000 0.020637 0.000000
# 6 0.000000 0.000000 0.000000 0.000000 0.000000 0.027614
#
#
# Mechanical properties :
#
#
# Convention : Reuss Voigt Hill
#
# Bulk Modulus (GPa) = 78.88303 79.37199 79.12751
# Shear Modulus (GPa) = -268.26147 25.50792 -121.37677
#
# Velocity S-wave (km/s) = -12.44913 3.83882 -8.37390
# Velocity P-wave (km/s) = 12.69128 8.09343 6.91248
#
# Compressibility (1/GPa) = 0.01267700
#
# Stress axis : x y z
#
# Youngs Moduli (GPa) = 51.18775 44.28295 89.57640
#
# Poissons Ratio (x) = 0.59132 0.27854
# Poissons Ratio (y) = 0.68352 0.34394
# Poissons Ratio (z) = 0.15917 0.17003
#
# Static dielectric constant tensor:
#      x y z
#    x 1.600670 0.000000 0.000000 
#    y 0.000000 1.525760 0.000000 
#    z 0.000000 0.000000 1.572290 
# 
# From -- ./inp_files/59324.got.cif
#   From: 2010.05.17/outbox.cif.g08.bks.cpg/sg65_30_cif.got.tgz:59324.got - 2010.06.03 17:01:31.
