data_PCOD9488361
_publ_section_title
;
Structure prediction by ZEFSAII (Michael W. Deem and Ramdas Pophale) SiO2 
 PCOD9488361
Probable space group: C M M M
;
_chemical_formula_sum "Si O2"
_cell_formula_units_Z 80
_cell_length_a 8.678954
_cell_length_b 23.961494
_cell_length_c 24.365352
_cell_angle_alpha 90.000000
_cell_angle_beta 90.000000
_cell_angle_gamma 90.000000
_cell_volume 5067.035760
_symmetry_space_group_name_H-M "C M M M"
_symmetry_group_IT_number 65
_symmetry_cell_setting 'orthorhombic'
loop_
_space_group_symop_operation_xyz
x,y,z
-x,-y,z
x,-y,-z
-x,y,-z
-x,-y,-z
x,y,-z
-x,y,z
x,-y,z
1/2+x,1/2+y,z
1/2-x,1/2-y,z
1/2+x,1/2-y,-z
1/2-x,1/2+y,-z
1/2-x,1/2-y,-z
1/2+x,1/2+y,-z
1/2-x,1/2+y,z
1/2+x,1/2-y,z
loop_
_atom_site_type_symbol
_atom_site_label
_atom_site_fract_x
_atom_site_fract_y
_atom_site_fract_z
Si Si1 0.685005 0.813121 0.206751
Si Si2 0.812803 0.000000 0.936345
Si Si3 0.684316 0.313256 0.559873
Si Si4 0.314420 0.620955 0.895999
Si Si5 0.183852 0.687099 0.328991
Si Si6 0.315535 0.187721 0.000000
O O1 0.500000 0.810376 0.201751
O O2 0.750000 0.750000 0.200986
O O3 0.754070 0.852269 0.160051
O O4 0.722708 0.835030 0.268308
O O5 0.766411 0.943235 0.906032
O O6 0.000000 0.000000 0.938111
O O7 0.760159 0.000000 0.000000
O O8 0.725216 0.338179 0.500000
O O9 0.500000 0.310396 0.563633
O O10 0.750000 0.250000 0.558876
O O11 0.748861 0.340044 0.615711
O O12 0.500000 0.623970 0.897568
O O13 0.246737 0.656141 0.946464
O O14 0.250000 0.750000 0.327955
O O15 0.000000 0.689464 0.334036
O O16 0.250000 0.250000 0.000000
O O17 0.500000 0.188609 0.000000
#
# Coordination Sequence:
#
# PCOD9488361 Si02
#       6
#    16   8  16  16  16   8
#     4  10  20  33  47  68  95 123 156 192 231 275
#     4   9  18  36  58  76  94 116 147 184 225 276
#     4   9  15  21  31  49  74 105 144 187 224 259
#     4  11  21  36  56  74  93 120 151 186 227 273
#     4   9  16  25  38  54  78 112 148 185 222 263
#     4  12  24  37  52  73  99 124 150 184 225 268
#
# _framework density 15.788323999999999
#
# number of rings (size 3 to 8) (size 9 to 14) (size 15 to 20)
#    0.000    2.100    1.000    5.100    0.000    3.600 
#    0.000    2.500    0.000    0.000    0.000    0.000 
#    0.000    0.000    0.000    0.900    0.000   18.000 
#
# Total GULP energy -222886.731392 kJ/mol
# GULP energy per Si atom -5572.168285 kJ/mol
# Density = 1.575239 g / cm^3
# Si number density = 15.788324 Si / 1000 Ang^3
#
#
#
# Elastic Constant Matrix: (Units=GPa)
#
#
# Indices 1 2 3 4 5 6 
#
# 1 73.6089 28.6477 60.7529 0.0000 0.0000 0.0000
# 2 28.6477 80.8373 61.4699 0.0000 0.0000 0.0000
# 3 60.7529 61.4699 195.4955 0.0000 0.0000 0.0000
# 4 0.0000 0.0000 0.0000 -2.0181 0.0000 0.0000
# 5 0.0000 0.0000 0.0000 0.0000 26.5103 0.0000
# 6 0.0000 0.0000 0.0000 0.0000 0.0000 12.9015
#
#
#
# Elastic Compliance Matrix: (Units=1/GPa)
#
#
# Indices 1 2 3 4 5 6 
#
# 1 0.018780 -0.002914 -0.004920 0.000000 0.000000 0.000000
# 2 -0.002914 0.016710 -0.004348 0.000000 0.000000 0.000000
# 3 -0.004920 -0.004348 0.008011 0.000000 0.000000 0.000000
# 4 0.000000 0.000000 0.000000 -0.495513 0.000000 0.000000
# 5 0.000000 0.000000 0.000000 0.000000 0.037721 0.000000
# 6 0.000000 0.000000 0.000000 0.000000 0.000000 0.077510
#
#
# Mechanical properties :
#
#
# Convention : Reuss Voigt Hill
#
# Bulk Modulus (GPa) = 52.25687 72.40919 62.33303
# Shear Modulus (GPa) = -16.33794 20.75015 2.20611
#
# Velocity S-wave (km/s) = -3.22034 3.62922 1.18336
# Velocity P-wave (km/s) = 4.39805 7.97018 6.43687
#
# Compressibility (1/GPa) = 0.01913624
#
# Stress axis : x y z
#
# Youngs Moduli (GPa) = 53.24788 59.84448 124.82212
#
# Poissons Ratio (x) = 0.17441 0.61410
# Poissons Ratio (y) = 0.15518 0.54278
# Poissons Ratio (z) = 0.26197 0.26023
#
# Static dielectric constant tensor:
#      x y z
#    x 1.529860 0.000000 0.000000 
#    y 0.000000 1.482550 0.000000 
#    z 0.000000 0.000000 1.588230 
# 
# From -- ./inp_files/71643.got.cif
#   From: 2010.05.17/outbox.cif.g08.bks.cpg/sg65_36_cif.got.tgz:71643.got - 2010.06.03 17:01:31.
