data_PCOD9488794
_publ_section_title
;
Structure prediction by ZEFSAII (Michael W. Deem and Ramdas Pophale) SiO2 
 PCOD9488794
Probable space group: C M M M
;
_chemical_formula_sum "Si O2"
_cell_formula_units_Z 104
_cell_length_a 21.689720
_cell_length_b 29.141839
_cell_length_c 8.976734
_cell_angle_alpha 90.000000
_cell_angle_beta 90.000000
_cell_angle_gamma 90.000000
_cell_volume 5673.999019
_symmetry_space_group_name_H-M "C M M M"
_symmetry_group_IT_number 65
_symmetry_cell_setting 'orthorhombic'
loop_
_space_group_symop_operation_xyz
x,y,z
-x,-y,z
x,-y,-z
-x,y,-z
-x,-y,-z
x,y,-z
-x,y,z
x,-y,z
1/2+x,1/2+y,z
1/2-x,1/2-y,z
1/2+x,1/2-y,-z
1/2-x,1/2+y,-z
1/2-x,1/2-y,-z
1/2+x,1/2+y,-z
1/2-x,1/2+y,z
1/2+x,1/2-y,z
loop_
_atom_site_type_symbol
_atom_site_label
_atom_site_fract_x
_atom_site_fract_y
_atom_site_fract_z
Si Si1 0.321940 0.699788 0.178823
Si Si2 0.263508 0.055099 0.171746
Si Si3 0.376089 0.892974 0.678433
Si Si4 0.000000 0.446579 0.681421
Si Si5 0.568087 0.643118 0.321061
Si Si6 0.866746 0.052290 0.321764
Si Si7 0.682202 0.807451 0.820997
O O1 0.376925 0.672173 0.252083
O O2 0.327763 0.753893 0.214960
O O3 0.253485 0.682792 0.223956
O O4 0.324772 0.695739 0.000000
O O5 0.317967 0.077850 0.264274
O O6 0.196650 0.065272 0.240076
O O7 0.270549 0.000000 0.176036
O O8 0.266488 0.070490 0.000000
O O9 0.376315 0.890782 0.500000
O O10 0.438712 0.918805 0.727270
O O11 0.364648 0.842404 0.744646
O O12 0.000000 0.500000 0.731219
O O13 0.000000 0.447740 0.500000
O O14 0.569797 0.648059 0.500000
O O15 0.500000 0.656536 0.268214
O O16 0.581948 0.589832 0.286877
O O17 0.855889 0.053418 0.500000
O O18 0.882974 0.000000 0.281133
O O19 0.678235 0.812250 0.000000
#
# Coordination Sequence:
#
# PCOD9488794 Si02
#       7
#    16  16  16   8  16  16  16
#     4   9  19  37  59  80 105 140 178 217 266 325
#     4  10  20  33  51  77 108 139 173 219 271 315
#     4  11  21  34  55  81 106 139 179 221 269 322
#     4   9  20  38  55  73 105 147 185 219 260 319
#     4  10  21  35  51  76 109 143 178 218 262 307
#     4   9  18  33  53  77 105 139 180 221 262 313
#     4   9  19  37  59  82 107 134 171 222 274 320
#
# _framework density 18.329225000000001
#
# number of rings (size 3 to 8) (size 9 to 14) (size 15 to 20)
#    0.000    2.385    0.000    3.231    0.000    6.462 
#    1.385    4.615    0.000    2.769    0.000    3.231 
#    0.000    0.000    0.000    0.000    0.000    0.000 
#
# Total GULP energy -290202.284567 kJ/mol
# GULP energy per Si atom -5580.813165 kJ/mol
# Density = 1.828751 g / cm^3
# Si number density = 18.329225 Si / 1000 Ang^3
#
#
#
# Elastic Constant Matrix: (Units=GPa)
#
#
# Indices 1 2 3 4 5 6 
#
# 1 111.1950 68.8735 31.4754 0.0000 0.0000 0.0000
# 2 68.8735 94.7099 31.7885 0.0000 0.0000 0.0000
# 3 31.4754 31.7885 27.5250 0.0000 0.0000 0.0000
# 4 0.0000 0.0000 0.0000 28.0701 0.0000 0.0000
# 5 0.0000 0.0000 0.0000 0.0000 11.5470 0.0000
# 6 0.0000 0.0000 0.0000 0.0000 0.0000 24.9635
#
#
#
# Elastic Compliance Matrix: (Units=1/GPa)
#
#
# Indices 1 2 3 4 5 6 
#
# 1 0.017555 -0.009844 -0.008705 0.000000 0.000000 0.000000
# 2 -0.009844 0.022762 -0.015031 0.000000 0.000000 0.000000
# 3 -0.008705 -0.015031 0.063645 0.000000 0.000000 0.000000
# 4 0.000000 0.000000 0.000000 0.035625 0.000000 0.000000
# 5 0.000000 0.000000 0.000000 0.000000 0.086602 0.000000
# 6 0.000000 0.000000 0.000000 0.000000 0.000000 0.040059
#
#
# Mechanical properties :
#
#
# Convention : Reuss Voigt Hill
#
# Bulk Modulus (GPa) = 27.17342 55.30053 41.23697
# Shear Modulus (GPa) = 14.46442 19.66896 17.06669
#
# Velocity S-wave (km/s) = 2.81222 3.27936 3.05473
# Velocity P-wave (km/s) = 5.04005 6.67646 5.91512
#
# Compressibility (1/GPa) = 0.03680067
#
# Stress axis : x y z
#
# Youngs Moduli (GPa) = 56.96480 43.93229 15.71217
#
# Poissons Ratio (x) = 0.43247 0.13678
# Poissons Ratio (y) = 0.56076 0.23617
# Poissons Ratio (z) = 0.49590 0.66036
#
# Static dielectric constant tensor:
#      x y z
#    x 1.601670 0.000000 0.000000 
#    y 0.000000 1.650720 0.000000 
#    z 0.000000 0.000000 1.615030 
# 
# From -- ./inp_files/12742.got.cif
#   From: 2010.05.17/outbox.cif.g08.bks.cpg/sg65_7_cif.got.tgz:12742.got - 2010.06.03 17:01:31.
