data_PCOD9488251
_publ_section_title
;
Structure prediction by ZEFSAII (Michael W. Deem and Ramdas Pophale) SiO2 
 PCOD9488251
Probable space group: C M M M
;
_chemical_formula_sum "Si O2"
_cell_formula_units_Z 104
_cell_length_a 7.906600
_cell_length_b 29.431484
_cell_length_c 21.670627
_cell_angle_alpha 90.000000
_cell_angle_beta 90.000000
_cell_angle_gamma 90.000000
_cell_volume 5042.819295
_symmetry_space_group_name_H-M "C M M M"
_symmetry_group_IT_number 65
_symmetry_cell_setting 'orthorhombic'
loop_
_space_group_symop_operation_xyz
x,y,z
-x,-y,z
x,-y,-z
-x,y,-z
-x,-y,-z
x,y,-z
-x,y,z
x,-y,z
1/2+x,1/2+y,z
1/2-x,1/2-y,z
1/2+x,1/2-y,-z
1/2-x,1/2+y,-z
1/2-x,1/2-y,-z
1/2+x,1/2+y,-z
1/2-x,1/2+y,z
1/2+x,1/2-y,z
loop_
_atom_site_type_symbol
_atom_site_label
_atom_site_fract_x
_atom_site_fract_y
_atom_site_fract_z
Si Si1 0.295730 0.697126 0.500000
Si Si2 0.296115 0.301731 0.740576
Si Si3 0.297652 0.355064 0.378105
Si Si4 0.796058 0.550770 0.429035
Si Si5 0.803306 0.950828 0.864300
Si Si6 0.796970 0.847408 0.864972
Si Si7 0.312105 0.169402 0.000000
Si Si8 0.195335 0.560567 0.000000
O O1 0.500000 0.693692 0.500000
O O2 0.250000 0.750000 0.500000
O O3 0.231969 0.671798 0.561582
O O4 0.500000 0.305199 0.742029
O O5 0.250000 0.250000 0.727766
O O6 0.232126 0.333581 0.685201
O O7 0.234680 0.317750 0.807619
O O8 0.500000 0.349184 0.377824
O O9 0.261850 0.408107 0.386839
O O10 0.739188 0.559000 0.500000
O O11 0.739573 0.500000 0.411079
O O12 0.000000 0.550635 0.429719
O O13 0.730779 0.899655 0.854230
O O14 0.000000 0.949996 0.845144
O O15 0.731360 0.000000 0.841429
O O16 0.789087 0.953229 0.938313
O O17 0.000000 0.851760 0.862974
O O18 0.761296 0.823581 0.931200
O O19 0.312415 0.114759 0.000000
O O20 0.500000 0.188921 0.000000
O O21 0.000000 0.545872 0.000000
#
# Coordination Sequence:
#
# PCOD9488251 Si02
#       8
#     8  16  16  16  16  16   8   8
#     4  10  20  32  49  76 109 141 178 225 273 320
#     4  10  22  39  58  79 105 138 180 225 276 336
#     4  10  20  35  54  81 113 145 182 227 274 323
#     4   9  18  33  54  82 115 151 191 229 265 314
#     4   9  16  26  42  64  91 125 161 195 237 294
#     4   9  18  34  53  74 102 136 172 217 267 321
#     4   9  17  30  51  78 103 130 170 218 266 322
#     4   9  16  24  37  63  98 128 154 190 238 292
#
# _framework density 20.623383
#
# number of rings (size 3 to 8) (size 9 to 14) (size 15 to 20)
#    0.000    2.615    0.769    1.615    0.000    5.231 
#    0.000    1.923    0.000    2.769    0.000    0.000 
#    0.000    0.000    0.000    0.000    0.000    0.000 
#
# Total GULP energy -289591.619362 kJ/mol
# GULP energy per Si atom -5569.069603 kJ/mol
# Density = 2.057644 g / cm^3
# Si number density = 20.623383 Si / 1000 Ang^3
#
#
#
# Elastic Constant Matrix: (Units=GPa)
#
#
# Indices 1 2 3 4 5 6 
#
# 1 20.8401 -4.2669 13.0121 0.0000 0.0000 0.0000
# 2 -4.2669 116.5354 73.1084 0.0000 0.0000 0.0000
# 3 13.0121 73.1084 138.4436 0.0000 0.0000 0.0000
# 4 0.0000 0.0000 0.0000 30.9589 0.0000 0.0000
# 5 0.0000 0.0000 0.0000 0.0000 -16.0591 0.0000
# 6 0.0000 0.0000 0.0000 0.0000 0.0000 23.9012
#
#
#
# Elastic Compliance Matrix: (Units=1/GPa)
#
#
# Indices 1 2 3 4 5 6 
#
# 1 0.055478 0.007929 -0.009402 0.000000 0.000000 0.000000
# 2 0.007929 0.013966 -0.008120 0.000000 0.000000 0.000000
# 3 -0.009402 -0.008120 0.012395 0.000000 0.000000 0.000000
# 4 0.000000 0.000000 0.000000 0.032301 0.000000 0.000000
# 5 0.000000 0.000000 0.000000 0.000000 -0.062270 0.000000
# 6 0.000000 0.000000 0.000000 0.000000 0.000000 0.041839
#
#
# Mechanical properties :
#
#
# Convention : Reuss Voigt Hill
#
# Bulk Modulus (GPa) = 15.96073 48.83626 32.39849
# Shear Modulus (GPa) = 37.37549 20.69123 29.03336
#
# Velocity S-wave (km/s) = 4.26172 3.17091 3.75612
# Velocity P-wave (km/s) = 5.65440 6.09407 5.87835
#
# Compressibility (1/GPa) = 0.06265379
#
# Stress axis : x y z
#
# Youngs Moduli (GPa) = 18.02515 71.60468 80.67889
#
# Poissons Ratio (x) = -0.56778 0.75851
# Poissons Ratio (y) = -0.14293 0.65512
# Poissons Ratio (z) = 0.16947 0.58144
#
# Static dielectric constant tensor:
#      x y z
#    x 1.760590 0.000000 0.000000 
#    y 0.000000 1.768930 0.000000 
#    z 0.000000 0.000000 1.737580 
# 
# From -- ./inp_files/60937.got.cif
#   From: 2010.05.17/outbox.cif.g08.bks.cpg/sg65_31_cif.got.tgz:60937.got - 2010.06.03 17:01:31.
