data_PCOD9488590
_publ_section_title
;
Structure prediction by ZEFSAII (Michael W. Deem and Ramdas Pophale) SiO2 
 PCOD9488590
Probable space group: C M M M
;
_chemical_formula_sum "Si O2"
_cell_formula_units_Z 96
_cell_length_a 8.502576
_cell_length_b 26.350673
_cell_length_c 19.278935
_cell_angle_alpha 90.000000
_cell_angle_beta 90.000000
_cell_angle_gamma 90.000000
_cell_volume 4319.418393
_symmetry_space_group_name_H-M "C M M M"
_symmetry_group_IT_number 65
_symmetry_cell_setting 'orthorhombic'
loop_
_space_group_symop_operation_xyz
x,y,z
-x,-y,z
x,-y,-z
-x,y,-z
-x,-y,-z
x,y,-z
-x,y,z
x,-y,z
1/2+x,1/2+y,z
1/2-x,1/2-y,z
1/2+x,1/2-y,-z
1/2-x,1/2+y,-z
1/2-x,1/2-y,-z
1/2+x,1/2+y,-z
1/2-x,1/2+y,z
1/2+x,1/2-y,z
loop_
_atom_site_type_symbol
_atom_site_label
_atom_site_fract_x
_atom_site_fract_y
_atom_site_fract_z
Si Si1 0.311600 0.696431 0.277807
Si Si2 0.314917 0.087557 0.921971
Si Si3 0.311610 0.339920 0.424842
Si Si4 0.312986 0.943921 0.628673
Si Si5 0.175725 0.802184 0.917879
Si Si6 0.812519 0.913718 0.223988
O O1 0.500000 0.697947 0.280380
O O2 0.250000 0.750000 0.252895
O O3 0.249286 0.687895 0.356343
O O4 0.269301 0.646216 0.234195
O O5 0.500000 0.077084 0.920066
O O6 0.282289 0.147911 0.914648
O O7 0.236358 0.066652 0.851916
O O8 0.256573 0.072976 0.000000
O O9 0.248889 0.323827 0.500000
O O10 0.500000 0.333755 0.425425
O O11 0.273603 0.398880 0.411131
O O12 0.500000 0.937158 0.621234
O O13 0.268735 0.939744 0.710163
O O14 0.269732 0.000000 0.603733
O O15 0.250000 0.750000 0.891758
O O16 0.000000 0.811829 0.888414
O O17 0.155745 0.794401 0.000000
O O18 0.000000 0.918246 0.231843
#
# Coordination Sequence:
#
# PCOD9488590 Si02
#       6
#    16  16  16  16  16  16
#     4   9  19  34  52  76 106 144 188 229 268 311
#     4  10  20  33  50  73 101 133 170 217 276 334
#     4   9  19  36  56  81 115 150 185 225 267 317
#     4  10  21  37  58  84 112 141 176 221 273 327
#     4   9  16  26  40  59  86 121 162 207 254 306
#     4  10  21  37  56  78 106 141 183 227 270 326
#
# _framework density 22.225214999999999
#
# number of rings (size 3 to 8) (size 9 to 14) (size 15 to 20)
#    0.000    2.500    0.000    3.000    0.000    9.333 
#    0.000    3.333    0.000    0.500    0.000    3.500 
#    0.000    0.000    0.000    0.000    0.000    0.000 
#
# Total GULP energy -267925.009309 kJ/mol
# GULP energy per Si atom -5581.771027 kJ/mol
# Density = 2.217463 g / cm^3
# Si number density = 22.225215 Si / 1000 Ang^3
#
#
#
# Elastic Constant Matrix: (Units=GPa)
#
#
# Indices 1 2 3 4 5 6 
#
# 1 14.6618 -7.5492 -0.4744 0.0000 0.0000 0.0000
# 2 -7.5492 44.4362 -7.1296 0.0000 0.0000 0.0000
# 3 -0.4744 -7.1296 151.5437 0.0000 0.0000 0.0000
# 4 0.0000 0.0000 0.0000 -18.6713 0.0000 0.0000
# 5 0.0000 0.0000 0.0000 0.0000 21.8736 0.0000
# 6 0.0000 0.0000 0.0000 0.0000 0.0000 18.3711
#
#
#
# Elastic Compliance Matrix: (Units=1/GPa)
#
#
# Indices 1 2 3 4 5 6 
#
# 1 0.074848 0.012850 0.000839 0.000000 0.000000 0.000000
# 2 0.012850 0.024882 0.001211 0.000000 0.000000 0.000000
# 3 0.000839 0.001211 0.006658 0.000000 0.000000 0.000000
# 4 0.000000 0.000000 0.000000 -0.053558 0.000000 0.000000
# 5 0.000000 0.000000 0.000000 0.000000 0.045717 0.000000
# 6 0.000000 0.000000 0.000000 0.000000 0.000000 0.054433
#
#
# Mechanical properties :
#
#
# Convention : Reuss Voigt Hill
#
# Bulk Modulus (GPa) = 7.34278 20.03727 13.69002
# Shear Modulus (GPa) = 29.66015 19.36767 24.51391
#
# Velocity S-wave (km/s) = 3.65708 2.95520 3.32471
# Velocity P-wave (km/s) = 4.59818 4.54746 4.57289
#
# Compressibility (1/GPa) = 0.13618822
#
# Stress axis : x y z
#
# Youngs Moduli (GPa) = 13.36038 40.19041 150.18738
#
# Poissons Ratio (x) = -0.51646 -0.12599
# Poissons Ratio (y) = -0.17169 -0.18185
# Poissons Ratio (z) = -0.01121 -0.04866
#
# Static dielectric constant tensor:
#      x y z
#    x 1.476490 0.000000 0.000000 
#    y 0.000000 1.835410 0.000000 
#    z 0.000000 0.000000 1.890820 
# 
# From -- ./inp_files/60205.got.cif
#   From: 2010.05.17/outbox.cif.g08.bks.cpg/sg65_31_cif.got.tgz:60205.got - 2010.06.03 17:01:31.
