data_PCOD9488832
_publ_section_title
;
Structure prediction by ZEFSAII (Michael W. Deem and Ramdas Pophale) SiO2 
 PCOD9488832
Probable space group: C M M M
;
_chemical_formula_sum "Si O2"
_cell_formula_units_Z 116
_cell_length_a 8.889724
_cell_length_b 26.497050
_cell_length_c 26.245701
_cell_angle_alpha 90.000000
_cell_angle_beta 90.000000
_cell_angle_gamma 90.000000
_cell_volume 6182.213224
_symmetry_space_group_name_H-M "C M M M"
_symmetry_group_IT_number 65
_symmetry_cell_setting 'orthorhombic'
loop_
_space_group_symop_operation_xyz
x,y,z
-x,-y,z
x,-y,-z
-x,y,-z
-x,-y,-z
x,y,-z
-x,y,z
x,-y,z
1/2+x,1/2+y,z
1/2-x,1/2-y,z
1/2+x,1/2-y,-z
1/2-x,1/2+y,-z
1/2-x,1/2-y,-z
1/2+x,1/2+y,-z
1/2-x,1/2+y,z
1/2+x,1/2-y,z
loop_
_atom_site_type_symbol
_atom_site_label
_atom_site_fract_x
_atom_site_fract_y
_atom_site_fract_z
Si Si1 0.681795 0.584234 0.583939
Si Si2 0.757663 0.500000 0.500000
Si Si3 0.319030 0.696305 0.733878
Si Si4 0.176092 0.847889 0.843643
Si Si5 0.679269 0.194457 0.944032
Si Si6 0.671809 0.698373 0.438354
Si Si7 0.677310 0.096695 0.687703
Si Si8 0.173392 0.442143 0.800292
O O1 0.500000 0.582219 0.577669
O O2 0.748897 0.544559 0.544252
O O3 0.732352 0.642651 0.575015
O O4 0.733522 0.572621 0.641002
O O5 0.500000 0.695740 0.729080
O O6 0.250000 0.750000 0.719800
O O7 0.279802 0.684351 0.793300
O O8 0.247570 0.651429 0.700744
O O9 0.262407 0.834314 0.894782
O O10 0.214094 0.904844 0.828065
O O11 0.000000 0.839952 0.851813
O O12 0.500000 0.198458 0.941621
O O13 0.750000 0.250000 0.941816
O O14 0.719630 0.172623 0.000000
O O15 0.671432 0.700214 0.500000
O O16 0.500000 0.699643 0.419923
O O17 0.750000 0.750000 0.420308
O O18 0.500000 0.101025 0.675746
O O19 0.692427 0.065216 0.739717
O O20 0.193985 0.500000 0.814204
O O21 0.000000 0.427058 0.811696
#
# Coordination Sequence:
#
# PCOD9488832 Si02
#       8
#    16   4  16  16  16  16  16  16
#     4  11  22  39  61  85 111 143 185 227 274 336
#     4  12  25  44  67  86 111 152 191 228 283 340
#     4  10  20  35  56  84 117 151 189 229 277 336
#     4  10  20  33  53  82 114 149 191 238 286 337
#     4  10  20  33  51  78 114 156 198 236 278 331
#     4   9  18  34  56  79 103 131 168 211 254 308
#     4  10  22  38  57  82 113 145 180 224 276 332
#     4   9  19  37  58  78 105 143 184 229 285 343
#
# _framework density 18.763508000000002
#
# number of rings (size 3 to 8) (size 9 to 14) (size 15 to 20)
#    0.000    2.069    0.690    2.690    0.966    5.517 
#    0.000    2.069    0.000    0.414    0.000    2.897 
#    0.000    0.000    0.000    0.000    0.000    0.000 
#
# Total GULP energy -323227.597919 kJ/mol
# GULP energy per Si atom -5572.889619 kJ/mol
# Density = 1.872080 g / cm^3
# Si number density = 18.763508 Si / 1000 Ang^3
#
#
#
# Elastic Constant Matrix: (Units=GPa)
#
#
# Indices 1 2 3 4 5 6 
#
# 1 18.3966 15.4358 20.8125 0.0000 0.0000 0.0000
# 2 15.4358 76.8744 22.2749 0.0000 0.0000 0.0000
# 3 20.8125 22.2749 100.0221 0.0000 0.0000 0.0000
# 4 0.0000 0.0000 0.0000 -8.1100 0.0000 0.0000
# 5 0.0000 0.0000 0.0000 0.0000 7.1186 0.0000
# 6 0.0000 0.0000 0.0000 0.0000 0.0000 14.7720
#
#
#
# Elastic Compliance Matrix: (Units=1/GPa)
#
#
# Indices 1 2 3 4 5 6 
#
# 1 0.080362 -0.012070 -0.014034 0.000000 0.000000 0.000000
# 2 -0.012070 0.015718 -0.000989 0.000000 0.000000 0.000000
# 3 -0.014034 -0.000989 0.013138 0.000000 0.000000 0.000000
# 4 0.000000 0.000000 0.000000 -0.123304 0.000000 0.000000
# 5 0.000000 0.000000 0.000000 0.000000 0.140478 0.000000
# 6 0.000000 0.000000 0.000000 0.000000 0.000000 0.067696
#
#
# Mechanical properties :
#
#
# Convention : Reuss Voigt Hill
#
# Bulk Modulus (GPa) = 18.17077 34.70437 26.43757
# Shear Modulus (GPa) = 18.75352 11.87409 15.31381
#
# Velocity S-wave (km/s) = 3.16487 2.51834 2.85993
# Velocity P-wave (km/s) = 4.80211 5.19537 5.00261
#
# Compressibility (1/GPa) = 0.05503346
#
# Stress axis : x y z
#
# Youngs Moduli (GPa) = 12.44374 63.62006 76.11424
#
# Poissons Ratio (x) = 0.76787 1.06816
# Poissons Ratio (y) = 0.15019 0.07528
# Poissons Ratio (z) = 0.17463 0.06292
#
# Static dielectric constant tensor:
#      x y z
#    x 1.656950 0.000000 0.000000 
#    y 0.000000 1.647130 0.000000 
#    z 0.000000 0.000000 1.658120 
# 
# From -- ./inp_files/68348.got.cif
#   From: 2010.05.17/outbox.cif.g08.bks.cpg/sg65_35_cif.got.tgz:68348.got - 2010.06.03 17:01:31.
