data_PCOD9488177
_publ_section_title
;
Structure prediction by ZEFSAII (Michael W. Deem and Ramdas Pophale) SiO2 
 PCOD9488177
Probable space group: C M M M
;
_chemical_formula_sum "Si O2"
_cell_formula_units_Z 80
_cell_length_a 9.051128
_cell_length_b 28.231614
_cell_length_c 18.999664
_cell_angle_alpha 90.000000
_cell_angle_beta 90.000000
_cell_angle_gamma 90.000000
_cell_volume 4854.945230
_symmetry_space_group_name_H-M "C M M M"
_symmetry_group_IT_number 65
_symmetry_cell_setting 'orthorhombic'
loop_
_space_group_symop_operation_xyz
x,y,z
-x,-y,z
x,-y,-z
-x,y,-z
-x,-y,-z
x,y,-z
-x,y,z
x,-y,z
1/2+x,1/2+y,z
1/2-x,1/2-y,z
1/2+x,1/2-y,-z
1/2-x,1/2+y,-z
1/2-x,1/2-y,-z
1/2+x,1/2+y,-z
1/2-x,1/2+y,z
1/2+x,1/2-y,z
loop_
_atom_site_type_symbol
_atom_site_label
_atom_site_fract_x
_atom_site_fract_y
_atom_site_fract_z
Si Si1 0.324072 0.199088 0.347778
Si Si2 0.175831 0.199365 0.081586
Si Si3 0.677368 0.054450 0.705722
Si Si4 0.675066 0.143371 0.203064
Si Si5 0.176309 0.889850 0.418825
O O1 0.500000 0.201431 0.359401
O O2 0.250000 0.250000 0.356200
O O3 0.299796 0.179195 0.268550
O O4 0.251198 0.160071 0.398431
O O5 0.250000 0.250000 0.097877
O O6 0.237011 0.161010 0.135743
O O7 0.000000 0.203881 0.088432
O O8 0.210664 0.188023 0.000000
O O9 0.500000 0.059069 0.695370
O O10 0.717090 0.091691 0.767029
O O11 0.757256 0.072050 0.635153
O O12 0.711287 0.000000 0.721788
O O13 0.500000 0.143535 0.187795
O O14 0.206774 0.901642 0.500000
O O15 0.000000 0.886321 0.409297
#
# Coordination Sequence:
#
# PCOD9488177 Si02
#       5
#    16  16  16  16  16
#     4  10  20  33  50  72  98 130 167 204 244 292
#     4  10  20  32  48  73 104 136 167 197 233 280
#     4   9  19  36  56  76  97 124 161 204 250 298
#     4   9  18  32  51  74  98 126 161 201 242 286
#     4  10  21  35  50  71  99 129 163 203 246 294
#
# _framework density 16.478045000000002
#
# number of rings (size 3 to 8) (size 9 to 14) (size 15 to 20)
#    0.000    2.400    0.000    3.600    0.000    9.600 
#    0.000    2.000    0.000    0.600    0.000    4.200 
#    0.000    0.000    0.000    0.000    0.000    0.000 
#
# Total GULP energy -223197.848795 kJ/mol
# GULP energy per Si atom -5579.946220 kJ/mol
# Density = 1.644054 g / cm^3
# Si number density = 16.478045 Si / 1000 Ang^3
#
#
#
# Elastic Constant Matrix: (Units=GPa)
#
#
# Indices 1 2 3 4 5 6 
#
# 1 52.4750 48.2556 59.2952 0.0000 0.0000 0.0000
# 2 48.2556 120.3385 69.8297 0.0000 0.0000 0.0000
# 3 59.2952 69.8297 108.6092 0.0000 0.0000 0.0000
# 4 0.0000 0.0000 0.0000 9.5594 0.0000 0.0000
# 5 0.0000 0.0000 0.0000 0.0000 29.9941 0.0000
# 6 0.0000 0.0000 0.0000 0.0000 0.0000 26.4834
#
#
#
# Elastic Compliance Matrix: (Units=1/GPa)
#
#
# Indices 1 2 3 4 5 6 
#
# 1 0.053356 -0.007166 -0.024522 0.000000 0.000000 0.000000
# 2 -0.007166 0.014218 -0.005229 0.000000 0.000000 0.000000
# 3 -0.024522 -0.005229 0.025957 0.000000 0.000000 0.000000
# 4 0.000000 0.000000 0.000000 0.104609 0.000000 0.000000
# 5 0.000000 0.000000 0.000000 0.000000 0.033340 0.000000
# 6 0.000000 0.000000 0.000000 0.000000 0.000000 0.037760
#
#
# Mechanical properties :
#
#
# Convention : Reuss Voigt Hill
#
# Bulk Modulus (GPa) = 50.77075 70.68710 60.72892
# Shear Modulus (GPa) = 14.30044 20.14353 17.22198
#
# Velocity S-wave (km/s) = 2.94912 3.50014 3.23638
# Velocity P-wave (km/s) = 6.51724 7.70231 7.13442
#
# Compressibility (1/GPa) = 0.01969638
#
# Stress axis : x y z
#
# Youngs Moduli (GPa) = 18.74202 70.33514 38.52482
#
# Poissons Ratio (x) = 0.50401 0.94472
# Poissons Ratio (y) = 0.13430 0.20144
# Poissons Ratio (z) = 0.45960 0.36778
#
# Static dielectric constant tensor:
#      x y z
#    x 1.548970 0.000000 0.000000 
#    y 0.000000 1.539410 0.000000 
#    z 0.000000 0.000000 1.540890 
# 
# From -- ./inp_files/49849.got.cif
#   From: 2010.05.17/outbox.cif.g08.bks.cpg/sg65_25_cif.got.tgz:49849.got - 2010.06.03 17:01:31.
