data_PCOD9488947
_publ_section_title
;
Structure prediction by ZEFSAII (Michael W. Deem and Ramdas Pophale) SiO2 
 PCOD9488947
Probable space group: C M M M
;
_chemical_formula_sum "Si O2"
_cell_formula_units_Z 88
_cell_length_a 20.497558
_cell_length_b 25.172537
_cell_length_c 7.432301
_cell_angle_alpha 90.000000
_cell_angle_beta 90.000000
_cell_angle_gamma 90.000000
_cell_volume 3834.885501
_symmetry_space_group_name_H-M "C M M M"
_symmetry_group_IT_number 65
_symmetry_cell_setting 'orthorhombic'
loop_
_space_group_symop_operation_xyz
x,y,z
-x,-y,z
x,-y,-z
-x,y,-z
-x,-y,-z
x,y,-z
-x,y,z
x,-y,z
1/2+x,1/2+y,z
1/2-x,1/2-y,z
1/2+x,1/2-y,-z
1/2-x,1/2+y,-z
1/2-x,1/2-y,-z
1/2+x,1/2+y,-z
1/2-x,1/2+y,z
1/2+x,1/2-y,z
loop_
_atom_site_type_symbol
_atom_site_label
_atom_site_fract_x
_atom_site_fract_y
_atom_site_fract_z
Si Si1 0.929821 0.827659 0.720088
Si Si2 0.871477 0.371728 0.215677
Si Si3 0.175792 0.254097 0.714979
Si Si4 0.500000 0.937225 0.779950
Si Si5 0.600910 0.442094 0.292726
Si Si6 0.248414 0.440196 0.216022
O O1 0.926450 0.829272 0.500000
O O2 0.869349 0.793323 0.784737
O O3 0.926521 0.888125 0.785942
O O4 0.000000 0.803821 0.767523
O O5 0.861759 0.309527 0.253140
O O6 0.935773 0.403710 0.278223
O O7 0.805289 0.399513 0.283414
O O8 0.872036 0.377753 0.000000
O O9 0.180203 0.247955 0.500000
O O10 0.250000 0.250000 0.785083
O O11 0.500000 0.000000 0.725688
O O12 0.500000 0.937917 0.000000
O O13 0.579212 0.444290 0.500000
O O14 0.586642 0.500000 0.211447
O O15 0.679227 0.434980 0.291711
O O16 0.224992 0.500000 0.253258
O O17 0.254797 0.434797 0.000000
#
# Coordination Sequence:
#
# PCOD9488947 Si02
#       6
#    16  16  16   8  16  16
#     4   9  18  32  50  72 100 133 167 202 247 305
#     4  10  20  33  53  78 103 134 175 220 262 307
#     4  10  21  36  54  75 102 139 178 215 261 316
#     4   9  18  34  55  79 109 143 178 219 272 332
#     4   9  17  30  51  77 100 124 161 209 253 292
#     4   9  17  30  49  73 101 132 165 202 250 307
#
# _framework density 22.947230000000001
#
# number of rings (size 3 to 8) (size 9 to 14) (size 15 to 20)
#    0.000    2.636    0.000    1.636    1.273    5.091 
#    0.000    2.727    0.000    3.818    0.000    2.545 
#    0.000    0.000    0.000    0.000    0.000    0.000 
#
# Total GULP energy -245679.184803 kJ/mol
# GULP energy per Si atom -5583.617836 kJ/mol
# Density = 2.289500 g / cm^3
# Si number density = 22.947230 Si / 1000 Ang^3
#
#
#
# Elastic Constant Matrix: (Units=GPa)
#
#
# Indices 1 2 3 4 5 6 
#
# 1 158.1272 93.1470 7.9677 0.0000 0.0000 0.0000
# 2 93.1470 160.0919 3.4540 0.0000 0.0000 0.0000
# 3 7.9677 3.4540 73.4584 0.0000 0.0000 0.0000
# 4 0.0000 0.0000 0.0000 15.9261 0.0000 0.0000
# 5 0.0000 0.0000 0.0000 0.0000 0.9197 0.0000
# 6 0.0000 0.0000 0.0000 0.0000 0.0000 31.7674
#
#
#
# Elastic Compliance Matrix: (Units=1/GPa)
#
#
# Indices 1 2 3 4 5 6 
#
# 1 0.009667 -0.005608 -0.000785 0.000000 0.000000 0.000000
# 2 -0.005608 0.009506 0.000161 0.000000 0.000000 0.000000
# 3 -0.000785 0.000161 0.013691 0.000000 0.000000 0.000000
# 4 0.000000 0.000000 0.000000 0.062790 0.000000 0.000000
# 5 0.000000 0.000000 0.000000 0.000000 1.087366 0.000000
# 6 0.000000 0.000000 0.000000 0.000000 0.000000 0.031479
#
#
# Mechanical properties :
#
#
# Convention : Reuss Voigt Hill
#
# Bulk Modulus (GPa) = 49.01757 66.75721 57.88739
# Shear Modulus (GPa) = 4.05265 28.86323 16.45794
#
# Velocity S-wave (km/s) = 1.33038 3.55041 2.68098
# Velocity P-wave (km/s) = 4.87517 6.77953 5.90463
#
# Compressibility (1/GPa) = 0.02040085
#
# Stress axis : x y z
#
# Youngs Moduli (GPa) = 103.44735 105.20138 73.04232
#
# Poissons Ratio (x) = 0.58992 0.05733
# Poissons Ratio (y) = 0.58008 -0.01178
# Poissons Ratio (z) = 0.08119 -0.01697
#
# Static dielectric constant tensor:
#      x y z
#    x 1.842420 0.000000 0.000000 
#    y 0.000000 1.852980 0.000000 
#    z 0.000000 0.000000 1.877720 
# 
# From -- ./inp_files/11748.got.cif
#   From: 2010.05.17/outbox.cif.g08.bks.cpg/sg65_6_cif.got.tgz:11748.got - 2010.06.03 17:01:31.
