data_PCOD9488808
_publ_section_title
;
Structure prediction by ZEFSAII (Michael W. Deem and Ramdas Pophale) SiO2 
 PCOD9488808
Probable space group: C M M M
;
_chemical_formula_sum "Si O2"
_cell_formula_units_Z 88
_cell_length_a 20.233442
_cell_length_b 28.410409
_cell_length_c 8.249757
_cell_angle_alpha 90.000000
_cell_angle_beta 90.000000
_cell_angle_gamma 90.000000
_cell_volume 4742.293306
_symmetry_space_group_name_H-M "C M M M"
_symmetry_group_IT_number 65
_symmetry_cell_setting 'orthorhombic'
loop_
_space_group_symop_operation_xyz
x,y,z
-x,-y,z
x,-y,-z
-x,y,-z
-x,-y,-z
x,y,-z
-x,y,z
x,-y,z
1/2+x,1/2+y,z
1/2-x,1/2-y,z
1/2+x,1/2-y,-z
1/2-x,1/2+y,-z
1/2-x,1/2-y,-z
1/2+x,1/2+y,-z
1/2-x,1/2+y,z
1/2+x,1/2-y,z
loop_
_atom_site_type_symbol
_atom_site_label
_atom_site_fract_x
_atom_site_fract_y
_atom_site_fract_z
Si Si1 0.169292 0.416773 0.806864
Si Si2 0.340113 0.289117 0.695736
Si Si3 0.424932 0.000000 0.693174
Si Si4 0.184193 0.946259 0.801927
Si Si5 0.308200 0.185111 0.304472
Si Si6 0.925739 0.872751 0.194943
O O1 0.115614 0.453731 0.744969
O O2 0.242675 0.431249 0.746310
O O3 0.159592 0.362511 0.758996
O O4 0.170210 0.420481 0.000000
O O5 0.341136 0.290115 0.500000
O O6 0.341281 0.234452 0.746183
O O7 0.268891 0.310596 0.747518
O O8 0.397875 0.321556 0.761504
O O9 0.500000 0.000000 0.758144
O O10 0.428103 0.000000 0.500000
O O11 0.127626 0.910760 0.744188
O O12 0.171140 0.000000 0.754631
O O13 0.184808 0.944618 0.000000
O O14 0.308620 0.183770 0.500000
O O15 0.000000 0.880173 0.256371
O O16 0.927357 0.876855 0.000000
#
# Coordination Sequence:
#
# PCOD9488808 Si02
#       6
#    16  16   8  16  16  16
#     4  11  20  34  59  88 113 141 181 230 276 325
#     4   9  18  33  53  77 107 143 185 230 275 330
#     4  11  25  43  61  83 114 149 180 218 276 340
#     4   9  17  31  51  78 109 140 179 223 268 317
#     4   9  18  33  54  81 109 140 182 230 278 329
#     4  10  20  33  51  77 111 149 187 228 275 328
#
# _framework density 18.556424
#
# number of rings (size 3 to 8) (size 9 to 14) (size 15 to 20)
#    0.000    2.273    2.727    1.909    0.000    2.182 
#    0.000    4.545    0.000    1.091    0.000    1.273 
#    0.000    0.000    0.000    0.000    0.000    0.000 
#
# Total GULP energy -245496.464298 kJ/mol
# GULP energy per Si atom -5579.465098 kJ/mol
# Density = 1.851419 g / cm^3
# Si number density = 18.556424 Si / 1000 Ang^3
#
#
#
# Elastic Constant Matrix: (Units=GPa)
#
#
# Indices 1 2 3 4 5 6 
#
# 1 143.0330 89.7904 17.7199 0.0000 0.0000 0.0000
# 2 89.7904 165.0044 15.0349 0.0000 0.0000 0.0000
# 3 17.7199 15.0349 14.4156 0.0000 0.0000 0.0000
# 4 0.0000 0.0000 0.0000 50.0517 0.0000 0.0000
# 5 0.0000 0.0000 0.0000 0.0000 18.2102 0.0000
# 6 0.0000 0.0000 0.0000 0.0000 0.0000 24.9050
#
#
#
# Elastic Compliance Matrix: (Units=1/GPa)
#
#
# Indices 1 2 3 4 5 6 
#
# 1 0.011468 -0.005477 -0.008385 0.000000 0.000000 0.000000
# 2 -0.005477 0.009312 -0.002980 0.000000 0.000000 0.000000
# 3 -0.008385 -0.002980 0.082785 0.000000 0.000000 0.000000
# 4 0.000000 0.000000 0.000000 0.019979 0.000000 0.000000
# 5 0.000000 0.000000 0.000000 0.000000 0.054914 0.000000
# 6 0.000000 0.000000 0.000000 0.000000 0.000000 0.040153
#
#
# Mechanical properties :
#
#
# Convention : Reuss Voigt Hill
#
# Bulk Modulus (GPa) = 14.31001 63.06037 38.68519
# Shear Modulus (GPa) = 18.14296 31.96055 25.05176
#
# Velocity S-wave (km/s) = 3.13024 4.15462 3.67826
# Velocity P-wave (km/s) = 4.55992 7.55455 6.23956
#
# Compressibility (1/GPa) = 0.06988116
#
# Stress axis : x y z
#
# Youngs Moduli (GPa) = 87.19781 107.38580 12.07953
#
# Poissons Ratio (x) = 0.58811 0.10129
# Poissons Ratio (y) = 0.47755 0.03600
# Poissons Ratio (z) = 0.73115 0.32005
#
# Static dielectric constant tensor:
#      x y z
#    x 1.636450 0.000000 0.000000 
#    y 0.000000 1.638040 0.000000 
#    z 0.000000 0.000000 1.650620 
# 
# From -- ./inp_files/10069.got.cif
#   From: 2010.05.17/outbox.cif.g08.bks.cpg/sg65_6_cif.got.tgz:10069.got - 2010.06.03 17:01:31.
