data_PCOD9488905
_publ_section_title
;
Structure prediction by ZEFSAII (Michael W. Deem and Ramdas Pophale) SiO2 
 PCOD9488905
Probable space group: C M M M
;
_chemical_formula_sum "Si O2"
_cell_formula_units_Z 88
_cell_length_a 28.248867
_cell_length_b 7.872924
_cell_length_c 19.139354
_cell_angle_alpha 90.000000
_cell_angle_beta 90.000000
_cell_angle_gamma 90.000000
_cell_volume 4256.614971
_symmetry_space_group_name_H-M "C M M M"
_symmetry_group_IT_number 65
_symmetry_cell_setting 'orthorhombic'
loop_
_space_group_symop_operation_xyz
x,y,z
-x,-y,z
x,-y,-z
-x,y,-z
-x,-y,-z
x,y,-z
-x,y,z
x,-y,z
1/2+x,1/2+y,z
1/2-x,1/2-y,z
1/2+x,1/2-y,-z
1/2-x,1/2+y,-z
1/2-x,1/2-y,-z
1/2+x,1/2+y,-z
1/2-x,1/2+y,z
1/2+x,1/2-y,z
loop_
_atom_site_type_symbol
_atom_site_label
_atom_site_fract_x
_atom_site_fract_y
_atom_site_fract_z
Si Si1 0.195335 0.795757 0.921685
Si Si2 0.101178 0.301198 0.352619
Si Si3 0.500000 0.299067 0.579981
Si Si4 0.622593 0.706201 0.194449
Si Si5 0.198647 0.295201 0.419914
Si Si6 0.054124 0.206755 0.074930
O O1 0.250000 0.750000 0.914653
O O2 0.167732 0.737906 0.852144
O O3 0.189188 0.000000 0.923452
O O4 0.180792 0.734205 0.000000
O O5 0.100918 0.500000 0.368464
O O6 0.111358 0.274269 0.270724
O O7 0.149271 0.228634 0.388103
O O8 0.049424 0.241862 0.379621
O O9 0.500000 0.500000 0.573431
O O10 0.500000 0.226517 0.500000
O O11 0.623906 0.500000 0.200169
O O12 0.580887 0.762101 0.142892
O O13 0.200024 0.235075 0.500000
O O14 0.196654 0.500000 0.419052
O O15 0.250000 0.250000 0.387099
O O16 0.000000 0.258092 0.077587
O O17 0.055926 0.000000 0.074913
O O18 0.074032 0.261898 0.000000
#
# Coordination Sequence:
#
# PCOD9488905 Si02
#       6
#    16  16   8  16  16  16
#     4   9  18  33  53  77 108 150 201 252 299 350
#     4  11  24  40  59  87 123 161 194 233 293 359
#     4  11  25  45  69  93 116 149 198 249 291 344
#     4  10  20  33  52  79 111 145 185 237 286 335
#     4   9  19  37  61  86 112 145 186 231 280 338
#     4   8  14  26  47  74 100 130 173 224 275 324
#
# _framework density 20.673705000000002
#
# number of rings (size 3 to 8) (size 9 to 14) (size 15 to 20)
#    0.000    2.455    0.000    2.455    1.273    6.545 
#    0.000    5.455    0.000    1.636    0.000    1.273 
#    0.000    0.000    0.000    0.000    0.000    0.000 
#
# Total GULP energy -245050.112474 kJ/mol
# GULP energy per Si atom -5569.320738 kJ/mol
# Density = 2.062665 g / cm^3
# Si number density = 20.673705 Si / 1000 Ang^3
#
#
#
# Elastic Constant Matrix: (Units=GPa)
#
#
# Indices 1 2 3 4 5 6 
#
# 1 202.1417 12.8182 97.6994 0.0000 0.0000 0.0000
# 2 12.8182 27.4356 -0.9583 0.0000 0.0000 0.0000
# 3 97.6994 -0.9583 139.6731 0.0000 0.0000 0.0000
# 4 0.0000 0.0000 0.0000 9.8687 0.0000 0.0000
# 5 0.0000 0.0000 0.0000 0.0000 -2.2498 0.0000
# 6 0.0000 0.0000 0.0000 0.0000 0.0000 23.8423
#
#
#
# Elastic Compliance Matrix: (Units=1/GPa)
#
#
# Indices 1 2 3 4 5 6 
#
# 1 0.007864 -0.003867 -0.005527 0.000000 0.000000 0.000000
# 2 -0.003867 0.038359 0.002968 0.000000 0.000000 0.000000
# 3 -0.005527 0.002968 0.011046 0.000000 0.000000 0.000000
# 4 0.000000 0.000000 0.000000 0.101330 0.000000 0.000000
# 5 0.000000 0.000000 0.000000 0.000000 -0.444488 0.000000
# 6 0.000000 0.000000 0.000000 0.000000 0.000000 0.041942
#
#
# Mechanical properties :
#
#
# Convention : Reuss Voigt Hill
#
# Bulk Modulus (GPa) = 22.51381 65.37435 43.94408
# Shear Modulus (GPa) = -23.11721 23.60498 0.24389
#
# Velocity S-wave (km/s) = -3.34757 3.38270 0.34384
# Velocity P-wave (km/s) = 2.00696 6.85183 4.63247
#
# Compressibility (1/GPa) = 0.04441718
#
# Stress axis : x y z
#
# Youngs Moduli (GPa) = 127.16913 26.06922 90.53064
#
# Poissons Ratio (x) = 0.10081 0.50036
# Poissons Ratio (y) = 0.49176 -0.26870
# Poissons Ratio (z) = 0.70286 -0.07738
#
# Static dielectric constant tensor:
#      x y z
#    x 1.776610 0.000000 0.000000 
#    y 0.000000 1.768070 0.000000 
#    z 0.000000 0.000000 1.684800 
# 
# From -- ./inp_files/58029.got.cif
#   From: 2010.05.17/outbox.cif.g08.bks.cpg/sg65_30_cif.got.tgz:58029.got - 2010.06.03 17:01:31.
