data_PCOD9488328
_publ_section_title
;
Structure prediction by ZEFSAII (Michael W. Deem and Ramdas Pophale) SiO2 
 PCOD9488328
Probable space group: C M M M
;
_chemical_formula_sum "Si O2"
_cell_formula_units_Z 112
_cell_length_a 15.090710
_cell_length_b 24.647402
_cell_length_c 14.491107
_cell_angle_alpha 90.000000
_cell_angle_beta 90.000000
_cell_angle_gamma 90.000000
_cell_volume 5389.920817
_symmetry_space_group_name_H-M "C M M M"
_symmetry_group_IT_number 65
_symmetry_cell_setting 'orthorhombic'
loop_
_space_group_symop_operation_xyz
x,y,z
-x,-y,z
x,-y,-z
-x,y,-z
-x,-y,-z
x,y,-z
-x,y,z
x,-y,z
1/2+x,1/2+y,z
1/2-x,1/2-y,z
1/2+x,1/2-y,-z
1/2-x,1/2+y,-z
1/2-x,1/2-y,-z
1/2+x,1/2+y,-z
1/2-x,1/2+y,z
1/2+x,1/2-y,z
loop_
_atom_site_type_symbol
_atom_site_label
_atom_site_fract_x
_atom_site_fract_y
_atom_site_fract_z
Si Si1 0.653612 0.274803 0.798514
Si Si2 0.893779 0.226428 0.398327
Si Si3 0.596577 0.167674 0.109325
Si Si4 0.099957 0.064812 0.740890
Si Si5 0.787568 0.122072 0.106644
Si Si6 0.246289 0.563007 0.610531
Si Si7 0.399605 0.852216 0.389981
O O1 0.750000 0.250000 0.786486
O O2 0.628952 0.300066 0.699438
O O3 0.597816 0.223560 0.833182
O O4 0.662519 0.320800 0.875418
O O5 0.858588 0.208975 0.500000
O O6 0.868379 0.289894 0.382429
O O7 0.000000 0.225826 0.405204
O O8 0.500000 0.141254 0.122170
O O9 0.684248 0.132949 0.132193
O O10 0.605781 0.180902 0.000000
O O11 0.160636 0.081852 0.826812
O O12 0.158284 0.078390 0.651111
O O13 0.000000 0.087612 0.742890
O O14 0.092114 0.000000 0.741459
O O15 0.791587 0.106355 0.000000
O O16 0.248884 0.565932 0.500000
O O17 0.226897 0.500000 0.635625
O O18 0.171065 0.604464 0.645508
O O19 0.406407 0.861677 0.500000
O O20 0.500000 0.857006 0.352136
#
# Coordination Sequence:
#
# PCOD9488328 Si02
#       7
#    16  16  16  16  16  16  16
#     4  10  20  32  52  82 112 147 187 226 269 317
#     4   9  18  32  48  71 109 155 195 225 261 320
#     4   9  18  34  57  85 117 149 179 217 273 340
#     4  10  23  42  61  82 109 143 187 237 288 341
#     4  10  22  40  61  86 113 141 183 237 288 337
#     4   9  18  33  55  82 112 146 184 230 282 333
#     4   8  15  28  49  78 112 152 193 227 265 321
#
# _framework density 20.779526000000001
#
# number of rings (size 3 to 8) (size 9 to 14) (size 15 to 20)
#    0.000    2.714    0.000    1.714    4.000    4.286 
#    0.000    4.286    0.000    1.286    0.000    2.000 
#    0.000    0.000    0.000    0.000    0.000    0.000 
#
# Total GULP energy -312335.432021 kJ/mol
# GULP energy per Si atom -5577.418429 kJ/mol
# Density = 2.073223 g / cm^3
# Si number density = 20.779526 Si / 1000 Ang^3
#
#
#
# Elastic Constant Matrix: (Units=GPa)
#
#
# Indices 1 2 3 4 5 6 
#
# 1 101.5284 21.6492 11.9420 0.0000 0.0000 0.0000
# 2 21.6492 22.6052 -1.8282 0.0000 0.0000 0.0000
# 3 11.9420 -1.8282 72.8080 0.0000 0.0000 0.0000
# 4 0.0000 0.0000 0.0000 24.0498 0.0000 0.0000
# 5 0.0000 0.0000 0.0000 0.0000 25.3729 0.0000
# 6 0.0000 0.0000 0.0000 0.0000 0.0000 21.5291
#
#
#
# Elastic Compliance Matrix: (Units=1/GPa)
#
#
# Indices 1 2 3 4 5 6 
#
# 1 0.012785 -0.012439 -0.002409 0.000000 0.000000 0.000000
# 2 -0.012439 0.056431 0.003457 0.000000 0.000000 0.000000
# 3 -0.002409 0.003457 0.014217 0.000000 0.000000 0.000000
# 4 0.000000 0.000000 0.000000 0.041580 0.000000 0.000000
# 5 0.000000 0.000000 0.000000 0.000000 0.039412 0.000000
# 6 0.000000 0.000000 0.000000 0.000000 0.000000 0.046449
#
#
# Mechanical properties :
#
#
# Convention : Reuss Voigt Hill
#
# Bulk Modulus (GPa) = 16.48821 28.94086 22.71453
# Shear Modulus (GPa) = 19.69484 25.20227 22.44856
#
# Velocity S-wave (km/s) = 3.08198 3.48637 3.29039
# Velocity P-wave (km/s) = 4.54058 5.49219 5.03890
#
# Compressibility (1/GPa) = 0.06064940
#
# Stress axis : x y z
#
# Youngs Moduli (GPa) = 78.21436 17.72091 70.33952
#
# Poissons Ratio (x) = 0.22044 0.16948
# Poissons Ratio (y) = 0.97295 -0.24318
# Poissons Ratio (z) = 0.18845 -0.06127
#
# Static dielectric constant tensor:
#      x y z
#    x 1.759300 0.000000 0.000000 
#    y 0.000000 1.762160 0.000000 
#    z 0.000000 0.000000 1.765440 
# 
# From -- ./inp_files/40844.got.cif
#   From: 2010.05.17/outbox.cif.g08.bks.cpg/sg65_21_cif.got.tgz:40844.got - 2010.06.03 17:01:31.
