data_PCOD9488447
_publ_section_title
;
Structure prediction by ZEFSAII (Michael W. Deem and Ramdas Pophale) SiO2 
 PCOD9488447
Probable space group: C M M M
;
_chemical_formula_sum "Si O2"
_cell_formula_units_Z 80
_cell_length_a 18.502189
_cell_length_b 9.546012
_cell_length_c 26.733458
_cell_angle_alpha 90.000000
_cell_angle_beta 90.000000
_cell_angle_gamma 90.000000
_cell_volume 4721.719979
_symmetry_space_group_name_H-M "C M M M"
_symmetry_group_IT_number 65
_symmetry_cell_setting 'orthorhombic'
loop_
_space_group_symop_operation_xyz
x,y,z
-x,-y,z
x,-y,-z
-x,y,-z
-x,-y,-z
x,y,-z
-x,y,z
x,-y,z
1/2+x,1/2+y,z
1/2-x,1/2-y,z
1/2+x,1/2-y,-z
1/2-x,1/2+y,-z
1/2-x,1/2-y,-z
1/2+x,1/2+y,-z
1/2-x,1/2+y,z
1/2+x,1/2-y,z
loop_
_atom_site_type_symbol
_atom_site_label
_atom_site_fract_x
_atom_site_fract_y
_atom_site_fract_z
Si Si1 0.911869 0.838210 0.095875
Si Si2 0.824536 0.831762 0.697092
Si Si3 0.585885 0.664735 0.403172
Si Si4 0.088298 0.661077 0.000000
Si Si5 0.416965 0.670405 0.793352
Si Si6 0.588075 0.838907 0.500000
O O1 0.890342 0.787601 0.151331
O O2 0.000000 0.838611 0.096510
O O3 0.889540 0.000000 0.088573
O O4 0.888270 0.742397 0.049945
O O5 0.750000 0.750000 0.693882
O O6 0.872283 0.803888 0.647838
O O7 0.867735 0.787824 0.746997
O O8 0.813153 0.000000 0.699563
O O9 0.500000 0.686961 0.395562
O O10 0.595696 0.500000 0.415084
O O11 0.610662 0.757945 0.449884
O O12 0.111209 0.500000 0.000000
O O13 0.000000 0.663065 0.000000
O O14 0.500000 0.717272 0.786392
O O15 0.418713 0.500000 0.794231
O O16 0.500000 0.836467 0.500000
O O17 0.611467 0.000000 0.500000
#
# Coordination Sequence:
#
# PCOD9488447 Si02
#       6
#    16  16  16   8  16   8
#     4   8  13  22  38  59  82 110 146 185 221 260
#     4  10  20  33  49  70  96 124 154 190 233 277
#     4   9  17  31  52  74  95 123 159 193 223 264
#     4   9  15  21  31  53  88 121 142 169 219 277
#     4   8  14  27  48  70  89 115 156 198 228 262
#     4   9  17  29  48  75 102 123 147 187 236 277
#
# _framework density 16.942978
#
# number of rings (size 3 to 8) (size 9 to 14) (size 15 to 20)
#    0.000    3.200    0.000    2.400    0.000    5.600 
#    0.000    1.500    0.000    3.000    0.000    0.700 
#    0.000    0.000    0.000    0.000    0.000    0.000 
#
# Total GULP energy -222788.400727 kJ/mol
# GULP energy per Si atom -5569.710018 kJ/mol
# Density = 1.690442 g / cm^3
# Si number density = 16.942978 Si / 1000 Ang^3
#
#
#
# Elastic Constant Matrix: (Units=GPa)
#
#
# Indices 1 2 3 4 5 6 
#
# 1 42.0784 36.4573 59.2349 0.0000 0.0000 0.0000
# 2 36.4573 70.1786 93.2686 0.0000 0.0000 0.0000
# 3 59.2349 93.2686 201.7452 0.0000 0.0000 0.0000
# 4 0.0000 0.0000 0.0000 9.2973 0.0000 0.0000
# 5 0.0000 0.0000 0.0000 0.0000 -4.0124 0.0000
# 6 0.0000 0.0000 0.0000 0.0000 0.0000 18.7690
#
#
#
# Elastic Compliance Matrix: (Units=1/GPa)
#
#
# Indices 1 2 3 4 5 6 
#
# 1 0.046201 -0.015490 -0.006404 0.000000 0.000000 0.000000
# 2 -0.015490 0.042149 -0.014938 0.000000 0.000000 0.000000
# 3 -0.006404 -0.014938 0.013743 0.000000 0.000000 0.000000
# 4 0.000000 0.000000 0.000000 0.107558 0.000000 0.000000
# 5 0.000000 0.000000 0.000000 0.000000 -0.249229 0.000000
# 6 0.000000 0.000000 0.000000 0.000000 0.000000 0.053279
#
#
# Mechanical properties :
#
#
# Convention : Reuss Voigt Hill
#
# Bulk Modulus (GPa) = 35.17515 76.88044 56.02779
# Shear Modulus (GPa) = 51.63061 13.14687 32.38874
#
# Velocity S-wave (km/s) = 5.52624 2.78861 4.37696
# Velocity P-wave (km/s) = 7.84379 7.47281 7.66055
#
# Compressibility (1/GPa) = 0.02842916
#
# Stress axis : x y z
#
# Youngs Moduli (GPa) = 21.64445 23.72538 72.76505
#
# Poissons Ratio (x) = 0.36751 0.46598
# Poissons Ratio (y) = 0.33528 1.08694
# Poissons Ratio (z) = 0.13861 0.35440
#
# Static dielectric constant tensor:
#      x y z
#    x 1.543040 0.000000 0.000000 
#    y 0.000000 1.562120 0.000000 
#    z 0.000000 0.000000 1.580210 
# 
# From -- ./inp_files/70817.got.cif
#   From: 2010.05.17/outbox.cif.g08.bks.cpg/sg65_36_cif.got.tgz:70817.got - 2010.06.03 17:01:31.
