data_PCOD9488010
_publ_section_title
;
Structure prediction by ZEFSAII (Michael W. Deem and Ramdas Pophale) SiO2 
 PCOD9488010
Probable space group: C M M M
;
_chemical_formula_sum "Si O2"
_cell_formula_units_Z 88
_cell_length_a 14.894942
_cell_length_b 8.968349
_cell_length_c 30.539497
_cell_angle_alpha 90.000000
_cell_angle_beta 90.000000
_cell_angle_gamma 90.000000
_cell_volume 4079.558794
_symmetry_space_group_name_H-M "C M M M"
_symmetry_group_IT_number 65
_symmetry_cell_setting 'orthorhombic'
loop_
_space_group_symop_operation_xyz
x,y,z
-x,-y,z
x,-y,-z
-x,y,-z
-x,-y,-z
x,y,-z
-x,y,z
x,-y,z
1/2+x,1/2+y,z
1/2-x,1/2-y,z
1/2+x,1/2-y,-z
1/2-x,1/2+y,-z
1/2-x,1/2-y,-z
1/2+x,1/2+y,-z
1/2-x,1/2+y,z
1/2+x,1/2-y,z
loop_
_atom_site_type_symbol
_atom_site_label
_atom_site_fract_x
_atom_site_fract_y
_atom_site_fract_z
Si Si1 0.347976 0.322289 0.769666
Si Si2 0.110244 0.173192 0.594784
Si Si3 0.649929 0.178700 0.048140
Si Si4 0.649603 0.679243 0.865140
Si Si5 0.105564 0.335990 0.681217
Si Si6 0.605908 0.681336 0.500000
O O1 0.342997 0.500000 0.767091
O O2 0.250000 0.250000 0.770873
O O3 0.391057 0.286638 0.817207
O O4 0.388497 0.259303 0.725249
O O5 0.142506 0.260591 0.637383
O O6 0.140984 0.233121 0.547236
O O7 0.000000 0.175691 0.594098
O O8 0.135674 0.000000 0.598746
O O9 0.750000 0.250000 0.046429
O O10 0.606817 0.250449 0.091358
O O11 0.656042 0.000000 0.053368
O O12 0.609292 0.208414 0.000000
O O13 0.654909 0.500000 0.869706
O O14 0.750000 0.750000 0.863658
O O15 0.145666 0.500000 0.688633
O O16 0.000000 0.351708 0.672685
O O17 0.612163 0.500000 0.500000
O O18 0.500000 0.717718 0.500000
#
# Coordination Sequence:
#
# PCOD9488010 Si02
#       6
#    16  16  16  16  16   8
#     4  10  20  33  49  68  90 119 155 192 230 272
#     4   8  13  23  40  61  86 116 148 182 221 264
#     4   9  15  21  31  49  74 105 138 170 208 255
#     4   9  16  25  38  56  78 106 140 177 217 260
#     4  10  20  32  46  67  95 124 154 189 228 268
#     4   7  10  18  35  59  84 111 144 179 216 261
#
# _framework density 21.570961
#
# number of rings (size 3 to 8) (size 9 to 14) (size 15 to 20)
#    0.000    3.000    0.000    4.364    0.000    4.364 
#    0.000    0.455    0.000    2.727    0.000    0.636 
#    0.000    0.727    0.000    8.000    0.000    8.909 
#
# Total GULP energy -245115.517778 kJ/mol
# GULP energy per Si atom -5570.807222 kJ/mol
# Density = 2.152186 g / cm^3
# Si number density = 21.570961 Si / 1000 Ang^3
#
#
#
# Elastic Constant Matrix: (Units=GPa)
#
#
# Indices 1 2 3 4 5 6 
#
# 1 45.9029 5.0389 14.9874 0.0000 0.0000 0.0000
# 2 5.0389 101.5067 97.8099 0.0000 0.0000 0.0000
# 3 14.9874 97.8099 271.0263 0.0000 0.0000 0.0000
# 4 0.0000 0.0000 0.0000 35.0763 0.0000 0.0000
# 5 0.0000 0.0000 0.0000 0.0000 44.7122 0.0000
# 6 0.0000 0.0000 0.0000 0.0000 0.0000 4.4785
#
#
#
# Elastic Compliance Matrix: (Units=1/GPa)
#
#
# Indices 1 2 3 4 5 6 
#
# 1 0.022187 0.000124 -0.001272 0.000000 0.000000 0.000000
# 2 0.000124 0.015105 -0.005458 0.000000 0.000000 0.000000
# 3 -0.001272 -0.005458 0.005730 0.000000 0.000000 0.000000
# 4 0.000000 0.000000 0.000000 0.028509 0.000000 0.000000
# 5 0.000000 0.000000 0.000000 0.000000 0.022365 0.000000
# 6 0.000000 0.000000 0.000000 0.000000 0.000000 0.223290
#
#
# Mechanical properties :
#
#
# Convention : Reuss Voigt Hill
#
# Bulk Modulus (GPa) = 33.54607 72.67872 53.11239
# Shear Modulus (GPa) = 14.69148 36.89336 25.79242
#
# Velocity S-wave (km/s) = 2.61258 4.14009 3.46164
# Velocity P-wave (km/s) = 4.96850 7.52462 6.37596
#
# Compressibility (1/GPa) = 0.02980975
#
# Stress axis : x y z
#
# Youngs Moduli (GPa) = 45.07209 66.20533 174.52982
#
# Poissons Ratio (x) = -0.00821 0.22194
# Poissons Ratio (y) = -0.00559 0.95256
# Poissons Ratio (z) = 0.05731 0.36134
#
# Static dielectric constant tensor:
#      x y z
#    x 1.881870 0.000000 0.000000 
#    y 0.000000 1.743890 0.000000 
#    z 0.000000 0.000000 1.864930 
# 
# From -- ./inp_files/78107.got.cif
#   From: 2010.05.17/outbox.cif.g08.bks.cpg/sg65_40_cif.got.tgz:78107.got - 2010.06.03 17:01:31.
