data_PCOD9488283
_publ_section_title
;
Structure prediction by ZEFSAII (Michael W. Deem and Ramdas Pophale) SiO2 
 PCOD9488283
Probable space group: C M M M
;
_chemical_formula_sum "Si O2"
_cell_formula_units_Z 88
_cell_length_a 14.646941
_cell_length_b 27.677526
_cell_length_c 13.444959
_cell_angle_alpha 90.000000
_cell_angle_beta 90.000000
_cell_angle_gamma 90.000000
_cell_volume 5450.466589
_symmetry_space_group_name_H-M "C M M M"
_symmetry_group_IT_number 65
_symmetry_cell_setting 'orthorhombic'
loop_
_space_group_symop_operation_xyz
x,y,z
-x,-y,z
x,-y,-z
-x,y,-z
-x,-y,-z
x,y,-z
-x,y,z
x,-y,z
1/2+x,1/2+y,z
1/2-x,1/2-y,z
1/2+x,1/2-y,-z
1/2-x,1/2+y,-z
1/2-x,1/2-y,-z
1/2+x,1/2+y,-z
1/2-x,1/2+y,z
1/2+x,1/2-y,z
loop_
_atom_site_type_symbol
_atom_site_label
_atom_site_fract_x
_atom_site_fract_y
_atom_site_fract_z
Si Si1 0.188228 0.702112 0.791247
Si Si2 0.609803 0.139859 0.616908
Si Si3 0.198325 0.113909 0.118621
Si Si4 0.500000 0.349133 0.119829
Si Si5 0.000000 0.558526 0.111328
Si Si6 0.500000 0.761509 0.118907
Si Si7 0.670501 0.056975 0.751862
O O1 0.250000 0.750000 0.783751
O O2 0.160408 0.679361 0.685044
O O3 0.244110 0.661906 0.853246
O O4 0.092466 0.713852 0.843972
O O5 0.624403 0.146909 0.500000
O O6 0.500000 0.140602 0.634944
O O7 0.651096 0.088910 0.654910
O O8 0.239535 0.072144 0.187955
O O9 0.093456 0.124300 0.146029
O O10 0.206016 0.104148 0.000000
O O11 0.500000 0.294003 0.156622
O O12 0.500000 0.346014 0.000000
O O13 0.910841 0.571930 0.172536
O O14 0.000000 0.500000 0.105219
O O15 0.000000 0.578394 0.000000
O O16 0.500000 0.761363 0.000000
O O17 0.665870 0.000000 0.733193
#
# Coordination Sequence:
#
# PCOD9488283 Si02
#       7
#    16  16  16   8   8   8  16
#     4  11  21  34  53  79 107 143 179 211 254 307
#     4  10  21  37  54  75 103 133 171 223 274 315
#     4  10  20  32  50  76 108 142 176 213 251 300
#     4   9  18  32  48  72 104 141 180 213 247 289
#     4   9  16  27  45  70 102 133 160 194 241 302
#     4  11  20  31  50  78 113 145 177 209 245 298
#     4  10  20  34  51  75 101 134 174 211 262 318
#
# _framework density 16.145406000000001
#
# number of rings (size 3 to 8) (size 9 to 14) (size 15 to 20)
#    0.000    1.909    3.636    1.091    0.000    2.545 
#    0.000    4.091    0.000    1.636    0.000    5.727 
#    0.000    5.818    0.000    0.000    0.000    0.000 
#
# Total GULP energy -245412.536452 kJ/mol
# GULP energy per Si atom -5577.557647 kJ/mol
# Density = 1.610866 g / cm^3
# Si number density = 16.145406 Si / 1000 Ang^3
#
#
#
# Elastic Constant Matrix: (Units=GPa)
#
#
# Indices 1 2 3 4 5 6 
#
# 1 115.2025 22.1485 28.6659 0.0000 0.0000 0.0000
# 2 22.1485 57.4670 19.5051 0.0000 0.0000 0.0000
# 3 28.6659 19.5051 78.5695 0.0000 0.0000 0.0000
# 4 0.0000 0.0000 0.0000 15.9038 0.0000 0.0000
# 5 0.0000 0.0000 0.0000 0.0000 11.8661 0.0000
# 6 0.0000 0.0000 0.0000 0.0000 0.0000 19.6945
#
#
#
# Elastic Compliance Matrix: (Units=1/GPa)
#
#
# Indices 1 2 3 4 5 6 
#
# 1 0.009955 -0.002844 -0.002926 0.000000 0.000000 0.000000
# 2 -0.002844 0.019815 -0.003882 0.000000 0.000000 0.000000
# 3 -0.002926 -0.003882 0.014759 0.000000 0.000000 0.000000
# 4 0.000000 0.000000 0.000000 0.062878 0.000000 0.000000
# 5 0.000000 0.000000 0.000000 0.000000 0.084273 0.000000
# 6 0.000000 0.000000 0.000000 0.000000 0.000000 0.050776
#
#
# Mechanical properties :
#
#
# Convention : Reuss Voigt Hill
#
# Bulk Modulus (GPa) = 39.64175 43.54198 41.59187
# Shear Modulus (GPa) = 18.50703 21.55417 20.03060
#
# Velocity S-wave (km/s) = 3.38934 3.65773 3.52609
# Velocity P-wave (km/s) = 6.31847 6.69820 6.51110
#
# Compressibility (1/GPa) = 0.02522593
#
# Stress axis : x y z
#
# Youngs Moduli (GPa) = 100.44997 50.46752 67.75614
#
# Poissons Ratio (x) = 0.14351 0.19827
# Poissons Ratio (y) = 0.28565 0.26300
# Poissons Ratio (z) = 0.29394 0.19589
#
# Static dielectric constant tensor:
#      x y z
#    x 1.548130 0.000000 0.000000 
#    y 0.000000 1.551510 0.000000 
#    z 0.000000 0.000000 1.519840 
# 
# From -- ./inp_files/25180.got.cif
#   From: 2010.05.17/outbox.cif.g08.bks.cpg/sg65_13_cif.got.tgz:25180.got - 2010.06.03 17:01:31.
