data_PCOD9488912
_publ_section_title
;
Structure prediction by ZEFSAII (Michael W. Deem and Ramdas Pophale) SiO2 
 PCOD9488912
Probable space group: C M M M
;
_chemical_formula_sum "Si O2"
_cell_formula_units_Z 80
_cell_length_a 17.712334
_cell_length_b 27.775147
_cell_length_c 7.536063
_cell_angle_alpha 90.000000
_cell_angle_beta 90.000000
_cell_angle_gamma 90.000000
_cell_volume 3707.461754
_symmetry_space_group_name_H-M "C M M M"
_symmetry_group_IT_number 65
_symmetry_cell_setting 'orthorhombic'
loop_
_space_group_symop_operation_xyz
x,y,z
-x,-y,z
x,-y,-z
-x,y,-z
-x,-y,-z
x,y,-z
-x,y,z
x,-y,z
1/2+x,1/2+y,z
1/2-x,1/2-y,z
1/2+x,1/2-y,-z
1/2-x,1/2+y,-z
1/2-x,1/2-y,-z
1/2+x,1/2+y,-z
1/2-x,1/2+y,z
1/2+x,1/2-y,z
loop_
_atom_site_type_symbol
_atom_site_label
_atom_site_fract_x
_atom_site_fract_y
_atom_site_fract_z
Si Si1 0.413262 0.500000 0.782210
Si Si2 0.913077 0.709031 0.285823
Si Si3 0.815897 0.909830 0.209938
Si Si4 0.000000 0.556004 0.217182
Si Si5 0.150619 0.391710 0.791271
Si Si6 0.586427 0.682913 0.714098
O O1 0.500000 0.500000 0.724235
O O2 0.368508 0.547356 0.721058
O O3 0.414712 0.500000 0.000000
O O4 0.912712 0.708807 0.500000
O O5 0.861136 0.665508 0.225336
O O6 0.892174 0.763009 0.227278
O O7 0.000000 0.699993 0.228547
O O8 0.731169 0.907530 0.284832
O O9 0.857545 0.858932 0.230760
O O10 0.808653 0.918797 0.000000
O O11 0.924202 0.582489 0.281707
O O12 0.000000 0.500000 0.265094
O O13 0.000000 0.558752 0.000000
O O14 0.151913 0.403444 0.000000
O O15 0.585291 0.683590 0.500000
O O16 0.500000 0.673403 0.773425
#
# Coordination Sequence:
#
# PCOD9488912 Si02
#       6
#     8  16  16   8  16  16
#     4   9  18  34  55  76 104 139 172 209 261 315
#     4   9  18  34  55  76 102 140 179 215 259 312
#     4  10  21  34  52  80 109 136 171 218 263 308
#     4   9  18  32  53  77 105 143 179 212 259 312
#     4  10  20  33  52  80 109 137 174 217 260 308
#     4   9  19  36  56  77 103 138 179 217 259 313
#
# _framework density 21.578104
#
# number of rings (size 3 to 8) (size 9 to 14) (size 15 to 20)
#    0.000    2.600    1.000    1.800    1.400    3.600 
#    0.000    6.500    0.000    3.000    0.000    0.000 
#    0.000    0.000    0.000    0.000    0.000    0.000 
#
# Total GULP energy -223367.095461 kJ/mol
# GULP energy per Si atom -5584.177387 kJ/mol
# Density = 2.152899 g / cm^3
# Si number density = 21.578104 Si / 1000 Ang^3
#
#
#
# Elastic Constant Matrix: (Units=GPa)
#
#
# Indices 1 2 3 4 5 6 
#
# 1 207.1343 123.3323 8.9318 0.0000 0.0000 0.0000
# 2 123.3323 149.0226 -5.2284 0.0000 0.0000 0.0000
# 3 8.9318 -5.2284 51.8410 0.0000 0.0000 0.0000
# 4 0.0000 0.0000 0.0000 33.6911 0.0000 0.0000
# 5 0.0000 0.0000 0.0000 0.0000 4.4516 0.0000
# 6 0.0000 0.0000 0.0000 0.0000 0.0000 17.8392
#
#
#
# Elastic Compliance Matrix: (Units=1/GPa)
#
#
# Indices 1 2 3 4 5 6 
#
# 1 0.009837 -0.008229 -0.002525 0.000000 0.000000 0.000000
# 2 -0.008229 0.013619 0.002791 0.000000 0.000000 0.000000
# 3 -0.002525 0.002791 0.020006 0.000000 0.000000 0.000000
# 4 0.000000 0.000000 0.000000 0.029681 0.000000 0.000000
# 5 0.000000 0.000000 0.000000 0.000000 0.224638 0.000000
# 6 0.000000 0.000000 0.000000 0.000000 0.000000 0.056056
#
#
# Mechanical properties :
#
#
# Convention : Reuss Voigt Hill
#
# Bulk Modulus (GPa) = 36.31552 73.56323 54.93937
# Shear Modulus (GPa) = 13.19461 29.92720 21.56090
#
# Velocity S-wave (km/s) = 2.47550 3.72818 3.16445
# Velocity P-wave (km/s) = 5.00371 7.25934 6.23439
#
# Compressibility (1/GPa) = 0.02753644
#
# Stress axis : x y z
#
# Youngs Moduli (GPa) = 101.66038 73.42616 49.98429
#
# Poissons Ratio (x) = 0.60426 0.12620
# Poissons Ratio (y) = 0.83661 -0.13953
# Poissons Ratio (z) = 0.25667 -0.20496
#
# Static dielectric constant tensor:
#      x y z
#    x 1.770170 0.000000 0.000000 
#    y 0.000000 1.747740 0.000000 
#    z 0.000000 0.000000 1.820000 
# 
# From -- ./inp_files/9686.got.cif
#   From: 2010.05.17/outbox.cif.g08.bks.cpg/sg65_5_cif.got.tgz:9686.got - 2010.06.03 17:01:31.
