data_PCOD9488993
_publ_section_title
;
Structure prediction by ZEFSAII (Michael W. Deem and Ramdas Pophale) SiO2 
 PCOD9488993
Probable space group: C M M M
;
_chemical_formula_sum "Si O2"
_cell_formula_units_Z 64
_cell_length_a 10.551930
_cell_length_b 19.725480
_cell_length_c 15.739597
_cell_angle_alpha 90.000000
_cell_angle_beta 90.000000
_cell_angle_gamma 90.000000
_cell_volume 3276.069376
_symmetry_space_group_name_H-M "C M M M"
_symmetry_group_IT_number 65
_symmetry_cell_setting 'orthorhombic'
loop_
_space_group_symop_operation_xyz
x,y,z
-x,-y,z
x,-y,-z
-x,y,-z
-x,-y,-z
x,y,-z
-x,y,z
x,-y,z
1/2+x,1/2+y,z
1/2-x,1/2-y,z
1/2+x,1/2-y,-z
1/2-x,1/2+y,-z
1/2-x,1/2-y,-z
1/2+x,1/2+y,-z
1/2-x,1/2+y,z
1/2+x,1/2-y,z
loop_
_atom_site_type_symbol
_atom_site_label
_atom_site_fract_x
_atom_site_fract_y
_atom_site_fract_z
Si Si1 0.355227 0.581505 0.138866
Si Si2 0.850796 0.417166 0.000000
Si Si3 0.868090 0.788051 0.400195
Si Si4 0.774992 0.079805 0.333347
Si Si5 0.000000 0.418404 0.402918
O O1 0.500000 0.606678 0.121529
O O2 0.361480 0.500000 0.126590
O O3 0.317572 0.592479 0.236810
O O4 0.238174 0.604401 0.079646
O O5 0.856206 0.500000 0.000000
O O6 0.000000 0.395288 0.000000
O O7 0.870672 0.771876 0.500000
O O8 0.750000 0.750000 0.360409
O O9 0.852315 0.868200 0.390455
O O10 0.000000 0.765406 0.361275
O O11 0.628493 0.097388 0.353146
O O12 0.794211 0.000000 0.351858
O O13 0.000000 0.500000 0.410556
O O14 0.000000 0.390687 0.500000
#
# Coordination Sequence:
#
# PCOD9488993 Si02
#       5
#    16   8  16  16   8
#     4   9  17  29  46  70 102 137 172 215 268 322
#     4   9  17  27  43  67 102 141 174 207 255 322
#     4  10  22  38  55  76 105 142 181 222 270 324
#     4  10  20  33  54  80 107 138 181 229 274 320
#     4   9  18  30  46  73 107 139 170 215 275 325
#
# _framework density 19.535605
#
# number of rings (size 3 to 8) (size 9 to 14) (size 15 to 20)
#    0.000    2.500    0.000    1.875    3.500    4.500 
#    0.000    1.250    0.000    0.000    0.000    0.875 
#    0.000    0.000    0.000    0.000    0.000    0.000 
#
# Total GULP energy -178205.578943 kJ/mol
# GULP energy per Si atom -5568.924342 kJ/mol
# Density = 1.949114 g / cm^3
# Si number density = 19.535605 Si / 1000 Ang^3
#
#
#
# Elastic Constant Matrix: (Units=GPa)
#
#
# Indices 1 2 3 4 5 6 
#
# 1 218.9403 31.0297 49.2721 0.0000 0.0000 0.0000
# 2 31.0297 39.1550 2.6650 0.0000 0.0000 0.0000
# 3 49.2721 2.6650 34.6877 0.0000 0.0000 0.0000
# 4 0.0000 0.0000 0.0000 -1.0124 0.0000 0.0000
# 5 0.0000 0.0000 0.0000 0.0000 20.1645 0.0000
# 6 0.0000 0.0000 0.0000 0.0000 0.0000 8.3103
#
#
#
# Elastic Compliance Matrix: (Units=1/GPa)
#
#
# Indices 1 2 3 4 5 6 
#
# 1 0.007699 -0.005385 -0.010522 0.000000 0.000000 0.000000
# 2 -0.005385 0.029440 0.005387 0.000000 0.000000 0.000000
# 3 -0.010522 0.005387 0.043360 0.000000 0.000000 0.000000
# 4 0.000000 0.000000 0.000000 -0.987782 0.000000 0.000000
# 5 0.000000 0.000000 0.000000 0.000000 0.049592 0.000000
# 6 0.000000 0.000000 0.000000 0.000000 0.000000 0.120332
#
#
# Mechanical properties :
#
#
# Convention : Reuss Voigt Hill
#
# Bulk Modulus (GPa) = 16.81798 50.96852 33.89325
# Shear Modulus (GPa) = -7.17875 19.48023 6.15074
#
# Velocity S-wave (km/s) = -1.91903 3.16122 1.77632
# Velocity P-wave (km/s) = 1.92804 6.28260 4.64696
#
# Compressibility (1/GPa) = 0.05946019
#
# Stress axis : x y z
#
# Youngs Moduli (GPa) = 129.89538 33.96706 23.06263
#
# Poissons Ratio (x) = 0.18291 0.24266
# Poissons Ratio (y) = 0.69946 -0.12424
# Poissons Ratio (z) = 1.36671 -0.18298
#
# Static dielectric constant tensor:
#      x y z
#    x 2.157370 0.000000 0.000000 
#    y 0.000000 1.682990 0.000000 
#    z 0.000000 0.000000 1.681080 
# 
# From -- ./inp_files/49130.got.cif
#   From: 2010.05.17/outbox.cif.g08.bks.cpg/sg65_25_cif.got.tgz:49130.got - 2010.06.03 17:01:31.
