data_PCOD9488477
_publ_section_title
;
Structure prediction by ZEFSAII (Michael W. Deem and Ramdas Pophale) SiO2 
 PCOD9488477
Probable space group: C M M M
;
_chemical_formula_sum "Si O2"
_cell_formula_units_Z 104
_cell_length_a 34.445776
_cell_length_b 9.545878
_cell_length_c 14.314561
_cell_angle_alpha 90.000000
_cell_angle_beta 90.000000
_cell_angle_gamma 90.000000
_cell_volume 4706.844885
_symmetry_space_group_name_H-M "C M M M"
_symmetry_group_IT_number 65
_symmetry_cell_setting 'orthorhombic'
loop_
_space_group_symop_operation_xyz
x,y,z
-x,-y,z
x,-y,-z
-x,y,-z
-x,-y,-z
x,y,-z
-x,y,z
x,-y,z
1/2+x,1/2+y,z
1/2-x,1/2-y,z
1/2+x,1/2-y,-z
1/2-x,1/2+y,-z
1/2-x,1/2-y,-z
1/2+x,1/2+y,-z
1/2-x,1/2+y,z
1/2+x,1/2-y,z
loop_
_atom_site_type_symbol
_atom_site_label
_atom_site_fract_x
_atom_site_fract_y
_atom_site_fract_z
Si Si1 0.711782 0.838960 0.142514
Si Si2 0.928102 0.657707 0.614783
Si Si3 0.000000 0.842852 0.613899
Si Si4 0.044554 0.836289 0.113867
Si Si5 0.378124 0.161166 0.112271
Si Si6 0.713980 0.839531 0.633972
Si Si7 0.139491 0.843995 0.391840
O O1 0.750000 0.750000 0.109999
O O2 0.666882 0.786206 0.128190
O O3 0.715929 0.845929 0.254095
O O4 0.713454 0.000000 0.106986
O O5 0.927468 0.650784 0.500000
O O6 0.931886 0.500000 0.647593
O O7 0.890597 0.736643 0.651572
O O8 0.963048 0.756009 0.642473
O O9 0.000000 0.848370 0.500000
O O10 0.000000 0.000000 0.648521
O O11 0.083128 0.747833 0.142687
O O12 0.000000 0.792347 0.142340
O O13 0.049371 0.000000 0.141117
O O14 0.044202 0.832097 0.000000
O O15 0.379423 0.000000 0.148352
O O16 0.381293 0.155684 0.000000
O O17 0.750000 0.750000 0.600383
O O18 0.678475 0.741857 0.608448
O O19 0.711531 0.000000 0.601446
O O20 0.127334 0.861324 0.500000
O O21 0.141917 0.000000 0.350795
#
# Coordination Sequence:
#
# PCOD9488477 Si02
#       7
#    16  16   8  16  16  16  16
#     4   9  19  34  50  70  96 127 164 204 242 286
#     4   9  16  26  41  63  91 121 152 185 224 273
#     4   9  15  23  37  59  89 123 155 187 224 267
#     4   8  14  25  41  64  96 130 163 200 240 283
#     4   9  17  29  46  71 102 132 164 202 243 286
#     4  10  20  35  53  70  91 121 157 196 235 284
#     4  10  20  33  49  71  97 121 149 190 240 291
#
# _framework density 22.095482000000001
#
# number of rings (size 3 to 8) (size 9 to 14) (size 15 to 20)
#    0.000    2.846    0.000    2.077    0.000    5.846 
#    0.000    1.538    0.000    0.000    2.000    0.000 
#    0.000    0.000    0.000    0.000    0.000    0.000 
#
# Total GULP energy -289843.094526 kJ/mol
# GULP energy per Si atom -5573.905664 kJ/mol
# Density = 2.204519 g / cm^3
# Si number density = 22.095482 Si / 1000 Ang^3
#
#
#
# Elastic Constant Matrix: (Units=GPa)
#
#
# Indices 1 2 3 4 5 6 
#
# 1 235.5933 115.3068 -1.8046 0.0000 0.0000 0.0000
# 2 115.3068 197.7930 -1.2499 0.0000 0.0000 0.0000
# 3 -1.8046 -1.2499 65.2661 0.0000 0.0000 0.0000
# 4 0.0000 0.0000 0.0000 4.6192 0.0000 0.0000
# 5 0.0000 0.0000 0.0000 0.0000 19.6287 0.0000
# 6 0.0000 0.0000 0.0000 0.0000 0.0000 32.7813
#
#
#
# Elastic Compliance Matrix: (Units=1/GPa)
#
#
# Indices 1 2 3 4 5 6 
#
# 1 0.005940 -0.003462 0.000098 0.000000 0.000000 0.000000
# 2 -0.003462 0.007074 0.000040 0.000000 0.000000 0.000000
# 3 0.000098 0.000040 0.015325 0.000000 0.000000 0.000000
# 4 0.000000 0.000000 0.000000 0.216486 0.000000 0.000000
# 5 0.000000 0.000000 0.000000 0.000000 0.050946 0.000000
# 6 0.000000 0.000000 0.000000 0.000000 0.000000 0.030505
#
#
# Mechanical properties :
#
#
# Convention : Reuss Voigt Hill
#
# Bulk Modulus (GPa) = 46.10276 80.35078 63.22677
# Shear Modulus (GPa) = 14.69917 37.16585 25.93251
#
# Velocity S-wave (km/s) = 2.58206 4.10574 3.42958
# Velocity P-wave (km/s) = 5.45893 7.67596 6.66034
#
# Compressibility (1/GPa) = 0.02169067
#
# Stress axis : x y z
#
# Youngs Moduli (GPa) = 168.35545 141.35613 65.25135
#
# Poissons Ratio (x) = 0.48939 -0.00639
# Poissons Ratio (y) = 0.58286 -0.00259
# Poissons Ratio (z) = -0.01649 -0.00562
#
# Static dielectric constant tensor:
#      x y z
#    x 1.747370 0.000000 0.000000 
#    y 0.000000 1.779720 0.000000 
#    z 0.000000 0.000000 1.632770 
# 
# From -- ./inp_files/66356.got.cif
#   From: 2010.05.17/outbox.cif.g08.bks.cpg/sg65_34_cif.got.tgz:66356.got - 2010.06.03 17:01:31.
