data_PCOD9488084
_publ_section_title
;
Structure prediction by ZEFSAII (Michael W. Deem and Ramdas Pophale) SiO2 
 PCOD9488084
Probable space group: C M M M
;
_chemical_formula_sum "Si O2"
_cell_formula_units_Z 104
_cell_length_a 7.533223
_cell_length_b 19.504971
_cell_length_c 34.659174
_cell_angle_alpha 90.000000
_cell_angle_beta 90.000000
_cell_angle_gamma 90.000000
_cell_volume 5092.655996
_symmetry_space_group_name_H-M "C M M M"
_symmetry_group_IT_number 65
_symmetry_cell_setting 'orthorhombic'
loop_
_space_group_symop_operation_xyz
x,y,z
-x,-y,z
x,-y,-z
-x,y,-z
-x,-y,-z
x,y,-z
-x,y,z
x,-y,z
1/2+x,1/2+y,z
1/2-x,1/2-y,z
1/2+x,1/2-y,-z
1/2-x,1/2+y,-z
1/2-x,1/2-y,-z
1/2+x,1/2+y,-z
1/2-x,1/2+y,z
1/2+x,1/2-y,z
loop_
_atom_site_type_symbol
_atom_site_label
_atom_site_fract_x
_atom_site_fract_y
_atom_site_fract_z
Si Si1 0.212967 0.829619 0.842025
Si Si2 0.213074 0.669526 0.385262
Si Si3 0.216495 0.578618 0.456216
Si Si4 0.787129 0.170136 0.928464
Si Si5 0.782328 0.079158 0.000000
Si Si6 0.286699 0.421959 0.227858
Si Si7 0.787576 0.421577 0.314413
O O1 0.250000 0.750000 0.834414
O O2 0.280918 0.845281 0.885240
O O3 0.281739 0.876060 0.807218
O O4 0.000000 0.838215 0.843288
O O5 0.250000 0.750000 0.384378
O O6 0.278626 0.631570 0.423922
O O7 0.280295 0.628729 0.347630
O O8 0.000000 0.662371 0.385424
O O9 0.273466 0.594422 0.500000
O O10 0.267840 0.500000 0.447052
O O11 0.000000 0.579587 0.456348
O O12 0.750000 0.250000 0.937113
O O13 0.722190 0.120265 0.962032
O O14 0.000000 0.162912 0.927320
O O15 0.000000 0.080057 0.000000
O O16 0.727869 0.000000 0.000000
O O17 0.500000 0.424232 0.224632
O O18 0.219511 0.500000 0.225289
O O19 0.247333 0.396397 0.270979
O O20 0.718874 0.500000 0.317898
O O21 0.000000 0.425516 0.318724
#
# Coordination Sequence:
#
# PCOD9488084 Si02
#       7
#    16  16  16  16   8  16  16
#     4   9  18  31  47  68  93 121 152 186 225 269
#     4  10  20  32  47  70  98 124 151 187 231 274
#     4   8  14  27  49  73  93 118 156 195 225 260
#     4   9  17  30  48  68  91 121 154 186 222 267
#     4   9  17  28  45  71  96 117 148 190 230 267
#     4   9  18  32  49  69  92 118 150 189 232 274
#     4   9  18  33  51  68  88 119 158 194 226 265
#
# _framework density 20.421565000000001
#
# number of rings (size 3 to 8) (size 9 to 14) (size 15 to 20)
#    0.000    3.000    0.000    1.154    0.000    4.615 
#    0.000    6.154    0.000    2.308    0.000    5.385 
#    0.000    0.000    0.000    0.000    0.000    0.000 
#
# Total GULP energy -290119.112665 kJ/mol
# GULP energy per Si atom -5579.213705 kJ/mol
# Density = 2.037508 g / cm^3
# Si number density = 20.421565 Si / 1000 Ang^3
#
#
#
# Elastic Constant Matrix: (Units=GPa)
#
#
# Indices 1 2 3 4 5 6 
#
# 1 51.8083 1.1007 6.1423 0.0000 0.0000 0.0000
# 2 1.1007 140.6353 151.3175 0.0000 0.0000 0.0000
# 3 6.1423 151.3175 222.8402 0.0000 0.0000 0.0000
# 4 0.0000 0.0000 0.0000 35.0793 0.0000 0.0000
# 5 0.0000 0.0000 0.0000 0.0000 7.8255 0.0000
# 6 0.0000 0.0000 0.0000 0.0000 0.0000 20.0846
#
#
#
# Elastic Compliance Matrix: (Units=1/GPa)
#
#
# Indices 1 2 3 4 5 6 
#
# 1 0.019459 0.001577 -0.001607 0.000000 0.000000 0.000000
# 2 0.001577 0.026524 -0.018054 0.000000 0.000000 0.000000
# 3 -0.001607 -0.018054 0.016791 0.000000 0.000000 0.000000
# 4 0.000000 0.000000 0.000000 0.028507 0.000000 0.000000
# 5 0.000000 0.000000 0.000000 0.000000 0.127787 0.000000
# 6 0.000000 0.000000 0.000000 0.000000 0.000000 0.049789
#
#
# Mechanical properties :
#
#
# Convention : Reuss Voigt Hill
#
# Bulk Modulus (GPa) = 37.58657 81.37833 59.48245
# Shear Modulus (GPa) = 15.92892 29.71275 22.82084
#
# Velocity S-wave (km/s) = 2.79589 3.81854 3.34651
# Velocity P-wave (km/s) = 5.37289 7.70568 6.64249
#
# Compressibility (1/GPa) = 0.02660525
#
# Stress axis : x y z
#
# Youngs Moduli (GPa) = 51.39023 37.70199 59.55445
#
# Poissons Ratio (x) = -0.05945 0.09571
# Poissons Ratio (y) = -0.08104 1.07521
# Poissons Ratio (z) = 0.08259 0.68068
#
# Static dielectric constant tensor:
#      x y z
#    x 1.795690 0.000000 0.000000 
#    y 0.000000 1.683660 0.000000 
#    z 0.000000 0.000000 1.728420 
# 
# From -- ./inp_files/76894.got.cif
#   From: 2010.05.17/outbox.cif.g08.bks.cpg/sg65_39_cif.got.tgz:76894.got - 2010.06.03 17:01:31.
