data_PCOD9488715
_publ_section_title
;
Structure prediction by ZEFSAII (Michael W. Deem and Ramdas Pophale) SiO2 
 PCOD9488715
Probable space group: C M M M
;
_chemical_formula_sum "Si O2"
_cell_formula_units_Z 72
_cell_length_a 7.618108
_cell_length_b 18.909372
_cell_length_c 24.306482
_cell_angle_alpha 90.000000
_cell_angle_beta 90.000000
_cell_angle_gamma 90.000000
_cell_volume 3501.437162
_symmetry_space_group_name_H-M "C M M M"
_symmetry_group_IT_number 65
_symmetry_cell_setting 'orthorhombic'
loop_
_space_group_symop_operation_xyz
x,y,z
-x,-y,z
x,-y,-z
-x,y,-z
-x,-y,-z
x,y,-z
-x,y,z
x,-y,z
1/2+x,1/2+y,z
1/2-x,1/2-y,z
1/2+x,1/2-y,-z
1/2-x,1/2+y,-z
1/2-x,1/2-y,-z
1/2+x,1/2+y,-z
1/2-x,1/2+y,z
1/2+x,1/2-y,z
loop_
_atom_site_type_symbol
_atom_site_label
_atom_site_fract_x
_atom_site_fract_y
_atom_site_fract_z
Si Si1 0.789584 0.418859 0.712804
Si Si2 0.789127 0.667062 0.392306
Si Si3 0.289036 0.667138 0.939443
Si Si4 0.288915 0.580651 0.835027
Si Si5 0.214991 0.417986 0.500000
O O1 0.722496 0.500000 0.708630
O O2 0.722735 0.369540 0.663724
O O3 0.751941 0.391292 0.774129
O O4 0.000000 0.422553 0.707556
O O5 0.750000 0.750000 0.395432
O O6 0.726237 0.623882 0.445639
O O7 0.000000 0.660479 0.392112
O O8 0.500000 0.658904 0.940192
O O9 0.250000 0.750000 0.933676
O O10 0.221071 0.625016 0.886684
O O11 0.223615 0.644141 0.000000
O O12 0.500000 0.578541 0.839157
O O13 0.222879 0.500000 0.837394
O O14 0.269231 0.500000 0.500000
O O15 0.000000 0.417911 0.500000
#
# Coordination Sequence:
#
# PCOD9488715 Si02
#       5
#    16  16  16  16   8
#     4   9  18  33  51  70  94 126 163 198 233 278
#     4  10  20  33  51  75 101 128 159 198 241 283
#     4   9  18  32  49  69  94 124 157 194 236 283
#     4   9  18  32  50  72  96 123 157 197 240 283
#     4   9  17  32  55  77  96 125 166 204 236 277
#
# _framework density 20.562985000000001
#
# number of rings (size 3 to 8) (size 9 to 14) (size 15 to 20)
#    0.000    2.778    0.000    1.000    0.000    5.778 
#    0.000    6.667    0.000    2.667    0.000    6.222 
#    0.000    0.000    0.000    0.000    0.000    0.000 
#
# Total GULP energy -200872.698558 kJ/mol
# GULP energy per Si atom -5579.797182 kJ/mol
# Density = 2.051618 g / cm^3
# Si number density = 20.562985 Si / 1000 Ang^3
#
#
#
# Elastic Constant Matrix: (Units=GPa)
#
#
# Indices 1 2 3 4 5 6 
#
# 1 42.4199 0.2278 7.9094 0.0000 0.0000 0.0000
# 2 0.2278 121.6557 130.0553 0.0000 0.0000 0.0000
# 3 7.9094 130.0553 261.7857 0.0000 0.0000 0.0000
# 4 0.0000 0.0000 0.0000 40.6707 0.0000 0.0000
# 5 0.0000 0.0000 0.0000 0.0000 18.3478 0.0000
# 6 0.0000 0.0000 0.0000 0.0000 0.0000 21.0877
#
#
#
# Elastic Compliance Matrix: (Units=1/GPa)
#
#
# Indices 1 2 3 4 5 6 
#
# 1 0.023843 0.001547 -0.001489 0.000000 0.000000 0.000000
# 2 0.001547 0.017631 -0.008806 0.000000 0.000000 0.000000
# 3 -0.001489 -0.008806 0.008240 0.000000 0.000000 0.000000
# 4 0.000000 0.000000 0.000000 0.024588 0.000000 0.000000
# 5 0.000000 0.000000 0.000000 0.000000 0.054502 0.000000
# 6 0.000000 0.000000 0.000000 0.000000 0.000000 0.047421
#
#
# Mechanical properties :
#
#
# Convention : Reuss Voigt Hill
#
# Bulk Modulus (GPa) = 31.03814 78.02735 54.53275
# Shear Modulus (GPa) = 24.45478 35.19916 29.82697
#
# Velocity S-wave (km/s) = 3.45231 4.14185 3.81270
# Velocity P-wave (km/s) = 5.56940 7.80392 6.77935
#
# Compressibility (1/GPa) = 0.03221843
#
# Stress axis : x y z
#
# Youngs Moduli (GPa) = 41.94070 56.71925 121.36541
#
# Poissons Ratio (x) = -0.08776 0.18072
# Poissons Ratio (y) = -0.06489 1.06871
# Poissons Ratio (z) = 0.06245 0.49945
#
# Static dielectric constant tensor:
#      x y z
#    x 1.782950 0.000000 0.000000 
#    y 0.000000 1.693140 0.000000 
#    z 0.000000 0.000000 1.740770 
# 
# From -- ./inp_files/59284.got.cif
#   From: 2010.05.17/outbox.cif.g08.bks.cpg/sg65_30_cif.got.tgz:59284.got - 2010.06.03 17:01:31.
