data_PCOD9488580
_publ_section_title
;
Structure prediction by ZEFSAII (Michael W. Deem and Ramdas Pophale) SiO2 
 PCOD9488580
Probable space group: C M M M
;
_chemical_formula_sum "Si O2"
_cell_formula_units_Z 88
_cell_length_a 7.684089
_cell_length_b 19.284483
_cell_length_c 29.006111
_cell_angle_alpha 90.000000
_cell_angle_beta 90.000000
_cell_angle_gamma 90.000000
_cell_volume 4298.232378
_symmetry_space_group_name_H-M "C M M M"
_symmetry_group_IT_number 65
_symmetry_cell_setting 'orthorhombic'
loop_
_space_group_symop_operation_xyz
x,y,z
-x,-y,z
x,-y,-z
-x,y,-z
-x,-y,-z
x,y,-z
-x,y,z
x,-y,z
1/2+x,1/2+y,z
1/2-x,1/2-y,z
1/2+x,1/2-y,-z
1/2-x,1/2+y,-z
1/2-x,1/2-y,-z
1/2+x,1/2+y,-z
1/2-x,1/2+y,z
1/2+x,1/2-y,z
loop_
_atom_site_type_symbol
_atom_site_label
_atom_site_fract_x
_atom_site_fract_y
_atom_site_fract_z
Si Si1 0.290883 0.170389 0.914279
Si Si2 0.207155 0.329683 0.810457
Si Si3 0.286520 0.920331 0.000000
Si Si4 0.706776 0.421716 0.276262
Si Si5 0.290460 0.330983 0.638232
Si Si6 0.287697 0.420299 0.447808
O O1 0.500000 0.163568 0.912635
O O2 0.250000 0.250000 0.926073
O O3 0.223829 0.157295 0.862342
O O4 0.227068 0.119688 0.954165
O O5 0.250000 0.250000 0.798068
O O6 0.269741 0.382809 0.772085
O O7 0.000000 0.335365 0.812143
O O8 0.500000 0.918735 0.000000
O O9 0.233086 0.000000 0.000000
O O10 0.500000 0.427241 0.283961
O O11 0.778132 0.500000 0.276181
O O12 0.776692 0.373693 0.317564
O O13 0.500000 0.336611 0.638084
O O14 0.250000 0.250000 0.640809
O O15 0.227004 0.367634 0.591342
O O16 0.231474 0.403507 0.500000
O O17 0.500000 0.419248 0.447923
O O18 0.237386 0.500000 0.437418
#
# Coordination Sequence:
#
# PCOD9488580 Si02
#       6
#    16  16   8  16  16  16
#     4   9  18  32  52  75  98 128 163 200 241 288
#     4  10  20  34  53  77 103 131 166 207 249 295
#     4   9  17  30  49  73 100 129 162 200 242 287
#     4  10  21  36  53  73  99 132 168 207 252 299
#     4  10  20  33  50  73 100 129 163 203 245 291
#     4   8  14  27  49  74  97 124 161 202 241 285
#
# _framework density 20.473533
#
# number of rings (size 3 to 8) (size 9 to 14) (size 15 to 20)
#    0.000    2.636    0.000    2.455    0.000    6.545 
#    0.000    1.818    0.000    2.727    0.000    1.273 
#    0.000    0.000    0.000    0.000    0.000    0.000 
#
# Total GULP energy -245617.205750 kJ/mol
# GULP energy per Si atom -5582.209222 kJ/mol
# Density = 2.042693 g / cm^3
# Si number density = 20.473533 Si / 1000 Ang^3
#
#
#
# Elastic Constant Matrix: (Units=GPa)
#
#
# Indices 1 2 3 4 5 6 
#
# 1 35.8750 2.3590 4.5591 0.0000 0.0000 0.0000
# 2 2.3590 203.6567 155.1551 0.0000 0.0000 0.0000
# 3 4.5591 155.1551 172.2677 0.0000 0.0000 0.0000
# 4 0.0000 0.0000 0.0000 -20.2039 0.0000 0.0000
# 5 0.0000 0.0000 0.0000 0.0000 99.5792 0.0000
# 6 0.0000 0.0000 0.0000 0.0000 0.0000 21.4126
#
#
#
# Elastic Compliance Matrix: (Units=1/GPa)
#
#
# Indices 1 2 3 4 5 6 
#
# 1 0.028006 0.000766 -0.001431 0.000000 0.000000 0.000000
# 2 0.000766 0.015667 -0.014131 0.000000 0.000000 0.000000
# 3 -0.001431 -0.014131 0.018570 0.000000 0.000000 0.000000
# 4 0.000000 0.000000 0.000000 -0.049495 0.000000 0.000000
# 5 0.000000 0.000000 0.000000 0.000000 0.010042 0.000000
# 6 0.000000 0.000000 0.000000 0.000000 0.000000 0.046702
#
#
# Mechanical properties :
#
#
# Convention : Reuss Voigt Hill
#
# Bulk Modulus (GPa) = 30.62706 81.77175 56.19940
# Shear Modulus (GPa) = 45.46829 36.80599 41.13714
#
# Velocity S-wave (km/s) = 4.71768 4.24457 4.48737
# Velocity P-wave (km/s) = 6.68335 8.00305 7.37279
#
# Compressibility (1/GPa) = 0.03265087
#
# Stress axis : x y z
#
# Youngs Moduli (GPa) = 35.70660 63.82887 53.85054
#
# Poissons Ratio (x) = -0.04887 0.07705
# Poissons Ratio (y) = -0.02734 0.76095
# Poissons Ratio (z) = 0.05109 0.90196
#
# Static dielectric constant tensor:
#      x y z
#    x 1.776620 0.000000 0.000000 
#    y 0.000000 1.680020 0.000000 
#    z 0.000000 0.000000 1.734250 
# 
# From -- ./inp_files/76469.got.cif
#   From: 2010.05.17/outbox.cif.g08.bks.cpg/sg65_39_cif.got.tgz:76469.got - 2010.06.03 17:01:31.
