data_PCOD9488063
_publ_section_title
;
Structure prediction by ZEFSAII (Michael W. Deem and Ramdas Pophale) SiO2 
 PCOD9488063
Probable space group: C M M M
;
_chemical_formula_sum "Si O2"
_cell_formula_units_Z 80
_cell_length_a 27.746614
_cell_length_b 8.777933
_cell_length_c 19.056610
_cell_angle_alpha 90.000000
_cell_angle_beta 90.000000
_cell_angle_gamma 90.000000
_cell_volume 4641.388268
_symmetry_space_group_name_H-M "C M M M"
_symmetry_group_IT_number 65
_symmetry_cell_setting 'orthorhombic'
loop_
_space_group_symop_operation_xyz
x,y,z
-x,-y,z
x,-y,-z
-x,y,-z
-x,-y,-z
x,y,-z
-x,y,z
x,-y,z
1/2+x,1/2+y,z
1/2-x,1/2-y,z
1/2+x,1/2-y,-z
1/2-x,1/2+y,-z
1/2-x,1/2-y,-z
1/2+x,1/2+y,-z
1/2-x,1/2+y,z
1/2+x,1/2-y,z
loop_
_atom_site_type_symbol
_atom_site_label
_atom_site_fract_x
_atom_site_fract_y
_atom_site_fract_z
Si Si1 0.946081 0.316477 0.280658
Si Si2 0.443576 0.817355 0.000000
Si Si3 0.196420 0.684256 0.500000
Si Si4 0.198898 0.182079 0.786195
Si Si5 0.400675 0.317570 0.141785
Si Si6 0.652106 0.183822 0.351960
O O1 0.944728 0.500000 0.272852
O O2 0.933153 0.243360 0.205866
O O3 0.903075 0.274053 0.333625
O O4 0.000000 0.273079 0.302834
O O5 0.418087 0.753792 0.069395
O O6 0.500000 0.772114 0.000000
O O7 0.441332 0.000000 0.000000
O O8 0.198724 0.500000 0.500000
O O9 0.250000 0.750000 0.500000
O O10 0.169212 0.731619 0.428871
O O11 0.250000 0.250000 0.808187
O O12 0.154314 0.223459 0.837059
O O13 0.184706 0.245300 0.709396
O O14 0.201943 0.000000 0.782933
O O15 0.404061 0.500000 0.138347
O O16 0.656023 0.000000 0.347543
#
# Coordination Sequence:
#
# PCOD9488063 Si02
#       6
#    16   8   8  16  16  16
#     4   9  17  31  51  73  98 130 166 203 245 293
#     4  11  23  37  54  77 104 133 164 199 242 291
#     4  10  20  32  47  69  97 129 164 204 251 298
#     4  10  20  34  53  76 100 129 166 205 246 292
#     4  10  21  35  52  76 103 130 164 204 244 290
#     4   9  18  32  49  71 100 131 165 205 247 293
#
# _framework density 17.236222000000001
#
# number of rings (size 3 to 8) (size 9 to 14) (size 15 to 20)
#    0.000    2.300    0.000    2.700    0.000    8.400 
#    0.000    1.000    0.000    3.000    0.000    0.000 
#    0.000    7.200    0.000    0.000    0.000    0.000 
#
# Total GULP energy -223216.057838 kJ/mol
# GULP energy per Si atom -5580.401446 kJ/mol
# Density = 1.719699 g / cm^3
# Si number density = 17.236222 Si / 1000 Ang^3
#
#
#
# Elastic Constant Matrix: (Units=GPa)
#
#
# Indices 1 2 3 4 5 6 
#
# 1 147.0124 38.3381 81.4364 0.0000 0.0000 0.0000
# 2 38.3381 22.6216 35.6698 0.0000 0.0000 0.0000
# 3 81.4364 35.6698 148.8636 0.0000 0.0000 0.0000
# 4 0.0000 0.0000 0.0000 11.7624 0.0000 0.0000
# 5 0.0000 0.0000 0.0000 0.0000 12.4271 0.0000
# 6 0.0000 0.0000 0.0000 0.0000 0.0000 27.3623
#
#
#
# Elastic Compliance Matrix: (Units=1/GPa)
#
#
# Indices 1 2 3 4 5 6 
#
# 1 0.012939 -0.017306 -0.002932 0.000000 0.000000 0.000000
# 2 -0.017306 0.094197 -0.013103 0.000000 0.000000 0.000000
# 3 -0.002932 -0.013103 0.011461 0.000000 0.000000 0.000000
# 4 0.000000 0.000000 0.000000 0.085017 0.000000 0.000000
# 5 0.000000 0.000000 0.000000 0.000000 0.080469 0.000000
# 6 0.000000 0.000000 0.000000 0.000000 0.000000 0.036547
#
#
# Mechanical properties :
#
#
# Convention : Reuss Voigt Hill
#
# Bulk Modulus (GPa) = 19.26235 69.93178 44.59706
# Shear Modulus (GPa) = 12.35733 21.18058 16.76895
#
# Velocity S-wave (km/s) = 2.68048 3.50929 3.12250
# Velocity P-wave (km/s) = 4.55848 7.55518 6.23941
#
# Compressibility (1/GPa) = 0.05191476
#
# Stress axis : x y z
#
# Youngs Moduli (GPa) = 77.28417 10.61603 87.25169
#
# Poissons Ratio (x) = 0.18372 0.25579
# Poissons Ratio (y) = 1.33750 1.14330
# Poissons Ratio (z) = 0.22657 0.13911
#
# Static dielectric constant tensor:
#      x y z
#    x 1.592420 0.000000 0.000000 
#    y 0.000000 1.578770 0.000000 
#    z 0.000000 0.000000 1.549250 
# 
# From -- ./inp_files/49900.got.cif
#   From: 2010.05.17/outbox.cif.g08.bks.cpg/sg65_25_cif.got.tgz:49900.got - 2010.06.03 17:01:31.
