data_PCOD9488268
_publ_section_title
;
Structure prediction by ZEFSAII (Michael W. Deem and Ramdas Pophale) SiO2 
 PCOD9488268
Probable space group: C M M M
;
_chemical_formula_sum "Si O2"
_cell_formula_units_Z 80
_cell_length_a 18.373749
_cell_length_b 7.446742
_cell_length_c 29.266081
_cell_angle_alpha 90.000000
_cell_angle_beta 90.000000
_cell_angle_gamma 90.000000
_cell_volume 4004.318901
_symmetry_space_group_name_H-M "C M M M"
_symmetry_group_IT_number 65
_symmetry_cell_setting 'orthorhombic'
loop_
_space_group_symop_operation_xyz
x,y,z
-x,-y,z
x,-y,-z
-x,y,-z
-x,-y,-z
x,y,-z
-x,y,z
x,-y,z
1/2+x,1/2+y,z
1/2-x,1/2-y,z
1/2+x,1/2-y,-z
1/2-x,1/2+y,-z
1/2-x,1/2-y,-z
1/2+x,1/2+y,-z
1/2-x,1/2+y,z
1/2+x,1/2-y,z
loop_
_atom_site_type_symbol
_atom_site_label
_atom_site_fract_x
_atom_site_fract_y
_atom_site_fract_z
Si Si1 0.587068 0.711699 0.125936
Si Si2 0.588408 0.000000 0.051892
Si Si3 0.663734 0.284788 0.400739
Si Si4 0.415892 0.719794 0.309523
Si Si5 0.164475 0.785671 0.781730
Si Si6 0.336783 0.285264 0.500000
O O1 0.500000 0.731995 0.132635
O O2 0.601786 0.500000 0.119342
O O3 0.627408 0.778434 0.171510
O O4 0.609112 0.827029 0.081948
O O5 0.500000 0.000000 0.049685
O O6 0.615644 0.000000 0.000000
O O7 0.654577 0.500000 0.401693
O O8 0.750000 0.250000 0.396235
O O9 0.621751 0.217677 0.356312
O O10 0.637658 0.216240 0.450557
O O11 0.500000 0.771752 0.307483
O O12 0.413365 0.500000 0.309805
O O13 0.373191 0.782081 0.264510
O O14 0.250000 0.750000 0.781235
O O15 0.153186 0.000000 0.781858
O O16 0.348319 0.500000 0.500000
O O17 0.250000 0.250000 0.500000
#
# Coordination Sequence:
#
# PCOD9488268 Si02
#       6
#    16   8  16  16  16   8
#     4   9  18  33  53  78 107 140 176 215 258 305
#     4   9  18  32  54  84 112 140 175 216 260 302
#     4   9  16  27  45  66  90 122 157 201 244 293
#     4   9  17  30  47  67  94 126 160 198 248 303
#     4  10  20  32  50  74  96 128 164 205 249 303
#     4   8  14  24  39  63  89 115 155 196 242 290
#
# _framework density 19.978429999999999
#
# number of rings (size 3 to 8) (size 9 to 14) (size 15 to 20)
#    0.000    2.900    0.000    1.200    1.400    2.800 
#    0.000    2.500    0.000    5.400    0.000    0.000 
#    0.000    8.000    0.000    0.000    0.000    0.000 
#
# Total GULP energy -223117.333976 kJ/mol
# GULP energy per Si atom -5577.933349 kJ/mol
# Density = 1.993296 g / cm^3
# Si number density = 19.978430 Si / 1000 Ang^3
#
#
#
# Elastic Constant Matrix: (Units=GPa)
#
#
# Indices 1 2 3 4 5 6 
#
# 1 77.9971 17.0297 92.0196 0.0000 0.0000 0.0000
# 2 17.0297 72.3668 49.1184 0.0000 0.0000 0.0000
# 3 92.0196 49.1184 265.0289 0.0000 0.0000 0.0000
# 4 0.0000 0.0000 0.0000 20.6544 0.0000 0.0000
# 5 0.0000 0.0000 0.0000 0.0000 18.1726 0.0000
# 6 0.0000 0.0000 0.0000 0.0000 0.0000 15.2795
#
#
#
# Elastic Compliance Matrix: (Units=1/GPa)
#
#
# Indices 1 2 3 4 5 6 
#
# 1 0.021717 0.000008 -0.007542 0.000000 0.000000 0.000000
# 2 0.000008 0.015807 -0.002932 0.000000 0.000000 0.000000
# 3 -0.007542 -0.002932 0.006935 0.000000 0.000000 0.000000
# 4 0.000000 0.000000 0.000000 0.048416 0.000000 0.000000
# 5 0.000000 0.000000 0.000000 0.000000 0.055028 0.000000
# 6 0.000000 0.000000 0.000000 0.000000 0.000000 0.065447
#
#
# Mechanical properties :
#
#
# Convention : Reuss Voigt Hill
#
# Bulk Modulus (GPa) = 42.50389 81.30316 61.90352
# Shear Modulus (GPa) = 20.65060 27.96964 24.31012
#
# Velocity S-wave (km/s) = 3.21852 3.74571 3.49208
# Velocity P-wave (km/s) = 5.92730 7.71303 6.87837
#
# Compressibility (1/GPa) = 0.02352726
#
# Stress axis : x y z
#
# Youngs Moduli (GPa) = 46.04735 63.26358 144.19210
#
# Poissons Ratio (x) = -0.00053 1.08746
# Poissons Ratio (y) = -0.00039 0.42284
# Poissons Ratio (z) = 0.34728 0.18552
#
# Static dielectric constant tensor:
#      x y z
#    x 1.666760 0.000000 0.000000 
#    y 0.000000 1.774170 0.000000 
#    z 0.000000 0.000000 1.715620 
# 
# From -- ./inp_files/70828.got.cif
#   From: 2010.05.17/outbox.cif.g08.bks.cpg/sg65_36_cif.got.tgz:70828.got - 2010.06.03 17:01:31.
