data_PCOD9488864
_publ_section_title
;
Structure prediction by ZEFSAII (Michael W. Deem and Ramdas Pophale) SiO2 
 PCOD9488864
Probable space group: C M M M
;
_chemical_formula_sum "Si O2"
_cell_formula_units_Z 104
_cell_length_a 26.399510
_cell_length_b 24.601345
_cell_length_c 7.833672
_cell_angle_alpha 90.000000
_cell_angle_beta 90.000000
_cell_angle_gamma 90.000000
_cell_volume 5087.683669
_symmetry_space_group_name_H-M "C M M M"
_symmetry_group_IT_number 65
_symmetry_cell_setting 'orthorhombic'
loop_
_space_group_symop_operation_xyz
x,y,z
-x,-y,z
x,-y,-z
-x,y,-z
-x,-y,-z
x,y,-z
-x,y,z
x,-y,z
1/2+x,1/2+y,z
1/2-x,1/2-y,z
1/2+x,1/2-y,-z
1/2-x,1/2+y,-z
1/2-x,1/2-y,-z
1/2+x,1/2+y,-z
1/2-x,1/2+y,z
1/2+x,1/2-y,z
loop_
_atom_site_type_symbol
_atom_site_label
_atom_site_fract_x
_atom_site_fract_y
_atom_site_fract_z
Si Si1 0.247002 0.169584 0.705352
Si Si2 0.149379 0.278176 0.206422
Si Si3 0.894394 0.392442 0.206849
Si Si4 0.205899 0.557445 0.297774
Si Si5 0.441778 0.562048 0.704387
Si Si6 0.500000 0.937767 0.791080
Si Si7 0.870710 0.163682 0.198876
O O1 0.242066 0.170407 0.500000
O O2 0.291053 0.213802 0.747146
O O3 0.270687 0.112665 0.770937
O O4 0.190364 0.165515 0.778597
O O5 0.122851 0.333150 0.267015
O O6 0.120186 0.224572 0.272422
O O7 0.147931 0.276482 0.000000
O O8 0.853644 0.435860 0.269519
O O9 0.949711 0.407847 0.265405
O O10 0.892966 0.392559 0.000000
O O11 0.216307 0.557493 0.500000
O O12 0.224139 0.500000 0.225872
O O13 0.444266 0.558772 0.500000
O O14 0.500000 0.573970 0.764651
O O15 0.428331 0.500000 0.765019
O O16 0.401363 0.610597 0.738307
O O17 0.500000 0.000000 0.736420
O O18 0.500000 0.937677 0.000000
O O19 0.882965 0.164905 0.000000
#
# Coordination Sequence:
#
# PCOD9488864 Si02
#       7
#    16  16  16  16  16   8  16
#     4  10  20  33  52  77 105 143 185 224 266 318
#     4   9  19  35  51  73 107 144 177 218 269 316
#     4   9  17  31  49  69  95 131 172 213 254 299
#     4   9  18  32  48  68  97 131 167 210 260 310
#     4   9  20  41  65  85 108 140 178 222 273 328
#     4   9  16  26  45  73  97 121 164 215 252 290
#     4  11  22  35  54  83 112 140 175 217 265 323
#
# _framework density 20.441521999999999
#
# number of rings (size 3 to 8) (size 9 to 14) (size 15 to 20)
#    0.000    2.538    0.000    2.308    0.000    5.846 
#    1.385    2.692    0.000    1.385    0.000    0.000 
#    0.000    0.000    0.000    0.000    0.000    0.000 
#
# Total GULP energy -289506.507768 kJ/mol
# GULP energy per Si atom -5567.432842 kJ/mol
# Density = 2.039500 g / cm^3
# Si number density = 20.441522 Si / 1000 Ang^3
#
#
#
# Elastic Constant Matrix: (Units=GPa)
#
#
# Indices 1 2 3 4 5 6 
#
# 1 81.3403 61.4031 -7.5908 0.0000 0.0000 0.0000
# 2 61.4031 161.5048 8.6909 0.0000 0.0000 0.0000
# 3 -7.5908 8.6909 24.8677 0.0000 0.0000 0.0000
# 4 0.0000 0.0000 0.0000 14.7492 0.0000 0.0000
# 5 0.0000 0.0000 0.0000 0.0000 15.7389 0.0000
# 6 0.0000 0.0000 0.0000 0.0000 0.0000 33.8185
#
#
#
# Elastic Compliance Matrix: (Units=1/GPa)
#
#
# Indices 1 2 3 4 5 6 
#
# 1 0.018822 -0.007608 0.008404 0.000000 0.000000 0.000000
# 2 -0.007608 0.009386 -0.005603 0.000000 0.000000 0.000000
# 3 0.008404 -0.005603 0.044736 0.000000 0.000000 0.000000
# 4 0.000000 0.000000 0.000000 0.067800 0.000000 0.000000
# 5 0.000000 0.000000 0.000000 0.000000 0.063537 0.000000
# 6 0.000000 0.000000 0.000000 0.000000 0.000000 0.029570
#
#
# Mechanical properties :
#
#
# Convention : Reuss Voigt Hill
#
# Bulk Modulus (GPa) = 15.79013 43.63545 29.71279
# Shear Modulus (GPa) = 18.89831 26.54194 22.72012
#
# Velocity S-wave (km/s) = 3.04387 3.60729 3.33749
# Velocity P-wave (km/s) = 4.48272 6.22437 5.42391
#
# Compressibility (1/GPa) = 0.06333071
#
# Stress axis : x y z
#
# Youngs Moduli (GPa) = 53.13046 106.54391 22.35323
#
# Poissons Ratio (x) = 0.81060 -0.18786
# Poissons Ratio (y) = 0.40422 0.12524
# Poissons Ratio (z) = -0.44652 0.59692
#
# Static dielectric constant tensor:
#      x y z
#    x 1.730860 0.000000 0.000000 
#    y 0.000000 1.806380 0.000000 
#    z 0.000000 0.000000 1.738920 
# 
# From -- ./inp_files/16802.got.cif
#   From: 2010.05.17/outbox.cif.g08.bks.cpg/sg65_9_cif.got.tgz:16802.got - 2010.06.03 17:01:31.
