data_PCOD9488582
_publ_section_title
;
Structure prediction by ZEFSAII (Michael W. Deem and Ramdas Pophale) SiO2 
 PCOD9488582
Probable space group: C M M M
;
_chemical_formula_sum "Si O2"
_cell_formula_units_Z 88
_cell_length_a 28.692476
_cell_length_b 19.702513
_cell_length_c 8.696918
_cell_angle_alpha 90.000000
_cell_angle_beta 90.000000
_cell_angle_gamma 90.000000
_cell_volume 4916.488471
_symmetry_space_group_name_H-M "C M M M"
_symmetry_group_IT_number 65
_symmetry_cell_setting 'orthorhombic'
loop_
_space_group_symop_operation_xyz
x,y,z
-x,-y,z
x,-y,-z
-x,y,-z
-x,-y,-z
x,y,-z
-x,y,z
x,-y,z
1/2+x,1/2+y,z
1/2-x,1/2-y,z
1/2+x,1/2-y,-z
1/2-x,1/2+y,-z
1/2-x,1/2-y,-z
1/2+x,1/2+y,-z
1/2-x,1/2+y,z
1/2+x,1/2-y,z
loop_
_atom_site_type_symbol
_atom_site_label
_atom_site_fract_x
_atom_site_fract_y
_atom_site_fract_z
Si Si1 0.000000 0.420673 0.684086
Si Si2 0.726808 0.417654 0.823270
Si Si3 0.675169 0.079112 0.317073
Si Si4 0.088426 0.341401 0.815717
Si Si5 0.553776 0.306101 0.187521
Si Si6 0.876017 0.921931 0.811973
O O1 0.045720 0.385333 0.751250
O O2 0.000000 0.500000 0.723591
O O3 0.000000 0.414238 0.500000
O O4 0.724822 0.500000 0.825110
O O5 0.772593 0.399108 0.729064
O O6 0.675676 0.397130 0.764354
O O7 0.732395 0.394892 0.000000
O O8 0.670007 0.080531 0.500000
O O9 0.636394 0.126528 0.242373
O O10 0.668964 0.000000 0.266490
O O11 0.078955 0.263762 0.766835
O O12 0.087440 0.343543 0.000000
O O13 0.500000 0.306735 0.238997
O O14 0.583619 0.371015 0.237924
O O15 0.552951 0.307149 0.000000
O O16 0.883269 0.000000 0.763107
O O17 0.875018 0.922492 0.000000
#
# Coordination Sequence:
#
# PCOD9488582 Si02
#       6
#     8  16  16  16  16  16
#     4  11  23  37  53  73  98 129 170 218 257 293
#     4   8  14  27  48  74 101 129 164 205 250 300
#     4  10  20  33  50  73 100 131 169 213 257 299
#     4  11  21  34  51  73 102 137 171 206 250 300
#     4   9  17  30  47  71 104 136 167 206 251 300
#     4   8  14  26  48  77 105 132 164 205 252 300
#
# _framework density 17.898954
#
# number of rings (size 3 to 8) (size 9 to 14) (size 15 to 20)
#    0.000    2.636    0.909    3.000    0.000    4.364 
#    0.000    2.727    0.000    7.636    0.000    0.000 
#    0.000    0.727    0.000    0.000    0.000    0.000 
#
# Total GULP energy -245305.594112 kJ/mol
# GULP energy per Si atom -5575.127139 kJ/mol
# Density = 1.785821 g / cm^3
# Si number density = 17.898954 Si / 1000 Ang^3
#
#
#
# Elastic Constant Matrix: (Units=GPa)
#
#
# Indices 1 2 3 4 5 6 
#
# 1 153.2653 89.5773 23.8935 0.0000 0.0000 0.0000
# 2 89.5773 113.4391 26.9335 0.0000 0.0000 0.0000
# 3 23.8935 26.9335 18.3602 0.0000 0.0000 0.0000
# 4 0.0000 0.0000 0.0000 4.4477 0.0000 0.0000
# 5 0.0000 0.0000 0.0000 0.0000 -11.9784 0.0000
# 6 0.0000 0.0000 0.0000 0.0000 0.0000 519.4554
#
#
#
# Elastic Compliance Matrix: (Units=1/GPa)
#
#
# Indices 1 2 3 4 5 6 
#
# 1 0.012202 -0.009000 -0.002677 0.000000 0.000000 0.000000
# 2 -0.009000 0.020164 -0.017868 0.000000 0.000000 0.000000
# 3 -0.002677 -0.017868 0.084162 0.000000 0.000000 0.000000
# 4 0.000000 0.000000 0.000000 0.224835 0.000000 0.000000
# 5 0.000000 0.000000 0.000000 0.000000 -0.083484 0.000000
# 6 0.000000 0.000000 0.000000 0.000000 0.000000 0.001925
#
#
# Mechanical properties :
#
#
# Convention : Reuss Voigt Hill
#
# Bulk Modulus (GPa) = 17.41014 62.87480 40.14247
# Shear Modulus (GPa) = 14.79115 112.02897 63.41006
#
# Velocity S-wave (km/s) = 2.87778 7.91995 5.95849
# Velocity P-wave (km/s) = 4.55963 10.90128 8.35548
#
# Compressibility (1/GPa) = 0.05743780
#
# Stress axis : x y z
#
# Youngs Moduli (GPa) = 81.95447 49.59276 11.88188
#
# Poissons Ratio (x) = 0.44631 0.03181
# Poissons Ratio (y) = 0.73756 0.21231
# Poissons Ratio (z) = 0.21941 0.88613
#
# Static dielectric constant tensor:
#      x y z
#    x 1.608840 0.000000 0.000000 
#    y 0.000000 1.604230 0.000000 
#    z 0.000000 0.000000 1.600690 
# 
# From -- ./inp_files/18324.got.cif
#   From: 2010.05.17/outbox.cif.g08.bks.cpg/sg65_10_cif.got.tgz:18324.got - 2010.06.03 17:01:31.
