data_PCOD9488599
_publ_section_title
;
Structure prediction by ZEFSAII (Michael W. Deem and Ramdas Pophale) SiO2 
 PCOD9488599
Probable space group: C M M M
;
_chemical_formula_sum "Si O2"
_cell_formula_units_Z 96
_cell_length_a 29.622825
_cell_length_b 17.053301
_cell_length_c 8.856746
_cell_angle_alpha 90.000000
_cell_angle_beta 90.000000
_cell_angle_gamma 90.000000
_cell_volume 4474.135374
_symmetry_space_group_name_H-M "C M M M"
_symmetry_group_IT_number 65
_symmetry_cell_setting 'orthorhombic'
loop_
_space_group_symop_operation_xyz
x,y,z
-x,-y,z
x,-y,-z
-x,y,-z
-x,-y,-z
x,y,-z
-x,y,z
x,-y,z
1/2+x,1/2+y,z
1/2-x,1/2-y,z
1/2+x,1/2-y,-z
1/2-x,1/2+y,-z
1/2-x,1/2-y,-z
1/2+x,1/2+y,-z
1/2-x,1/2+y,z
1/2+x,1/2-y,z
loop_
_atom_site_type_symbol
_atom_site_label
_atom_site_fract_x
_atom_site_fract_y
_atom_site_fract_z
Si Si1 0.255466 0.913425 0.318836
Si Si2 0.110499 0.909265 0.831779
Si Si3 0.191040 0.208004 0.172020
Si Si4 0.550883 0.707293 0.332592
Si Si5 0.353755 0.138589 0.320088
Si Si6 0.948590 0.370453 0.822143
O O1 0.248852 0.908163 0.500000
O O2 0.234248 0.834112 0.248178
O O3 0.309002 0.911563 0.287368
O O4 0.238076 0.000000 0.269646
O O5 0.158043 0.866601 0.835088
O O6 0.082182 0.863683 0.708954
O O7 0.114628 0.000000 0.799829
O O8 0.089841 0.899389 0.000000
O O9 0.162286 0.275825 0.256584
O O10 0.199511 0.234552 0.000000
O O11 0.560682 0.739855 0.500000
O O12 0.500000 0.678516 0.332256
O O13 0.553615 0.777401 0.212956
O O14 0.358548 0.143535 0.500000
O O15 0.400891 0.105180 0.253293
O O16 0.000000 0.395124 0.769594
O O17 0.946707 0.386712 0.000000
#
# Coordination Sequence:
#
# PCOD9488599 Si02
#       6
#    16  16  16  16  16  16
#     4  10  23  42  61  84 118 156 192 236 289 342
#     4  10  21  35  50  71 104 147 190 232 280 332
#     4  11  22  37  58  85 115 151 195 239 283 335
#     4  10  20  33  50  73 102 139 185 234 283 335
#     4  11  22  37  61  90 117 150 194 238 284 340
#     4  10  20  35  57  85 116 149 186 232 287 342
#
# _framework density 21.456658999999998
#
# number of rings (size 3 to 8) (size 9 to 14) (size 15 to 20)
#    0.000    1.667    1.667    3.000    0.000    7.667 
#    0.000    1.667    0.000    0.500    0.000    3.500 
#    0.000    0.000    0.000    0.000    0.000    0.000 
#
# Total GULP energy -267607.241717 kJ/mol
# GULP energy per Si atom -5575.150869 kJ/mol
# Density = 2.140782 g / cm^3
# Si number density = 21.456659 Si / 1000 Ang^3
#
#
#
# Elastic Constant Matrix: (Units=GPa)
#
#
# Indices 1 2 3 4 5 6 
#
# 1 106.1188 9.4697 30.5348 0.0000 0.0000 0.0000
# 2 9.4697 58.5616 7.3778 0.0000 0.0000 0.0000
# 3 30.5348 7.3778 52.7336 0.0000 0.0000 0.0000
# 4 0.0000 0.0000 0.0000 9.9848 0.0000 0.0000
# 5 0.0000 0.0000 0.0000 0.0000 36.4095 0.0000
# 6 0.0000 0.0000 0.0000 0.0000 0.0000 14.8314
#
#
#
# Elastic Compliance Matrix: (Units=1/GPa)
#
#
# Indices 1 2 3 4 5 6 
#
# 1 0.011368 -0.001027 -0.006439 0.000000 0.000000 0.000000
# 2 -0.001027 0.017475 -0.001850 0.000000 0.000000 0.000000
# 3 -0.006439 -0.001850 0.022950 0.000000 0.000000 0.000000
# 4 0.000000 0.000000 0.000000 0.100152 0.000000 0.000000
# 5 0.000000 0.000000 0.000000 0.000000 0.027465 0.000000
# 6 0.000000 0.000000 0.000000 0.000000 0.000000 0.067424
#
#
# Mechanical properties :
#
#
# Convention : Reuss Voigt Hill
#
# Bulk Modulus (GPa) = 30.15550 34.68651 32.42101
# Shear Modulus (GPa) = 18.08180 23.58058 20.83119
#
# Velocity S-wave (km/s) = 2.90610 3.31869 3.11923
# Velocity P-wave (km/s) = 5.03440 5.55751 5.30241
#
# Compressibility (1/GPa) = 0.03316144
#
# Stress axis : x y z
#
# Youngs Moduli (GPa) = 87.96843 57.22392 43.57234
#
# Poissons Ratio (x) = 0.05877 0.28055
# Poissons Ratio (y) = 0.09035 0.08062
# Poissons Ratio (z) = 0.56640 0.10588
#
# Static dielectric constant tensor:
#      x y z
#    x 1.850770 0.000000 0.000000 
#    y 0.000000 1.781990 0.000000 
#    z 0.000000 0.000000 1.779440 
# 
# From -- ./inp_files/16342.got.cif
#   From: 2010.05.17/outbox.cif.g08.bks.cpg/sg65_9_cif.got.tgz:16342.got - 2010.06.03 17:01:31.
