data_PCOD9488817
_publ_section_title
;
Structure prediction by ZEFSAII (Michael W. Deem and Ramdas Pophale) SiO2 
 PCOD9488817
Probable space group: C M M M
;
_chemical_formula_sum "Si O2"
_cell_formula_units_Z 104
_cell_length_a 8.767734
_cell_length_b 29.987891
_cell_length_c 23.162597
_cell_angle_alpha 90.000000
_cell_angle_beta 90.000000
_cell_angle_gamma 90.000000
_cell_volume 6090.045539
_symmetry_space_group_name_H-M "C M M M"
_symmetry_group_IT_number 65
_symmetry_cell_setting 'orthorhombic'
loop_
_space_group_symop_operation_xyz
x,y,z
-x,-y,z
x,-y,-z
-x,y,-z
-x,-y,-z
x,y,-z
-x,y,z
x,-y,z
1/2+x,1/2+y,z
1/2-x,1/2-y,z
1/2+x,1/2-y,-z
1/2-x,1/2+y,-z
1/2-x,1/2-y,-z
1/2+x,1/2+y,-z
1/2-x,1/2+y,z
1/2+x,1/2-y,z
loop_
_atom_site_type_symbol
_atom_site_label
_atom_site_fract_x
_atom_site_fract_y
_atom_site_fract_z
Si Si1 0.819838 0.201647 0.837504
Si Si2 0.175211 0.950615 0.069913
Si Si3 0.316569 0.700236 0.500000
Si Si4 0.322130 0.859705 0.068284
Si Si5 0.683266 0.358039 0.387811
Si Si6 0.817539 0.700243 0.285318
Si Si7 0.816417 0.449268 0.568340
O O1 0.750000 0.250000 0.849806
O O2 0.780024 0.170649 0.891177
O O3 0.740575 0.186241 0.778138
O O4 0.000000 0.204926 0.828213
O O5 0.286410 0.910711 0.085220
O O6 0.000000 0.941256 0.087643
O O7 0.218175 0.000000 0.090603
O O8 0.174181 0.952282 0.000000
O O9 0.500000 0.703824 0.500000
O O10 0.250000 0.750000 0.500000
O O11 0.271855 0.671854 0.443580
O O12 0.500000 0.849312 0.076592
O O13 0.286976 0.854416 0.000000
O O14 0.500000 0.357478 0.383240
O O15 0.756516 0.334088 0.332719
O O16 0.739645 0.408504 0.398143
O O17 0.750000 0.750000 0.296142
O O18 0.000000 0.702798 0.286445
O O19 0.780037 0.444532 0.500000
O O20 0.772227 0.500000 0.585538
O O21 0.000000 0.446022 0.573899
#
# Coordination Sequence:
#
# PCOD9488817 Si02
#       7
#    16  16   8  16  16  16  16
#     4  11  22  38  58  78 103 137 177 221 265 316
#     4   8  14  26  45  70 101 136 172 209 251 302
#     4  10  22  34  47  72 107 141 172 213 259 308
#     4  10  20  33  51  78 110 141 175 217 265 317
#     4  11  21  35  53  79 109 142 181 219 266 315
#     4  11  22  38  58  80 105 138 178 220 264 317
#     4   9  18  33  53  78 108 143 183 224 268 318
#
# _framework density 17.077048000000001
#
# number of rings (size 3 to 8) (size 9 to 14) (size 15 to 20)
#    0.000    2.000    0.769    6.000    0.000    4.308 
#    0.000    2.308    0.000    0.923    0.000    0.000 
#    0.000    0.000    0.000    0.000    0.000    0.000 
#
# Total GULP energy -290123.345792 kJ/mol
# GULP energy per Si atom -5579.295111 kJ/mol
# Density = 1.703818 g / cm^3
# Si number density = 17.077048 Si / 1000 Ang^3
#
#
#
# Elastic Constant Matrix: (Units=GPa)
#
#
# Indices 1 2 3 4 5 6 
#
# 1 91.2331 47.3082 40.2571 0.0000 0.0000 0.0000
# 2 47.3082 98.6054 52.6216 0.0000 0.0000 0.0000
# 3 40.2571 52.6216 58.9647 0.0000 0.0000 0.0000
# 4 0.0000 0.0000 0.0000 -8.8270 0.0000 0.0000
# 5 0.0000 0.0000 0.0000 0.0000 22.7280 0.0000
# 6 0.0000 0.0000 0.0000 0.0000 0.0000 34.2702
#
#
#
# Elastic Compliance Matrix: (Units=1/GPa)
#
#
# Indices 1 2 3 4 5 6 
#
# 1 0.016329 -0.003599 -0.007937 0.000000 0.000000 0.000000
# 2 -0.003599 0.020156 -0.015531 0.000000 0.000000 0.000000
# 3 -0.007937 -0.015531 0.036238 0.000000 0.000000 0.000000
# 4 0.000000 0.000000 0.000000 -0.113288 0.000000 0.000000
# 5 0.000000 0.000000 0.000000 0.000000 0.043999 0.000000
# 6 0.000000 0.000000 0.000000 0.000000 0.000000 0.029180
#
#
# Mechanical properties :
#
#
# Convention : Reuss Voigt Hill
#
# Bulk Modulus (GPa) = 53.79069 58.79745 56.29407
# Shear Modulus (GPa) = 53.79615 16.87533 35.33574
#
# Velocity S-wave (km/s) = 5.61875 3.14696 4.55378
# Velocity P-wave (km/s) = 8.58260 6.90723 7.79009
#
# Compressibility (1/GPa) = 0.01859058
#
# Stress axis : x y z
#
# Youngs Moduli (GPa) = 61.23990 49.61256 27.59519
#
# Poissons Ratio (x) = 0.17854 0.21902
# Poissons Ratio (y) = 0.22039 0.42858
# Poissons Ratio (z) = 0.48605 0.77053
#
# Static dielectric constant tensor:
#      x y z
#    x 1.576970 0.000000 0.000000 
#    y 0.000000 1.614280 0.000000 
#    z 0.000000 0.000000 1.564700 
# 
# From -- ./inp_files/68230.got.cif
#   From: 2010.05.17/outbox.cif.g08.bks.cpg/sg65_35_cif.got.tgz:68230.got - 2010.06.03 17:01:31.
