data_PCOD9488605
_publ_section_title
;
Structure prediction by ZEFSAII (Michael W. Deem and Ramdas Pophale) SiO2 
 PCOD9488605
Probable space group: C M M M
;
_chemical_formula_sum "Si O2"
_cell_formula_units_Z 96
_cell_length_a 21.617520
_cell_length_b 20.226826
_cell_length_c 12.902337
_cell_angle_alpha 90.000000
_cell_angle_beta 90.000000
_cell_angle_gamma 90.000000
_cell_volume 5641.596083
_symmetry_space_group_name_H-M "C M M M"
_symmetry_group_IT_number 65
_symmetry_cell_setting 'orthorhombic'
loop_
_space_group_symop_operation_xyz
x,y,z
-x,-y,z
x,-y,-z
-x,y,-z
-x,-y,-z
x,y,-z
-x,y,z
x,-y,z
1/2+x,1/2+y,z
1/2-x,1/2-y,z
1/2+x,1/2-y,-z
1/2-x,1/2+y,-z
1/2-x,1/2-y,-z
1/2+x,1/2+y,-z
1/2-x,1/2+y,z
1/2+x,1/2-y,z
loop_
_atom_site_type_symbol
_atom_site_label
_atom_site_fract_x
_atom_site_fract_y
_atom_site_fract_z
Si Si1 0.929290 0.765189 0.620508
Si Si2 0.624902 0.077470 0.115798
Si Si3 0.726164 0.576078 0.121509
Si Si4 0.345600 0.068150 0.500000
Si Si5 0.068968 0.387141 0.674269
Si Si6 0.302700 0.690717 0.281094
Si Si7 0.757159 0.171157 0.500000
O O1 0.915566 0.783791 0.500000
O O2 0.931686 0.685999 0.627032
O O3 0.872673 0.784339 0.696528
O O4 0.000000 0.788548 0.645233
O O5 0.699058 0.080732 0.127055
O O6 0.593224 0.115435 0.208891
O O7 0.607662 0.000000 0.124022
O O8 0.608568 0.100532 0.000000
O O9 0.709755 0.500000 0.152776
O O10 0.701032 0.636087 0.191016
O O11 0.709312 0.583557 0.000000
O O12 0.386723 0.070710 0.602277
O O13 0.307155 0.134424 0.500000
O O14 0.307739 0.000000 0.500000
O O15 0.000000 0.414175 0.672531
O O16 0.250000 0.750000 0.266701
O O17 0.287019 0.655009 0.390171
O O18 0.750000 0.250000 0.500000
#
# Coordination Sequence:
#
# PCOD9488605 Si02
#       7
#    16  16  16   8  16  16   8
#     4  10  20  36  55  76 107 146 181 216 269 331
#     4   9  18  33  50  68  97 138 180 221 264 311
#     4   9  19  36  56  79 109 142 175 221 284 341
#     4  12  23  32  46  74 109 136 170 229 284 323
#     4  11  21  33  49  69 100 145 186 217 261 323
#     4  11  20  32  57  86 110 140 184 233 270 316
#     4  10  20  33  50  73 104 137 174 220 275 325
#
# _framework density 17.016461
#
# number of rings (size 3 to 8) (size 9 to 14) (size 15 to 20)
#    0.000    1.833    1.667    5.750    0.000    4.333 
#    0.000    1.667    0.000    2.000    0.000    2.333 
#    0.000    0.000    0.000    0.000    0.000    0.000 
#
# Total GULP energy -267368.645721 kJ/mol
# GULP energy per Si atom -5570.180119 kJ/mol
# Density = 1.697773 g / cm^3
# Si number density = 17.016461 Si / 1000 Ang^3
#
#
#
# Elastic Constant Matrix: (Units=GPa)
#
#
# Indices 1 2 3 4 5 6 
#
# 1 81.4344 42.7368 26.2327 0.0000 0.0000 0.0000
# 2 42.7368 77.8970 43.0273 0.0000 0.0000 0.0000
# 3 26.2327 43.0273 80.8458 0.0000 0.0000 0.0000
# 4 0.0000 0.0000 0.0000 30.7895 0.0000 0.0000
# 5 0.0000 0.0000 0.0000 0.0000 39.4278 0.0000
# 6 0.0000 0.0000 0.0000 0.0000 0.0000 -0.5173
#
#
#
# Elastic Compliance Matrix: (Units=1/GPa)
#
#
# Indices 1 2 3 4 5 6 
#
# 1 0.017281 -0.009042 -0.000795 0.000000 0.000000 0.000000
# 2 -0.009042 0.022913 -0.009261 0.000000 0.000000 0.000000
# 3 -0.000795 -0.009261 0.017556 0.000000 0.000000 0.000000
# 4 0.000000 0.000000 0.000000 0.032479 0.000000 0.000000
# 5 0.000000 0.000000 0.000000 0.000000 0.025363 0.000000
# 6 0.000000 0.000000 0.000000 0.000000 0.000000 -1.933264
#
#
# Mechanical properties :
#
#
# Convention : Reuss Voigt Hill
#
# Bulk Modulus (GPa) = 51.13845 51.57451 51.35648
# Shear Modulus (GPa) = -2.82015 22.48536 9.83261
#
# Velocity S-wave (km/s) = -1.28876 3.63903 2.40642
# Velocity P-wave (km/s) = 5.28233 6.93045 6.16175
#
# Compressibility (1/GPa) = 0.01955476
#
# Stress axis : x y z
#
# Youngs Moduli (GPa) = 57.86681 43.64241 56.96019
#
# Poissons Ratio (x) = 0.39460 0.04529
# Poissons Ratio (y) = 0.52321 0.52751
# Poissons Ratio (z) = 0.04602 0.40417
#
# Static dielectric constant tensor:
#      x y z
#    x 1.613010 0.000000 0.000000 
#    y 0.000000 1.578090 0.000000 
#    z 0.000000 0.000000 1.577120 
# 
# From -- ./inp_files/29052.got.cif
#   From: 2010.05.17/outbox.cif.g08.bks.cpg/sg65_15_cif.got.tgz:29052.got - 2010.06.03 17:01:31.
