data_PCOD9488258
_publ_section_title
;
Structure prediction by ZEFSAII (Michael W. Deem and Ramdas Pophale) SiO2 
 PCOD9488258
Probable space group: C M M M
;
_chemical_formula_sum "Si O2"
_cell_formula_units_Z 72
_cell_length_a 10.378517
_cell_length_b 25.353889
_cell_length_c 16.907862
_cell_angle_alpha 90.000000
_cell_angle_beta 90.000000
_cell_angle_gamma 90.000000
_cell_volume 4449.063253
_symmetry_space_group_name_H-M "C M M M"
_symmetry_group_IT_number 65
_symmetry_cell_setting 'orthorhombic'
loop_
_space_group_symop_operation_xyz
x,y,z
-x,-y,z
x,-y,-z
-x,y,-z
-x,-y,-z
x,y,-z
-x,y,z
x,-y,z
1/2+x,1/2+y,z
1/2-x,1/2-y,z
1/2+x,1/2-y,-z
1/2-x,1/2+y,-z
1/2-x,1/2-y,-z
1/2+x,1/2+y,-z
1/2-x,1/2+y,z
1/2+x,1/2-y,z
loop_
_atom_site_type_symbol
_atom_site_label
_atom_site_fract_x
_atom_site_fract_y
_atom_site_fract_z
Si Si1 0.500000 0.937634 0.907147
Si Si2 0.749773 0.686172 0.308070
Si Si3 0.000000 0.813682 0.590059
Si Si4 0.500000 0.562231 0.904588
Si Si5 0.843097 0.699476 0.000000
Si Si6 0.758288 0.624387 0.143586
Si Si7 0.500000 0.813938 0.590198
O O1 0.374575 0.917038 0.862306
O O2 0.500000 0.000000 0.910179
O O3 0.500000 0.918973 0.000000
O O4 0.750000 0.750000 0.294490
O O5 0.625737 0.672068 0.360309
O O6 0.749476 0.655206 0.225954
O O7 0.874306 0.671961 0.359927
O O8 0.000000 0.833697 0.500000
O O9 0.000000 0.749878 0.585129
O O10 0.500000 0.500000 0.880949
O O11 0.373692 0.593736 0.875731
O O12 0.500000 0.563265 0.000000
O O13 0.750000 0.750000 0.000000
O O14 0.799971 0.666252 0.923477
O O15 0.000000 0.709291 0.000000
O O16 0.500000 0.833884 0.500000
#
# Coordination Sequence:
#
# PCOD9488258 Si02
#       7
#     8  16   8   8   8  16   8
#     4  11  21  38  60  76  98 138 189 240 286 325
#     4  10  20  32  49  77 110 145 175 214 261 316
#     4   9  17  32  50  71 103 145 182 212 258 315
#     4  11  23  38  58  80 104 138 187 242 292 321
#     4  12  26  40  55  78 112 160 193 218 253 322
#     4  12  21  39  54  80 111 143 186 225 276 326
#     4   9  17  30  50  73 103 139 178 218 260 309
#
# _framework density 16.183181999999999
#
# number of rings (size 3 to 8) (size 9 to 14) (size 15 to 20)
#    0.000    1.333    3.333    3.333    1.556    4.444 
#    4.000    0.000    0.000    0.000    0.000    0.000 
#    0.000   62.222    0.000    0.000    0.000    0.000 
#
# Total GULP energy -200844.816033 kJ/mol
# GULP energy per Si atom -5579.022668 kJ/mol
# Density = 1.614635 g / cm^3
# Si number density = 16.183182 Si / 1000 Ang^3
#
#
#
# Elastic Constant Matrix: (Units=GPa)
#
#
# Indices 1 2 3 4 5 6 
#
# 1 201.4563 63.3686 88.8367 0.0000 0.0000 0.0000
# 2 63.3686 80.2385 54.8980 0.0000 0.0000 0.0000
# 3 88.8367 54.8980 169.5209 0.0000 0.0000 0.0000
# 4 0.0000 0.0000 0.0000 8.5296 0.0000 0.0000
# 5 0.0000 0.0000 0.0000 0.0000 8.3215 0.0000
# 6 0.0000 0.0000 0.0000 0.0000 0.0000 15.6855
#
#
#
# Elastic Compliance Matrix: (Units=1/GPa)
#
#
# Indices 1 2 3 4 5 6 
#
# 1 0.007367 -0.004081 -0.002539 0.000000 0.000000 0.000000
# 2 -0.004081 0.018271 -0.003778 0.000000 0.000000 0.000000
# 3 -0.002539 -0.003778 0.008453 0.000000 0.000000 0.000000
# 4 0.000000 0.000000 0.000000 0.117238 0.000000 0.000000
# 5 0.000000 0.000000 0.000000 0.000000 0.120170 0.000000
# 6 0.000000 0.000000 0.000000 0.000000 0.000000 0.063753
#
#
# Mechanical properties :
#
#
# Convention : Reuss Voigt Hill
#
# Bulk Modulus (GPa) = 75.21954 96.15804 85.68879
# Shear Modulus (GPa) = 13.87036 22.78149 18.32592
#
# Velocity S-wave (km/s) = 2.93078 3.75604 3.36877
# Velocity P-wave (km/s) = 7.61798 8.85200 8.25807
#
# Compressibility (1/GPa) = 0.01329442
#
# Stress axis : x y z
#
# Youngs Moduli (GPa) = 135.73553 54.73190 118.29890
#
# Poissons Ratio (x) = 0.22336 0.30038
# Poissons Ratio (y) = 0.55395 0.44696
# Poissons Ratio (z) = 0.34465 0.20679
#
# Static dielectric constant tensor:
#      x y z
#    x 1.552420 0.000000 0.000000 
#    y 0.000000 1.533870 0.000000 
#    z 0.000000 0.000000 1.524150 
# 
# From -- ./inp_files/36746.got.cif
#   From: 2010.05.17/outbox.cif.g08.bks.cpg/sg65_19_cif.got.tgz:36746.got - 2010.06.03 17:01:31.
