data_PCOD9488433
_publ_section_title
;
Structure prediction by ZEFSAII (Michael W. Deem and Ramdas Pophale) SiO2 
 PCOD9488433
Probable space group: C M M M
;
_chemical_formula_sum "Si O2"
_cell_formula_units_Z 88
_cell_length_a 14.749660
_cell_length_b 9.058059
_cell_length_c 30.111224
_cell_angle_alpha 90.000000
_cell_angle_beta 90.000000
_cell_angle_gamma 90.000000
_cell_volume 4022.958608
_symmetry_space_group_name_H-M "C M M M"
_symmetry_group_IT_number 65
_symmetry_cell_setting 'orthorhombic'
loop_
_space_group_symop_operation_xyz
x,y,z
-x,-y,z
x,-y,-z
-x,y,-z
-x,-y,-z
x,y,-z
-x,y,z
x,-y,z
1/2+x,1/2+y,z
1/2-x,1/2-y,z
1/2+x,1/2-y,-z
1/2-x,1/2+y,-z
1/2-x,1/2-y,-z
1/2+x,1/2+y,-z
1/2-x,1/2+y,z
1/2+x,1/2-y,z
loop_
_atom_site_type_symbol
_atom_site_label
_atom_site_fract_x
_atom_site_fract_y
_atom_site_fract_z
Si Si1 0.348511 0.323677 0.766561
Si Si2 0.111220 0.168387 0.589979
Si Si3 0.649613 0.176935 0.048946
Si Si4 0.649384 0.677304 0.863923
Si Si5 0.106081 0.336423 0.677020
Si Si6 0.610798 0.168324 0.500000
O O1 0.343345 0.500000 0.762282
O O2 0.250000 0.250000 0.768213
O O3 0.391653 0.292988 0.815109
O O4 0.389790 0.254303 0.722512
O O5 0.143030 0.250989 0.634363
O O6 0.138629 0.249793 0.544915
O O7 0.000000 0.166276 0.590269
O O8 0.142109 0.000000 0.590063
O O9 0.750000 0.250000 0.046984
O O10 0.605888 0.250304 0.092408
O O11 0.656413 0.000000 0.054801
O O12 0.608566 0.203804 0.000000
O O13 0.655698 0.500000 0.869288
O O14 0.750000 0.750000 0.862146
O O15 0.146950 0.500000 0.682677
O O16 0.000000 0.353985 0.667309
O O17 0.500000 0.166983 0.500000
O O18 0.642085 0.000000 0.500000
#
# Coordination Sequence:
#
# PCOD9488433 Si02
#       6
#    16  16  16  16  16   8
#     4  10  20  33  49  69  93 123 159 196 234 277
#     4   9  16  26  41  62  89 120 152 187 229 275
#     4   9  15  21  31  49  74 105 139 174 215 263
#     4   9  16  25  38  56  79 109 144 181 221 265
#     4  10  20  33  49  70  96 125 157 194 236 279
#     4   9  15  23  37  59  88 119 150 185 226 273
#
# _framework density 21.874447
#
# number of rings (size 3 to 8) (size 9 to 14) (size 15 to 20)
#    0.000    2.636    0.000    4.091    0.000    7.636 
#    0.000    0.000    0.000    0.000    0.000    0.636 
#    0.000    0.727    0.000    8.000    0.000    8.909 
#
# Total GULP energy -245446.630149 kJ/mol
# GULP energy per Si atom -5578.332503 kJ/mol
# Density = 2.182466 g / cm^3
# Si number density = 21.874447 Si / 1000 Ang^3
#
#
#
# Elastic Constant Matrix: (Units=GPa)
#
#
# Indices 1 2 3 4 5 6 
#
# 1 51.0662 11.4883 12.6043 0.0000 0.0000 0.0000
# 2 11.4883 181.9557 133.9368 0.0000 0.0000 0.0000
# 3 12.6043 133.9368 266.2819 0.0000 0.0000 0.0000
# 4 0.0000 0.0000 0.0000 63.9734 0.0000 0.0000
# 5 0.0000 0.0000 0.0000 0.0000 34.7882 0.0000
# 6 0.0000 0.0000 0.0000 0.0000 0.0000 4.3768
#
#
#
# Elastic Compliance Matrix: (Units=1/GPa)
#
#
# Indices 1 2 3 4 5 6 
#
# 1 0.019905 -0.000894 -0.000492 0.000000 0.000000 0.000000
# 2 -0.000894 0.008767 -0.004367 0.000000 0.000000 0.000000
# 3 -0.000492 -0.004367 0.005976 0.000000 0.000000 0.000000
# 4 0.000000 0.000000 0.000000 0.015632 0.000000 0.000000
# 5 0.000000 0.000000 0.000000 0.000000 0.028745 0.000000
# 6 0.000000 0.000000 0.000000 0.000000 0.000000 0.228478
#
#
# Mechanical properties :
#
#
# Convention : Reuss Voigt Hill
#
# Bulk Modulus (GPa) = 43.21613 90.59585 66.90599
# Shear Modulus (GPa) = 15.30344 43.37930 29.34137
#
# Velocity S-wave (km/s) = 2.64787 4.45804 3.66642
# Velocity P-wave (km/s) = 5.39885 8.24651 6.96967
#
# Compressibility (1/GPa) = 0.02313951
#
# Stress axis : x y z
#
# Youngs Moduli (GPa) = 50.23826 114.06186 167.34987
#
# Poissons Ratio (x) = 0.10201 0.08240
# Poissons Ratio (y) = 0.04493 0.73089
# Poissons Ratio (z) = 0.02474 0.49816
#
# Static dielectric constant tensor:
#      x y z
#    x 1.891340 0.000000 0.000000 
#    y 0.000000 1.752310 0.000000 
#    z 0.000000 0.000000 1.836790 
# 
# From -- ./inp_files/78108.got.cif
#   From: 2010.05.17/outbox.cif.g08.bks.cpg/sg65_40_cif.got.tgz:78108.got - 2010.06.03 17:01:31.
