data_PCOD9488804
_publ_section_title
;
Structure prediction by ZEFSAII (Michael W. Deem and Ramdas Pophale) SiO2 
 PCOD9488804
Probable space group: C M M M
;
_chemical_formula_sum "Si O2"
_cell_formula_units_Z 104
_cell_length_a 29.624717
_cell_length_b 21.666658
_cell_length_c 8.740637
_cell_angle_alpha 90.000000
_cell_angle_beta 90.000000
_cell_angle_gamma 90.000000
_cell_volume 5610.340536
_symmetry_space_group_name_H-M "C M M M"
_symmetry_group_IT_number 65
_symmetry_cell_setting 'orthorhombic'
loop_
_space_group_symop_operation_xyz
x,y,z
-x,-y,z
x,-y,-z
-x,y,-z
-x,-y,-z
x,y,-z
-x,y,z
x,-y,z
1/2+x,1/2+y,z
1/2-x,1/2-y,z
1/2+x,1/2-y,-z
1/2-x,1/2+y,-z
1/2-x,1/2-y,-z
1/2+x,1/2+y,-z
1/2-x,1/2+y,z
1/2+x,1/2-y,z
loop_
_atom_site_type_symbol
_atom_site_label
_atom_site_fract_x
_atom_site_fract_y
_atom_site_fract_z
Si Si1 0.949244 0.683908 0.671105
Si Si2 0.419123 0.929133 0.822411
Si Si3 0.447521 0.369395 0.317282
Si Si4 0.181243 0.429465 0.315283
Si Si5 0.554382 0.500000 0.826548
Si Si6 0.382278 0.732492 0.823593
Si Si7 0.707600 0.208220 0.315636
O O1 0.931525 0.696973 0.500000
O O2 0.947578 0.612173 0.707480
O O3 0.917922 0.712725 0.798966
O O4 0.000000 0.707920 0.678536
O O5 0.366948 0.924459 0.768686
O O6 0.432435 0.000000 0.811551
O O7 0.423770 0.910627 0.000000
O O8 0.448020 0.365638 0.500000
O O9 0.500000 0.357447 0.265157
O O10 0.434317 0.437749 0.262363
O O11 0.409808 0.323400 0.253306
O O12 0.174817 0.427473 0.500000
O O13 0.199000 0.500000 0.281294
O O14 0.207376 0.365399 0.273275
O O15 0.500000 0.500000 0.835616
O O16 0.572171 0.500000 0.000000
O O17 0.336980 0.757307 0.745135
O O18 0.373759 0.719016 0.000000
O O19 0.706695 0.209427 0.500000
O O20 0.750000 0.250000 0.264363
#
# Coordination Sequence:
#
# PCOD9488804 Si02
#       7
#    16  16  16  16   8  16  16
#     4  11  23  37  53  75 107 148 191 233 278 332
#     4  10  20  33  51  77 108 143 184 230 279 327
#     4  10  20  35  57  84 115 153 196 238 281 337
#     4   9  17  32  57  84 109 142 185 230 276 334
#     4   9  17  31  53  83 117 151 191 237 283 337
#     4  12  24  37  56  82 113 149 187 234 287 338
#     4  10  21  38  61  86 113 147 186 232 286 347
#
# _framework density 18.537198
#
# number of rings (size 3 to 8) (size 9 to 14) (size 15 to 20)
#    0.000    1.769    1.538    3.462    0.000    6.462 
#    0.000    1.538    1.692    0.000    0.000    0.000 
#    0.000    0.000    0.000    0.000    0.000    0.000 
#
# Total GULP energy -289835.907496 kJ/mol
# GULP energy per Si atom -5573.767452 kJ/mol
# Density = 1.849501 g / cm^3
# Si number density = 18.537198 Si / 1000 Ang^3
#
#
#
# Elastic Constant Matrix: (Units=GPa)
#
#
# Indices 1 2 3 4 5 6 
#
# 1 72.9371 52.2204 12.5972 0.0000 0.0000 0.0000
# 2 52.2204 145.7919 27.4158 0.0000 0.0000 0.0000
# 3 12.5972 27.4158 31.2563 0.0000 0.0000 0.0000
# 4 0.0000 0.0000 0.0000 27.5366 0.0000 0.0000
# 5 0.0000 0.0000 0.0000 0.0000 -26.7074 0.0000
# 6 0.0000 0.0000 0.0000 0.0000 0.0000 28.9592
#
#
#
# Elastic Compliance Matrix: (Units=1/GPa)
#
#
# Indices 1 2 3 4 5 6 
#
# 1 0.018540 -0.006270 -0.001973 0.000000 0.000000 0.000000
# 2 -0.006270 0.010334 -0.006538 0.000000 0.000000 0.000000
# 3 -0.001973 -0.006538 0.038523 0.000000 0.000000 0.000000
# 4 0.000000 0.000000 0.000000 0.036315 0.000000 0.000000
# 5 0.000000 0.000000 0.000000 0.000000 -0.037443 0.000000
# 6 0.000000 0.000000 0.000000 0.000000 0.000000 0.034531
#
#
# Mechanical properties :
#
#
# Convention : Reuss Voigt Hill
#
# Bulk Modulus (GPa) = 26.42912 48.27244 37.35078
# Shear Modulus (GPa) = 34.97150 16.47448 25.72299
#
# Velocity S-wave (km/s) = 4.34816 2.98438 3.72915
# Velocity P-wave (km/s) = 6.28466 6.16221 6.22374
#
# Compressibility (1/GPa) = 0.03783705
#
# Stress axis : x y z
#
# Youngs Moduli (GPa) = 53.93709 96.76606 25.95859
#
# Poissons Ratio (x) = 0.60670 0.05121
# Poissons Ratio (y) = 0.33818 0.16970
# Poissons Ratio (z) = 0.10641 0.63261
#
# Static dielectric constant tensor:
#      x y z
#    x 1.621240 0.000000 0.000000 
#    y 0.000000 1.726900 0.000000 
#    z 0.000000 0.000000 1.628510 
# 
# From -- ./inp_files/18617.got.cif
#   From: 2010.05.17/outbox.cif.g08.bks.cpg/sg65_10_cif.got.tgz:18617.got - 2010.06.03 17:01:31.
