data_PCOD9488359
_publ_section_title
;
Structure prediction by ZEFSAII (Michael W. Deem and Ramdas Pophale) SiO2 
 PCOD9488359
Probable space group: C M M M
;
_chemical_formula_sum "Si O2"
_cell_formula_units_Z 120
_cell_length_a 21.341461
_cell_length_b 22.034116
_cell_length_c 15.081013
_cell_angle_alpha 90.000000
_cell_angle_beta 90.000000
_cell_angle_gamma 90.000000
_cell_volume 7091.698981
_symmetry_space_group_name_H-M "C M M M"
_symmetry_group_IT_number 65
_symmetry_cell_setting 'orthorhombic'
loop_
_space_group_symop_operation_xyz
x,y,z
-x,-y,z
x,-y,-z
-x,y,-z
-x,-y,-z
x,y,-z
-x,y,z
x,-y,z
1/2+x,1/2+y,z
1/2-x,1/2-y,z
1/2+x,1/2-y,-z
1/2-x,1/2+y,-z
1/2-x,1/2-y,-z
1/2+x,1/2+y,-z
1/2-x,1/2+y,z
1/2+x,1/2-y,z
loop_
_atom_site_type_symbol
_atom_site_label
_atom_site_fract_x
_atom_site_fract_y
_atom_site_fract_z
Si Si1 0.074280 0.565760 0.894544
Si Si2 0.677298 0.738813 0.741545
Si Si3 0.500000 0.573919 0.892784
Si Si4 0.336381 0.831903 0.103582
Si Si5 0.731999 0.565559 0.900989
Si Si6 0.876290 0.103771 0.219177
Si Si7 0.927607 0.905175 0.403241
Si Si8 0.071376 0.242582 0.397986
O O1 0.092661 0.500000 0.856625
O O2 0.107136 0.626016 0.861619
O O3 0.000000 0.570484 0.887029
O O4 0.089775 0.564289 0.000000
O O5 0.750000 0.750000 0.712367
O O6 0.671816 0.775487 0.833040
O O7 0.654253 0.670313 0.762990
O O8 0.626974 0.761538 0.668051
O O9 0.500000 0.500000 0.882063
O O10 0.560987 0.601379 0.841805
O O11 0.500000 0.585918 0.000000
O O12 0.278038 0.878038 0.109383
O O13 0.344816 0.814997 0.000000
O O14 0.765129 0.500000 0.895523
O O15 0.676882 0.568059 0.831882
O O16 0.704735 0.569768 0.000000
O O17 0.892550 0.076053 0.314844
O O18 0.902588 0.923361 0.500000
O O19 0.927853 0.831289 0.400381
O O20 0.000000 0.924398 0.397976
O O21 0.081046 0.262721 0.500000
O O22 0.000000 0.259735 0.370601
#
# Coordination Sequence:
#
# PCOD9488359 Si02
#       8
#    16  16   8  16  16  16  16  16
#     4   8  14  27  47  68  90 119 161 211 254 291
#     4  11  22  34  50  77 112 144 175 213 268 329
#     4  11  24  40  57  79 105 139 191 243 274 303
#     4  10  20  33  47  68 103 141 174 207 248 307
#     4  10  20  34  53  71  91 133 186 223 253 296
#     4  11  20  35  55  76 105 135 171 222 274 318
#     4   8  14  28  51  75  97 124 159 201 257 319
#     4   8  16  32  55  78 101 133 173 215 260 314
#
# _framework density 16.921192000000001
#
# number of rings (size 3 to 8) (size 9 to 14) (size 15 to 20)
#    0.000    2.467    2.000    2.400    0.933    4.800 
#    0.000    0.000    0.000    2.000    0.000    0.000 
#    0.000    1.600    0.000    7.333    0.000    0.667 
#
# Total GULP energy -334007.631240 kJ/mol
# GULP energy per Si atom -5566.793854 kJ/mol
# Density = 1.688268 g / cm^3
# Si number density = 16.921192 Si / 1000 Ang^3
#
#
#
# Elastic Constant Matrix: (Units=GPa)
#
#
# Indices 1 2 3 4 5 6 
#
# 1 88.1151 27.9542 53.3811 0.0000 0.0000 0.0000
# 2 27.9542 53.7704 32.1739 0.0000 0.0000 0.0000
# 3 53.3811 32.1739 111.9849 0.0000 0.0000 0.0000
# 4 0.0000 0.0000 0.0000 -2.5605 0.0000 0.0000
# 5 0.0000 0.0000 0.0000 0.0000 28.3982 0.0000
# 6 0.0000 0.0000 0.0000 0.0000 0.0000 24.2903
#
#
#
# Elastic Compliance Matrix: (Units=1/GPa)
#
#
# Indices 1 2 3 4 5 6 
#
# 1 0.016922 -0.004795 -0.006689 0.000000 0.000000 0.000000
# 2 -0.004795 0.023817 -0.004557 0.000000 0.000000 0.000000
# 3 -0.006689 -0.004557 0.013427 0.000000 0.000000 0.000000
# 4 0.000000 0.000000 0.000000 -0.390545 0.000000 0.000000
# 5 0.000000 0.000000 0.000000 0.000000 0.035213 0.000000
# 6 0.000000 0.000000 0.000000 0.000000 0.000000 0.041169
#
#
# Mechanical properties :
#
#
# Convention : Reuss Voigt Hill
#
# Bulk Modulus (GPa) = 45.28001 53.43209 49.35605
# Shear Modulus (GPa) = -22.67038 19.38301 -1.64369
#
# Velocity S-wave (km/s) = -3.66425 3.38818 -0.98666
# Velocity P-wave (km/s) = 2.98583 6.85215 5.28522
#
# Compressibility (1/GPa) = 0.02208480
#
# Stress axis : x y z
#
# Youngs Moduli (GPa) = 59.09388 41.98629 74.47424
#
# Poissons Ratio (x) = 0.20134 0.49814
# Poissons Ratio (y) = 0.28337 0.33938
# Poissons Ratio (z) = 0.39527 0.19133
#
# Static dielectric constant tensor:
#      x y z
#    x 1.590670 0.000000 0.000000 
#    y 0.000000 1.538450 0.000000 
#    z 0.000000 0.000000 1.573470 
# 
# From -- ./inp_files/44719.got.cif
#   From: 2010.05.17/outbox.cif.g08.bks.cpg/sg65_23_cif.got.tgz:44719.got - 2010.06.03 17:01:31.
