data_PCOD9488015
_publ_section_title
;
Structure prediction by ZEFSAII (Michael W. Deem and Ramdas Pophale) SiO2 
 PCOD9488015
Probable space group: C M M M
;
_chemical_formula_sum "Si O2"
_cell_formula_units_Z 120
_cell_length_a 31.472310
_cell_length_b 13.835621
_cell_length_c 15.560447
_cell_angle_alpha 90.000000
_cell_angle_beta 90.000000
_cell_angle_gamma 90.000000
_cell_volume 6775.624752
_symmetry_space_group_name_H-M "C M M M"
_symmetry_group_IT_number 65
_symmetry_cell_setting 'orthorhombic'
loop_
_space_group_symop_operation_xyz
x,y,z
-x,-y,z
x,-y,-z
-x,y,-z
-x,-y,-z
x,y,-z
-x,y,z
x,-y,z
1/2+x,1/2+y,z
1/2-x,1/2-y,z
1/2+x,1/2-y,-z
1/2-x,1/2+y,-z
1/2-x,1/2-y,-z
1/2+x,1/2+y,-z
1/2-x,1/2+y,z
1/2+x,1/2-y,z
loop_
_atom_site_type_symbol
_atom_site_label
_atom_site_fract_x
_atom_site_fract_y
_atom_site_fract_z
Si Si1 0.292733 0.888987 0.242723
Si Si2 0.725180 0.382601 0.097303
Si Si3 0.000000 0.392393 0.603247
Si Si4 0.658844 0.726043 0.666870
Si Si5 0.731229 0.607876 0.406145
Si Si6 0.136647 0.113624 0.826890
Si Si7 0.932833 0.231615 0.599956
Si Si8 0.952618 0.883575 0.230420
O O1 0.261809 0.855805 0.165318
O O2 0.328937 0.813349 0.269000
O O3 0.263366 0.889888 0.327483
O O4 0.306816 0.000000 0.226558
O O5 0.723453 0.500000 0.103567
O O6 0.677146 0.348201 0.119343
O O7 0.736225 0.357193 0.000000
O O8 0.040989 0.327843 0.623655
O O9 0.000000 0.500000 0.640176
O O10 0.000000 0.400786 0.500000
O O11 0.697494 0.692134 0.608162
O O12 0.650256 0.634545 0.728949
O O13 0.617109 0.748037 0.612934
O O14 0.751674 0.617117 0.500000
O O15 0.711040 0.500000 0.404009
O O16 0.087832 0.151388 0.826780
O O17 0.134158 0.000000 0.845899
O O18 0.942011 0.206533 0.500000
O O19 0.946219 0.153742 0.671896
O O20 0.000000 0.853840 0.201497
O O21 0.951107 0.000000 0.230619
#
# Coordination Sequence:
#
# PCOD9488015 Si02
#       8
#    16  16   8  16  16  16  16  16
#     4  10  21  35  48  68  99 129 168 216 254 296
#     4   9  17  32  54  75  99 134 171 210 256 305
#     4   9  18  34  51  63  85 121 159 206 252 286
#     4  11  20  31  49  68  95 129 162 204 256 291
#     4  10  20  33  49  68  94 131 169 202 241 292
#     4   9  17  30  48  71  98 127 162 201 241 299
#     4  10  20  32  46  68  94 121 165 209 245 296
#     4   9  17  29  47  71 100 131 157 194 254 305
#
# _framework density 17.710543999999999
#
# number of rings (size 3 to 8) (size 9 to 14) (size 15 to 20)
#    0.000    2.333    2.000    1.200    0.000    2.933 
#    0.000    2.000    0.000    0.400    0.000    2.800 
#    0.000    0.000    0.000    0.000    0.000   14.067 
#
# Total GULP energy -334007.251248 kJ/mol
# GULP energy per Si atom -5566.787521 kJ/mol
# Density = 1.767023 g / cm^3
# Si number density = 17.710544 Si / 1000 Ang^3
#
#
#
# Elastic Constant Matrix: (Units=GPa)
#
#
# Indices 1 2 3 4 5 6 
#
# 1 52.9554 2.8945 4.0484 0.0000 0.0000 0.0000
# 2 2.8945 43.5135 -6.5151 0.0000 0.0000 0.0000
# 3 4.0484 -6.5151 59.9686 0.0000 0.0000 0.0000
# 4 0.0000 0.0000 0.0000 3.2769 0.0000 0.0000
# 5 0.0000 0.0000 0.0000 0.0000 7.6671 0.0000
# 6 0.0000 0.0000 0.0000 0.0000 0.0000 12.2002
#
#
#
# Elastic Compliance Matrix: (Units=1/GPa)
#
#
# Indices 1 2 3 4 5 6 
#
# 1 0.019076 -0.001486 -0.001449 0.000000 0.000000 0.000000
# 2 -0.001486 0.023477 0.002651 0.000000 0.000000 0.000000
# 3 -0.001449 0.002651 0.017061 0.000000 0.000000 0.000000
# 4 0.000000 0.000000 0.000000 0.305166 0.000000 0.000000
# 5 0.000000 0.000000 0.000000 0.000000 0.130428 0.000000
# 6 0.000000 0.000000 0.000000 0.000000 0.000000 0.081966
#
#
# Mechanical properties :
#
#
# Convention : Reuss Voigt Hill
#
# Bulk Modulus (GPa) = 16.93603 17.47702 17.20653
# Shear Modulus (GPa) = 8.36926 15.02948 11.69937
#
# Velocity S-wave (km/s) = 2.17620 2.91626 2.57298
# Velocity P-wave (km/s) = 3.98722 4.60750 4.30853
#
# Compressibility (1/GPa) = 0.05904572
#
# Stress axis : x y z
#
# Youngs Moduli (GPa) = 52.42232 42.59467 58.61245
#
# Poissons Ratio (x) = 0.06329 0.08494
# Poissons Ratio (y) = 0.07790 -0.15538
# Poissons Ratio (z) = 0.07597 -0.11292
#
# Static dielectric constant tensor:
#      x y z
#    x 1.654370 0.000000 0.000000 
#    y 0.000000 1.662540 0.000000 
#    z 0.000000 0.000000 1.597910 
# 
# From -- ./inp_files/48111.got.cif
#   From: 2010.05.17/outbox.cif.g08.bks.cpg/sg65_25_cif.got.tgz:48111.got - 2010.06.03 17:01:31.
