data_PCOD9488540
_publ_section_title
;
Structure prediction by ZEFSAII (Michael W. Deem and Ramdas Pophale) SiO2 
 PCOD9488540
Probable space group: C M M M
;
_chemical_formula_sum "Si O2"
_cell_formula_units_Z 112
_cell_length_a 15.350793
_cell_length_b 27.334024
_cell_length_c 15.590724
_cell_angle_alpha 90.000000
_cell_angle_beta 90.000000
_cell_angle_gamma 90.000000
_cell_volume 6541.851331
_symmetry_space_group_name_H-M "C M M M"
_symmetry_group_IT_number 65
_symmetry_cell_setting 'orthorhombic'
loop_
_space_group_symop_operation_xyz
x,y,z
-x,-y,z
x,-y,-z
-x,y,-z
-x,-y,-z
x,y,-z
-x,y,z
x,-y,z
1/2+x,1/2+y,z
1/2-x,1/2-y,z
1/2+x,1/2-y,-z
1/2-x,1/2+y,-z
1/2-x,1/2-y,-z
1/2+x,1/2+y,-z
1/2-x,1/2+y,z
1/2+x,1/2-y,z
loop_
_atom_site_type_symbol
_atom_site_label
_atom_site_fract_x
_atom_site_fract_y
_atom_site_fract_z
Si Si1 0.400492 0.875038 0.902020
Si Si2 0.400086 0.342271 0.758787
Si Si3 0.399795 0.942297 0.259715
Si Si4 0.227245 0.405442 0.406474
Si Si5 0.735391 0.692834 0.900350
Si Si6 0.599049 0.556356 0.333642
Si Si7 0.304488 0.700672 0.401709
O O1 0.500000 0.856599 0.892020
O O2 0.386036 0.916349 0.831324
O O3 0.327741 0.834094 0.889070
O O4 0.392456 0.893281 0.000000
O O5 0.500000 0.331781 0.781024
O O6 0.334312 0.328208 0.834005
O O7 0.392938 0.400229 0.736318
O O8 0.373363 0.312215 0.672657
O O9 0.500000 0.932479 0.285770
O O10 0.333531 0.922531 0.330007
O O11 0.388454 0.000000 0.251038
O O12 0.190583 0.417522 0.500000
O O13 0.322025 0.430839 0.396973
O O14 0.242707 0.347215 0.400543
O O15 0.750000 0.750000 0.884739
O O16 0.708356 0.686201 0.000000
O O17 0.500000 0.560865 0.369128
O O18 0.608631 0.500000 0.303797
O O19 0.339530 0.704050 0.500000
O O20 0.250000 0.750000 0.384295
#
# Coordination Sequence:
#
# PCOD9488540 Si02
#       7
#    16  16  16  16  16  16  16
#     4   9  18  34  56  78  98 124 162 208 256 302
#     4  10  20  33  52  77 104 137 172 205 246 297
#     4  10  21  35  51  73 101 132 165 204 250 298
#     4  10  20  33  50  72 100 135 171 205 243 292
#     4  10  21  36  53  75 105 136 166 205 250 297
#     4   9  18  32  50  73 100 130 166 208 252 294
#     4   9  18  34  54  74 100 134 170 212 259 299
#
# _framework density 17.120536000000001
#
# number of rings (size 3 to 8) (size 9 to 14) (size 15 to 20)
#    0.000    2.429    0.000    2.571    0.000    3.143 
#    0.000    9.286    0.000    3.857    0.000    2.000 
#    0.000    0.000    0.000    0.000    0.000    0.143 
#
# Total GULP energy -312067.699844 kJ/mol
# GULP energy per Si atom -5572.637497 kJ/mol
# Density = 1.708157 g / cm^3
# Si number density = 17.120536 Si / 1000 Ang^3
#
#
#
# Elastic Constant Matrix: (Units=GPa)
#
#
# Indices 1 2 3 4 5 6 
#
# 1 103.1503 60.6258 84.5713 0.0000 0.0000 0.0000
# 2 60.6258 99.5257 52.5958 0.0000 0.0000 0.0000
# 3 84.5713 52.5958 108.9536 0.0000 0.0000 0.0000
# 4 0.0000 0.0000 0.0000 -9.3508 0.0000 0.0000
# 5 0.0000 0.0000 0.0000 0.0000 21.1554 0.0000
# 6 0.0000 0.0000 0.0000 0.0000 0.0000 19.6992
#
#
#
# Elastic Compliance Matrix: (Units=1/GPa)
#
#
# Indices 1 2 3 4 5 6 
#
# 1 0.031040 -0.008290 -0.020092 0.000000 0.000000 0.000000
# 2 -0.008290 0.015703 -0.001145 0.000000 0.000000 0.000000
# 3 -0.020092 -0.001145 0.025327 0.000000 0.000000 0.000000
# 4 0.000000 0.000000 0.000000 -0.106943 0.000000 0.000000
# 5 0.000000 0.000000 0.000000 0.000000 0.047269 0.000000
# 6 0.000000 0.000000 0.000000 0.000000 0.000000 0.050764
#
#
# Mechanical properties :
#
#
# Convention : Reuss Voigt Hill
#
# Bulk Modulus (GPa) = 76.83487 78.57951 77.70719
# Shear Modulus (GPa) = 39.50952 13.88988 26.69970
#
# Velocity S-wave (km/s) = 4.80909 2.85142 3.95335
# Velocity P-wave (km/s) = 8.70705 7.53911 8.14405
#
# Compressibility (1/GPa) = 0.01301492
#
# Stress axis : x y z
#
# Youngs Moduli (GPa) = 32.21663 63.68259 39.48421
#
# Poissons Ratio (x) = 0.52794 0.79330
# Poissons Ratio (y) = 0.26708 0.04523
# Poissons Ratio (z) = 0.64729 0.07294
#
# Static dielectric constant tensor:
#      x y z
#    x 1.573270 0.000000 0.000000 
#    y 0.000000 1.567470 0.000000 
#    z 0.000000 0.000000 1.575620 
# 
# From -- ./inp_files/41102.got.cif
#   From: 2010.05.17/outbox.cif.g08.bks.cpg/sg65_21_cif.got.tgz:41102.got - 2010.06.03 17:01:31.
