data_PCOD9488558
_publ_section_title
;
Structure prediction by ZEFSAII (Michael W. Deem and Ramdas Pophale) SiO2 
 PCOD9488558
Probable space group: C M M M
;
_chemical_formula_sum "Si O2"
_cell_formula_units_Z 88
_cell_length_a 18.443712
_cell_length_b 8.648521
_cell_length_c 29.962510
_cell_angle_alpha 90.000000
_cell_angle_beta 90.000000
_cell_angle_gamma 90.000000
_cell_volume 4779.344855
_symmetry_space_group_name_H-M "C M M M"
_symmetry_group_IT_number 65
_symmetry_cell_setting 'orthorhombic'
loop_
_space_group_symop_operation_xyz
x,y,z
-x,-y,z
x,-y,-z
-x,y,-z
-x,-y,-z
x,y,-z
-x,y,z
x,-y,z
1/2+x,1/2+y,z
1/2-x,1/2-y,z
1/2+x,1/2-y,-z
1/2-x,1/2+y,-z
1/2-x,1/2-y,-z
1/2+x,1/2+y,-z
1/2-x,1/2+y,z
1/2+x,1/2-y,z
loop_
_atom_site_type_symbol
_atom_site_label
_atom_site_fract_x
_atom_site_fract_y
_atom_site_fract_z
Si Si1 0.916624 0.688671 0.500000
Si Si2 0.668217 0.685295 0.762218
Si Si3 0.331096 0.187110 0.411301
Si Si4 0.167847 0.184839 0.139310
Si Si5 0.416298 0.813166 0.677665
Si Si6 0.832435 0.314979 0.048620
O O1 0.917354 0.500000 0.500000
O O2 0.874790 0.737490 0.455354
O O3 0.000000 0.739868 0.500000
O O4 0.671736 0.500000 0.759748
O O5 0.750000 0.750000 0.758325
O O6 0.638099 0.726773 0.811703
O O7 0.620435 0.749502 0.722206
O O8 0.250000 0.250000 0.412096
O O9 0.372125 0.236571 0.366240
O O10 0.329091 0.000000 0.411497
O O11 0.250000 0.250000 0.140186
O O12 0.132904 0.250705 0.094087
O O13 0.170506 0.000000 0.135791
O O14 0.500000 0.765279 0.674351
O O15 0.414148 0.000000 0.679052
O O16 0.829077 0.500000 0.051540
O O17 0.750000 0.250000 0.047886
O O18 0.864816 0.273252 0.000000
#
# Coordination Sequence:
#
# PCOD9488558 Si02
#       6
#     8  16  16  16  16  16
#     4   9  17  32  55  79 104 137 174 210 248 291
#     4  10  20  33  50  72  97 128 166 206 250 300
#     4  10  20  34  54  79 105 134 170 209 249 297
#     4   9  16  25  38  57  82 114 153 194 236 285
#     4  10  21  36  53  74 100 130 166 208 253 302
#     4   9  15  21  31  50  78 113 151 189 232 283
#
# _framework density 18.412565000000001
#
# number of rings (size 3 to 8) (size 9 to 14) (size 15 to 20)
#    0.000    2.455    0.000    4.091    0.000    8.000 
#    0.000    0.000    0.000    2.182    0.000    0.000 
#    0.000    0.727    0.000    8.000    0.000    8.909 
#
# Total GULP energy -245277.973572 kJ/mol
# GULP energy per Si atom -5574.499399 kJ/mol
# Density = 1.837066 g / cm^3
# Si number density = 18.412565 Si / 1000 Ang^3
#
#
#
# Elastic Constant Matrix: (Units=GPa)
#
#
# Indices 1 2 3 4 5 6 
#
# 1 98.2703 20.9303 88.4257 0.0000 0.0000 0.0000
# 2 20.9303 29.9877 46.2150 0.0000 0.0000 0.0000
# 3 88.4257 46.2150 241.1322 0.0000 0.0000 0.0000
# 4 0.0000 0.0000 0.0000 23.6111 0.0000 0.0000
# 5 0.0000 0.0000 0.0000 0.0000 -6.4270 0.0000
# 6 0.0000 0.0000 0.0000 0.0000 0.0000 19.6596
#
#
#
# Elastic Compliance Matrix: (Units=1/GPa)
#
#
# Indices 1 2 3 4 5 6 
#
# 1 0.015363 -0.002896 -0.005079 0.000000 0.000000 0.000000
# 2 -0.002896 0.047871 -0.008113 0.000000 0.000000 0.000000
# 3 -0.005079 -0.008113 0.007564 0.000000 0.000000 0.000000
# 4 0.000000 0.000000 0.000000 0.042353 0.000000 0.000000
# 5 0.000000 0.000000 0.000000 0.000000 -0.155593 0.000000
# 6 0.000000 0.000000 0.000000 0.000000 0.000000 0.050866
#
#
# Mechanical properties :
#
#
# Convention : Reuss Voigt Hill
#
# Bulk Modulus (GPa) = 25.89088 75.61470 50.75279
# Shear Modulus (GPa) = 93.50371 21.62334 57.56353
#
# Velocity S-wave (km/s) = 7.13392 3.43064 5.59741
# Velocity P-wave (km/s) = 9.05258 7.53979 8.33059
#
# Compressibility (1/GPa) = 0.03862364
#
# Stress axis : x y z
#
# Youngs Moduli (GPa) = 65.09298 20.88929 132.19750
#
# Poissons Ratio (x) = 0.06049 0.67139
# Poissons Ratio (y) = 0.18849 1.07253
# Poissons Ratio (z) = 0.33058 0.16948
#
# Static dielectric constant tensor:
#      x y z
#    x 1.587830 0.000000 0.000000 
#    y 0.000000 1.625230 0.000000 
#    z 0.000000 0.000000 1.687530 
# 
# From -- ./inp_files/77865.got.cif
#   From: 2010.05.17/outbox.cif.g08.bks.cpg/sg65_39_cif.got.tgz:77865.got - 2010.06.03 17:01:31.
