data_PCOD9488955
_publ_section_title
;
Structure prediction by ZEFSAII (Michael W. Deem and Ramdas Pophale) SiO2 
 PCOD9488955
Probable space group: C M M M
;
_chemical_formula_sum "Si O2"
_cell_formula_units_Z 88
_cell_length_a 18.617397
_cell_length_b 7.790295
_cell_length_c 31.236449
_cell_angle_alpha 90.000000
_cell_angle_beta 90.000000
_cell_angle_gamma 90.000000
_cell_volume 4530.378842
_symmetry_space_group_name_H-M "C M M M"
_symmetry_group_IT_number 65
_symmetry_cell_setting 'orthorhombic'
loop_
_space_group_symop_operation_xyz
x,y,z
-x,-y,z
x,-y,-z
-x,y,-z
-x,-y,-z
x,y,-z
-x,y,z
x,-y,z
1/2+x,1/2+y,z
1/2-x,1/2-y,z
1/2+x,1/2-y,-z
1/2-x,1/2+y,-z
1/2-x,1/2-y,-z
1/2+x,1/2+y,-z
1/2-x,1/2+y,z
1/2+x,1/2-y,z
loop_
_atom_site_type_symbol
_atom_site_label
_atom_site_fract_x
_atom_site_fract_y
_atom_site_fract_z
Si Si1 0.333738 0.794166 0.799690
Si Si2 0.333049 0.797175 0.631956
Si Si3 0.413731 0.797665 0.113719
Si Si4 0.916999 0.710747 0.715193
Si Si5 0.081650 0.793819 0.547644
Si Si6 0.912826 0.000000 0.951266
O O1 0.250000 0.750000 0.799692
O O2 0.373469 0.739547 0.843148
O O3 0.373465 0.730292 0.756987
O O4 0.340111 0.000000 0.799000
O O5 0.250000 0.750000 0.635179
O O6 0.378865 0.726349 0.671818
O O7 0.366331 0.750178 0.586254
O O8 0.338024 0.000000 0.635405
O O9 0.500000 0.784512 0.120120
O O10 0.392704 0.670428 0.075312
O O11 0.398060 0.000000 0.105476
O O12 0.916078 0.500000 0.715205
O O13 0.000000 0.762663 0.716873
O O14 0.103300 0.732620 0.500000
O O15 0.000000 0.731908 0.556056
O O16 0.078735 0.000000 0.545783
O O17 0.000000 0.000000 0.952909
O O18 0.886224 0.000000 0.000000
#
# Coordination Sequence:
#
# PCOD9488955 Si02
#       6
#    16  16  16  16  16   8
#     4  10  20  33  53  79 106 143 178 219 267 322
#     4  11  22  35  54  79 109 145 180 222 271 325
#     4   9  18  33  54  80 109 146 188 229 277 332
#     4   9  18  34  55  78 106 139 178 221 269 325
#     4   9  19  37  59  80 104 136 175 222 276 329
#     4   9  18  32  54  84 114 144 181 235 288 326
#
# _framework density 19.424424999999999
#
# number of rings (size 3 to 8) (size 9 to 14) (size 15 to 20)
#    0.000    2.455    0.000    2.727    1.273    4.364 
#    0.000    3.636    0.000    2.727    0.000    0.000 
#    0.000    0.000    0.000    0.000    0.000    0.000 
#
# Total GULP energy -245553.937311 kJ/mol
# GULP energy per Si atom -5580.771303 kJ/mol
# Density = 1.938021 g / cm^3
# Si number density = 19.424425 Si / 1000 Ang^3
#
#
#
# Elastic Constant Matrix: (Units=GPa)
#
#
# Indices 1 2 3 4 5 6 
#
# 1 117.4727 24.2991 102.3691 0.0000 0.0000 0.0000
# 2 24.2991 47.3502 45.1355 0.0000 0.0000 0.0000
# 3 102.3691 45.1355 204.0311 0.0000 0.0000 0.0000
# 4 0.0000 0.0000 0.0000 14.7757 0.0000 0.0000
# 5 0.0000 0.0000 0.0000 0.0000 -5.1343 0.0000
# 6 0.0000 0.0000 0.0000 0.0000 0.0000 -20.1713
#
#
#
# Elastic Compliance Matrix: (Units=1/GPa)
#
#
# Indices 1 2 3 4 5 6 
#
# 1 0.015143 -0.000670 -0.007449 0.000000 0.000000 0.000000
# 2 -0.000670 0.026792 -0.005591 0.000000 0.000000 0.000000
# 3 -0.007449 -0.005591 0.009876 0.000000 0.000000 0.000000
# 4 0.000000 0.000000 0.000000 0.067679 0.000000 0.000000
# 5 0.000000 0.000000 0.000000 0.000000 -0.194769 0.000000
# 6 0.000000 0.000000 0.000000 0.000000 0.000000 -0.049575
#
#
# Mechanical properties :
#
#
# Convention : Reuss Voigt Hill
#
# Bulk Modulus (GPa) = 40.99977 79.16238 60.08108
# Shear Modulus (GPa) = -55.98854 11.03071 -22.47891
#
# Velocity S-wave (km/s) = -5.37460 2.38561 -3.40553
# Velocity P-wave (km/s) = 4.16677 6.95921 3.94136
#
# Compressibility (1/GPa) = 0.02439038
#
# Stress axis : x y z
#
# Youngs Moduli (GPa) = 66.03767 37.32404 101.25914
#
# Poissons Ratio (x) = 0.02501 0.75433
# Poissons Ratio (y) = 0.04424 0.56612
# Poissons Ratio (z) = 0.49195 0.20867
#
# Static dielectric constant tensor:
#      x y z
#    x 1.630430 0.000000 0.000000 
#    y 0.000000 1.708470 0.000000 
#    z 0.000000 0.000000 1.684180 
# 
# From -- ./inp_files/77915.got.cif
#   From: 2010.05.17/outbox.cif.g08.bks.cpg/sg65_39_cif.got.tgz:77915.got - 2010.06.03 17:01:31.
