data_PCOD9488034
_publ_section_title
;
Structure prediction by ZEFSAII (Michael W. Deem and Ramdas Pophale) SiO2 
 PCOD9488034
Probable space group: C M M M
;
_chemical_formula_sum "Si O2"
_cell_formula_units_Z 88
_cell_length_a 7.822817
_cell_length_b 20.415928
_cell_length_c 31.002546
_cell_angle_alpha 90.000000
_cell_angle_beta 90.000000
_cell_angle_gamma 90.000000
_cell_volume 4951.418749
_symmetry_space_group_name_H-M "C M M M"
_symmetry_group_IT_number 65
_symmetry_cell_setting 'orthorhombic'
loop_
_space_group_symop_operation_xyz
x,y,z
-x,-y,z
x,-y,-z
-x,y,-z
-x,-y,-z
x,y,-z
-x,y,z
x,-y,z
1/2+x,1/2+y,z
1/2-x,1/2-y,z
1/2+x,1/2-y,-z
1/2-x,1/2+y,-z
1/2-x,1/2-y,-z
1/2+x,1/2+y,-z
1/2-x,1/2+y,z
1/2+x,1/2-y,z
loop_
_atom_site_type_symbol
_atom_site_label
_atom_site_fract_x
_atom_site_fract_y
_atom_site_fract_z
Si Si1 0.295547 0.426108 0.207641
Si Si2 0.703093 0.175483 0.718530
Si Si3 0.708791 0.924748 0.451246
Si Si4 0.303255 0.579732 0.887971
Si Si5 0.000000 0.420064 0.950382
Si Si6 0.206139 0.675161 0.621332
O O1 0.500000 0.430965 0.203734
O O2 0.228897 0.500000 0.215777
O O3 0.258294 0.376577 0.245974
O O4 0.238992 0.402496 0.160156
O O5 0.500000 0.172123 0.715919
O O6 0.750000 0.250000 0.730215
O O7 0.771468 0.162366 0.670040
O O8 0.761914 0.906877 0.500000
O O9 0.500000 0.923665 0.450948
O O10 0.769986 0.875384 0.414531
O O11 0.759676 0.000000 0.443032
O O12 0.500000 0.601547 0.894682
O O13 0.306995 0.500000 0.887967
O O14 0.169187 0.600714 0.924224
O O15 0.000000 0.500000 0.950345
O O16 0.000000 0.398742 0.000000
O O17 0.250000 0.750000 0.610368
O O18 0.000000 0.669707 0.622278
#
# Coordination Sequence:
#
# PCOD9488034 Si02
#       6
#    16  16  16  16   8  16
#     4   9  18  32  49  69  94 126 161 198 242 291
#     4  10  20  32  47  67  94 127 157 198 245 287
#     4   8  14  26  45  67  90 117 150 191 234 274
#     4   8  15  27  41  60  90 126 160 200 247 291
#     4   9  16  24  38  62  92 128 166 202 242 294
#     4   9  18  31  46  66  91 118 151 188 233 284
#
# _framework density 17.772683000000001
#
# number of rings (size 3 to 8) (size 9 to 14) (size 15 to 20)
#    0.000    3.182    0.000    2.182    1.273    2.545 
#    0.000    3.636    0.000    0.545    0.000    1.273 
#    0.000    0.727    0.364    0.000    0.000    0.000 
#
# Total GULP energy -245095.995626 kJ/mol
# GULP energy per Si atom -5570.363537 kJ/mol
# Density = 1.773223 g / cm^3
# Si number density = 17.772683 Si / 1000 Ang^3
#
#
#
# Elastic Constant Matrix: (Units=GPa)
#
#
# Indices 1 2 3 4 5 6 
#
# 1 42.7938 19.0739 40.3342 0.0000 0.0000 0.0000
# 2 19.0739 71.4911 99.2139 0.0000 0.0000 0.0000
# 3 40.3342 99.2139 180.1358 0.0000 0.0000 0.0000
# 4 0.0000 0.0000 0.0000 -8.4938 0.0000 0.0000
# 5 0.0000 0.0000 0.0000 0.0000 6.2879 0.0000
# 6 0.0000 0.0000 0.0000 0.0000 0.0000 16.1937
#
#
#
# Elastic Compliance Matrix: (Units=1/GPa)
#
#
# Indices 1 2 3 4 5 6 
#
# 1 0.030141 0.005620 -0.009844 0.000000 0.000000 0.000000
# 2 0.005620 0.060406 -0.034528 0.000000 0.000000 0.000000
# 3 -0.009844 -0.034528 0.026773 0.000000 0.000000 0.000000
# 4 0.000000 0.000000 0.000000 -0.117732 0.000000 0.000000
# 5 0.000000 0.000000 0.000000 0.000000 0.159035 0.000000
# 6 0.000000 0.000000 0.000000 0.000000 0.000000 0.061752
#
#
# Mechanical properties :
#
#
# Convention : Reuss Voigt Hill
#
# Bulk Modulus (GPa) = 25.11625 67.96273 46.53949
# Shear Modulus (GPa) = 16.06925 11.85081 13.96003
#
# Velocity S-wave (km/s) = 3.01018 2.58505 2.80568
# Velocity P-wave (km/s) = 5.12291 6.87262 6.06124
#
# Compressibility (1/GPa) = 0.03981486
#
# Stress axis : x y z
#
# Youngs Moduli (GPa) = 33.17700 16.55457 37.35120
#
# Poissons Ratio (x) = -0.09303 0.36769
# Poissons Ratio (y) = -0.18645 1.28968
# Poissons Ratio (z) = 0.32660 0.57160
#
# Static dielectric constant tensor:
#      x y z
#    x 1.639190 0.000000 0.000000 
#    y 0.000000 1.560080 0.000000 
#    z 0.000000 0.000000 1.631590 
# 
# From -- ./inp_files/75353.got.cif
#   From: 2010.05.17/outbox.cif.g08.bks.cpg/sg65_38_cif.got.tgz:75353.got - 2010.06.03 17:01:31.
