data_PCOD9488663
_publ_section_title
;
Structure prediction by ZEFSAII (Michael W. Deem and Ramdas Pophale) SiO2 
 PCOD9488663
Probable space group: C M M M
;
_chemical_formula_sum "Si O2"
_cell_formula_units_Z 88
_cell_length_a 17.470630
_cell_length_b 18.091183
_cell_length_c 15.079859
_cell_angle_alpha 90.000000
_cell_angle_beta 90.000000
_cell_angle_gamma 90.000000
_cell_volume 4766.206051
_symmetry_space_group_name_H-M "C M M M"
_symmetry_group_IT_number 65
_symmetry_cell_setting 'orthorhombic'
loop_
_space_group_symop_operation_xyz
x,y,z
-x,-y,z
x,-y,-z
-x,y,-z
-x,-y,-z
x,y,-z
-x,y,z
x,-y,z
1/2+x,1/2+y,z
1/2-x,1/2-y,z
1/2+x,1/2-y,-z
1/2-x,1/2+y,-z
1/2-x,1/2-y,-z
1/2+x,1/2+y,-z
1/2-x,1/2+y,z
1/2+x,1/2-y,z
loop_
_atom_site_type_symbol
_atom_site_label
_atom_site_fract_x
_atom_site_fract_y
_atom_site_fract_z
Si Si1 0.671966 0.584520 0.106014
Si Si2 0.592456 0.720142 0.500000
Si Si3 0.672954 0.151945 0.169168
Si Si4 0.082908 0.219096 0.894040
Si Si5 0.782573 0.090993 0.500000
Si Si6 0.187784 0.685978 0.640039
Si Si7 0.913812 0.587500 0.000000
O O1 0.663346 0.500000 0.130922
O O2 0.742422 0.621540 0.155848
O O3 0.597280 0.633130 0.122434
O O4 0.688583 0.588402 0.000000
O O5 0.500000 0.712782 0.500000
O O6 0.638442 0.640814 0.500000
O O7 0.624924 0.769128 0.417407
O O8 0.653388 0.236325 0.145396
O O9 0.653843 0.147634 0.272650
O O10 0.625391 0.111790 0.091508
O O11 0.000000 0.243139 0.859775
O O12 0.084702 0.230020 0.000000
O O13 0.733258 0.124378 0.582555
O O14 0.790009 0.000000 0.500000
O O15 0.250000 0.750000 0.664780
O O16 0.913856 0.500000 0.000000
O O17 0.000000 0.616154 0.000000
#
# Coordination Sequence:
#
# PCOD9488663 Si02
#       7
#    16   8  16  16   8  16   8
#     4  10  20  33  50  75 107 143 185 233 282 332
#     4   9  19  38  62  90 121 147 180 228 280 341
#     4  12  20  35  59  79 107 148 197 242 280 326
#     4  10  20  33  50  75 107 143 185 233 282 332
#     4   9  19  38  62  90 121 147 180 228 280 341
#     4   9  20  37  58  85 114 149 189 229 278 337
#     4  11  24  38  51  76 116 152 189 247 304 342
#
# _framework density 18.463322000000002
#
# number of rings (size 3 to 8) (size 9 to 14) (size 15 to 20)
#    0.000    1.909    1.818    3.818    0.000    4.909 
#    0.000    1.818    0.000    4.364    0.000    5.091 
#    0.000    0.000    0.000    0.000    0.000    0.000 
#
# Total GULP energy -245002.399281 kJ/mol
# GULP energy per Si atom -5568.236347 kJ/mol
# Density = 1.842130 g / cm^3
# Si number density = 18.463322 Si / 1000 Ang^3
#
#
#
# Elastic Constant Matrix: (Units=GPa)
#
#
# Indices 1 2 3 4 5 6 
#
# 1 73.1025 38.2438 39.6254 0.0000 0.0000 0.0000
# 2 38.2438 133.4762 33.8068 0.0000 0.0000 0.0000
# 3 39.6254 33.8068 98.9244 0.0000 0.0000 0.0000
# 4 0.0000 0.0000 0.0000 1.7582 0.0000 0.0000
# 5 0.0000 0.0000 0.0000 0.0000 2.0718 0.0000
# 6 0.0000 0.0000 0.0000 0.0000 0.0000 28.8259
#
#
#
# Elastic Compliance Matrix: (Units=1/GPa)
#
#
# Indices 1 2 3 4 5 6 
#
# 1 0.019148 -0.003879 -0.006344 0.000000 0.000000 0.000000
# 2 -0.003879 0.008988 -0.001518 0.000000 0.000000 0.000000
# 3 -0.006344 -0.001518 0.013169 0.000000 0.000000 0.000000
# 4 0.000000 0.000000 0.000000 0.568752 0.000000 0.000000
# 5 0.000000 0.000000 0.000000 0.000000 0.482665 0.000000
# 6 0.000000 0.000000 0.000000 0.000000 0.000000 0.034691
#
#
# Mechanical properties :
#
#
# Convention : Reuss Voigt Hill
#
# Bulk Modulus (GPa) = 56.11051 58.76168 57.43609
# Shear Modulus (GPa) = 4.32213 19.45300 11.88757
#
# Velocity S-wave (km/s) = 1.53167 3.24945 2.54017
# Velocity P-wave (km/s) = 5.79519 6.78040 6.30706
#
# Compressibility (1/GPa) = 0.01782197
#
# Stress axis : x y z
#
# Youngs Moduli (GPa) = 52.22528 111.26089 75.93832
#
# Poissons Ratio (x) = 0.43163 0.48176
# Poissons Ratio (y) = 0.20260 0.11524
# Poissons Ratio (z) = 0.33132 0.16885
#
# Static dielectric constant tensor:
#      x y z
#    x 1.642780 0.000000 0.000000 
#    y 0.000000 1.673370 0.000000 
#    z 0.000000 0.000000 1.664530 
# 
# From -- ./inp_files/42559.got.cif
#   From: 2010.05.17/outbox.cif.g08.bks.cpg/sg65_22_cif.got.tgz:42559.got - 2010.06.03 17:01:31.
