data_PCOD9488440
_publ_section_title
;
Structure prediction by ZEFSAII (Michael W. Deem and Ramdas Pophale) SiO2 
 PCOD9488440
Probable space group: C M M M
;
_chemical_formula_sum "Si O2"
_cell_formula_units_Z 88
_cell_length_a 7.606998
_cell_length_b 18.451949
_cell_length_c 29.949320
_cell_angle_alpha 90.000000
_cell_angle_beta 90.000000
_cell_angle_gamma 90.000000
_cell_volume 4203.804530
_symmetry_space_group_name_H-M "C M M M"
_symmetry_group_IT_number 65
_symmetry_cell_setting 'orthorhombic'
loop_
_space_group_symop_operation_xyz
x,y,z
-x,-y,z
x,-y,-z
-x,y,-z
-x,-y,-z
x,y,-z
-x,y,z
x,-y,z
1/2+x,1/2+y,z
1/2-x,1/2-y,z
1/2+x,1/2-y,-z
1/2-x,1/2+y,-z
1/2-x,1/2-y,-z
1/2+x,1/2+y,-z
1/2-x,1/2+y,z
1/2+x,1/2-y,z
loop_
_atom_site_type_symbol
_atom_site_label
_atom_site_fract_x
_atom_site_fract_y
_atom_site_fract_z
Si Si1 0.284466 0.083979 0.500000
Si Si2 0.211284 0.165346 0.233656
Si Si3 0.709216 0.581652 0.320774
Si Si4 0.215023 0.084674 0.145145
Si Si5 0.291606 0.165124 0.411297
Si Si6 0.288685 0.587139 0.952054
O O1 0.500000 0.085470 0.500000
O O2 0.222096 0.124897 0.455464
O O3 0.232176 0.000000 0.500000
O O4 0.250000 0.250000 0.236601
O O5 0.279719 0.123194 0.277253
O O6 0.276411 0.130479 0.187425
O O7 0.000000 0.157312 0.233178
O O8 0.500000 0.575773 0.314280
O O9 0.780213 0.500000 0.325108
O O10 0.733852 0.627063 0.365742
O O11 0.275709 0.112651 0.096393
O O12 0.000000 0.086090 0.144459
O O13 0.264104 0.000000 0.150196
O O14 0.500000 0.157714 0.412743
O O15 0.250000 0.250000 0.411684
O O16 0.500000 0.597833 0.952570
O O17 0.260976 0.500000 0.951682
O O18 0.219981 0.614726 0.000000
#
# Coordination Sequence:
#
# PCOD9488440 Si02
#       6
#     8  16  16  16  16  16
#     4   9  19  36  57  81 108 139 176 215 252 292
#     4  10  20  33  49  69  95 128 162 197 240 290
#     4  10  21  37  56  78 103 130 165 210 256 302
#     4   8  13  23  41  63  86 116 155 195 236 283
#     4  11  22  37  58  82 110 142 174 208 249 297
#     4   7   9  14  28  54  85 111 139 184 238 282
#
# _framework density 20.933419000000001
#
# number of rings (size 3 to 8) (size 9 to 14) (size 15 to 20)
#    0.000    2.818    0.000    4.091    0.000    5.455 
#    0.000    1.364    0.000    5.455    0.000    0.000 
#    0.000    0.000    0.000    4.545    0.000    3.636 
#
# Total GULP energy -245463.217363 kJ/mol
# GULP energy per Si atom -5578.709486 kJ/mol
# Density = 2.088577 g / cm^3
# Si number density = 20.933419 Si / 1000 Ang^3
#
#
#
# Elastic Constant Matrix: (Units=GPa)
#
#
# Indices 1 2 3 4 5 6 
#
# 1 43.4586 -0.5999 7.3863 0.0000 0.0000 0.0000
# 2 -0.5999 150.7239 122.1836 0.0000 0.0000 0.0000
# 3 7.3863 122.1836 264.8659 0.0000 0.0000 0.0000
# 4 0.0000 0.0000 0.0000 -7.2274 0.0000 0.0000
# 5 0.0000 0.0000 0.0000 0.0000 -5.7691 0.0000
# 6 0.0000 0.0000 0.0000 0.0000 0.0000 10.4521
#
#
#
# Elastic Compliance Matrix: (Units=1/GPa)
#
#
# Indices 1 2 3 4 5 6 
#
# 1 0.023211 0.000986 -0.001102 0.000000 0.000000 0.000000
# 2 0.000986 0.010640 -0.004936 0.000000 0.000000 0.000000
# 3 -0.001102 -0.004936 0.006083 0.000000 0.000000 0.000000
# 4 0.000000 0.000000 0.000000 -0.138362 0.000000 0.000000
# 5 0.000000 0.000000 0.000000 0.000000 -0.173336 0.000000
# 6 0.000000 0.000000 0.000000 0.000000 0.000000 0.095675
#
#
# Mechanical properties :
#
#
# Convention : Reuss Voigt Hill
#
# Bulk Modulus (GPa) = 33.52304 79.66536 56.59420
# Shear Modulus (GPa) = -32.04264 21.49633 -5.27316
#
# Velocity S-wave (km/s) = -3.91665 3.20799 -1.58886
# Velocity P-wave (km/s) = 2.09873 7.20144 4.87114
#
# Compressibility (1/GPa) = 0.02983023
#
# Stress axis : x y z
#
# Youngs Moduli (GPa) = 43.08240 93.98895 164.39220
#
# Poissons Ratio (x) = -0.09265 0.18116
# Poissons Ratio (y) = -0.04247 0.81137
# Poissons Ratio (z) = 0.04748 0.46389
#
# Static dielectric constant tensor:
#      x y z
#    x 1.806420 0.000000 0.000000 
#    y 0.000000 1.693370 0.000000 
#    z 0.000000 0.000000 1.781620 
# 
# From -- ./inp_files/76606.got.cif
#   From: 2010.05.17/outbox.cif.g08.bks.cpg/sg65_39_cif.got.tgz:76606.got - 2010.06.03 17:01:31.
