data_PCOD9488661
_publ_section_title
;
Structure prediction by ZEFSAII (Michael W. Deem and Ramdas Pophale) SiO2 
 PCOD9488661
Probable space group: C M M M
;
_chemical_formula_sum "Si O2"
_cell_formula_units_Z 96
_cell_length_a 19.358400
_cell_length_b 31.741041
_cell_length_c 7.832508
_cell_angle_alpha 90.000000
_cell_angle_beta 90.000000
_cell_angle_gamma 90.000000
_cell_volume 4812.729719
_symmetry_space_group_name_H-M "C M M M"
_symmetry_group_IT_number 65
_symmetry_cell_setting 'orthorhombic'
loop_
_space_group_symop_operation_xyz
x,y,z
-x,-y,z
x,-y,-z
-x,y,-z
-x,-y,-z
x,y,-z
-x,y,z
x,-y,z
1/2+x,1/2+y,z
1/2-x,1/2-y,z
1/2+x,1/2-y,-z
1/2-x,1/2+y,-z
1/2-x,1/2-y,-z
1/2+x,1/2+y,-z
1/2-x,1/2+y,z
1/2+x,1/2-y,z
loop_
_atom_site_type_symbol
_atom_site_label
_atom_site_fract_x
_atom_site_fract_y
_atom_site_fract_z
Si Si1 0.579476 0.705646 0.206200
Si Si2 0.921534 0.699645 0.295169
Si Si3 0.175335 0.625199 0.298100
Si Si4 0.334023 0.373672 0.202897
Si Si5 0.078532 0.451816 0.206330
Si Si6 0.920116 0.952788 0.208507
O O1 0.500000 0.699037 0.264114
O O2 0.601051 0.752662 0.257988
O O3 0.629492 0.668731 0.270105
O O4 0.578804 0.704716 0.000000
O O5 0.924752 0.694894 0.500000
O O6 0.870279 0.663985 0.227607
O O7 0.000000 0.694490 0.228433
O O8 0.181899 0.631054 0.500000
O O9 0.252433 0.624881 0.227714
O O10 0.133493 0.582252 0.266060
O O11 0.371082 0.415651 0.271532
O O12 0.347176 0.373609 0.000000
O O13 0.093113 0.500000 0.260986
O O14 0.000000 0.441047 0.262100
O O15 0.078739 0.451624 0.000000
O O16 0.000000 0.944944 0.255414
O O17 0.900770 0.000000 0.264776
O O18 0.917976 0.953180 0.000000
#
# Coordination Sequence:
#
# PCOD9488661 Si02
#       6
#    16  16  16  16  16  16
#     4   9  18  33  54  78 101 129 170 220 269 313
#     4   9  19  36  55  73  96 130 172 215 257 305
#     4  11  23  36  51  75 108 143 176 210 252 305
#     4  10  20  33  50  75 107 138 169 211 261 310
#     4   9  19  37  60  83 105 132 170 215 260 306
#     4   8  14  27  50  77 100 126 165 210 253 299
#
# _framework density 19.947099000000001
#
# number of rings (size 3 to 8) (size 9 to 14) (size 15 to 20)
#    0.000    2.667    0.000    2.500    0.000    6.667 
#    0.000    7.500    0.000    1.500    0.000    1.167 
#    0.000    0.000    0.000    0.000    0.000    0.000 
#
# Total GULP energy -267863.504645 kJ/mol
# GULP energy per Si atom -5580.489680 kJ/mol
# Density = 1.990170 g / cm^3
# Si number density = 19.947099 Si / 1000 Ang^3
#
#
#
# Elastic Constant Matrix: (Units=GPa)
#
#
# Indices 1 2 3 4 5 6 
#
# 1 113.3052 112.2242 -9.2385 0.0000 0.0000 0.0000
# 2 112.2242 169.4990 -5.6152 0.0000 0.0000 0.0000
# 3 -9.2385 -5.6152 17.1535 0.0000 0.0000 0.0000
# 4 0.0000 0.0000 0.0000 36.2054 0.0000 0.0000
# 5 0.0000 0.0000 0.0000 0.0000 4.4408 0.0000
# 6 0.0000 0.0000 0.0000 0.0000 0.0000 -4.5040
#
#
#
# Elastic Compliance Matrix: (Units=1/GPa)
#
#
# Indices 1 2 3 4 5 6 
#
# 1 0.026877 -0.017506 0.008745 0.000000 0.000000 0.000000
# 2 -0.017506 0.017366 -0.003743 0.000000 0.000000 0.000000
# 3 0.008745 -0.003743 0.061782 0.000000 0.000000 0.000000
# 4 0.000000 0.000000 0.000000 0.027620 0.000000 0.000000
# 5 0.000000 0.000000 0.000000 0.000000 0.225185 0.000000
# 6 0.000000 0.000000 0.000000 0.000000 0.000000 -0.222026
#
#
# Mechanical properties :
#
#
# Convention : Reuss Voigt Hill
#
# Bulk Modulus (GPa) = 12.34306 54.96654 33.65480
# Shear Modulus (GPa) = 26.48054 20.73425 23.60739
#
# Velocity S-wave (km/s) = 3.64749 3.22757 3.44394
# Velocity P-wave (km/s) = 4.89288 6.44248 5.72039
#
# Compressibility (1/GPa) = 0.08101719
#
# Stress axis : x y z
#
# Youngs Moduli (GPa) = 37.20599 57.58345 16.18606
#
# Poissons Ratio (x) = 1.00804 -0.14155
# Poissons Ratio (y) = 0.65131 0.06059
# Poissons Ratio (z) = -0.32537 0.21555
#
# Static dielectric constant tensor:
#      x y z
#    x 1.674340 0.000000 0.000000 
#    y 0.000000 1.702460 0.000000 
#    z 0.000000 0.000000 1.736110 
# 
# From -- ./inp_files/12323.got.cif
#   From: 2010.05.17/outbox.cif.g08.bks.cpg/sg65_7_cif.got.tgz:12323.got - 2010.06.03 17:01:31.
