data_PCOD9488501
_publ_section_title
;
Structure prediction by ZEFSAII (Michael W. Deem and Ramdas Pophale) SiO2 
 PCOD9488501
Probable space group: C M M M
;
_chemical_formula_sum "Si O2"
_cell_formula_units_Z 80
_cell_length_a 8.065501
_cell_length_b 27.815976
_cell_length_c 20.460185
_cell_angle_alpha 90.000000
_cell_angle_beta 90.000000
_cell_angle_gamma 90.000000
_cell_volume 4590.238049
_symmetry_space_group_name_H-M "C M M M"
_symmetry_group_IT_number 65
_symmetry_cell_setting 'orthorhombic'
loop_
_space_group_symop_operation_xyz
x,y,z
-x,-y,z
x,-y,-z
-x,y,-z
-x,-y,-z
x,y,-z
-x,y,z
x,-y,z
1/2+x,1/2+y,z
1/2-x,1/2-y,z
1/2+x,1/2-y,-z
1/2-x,1/2+y,-z
1/2-x,1/2-y,-z
1/2+x,1/2+y,-z
1/2-x,1/2+y,z
1/2+x,1/2-y,z
loop_
_atom_site_type_symbol
_atom_site_label
_atom_site_fract_x
_atom_site_fract_y
_atom_site_fract_z
Si Si1 0.500000 0.557356 0.577395
Si Si2 0.302216 0.053578 0.804093
Si Si3 0.200046 0.598544 0.661222
Si Si4 0.195706 0.696369 0.728087
Si Si5 0.304232 0.651759 0.135932
Si Si6 0.798950 0.805582 0.000000
O O1 0.500000 0.500000 0.588462
O O2 0.500000 0.566480 0.500000
O O3 0.331618 0.578684 0.609346
O O4 0.500000 0.053297 0.814072
O O5 0.277162 0.068346 0.728380
O O6 0.231934 0.096198 0.848248
O O7 0.236820 0.000000 0.816466
O O8 0.251486 0.653056 0.680924
O O9 0.000000 0.596593 0.644967
O O10 0.250000 0.750000 0.711528
O O11 0.242068 0.682399 0.802248
O O12 0.000000 0.694755 0.724745
O O13 0.500000 0.658583 0.134377
O O14 0.236172 0.669461 0.066480
O O15 0.750000 0.750000 0.000000
O O16 0.000000 0.808839 0.000000
#
# Coordination Sequence:
#
# PCOD9488501 Si02
#       6
#     8  16  16  16  16   8
#     4  11  24  38  58  88 116 149 191 225 266 333
#     4   9  18  33  53  77 104 134 174 224 273 321
#     4   9  20  37  56  83 117 148 181 230 279 325
#     4  10  20  33  54  84 109 138 178 228 278 325
#     4  10  20  33  49  73 105 136 177 222 269 322
#     4  10  22  36  49  68  97 137 174 213 265 328
#
# _framework density 17.428291000000002
#
# number of rings (size 3 to 8) (size 9 to 14) (size 15 to 20)
#    0.000    2.300    0.000    3.600    7.000    5.200 
#    0.000    1.500    0.000    3.600    0.000    0.000 
#    0.000    0.000    0.000    0.000    0.000    0.000 
#
# Total GULP energy -223019.373316 kJ/mol
# GULP energy per Si atom -5575.484333 kJ/mol
# Density = 1.738862 g / cm^3
# Si number density = 17.428291 Si / 1000 Ang^3
#
#
#
# Elastic Constant Matrix: (Units=GPa)
#
#
# Indices 1 2 3 4 5 6 
#
# 1 39.3774 27.5652 45.4083 0.0000 0.0000 0.0000
# 2 27.5652 132.1127 63.7055 0.0000 0.0000 0.0000
# 3 45.4083 63.7055 108.8647 0.0000 0.0000 0.0000
# 4 0.0000 0.0000 0.0000 16.4095 0.0000 0.0000
# 5 0.0000 0.0000 0.0000 0.0000 11.6729 0.0000
# 6 0.0000 0.0000 0.0000 0.0000 0.0000 31.3519
#
#
#
# Elastic Compliance Matrix: (Units=1/GPa)
#
#
# Indices 1 2 3 4 5 6 
#
# 1 0.048955 -0.000513 -0.020120 0.000000 0.000000 0.000000
# 2 -0.000513 0.010550 -0.005960 0.000000 0.000000 0.000000
# 3 -0.020120 -0.005960 0.021065 0.000000 0.000000 0.000000
# 4 0.000000 0.000000 0.000000 0.060940 0.000000 0.000000
# 5 0.000000 0.000000 0.000000 0.000000 0.085669 0.000000
# 6 0.000000 0.000000 0.000000 0.000000 0.000000 0.031896
#
#
# Mechanical properties :
#
#
# Convention : Reuss Voigt Hill
#
# Bulk Modulus (GPa) = 36.51449 61.52364 49.01907
# Shear Modulus (GPa) = 15.55748 21.46524 18.51136
#
# Velocity S-wave (km/s) = 2.99098 3.51327 3.26259
# Velocity P-wave (km/s) = 5.73800 7.19966 6.50998
#
# Compressibility (1/GPa) = 0.02738639
#
# Stress axis : x y z
#
# Youngs Moduli (GPa) = 20.42684 94.78525 47.47130
#
# Poissons Ratio (x) = 0.04860 0.95510
# Poissons Ratio (y) = 0.01047 0.28292
# Poissons Ratio (z) = 0.41098 0.56491
#
# Static dielectric constant tensor:
#      x y z
#    x 1.617050 0.000000 0.000000 
#    y 0.000000 1.609020 0.000000 
#    z 0.000000 0.000000 1.593910 
# 
# From -- ./inp_files/49908.got.cif
#   From: 2010.05.17/outbox.cif.g08.bks.cpg/sg65_25_cif.got.tgz:49908.got - 2010.06.03 17:01:31.
