data_PCOD9488085
_publ_section_title
;
Structure prediction by ZEFSAII (Michael W. Deem and Ramdas Pophale) SiO2 
 PCOD9488085
Probable space group: C M M M
;
_chemical_formula_sum "Si O2"
_cell_formula_units_Z 80
_cell_length_a 19.529416
_cell_length_b 7.569309
_cell_length_c 26.686714
_cell_angle_alpha 90.000000
_cell_angle_beta 90.000000
_cell_angle_gamma 90.000000
_cell_volume 3944.941729
_symmetry_space_group_name_H-M "C M M M"
_symmetry_group_IT_number 65
_symmetry_cell_setting 'orthorhombic'
loop_
_space_group_symop_operation_xyz
x,y,z
-x,-y,z
x,-y,-z
-x,y,-z
-x,-y,-z
x,y,-z
-x,y,z
x,-y,z
1/2+x,1/2+y,z
1/2-x,1/2-y,z
1/2+x,1/2-y,-z
1/2-x,1/2+y,-z
1/2-x,1/2-y,-z
1/2+x,1/2+y,-z
1/2-x,1/2+y,z
1/2+x,1/2-y,z
loop_
_atom_site_type_symbol
_atom_site_label
_atom_site_fract_x
_atom_site_fract_y
_atom_site_fract_z
Si Si1 0.078493 0.284500 0.556887
Si Si2 0.669702 0.787798 0.648855
Si Si3 0.421699 0.211579 0.740687
Si Si4 0.578021 0.712394 0.853276
Si Si5 0.329980 0.712170 0.944272
O O1 0.094151 0.227799 0.500000
O O2 0.079449 0.500000 0.556739
O O3 0.131546 0.222685 0.598719
O O4 0.000000 0.233343 0.568879
O O5 0.750000 0.750000 0.649933
O O6 0.628875 0.721075 0.697722
O O7 0.662861 0.000000 0.648663
O O8 0.500000 0.279702 0.735747
O O9 0.397146 0.247428 0.797162
O O10 0.425456 0.000000 0.735253
O O11 0.500000 0.778881 0.857264
O O12 0.575817 0.500000 0.857326
O O13 0.624830 0.780399 0.898352
O O14 0.337894 0.500000 0.945392
O O15 0.250000 0.750000 0.936309
O O16 0.348829 0.778753 0.000000
#
# Coordination Sequence:
#
# PCOD9488085 Si02
#       5
#    16  16  16  16  16
#     4   8  14  27  49  73  93 118 157 199 232 267
#     4  10  20  32  47  70  98 125 154 190 233 278
#     4   9  18  33  51  68  89 121 159 195 229 269
#     4   9  18  32  50  72  95 119 151 192 235 276
#     4   9  18  32  49  69  94 124 155 187 226 273
#
# _framework density 20.279133000000002
#
# number of rings (size 3 to 8) (size 9 to 14) (size 15 to 20)
#    0.000    3.000    0.000    1.200    0.000    5.600 
#    0.000    6.000    0.000    1.800    0.000    7.000 
#    0.000    0.000    0.000    0.000    0.000    0.000 
#
# Total GULP energy -223140.121149 kJ/mol
# GULP energy per Si atom -5578.503029 kJ/mol
# Density = 2.023298 g / cm^3
# Si number density = 20.279133 Si / 1000 Ang^3
#
#
#
# Elastic Constant Matrix: (Units=GPa)
#
#
# Indices 1 2 3 4 5 6 
#
# 1 127.0960 1.7066 143.6733 0.0000 0.0000 0.0000
# 2 1.7066 46.9414 5.7417 0.0000 0.0000 0.0000
# 3 143.6733 5.7417 227.2255 0.0000 0.0000 0.0000
# 4 0.0000 0.0000 0.0000 40.2246 0.0000 0.0000
# 5 0.0000 0.0000 0.0000 0.0000 99.3368 0.0000
# 6 0.0000 0.0000 0.0000 0.0000 0.0000 19.7875
#
#
#
# Elastic Compliance Matrix: (Units=1/GPa)
#
#
# Indices 1 2 3 4 5 6 
#
# 1 0.027645 0.001136 -0.017508 0.000000 0.000000 0.000000
# 2 0.001136 0.021416 -0.001260 0.000000 0.000000 0.000000
# 3 -0.017508 -0.001260 0.015503 0.000000 0.000000 0.000000
# 4 0.000000 0.000000 0.000000 0.024860 0.000000 0.000000
# 5 0.000000 0.000000 0.000000 0.000000 0.010067 0.000000
# 6 0.000000 0.000000 0.000000 0.000000 0.000000 0.050537
#
#
# Mechanical properties :
#
#
# Convention : Reuss Voigt Hill
#
# Bulk Modulus (GPa) = 34.12890 78.16734 56.14812
# Shear Modulus (GPa) = 25.63341 48.54588 37.08964
#
# Velocity S-wave (km/s) = 3.55918 4.89804 4.28127
# Velocity P-wave (km/s) = 5.81003 8.40340 7.22404
#
# Compressibility (1/GPa) = 0.02930068
#
# Stress axis : x y z
#
# Youngs Moduli (GPa) = 36.17319 46.69420 64.50298
#
# Poissons Ratio (x) = -0.05307 1.12934
# Poissons Ratio (y) = -0.04111 0.08126
# Poissons Ratio (z) = 0.63333 0.05882
#
# Static dielectric constant tensor:
#      x y z
#    x 1.682840 0.000000 0.000000 
#    y 0.000000 1.782630 0.000000 
#    z 0.000000 0.000000 1.720120 
# 
# From -- ./inp_files/68802.got.cif
#   From: 2010.05.17/outbox.cif.g08.bks.cpg/sg65_35_cif.got.tgz:68802.got - 2010.06.03 17:01:31.
