data_PCOD9488879
_publ_section_title
;
Structure prediction by ZEFSAII (Michael W. Deem and Ramdas Pophale) SiO2 
 PCOD9488879
Probable space group: C M M M
;
_chemical_formula_sum "Si O2"
_cell_formula_units_Z 64
_cell_length_a 8.733158
_cell_length_b 18.812495
_cell_length_c 21.099140
_cell_angle_alpha 90.000000
_cell_angle_beta 90.000000
_cell_angle_gamma 90.000000
_cell_volume 3466.430273
_symmetry_space_group_name_H-M "C M M M"
_symmetry_group_IT_number 65
_symmetry_cell_setting 'orthorhombic'
loop_
_space_group_symop_operation_xyz
x,y,z
-x,-y,z
x,-y,-z
-x,y,-z
-x,-y,-z
x,y,-z
-x,y,z
x,-y,z
1/2+x,1/2+y,z
1/2-x,1/2-y,z
1/2+x,1/2-y,-z
1/2-x,1/2+y,-z
1/2-x,1/2-y,-z
1/2+x,1/2+y,-z
1/2-x,1/2+y,z
1/2+x,1/2-y,z
loop_
_atom_site_type_symbol
_atom_site_label
_atom_site_fract_x
_atom_site_fract_y
_atom_site_fract_z
Si Si1 0.184242 0.083028 0.247187
Si Si2 0.313240 0.418192 0.000000
Si Si3 0.814739 0.170903 0.123381
Si Si4 0.682035 0.328769 0.500000
Si Si5 0.182703 0.583569 0.616303
O O1 0.231725 0.131591 0.188276
O O2 0.260559 0.103820 0.313555
O O3 0.000000 0.087672 0.253783
O O4 0.221437 0.000000 0.234486
O O5 0.265661 0.375842 0.062873
O O6 0.261674 0.500000 0.000000
O O7 0.500000 0.419579 0.000000
O O8 0.750000 0.250000 0.119739
O O9 0.000000 0.173866 0.122665
O O10 0.500000 0.325501 0.500000
O O11 0.750000 0.250000 0.500000
O O12 0.739709 0.370530 0.561915
O O13 0.221053 0.500000 0.607427
O O14 0.000000 0.591009 0.612159
#
# Coordination Sequence:
#
# PCOD9488879 Si02
#       5
#    16   8  16   8  16
#     4   9  18  34  55  78 104 139 185 228 265 313
#     4   9  17  32  55  79 102 135 182 228 266 311
#     4  10  20  33  52  78 108 141 176 220 272 324
#     4  12  25  40  59  83 113 147 183 226 275 326
#     4  10  21  38  60  85 113 145 182 225 272 324
#
# _framework density 18.462796999999998
#
# number of rings (size 3 to 8) (size 9 to 14) (size 15 to 20)
#    0.000    2.125    0.000    3.375    0.000    8.000 
#    0.000    2.500    0.000    3.000    0.000    0.000 
#    0.000    0.000    0.000    0.000    0.000    0.000 
#
# Total GULP energy -178744.116143 kJ/mol
# GULP energy per Si atom -5585.753629 kJ/mol
# Density = 1.842077 g / cm^3
# Si number density = 18.462797 Si / 1000 Ang^3
#
#
#
# Elastic Constant Matrix: (Units=GPa)
#
#
# Indices 1 2 3 4 5 6 
#
# 1 38.5798 51.2842 63.9448 0.0000 0.0000 0.0000
# 2 51.2842 152.7065 136.9235 0.0000 0.0000 0.0000
# 3 63.9448 136.9235 208.7774 0.0000 0.0000 0.0000
# 4 0.0000 0.0000 0.0000 -13.5254 0.0000 0.0000
# 5 0.0000 0.0000 0.0000 0.0000 12.3170 0.0000
# 6 0.0000 0.0000 0.0000 0.0000 0.0000 31.7435
#
#
#
# Elastic Compliance Matrix: (Units=1/GPa)
#
#
# Indices 1 2 3 4 5 6 
#
# 1 0.056799 -0.008439 -0.011862 0.000000 0.000000 0.000000
# 2 -0.008439 0.017150 -0.008663 0.000000 0.000000 0.000000
# 3 -0.011862 -0.008663 0.014104 0.000000 0.000000 0.000000
# 4 0.000000 0.000000 0.000000 -0.073935 0.000000 0.000000
# 5 0.000000 0.000000 0.000000 0.000000 0.081188 0.000000
# 6 0.000000 0.000000 0.000000 0.000000 0.000000 0.031502
#
#
# Mechanical properties :
#
#
# Convention : Reuss Voigt Hill
#
# Bulk Modulus (GPa) = 33.19422 100.48541 66.83981
# Shear Modulus (GPa) = 25.66994 15.96777 20.81886
#
# Velocity S-wave (km/s) = 3.73280 2.94404 3.36164
# Velocity P-wave (km/s) = 6.04949 8.13023 7.16579
#
# Compressibility (1/GPa) = 0.03012573
#
# Stress axis : x y z
#
# Youngs Moduli (GPa) = 17.60582 58.30770 70.90034
#
# Poissons Ratio (x) = 0.49209 0.84100
# Poissons Ratio (y) = 0.14858 0.61421
# Poissons Ratio (z) = 0.20884 0.50512
#
# Static dielectric constant tensor:
#      x y z
#    x 1.624730 0.000000 0.000000 
#    y 0.000000 1.607880 0.000000 
#    z 0.000000 0.000000 1.613080 
# 
# From -- ./inp_files/58779.got.cif
#   From: 2010.05.17/outbox.cif.g08.bks.cpg/sg65_30_cif.got.tgz:58779.got - 2010.06.03 17:01:31.
