data_PCOD9488278
_publ_section_title
;
Structure prediction by ZEFSAII (Michael W. Deem and Ramdas Pophale) SiO2 
 PCOD9488278
Probable space group: C M M M
;
_chemical_formula_sum "Si O2"
_cell_formula_units_Z 72
_cell_length_a 7.462936
_cell_length_b 34.431585
_cell_length_c 13.257483
_cell_angle_alpha 90.000000
_cell_angle_beta 90.000000
_cell_angle_gamma 90.000000
_cell_volume 3406.652314
_symmetry_space_group_name_H-M "C M M M"
_symmetry_group_IT_number 65
_symmetry_cell_setting 'orthorhombic'
loop_
_space_group_symop_operation_xyz
x,y,z
-x,-y,z
x,-y,-z
-x,y,-z
-x,-y,-z
x,y,-z
-x,y,z
x,-y,z
1/2+x,1/2+y,z
1/2-x,1/2-y,z
1/2+x,1/2-y,-z
1/2-x,1/2+y,-z
1/2-x,1/2-y,-z
1/2+x,1/2+y,-z
1/2-x,1/2+y,z
1/2+x,1/2-y,z
loop_
_atom_site_type_symbol
_atom_site_label
_atom_site_fract_x
_atom_site_fract_y
_atom_site_fract_z
Si Si1 0.217592 0.852989 0.329016
Si Si2 0.717551 0.958143 0.830952
Si Si3 0.214093 0.795478 0.500000
Si Si4 0.290340 0.371516 0.891374
Si Si5 0.289710 0.940137 0.391285
O O1 0.279397 0.817907 0.399918
O O2 0.283637 0.854220 0.213227
O O3 0.272491 0.893669 0.379472
O O4 0.000000 0.852929 0.325866
O O5 0.500000 0.956628 0.831917
O O6 0.778758 0.918338 0.881309
O O7 0.780720 0.956306 0.714250
O O8 0.770884 0.000000 0.874053
O O9 0.250000 0.750000 0.500000
O O10 0.000000 0.800397 0.500000
O O11 0.500000 0.361211 0.893158
O O12 0.211871 0.360207 0.000000
O O13 0.213183 0.951711 0.500000
O O14 0.500000 0.950277 0.392930
#
# Coordination Sequence:
#
# PCOD9488278 Si02
#       5
#    16  16   8  16  16
#     4   9  17  31  49  69  94 121 150 184 223 268
#     4   9  18  30  42  61  91 124 157 195 239 281
#     4  10  20  32  50  76 101 124 145 173 218 271
#     4   9  18  32  50  69  88 117 158 198 232 267
#     4   9  16  26  43  65  88 119 157 193 230 271
#
# _framework density 21.135117999999999
#
# number of rings (size 3 to 8) (size 9 to 14) (size 15 to 20)
#    0.000    2.889    1.111    0.000    0.000    2.667 
#    0.000    4.444    0.000    0.667    0.000    6.222 
#    0.000    0.000    0.000    0.000    0.000    0.000 
#
# Total GULP energy -200778.048378 kJ/mol
# GULP energy per Si atom -5577.168011 kJ/mol
# Density = 2.108701 g / cm^3
# Si number density = 21.135118 Si / 1000 Ang^3
#
#
#
# Elastic Constant Matrix: (Units=GPa)
#
#
# Indices 1 2 3 4 5 6 
#
# 1 65.6935 -7.3438 7.1332 0.0000 0.0000 0.0000
# 2 -7.3438 112.2394 48.7376 0.0000 0.0000 0.0000
# 3 7.1332 48.7376 186.8464 0.0000 0.0000 0.0000
# 4 0.0000 0.0000 0.0000 -4.9418 0.0000 0.0000
# 5 0.0000 0.0000 0.0000 0.0000 4.2396 0.0000
# 6 0.0000 0.0000 0.0000 0.0000 0.0000 5.0090
#
#
#
# Elastic Compliance Matrix: (Units=1/GPa)
#
#
# Indices 1 2 3 4 5 6 
#
# 1 0.015487 0.001432 -0.000965 0.000000 0.000000 0.000000
# 2 0.001432 0.010180 -0.002710 0.000000 0.000000 0.000000
# 3 -0.000965 -0.002710 0.006096 0.000000 0.000000 0.000000
# 4 0.000000 0.000000 0.000000 -0.202357 0.000000 0.000000
# 5 0.000000 0.000000 0.000000 0.000000 0.235871 0.000000
# 6 0.000000 0.000000 0.000000 0.000000 0.000000 0.199642
#
#
# Mechanical properties :
#
#
# Convention : Reuss Voigt Hill
#
# Bulk Modulus (GPa) = 36.66015 51.31480 43.98747
# Shear Modulus (GPa) = 17.95353 21.94485 19.94919
#
# Velocity S-wave (km/s) = 2.91772 3.22578 3.07561
# Velocity P-wave (km/s) = 5.36041 6.18113 5.78534
#
# Compressibility (1/GPa) = 0.02727758
#
# Stress axis : x y z
#
# Youngs Moduli (GPa) = 64.56992 98.23149 164.04938
#
# Poissons Ratio (x) = -0.14069 0.15828
# Poissons Ratio (y) = -0.09248 0.44459
# Poissons Ratio (z) = 0.06230 0.26621
#
# Static dielectric constant tensor:
#      x y z
#    x 1.813920 0.000000 0.000000 
#    y 0.000000 1.714070 0.000000 
#    z 0.000000 0.000000 1.825430 
# 
# From -- ./inp_files/22701.got.cif
#   From: 2010.05.17/outbox.cif.g08.bks.cpg/sg65_12_cif.got.tgz:22701.got - 2010.06.03 17:01:31.
