data_PCOD9488621
_publ_section_title
;
Structure prediction by ZEFSAII (Michael W. Deem and Ramdas Pophale) SiO2 
 PCOD9488621
Probable space group: C M M M
;
_chemical_formula_sum "Si O2"
_cell_formula_units_Z 104
_cell_length_a 7.908448
_cell_length_b 29.147292
_cell_length_c 25.715930
_cell_angle_alpha 90.000000
_cell_angle_beta 90.000000
_cell_angle_gamma 90.000000
_cell_volume 5927.774990
_symmetry_space_group_name_H-M "C M M M"
_symmetry_group_IT_number 65
_symmetry_cell_setting 'orthorhombic'
loop_
_space_group_symop_operation_xyz
x,y,z
-x,-y,z
x,-y,-z
-x,y,-z
-x,-y,-z
x,y,-z
-x,y,z
x,-y,z
1/2+x,1/2+y,z
1/2-x,1/2-y,z
1/2+x,1/2-y,-z
1/2-x,1/2+y,-z
1/2-x,1/2-y,-z
1/2+x,1/2+y,-z
1/2-x,1/2+y,z
1/2+x,1/2-y,z
loop_
_atom_site_type_symbol
_atom_site_label
_atom_site_fract_x
_atom_site_fract_y
_atom_site_fract_z
Si Si1 0.793224 0.946940 0.159575
Si Si2 0.701985 0.198862 0.101485
Si Si3 0.300979 0.603844 0.264222
Si Si4 0.000000 0.055647 0.559260
Si Si5 0.690821 0.945676 0.632876
Si Si6 0.297940 0.801310 0.778314
Si Si7 0.200497 0.103947 0.943256
O O1 0.737699 0.919966 0.211022
O O2 0.730702 0.923104 0.106705
O O3 0.000000 0.944871 0.159212
O O4 0.744443 0.000000 0.161899
O O5 0.500000 0.194904 0.101145
O O6 0.750000 0.250000 0.084159
O O7 0.762479 0.193534 0.161550
O O8 0.775568 0.157798 0.067798
O O9 0.500000 0.593458 0.269618
O O10 0.211921 0.582888 0.314362
O O11 0.276284 0.657977 0.256042
O O12 0.166770 0.068714 0.591634
O O13 0.000000 0.072531 0.500000
O O14 0.000000 0.000000 0.557111
O O15 0.500000 0.940579 0.612614
O O16 0.717203 0.000000 0.644613
O O17 0.500000 0.805506 0.778413
O O18 0.250000 0.750000 0.761558
O O19 0.000000 0.094416 0.944758
O O20 0.271762 0.091933 0.000000
#
# Coordination Sequence:
#
# PCOD9488621 Si02
#       7
#    16  16  16   8  16  16  16
#     4   9  18  31  49  73  97 127 168 209 258 316
#     4  10  20  34  53  72  95 122 157 201 253 317
#     4  11  19  31  53  76 107 143 173 218 269 319
#     4   9  18  34  54  78 114 156 195 233 273 317
#     4  10  20  33  51  79 114 152 193 234 273 316
#     4  10  20  33  50  74 101 132 168 207 263 326
#     4  10  20  34  51  70  93 121 160 209 260 315
#
# _framework density 17.544525
#
# number of rings (size 3 to 8) (size 9 to 14) (size 15 to 20)
#    0.000    2.077    2.308    1.846    0.000    3.077 
#    0.000    3.077    0.000    1.385    0.000    1.077 
#    0.000    0.615    0.308    0.000    0.000    0.000 
#
# Total GULP energy -290277.811081 kJ/mol
# GULP energy per Si atom -5582.265598 kJ/mol
# Density = 1.750459 g / cm^3
# Si number density = 17.544525 Si / 1000 Ang^3
#
#
#
# Elastic Constant Matrix: (Units=GPa)
#
#
# Indices 1 2 3 4 5 6 
#
# 1 55.6759 7.3215 33.8870 0.0000 0.0000 0.0000
# 2 7.3215 75.7405 47.6663 0.0000 0.0000 0.0000
# 3 33.8870 47.6663 120.3231 0.0000 0.0000 0.0000
# 4 0.0000 0.0000 0.0000 15.6055 0.0000 0.0000
# 5 0.0000 0.0000 0.0000 0.0000 5.6035 0.0000
# 6 0.0000 0.0000 0.0000 0.0000 0.0000 16.5531
#
#
#
# Elastic Compliance Matrix: (Units=1/GPa)
#
#
# Indices 1 2 3 4 5 6 
#
# 1 0.021989 0.002360 -0.007128 0.000000 0.000000 0.000000
# 2 0.002360 0.017841 -0.007733 0.000000 0.000000 0.000000
# 3 -0.007128 -0.007733 0.013382 0.000000 0.000000 0.000000
# 4 0.000000 0.000000 0.000000 0.064080 0.000000 0.000000
# 5 0.000000 0.000000 0.000000 0.000000 0.178461 0.000000
# 6 0.000000 0.000000 0.000000 0.000000 0.000000 0.060412
#
#
# Mechanical properties :
#
#
# Convention : Reuss Voigt Hill
#
# Bulk Modulus (GPa) = 35.44642 47.72102 41.58372
# Shear Modulus (GPa) = 12.80184 18.41007 15.60595
#
# Velocity S-wave (km/s) = 2.70418 3.24286 2.98569
# Velocity P-wave (km/s) = 5.47702 6.42499 5.96985
#
# Compressibility (1/GPa) = 0.02821160
#
# Stress axis : x y z
#
# Youngs Moduli (GPa) = 45.47707 56.05001 74.72903
#
# Poissons Ratio (x) = -0.13229 0.53266
# Poissons Ratio (y) = -0.10734 0.57785
# Poissons Ratio (z) = 0.32416 0.43341
#
# Static dielectric constant tensor:
#      x y z
#    x 1.630390 0.000000 0.000000 
#    y 0.000000 1.578840 0.000000 
#    z 0.000000 0.000000 1.586810 
# 
# From -- ./inp_files/68490.got.cif
#   From: 2010.05.17/outbox.cif.g08.bks.cpg/sg65_35_cif.got.tgz:68490.got - 2010.06.03 17:01:31.
