data_PCOD9488035
_publ_section_title
;
Structure prediction by ZEFSAII (Michael W. Deem and Ramdas Pophale) SiO2 
 PCOD9488035
Probable space group: C M M M
;
_chemical_formula_sum "Si O2"
_cell_formula_units_Z 72
_cell_length_a 14.853695
_cell_length_b 24.548133
_cell_length_c 9.571153
_cell_angle_alpha 90.000000
_cell_angle_beta 90.000000
_cell_angle_gamma 90.000000
_cell_volume 3489.934116
_symmetry_space_group_name_H-M "C M M M"
_symmetry_group_IT_number 65
_symmetry_cell_setting 'orthorhombic'
loop_
_space_group_symop_operation_xyz
x,y,z
-x,-y,z
x,-y,-z
-x,y,-z
-x,-y,-z
x,y,-z
-x,y,z
x,-y,z
1/2+x,1/2+y,z
1/2-x,1/2-y,z
1/2+x,1/2-y,-z
1/2-x,1/2+y,-z
1/2-x,1/2-y,-z
1/2+x,1/2+y,-z
1/2-x,1/2+y,z
1/2+x,1/2-y,z
loop_
_atom_site_type_symbol
_atom_site_label
_atom_site_fract_x
_atom_site_fract_y
_atom_site_fract_z
Si Si1 0.891930 0.500000 0.330858
Si Si2 0.608921 0.883029 0.336801
Si Si3 0.105465 0.839187 0.155675
Si Si4 0.610203 0.438787 0.339014
Si Si5 0.354306 0.763547 0.659046
O O1 0.880177 0.500000 0.500000
O O2 0.857895 0.558737 0.278443
O O3 0.000000 0.500000 0.307410
O O4 0.636915 0.881487 0.500000
O O5 0.500000 0.884569 0.333950
O O6 0.635522 0.824197 0.279125
O O7 0.144585 0.889567 0.244147
O O8 0.108700 0.783601 0.242709
O O9 0.000000 0.852293 0.140951
O O10 0.144441 0.833690 0.000000
O O11 0.638100 0.430649 0.500000
O O12 0.500000 0.438011 0.339282
O O13 0.637021 0.500000 0.295499
O O14 0.392782 0.762087 0.500000
O O15 0.250000 0.750000 0.647262
#
# Coordination Sequence:
#
# PCOD9488035 Si02
#       5
#     8  16  16  16  16
#     4   7  10  18  36  64  91 109 136 185 240 286
#     4   8  13  23  42  67  91 116 148 191 242 288
#     4  10  20  32  48  71  96 125 164 205 245 292
#     4   8  14  26  46  71  96 121 151 193 244 288
#     4  10  20  32  47  67  96 130 163 198 240 294
#
# _framework density 20.630763000000002
#
# number of rings (size 3 to 8) (size 9 to 14) (size 15 to 20)
#    0.000    3.222    0.000    3.333    0.000    3.111 
#    0.000    2.222    2.444    0.000    0.000    0.778 
#    0.000    4.444    0.000    0.000    0.000    0.000 
#
# Total GULP energy -200520.145484 kJ/mol
# GULP energy per Si atom -5570.004041 kJ/mol
# Density = 2.058381 g / cm^3
# Si number density = 20.630763 Si / 1000 Ang^3
#
#
#
# Elastic Constant Matrix: (Units=GPa)
#
#
# Indices 1 2 3 4 5 6 
#
# 1 27.1301 10.6062 0.0867 0.0000 0.0000 0.0000
# 2 10.6062 259.2573 83.6438 0.0000 0.0000 0.0000
# 3 0.0867 83.6438 74.3462 0.0000 0.0000 0.0000
# 4 0.0000 0.0000 0.0000 -61.6213 0.0000 0.0000
# 5 0.0000 0.0000 0.0000 0.0000 6.0060 0.0000
# 6 0.0000 0.0000 0.0000 0.0000 0.0000 11.8943
#
#
#
# Elastic Compliance Matrix: (Units=1/GPa)
#
#
# Indices 1 2 3 4 5 6 
#
# 1 0.037791 -0.002405 0.002661 0.000000 0.000000 0.000000
# 2 -0.002405 0.006208 -0.006982 0.000000 0.000000 0.000000
# 3 0.002661 -0.006982 0.021302 0.000000 0.000000 0.000000
# 4 0.000000 0.000000 0.000000 -0.016228 0.000000 0.000000
# 5 0.000000 0.000000 0.000000 0.000000 0.166501 0.000000
# 6 0.000000 0.000000 0.000000 0.000000 0.000000 0.084074
#
#
# Mechanical properties :
#
#
# Convention : Reuss Voigt Hill
#
# Bulk Modulus (GPa) = 19.28593 61.04523 40.16558
# Shear Modulus (GPa) = 15.13402 9.01559 12.07480
#
# Velocity S-wave (km/s) = 2.71138 2.09272 2.42188
# Velocity P-wave (km/s) = 4.37842 5.95759 5.22798
#
# Compressibility (1/GPa) = 0.05185127
#
# Stress axis : x y z
#
# Youngs Moduli (GPa) = 26.46136 161.08272 46.94364
#
# Poissons Ratio (x) = 0.38735 -0.12493
# Poissons Ratio (y) = 0.06363 0.32774
# Poissons Ratio (z) = -0.07042 1.12461
#
# Static dielectric constant tensor:
#      x y z
#    x 1.745160 0.000000 0.000000 
#    y 0.000000 1.781070 0.000000 
#    z 0.000000 0.000000 1.723970 
# 
# From -- ./inp_files/9288.got.cif
#   From: 2010.05.17/outbox.cif.g08.bks.cpg/sg65_5_cif.got.tgz:9288.got - 2010.06.03 17:01:31.
