data_PCOD9488561
_publ_section_title
;
Structure prediction by ZEFSAII (Michael W. Deem and Ramdas Pophale) SiO2 
 PCOD9488561
Probable space group: C M M M
;
_chemical_formula_sum "Si O2"
_cell_formula_units_Z 88
_cell_length_a 18.671043
_cell_length_b 7.532973
_cell_length_c 30.241277
_cell_angle_alpha 90.000000
_cell_angle_beta 90.000000
_cell_angle_gamma 90.000000
_cell_volume 4253.389123
_symmetry_space_group_name_H-M "C M M M"
_symmetry_group_IT_number 65
_symmetry_cell_setting 'orthorhombic'
loop_
_space_group_symop_operation_xyz
x,y,z
-x,-y,z
x,-y,-z
-x,y,-z
-x,-y,-z
x,y,-z
-x,y,z
x,-y,z
1/2+x,1/2+y,z
1/2-x,1/2-y,z
1/2+x,1/2-y,-z
1/2-x,1/2+y,-z
1/2-x,1/2-y,-z
1/2+x,1/2+y,-z
1/2-x,1/2+y,z
1/2+x,1/2-y,z
loop_
_atom_site_type_symbol
_atom_site_label
_atom_site_fract_x
_atom_site_fract_y
_atom_site_fract_z
Si Si1 0.582943 0.782651 0.500000
Si Si2 0.918034 0.288541 0.672873
Si Si3 0.916091 0.216384 0.865292
Si Si4 0.417165 0.713047 0.769447
Si Si5 0.665938 0.212941 0.587459
Si Si6 0.165739 0.787017 0.951462
O O1 0.500000 0.728645 0.500000
O O2 0.624247 0.722497 0.456019
O O3 0.583630 0.000000 0.500000
O O4 0.923328 0.500000 0.667387
O O5 0.885783 0.259985 0.721808
O O6 0.870607 0.218837 0.632536
O O7 0.000000 0.217512 0.671605
O O8 0.887426 0.274337 0.816924
O O9 0.874931 0.282427 0.908398
O O10 0.000000 0.262763 0.867820
O O11 0.912503 0.000000 0.865860
O O12 0.500000 0.776355 0.768032
O O13 0.418650 0.500000 0.771147
O O14 0.750000 0.250000 0.585451
O O15 0.658109 0.000000 0.587572
O O16 0.250000 0.750000 0.947457
O O17 0.156045 0.000000 0.952011
O O18 0.142061 0.720264 0.000000
#
# Coordination Sequence:
#
# PCOD9488561 Si02
#       6
#     8  16  16  16  16  16
#     4   9  17  32  55  77  94 119 158 194 224 267
#     4   9  17  30  48  69  92 119 154 191 222 259
#     4   8  14  26  45  68  90 112 145 188 227 264
#     4   8  14  26  45  67  90 117 148 184 227 269
#     4  10  20  33  50  72  98 126 153 186 229 271
#     4   9  17  29  45  64  87 116 147 180 221 268
#
# _framework density 20.689384
#
# number of rings (size 3 to 8) (size 9 to 14) (size 15 to 20)
#    0.000    3.182    0.000    1.909    0.000    3.273 
#    0.000    3.636    0.000    8.182    0.000    2.545 
#    0.000    0.000    0.000    0.000    0.000    0.000 
#
# Total GULP energy -245222.512037 kJ/mol
# GULP energy per Si atom -5573.238910 kJ/mol
# Density = 2.064229 g / cm^3
# Si number density = 20.689384 Si / 1000 Ang^3
#
#
#
# Elastic Constant Matrix: (Units=GPa)
#
#
# Indices 1 2 3 4 5 6 
#
# 1 87.2839 -1.2310 107.0453 0.0000 0.0000 0.0000
# 2 -1.2310 50.9054 10.4673 0.0000 0.0000 0.0000
# 3 107.0453 10.4673 281.4174 0.0000 0.0000 0.0000
# 4 0.0000 0.0000 0.0000 14.9057 0.0000 0.0000
# 5 0.0000 0.0000 0.0000 0.0000 6.3071 0.0000
# 6 0.0000 0.0000 0.0000 0.0000 0.0000 15.4108
#
#
#
# Elastic Compliance Matrix: (Units=1/GPa)
#
#
# Indices 1 2 3 4 5 6 
#
# 1 0.021726 0.002242 -0.008347 0.000000 0.000000 0.000000
# 2 0.002242 0.020027 -0.001598 0.000000 0.000000 0.000000
# 3 -0.008347 -0.001598 0.006788 0.000000 0.000000 0.000000
# 4 0.000000 0.000000 0.000000 0.067089 0.000000 0.000000
# 5 0.000000 0.000000 0.000000 0.000000 0.158551 0.000000
# 6 0.000000 0.000000 0.000000 0.000000 0.000000 0.064890
#
#
# Mechanical properties :
#
#
# Convention : Reuss Voigt Hill
#
# Bulk Modulus (GPa) = 30.18017 72.46331 51.32174
# Shear Modulus (GPa) = 13.67910 27.54639 20.61275
#
# Velocity S-wave (km/s) = 2.57410 3.65283 3.15984
# Velocity P-wave (km/s) = 4.84289 7.27264 6.17839
#
# Compressibility (1/GPa) = 0.03313434
#
# Stress axis : x y z
#
# Youngs Moduli (GPa) = 46.02821 49.93258 147.31769
#
# Poissons Ratio (x) = -0.11194 1.22972
# Poissons Ratio (y) = -0.10319 0.23536
# Poissons Ratio (z) = 0.38422 0.07977
#
# Static dielectric constant tensor:
#      x y z
#    x 1.686280 0.000000 0.000000 
#    y 0.000000 1.806500 0.000000 
#    z 0.000000 0.000000 1.787320 
# 
# From -- ./inp_files/74739.got.cif
#   From: 2010.05.17/outbox.cif.g08.bks.cpg/sg65_38_cif.got.tgz:74739.got - 2010.06.03 17:01:31.
