data_PCOD9488492
_publ_section_title
;
Structure prediction by ZEFSAII (Michael W. Deem and Ramdas Pophale) SiO2 
 PCOD9488492
Probable space group: C M M M
;
_chemical_formula_sum "Si O2"
_cell_formula_units_Z 80
_cell_length_a 35.235618
_cell_length_b 14.218908
_cell_length_c 8.909654
_cell_angle_alpha 90.000000
_cell_angle_beta 90.000000
_cell_angle_gamma 90.000000
_cell_volume 4463.843665
_symmetry_space_group_name_H-M "C M M M"
_symmetry_group_IT_number 65
_symmetry_cell_setting 'orthorhombic'
loop_
_space_group_symop_operation_xyz
x,y,z
-x,-y,z
x,-y,-z
-x,y,-z
-x,-y,-z
x,y,-z
-x,y,z
x,-y,z
1/2+x,1/2+y,z
1/2-x,1/2-y,z
1/2+x,1/2-y,-z
1/2-x,1/2+y,-z
1/2-x,1/2-y,-z
1/2+x,1/2+y,-z
1/2-x,1/2+y,z
1/2+x,1/2-y,z
loop_
_atom_site_type_symbol
_atom_site_label
_atom_site_fract_x
_atom_site_fract_y
_atom_site_fract_z
Si Si1 0.811812 0.613703 0.324373
Si Si2 0.883025 0.718612 0.819812
Si Si3 0.153726 0.889949 0.321444
Si Si4 0.266810 0.385528 0.172112
Si Si5 0.042534 0.608604 0.817391
O O1 0.811406 0.639023 0.500000
O O2 0.813643 0.500000 0.313767
O O3 0.848274 0.657339 0.244446
O O4 0.772607 0.645117 0.246354
O O5 0.876223 0.823059 0.758901
O O6 0.922893 0.673917 0.768823
O O7 0.881528 0.717449 0.000000
O O8 0.151841 0.879077 0.500000
O O9 0.195602 0.860741 0.264333
O O10 0.148542 0.000000 0.284666
O O11 0.265641 0.500000 0.171507
O O12 0.270119 0.354136 0.000000
O O13 0.049047 0.500000 0.772272
O O14 0.000000 0.636310 0.768717
O O15 0.042481 0.609537 0.000000
#
# Coordination Sequence:
#
# PCOD9488492 Si02
#       5
#    16  16  16  16  16
#     4  10  20  33  49  72 106 143 174 207 252 307
#     4  11  21  32  52  80 105 131 169 215 258 302
#     4  10  21  37  54  71  97 135 176 216 260 308
#     4   9  17  31  51  73  98 130 172 220 263 301
#     4   8  15  30  53  81 111 138 162 194 243 302
#
# _framework density 17.921773999999999
#
# number of rings (size 3 to 8) (size 9 to 14) (size 15 to 20)
#    0.000    2.400    0.000    3.600    0.000    6.400 
#    0.000    4.000    0.000    3.000    0.000   11.200 
#    0.000    0.000    0.000    0.000    0.000    0.000 
#
# Total GULP energy -223390.036519 kJ/mol
# GULP energy per Si atom -5584.750913 kJ/mol
# Density = 1.788098 g / cm^3
# Si number density = 17.921774 Si / 1000 Ang^3
#
#
#
# Elastic Constant Matrix: (Units=GPa)
#
#
# Indices 1 2 3 4 5 6 
#
# 1 160.5052 70.0908 50.0973 0.0000 0.0000 0.0000
# 2 70.0908 75.1786 33.8622 0.0000 0.0000 0.0000
# 3 50.0973 33.8622 75.3813 0.0000 0.0000 0.0000
# 4 0.0000 0.0000 0.0000 25.3255 0.0000 0.0000
# 5 0.0000 0.0000 0.0000 0.0000 -16.6780 0.0000
# 6 0.0000 0.0000 0.0000 0.0000 0.0000 29.3175
#
#
#
# Elastic Compliance Matrix: (Units=1/GPa)
#
#
# Indices 1 2 3 4 5 6 
#
# 1 0.011179 -0.008871 -0.003445 0.000000 0.000000 0.000000
# 2 -0.008871 0.023716 -0.004758 0.000000 0.000000 0.000000
# 3 -0.003445 -0.004758 0.017692 0.000000 0.000000 0.000000
# 4 0.000000 0.000000 0.000000 0.039486 0.000000 0.000000
# 5 0.000000 0.000000 0.000000 0.000000 -0.059959 0.000000
# 6 0.000000 0.000000 0.000000 0.000000 0.000000 0.034109
#
#
# Mechanical properties :
#
#
# Convention : Reuss Voigt Hill
#
# Bulk Modulus (GPa) = 54.22904 68.79619 61.51261
# Shear Modulus (GPa) = 46.94077 18.06064 32.50071
#
# Velocity S-wave (km/s) = 5.12337 3.17795 4.26311
# Velocity P-wave (km/s) = 8.08226 7.20667 7.65699
#
# Compressibility (1/GPa) = 0.01844030
#
# Stress axis : x y z
#
# Youngs Moduli (GPa) = 89.44950 42.16645 56.52190
#
# Poissons Ratio (x) = 0.37407 0.19470
# Poissons Ratio (y) = 0.79354 0.26890
# Poissons Ratio (z) = 0.30812 0.20061
#
# Static dielectric constant tensor:
#      x y z
#    x 1.585280 0.000000 0.000000 
#    y 0.000000 1.656290 0.000000 
#    z 0.000000 0.000000 1.598610 
# 
# From -- ./inp_files/18182.got.cif
#   From: 2010.05.17/outbox.cif.g08.bks.cpg/sg65_10_cif.got.tgz:18182.got - 2010.06.03 17:01:31.
