data_PCOD9488700
_publ_section_title
;
Structure prediction by ZEFSAII (Michael W. Deem and Ramdas Pophale) SiO2 
 PCOD9488700
Probable space group: C M M M
;
_chemical_formula_sum "Si O2"
_cell_formula_units_Z 58
_cell_length_a 7.766200
_cell_length_b 14.748300
_cell_length_c 26.501320
_cell_angle_alpha 90.000000
_cell_angle_beta 90.000000
_cell_angle_gamma 90.000000
_cell_volume 3035.414748
_symmetry_space_group_name_H-M "C M M M"
_symmetry_group_IT_number 65
_symmetry_cell_setting 'orthorhombic'
loop_
_space_group_symop_operation_xyz
x,y,z
-x,-y,z
x,-y,-z
-x,y,-z
-x,-y,-z
x,y,-z
-x,y,z
x,-y,z
1/2+x,1/2+y,z
1/2-x,1/2-y,z
1/2+x,1/2-y,-z
1/2-x,1/2+y,-z
1/2-x,1/2-y,-z
1/2+x,1/2+y,-z
1/2-x,1/2+y,z
1/2+x,1/2-y,z
loop_
_atom_site_type_symbol
_atom_site_label
_atom_site_fract_x
_atom_site_fract_y
_atom_site_fract_z
Si Si1 0.000000 0.500000 0.000000
Si Si2 0.805669 0.000000 0.084043
Si Si3 0.707355 0.500000 0.634764
Si Si4 0.706481 0.143957 0.167033
Si Si5 0.794031 0.500000 0.751859
Si Si6 0.792982 0.854985 0.444180
O O1 0.847139 0.500000 0.043801
O O2 0.783391 0.088162 0.120083
O O3 0.000000 0.000000 0.063252
O O4 0.500000 0.500000 0.632658
O O5 0.750716 0.500000 0.693303
O O6 0.771230 0.414118 0.602432
O O7 0.500000 0.135569 0.163408
O O8 0.750000 0.250000 0.167831
O O9 0.765404 0.088887 0.217045
O O10 0.000000 0.500000 0.754972
O O11 0.729704 0.883763 0.500000
O O12 0.750000 0.750000 0.437875
O O13 0.000000 0.864183 0.445324
#
# Coordination Sequence:
#
# PCOD9488700 Si02
#       6
#     2   8   8  16   8  16
#     4  12  22  44  64  94 140 162 206 256 290 350
#     4  11  22  40  67  93 127 171 203 246 305 345
#     4  10  20  33  51  74 105 136 179 229 281 343
#     4  10  20  39  63  88 118 155 202 247 291 356
#     4   9  21  37  54  81 115 149 185 240 293 343
#     4   9  18  33  51  71  97 135 178 223 279 342
#
# _framework density 19.107766999999999
#
# number of rings (size 3 to 8) (size 9 to 14) (size 15 to 20)
#    0.000    2.207    1.379    2.276    0.000    7.172 
#    0.000    6.207    0.000    4.138    0.000    0.000 
#    0.000    0.000    0.000    0.000    0.000    0.000 
#
# Total GULP energy -161507.208453 kJ/mol
# GULP energy per Si atom -5569.214085 kJ/mol
# Density = 1.906428 g / cm^3
# Si number density = 19.107767 Si / 1000 Ang^3
#
#
#
# Elastic Constant Matrix: (Units=GPa)
#
#
# Indices 1 2 3 4 5 6 
#
# 1 89.5286 23.2959 43.2715 0.0000 0.0000 0.0000
# 2 23.2959 146.9440 90.1458 0.0000 0.0000 0.0000
# 3 43.2715 90.1458 193.5693 0.0000 0.0000 0.0000
# 4 0.0000 0.0000 0.0000 -13.0691 0.0000 0.0000
# 5 0.0000 0.0000 0.0000 0.0000 29.3854 0.0000
# 6 0.0000 0.0000 0.0000 0.0000 0.0000 21.7132
#
#
#
# Elastic Compliance Matrix: (Units=1/GPa)
#
#
# Indices 1 2 3 4 5 6 
#
# 1 0.012537 -0.000376 -0.002628 0.000000 0.000000 0.000000
# 2 -0.000376 0.009538 -0.004358 0.000000 0.000000 0.000000
# 3 -0.002628 -0.004358 0.007783 0.000000 0.000000 0.000000
# 4 0.000000 0.000000 0.000000 -0.076516 0.000000 0.000000
# 5 0.000000 0.000000 0.000000 0.000000 0.034030 0.000000
# 6 0.000000 0.000000 0.000000 0.000000 0.000000 0.046055
#
#
# Mechanical properties :
#
#
# Convention : Reuss Voigt Hill
#
# Bulk Modulus (GPa) = 66.06747 82.60760 74.33753
# Shear Modulus (GPa) = 93.99133 25.82780 59.90956
#
# Velocity S-wave (km/s) = 7.02118 3.68052 5.60550
# Velocity P-wave (km/s) = 10.01901 7.83505 8.99357
#
# Compressibility (1/GPa) = 0.01513604
#
# Stress axis : x y z
#
# Youngs Moduli (GPa) = 79.76126 104.83898 128.48303
#
# Poissons Ratio (x) = 0.03937 0.33762
# Poissons Ratio (y) = 0.02996 0.55995
# Poissons Ratio (z) = 0.20959 0.45690
#
# Static dielectric constant tensor:
#      x y z
#    x 1.700280 0.000000 0.000000 
#    y 0.000000 1.655090 0.000000 
#    z 0.000000 0.000000 1.655940 
# 
# From -- ./inp_files/66702.got.cif
#   From: 2010.05.17/outbox.cif.g08.bks.cpg/sg65_34_cif.got.tgz:66702.got - 2010.06.03 17:01:31.
