data_PCOD9488563
_publ_section_title
;
Structure prediction by ZEFSAII (Michael W. Deem and Ramdas Pophale) SiO2 
 PCOD9488563
Probable space group: C M M M
;
_chemical_formula_sum "Si O2"
_cell_formula_units_Z 104
_cell_length_a 9.896986
_cell_length_b 18.238244
_cell_length_c 34.671154
_cell_angle_alpha 90.000000
_cell_angle_beta 90.000000
_cell_angle_gamma 90.000000
_cell_volume 6258.269692
_symmetry_space_group_name_H-M "C M M M"
_symmetry_group_IT_number 65
_symmetry_cell_setting 'orthorhombic'
loop_
_space_group_symop_operation_xyz
x,y,z
-x,-y,z
x,-y,-z
-x,y,-z
-x,-y,-z
x,y,-z
-x,y,z
x,-y,z
1/2+x,1/2+y,z
1/2-x,1/2-y,z
1/2+x,1/2-y,-z
1/2-x,1/2+y,-z
1/2-x,1/2-y,-z
1/2+x,1/2+y,-z
1/2-x,1/2+y,z
1/2+x,1/2-y,z
loop_
_atom_site_type_symbol
_atom_site_label
_atom_site_fract_x
_atom_site_fract_y
_atom_site_fract_z
Si Si1 0.656640 0.410733 0.310620
Si Si2 0.660050 0.822508 0.456863
Si Si3 0.342075 0.912326 0.380841
Si Si4 0.161895 0.323200 0.924621
Si Si5 0.656386 0.410816 0.224282
Si Si6 0.658676 0.086910 0.153547
Si Si7 0.163678 0.416490 0.000000
O O1 0.500000 0.390237 0.316469
O O2 0.661605 0.500000 0.310640
O O3 0.750568 0.385281 0.345449
O O4 0.698221 0.387110 0.267430
O O5 0.682189 0.854042 0.500000
O O6 0.500000 0.804802 0.454171
O O7 0.750000 0.750000 0.453706
O O8 0.693257 0.875826 0.421590
O O9 0.500000 0.897545 0.372801
O O10 0.326122 0.000000 0.384011
O O11 0.250000 0.250000 0.924465
O O12 0.185339 0.368761 0.885466
O O13 0.200981 0.372404 0.961548
O O14 0.000000 0.307929 0.927089
O O15 0.500000 0.389680 0.218300
O O16 0.660356 0.500000 0.224437
O O17 0.751071 0.386880 0.189363
O O18 0.500000 0.094411 0.163000
O O19 0.684379 0.000000 0.147063
O O20 0.214493 0.500000 0.000000
O O21 0.000000 0.420255 0.000000
#
# Coordination Sequence:
#
# PCOD9488563 Si02
#       7
#    16  16  16  16  16  16   8
#     4   8  14  25  41  63  92 122 149 180 223 274
#     4   9  18  32  48  65  87 117 151 185 222 267
#     4   9  17  28  44  68  94 118 147 185 228 271
#     4  10  20  33  50  72  98 128 159 191 231 278
#     4   8  14  25  42  65  92 121 152 186 227 273
#     4   9  17  29  46  69  94 120 155 196 231 265
#     4   9  17  32  55  77  96 123 160 198 232 271
#
# _framework density 16.618012
#
# number of rings (size 3 to 8) (size 9 to 14) (size 15 to 20)
#    0.000    3.154    0.000    1.615    0.000    4.000 
#    0.000    4.615    0.000    2.769    0.000    4.308 
#    0.000    0.000    0.000    0.000    0.000    0.000 
#
# Total GULP energy -289539.244765 kJ/mol
# GULP energy per Si atom -5568.062399 kJ/mol
# Density = 1.658019 g / cm^3
# Si number density = 16.618012 Si / 1000 Ang^3
#
#
#
# Elastic Constant Matrix: (Units=GPa)
#
#
# Indices 1 2 3 4 5 6 
#
# 1 55.6237 40.8351 91.5780 0.0000 0.0000 0.0000
# 2 40.8351 46.8087 60.4310 0.0000 0.0000 0.0000
# 3 91.5780 60.4310 197.8532 0.0000 0.0000 0.0000
# 4 0.0000 0.0000 0.0000 -8.9613 0.0000 0.0000
# 5 0.0000 0.0000 0.0000 0.0000 26.2249 0.0000
# 6 0.0000 0.0000 0.0000 0.0000 0.0000 20.5491
#
#
#
# Elastic Compliance Matrix: (Units=1/GPa)
#
#
# Indices 1 2 3 4 5 6 
#
# 1 0.135152 -0.061325 -0.043826 0.000000 0.000000 0.000000
# 2 -0.061325 0.063098 0.009112 0.000000 0.000000 0.000000
# 3 -0.043826 0.009112 0.022556 0.000000 0.000000 0.000000
# 4 0.000000 0.000000 0.000000 -0.111591 0.000000 0.000000
# 5 0.000000 0.000000 0.000000 0.000000 0.038132 0.000000
# 6 0.000000 0.000000 0.000000 0.000000 0.000000 0.048664
#
#
# Mechanical properties :
#
#
# Convention : Reuss Voigt Hill
#
# Bulk Modulus (GPa) = 34.80645 76.21932 55.51288
# Shear Modulus (GPa) = 12.57343 14.72530 13.64936
#
# Velocity S-wave (km/s) = 2.75365 2.97998 2.86905
# Velocity P-wave (km/s) = 5.57679 7.60299 6.66731
#
# Compressibility (1/GPa) = 0.02873031
#
# Stress axis : x y z
#
# Youngs Moduli (GPa) = 7.39905 15.84837 44.33386
#
# Poissons Ratio (x) = 0.97190 1.94297
# Poissons Ratio (y) = 0.45375 -0.40399
# Poissons Ratio (z) = 0.32427 -0.14442
#
# Static dielectric constant tensor:
#      x y z
#    x 1.552370 0.000000 0.000000 
#    y 0.000000 1.540780 0.000000 
#    z 0.000000 0.000000 1.563480 
# 
# From -- ./inp_files/77457.got.cif
#   From: 2010.05.17/outbox.cif.g08.bks.cpg/sg65_39_cif.got.tgz:77457.got - 2010.06.03 17:01:31.
