data_PCOD9488030
_publ_section_title
;
Structure prediction by ZEFSAII (Michael W. Deem and Ramdas Pophale) SiO2 
 PCOD9488030
Probable space group: C M M M
;
_chemical_formula_sum "Si O2"
_cell_formula_units_Z 80
_cell_length_a 25.744299
_cell_length_b 15.327212
_cell_length_c 13.091345
_cell_angle_alpha 90.000000
_cell_angle_beta 90.000000
_cell_angle_gamma 90.000000
_cell_volume 5165.691942
_symmetry_space_group_name_H-M "C M M M"
_symmetry_group_IT_number 65
_symmetry_cell_setting 'orthorhombic'
loop_
_space_group_symop_operation_xyz
x,y,z
-x,-y,z
x,-y,-z
-x,y,-z
-x,-y,-z
x,y,-z
-x,y,z
x,-y,z
1/2+x,1/2+y,z
1/2-x,1/2-y,z
1/2+x,1/2-y,-z
1/2-x,1/2+y,-z
1/2-x,1/2-y,-z
1/2+x,1/2+y,-z
1/2-x,1/2+y,z
1/2+x,1/2-y,z
loop_
_atom_site_type_symbol
_atom_site_label
_atom_site_fract_x
_atom_site_fract_y
_atom_site_fract_z
Si Si1 0.395800 0.398010 0.767376
Si Si2 0.000000 0.893905 0.116677
Si Si3 0.640372 0.249112 0.622475
Si Si4 0.787630 0.101341 0.119256
Si Si5 0.940817 0.600011 0.624073
Si Si6 0.250000 0.750000 0.265917
O O1 0.400595 0.500000 0.738492
O O2 0.448350 0.368718 0.822769
O O3 0.382555 0.337008 0.672106
O O4 0.347884 0.391437 0.846625
O O5 0.000000 0.000000 0.112624
O O6 0.000000 0.862426 0.000000
O O7 0.641199 0.253287 0.500000
O O8 0.602760 0.169284 0.655244
O O9 0.698454 0.239292 0.666140
O O10 0.757055 0.166347 0.192841
O O11 0.772593 0.000000 0.133874
O O12 0.781722 0.123122 0.000000
O O13 0.940914 0.600054 0.500000
O O14 0.930101 0.500000 0.656215
O O15 0.000000 0.622839 0.655936
#
# Coordination Sequence:
#
# PCOD9488030 Si02
#       6
#    16   8  16  16  16   8
#     4   9  18  30  45  69  97 126 160 190 226 285
#     4   9  16  28  47  69  94 121 151 193 239 279
#     4  10  20  32  47  66  96 132 162 195 238 283
#     4   9  17  31  50  69  92 122 155 197 246 287
#     4   8  15  29  48  67  85 111 154 203 243 276
#     4  10  20  32  46  70  96 124 162 202 234 288
#
# _framework density 15.486793
#
# number of rings (size 3 to 8) (size 9 to 14) (size 15 to 20)
#    0.000    2.900    0.000    1.800    1.400    3.600 
#    0.000    0.000    0.000    5.400    0.000    0.000 
#    0.000    0.800    0.000    0.000    0.000    0.000 
#
# Total GULP energy -222770.619178 kJ/mol
# GULP energy per Si atom -5569.265479 kJ/mol
# Density = 1.545154 g / cm^3
# Si number density = 15.486793 Si / 1000 Ang^3
#
#
#
# Elastic Constant Matrix: (Units=GPa)
#
#
# Indices 1 2 3 4 5 6 
#
# 1 115.8461 67.6126 59.1791 0.0000 0.0000 0.0000
# 2 67.6126 82.7679 54.3152 0.0000 0.0000 0.0000
# 3 59.1791 54.3152 91.7134 0.0000 0.0000 0.0000
# 4 0.0000 0.0000 0.0000 15.2107 0.0000 0.0000
# 5 0.0000 0.0000 0.0000 0.0000 9.1511 0.0000
# 6 0.0000 0.0000 0.0000 0.0000 0.0000 26.3701
#
#
#
# Elastic Compliance Matrix: (Units=1/GPa)
#
#
# Indices 1 2 3 4 5 6 
#
# 1 0.017636 -0.011350 -0.004658 0.000000 0.000000 0.000000
# 2 -0.011350 0.027067 -0.008706 0.000000 0.000000 0.000000
# 3 -0.004658 -0.008706 0.019065 0.000000 0.000000 0.000000
# 4 0.000000 0.000000 0.000000 0.065743 0.000000 0.000000
# 5 0.000000 0.000000 0.000000 0.000000 0.109277 0.000000
# 6 0.000000 0.000000 0.000000 0.000000 0.000000 0.037922
#
#
# Mechanical properties :
#
#
# Convention : Reuss Voigt Hill
#
# Bulk Modulus (GPa) = 69.73556 72.50456 71.12006
# Shear Modulus (GPa) = 15.10948 17.42775 16.26862
#
# Velocity S-wave (km/s) = 3.12691 3.35823 3.24463
# Velocity P-wave (km/s) = 7.62650 7.87119 7.74981
#
# Compressibility (1/GPa) = 0.01433989
#
# Stress axis : x y z
#
# Youngs Moduli (GPa) = 56.70234 36.94543 52.45160
#
# Poissons Ratio (x) = 0.41933 0.24432
# Poissons Ratio (y) = 0.64357 0.45665
# Poissons Ratio (z) = 0.26412 0.32165
#
# Static dielectric constant tensor:
#      x y z
#    x 1.511970 0.000000 0.000000 
#    y 0.000000 1.515170 0.000000 
#    z 0.000000 0.000000 1.487700 
# 
# From -- ./inp_files/25031.got.cif
#   From: 2010.05.17/outbox.cif.g08.bks.cpg/sg65_13_cif.got.tgz:25031.got - 2010.06.03 17:01:31.
