data_PCOD9488946
_publ_section_title
;
Structure prediction by ZEFSAII (Michael W. Deem and Ramdas Pophale) SiO2 
 PCOD9488946
Probable space group: C M M M
;
_chemical_formula_sum "Si O2"
_cell_formula_units_Z 88
_cell_length_a 27.307119
_cell_length_b 19.024871
_cell_length_c 7.520520
_cell_angle_alpha 90.000000
_cell_angle_beta 90.000000
_cell_angle_gamma 90.000000
_cell_volume 3907.018558
_symmetry_space_group_name_H-M "C M M M"
_symmetry_group_IT_number 65
_symmetry_cell_setting 'orthorhombic'
loop_
_space_group_symop_operation_xyz
x,y,z
-x,-y,z
x,-y,-z
-x,y,-z
-x,-y,-z
x,y,-z
-x,y,z
x,-y,z
1/2+x,1/2+y,z
1/2-x,1/2-y,z
1/2+x,1/2-y,-z
1/2-x,1/2+y,-z
1/2-x,1/2-y,-z
1/2+x,1/2+y,-z
1/2-x,1/2+y,z
1/2+x,1/2-y,z
loop_
_atom_site_type_symbol
_atom_site_label
_atom_site_fract_x
_atom_site_fract_y
_atom_site_fract_z
Si Si1 0.058144 0.500000 0.782424
Si Si2 0.116650 0.359422 0.788998
Si Si3 0.770862 0.325717 0.714942
Si Si4 0.926881 0.922433 0.203195
Si Si5 0.054069 0.230846 0.784814
Si Si6 0.316583 0.581067 0.703696
O O1 0.088691 0.430038 0.724067
O O2 0.000000 0.500000 0.730194
O O3 0.058068 0.500000 0.000000
O O4 0.174992 0.351306 0.765995
O O5 0.092910 0.287154 0.716845
O O6 0.107272 0.359493 0.000000
O O7 0.771193 0.325790 0.500000
O O8 0.750000 0.250000 0.772439
O O9 0.728854 0.377883 0.780000
O O10 0.944022 0.849030 0.285075
O O11 0.868224 0.914050 0.200652
O O12 0.937405 0.000000 0.283244
O O13 0.944668 0.925162 0.000000
O O14 0.000000 0.260127 0.753592
O O15 0.060767 0.224273 0.000000
O O16 0.325507 0.605334 0.500000
O O17 0.302920 0.500000 0.697822
#
# Coordination Sequence:
#
# PCOD9488946 Si02
#       6
#     8  16  16  16  16  16
#     4   9  18  34  55  79 107 137 175 225 274 319
#     4  10  20  33  53  78 101 131 173 215 258 304
#     4  10  21  35  51  73 102 135 168 205 253 308
#     4   9  17  29  47  73 100 126 160 203 245 284
#     4   9  17  30  49  72  98 128 162 200 246 300
#     4   9  18  32  49  67  92 129 164 190 231 292
#
# _framework density 22.523568999999998
#
# number of rings (size 3 to 8) (size 9 to 14) (size 15 to 20)
#    0.000    2.636    0.000    1.636    1.273    3.636 
#    0.000    1.818    0.000    4.364    0.000    2.545 
#    0.000    0.000    0.000    0.000    0.000    0.000 
#
# Total GULP energy -245344.367080 kJ/mol
# GULP energy per Si atom -5576.008343 kJ/mol
# Density = 2.247230 g / cm^3
# Si number density = 22.523569 Si / 1000 Ang^3
#
#
#
# Elastic Constant Matrix: (Units=GPa)
#
#
# Indices 1 2 3 4 5 6 
#
# 1 162.1753 91.2055 1.4049 0.0000 0.0000 0.0000
# 2 91.2055 130.8381 12.8392 0.0000 0.0000 0.0000
# 3 1.4049 12.8392 60.9044 0.0000 0.0000 0.0000
# 4 0.0000 0.0000 0.0000 -7.6415 0.0000 0.0000
# 5 0.0000 0.0000 0.0000 0.0000 24.8175 0.0000
# 6 0.0000 0.0000 0.0000 0.0000 0.0000 35.2204
#
#
#
# Elastic Compliance Matrix: (Units=1/GPa)
#
#
# Indices 1 2 3 4 5 6 
#
# 1 0.010241 -0.007266 0.001296 0.000000 0.000000 0.000000
# 2 -0.007266 0.012960 -0.002564 0.000000 0.000000 0.000000
# 3 0.001296 -0.002564 0.016930 0.000000 0.000000 0.000000
# 4 0.000000 0.000000 0.000000 -0.130865 0.000000 0.000000
# 5 0.000000 0.000000 0.000000 0.000000 0.040294 0.000000
# 6 0.000000 0.000000 0.000000 0.000000 0.000000 0.028393
#
#
# Mechanical properties :
#
#
# Convention : Reuss Voigt Hill
#
# Bulk Modulus (GPa) = 43.36351 62.75746 53.06049
# Shear Modulus (GPa) = 1844.67315 27.04382 935.85849
#
# Velocity S-wave (km/s) = 28.64917 3.46886 20.40598
# Velocity P-wave (km/s) = 33.37155 6.63080 24.05855
#
# Compressibility (1/GPa) = 0.02306086
#
# Stress axis : x y z
#
# Youngs Moduli (GPa) = 97.64272 77.16099 59.06706
#
# Poissons Ratio (x) = 0.56067 -0.07652
# Poissons Ratio (y) = 0.70950 0.15147
# Poissons Ratio (z) = -0.12650 0.19788
#
# Static dielectric constant tensor:
#      x y z
#    x 2.226330 0.000000 0.000000 
#    y 0.000000 1.876210 0.000000 
#    z 0.000000 0.000000 1.831570 
# 
# From -- ./inp_files/13963.got.cif
#   From: 2010.05.17/outbox.cif.g08.bks.cpg/sg65_7_cif.got.tgz:13963.got - 2010.06.03 17:01:31.
