data_PCOD9488302
_publ_section_title
;
Structure prediction by ZEFSAII (Michael W. Deem and Ramdas Pophale) SiO2 
 PCOD9488302
Probable space group: C M M M
;
_chemical_formula_sum "Si O2"
_cell_formula_units_Z 80
_cell_length_a 15.042579
_cell_length_b 28.761260
_cell_length_c 8.349268
_cell_angle_alpha 90.000000
_cell_angle_beta 90.000000
_cell_angle_gamma 90.000000
_cell_volume 3612.256744
_symmetry_space_group_name_H-M "C M M M"
_symmetry_group_IT_number 65
_symmetry_cell_setting 'orthorhombic'
loop_
_space_group_symop_operation_xyz
x,y,z
-x,-y,z
x,-y,-z
-x,y,-z
-x,-y,-z
x,y,-z
-x,y,z
x,-y,z
1/2+x,1/2+y,z
1/2-x,1/2-y,z
1/2+x,1/2-y,-z
1/2-x,1/2+y,-z
1/2-x,1/2-y,-z
1/2+x,1/2+y,-z
1/2-x,1/2+y,z
1/2+x,1/2-y,z
loop_
_atom_site_type_symbol
_atom_site_label
_atom_site_fract_x
_atom_site_fract_y
_atom_site_fract_z
Si Si1 0.609001 0.445596 0.500000
Si Si2 0.107014 0.402833 0.315224
Si Si3 0.651293 0.802414 0.313769
Si Si4 0.602840 0.000000 0.189486
Si Si5 0.397351 0.397089 0.821857
Si Si6 0.154877 0.793216 0.813672
O O1 0.630753 0.500000 0.500000
O O2 0.500000 0.441322 0.500000
O O3 0.641786 0.421261 0.336098
O O4 0.135638 0.401577 0.500000
O O5 0.130311 0.352916 0.240709
O O6 0.142644 0.450884 0.243471
O O7 0.000000 0.404750 0.309529
O O8 0.624781 0.802315 0.500000
O O9 0.757330 0.798214 0.293759
O O10 0.612050 0.756062 0.232992
O O11 0.500000 0.000000 0.250889
O O12 0.599837 0.000000 0.000000
O O13 0.500000 0.412488 0.830582
O O14 0.396735 0.341413 0.796143
O O15 0.357379 0.406101 0.000000
O O16 0.181133 0.790296 0.000000
#
# Coordination Sequence:
#
# PCOD9488302 Si02
#       6
#     8  16  16   8  16  16
#     4   9  18  32  54  81 104 134 171 209 260 312
#     4   9  18  33  51  73 101 132 167 208 254 300
#     4  10  20  32  51  75  99 133 173 211 251 303
#     4   9  17  29  49  75  99 129 166 205 252 299
#     4   9  19  34  53  79 107 136 171 213 261 308
#     4  10  20  34  52  72 101 138 169 205 256 309
#
# _framework density 22.146820999999999
#
# number of rings (size 3 to 8) (size 9 to 14) (size 15 to 20)
#    0.000    2.600    0.000    2.700    2.800    4.000 
#    0.000    2.000    2.200    0.000    0.000    0.000 
#    0.000    0.000    0.000    0.000    0.000    0.000 
#
# Total GULP energy -222971.936377 kJ/mol
# GULP energy per Si atom -5574.298409 kJ/mol
# Density = 2.209641 g / cm^3
# Si number density = 22.146821 Si / 1000 Ang^3
#
#
#
# Elastic Constant Matrix: (Units=GPa)
#
#
# Indices 1 2 3 4 5 6 
#
# 1 22.7280 3.4547 5.1088 0.0000 0.0000 0.0000
# 2 3.4547 207.2375 86.2296 0.0000 0.0000 0.0000
# 3 5.1088 86.2296 105.6789 0.0000 0.0000 0.0000
# 4 0.0000 0.0000 0.0000 -26.8151 0.0000 0.0000
# 5 0.0000 0.0000 0.0000 0.0000 4.5389 0.0000
# 6 0.0000 0.0000 0.0000 0.0000 0.0000 38.1055
#
#
#
# Elastic Compliance Matrix: (Units=1/GPa)
#
#
# Indices 1 2 3 4 5 6 
#
# 1 0.044489 0.000232 -0.002340 0.000000 0.000000 0.000000
# 2 0.000232 0.007307 -0.005973 0.000000 0.000000 0.000000
# 3 -0.002340 -0.005973 0.014450 0.000000 0.000000 0.000000
# 4 0.000000 0.000000 0.000000 -0.037292 0.000000 0.000000
# 5 0.000000 0.000000 0.000000 0.000000 0.220320 0.000000
# 6 0.000000 0.000000 0.000000 0.000000 0.000000 0.026243
#
#
# Mechanical properties :
#
#
# Convention : Reuss Voigt Hill
#
# Bulk Modulus (GPa) = 19.96678 58.35896 39.16287
# Shear Modulus (GPa) = 16.21410 19.22262 17.71836
#
# Velocity S-wave (km/s) = 2.70870 2.94932 2.83157
# Velocity P-wave (km/s) = 4.33797 6.16491 5.33030
#
# Compressibility (1/GPa) = 0.05008320
#
# Stress axis : x y z
#
# Youngs Moduli (GPa) = 22.47732 136.85510 69.20503
#
# Poissons Ratio (x) = -0.03175 0.16194
# Poissons Ratio (y) = -0.00522 0.41339
# Poissons Ratio (z) = 0.05260 0.81749
#
# Static dielectric constant tensor:
#      x y z
#    x 1.847460 0.000000 0.000000 
#    y 0.000000 1.854510 0.000000 
#    z 0.000000 0.000000 1.799790 
# 
# From -- ./inp_files/12110.got.cif
#   From: 2010.05.17/outbox.cif.g08.bks.cpg/sg65_7_cif.got.tgz:12110.got - 2010.06.03 17:01:31.
