data_PCOD9488422
_publ_section_title
;
Structure prediction by ZEFSAII (Michael W. Deem and Ramdas Pophale) SiO2 
 PCOD9488422
Probable space group: C M M M
;
_chemical_formula_sum "Si O2"
_cell_formula_units_Z 104
_cell_length_a 19.928645
_cell_length_b 9.300053
_cell_length_c 34.371782
_cell_angle_alpha 90.000000
_cell_angle_beta 90.000000
_cell_angle_gamma 90.000000
_cell_volume 6370.378590
_symmetry_space_group_name_H-M "C M M M"
_symmetry_group_IT_number 65
_symmetry_cell_setting 'orthorhombic'
loop_
_space_group_symop_operation_xyz
x,y,z
-x,-y,z
x,-y,-z
-x,y,-z
-x,-y,-z
x,y,-z
-x,y,z
x,-y,z
1/2+x,1/2+y,z
1/2-x,1/2-y,z
1/2+x,1/2-y,-z
1/2-x,1/2+y,-z
1/2-x,1/2-y,-z
1/2+x,1/2+y,-z
1/2-x,1/2+y,z
1/2+x,1/2-y,z
loop_
_atom_site_type_symbol
_atom_site_label
_atom_site_fract_x
_atom_site_fract_y
_atom_site_fract_z
Si Si1 0.922947 0.825041 0.043661
Si Si2 0.581854 0.834703 0.500000
Si Si3 0.918092 0.834949 0.422877
Si Si4 0.320319 0.328045 0.109688
Si Si5 0.678515 0.328049 0.199771
Si Si6 0.079608 0.672742 0.258676
Si Si7 0.081577 0.665156 0.346893
O O1 0.874524 0.777731 0.078151
O O2 0.000000 0.779494 0.049554
O O3 0.923005 0.000000 0.044093
O O4 0.901698 0.781136 0.000000
O O5 0.500000 0.833552 0.500000
O O6 0.603271 0.753903 0.460788
O O7 0.603221 0.000000 0.500000
O O8 0.895656 0.763424 0.382468
O O9 0.000000 0.832575 0.422642
O O10 0.897174 0.000000 0.425721
O O11 0.311567 0.500000 0.105470
O O12 0.250000 0.250000 0.103080
O O13 0.340744 0.302221 0.154515
O O14 0.684723 0.500000 0.205453
O O15 0.750000 0.250000 0.206102
O O16 0.623826 0.259439 0.228197
O O17 0.088359 0.500000 0.254223
O O18 0.100207 0.709823 0.303143
O O19 0.000000 0.702394 0.254282
O O20 0.102587 0.500000 0.353201
O O21 0.000000 0.665268 0.347241
#
# Coordination Sequence:
#
# PCOD9488422 Si02
#       7
#    16   8  16  16  16  16  16
#     4   8  14  26  45  68  93 121 153 188 225 266
#     4   9  15  21  29  41  61  95 138 177 214 263
#     4   9  15  21  30  46  69  97 132 176 220 260
#     4   9  18  31  47  68  92 118 150 188 228 271
#     4  10  20  33  49  68  93 124 156 193 236 281
#     4   9  18  32  49  69  93 120 152 191 233 280
#     4   8  14  25  39  54  75 105 138 172 215 267
#
# _framework density 16.325561
#
# number of rings (size 3 to 8) (size 9 to 14) (size 15 to 20)
#    0.000    3.154    0.000    2.538    0.000    5.231 
#    0.000    3.077    0.000    0.462    0.000    1.077 
#    0.000    0.000    0.000    0.692    0.000   10.000 
#
# Total GULP energy -289541.327702 kJ/mol
# GULP energy per Si atom -5568.102456 kJ/mol
# Density = 1.628840 g / cm^3
# Si number density = 16.325561 Si / 1000 Ang^3
#
#
#
# Elastic Constant Matrix: (Units=GPa)
#
#
# Indices 1 2 3 4 5 6 
#
# 1 44.6887 40.6411 75.9915 0.0000 0.0000 0.0000
# 2 40.6411 77.5179 87.3019 0.0000 0.0000 0.0000
# 3 75.9915 87.3019 174.0847 0.0000 0.0000 0.0000
# 4 0.0000 0.0000 0.0000 20.3042 0.0000 0.0000
# 5 0.0000 0.0000 0.0000 0.0000 -6.3526 0.0000
# 6 0.0000 0.0000 0.0000 0.0000 0.0000 17.2519
#
#
#
# Elastic Compliance Matrix: (Units=1/GPa)
#
#
# Indices 1 2 3 4 5 6 
#
# 1 0.088286 -0.006626 -0.035216 0.000000 0.000000 0.000000
# 2 -0.006626 0.030139 -0.012222 0.000000 0.000000 0.000000
# 3 -0.035216 -0.012222 0.027246 0.000000 0.000000 0.000000
# 4 0.000000 0.000000 0.000000 0.049251 0.000000 0.000000
# 5 0.000000 0.000000 0.000000 0.000000 -0.157415 0.000000
# 6 0.000000 0.000000 0.000000 0.000000 0.000000 0.057965
#
#
# Mechanical properties :
#
#
# Convention : Reuss Voigt Hill
#
# Bulk Modulus (GPa) = 26.63590 78.24004 52.43797
# Shear Modulus (GPa) = 23.13599 12.39781 17.76690
#
# Velocity S-wave (km/s) = 3.76861 2.75873 3.30250
# Velocity P-wave (km/s) = 5.94032 7.62734 6.83607
#
# Compressibility (1/GPa) = 0.03754332
#
# Stress axis : x y z
#
# Youngs Moduli (GPa) = 11.32678 33.18009 36.70277
#
# Poissons Ratio (x) = 0.21985 1.29252
# Poissons Ratio (y) = 0.07505 0.44857
# Poissons Ratio (z) = 0.39888 0.40552
#
# Static dielectric constant tensor:
#      x y z
#    x 1.518060 0.000000 0.000000 
#    y 0.000000 1.541870 0.000000 
#    z 0.000000 0.000000 1.556060 
# 
# From -- ./inp_files/78354.got.cif
#   From: 2010.05.17/outbox.cif.g08.bks.cpg/sg65_40_cif.got.tgz:78354.got - 2010.06.03 17:01:31.
