data_PCOD9488200
_publ_section_title
;
Structure prediction by ZEFSAII (Michael W. Deem and Ramdas Pophale) SiO2 
 PCOD9488200
Probable space group: C M M M
;
_chemical_formula_sum "Si O2"
_cell_formula_units_Z 96
_cell_length_a 8.546868
_cell_length_b 30.221070
_cell_length_c 19.550379
_cell_angle_alpha 90.000000
_cell_angle_beta 90.000000
_cell_angle_gamma 90.000000
_cell_volume 5049.774843
_symmetry_space_group_name_H-M "C M M M"
_symmetry_group_IT_number 65
_symmetry_cell_setting 'orthorhombic'
loop_
_space_group_symop_operation_xyz
x,y,z
-x,-y,z
x,-y,-z
-x,y,-z
-x,-y,-z
x,y,-z
-x,y,z
x,-y,z
1/2+x,1/2+y,z
1/2-x,1/2-y,z
1/2+x,1/2-y,-z
1/2-x,1/2+y,-z
1/2-x,1/2-y,-z
1/2+x,1/2+y,-z
1/2-x,1/2+y,z
1/2+x,1/2-y,z
loop_
_atom_site_type_symbol
_atom_site_label
_atom_site_fract_x
_atom_site_fract_y
_atom_site_fract_z
Si Si1 0.818547 0.417184 0.426268
Si Si2 0.683823 0.678919 0.423499
Si Si3 0.685328 0.797291 0.725911
Si Si4 0.819096 0.879445 0.809634
Si Si5 0.190306 0.050386 0.079812
Si Si6 0.317328 0.049174 0.718710
O O1 0.794842 0.438540 0.500000
O O2 0.712254 0.373870 0.421302
O O3 0.798280 0.448567 0.362470
O O4 0.000000 0.401188 0.423242
O O5 0.742895 0.693179 0.500000
O O6 0.500000 0.689162 0.420957
O O7 0.759007 0.695888 0.353031
O O8 0.500000 0.797185 0.725011
O O9 0.750000 0.750000 0.749028
O O10 0.740403 0.835964 0.777592
O O11 0.753964 0.908277 0.873979
O O12 0.798631 0.915767 0.750405
O O13 0.000000 0.869018 0.823144
O O14 0.000000 0.050060 0.085806
O O15 0.242441 0.000000 0.098495
O O16 0.228731 0.056859 0.000000
O O17 0.500000 0.060850 0.733797
O O18 0.287737 0.000000 0.743871
#
# Coordination Sequence:
#
# PCOD9488200 Si02
#       6
#    16  16  16  16  16  16
#     4   9  17  30  48  69  98 141 187 229 275 326
#     4  10  20  35  56  81 108 139 180 234 292 346
#     4  12  25  41  60  82 110 145 188 235 286 343
#     4  11  21  35  57  84 114 148 185 229 282 332
#     4   8  15  30  55  89 125 157 189 224 265 319
#     4  10  20  32  48  74 108 147 188 229 275 329
#
# _framework density 19.010749000000001
#
# number of rings (size 3 to 8) (size 9 to 14) (size 15 to 20)
#    0.000    2.000    1.667    3.500    0.000    2.667 
#    0.000    1.667    0.000    2.500    0.000    9.333 
#    0.000    0.000    0.000    0.000    0.000    0.000 
#
# Total GULP energy -267511.691151 kJ/mol
# GULP energy per Si atom -5573.160232 kJ/mol
# Density = 1.896748 g / cm^3
# Si number density = 19.010749 Si / 1000 Ang^3
#
#
#
# Elastic Constant Matrix: (Units=GPa)
#
#
# Indices 1 2 3 4 5 6 
#
# 1 48.0609 35.4643 29.0476 0.0000 0.0000 0.0000
# 2 35.4643 108.0653 62.0474 0.0000 0.0000 0.0000
# 3 29.0476 62.0474 124.1977 0.0000 0.0000 0.0000
# 4 0.0000 0.0000 0.0000 32.0622 0.0000 0.0000
# 5 0.0000 0.0000 0.0000 0.0000 4.7755 0.0000
# 6 0.0000 0.0000 0.0000 0.0000 0.0000 12.6617
#
#
#
# Elastic Compliance Matrix: (Units=1/GPa)
#
#
# Indices 1 2 3 4 5 6 
#
# 1 0.028113 -0.007643 -0.002757 0.000000 0.000000 0.000000
# 2 -0.007643 0.015054 -0.005733 0.000000 0.000000 0.000000
# 3 -0.002757 -0.005733 0.011561 0.000000 0.000000 0.000000
# 4 0.000000 0.000000 0.000000 0.031189 0.000000 0.000000
# 5 0.000000 0.000000 0.000000 0.000000 0.209401 0.000000
# 6 0.000000 0.000000 0.000000 0.000000 0.000000 0.078978
#
#
# Mechanical properties :
#
#
# Convention : Reuss Voigt Hill
#
# Bulk Modulus (GPa) = 44.52071 59.27138 51.89604
# Shear Modulus (GPa) = 12.07586 20.15086 16.11336
#
# Velocity S-wave (km/s) = 2.52308 3.25925 2.91450
# Velocity P-wave (km/s) = 5.65309 6.73863 6.21959
#
# Compressibility (1/GPa) = 0.02246146
#
# Stress axis : x y z
#
# Youngs Moduli (GPa) = 35.57076 66.42906 86.50109
#
# Poissons Ratio (x) = 0.50773 0.23846
# Poissons Ratio (y) = 0.27187 0.49591
# Poissons Ratio (z) = 0.09806 0.38084
#
# Static dielectric constant tensor:
#      x y z
#    x 1.676450 0.000000 0.000000 
#    y 0.000000 1.654220 0.000000 
#    z 0.000000 0.000000 1.700550 
# 
# From -- ./inp_files/60187.got.cif
#   From: 2010.05.17/outbox.cif.g08.bks.cpg/sg65_31_cif.got.tgz:60187.got - 2010.06.03 17:01:31.
