data_PCOD9488847
_publ_section_title
;
Structure prediction by ZEFSAII (Michael W. Deem and Ramdas Pophale) SiO2 
 PCOD9488847
Probable space group: C M M M
;
_chemical_formula_sum "Si O2"
_cell_formula_units_Z 72
_cell_length_a 7.436333
_cell_length_b 21.456074
_cell_length_c 23.031834
_cell_angle_alpha 90.000000
_cell_angle_beta 90.000000
_cell_angle_gamma 90.000000
_cell_volume 3674.833014
_symmetry_space_group_name_H-M "C M M M"
_symmetry_group_IT_number 65
_symmetry_cell_setting 'orthorhombic'
loop_
_space_group_symop_operation_xyz
x,y,z
-x,-y,z
x,-y,-z
-x,y,-z
-x,-y,-z
x,y,-z
-x,y,z
x,-y,z
1/2+x,1/2+y,z
1/2-x,1/2-y,z
1/2+x,1/2-y,-z
1/2-x,1/2+y,-z
1/2-x,1/2-y,-z
1/2+x,1/2+y,-z
1/2-x,1/2+y,z
1/2+x,1/2-y,z
loop_
_atom_site_type_symbol
_atom_site_label
_atom_site_fract_x
_atom_site_fract_y
_atom_site_fract_z
Si Si1 0.215150 0.323155 0.756688
Si Si2 0.285858 0.821542 0.000000
Si Si3 0.716040 0.500000 0.069318
Si Si4 0.290674 0.131361 0.880427
Si Si5 0.000000 0.074856 0.434794
Si Si6 0.215934 0.426647 0.662297
O O1 0.250000 0.250000 0.743946
O O2 0.285939 0.342591 0.820489
O O3 0.273816 0.375644 0.710334
O O4 0.000000 0.329695 0.758063
O O5 0.250000 0.750000 0.000000
O O6 0.205916 0.844846 0.060020
O O7 0.500000 0.837447 0.000000
O O8 0.500000 0.500000 0.067314
O O9 0.780965 0.441706 0.107229
O O10 0.775509 0.500000 0.000000
O O11 0.500000 0.151137 0.879978
O O12 0.824865 0.089429 0.396125
O O13 0.000000 0.101106 0.500000
O O14 0.000000 0.000000 0.439888
O O15 0.255432 0.500000 0.677463
O O16 0.000000 0.422671 0.654528
#
# Coordination Sequence:
#
# PCOD9488847 Si02
#       6
#    16   8   8  16   8  16
#     4  10  22  37  57  84 112 152 192 237 289 346
#     4  10  20  33  52  73  97 136 178 230 285 340
#     4  11  23  37  53  79 107 137 179 238 301 348
#     4  10  21  37  55  76 104 141 187 228 284 352
#     4   9  18  34  60  94 124 155 196 238 287 345
#     4   9  19  36  57  87 123 157 196 243 291 343
#
# _framework density 19.592725999999999
#
# number of rings (size 3 to 8) (size 9 to 14) (size 15 to 20)
#    0.000    2.222    1.111    1.000    3.111    2.667 
#    0.000    2.222    0.000    0.667    0.000    0.000 
#    0.000    0.000    0.000    0.000    0.000    0.000 
#
# Total GULP energy -200543.334562 kJ/mol
# GULP energy per Si atom -5570.648182 kJ/mol
# Density = 1.954813 g / cm^3
# Si number density = 19.592726 Si / 1000 Ang^3
#
#
#
# Elastic Constant Matrix: (Units=GPa)
#
#
# Indices 1 2 3 4 5 6 
#
# 1 77.2757 -0.2513 39.5555 0.0000 0.0000 0.0000
# 2 -0.2513 125.5972 83.6933 0.0000 0.0000 0.0000
# 3 39.5555 83.6933 184.7054 0.0000 0.0000 0.0000
# 4 0.0000 0.0000 0.0000 -28.6641 0.0000 0.0000
# 5 0.0000 0.0000 0.0000 0.0000 23.7085 0.0000
# 6 0.0000 0.0000 0.0000 0.0000 0.0000 -7.9247
#
#
#
# Elastic Compliance Matrix: (Units=1/GPa)
#
#
# Indices 1 2 3 4 5 6 
#
# 1 0.015376 0.003187 -0.004737 0.000000 0.000000 0.000000
# 2 0.003187 0.012067 -0.006150 0.000000 0.000000 0.000000
# 3 -0.004737 -0.006150 0.009215 0.000000 0.000000 0.000000
# 4 0.000000 0.000000 0.000000 -0.034887 0.000000 0.000000
# 5 0.000000 0.000000 0.000000 0.000000 0.042179 0.000000
# 6 0.000000 0.000000 0.000000 0.000000 0.000000 -0.126188
#
#
# Mechanical properties :
#
#
# Convention : Reuss Voigt Hill
#
# Bulk Modulus (GPa) = 47.04129 70.39704 58.71917
# Shear Modulus (GPa) = -83.67818 15.06267 -34.30775
#
# Velocity S-wave (km/s) = -6.54229 2.77571 -4.18909
# Velocity P-wave (km/s) = 5.74517 6.80301 2.57623
#
# Compressibility (1/GPa) = 0.02125792
#
# Stress axis : x y z
#
# Youngs Moduli (GPa) = 65.03721 82.87347 108.51589
#
# Poissons Ratio (x) = -0.26415 0.51405
# Poissons Ratio (y) = -0.20730 0.66739
# Poissons Ratio (z) = 0.30808 0.50969
#
# Static dielectric constant tensor:
#      x y z
#    x 1.728960 0.000000 0.000000 
#    y 0.000000 -0.033050 0.000000 
#    z 0.000000 0.000000 1.696070 
# 
# From -- ./inp_files/59320.got.cif
#   From: 2010.05.17/outbox.cif.g08.bks.cpg/sg65_30_cif.got.tgz:59320.got - 2010.06.03 17:01:31.
