data_PCOD9488906
_publ_section_title
;
Structure prediction by ZEFSAII (Michael W. Deem and Ramdas Pophale) SiO2 
 PCOD9488906
Probable space group: C M M M
;
_chemical_formula_sum "Si O2"
_cell_formula_units_Z 80
_cell_length_a 7.520103
_cell_length_b 32.130366
_cell_length_c 15.029509
_cell_angle_alpha 90.000000
_cell_angle_beta 90.000000
_cell_angle_gamma 90.000000
_cell_volume 3631.484999
_symmetry_space_group_name_H-M "C M M M"
_symmetry_group_IT_number 65
_symmetry_cell_setting 'orthorhombic'
loop_
_space_group_symop_operation_xyz
x,y,z
-x,-y,z
x,-y,-z
-x,y,-z
-x,-y,-z
x,y,-z
-x,y,z
x,-y,z
1/2+x,1/2+y,z
1/2-x,1/2-y,z
1/2+x,1/2-y,-z
1/2-x,1/2+y,-z
1/2-x,1/2-y,-z
1/2+x,1/2+y,-z
1/2-x,1/2+y,z
1/2+x,1/2-y,z
loop_
_atom_site_type_symbol
_atom_site_label
_atom_site_fract_x
_atom_site_fract_y
_atom_site_fract_z
Si Si1 0.212915 0.704657 0.711358
Si Si2 0.782019 0.624264 0.602594
Si Si3 0.213328 0.913361 0.098159
Si Si4 0.291946 0.815852 0.097172
Si Si5 0.709866 0.046011 0.716193
O O1 0.250000 0.750000 0.672516
O O2 0.277732 0.665918 0.653407
O O3 0.286293 0.702571 0.812362
O O4 0.000000 0.699764 0.717739
O O5 0.728062 0.623820 0.500000
O O6 0.719239 0.583515 0.655776
O O7 0.000000 0.624334 0.604349
O O8 0.280460 0.865953 0.107517
O O9 0.271785 0.940786 0.180985
O O10 0.000000 0.911584 0.099585
O O11 0.269434 0.928490 0.000000
O O12 0.500000 0.804508 0.093932
O O13 0.213778 0.805180 0.000000
O O14 0.500000 0.043888 0.696672
O O15 0.785674 0.000000 0.701140
#
# Coordination Sequence:
#
# PCOD9488906 Si02
#       5
#    16  16  16  16  16
#     4  10  20  34  53  79 109 142 178 217 264 317
#     4   9  18  35  57  80 108 139 174 223 277 320
#     4  10  20  33  52  79 111 146 180 217 263 315
#     4   9  17  32  54  77 105 142 181 221 265 315
#     4  10  20  35  57  83 108 139 181 222 264 319
#
# _framework density 22.029554999999998
#
# number of rings (size 3 to 8) (size 9 to 14) (size 15 to 20)
#    0.000    2.400    2.000    0.600    0.000    4.000 
#    0.000    4.000    0.000    1.800    0.000    1.400 
#    0.000    0.000    0.000    0.000    0.000    0.000 
#
# Total GULP energy -223391.497879 kJ/mol
# GULP energy per Si atom -5584.787447 kJ/mol
# Density = 2.197942 g / cm^3
# Si number density = 22.029555 Si / 1000 Ang^3
#
#
#
# Elastic Constant Matrix: (Units=GPa)
#
#
# Indices 1 2 3 4 5 6 
#
# 1 59.5280 -1.6372 2.2014 0.0000 0.0000 0.0000
# 2 -1.6372 180.2462 107.9750 0.0000 0.0000 0.0000
# 3 2.2014 107.9750 165.6778 0.0000 0.0000 0.0000
# 4 0.0000 0.0000 0.0000 -3.2894 0.0000 0.0000
# 5 0.0000 0.0000 0.0000 0.0000 -15.6729 0.0000
# 6 0.0000 0.0000 0.0000 0.0000 0.0000 5.5099
#
#
#
# Elastic Compliance Matrix: (Units=1/GPa)
#
#
# Indices 1 2 3 4 5 6 
#
# 1 0.016831 0.000471 -0.000530 0.000000 0.000000 0.000000
# 2 0.000471 0.009114 -0.005946 0.000000 0.000000 0.000000
# 3 -0.000530 -0.005946 0.009918 0.000000 0.000000 0.000000
# 4 0.000000 0.000000 0.000000 -0.304004 0.000000 0.000000
# 5 0.000000 0.000000 0.000000 0.000000 -0.063805 0.000000
# 6 0.000000 0.000000 0.000000 0.000000 0.000000 0.181492
#
#
# Mechanical properties :
#
#
# Convention : Reuss Voigt Hill
#
# Bulk Modulus (GPa) = 41.92545 69.17005 55.54775
# Shear Modulus (GPa) = -38.31683 17.10371 -10.60656
#
# Velocity S-wave (km/s) = -4.17506 2.78942 -2.19662
# Velocity P-wave (km/s) = 2.04175 6.46849 4.34008
#
# Compressibility (1/GPa) = 0.02385186
#
# Stress axis : x y z
#
# Youngs Moduli (GPa) = 59.41286 109.71852 100.82612
#
# Poissons Ratio (x) = -0.05163 0.05347
# Poissons Ratio (y) = -0.02796 0.59953
# Poissons Ratio (z) = 0.03151 0.65240
#
# Static dielectric constant tensor:
#      x y z
#    x 1.905360 0.000000 0.000000 
#    y 0.000000 1.787910 0.000000 
#    z 0.000000 0.000000 1.810120 
# 
# From -- ./inp_files/38549.got.cif
#   From: 2010.05.17/outbox.cif.g08.bks.cpg/sg65_20_cif.got.tgz:38549.got - 2010.06.03 17:01:31.
