data_PCOD9488296
_publ_section_title
;
Structure prediction by ZEFSAII (Michael W. Deem and Ramdas Pophale) SiO2 
 PCOD9488296
Probable space group: C M M M
;
_chemical_formula_sum "Si O2"
_cell_formula_units_Z 88
_cell_length_a 27.920553
_cell_length_b 18.409793
_cell_length_c 7.370462
_cell_angle_alpha 90.000000
_cell_angle_beta 90.000000
_cell_angle_gamma 90.000000
_cell_volume 3788.502974
_symmetry_space_group_name_H-M "C M M M"
_symmetry_group_IT_number 65
_symmetry_cell_setting 'orthorhombic'
loop_
_space_group_symop_operation_xyz
x,y,z
-x,-y,z
x,-y,-z
-x,y,-z
-x,-y,-z
x,y,-z
-x,y,z
x,-y,z
1/2+x,1/2+y,z
1/2-x,1/2-y,z
1/2+x,1/2-y,-z
1/2-x,1/2+y,-z
1/2-x,1/2-y,-z
1/2+x,1/2+y,-z
1/2-x,1/2+y,z
1/2+x,1/2-y,z
loop_
_atom_site_type_symbol
_atom_site_label
_atom_site_fract_x
_atom_site_fract_y
_atom_site_fract_z
Si Si1 0.356939 0.580461 0.714755
Si Si2 0.554688 0.671537 0.218045
Si Si3 0.907156 0.673953 0.221161
Si Si4 0.000000 0.417146 0.778921
Si Si5 0.774723 0.178610 0.291951
Si Si6 0.184966 0.583573 0.780034
O O1 0.346612 0.577554 0.500000
O O2 0.347734 0.500000 0.788800
O O3 0.411744 0.603997 0.736747
O O4 0.322337 0.643350 0.791012
O O5 0.500000 0.668158 0.283976
O O6 0.581539 0.744551 0.282671
O O7 0.552281 0.676526 0.000000
O O8 0.857959 0.636553 0.279968
O O9 0.952271 0.624832 0.276326
O O10 0.906024 0.674682 0.000000
O O11 0.000000 0.500000 0.718552
O O12 0.000000 0.417290 0.000000
O O13 0.786460 0.199063 0.500000
O O14 0.750000 0.250000 0.208212
O O15 0.734881 0.115763 0.287369
O O16 0.177223 0.500000 0.725031
O O17 0.186078 0.584693 0.000000
#
# Coordination Sequence:
#
# PCOD9488296 Si02
#       6
#    16  16  16   8  16  16
#     4  10  22  39  57  78 106 139 176 219 266 319
#     4  10  20  35  56  81 108 139 177 222 270 317
#     4   9  16  29  47  73 109 143 175 214 260 308
#     4   9  14  22  42  70 102 141 178 210 251 305
#     4  10  21  38  59  81 105 138 181 223 268 324
#     4  10  20  32  50  80 114 144 177 218 263 314
#
# _framework density 23.228172000000001
#
# number of rings (size 3 to 8) (size 9 to 14) (size 15 to 20)
#    0.000    2.273    0.909    2.182    0.000    5.455 
#    0.000    1.818    0.000    0.000    0.000    0.000 
#    0.000    2.909    0.000    0.000    0.000    0.000 
#
# Total GULP energy -245985.673520 kJ/mol
# GULP energy per Si atom -5590.583489 kJ/mol
# Density = 2.317530 g / cm^3
# Si number density = 23.228172 Si / 1000 Ang^3
#
#
#
# Elastic Constant Matrix: (Units=GPa)
#
#
# Indices 1 2 3 4 5 6 
#
# 1 129.3448 41.6796 -6.8284 0.0000 0.0000 0.0000
# 2 41.6796 126.8967 4.1499 0.0000 0.0000 0.0000
# 3 -6.8284 4.1499 86.3542 0.0000 0.0000 0.0000
# 4 0.0000 0.0000 0.0000 19.8689 0.0000 0.0000
# 5 0.0000 0.0000 0.0000 0.0000 7.6159 0.0000
# 6 0.0000 0.0000 0.0000 0.0000 0.0000 52.7259
#
#
#
# Elastic Compliance Matrix: (Units=1/GPa)
#
#
# Indices 1 2 3 4 5 6 
#
# 1 0.008705 -0.002886 0.000827 0.000000 0.000000 0.000000
# 2 -0.002886 0.008850 -0.000654 0.000000 0.000000 0.000000
# 3 0.000827 -0.000654 0.011677 0.000000 0.000000 0.000000
# 4 0.000000 0.000000 0.000000 0.050330 0.000000 0.000000
# 5 0.000000 0.000000 0.000000 0.000000 0.131304 0.000000
# 6 0.000000 0.000000 0.000000 0.000000 0.000000 0.018966
#
#
# Mechanical properties :
#
#
# Convention : Reuss Voigt Hill
#
# Bulk Modulus (GPa) = 42.00553 46.73310 44.36931
# Shear Modulus (GPa) = 20.55981 36.28178 28.42079
#
# Velocity S-wave (km/s) = 2.97833 3.95647 3.50172
# Velocity P-wave (km/s) = 5.47270 6.40581 5.95755
#
# Compressibility (1/GPa) = 0.02380639
#
# Stress axis : x y z
#
# Youngs Moduli (GPa) = 114.87678 112.99708 85.63827
#
# Poissons Ratio (x) = 0.32613 -0.07083
# Poissons Ratio (y) = 0.33156 0.05597
# Poissons Ratio (z) = -0.09501 0.07385
#
# Static dielectric constant tensor:
#      x y z
#    x 1.831280 0.000000 0.000000 
#    y 0.000000 1.847320 0.000000 
#    z 0.000000 0.000000 1.986930 
# 
# From -- ./inp_files/30535.got.cif
#   From: 2010.05.17/outbox.cif.g08.bks.cpg/sg65_16_cif.got.tgz:30535.got - 2010.06.03 17:01:31.
