data_PCOD9488952
_publ_section_title
;
Structure prediction by ZEFSAII (Michael W. Deem and Ramdas Pophale) SiO2 
 PCOD9488952
Probable space group: C M M M
;
_chemical_formula_sum "Si O2"
_cell_formula_units_Z 80
_cell_length_a 8.832751
_cell_length_b 19.432509
_cell_length_c 26.684330
_cell_angle_alpha 90.000000
_cell_angle_beta 90.000000
_cell_angle_gamma 90.000000
_cell_volume 4580.165467
_symmetry_space_group_name_H-M "C M M M"
_symmetry_group_IT_number 65
_symmetry_cell_setting 'orthorhombic'
loop_
_space_group_symop_operation_xyz
x,y,z
-x,-y,z
x,-y,-z
-x,y,-z
-x,-y,-z
x,y,-z
-x,y,z
x,-y,z
1/2+x,1/2+y,z
1/2-x,1/2-y,z
1/2+x,1/2-y,-z
1/2-x,1/2+y,-z
1/2-x,1/2-y,-z
1/2+x,1/2+y,-z
1/2-x,1/2+y,z
1/2+x,1/2-y,z
loop_
_atom_site_type_symbol
_atom_site_label
_atom_site_fract_x
_atom_site_fract_y
_atom_site_fract_z
Si Si1 0.180949 0.918791 0.942122
Si Si2 0.682116 0.919335 0.556785
Si Si3 0.819883 0.326616 0.143875
Si Si4 0.819198 0.826414 0.643340
Si Si5 0.818553 0.173065 0.245716
O O1 0.269192 0.872596 0.902751
O O2 0.000000 0.908620 0.935776
O O3 0.211467 0.000000 0.934705
O O4 0.218195 0.901998 0.000000
O O5 0.726852 0.899127 0.500000
O O6 0.500000 0.913102 0.559975
O O7 0.757104 0.873591 0.599236
O O8 0.719639 0.000000 0.563183
O O9 0.750000 0.250000 0.138396
O O10 0.754219 0.358120 0.195787
O O11 0.000000 0.321091 0.147290
O O12 0.750000 0.750000 0.639420
O O13 0.782777 0.855908 0.699065
O O14 0.000000 0.820771 0.640228
O O15 0.750000 0.250000 0.247238
O O16 0.000000 0.175848 0.240026
#
# Coordination Sequence:
#
# PCOD9488952 Si02
#       5
#    16  16  16  16  16
#     4   9  19  37  58  77 101 135 171 209 257 307
#     4   9  19  36  55  74 100 135 171 209 256 305
#     4  11  21  33  53  79 106 136 171 211 253 299
#     4  10  20  33  53  79 104 133 169 210 254 300
#     4   9  17  31  50  73 102 134 168 207 253 302
#
# _framework density 17.466618
#
# number of rings (size 3 to 8) (size 9 to 14) (size 15 to 20)
#    0.000    2.400    0.000    5.400    0.000    4.800 
#    0.000    3.000    0.000    1.200    0.000    0.000 
#    0.000    0.000    0.000    0.000    0.000    0.000 
#
# Total GULP energy -223039.989564 kJ/mol
# GULP energy per Si atom -5575.999739 kJ/mol
# Density = 1.742686 g / cm^3
# Si number density = 17.466618 Si / 1000 Ang^3
#
#
#
# Elastic Constant Matrix: (Units=GPa)
#
#
# Indices 1 2 3 4 5 6 
#
# 1 88.9792 43.8113 86.4491 0.0000 0.0000 0.0000
# 2 43.8113 48.9571 77.5705 0.0000 0.0000 0.0000
# 3 86.4491 77.5705 189.9078 0.0000 0.0000 0.0000
# 4 0.0000 0.0000 0.0000 -133.2492 0.0000 0.0000
# 5 0.0000 0.0000 0.0000 0.0000 26.4653 0.0000
# 6 0.0000 0.0000 0.0000 0.0000 0.0000 24.4720
#
#
#
# Elastic Compliance Matrix: (Units=1/GPa)
#
#
# Indices 1 2 3 4 5 6 
#
# 1 0.022005 -0.010829 -0.005594 0.000000 0.000000 0.000000
# 2 -0.010829 0.063225 -0.020896 0.000000 0.000000 0.000000
# 3 -0.005594 -0.020896 0.016347 0.000000 0.000000 0.000000
# 4 0.000000 0.000000 0.000000 -0.007505 0.000000 0.000000
# 5 0.000000 0.000000 0.000000 0.000000 0.037785 0.000000
# 6 0.000000 0.000000 0.000000 0.000000 0.000000 0.040863
#
#
# Mechanical properties :
#
#
# Convention : Reuss Voigt Hill
#
# Bulk Modulus (GPa) = 37.11876 82.61177 59.86527
# Shear Modulus (GPa) = 19.50539 -8.46150 5.52194
#
# Velocity S-wave (km/s) = 3.34537 -2.20338 1.77997
# Velocity P-wave (km/s) = 6.01825 6.39738 6.21071
#
# Compressibility (1/GPa) = 0.02694055
#
# Stress axis : x y z
#
# Youngs Moduli (GPa) = 45.44325 15.81645 61.17227
#
# Poissons Ratio (x) = 0.17128 0.34219
# Poissons Ratio (y) = 0.49211 1.27823
# Poissons Ratio (z) = 0.25421 0.33050
#
# Static dielectric constant tensor:
#      x y z
#    x 1.579940 0.000000 0.000000 
#    y 0.000000 1.565530 0.000000 
#    z 0.000000 0.000000 1.623990 
# 
# From -- ./inp_files/72817.got.cif
#   From: 2010.05.17/outbox.cif.g08.bks.cpg/sg65_37_cif.got.tgz:72817.got - 2010.06.03 17:01:31.
