data_PCOD9488719
_publ_section_title
;
Structure prediction by ZEFSAII (Michael W. Deem and Ramdas Pophale) SiO2 
 PCOD9488719
Probable space group: C M M M
;
_chemical_formula_sum "Si O2"
_cell_formula_units_Z 128
_cell_length_a 22.098589
_cell_length_b 14.487048
_cell_length_c 18.936926
_cell_angle_alpha 90.000000
_cell_angle_beta 90.000000
_cell_angle_gamma 90.000000
_cell_volume 6062.530352
_symmetry_space_group_name_H-M "C M M M"
_symmetry_group_IT_number 65
_symmetry_cell_setting 'orthorhombic'
loop_
_space_group_symop_operation_xyz
x,y,z
-x,-y,z
x,-y,-z
-x,y,-z
-x,-y,-z
x,y,-z
-x,y,z
x,-y,z
1/2+x,1/2+y,z
1/2-x,1/2-y,z
1/2+x,1/2-y,-z
1/2-x,1/2+y,-z
1/2-x,1/2-y,-z
1/2+x,1/2+y,-z
1/2-x,1/2+y,z
1/2+x,1/2-y,z
loop_
_atom_site_type_symbol
_atom_site_label
_atom_site_fract_x
_atom_site_fract_y
_atom_site_fract_z
Si Si1 0.391023 0.304780 0.422164
Si Si2 0.129481 0.602603 0.625818
Si Si3 0.759439 0.888182 0.924144
Si Si4 0.934051 0.137783 0.725678
Si Si5 0.305983 0.603542 0.779783
Si Si6 0.271737 0.609358 0.371956
Si Si7 0.615942 0.110527 0.922632
Si Si8 0.068121 0.648395 0.767637
O O1 0.413372 0.327164 0.500000
O O2 0.399155 0.195146 0.407175
O O3 0.421273 0.360934 0.358180
O O4 0.319826 0.332560 0.416518
O O5 0.110611 0.500000 0.600640
O O6 0.201117 0.612487 0.611035
O O7 0.114081 0.606032 0.709929
O O8 0.791353 0.850987 0.854226
O O9 0.687865 0.871765 0.918854
O O10 0.768033 0.000000 0.925800
O O11 0.781665 0.852414 0.000000
O O12 0.877173 0.097002 0.766154
O O13 0.933470 0.244407 0.748137
O O14 0.000000 0.100018 0.741279
O O15 0.279235 0.500000 0.782150
O O16 0.279634 0.645750 0.708393
O O17 0.289392 0.500000 0.374403
O O18 0.586309 0.141020 0.849400
O O19 0.608260 0.000000 0.924066
O O20 0.594152 0.145682 0.000000
O O21 0.000000 0.610747 0.757386
#
# Coordination Sequence:
#
# PCOD9488719 Si02
#       8
#    16  16  16  16  16  16  16  16
#     4  10  21  36  54  77 104 131 161 202 252 306
#     4  10  20  33  51  75 102 134 171 209 251 298
#     4   8  14  26  46  73 103 131 159 197 248 300
#     4   9  20  37  53  71  95 127 167 204 244 295
#     4   9  16  29  52  76  97 125 163 206 247 290
#     4   9  18  32  51  76 104 134 167 203 247 301
#     4   9  17  29  47  72 100 130 165 204 246 293
#     4  10  20  34  50  67  96 137 175 212 250 291
#
# _framework density 21.113295999999998
#
# number of rings (size 3 to 8) (size 9 to 14) (size 15 to 20)
#    0.000    2.750    0.000    2.250    0.000    5.250 
#    0.000    4.375    0.000    2.625    0.000    8.750 
#    0.000    0.000    0.000    0.000    0.000    0.000 
#
# Total GULP energy -356833.612139 kJ/mol
# GULP energy per Si atom -5575.525190 kJ/mol
# Density = 2.106524 g / cm^3
# Si number density = 21.113296 Si / 1000 Ang^3
#
#
#
# Elastic Constant Matrix: (Units=GPa)
#
#
# Indices 1 2 3 4 5 6 
#
# 1 26.6124 1.2007 3.6422 0.0000 0.0000 0.0000
# 2 1.2007 72.4731 10.1454 0.0000 0.0000 0.0000
# 3 3.6422 10.1454 120.7020 0.0000 0.0000 0.0000
# 4 0.0000 0.0000 0.0000 9.5429 0.0000 0.0000
# 5 0.0000 0.0000 0.0000 0.0000 21.4789 0.0000
# 6 0.0000 0.0000 0.0000 0.0000 0.0000 46.1460
#
#
#
# Elastic Compliance Matrix: (Units=1/GPa)
#
#
# Indices 1 2 3 4 5 6 
#
# 1 0.037748 -0.000471 -0.001099 0.000000 0.000000 0.000000
# 2 -0.000471 0.013968 -0.001160 0.000000 0.000000 0.000000
# 3 -0.001099 -0.001160 0.008416 0.000000 0.000000 0.000000
# 4 0.000000 0.000000 0.000000 0.104790 0.000000 0.000000
# 5 0.000000 0.000000 0.000000 0.000000 0.046557 0.000000
# 6 0.000000 0.000000 0.000000 0.000000 0.000000 0.021670
#
#
# Mechanical properties :
#
#
# Convention : Reuss Voigt Hill
#
# Bulk Modulus (GPa) = 18.29139 27.75158 23.02148
# Shear Modulus (GPa) = 19.46779 29.08685 24.27732
#
# Velocity S-wave (km/s) = 3.03984 3.71571 3.39464
# Velocity P-wave (km/s) = 4.58292 5.61972 5.12759
#
# Compressibility (1/GPa) = 0.05467054
#
# Stress axis : x y z
#
# Youngs Moduli (GPa) = 26.49133 71.59020 118.82791
#
# Poissons Ratio (x) = 0.03375 0.13064
# Poissons Ratio (y) = 0.01249 0.13782
# Poissons Ratio (z) = 0.02913 0.08303
#
# Static dielectric constant tensor:
#      x y z
#    x 1.757560 0.000000 0.000000 
#    y 0.000000 1.814980 0.000000 
#    z 0.000000 0.000000 1.827700 
# 
# From -- ./inp_files/57026.got.cif
#   From: 2010.05.17/outbox.cif.g08.bks.cpg/sg65_29_cif.got.tgz:57026.got - 2010.06.03 17:01:31.
