data_PCOD9488659
_publ_section_title
;
Structure prediction by ZEFSAII (Michael W. Deem and Ramdas Pophale) SiO2 
 PCOD9488659
Probable space group: C M M M
;
_chemical_formula_sum "Si O2"
_cell_formula_units_Z 72
_cell_length_a 28.866037
_cell_length_b 7.833428
_cell_length_c 18.712195
_cell_angle_alpha 90.000000
_cell_angle_beta 90.000000
_cell_angle_gamma 90.000000
_cell_volume 4231.201954
_symmetry_space_group_name_H-M "C M M M"
_symmetry_group_IT_number 65
_symmetry_cell_setting 'orthorhombic'
loop_
_space_group_symop_operation_xyz
x,y,z
-x,-y,z
x,-y,-z
-x,y,-z
-x,-y,-z
x,y,-z
-x,y,z
x,-y,z
1/2+x,1/2+y,z
1/2-x,1/2-y,z
1/2+x,1/2-y,-z
1/2-x,1/2+y,-z
1/2-x,1/2-y,-z
1/2+x,1/2+y,-z
1/2-x,1/2+y,z
1/2+x,1/2-y,z
loop_
_atom_site_type_symbol
_atom_site_label
_atom_site_fract_x
_atom_site_fract_y
_atom_site_fract_z
Si Si1 0.695914 0.705900 0.079828
Si Si2 0.445591 0.195487 0.312541
Si Si3 0.444267 0.500000 0.580555
Si Si4 0.051998 0.300029 0.915292
Si Si5 0.376494 0.308693 0.189925
O O1 0.690864 0.500000 0.080354
O O2 0.750000 0.750000 0.084984
O O3 0.668090 0.770523 0.149600
O O4 0.679962 0.766164 0.000000
O O5 0.500000 0.228888 0.290236
O O6 0.433103 0.331866 0.373507
O O7 0.407619 0.217329 0.249911
O O8 0.444383 0.000000 0.337617
O O9 0.500000 0.500000 0.575032
O O10 0.425263 0.500000 0.500000
O O11 0.060947 0.500000 0.898592
O O12 0.088484 0.185196 0.876547
O O13 0.000000 0.260657 0.891445
O O14 0.053880 0.281716 0.000000
O O15 0.365526 0.500000 0.215956
#
# Coordination Sequence:
#
# PCOD9488659 Si02
#       5
#    16  16   8  16  16
#     4   9  19  34  49  66  90 124 168 217 264 309
#     4  10  20  33  50  75 106 139 172 205 245 295
#     4   9  18  34  54  76 105 139 171 203 242 290
#     4   9  18  30  41  57  84 119 162 205 241 284
#     4  11  20  30  46  67  94 127 162 208 253 303
#
# _framework density 17.016441
#
# number of rings (size 3 to 8) (size 9 to 14) (size 15 to 20)
#    0.000    2.333    1.111    2.667    0.000    6.667 
#    0.000    5.556    0.000    0.000    0.000    0.000 
#    0.000    0.889    0.444    0.000    0.000    0.000 
#
# Total GULP energy -200491.046463 kJ/mol
# GULP energy per Si atom -5569.195735 kJ/mol
# Density = 1.697771 g / cm^3
# Si number density = 17.016441 Si / 1000 Ang^3
#
#
#
# Elastic Constant Matrix: (Units=GPa)
#
#
# Indices 1 2 3 4 5 6 
#
# 1 55.6030 22.7079 44.2673 0.0000 0.0000 0.0000
# 2 22.7079 57.3235 35.8849 0.0000 0.0000 0.0000
# 3 44.2673 35.8849 93.2384 0.0000 0.0000 0.0000
# 4 0.0000 0.0000 0.0000 8.7012 0.0000 0.0000
# 5 0.0000 0.0000 0.0000 0.0000 26.2901 0.0000
# 6 0.0000 0.0000 0.0000 0.0000 0.0000 15.2759
#
#
#
# Elastic Compliance Matrix: (Units=1/GPa)
#
#
# Indices 1 2 3 4 5 6 
#
# 1 0.029545 -0.003850 -0.012545 0.000000 0.000000 0.000000
# 2 -0.003850 0.023484 -0.007210 0.000000 0.000000 0.000000
# 3 -0.012545 -0.007210 0.019456 0.000000 0.000000 0.000000
# 4 0.000000 0.000000 0.000000 0.114926 0.000000 0.000000
# 5 0.000000 0.000000 0.000000 0.000000 0.038037 0.000000
# 6 0.000000 0.000000 0.000000 0.000000 0.000000 0.065462
#
#
# Mechanical properties :
#
#
# Convention : Reuss Voigt Hill
#
# Bulk Modulus (GPa) = 39.56742 45.76501 42.66621
# Shear Modulus (GPa) = 14.42806 16.94043 15.68425
#
# Velocity S-wave (km/s) = 2.91501 3.15863 3.03926
# Velocity P-wave (km/s) = 5.88495 6.34473 6.11916
#
# Compressibility (1/GPa) = 0.02527332
#
# Stress axis : x y z
#
# Youngs Moduli (GPa) = 33.84700 42.58268 51.39704
#
# Poissons Ratio (x) = 0.16396 0.64479
# Poissons Ratio (y) = 0.13032 0.37058
# Poissons Ratio (z) = 0.42462 0.30703
#
# Static dielectric constant tensor:
#      x y z
#    x 1.601150 0.000000 0.000000 
#    y 0.000000 1.638450 0.000000 
#    z 0.000000 0.000000 1.592800 
# 
# From -- ./inp_files/57128.got.cif
#   From: 2010.05.17/outbox.cif.g08.bks.cpg/sg65_29_cif.got.tgz:57128.got - 2010.06.03 17:01:31.
