data_PCOD9488185
_publ_section_title
;
Structure prediction by ZEFSAII (Michael W. Deem and Ramdas Pophale) SiO2 
 PCOD9488185
Probable space group: C M M M
;
_chemical_formula_sum "Si O2"
_cell_formula_units_Z 88
_cell_length_a 17.225776
_cell_length_b 23.718646
_cell_length_c 11.141989
_cell_angle_alpha 90.000000
_cell_angle_beta 90.000000
_cell_angle_gamma 90.000000
_cell_volume 4552.305655
_symmetry_space_group_name_H-M "C M M M"
_symmetry_group_IT_number 65
_symmetry_cell_setting 'orthorhombic'
loop_
_space_group_symop_operation_xyz
x,y,z
-x,-y,z
x,-y,-z
-x,y,-z
-x,-y,-z
x,y,-z
-x,y,z
x,-y,z
1/2+x,1/2+y,z
1/2-x,1/2-y,z
1/2+x,1/2-y,-z
1/2-x,1/2+y,-z
1/2-x,1/2-y,-z
1/2+x,1/2+y,-z
1/2-x,1/2+y,z
1/2+x,1/2-y,z
loop_
_atom_site_type_symbol
_atom_site_label
_atom_site_fract_x
_atom_site_fract_y
_atom_site_fract_z
Si Si1 0.153934 0.103975 0.784092
Si Si2 0.670577 0.279561 0.641601
Si Si3 0.500000 0.646842 0.872466
Si Si4 0.909182 0.431298 0.368178
Si Si5 0.000000 0.227146 0.640202
Si Si6 0.090477 0.000000 0.357513
Si Si7 0.680881 0.068250 0.131385
O O1 0.164692 0.162295 0.713314
O O2 0.077987 0.110798 0.865272
O O3 0.231175 0.088561 0.854898
O O4 0.134194 0.054467 0.691683
O O5 0.678855 0.291238 0.500000
O O6 0.750000 0.250000 0.681517
O O7 0.587015 0.246812 0.653912
O O8 0.500000 0.682452 0.749069
O O9 0.500000 0.679020 0.000000
O O10 0.879320 0.412462 0.500000
O O11 0.905399 0.500000 0.368355
O O12 0.864677 0.411466 0.249847
O O13 0.000000 0.416218 0.360758
O O14 0.000000 0.205540 0.500000
O O15 0.091248 0.000000 0.500000
O O16 0.000000 0.000000 0.318590
O O17 0.679546 0.000000 0.134417
O O18 0.649599 0.085509 0.000000
#
# Coordination Sequence:
#
# PCOD9488185 Si02
#       7
#    16  16   8  16   8   8  16
#     4  11  20  35  51  77 113 155 191 234 278 336
#     4   9  18  33  56  84 111 144 188 239 291 343
#     4  10  20  33  53  78 111 154 193 227 274 335
#     4   8  15  29  48  69  93 124 169 224 278 328
#     4   8  16  32  57  83 110 139 179 237 294 340
#     4  11  22  34  50  80 119 156 193 234 288 351
#     4  10  20  32  48  73 107 144 184 225 271 333
#
# _framework density 19.330863000000001
#
# number of rings (size 3 to 8) (size 9 to 14) (size 15 to 20)
#    0.000    2.455    1.818    1.636    0.000    2.545 
#    0.000    2.273    2.000   13.636    0.000    0.000 
#    0.000    0.000    0.000    0.000    0.000    0.000 
#
# Total GULP energy -244942.558103 kJ/mol
# GULP energy per Si atom -5566.876321 kJ/mol
# Density = 1.928687 g / cm^3
# Si number density = 19.330863 Si / 1000 Ang^3
#
#
#
# Elastic Constant Matrix: (Units=GPa)
#
#
# Indices 1 2 3 4 5 6 
#
# 1 119.3466 32.0558 72.7062 0.0000 0.0000 0.0000
# 2 32.0558 35.7073 12.7755 0.0000 0.0000 0.0000
# 3 72.7062 12.7755 135.8728 0.0000 0.0000 0.0000
# 4 0.0000 0.0000 0.0000 74.9738 0.0000 0.0000
# 5 0.0000 0.0000 0.0000 0.0000 -43.3308 0.0000
# 6 0.0000 0.0000 0.0000 0.0000 0.0000 34.4500
#
#
#
# Elastic Compliance Matrix: (Units=1/GPa)
#
#
# Indices 1 2 3 4 5 6 
#
# 1 0.016127 -0.011787 -0.007521 0.000000 0.000000 0.000000
# 2 -0.011787 0.037595 0.002772 0.000000 0.000000 0.000000
# 3 -0.007521 0.002772 0.011124 0.000000 0.000000 0.000000
# 4 0.000000 0.000000 0.000000 0.013338 0.000000 0.000000
# 5 0.000000 0.000000 0.000000 0.000000 -0.023078 0.000000
# 6 0.000000 0.000000 0.000000 0.000000 0.000000 0.029028
#
#
# Mechanical properties :
#
#
# Convention : Reuss Voigt Hill
#
# Bulk Modulus (GPa) = 31.47212 58.44464 44.95838
# Shear Modulus (GPa) = 39.12500 24.77789 31.95144
#
# Velocity S-wave (km/s) = 4.50373 3.58408 4.06996
# Velocity P-wave (km/s) = 6.58490 6.88672 6.73750
#
# Compressibility (1/GPa) = 0.03177415
#
# Stress axis : x y z
#
# Youngs Moduli (GPa) = 62.00879 26.59933 89.89714
#
# Poissons Ratio (x) = 0.31352 0.67614
# Poissons Ratio (y) = 0.73087 -0.24921
# Poissons Ratio (z) = 0.46638 -0.07374
#
# Static dielectric constant tensor:
#      x y z
#    x 1.720420 0.000000 0.000000 
#    y 0.000000 1.656330 0.000000 
#    z 0.000000 0.000000 1.690290 
# 
# From -- ./inp_files/24884.got.cif
#   From: 2010.05.17/outbox.cif.g08.bks.cpg/sg65_13_cif.got.tgz:24884.got - 2010.06.03 17:01:31.
