data_PCOD9488472
_publ_section_title
;
Structure prediction by ZEFSAII (Michael W. Deem and Ramdas Pophale) SiO2 
 PCOD9488472
Probable space group: C M M M
;
_chemical_formula_sum "Si O2"
_cell_formula_units_Z 88
_cell_length_a 8.807289
_cell_length_b 17.012122
_cell_length_c 30.028624
_cell_angle_alpha 90.000000
_cell_angle_beta 90.000000
_cell_angle_gamma 90.000000
_cell_volume 4499.209002
_symmetry_space_group_name_H-M "C M M M"
_symmetry_group_IT_number 65
_symmetry_cell_setting 'orthorhombic'
loop_
_space_group_symop_operation_xyz
x,y,z
-x,-y,z
x,-y,-z
-x,y,-z
-x,-y,-z
x,y,-z
-x,y,z
x,-y,z
1/2+x,1/2+y,z
1/2-x,1/2-y,z
1/2+x,1/2-y,-z
1/2-x,1/2+y,-z
1/2-x,1/2-y,-z
1/2+x,1/2+y,-z
1/2-x,1/2+y,z
1/2+x,1/2-y,z
loop_
_atom_site_type_symbol
_atom_site_label
_atom_site_fract_x
_atom_site_fract_y
_atom_site_fract_z
Si Si1 0.822298 0.596091 0.855540
Si Si2 0.679695 0.836972 0.321353
Si Si3 0.815722 0.593364 0.047855
Si Si4 0.181336 0.162269 0.588298
Si Si5 0.672814 0.093404 0.500000
Si Si6 0.828549 0.905430 0.764414
O O1 0.815944 0.500000 0.856581
O O2 0.763754 0.624229 0.904009
O O3 0.731291 0.623094 0.812318
O O4 0.000000 0.616599 0.850728
O O5 0.500000 0.832379 0.327651
O O6 0.750000 0.750000 0.317173
O O7 0.755204 0.873736 0.365632
O O8 0.722409 0.880961 0.276190
O O9 0.780237 0.500000 0.047160
O O10 0.000000 0.598619 0.048647
O O11 0.763119 0.626591 0.000000
O O12 0.250000 0.250000 0.586574
O O13 0.240843 0.120189 0.544252
O O14 0.000000 0.164898 0.589462
O O15 0.500000 0.125719 0.500000
O O16 0.664814 0.000000 0.500000
O O17 0.000000 0.877004 0.756076
O O18 0.831226 0.000000 0.766447
#
# Coordination Sequence:
#
# PCOD9488472 Si02
#       6
#    16  16  16  16   8  16
#     4   8  13  22  37  58  85 119 160 203 248 299
#     4  11  22  38  59  81 106 135 172 215 259 306
#     4   7   9  14  27  49  77 110 150 196 243 291
#     4  11  22  39  62  85 111 142 178 215 256 306
#     4  11  24  41  60  85 117 149 182 219 258 299
#     4  10  20  33  49  71 101 136 172 210 255 306
#
# _framework density 19.558993999999998
#
# number of rings (size 3 to 8) (size 9 to 14) (size 15 to 20)
#    0.000    2.455    0.000    7.091    0.000    2.545 
#    0.000    0.000    0.000    0.545    0.000    3.818 
#    0.000    0.727    0.000    2.000    0.000    5.091 
#
# Total GULP energy -245322.824580 kJ/mol
# GULP energy per Si atom -5575.518740 kJ/mol
# Density = 1.951448 g / cm^3
# Si number density = 19.558994 Si / 1000 Ang^3
#
#
#
# Elastic Constant Matrix: (Units=GPa)
#
#
# Indices 1 2 3 4 5 6 
#
# 1 137.2670 10.6448 65.9544 0.0000 0.0000 0.0000
# 2 10.6448 7.0793 20.7164 0.0000 0.0000 0.0000
# 3 65.9544 20.7164 196.1437 0.0000 0.0000 0.0000
# 4 0.0000 0.0000 0.0000 22.5583 0.0000 0.0000
# 5 0.0000 0.0000 0.0000 0.0000 23.9794 0.0000
# 6 0.0000 0.0000 0.0000 0.0000 0.0000 14.7608
#
#
#
# Elastic Compliance Matrix: (Units=1/GPa)
#
#
# Indices 1 2 3 4 5 6 
#
# 1 0.008903 -0.006696 -0.002286 0.000000 0.000000 0.000000
# 2 -0.006696 0.209484 -0.019874 0.000000 0.000000 0.000000
# 3 -0.002286 -0.019874 0.007966 0.000000 0.000000 0.000000
# 4 0.000000 0.000000 0.000000 0.044330 0.000000 0.000000
# 5 0.000000 0.000000 0.000000 0.000000 0.041703 0.000000
# 6 0.000000 0.000000 0.000000 0.000000 0.000000 0.067747
#
#
# Mechanical properties :
#
#
# Convention : Reuss Voigt Hill
#
# Bulk Modulus (GPa) = 5.92978 59.45792 32.69385
# Shear Modulus (GPa) = 10.12026 28.47131 19.29578
#
# Velocity S-wave (km/s) = 2.27716 3.81945 3.14434
# Velocity P-wave (km/s) = 3.15472 7.06514 5.47122
#
# Compressibility (1/GPa) = 0.16864046
#
# Stress axis : x y z
#
# Youngs Moduli (GPa) = 112.32253 4.77363 125.53100
#
# Poissons Ratio (x) = 0.03197 0.28702
# Poissons Ratio (y) = 0.75213 2.49477
# Poissons Ratio (z) = 0.25682 0.09487
#
# Static dielectric constant tensor:
#      x y z
#    x 1.666900 0.000000 0.000000 
#    y 0.000000 1.694400 0.000000 
#    z 0.000000 0.000000 1.737630 
# 
# From -- ./inp_files/76470.got.cif
#   From: 2010.05.17/outbox.cif.g08.bks.cpg/sg65_39_cif.got.tgz:76470.got - 2010.06.03 17:01:31.
