data_PCOD9488264
_publ_section_title
;
Structure prediction by ZEFSAII (Michael W. Deem and Ramdas Pophale) SiO2 
 PCOD9488264
Probable space group: C M M M
;
_chemical_formula_sum "Si O2"
_cell_formula_units_Z 104
_cell_length_a 26.318674
_cell_length_b 9.981824
_cell_length_c 25.188572
_cell_angle_alpha 90.000000
_cell_angle_beta 90.000000
_cell_angle_gamma 90.000000
_cell_volume 6617.248738
_symmetry_space_group_name_H-M "C M M M"
_symmetry_group_IT_number 65
_symmetry_cell_setting 'orthorhombic'
loop_
_space_group_symop_operation_xyz
x,y,z
-x,-y,z
x,-y,-z
-x,y,-z
-x,-y,-z
x,y,-z
-x,y,z
x,-y,z
1/2+x,1/2+y,z
1/2-x,1/2-y,z
1/2+x,1/2-y,-z
1/2-x,1/2+y,-z
1/2-x,1/2-y,-z
1/2+x,1/2+y,-z
1/2-x,1/2+y,z
1/2+x,1/2-y,z
loop_
_atom_site_type_symbol
_atom_site_label
_atom_site_fract_x
_atom_site_fract_y
_atom_site_fract_z
Si Si1 0.442525 0.344077 0.808116
Si Si2 0.845692 0.760699 0.125822
Si Si3 0.208787 0.000000 0.936495
Si Si4 0.595414 0.844803 0.715510
Si Si5 0.295380 0.843681 0.766110
Si Si6 0.438117 0.655076 0.500000
Si Si7 0.061333 0.654995 0.596725
Si Si8 0.330797 0.000000 0.062350
O O1 0.500000 0.321685 0.827707
O O2 0.437763 0.500000 0.792910
O O3 0.399039 0.312862 0.851076
O O4 0.432410 0.251166 0.757119
O O5 0.813110 0.713348 0.176819
O O6 0.852954 0.631204 0.089656
O O7 0.815770 0.871761 0.092207
O O8 0.269600 0.000000 0.929240
O O9 0.198927 0.000000 0.000000
O O10 0.655179 0.835788 0.728797
O O11 0.583181 0.812698 0.654699
O O12 0.579954 0.000000 0.724604
O O13 0.250000 0.750000 0.746788
O O14 0.280610 0.000000 0.771394
O O15 0.421407 0.500000 0.500000
O O16 0.500000 0.653717 0.500000
O O17 0.422447 0.739947 0.551806
O O18 0.074718 0.500000 0.583295
O O19 0.000000 0.659944 0.600174
O O20 0.339898 0.000000 0.000000
#
# Coordination Sequence:
#
# PCOD9488264 Si02
#       8
#    16  16   8  16  16   8  16   8
#     4  10  21  36  53  73  99 132 168 202 243 294
#     4  11  21  36  53  77 102 129 161 200 245 298
#     4  11  22  36  55  77 101 131 160 195 247 300
#     4   9  19  33  49  75 101 128 167 208 247 289
#     4  10  20  32  50  73 101 131 160 196 244 298
#     4   9  17  27  41  65  96 131 166 199 240 287
#     4   9  16  28  46  67  95 129 164 201 241 286
#     4  11  22  36  55  79 103 125 158 203 249 296
#
# _framework density 15.716502
#
# number of rings (size 3 to 8) (size 9 to 14) (size 15 to 20)
#    0.000    2.077    1.538    2.538    2.154    4.308 
#    0.000    1.538    0.000    2.769    0.000    0.538 
#    0.000    0.000    0.000    0.000    0.000    0.000 
#
# Total GULP energy -290083.630896 kJ/mol
# GULP energy per Si atom -5578.531363 kJ/mol
# Density = 1.568073 g / cm^3
# Si number density = 15.716502 Si / 1000 Ang^3
#
#
#
# Elastic Constant Matrix: (Units=GPa)
#
#
# Indices 1 2 3 4 5 6 
#
# 1 54.9134 39.4217 30.6248 0.0000 0.0000 0.0000
# 2 39.4217 112.7518 61.7990 0.0000 0.0000 0.0000
# 3 30.6248 61.7990 106.2241 0.0000 0.0000 0.0000
# 4 0.0000 0.0000 0.0000 26.2147 0.0000 0.0000
# 5 0.0000 0.0000 0.0000 0.0000 8.4183 0.0000
# 6 0.0000 0.0000 0.0000 0.0000 0.0000 22.7667
#
#
#
# Elastic Compliance Matrix: (Units=1/GPa)
#
#
# Indices 1 2 3 4 5 6 
#
# 1 0.024996 -0.007032 -0.003115 0.000000 0.000000 0.000000
# 2 -0.007032 0.014999 -0.006699 0.000000 0.000000 0.000000
# 3 -0.003115 -0.006699 0.014210 0.000000 0.000000 0.000000
# 4 0.000000 0.000000 0.000000 0.038146 0.000000 0.000000
# 5 0.000000 0.000000 0.000000 0.000000 0.118789 0.000000
# 6 0.000000 0.000000 0.000000 0.000000 0.000000 0.043924
#
#
# Mechanical properties :
#
#
# Convention : Reuss Voigt Hill
#
# Bulk Modulus (GPa) = 48.75112 59.73115 54.24114
# Shear Modulus (GPa) = 16.91507 20.94953 18.93230
#
# Velocity S-wave (km/s) = 3.28420 3.65494 3.47452
# Velocity P-wave (km/s) = 6.74298 7.47658 7.11924
#
# Compressibility (1/GPa) = 0.02051235
#
# Stress axis : x y z
#
# Youngs Moduli (GPa) = 40.00631 66.66968 70.37503
#
# Poissons Ratio (x) = 0.46881 0.21925
# Poissons Ratio (y) = 0.28132 0.47144
# Poissons Ratio (z) = 0.12464 0.44662
#
# Static dielectric constant tensor:
#      x y z
#    x 1.512740 0.000000 0.000000 
#    y 0.000000 1.541200 0.000000 
#    z 0.000000 0.000000 1.501450 
# 
# From -- ./inp_files/73818.got.cif
#   From: 2010.05.17/outbox.cif.g08.bks.cpg/sg65_37_cif.got.tgz:73818.got - 2010.06.03 17:01:31.
