data_PCOD9488950
_publ_section_title
;
Structure prediction by ZEFSAII (Michael W. Deem and Ramdas Pophale) SiO2 
 PCOD9488950
Probable space group: C M M M
;
_chemical_formula_sum "Si O2"
_cell_formula_units_Z 72
_cell_length_a 14.133529
_cell_length_b 29.505801
_cell_length_c 9.540419
_cell_angle_alpha 90.000000
_cell_angle_beta 90.000000
_cell_angle_gamma 90.000000
_cell_volume 3978.555970
_symmetry_space_group_name_H-M "C M M M"
_symmetry_group_IT_number 65
_symmetry_cell_setting 'orthorhombic'
loop_
_space_group_symop_operation_xyz
x,y,z
-x,-y,z
x,-y,-z
-x,y,-z
-x,-y,-z
x,y,-z
-x,y,z
x,-y,z
1/2+x,1/2+y,z
1/2-x,1/2-y,z
1/2+x,1/2-y,-z
1/2-x,1/2+y,-z
1/2-x,1/2-y,-z
1/2+x,1/2+y,-z
1/2-x,1/2+y,z
1/2+x,1/2-y,z
loop_
_atom_site_type_symbol
_atom_site_label
_atom_site_fract_x
_atom_site_fract_y
_atom_site_fract_z
Si Si1 0.613124 0.317948 0.164825
Si Si2 0.277102 0.410235 0.831357
Si Si3 0.111454 0.628962 0.331584
Si Si4 0.615020 0.768840 0.338464
Si Si5 0.891534 0.000000 0.829582
O O1 0.500000 0.322747 0.186342
O O2 0.662668 0.365081 0.202355
O O3 0.647469 0.274310 0.250709
O O4 0.628744 0.309684 0.000000
O O5 0.178464 0.405055 0.750978
O O6 0.335350 0.454761 0.788948
O O7 0.263321 0.411475 0.000000
O O8 0.124092 0.626093 0.500000
O O9 0.138834 0.680551 0.287949
O O10 0.000000 0.622484 0.303012
O O11 0.643868 0.764437 0.500000
O O12 0.500000 0.767932 0.336178
O O13 0.000000 0.000000 0.779767
O O14 0.895023 0.000000 0.000000
#
# Coordination Sequence:
#
# PCOD9488950 Si02
#       5
#    16  16  16  16   8
#     4   9  17  29  46  72 105 135 165 206 254 301
#     4  10  20  33  53  79 101 128 170 213 253 299
#     4   9  19  36  54  72 100 138 174 207 247 297
#     4   8  15  29  48  69  96 134 175 207 241 293
#     4   9  18  36  60  81 104 134 165 201 250 307
#
# _framework density 18.097017999999998
#
# number of rings (size 3 to 8) (size 9 to 14) (size 15 to 20)
#    0.000    3.000    0.000    2.000    0.000    5.778 
#    0.000    7.778    0.000    6.000    0.000    0.000 
#    0.000    0.000    0.000    0.000    0.000    0.000 
#
# Total GULP energy -200784.922198 kJ/mol
# GULP energy per Si atom -5577.358950 kJ/mol
# Density = 1.805583 g / cm^3
# Si number density = 18.097018 Si / 1000 Ang^3
#
#
#
# Elastic Constant Matrix: (Units=GPa)
#
#
# Indices 1 2 3 4 5 6 
#
# 1 107.6286 84.3484 40.3851 0.0000 0.0000 0.0000
# 2 84.3484 136.9521 46.5521 0.0000 0.0000 0.0000
# 3 40.3851 46.5521 21.9647 0.0000 0.0000 0.0000
# 4 0.0000 0.0000 0.0000 44.0943 0.0000 0.0000
# 5 0.0000 0.0000 0.0000 0.0000 19.8531 0.0000
# 6 0.0000 0.0000 0.0000 0.0000 0.0000 35.0445
#
#
#
# Elastic Compliance Matrix: (Units=1/GPa)
#
#
# Indices 1 2 3 4 5 6 
#
# 1 0.029999 0.000974 -0.057222 0.000000 0.000000 0.000000
# 2 0.000974 0.026149 -0.057211 0.000000 0.000000 0.000000
# 3 -0.057222 -0.057211 0.271990 0.000000 0.000000 0.000000
# 4 0.000000 0.000000 0.000000 0.022679 0.000000 0.000000
# 5 0.000000 0.000000 0.000000 0.000000 0.050370 0.000000
# 6 0.000000 0.000000 0.000000 0.000000 0.000000 0.028535
#
#
# Mechanical properties :
#
#
# Convention : Reuss Voigt Hill
#
# Bulk Modulus (GPa) = 9.87938 67.67961 38.77949
# Shear Modulus (GPa) = 7.24241 26.14903 16.69572
#
# Velocity S-wave (km/s) = 2.00267 3.80535 3.04067
# Velocity P-wave (km/s) = 3.28916 7.53572 5.81402
#
# Compressibility (1/GPa) = 0.10122092
#
# Stress axis : x y z
#
# Youngs Moduli (GPa) = 33.33494 38.24303 3.67660
#
# Poissons Ratio (x) = -0.03727 0.21038
# Poissons Ratio (y) = -0.03248 0.21034
# Poissons Ratio (z) = 1.90748 2.18792
#
# Static dielectric constant tensor:
#      x y z
#    x 1.643080 0.000000 0.000000 
#    y 0.000000 1.606090 0.000000 
#    z 0.000000 0.000000 1.601010 
# 
# From -- ./inp_files/7290.got.cif
#   From: 2010.05.17/outbox.cif.g08.bks.cpg/sg65_4_cif.got.tgz:7290.got - 2010.06.03 17:01:31.
