data_PCOD9488612
_publ_section_title
;
Structure prediction by ZEFSAII (Michael W. Deem and Ramdas Pophale) SiO2 
 PCOD9488612
Probable space group: C M M M
;
_chemical_formula_sum "Si O2"
_cell_formula_units_Z 104
_cell_length_a 18.932459
_cell_length_b 9.250467
_cell_length_c 34.499541
_cell_angle_alpha 90.000000
_cell_angle_beta 90.000000
_cell_angle_gamma 90.000000
_cell_volume 6042.045622
_symmetry_space_group_name_H-M "C M M M"
_symmetry_group_IT_number 65
_symmetry_cell_setting 'orthorhombic'
loop_
_space_group_symop_operation_xyz
x,y,z
-x,-y,z
x,-y,-z
-x,y,-z
-x,-y,-z
x,y,-z
-x,y,z
x,-y,z
1/2+x,1/2+y,z
1/2-x,1/2-y,z
1/2+x,1/2-y,-z
1/2-x,1/2+y,-z
1/2-x,1/2-y,-z
1/2+x,1/2+y,-z
1/2-x,1/2+y,z
1/2+x,1/2-y,z
loop_
_atom_site_type_symbol
_atom_site_label
_atom_site_fract_x
_atom_site_fract_y
_atom_site_fract_z
Si Si1 0.825320 0.328356 0.955168
Si Si2 0.415173 0.331299 0.890840
Si Si3 0.916653 0.328462 0.811589
Si Si4 0.413932 0.166817 0.423375
Si Si5 0.581452 0.176210 0.662217
Si Si6 0.086244 0.165919 0.500000
Si Si7 0.325334 0.174271 0.264337
O O1 0.818400 0.500000 0.948499
O O2 0.750000 0.250000 0.950527
O O3 0.878797 0.257108 0.925108
O O4 0.847800 0.307130 0.000000
O O5 0.500000 0.320877 0.894208
O O6 0.395290 0.500000 0.892549
O O7 0.395766 0.262233 0.849363
O O8 0.908355 0.500000 0.819622
O O9 0.870931 0.291899 0.773953
O O10 0.000000 0.303568 0.803756
O O11 0.500000 0.167568 0.423033
O O12 0.393569 0.222616 0.380660
O O13 0.390286 0.256068 0.460609
O O14 0.391972 0.000000 0.427522
O O15 0.500000 0.222111 0.668312
O O16 0.631131 0.220107 0.697459
O O17 0.580411 0.000000 0.661249
O O18 0.000000 0.171343 0.500000
O O19 0.107631 0.000000 0.500000
O O20 0.250000 0.250000 0.262916
O O21 0.317253 0.000000 0.265771
#
# Coordination Sequence:
#
# PCOD9488612 Si02
#       7
#    16  16  16  16  16   8  16
#     4  10  21  37  57  80 107 140 177 216 257 302
#     4  10  21  36  55  80 109 139 171 210 255 302
#     4   9  18  34  55  75  97 130 171 210 246 289
#     4   8  13  22  38  59  82 111 149 190 228 268
#     4   8  14  27  48  70  90 118 160 202 234 273
#     4   9  15  21  31  53  88 121 144 175 225 281
#     4  10  20  33  50  73  99 126 158 198 245 293
#
# _framework density 17.212713999999998
#
# number of rings (size 3 to 8) (size 9 to 14) (size 15 to 20)
#    0.000    2.846    0.000    2.538    0.000    6.154 
#    0.000    3.846    0.000    2.308    0.000    0.538 
#    0.000    0.000    0.000    0.000    0.000    0.000 
#
# Total GULP energy -289852.592202 kJ/mol
# GULP energy per Si atom -5574.088312 kJ/mol
# Density = 1.717354 g / cm^3
# Si number density = 17.212714 Si / 1000 Ang^3
#
#
#
# Elastic Constant Matrix: (Units=GPa)
#
#
# Indices 1 2 3 4 5 6 
#
# 1 51.3238 41.6158 71.7580 0.0000 0.0000 0.0000
# 2 41.6158 78.6493 91.3280 0.0000 0.0000 0.0000
# 3 71.7580 91.3280 184.2744 0.0000 0.0000 0.0000
# 4 0.0000 0.0000 0.0000 13.1388 0.0000 0.0000
# 5 0.0000 0.0000 0.0000 0.0000 -10.9718 0.0000
# 6 0.0000 0.0000 0.0000 0.0000 0.0000 25.0692
#
#
#
# Elastic Compliance Matrix: (Units=1/GPa)
#
#
# Indices 1 2 3 4 5 6 
#
# 1 0.044876 -0.008135 -0.013444 0.000000 0.000000 0.000000
# 2 -0.008135 0.031427 -0.012408 0.000000 0.000000 0.000000
# 3 -0.013444 -0.012408 0.016811 0.000000 0.000000 0.000000
# 4 0.000000 0.000000 0.000000 0.076111 0.000000 0.000000
# 5 0.000000 0.000000 0.000000 0.000000 -0.091143 0.000000
# 6 0.000000 0.000000 0.000000 0.000000 0.000000 0.039890
#
#
# Mechanical properties :
#
#
# Convention : Reuss Voigt Hill
#
# Bulk Modulus (GPa) = 39.77370 80.40566 60.08968
# Shear Modulus (GPa) = 25.73024 12.75029 19.24026
#
# Velocity S-wave (km/s) = 3.87051 2.72462 3.34697
# Velocity P-wave (km/s) = 6.56748 7.53077 7.06556
#
# Compressibility (1/GPa) = 0.02514224
#
# Stress axis : x y z
#
# Youngs Moduli (GPa) = 22.28363 31.81992 59.48456
#
# Poissons Ratio (x) = 0.25884 0.79968
# Poissons Ratio (y) = 0.18127 0.73807
# Poissons Ratio (z) = 0.29957 0.39481
#
# Static dielectric constant tensor:
#      x y z
#    x 1.558860 0.000000 0.000000 
#    y 0.000000 1.573890 0.000000 
#    z 0.000000 0.000000 1.584510 
# 
# From -- ./inp_files/78190.got.cif
#   From: 2010.05.17/outbox.cif.g08.bks.cpg/sg65_40_cif.got.tgz:78190.got - 2010.06.03 17:01:31.
