data_PCOD9488286
_publ_section_title
;
Structure prediction by ZEFSAII (Michael W. Deem and Ramdas Pophale) SiO2 
 PCOD9488286
Probable space group: C M M M
;
_chemical_formula_sum "Si O2"
_cell_formula_units_Z 72
_cell_length_a 8.537564
_cell_length_b 15.972050
_cell_length_c 25.300283
_cell_angle_alpha 90.000000
_cell_angle_beta 90.000000
_cell_angle_gamma 90.000000
_cell_volume 3450.007287
_symmetry_space_group_name_H-M "C M M M"
_symmetry_group_IT_number 65
_symmetry_cell_setting 'orthorhombic'
loop_
_space_group_symop_operation_xyz
x,y,z
-x,-y,z
x,-y,-z
-x,y,-z
-x,-y,-z
x,y,-z
-x,y,z
x,-y,z
1/2+x,1/2+y,z
1/2-x,1/2-y,z
1/2+x,1/2-y,-z
1/2-x,1/2+y,-z
1/2-x,1/2-y,-z
1/2+x,1/2+y,-z
1/2-x,1/2+y,z
1/2+x,1/2-y,z
loop_
_atom_site_type_symbol
_atom_site_label
_atom_site_fract_x
_atom_site_fract_y
_atom_site_fract_z
Si Si1 0.312384 0.099892 0.442920
Si Si2 0.814047 0.095870 0.666592
Si Si3 0.682341 0.837532 0.775080
Si Si4 0.500000 0.601416 0.937571
Si Si5 0.676316 0.096990 0.887782
O O1 0.256039 0.133402 0.500000
O O2 0.500000 0.106565 0.441898
O O3 0.247535 0.134968 0.388103
O O4 0.273729 0.000000 0.442840
O O5 0.765993 0.138731 0.720873
O O6 0.000000 0.093625 0.663163
O O7 0.752885 0.000000 0.669667
O O8 0.500000 0.829510 0.762856
O O9 0.750000 0.750000 0.794638
O O10 0.699268 0.899521 0.824399
O O11 0.500000 0.500000 0.928222
O O12 0.335116 0.633680 0.913312
O O13 0.500000 0.615747 0.000000
O O14 0.500000 0.133144 0.898412
O O15 0.669120 0.000000 0.904873
#
# Coordination Sequence:
#
# PCOD9488286 Si02
#       5
#    16  16  16   8  16
#     4   8  14  26  45  69  98 133 171 213 262 313
#     4  10  20  32  50  77 107 138 174 219 266 317
#     4  11  23  37  54  77 104 141 179 222 272 321
#     4   9  18  32  56  88 116 144 176 220 270 313
#     4   9  19  35  56  83 112 145 182 222 269 322
#
# _framework density 20.869523000000001
#
# number of rings (size 3 to 8) (size 9 to 14) (size 15 to 20)
#    0.000    2.556    0.000    2.667    3.111    3.111 
#    0.000    4.444    0.000    1.333    0.000    0.000 
#    0.000    0.000    0.000    0.000    0.000    0.000 
#
# Total GULP energy -200627.948919 kJ/mol
# GULP energy per Si atom -5572.998581 kJ/mol
# Density = 2.082202 g / cm^3
# Si number density = 20.869523 Si / 1000 Ang^3
#
#
#
# Elastic Constant Matrix: (Units=GPa)
#
#
# Indices 1 2 3 4 5 6 
#
# 1 110.6037 6.3898 74.6549 0.0000 0.0000 0.0000
# 2 6.3898 18.9156 -6.6148 0.0000 0.0000 0.0000
# 3 74.6549 -6.6148 94.2774 0.0000 0.0000 0.0000
# 4 0.0000 0.0000 0.0000 -13.4588 0.0000 0.0000
# 5 0.0000 0.0000 0.0000 0.0000 36.5969 0.0000
# 6 0.0000 0.0000 0.0000 0.0000 0.0000 12.8462
#
#
#
# Elastic Compliance Matrix: (Units=1/GPa)
#
#
# Indices 1 2 3 4 5 6 
#
# 1 0.022645 -0.014271 -0.018933 0.000000 0.000000 0.000000
# 2 -0.014271 0.063189 0.015734 0.000000 0.000000 0.000000
# 3 -0.018933 0.015734 0.026703 0.000000 0.000000 0.000000
# 4 0.000000 0.000000 0.000000 -0.074301 0.000000 0.000000
# 5 0.000000 0.000000 0.000000 0.000000 0.027325 0.000000
# 6 0.000000 0.000000 0.000000 0.000000 0.000000 0.077844
#
#
# Mechanical properties :
#
#
# Convention : Reuss Voigt Hill
#
# Bulk Modulus (GPa) = 12.88691 41.40629 27.14660
# Shear Modulus (GPa) = 24.48447 17.15466 20.81957
#
# Velocity S-wave (km/s) = 3.42894 2.87016 3.16192
# Velocity P-wave (km/s) = 4.67603 5.55584 5.13481
#
# Compressibility (1/GPa) = 0.07759812
#
# Stress axis : x y z
#
# Youngs Moduli (GPa) = 44.15948 15.82549 37.44832
#
# Poissons Ratio (x) = 0.22584 0.70902
# Poissons Ratio (y) = 0.63018 -0.58921
# Poissons Ratio (z) = 0.83608 -0.24900
#
# Static dielectric constant tensor:
#      x y z
#    x 1.743380 0.000000 0.000000 
#    y 0.000000 1.778240 0.000000 
#    z 0.000000 0.000000 1.744660 
# 
# From -- ./inp_files/64302.got.cif
#   From: 2010.05.17/outbox.cif.g08.bks.cpg/sg65_33_cif.got.tgz:64302.got - 2010.06.03 17:01:31.
