data_PCOD9488353
_publ_section_title
;
Structure prediction by ZEFSAII (Michael W. Deem and Ramdas Pophale) SiO2 
 PCOD9488353
Probable space group: C M M M
;
_chemical_formula_sum "Si O2"
_cell_formula_units_Z 96
_cell_length_a 26.712766
_cell_length_b 7.290028
_cell_length_c 22.501258
_cell_angle_alpha 90.000000
_cell_angle_beta 90.000000
_cell_angle_gamma 90.000000
_cell_volume 4381.823251
_symmetry_space_group_name_H-M "C M M M"
_symmetry_group_IT_number 65
_symmetry_cell_setting 'orthorhombic'
loop_
_space_group_symop_operation_xyz
x,y,z
-x,-y,z
x,-y,-z
-x,y,-z
-x,-y,-z
x,y,-z
-x,y,z
x,-y,z
1/2+x,1/2+y,z
1/2-x,1/2-y,z
1/2+x,1/2-y,-z
1/2-x,1/2+y,-z
1/2-x,1/2-y,-z
1/2+x,1/2+y,-z
1/2-x,1/2+y,z
1/2+x,1/2-y,z
loop_
_atom_site_type_symbol
_atom_site_label
_atom_site_fract_x
_atom_site_fract_y
_atom_site_fract_z
Si Si1 0.947064 0.777623 0.317255
Si Si2 0.805332 0.217199 0.350527
Si Si3 0.311008 0.718800 0.000000
Si Si4 0.104386 0.776407 0.567257
Si Si5 0.613965 0.724222 0.894360
Si Si6 0.500000 0.278036 0.070080
Si Si7 0.854615 0.777629 0.764105
O O1 0.937876 0.723566 0.385336
O O2 0.903100 0.723521 0.274035
O O3 0.000000 0.713698 0.294827
O O4 0.946402 0.000000 0.316801
O O5 0.750000 0.250000 0.371954
O O6 0.845468 0.285090 0.398318
O O7 0.811932 0.284672 0.282401
O O8 0.814600 0.000000 0.347324
O O9 0.250000 0.750000 0.000000
O O10 0.344952 0.781359 0.943787
O O11 0.314475 0.500000 0.000000
O O12 0.099743 0.711732 0.500000
O O13 0.104756 0.000000 0.564612
O O14 0.612348 0.500000 0.895550
O O15 0.555234 0.780581 0.904663
O O16 0.636414 0.784595 0.830936
O O17 0.500000 0.500000 0.075694
O O18 0.500000 0.232568 0.000000
O O19 0.851550 0.000000 0.768481
#
# Coordination Sequence:
#
# PCOD9488353 Si02
#       7
#    16  16   8  16  16   8  16
#     4   8  13  20  31  51  79 110 139 162 193 249
#     4   9  17  29  43  59  81 109 141 174 208 246
#     4  10  20  33  47  65  91 120 151 184 216 256
#     4   8  14  24  36  52  77 107 136 168 207 247
#     4   9  16  26  41  63  89 116 145 179 220 262
#     4   9  14  22  38  62  90 116 141 175 221 266
#     4   8  15  25  37  56  83 111 136 167 209 251
#
# _framework density 21.908688999999999
#
# number of rings (size 3 to 8) (size 9 to 14) (size 15 to 20)
#    0.000    3.417    0.833    2.000    1.167    1.333 
#    0.000    1.667    0.000    0.000    0.000    1.167 
#    0.000   10.667    0.000    6.000    0.000    6.667 
#
# Total GULP energy -267219.662008 kJ/mol
# GULP energy per Si atom -5567.076292 kJ/mol
# Density = 2.185882 g / cm^3
# Si number density = 21.908689 Si / 1000 Ang^3
#
#
#
# Elastic Constant Matrix: (Units=GPa)
#
#
# Indices 1 2 3 4 5 6 
#
# 1 79.2576 -6.5013 -6.2763 0.0000 0.0000 0.0000
# 2 -6.5013 89.1504 2.5282 0.0000 0.0000 0.0000
# 3 -6.2763 2.5282 123.4037 0.0000 0.0000 0.0000
# 4 0.0000 0.0000 0.0000 -27.1692 0.0000 0.0000
# 5 0.0000 0.0000 0.0000 0.0000 5.5279 0.0000
# 6 0.0000 0.0000 0.0000 0.0000 0.0000 -1.0579
#
#
#
# Elastic Compliance Matrix: (Units=1/GPa)
#
#
# Indices 1 2 3 4 5 6 
#
# 1 0.012742 0.000911 0.000629 0.000000 0.000000 0.000000
# 2 0.000911 0.011289 -0.000185 0.000000 0.000000 0.000000
# 3 0.000629 -0.000185 0.008139 0.000000 0.000000 0.000000
# 4 0.000000 0.000000 0.000000 -0.036806 0.000000 0.000000
# 5 0.000000 0.000000 0.000000 0.000000 0.180899 0.000000
# 6 0.000000 0.000000 0.000000 0.000000 0.000000 -0.945226
#
#
# Mechanical properties :
#
#
# Convention : Reuss Voigt Hill
#
# Bulk Modulus (GPa) = 28.66871 30.14588 29.40729
# Shear Modulus (GPa) = -6.57853 15.59757 4.50952
#
# Velocity S-wave (km/s) = -1.73471 2.67111 1.43624
# Velocity P-wave (km/s) = 3.01689 4.82729 4.02519
#
# Compressibility (1/GPa) = 0.03488124
#
# Stress axis : x y z
#
# Youngs Moduli (GPa) = 78.48255 88.58413 122.86095
#
# Poissons Ratio (x) = -0.08073 -0.07732
# Poissons Ratio (y) = -0.07152 0.02272
# Poissons Ratio (z) = -0.04939 0.01638
#
# Static dielectric constant tensor:
#      x y z
#    x 1.815790 0.000000 0.000000 
#    y 0.000000 1.736100 0.000000 
#    z 0.000000 0.000000 1.780930 
# 
# From -- ./inp_files/65357.got.cif
#   From: 2010.05.17/outbox.cif.g08.bks.cpg/sg65_33_cif.got.tgz:65357.got - 2010.06.03 17:01:31.
