data_PCOD9488409
_publ_section_title
;
Structure prediction by ZEFSAII (Michael W. Deem and Ramdas Pophale) SiO2 
 PCOD9488409
Probable space group: C M M M
;
_chemical_formula_sum "Si O2"
_cell_formula_units_Z 104
_cell_length_a 27.675385
_cell_length_b 9.223168
_cell_length_c 27.595835
_cell_angle_alpha 90.000000
_cell_angle_beta 90.000000
_cell_angle_gamma 90.000000
_cell_volume 7043.967283
_symmetry_space_group_name_H-M "C M M M"
_symmetry_group_IT_number 65
_symmetry_cell_setting 'orthorhombic'
loop_
_space_group_symop_operation_xyz
x,y,z
-x,-y,z
x,-y,-z
-x,y,-z
-x,-y,-z
x,y,-z
-x,y,z
x,-y,z
1/2+x,1/2+y,z
1/2-x,1/2-y,z
1/2+x,1/2-y,-z
1/2-x,1/2+y,-z
1/2-x,1/2-y,-z
1/2+x,1/2+y,-z
1/2-x,1/2+y,z
1/2+x,1/2-y,z
loop_
_atom_site_type_symbol
_atom_site_label
_atom_site_fract_x
_atom_site_fract_y
_atom_site_fract_z
Si Si1 0.899393 0.826325 0.696532
Si Si2 0.653585 0.173760 0.444303
Si Si3 0.058902 0.666578 0.000000
Si Si4 0.944027 0.176596 0.202813
Si Si5 0.554035 0.173582 0.394125
Si Si6 0.558850 0.667770 0.903676
Si Si7 0.701106 0.327218 0.354125
O O1 0.913305 0.778968 0.750627
O O2 0.932592 0.749839 0.656392
O O3 0.844165 0.797236 0.681298
O O4 0.906927 0.000000 0.693361
O O5 0.663816 0.209568 0.500000
O O6 0.597571 0.207228 0.431067
O O7 0.685754 0.260334 0.405988
O O8 0.660384 0.000000 0.437741
O O9 0.074901 0.744347 0.049361
O O10 0.073354 0.500000 0.000000
O O11 0.000000 0.672566 0.000000
O O12 0.926595 0.224570 0.149540
O O13 0.000000 0.220636 0.209672
O O14 0.943838 0.000000 0.200885
O O15 0.500000 0.214872 0.410097
O O16 0.554794 0.000000 0.387217
O O17 0.500000 0.669558 0.902856
O O18 0.573428 0.500000 0.908750
O O19 0.707413 0.500000 0.357839
O O20 0.750000 0.250000 0.337907
#
# Coordination Sequence:
#
# PCOD9488409 Si02
#       7
#    16  16   8  16  16  16  16
#     4   9  17  29  45  63  81 104 135 168 201 238
#     4   9  18  32  48  65  85 108 134 164 196 232
#     4   9  15  21  29  43  67  99 134 171 202 223
#     4   8  13  22  38  59  80 102 131 166 198 228
#     4   9  17  28  42  62  87 112 136 161 192 232
#     4   8  13  21  33  48  67  96 133 166 194 225
#     4  10  20  33  49  66  83 104 130 162 202 247
#
# _framework density 14.764408
#
# number of rings (size 3 to 8) (size 9 to 14) (size 15 to 20)
#    0.000    3.154    0.000    2.077    0.000    3.385 
#    0.000    2.308    0.000    2.769    0.000    4.308 
#    0.000    0.000    0.000    0.692    0.000    6.538 
#
# Total GULP energy -289481.357072 kJ/mol
# GULP energy per Si atom -5566.949174 kJ/mol
# Density = 1.473080 g / cm^3
# Si number density = 14.764408 Si / 1000 Ang^3
#
#
#
# Elastic Constant Matrix: (Units=GPa)
#
#
# Indices 1 2 3 4 5 6 
#
# 1 44.0171 17.4952 15.6375 0.0000 0.0000 0.0000
# 2 17.4952 27.7585 32.2350 0.0000 0.0000 0.0000
# 3 15.6375 32.2350 115.4637 0.0000 0.0000 0.0000
# 4 0.0000 0.0000 0.0000 8.0999 0.0000 0.0000
# 5 0.0000 0.0000 0.0000 0.0000 8.9712 0.0000
# 6 0.0000 0.0000 0.0000 0.0000 0.0000 14.4309
#
#
#
# Elastic Compliance Matrix: (Units=1/GPa)
#
#
# Indices 1 2 3 4 5 6 
#
# 1 0.030572 -0.021397 0.001833 0.000000 0.000000 0.000000
# 2 -0.021397 0.068283 -0.016165 0.000000 0.000000 0.000000
# 3 0.001833 -0.016165 0.012925 0.000000 0.000000 0.000000
# 4 0.000000 0.000000 0.000000 0.123459 0.000000 0.000000
# 5 0.000000 0.000000 0.000000 0.000000 0.111467 0.000000
# 6 0.000000 0.000000 0.000000 0.000000 0.000000 0.069296
#
#
# Mechanical properties :
#
#
# Convention : Reuss Voigt Hill
#
# Bulk Modulus (GPa) = 24.80043 35.33053 30.06548
# Shear Modulus (GPa) = 9.98200 14.42518 12.20359
#
# Velocity S-wave (km/s) = 2.60299 3.12913 2.87811
# Velocity P-wave (km/s) = 5.08605 6.08578 5.60824
#
# Compressibility (1/GPa) = 0.04032188
#
# Stress axis : x y z
#
# Youngs Moduli (GPa) = 32.70994 14.64488 77.36652
#
# Poissons Ratio (x) = 0.31336 -0.14183
# Poissons Ratio (y) = 0.69990 1.25066
# Poissons Ratio (z) = -0.05996 0.23674
#
# Static dielectric constant tensor:
#      x y z
#    x 1.480530 0.000000 0.000000 
#    y 0.000000 1.489510 0.000000 
#    z 0.000000 0.000000 1.494330 
# 
# From -- ./inp_files/78463.got.cif
#   From: 2010.05.17/outbox.cif.g08.bks.cpg/sg65_40_cif.got.tgz:78463.got - 2010.06.03 17:01:31.
