data_PCOD9488071
_publ_section_title
;
Structure prediction by ZEFSAII (Michael W. Deem and Ramdas Pophale) SiO2 
 PCOD9488071
Probable space group: C M M M
;
_chemical_formula_sum "Si O2"
_cell_formula_units_Z 112
_cell_length_a 19.092235
_cell_length_b 7.681004
_cell_length_c 37.900846
_cell_angle_alpha 90.000000
_cell_angle_beta 90.000000
_cell_angle_gamma 90.000000
_cell_volume 5558.065580
_symmetry_space_group_name_H-M "C M M M"
_symmetry_group_IT_number 65
_symmetry_cell_setting 'orthorhombic'
loop_
_space_group_symop_operation_xyz
x,y,z
-x,-y,z
x,-y,-z
-x,y,-z
-x,-y,-z
x,y,-z
-x,y,z
x,-y,z
1/2+x,1/2+y,z
1/2-x,1/2-y,z
1/2+x,1/2-y,-z
1/2-x,1/2+y,-z
1/2-x,1/2-y,-z
1/2+x,1/2+y,-z
1/2-x,1/2+y,z
1/2+x,1/2-y,z
loop_
_atom_site_type_symbol
_atom_site_label
_atom_site_fract_x
_atom_site_fract_y
_atom_site_fract_z
Si Si1 0.080131 0.790906 0.752019
Si Si2 0.668392 0.790559 0.606505
Si Si3 0.580990 0.212429 0.460410
Si Si4 0.919871 0.792450 0.114902
Si Si5 0.081734 0.709398 0.037926
Si Si6 0.580055 0.209233 0.326997
Si Si7 0.668251 0.709672 0.818606
O O1 0.105112 0.750330 0.712491
O O2 0.129601 0.725370 0.783255
O O3 0.000000 0.725170 0.755590
O O4 0.077123 0.000000 0.754964
O O5 0.750000 0.750000 0.606991
O O6 0.630485 0.725737 0.570992
O O7 0.628825 0.725035 0.641520
O O8 0.661152 0.000000 0.606366
O O9 0.601134 0.268645 0.500000
O O10 0.500000 0.262213 0.454157
O O11 0.582400 0.000000 0.460445
O O12 0.888988 0.762926 0.075774
O O13 0.872171 0.724329 0.146596
O O14 0.000000 0.722507 0.116333
O O15 0.925041 0.000000 0.119329
O O16 0.082094 0.500000 0.037458
O O17 0.000000 0.766591 0.038439
O O18 0.111662 0.769258 0.000000
O O19 0.500000 0.274770 0.330417
O O20 0.577279 0.000000 0.329802
O O21 0.662053 0.500000 0.818614
O O22 0.750000 0.750000 0.819077
#
# Coordination Sequence:
#
# PCOD9488071 Si02
#       7
#    16  16  16  16  16  16  16
#     4   9  18  34  55  75  95 122 157 196 238 283
#     4  10  20  32  47  70 100 130 158 193 238 284
#     4   8  14  27  49  73  93 119 161 206 241 278
#     4   9  17  30  49  71  94 122 157 195 233 275
#     4   8  14  25  42  67  98 126 152 188 235 281
#     4   9  18  33  52  72  94 122 158 198 235 273
#     4  10  21  35  50  70  97 127 157 192 235 281
#
# _framework density 20.150894999999998
#
# number of rings (size 3 to 8) (size 9 to 14) (size 15 to 20)
#    0.000    3.000    0.000    1.714    0.000    6.286 
#    0.000    4.286    0.000    6.000    0.000    1.000 
#    0.000    0.000    0.000    0.000    0.000    0.000 
#
# Total GULP energy -312229.328497 kJ/mol
# GULP energy per Si atom -5575.523723 kJ/mol
# Density = 2.010503 g / cm^3
# Si number density = 20.150895 Si / 1000 Ang^3
#
#
#
# Elastic Constant Matrix: (Units=GPa)
#
#
# Indices 1 2 3 4 5 6 
#
# 1 100.6470 2.2881 124.2585 0.0000 0.0000 0.0000
# 2 2.2881 33.3691 7.5533 0.0000 0.0000 0.0000
# 3 124.2585 7.5533 251.1472 0.0000 0.0000 0.0000
# 4 0.0000 0.0000 0.0000 14.9051 0.0000 0.0000
# 5 0.0000 0.0000 0.0000 0.0000 -5.1109 0.0000
# 6 0.0000 0.0000 0.0000 0.0000 0.0000 19.5607
#
#
#
# Elastic Compliance Matrix: (Units=1/GPa)
#
#
# Indices 1 2 3 4 5 6 
#
# 1 0.025572 0.001118 -0.012686 0.000000 0.000000 0.000000
# 2 0.001118 0.030222 -0.001462 0.000000 0.000000 0.000000
# 3 -0.012686 -0.001462 0.010302 0.000000 0.000000 0.000000
# 4 0.000000 0.000000 0.000000 0.067091 0.000000 0.000000
# 5 0.000000 0.000000 0.000000 0.000000 -0.195659 0.000000
# 6 0.000000 0.000000 0.000000 0.000000 0.000000 0.051123
#
#
# Mechanical properties :
#
#
# Convention : Reuss Voigt Hill
#
# Bulk Modulus (GPa) = 24.97709 72.59593 48.78651
# Shear Modulus (GPa) = 178.20804 22.60854 100.40829
#
# Velocity S-wave (km/s) = 9.41429 3.35320 7.06657
# Velocity P-wave (km/s) = 11.42776 7.14817 9.53126
#
# Compressibility (1/GPa) = 0.04003669
#
# Stress axis : x y z
#
# Youngs Moduli (GPa) = 39.10509 33.08835 97.06700
#
# Poissons Ratio (x) = -0.03699 1.23137
# Poissons Ratio (y) = -0.04372 0.14192
# Poissons Ratio (z) = 0.49608 0.04838
#
# Static dielectric constant tensor:
#      x y z
#    x 1.670850 0.000000 0.000000 
#    y 0.000000 1.759310 0.000000 
#    z 0.000000 0.000000 1.736610 
# 
# From -- ./inp_files/77683.got.cif
#   From: 2010.05.17/outbox.cif.g08.bks.cpg/sg65_39_cif.got.tgz:77683.got - 2010.06.03 17:01:31.
