data_PCOD9488572
_publ_section_title
;
Structure prediction by ZEFSAII (Michael W. Deem and Ramdas Pophale) SiO2 
 PCOD9488572
Probable space group: C M M M
;
_chemical_formula_sum "Si O2"
_cell_formula_units_Z 80
_cell_length_a 7.552675
_cell_length_b 16.716054
_cell_length_c 28.871381
_cell_angle_alpha 90.000000
_cell_angle_beta 90.000000
_cell_angle_gamma 90.000000
_cell_volume 3645.038504
_symmetry_space_group_name_H-M "C M M M"
_symmetry_group_IT_number 65
_symmetry_cell_setting 'orthorhombic'
loop_
_space_group_symop_operation_xyz
x,y,z
-x,-y,z
x,-y,-z
-x,y,-z
-x,-y,-z
x,y,-z
-x,y,z
x,-y,z
1/2+x,1/2+y,z
1/2-x,1/2-y,z
1/2+x,1/2-y,-z
1/2-x,1/2+y,-z
1/2-x,1/2-y,-z
1/2+x,1/2+y,-z
1/2-x,1/2+y,z
1/2+x,1/2-y,z
loop_
_atom_site_type_symbol
_atom_site_label
_atom_site_fract_x
_atom_site_fract_y
_atom_site_fract_z
Si Si1 0.283526 0.000000 0.553532
Si Si2 0.711405 0.907610 0.704791
Si Si3 0.288015 0.342781 0.096730
Si Si4 0.287428 0.591036 0.805745
Si Si5 0.287729 0.158946 0.391380
Si Si6 0.796389 0.094673 0.000000
O O1 0.225193 0.917470 0.578459
O O2 0.500000 0.000000 0.555187
O O3 0.230479 0.000000 0.500000
O O4 0.500000 0.912819 0.700173
O O5 0.746191 0.872160 0.755701
O O6 0.777980 0.857015 0.661172
O O7 0.779618 0.000000 0.702665
O O8 0.500000 0.359135 0.097043
O O9 0.250000 0.250000 0.094089
O O10 0.219087 0.372329 0.146432
O O11 0.215792 0.379515 0.049000
O O12 0.500000 0.589822 0.808708
O O13 0.221492 0.500000 0.803477
O O14 0.500000 0.153127 0.391254
O O15 0.250000 0.250000 0.406640
O O16 0.000000 0.126931 0.000000
O O17 0.804419 0.000000 0.000000
#
# Coordination Sequence:
#
# PCOD9488572 Si02
#       6
#     8  16  16  16  16   8
#     4   9  18  36  61  83 109 149 189 224 269 326
#     4   9  17  32  53  74 101 139 179 216 258 312
#     4  10  20  33  50  72  99 128 160 202 251 303
#     4   9  18  32  50  73 100 131 170 213 254 298
#     4  10  20  35  56  83 112 144 185 228 271 324
#     4   9  17  32  55  75  90 119 164 206 246 297
#
# _framework density 21.947641000000001
#
# number of rings (size 3 to 8) (size 9 to 14) (size 15 to 20)
#    0.000    2.600    1.000    0.900    0.000    5.200 
#    0.000    4.500    0.000    3.000    0.000    0.000 
#    0.000    0.000    0.000    0.000    0.000    0.000 
#
# Total GULP energy -223057.687489 kJ/mol
# GULP energy per Si atom -5576.442187 kJ/mol
# Density = 2.189769 g / cm^3
# Si number density = 21.947641 Si / 1000 Ang^3
#
#
#
# Elastic Constant Matrix: (Units=GPa)
#
#
# Indices 1 2 3 4 5 6 
#
# 1 54.3389 -1.7937 8.9383 0.0000 0.0000 0.0000
# 2 -1.7937 121.0509 96.5695 0.0000 0.0000 0.0000
# 3 8.9383 96.5695 216.0287 0.0000 0.0000 0.0000
# 4 0.0000 0.0000 0.0000 -2.2962 0.0000 0.0000
# 5 0.0000 0.0000 0.0000 0.0000 19.1348 0.0000
# 6 0.0000 0.0000 0.0000 0.0000 0.0000 19.0199
#
#
#
# Elastic Compliance Matrix: (Units=1/GPa)
#
#
# Indices 1 2 3 4 5 6 
#
# 1 0.018678 0.001388 -0.001393 0.000000 0.000000 0.000000
# 2 0.001388 0.012943 -0.005843 0.000000 0.000000 0.000000
# 3 -0.001393 -0.005843 0.007299 0.000000 0.000000 0.000000
# 4 0.000000 0.000000 0.000000 -0.435501 0.000000 0.000000
# 5 0.000000 0.000000 0.000000 0.000000 0.052261 0.000000
# 6 0.000000 0.000000 0.000000 0.000000 0.000000 0.052576
#
#
# Mechanical properties :
#
#
# Convention : Reuss Voigt Hill
#
# Bulk Modulus (GPa) = 36.73331 66.53851 51.63591
# Shear Modulus (GPa) = -18.45204 26.35199 3.94998
#
# Velocity S-wave (km/s) = -2.90268 3.46884 1.34299
# Velocity P-wave (km/s) = 2.35352 6.81370 5.09733
#
# Compressibility (1/GPa) = 0.02722325
#
# Stress axis : x y z
#
# Youngs Moduli (GPa) = 53.53869 77.26123 137.00979
#
# Poissons Ratio (x) = -0.10727 0.19092
# Poissons Ratio (y) = -0.07433 0.80059
# Poissons Ratio (z) = 0.07460 0.45146
#
# Static dielectric constant tensor:
#      x y z
#    x 1.860940 0.000000 0.000000 
#    y 0.000000 1.770770 0.000000 
#    z 0.000000 0.000000 1.861320 
# 
# From -- ./inp_files/68850.got.cif
#   From: 2010.05.17/outbox.cif.g08.bks.cpg/sg65_35_cif.got.tgz:68850.got - 2010.06.03 17:01:31.
