data_PCOD9488299
_publ_section_title
;
Structure prediction by ZEFSAII (Michael W. Deem and Ramdas Pophale) SiO2 
 PCOD9488299
Probable space group: C M M M
;
_chemical_formula_sum "Si O2"
_cell_formula_units_Z 80
_cell_length_a 20.979413
_cell_length_b 17.601849
_cell_length_c 11.095406
_cell_angle_alpha 90.000000
_cell_angle_beta 90.000000
_cell_angle_gamma 90.000000
_cell_volume 4097.272247
_symmetry_space_group_name_H-M "C M M M"
_symmetry_group_IT_number 65
_symmetry_cell_setting 'orthorhombic'
loop_
_space_group_symop_operation_xyz
x,y,z
-x,-y,z
x,-y,-z
-x,y,-z
-x,-y,-z
x,y,-z
-x,y,z
x,-y,z
1/2+x,1/2+y,z
1/2-x,1/2-y,z
1/2+x,1/2-y,-z
1/2-x,1/2+y,-z
1/2-x,1/2-y,-z
1/2+x,1/2+y,-z
1/2-x,1/2+y,z
1/2+x,1/2-y,z
loop_
_atom_site_type_symbol
_atom_site_label
_atom_site_fract_x
_atom_site_fract_y
_atom_site_fract_z
Si Si1 0.130128 0.288020 0.741092
Si Si2 0.824087 0.765965 0.000000
Si Si3 0.000000 0.268069 0.144537
Si Si4 0.269381 0.914817 0.734531
Si Si5 0.780422 0.917538 0.000000
Si Si6 0.000000 0.087566 0.787285
Si Si7 0.872047 0.876800 0.639220
O O1 0.153616 0.263602 0.873595
O O2 0.058225 0.303866 0.779973
O O3 0.178633 0.352558 0.696357
O O4 0.129726 0.214437 0.656527
O O5 0.750000 0.750000 0.000000
O O6 0.835206 0.855702 0.000000
O O7 0.000000 0.173861 0.151242
O O8 0.000000 0.285775 0.000000
O O9 0.197435 0.902985 0.686447
O O10 0.289970 0.000000 0.703164
O O11 0.261299 0.909531 0.879849
O O12 0.810059 0.000000 0.000000
O O13 0.933611 0.092600 0.711451
O O14 0.000000 0.000000 0.841443
O O15 0.878585 0.897444 0.500000
#
# Coordination Sequence:
#
# PCOD9488299 Si02
#       7
#    16   8   8  16   8   8  16
#     4  11  21  37  58  83 114 152 196 241 289 346
#     4  12  16  31  56  79 106 150 183 224 289 346
#     4  10  22  38  60  86 115 155 196 238 289 349
#     4  11  22  36  57  85 115 150 192 243 294 340
#     4  10  20  32  50  82 114 143 185 231 283 346
#     4  10  23  41  60  86 121 158 189 229 286 345
#     4  11  23  39  60  86 117 156 199 236 280 346
#
# _framework density 19.525185
#
# number of rings (size 3 to 8) (size 9 to 14) (size 15 to 20)
#    0.000    1.200    5.000    1.500    0.000    3.800 
#    0.000    0.500    0.000    0.600    0.000    0.000 
#    0.000    6.400    0.000    0.000    0.000    0.000 
#
# Total GULP energy -222803.179611 kJ/mol
# GULP energy per Si atom -5570.079490 kJ/mol
# Density = 1.948075 g / cm^3
# Si number density = 19.525185 Si / 1000 Ang^3
#
#
#
# Elastic Constant Matrix: (Units=GPa)
#
#
# Indices 1 2 3 4 5 6 
#
# 1 124.8034 37.4718 6.2087 0.0000 0.0000 0.0000
# 2 37.4718 104.6141 -6.4644 0.0000 0.0000 0.0000
# 3 6.2087 -6.4644 37.3142 0.0000 0.0000 0.0000
# 4 0.0000 0.0000 0.0000 6.6017 0.0000 0.0000
# 5 0.0000 0.0000 0.0000 0.0000 6.7965 0.0000
# 6 0.0000 0.0000 0.0000 0.0000 0.0000 10.4681
#
#
#
# Elastic Compliance Matrix: (Units=1/GPa)
#
#
# Indices 1 2 3 4 5 6 
#
# 1 0.009140 -0.003404 -0.002111 0.000000 0.000000 0.000000
# 2 -0.003404 0.010930 0.002460 0.000000 0.000000 0.000000
# 3 -0.002111 0.002460 0.027577 0.000000 0.000000 0.000000
# 4 0.000000 0.000000 0.000000 0.151476 0.000000 0.000000
# 5 0.000000 0.000000 0.000000 0.000000 0.147134 0.000000
# 6 0.000000 0.000000 0.000000 0.000000 0.000000 0.095529
#
#
# Mechanical properties :
#
#
# Convention : Reuss Voigt Hill
#
# Bulk Modulus (GPa) = 24.07466 37.90712 30.99089
# Shear Modulus (GPa) = 10.82858 20.07430 15.45144
#
# Velocity S-wave (km/s) = 2.35754 3.20991 2.81616
# Velocity P-wave (km/s) = 4.44606 5.76148 5.14598
#
# Compressibility (1/GPa) = 0.04153745
#
# Stress axis : x y z
#
# Youngs Moduli (GPa) = 109.41297 91.48885 36.26239
#
# Poissons Ratio (x) = 0.31144 0.07653
# Poissons Ratio (y) = 0.37246 -0.08921
# Poissons Ratio (z) = 0.23092 -0.22506
#
# Static dielectric constant tensor:
#      x y z
#    x -0.541240 0.000000 0.000000 
#    y 0.000000 1.780970 0.000000 
#    z 0.000000 0.000000 1.666510 
# 
# From -- ./inp_files/28606.got.cif
#   From: 2010.05.17/outbox.cif.g08.bks.cpg/sg65_15_cif.got.tgz:28606.got - 2010.06.03 17:01:31.
