data_PCOD9488494
_publ_section_title
;
Structure prediction by ZEFSAII (Michael W. Deem and Ramdas Pophale) SiO2 
 PCOD9488494
Probable space group: C M M M
;
_chemical_formula_sum "Si O2"
_cell_formula_units_Z 104
_cell_length_a 15.520755
_cell_length_b 22.143104
_cell_length_c 13.161463
_cell_angle_alpha 90.000000
_cell_angle_beta 90.000000
_cell_angle_gamma 90.000000
_cell_volume 4523.301229
_symmetry_space_group_name_H-M "C M M M"
_symmetry_group_IT_number 65
_symmetry_cell_setting 'orthorhombic'
loop_
_space_group_symop_operation_xyz
x,y,z
-x,-y,z
x,-y,-z
-x,y,-z
-x,-y,-z
x,y,-z
-x,y,z
x,-y,z
1/2+x,1/2+y,z
1/2-x,1/2-y,z
1/2+x,1/2-y,-z
1/2-x,1/2+y,-z
1/2-x,1/2-y,-z
1/2+x,1/2+y,-z
1/2-x,1/2+y,z
1/2+x,1/2-y,z
loop_
_atom_site_type_symbol
_atom_site_label
_atom_site_fract_x
_atom_site_fract_y
_atom_site_fract_z
Si Si1 0.604518 0.805002 0.324970
Si Si2 0.902320 0.566260 0.663979
Si Si3 0.847908 0.429749 0.111838
Si Si4 0.896887 0.172126 0.613487
Si Si5 0.673045 0.625204 0.183007
Si Si6 0.601390 0.500000 0.113741
Si Si7 0.396173 0.751904 0.110687
O O1 0.500000 0.810611 0.323833
O O2 0.637317 0.869222 0.366684
O O3 0.623417 0.743776 0.384629
O O4 0.632993 0.789055 0.209585
O O5 0.862177 0.500000 0.642104
O O6 0.905534 0.572938 0.787222
O O7 0.000000 0.563812 0.625087
O O8 0.819837 0.500000 0.109125
O O9 0.765851 0.388995 0.136289
O O10 0.885618 0.416304 0.000000
O O11 0.885620 0.148398 0.500000
O O12 0.838134 0.141884 0.698803
O O13 0.000000 0.166703 0.640822
O O14 0.625998 0.561768 0.167642
O O15 0.631249 0.682549 0.126911
O O16 0.500000 0.500000 0.104780
O O17 0.639406 0.500000 0.000000
O O18 0.500000 0.754703 0.111165
O O19 0.365091 0.772689 0.000000
#
# Coordination Sequence:
#
# PCOD9488494 Si02
#       7
#    16  16  16  16  16   8  16
#     4   8  15  29  50  75 101 131 167 212 262 311
#     4   9  18  33  54  78 102 131 171 217 264 320
#     4  10  20  33  49  72 106 147 181 212 260 316
#     4   9  18  34  56  79 104 138 180 222 265 312
#     4  11  19  31  48  70 104 141 179 219 259 308
#     4  11  20  28  45  73 104 142 185 220 251 295
#     4   9  16  26  42  65  96 134 173 210 248 295
#
# _framework density 22.992056999999999
#
# number of rings (size 3 to 8) (size 9 to 14) (size 15 to 20)
#    0.000    2.538    0.769    3.692    0.000    2.154 
#    0.000    6.538    0.000    8.308    0.000    5.385 
#    0.000    0.000    0.000    0.000    0.000    0.308 
#
# Total GULP energy -290184.674886 kJ/mol
# GULP energy per Si atom -5580.474517 kJ/mol
# Density = 2.293973 g / cm^3
# Si number density = 22.992057 Si / 1000 Ang^3
#
#
#
# Elastic Constant Matrix: (Units=GPa)
#
#
# Indices 1 2 3 4 5 6 
#
# 1 32.2884 9.0939 4.4291 0.0000 0.0000 0.0000
# 2 9.0939 169.2668 17.5140 0.0000 0.0000 0.0000
# 3 4.4291 17.5140 103.2037 0.0000 0.0000 0.0000
# 4 0.0000 0.0000 0.0000 5.0173 0.0000 0.0000
# 5 0.0000 0.0000 0.0000 0.0000 2.1602 0.0000
# 6 0.0000 0.0000 0.0000 0.0000 0.0000 43.4236
#
#
#
# Elastic Compliance Matrix: (Units=1/GPa)
#
#
# Indices 1 2 3 4 5 6 
#
# 1 0.031566 -0.001584 -0.001086 0.000000 0.000000 0.000000
# 2 -0.001584 0.006093 -0.000966 0.000000 0.000000 0.000000
# 3 -0.001086 -0.000966 0.009900 0.000000 0.000000 0.000000
# 4 0.000000 0.000000 0.000000 0.199310 0.000000 0.000000
# 5 0.000000 0.000000 0.000000 0.000000 0.462922 0.000000
# 6 0.000000 0.000000 0.000000 0.000000 0.000000 0.023029
#
#
# Mechanical properties :
#
#
# Convention : Reuss Voigt Hill
#
# Bulk Modulus (GPa) = 24.82139 40.75920 32.79030
# Shear Modulus (GPa) = 6.63553 28.36834 17.50193
#
# Velocity S-wave (km/s) = 1.70067 3.51641 2.76201
# Velocity P-wave (km/s) = 3.83085 5.85259 4.94612
#
# Compressibility (1/GPa) = 0.04028783
#
# Stress axis : x y z
#
# Youngs Moduli (GPa) = 31.67983 164.12646 101.00889
#
# Poissons Ratio (x) = 0.25990 0.10969
# Poissons Ratio (y) = 0.05017 0.09758
# Poissons Ratio (z) = 0.03440 0.15855
#
# Static dielectric constant tensor:
#      x y z
#    x 1.858980 0.000000 0.000000 
#    y 0.000000 -4.439490 0.000000 
#    z 0.000000 0.000000 1.922870 
# 
# From -- ./inp_files/44621.got.cif
#   From: 2010.05.17/outbox.cif.g08.bks.cpg/sg65_23_cif.got.tgz:44621.got - 2010.06.03 17:01:31.
