data_PCOD9488547
_publ_section_title
;
Structure prediction by ZEFSAII (Michael W. Deem and Ramdas Pophale) SiO2 
 PCOD9488547
Probable space group: C M M M
;
_chemical_formula_sum "Si O2"
_cell_formula_units_Z 120
_cell_length_a 27.454482
_cell_length_b 28.843698
_cell_length_c 8.537913
_cell_angle_alpha 90.000000
_cell_angle_beta 90.000000
_cell_angle_gamma 90.000000
_cell_volume 6761.077574
_symmetry_space_group_name_H-M "C M M M"
_symmetry_group_IT_number 65
_symmetry_cell_setting 'orthorhombic'
loop_
_space_group_symop_operation_xyz
x,y,z
-x,-y,z
x,-y,-z
-x,y,-z
-x,-y,-z
x,y,-z
-x,y,z
x,-y,z
1/2+x,1/2+y,z
1/2-x,1/2-y,z
1/2+x,1/2-y,-z
1/2-x,1/2+y,-z
1/2-x,1/2-y,-z
1/2+x,1/2+y,-z
1/2-x,1/2+y,z
1/2+x,1/2-y,z
loop_
_atom_site_type_symbol
_atom_site_label
_atom_site_fract_x
_atom_site_fract_y
_atom_site_fract_z
Si Si1 0.739945 0.697665 0.689228
Si Si2 0.850569 0.140498 0.189295
Si Si3 0.798896 0.392184 0.313104
Si Si4 0.000000 0.553666 0.808713
Si Si5 0.941566 0.294219 0.316895
Si Si6 0.555492 0.692827 0.810714
Si Si7 0.207968 0.052269 0.189103
Si Si8 0.905100 0.610711 0.814097
O O1 0.738083 0.698345 0.500000
O O2 0.750000 0.750000 0.743658
O O3 0.689179 0.677457 0.751855
O O4 0.780902 0.659659 0.735304
O O5 0.904237 0.155820 0.240486
O O6 0.831858 0.090094 0.242576
O O7 0.849764 0.140800 0.000000
O O8 0.795922 0.394441 0.500000
O O9 0.759991 0.427753 0.241915
O O10 0.853509 0.402013 0.259829
O O11 0.951195 0.580398 0.756674
O O12 0.000000 0.500000 0.761016
O O13 0.000000 0.554989 0.000000
O O14 0.928793 0.296947 0.500000
O O15 0.929834 0.243513 0.251297
O O16 0.916377 0.335965 0.226607
O O17 0.000000 0.299889 0.301040
O O18 0.500000 0.683337 0.758399
O O19 0.555204 0.694413 0.000000
O O20 0.200022 0.000000 0.245734
O O21 0.207086 0.051646 0.000000
O O22 0.901800 0.604849 0.000000
#
# Coordination Sequence:
#
# PCOD9488547 Si02
#       8
#    16  16  16   8  16  16  16  16
#     4   9  19  34  49  69 101 139 170 204 256 312
#     4   9  18  32  51  77 103 133 174 216 254 301
#     4  10  21  35  51  76 106 134 170 215 262 313
#     4   9  20  38  57  75  95 127 171 215 258 305
#     4  10  20  33  50  72 101 137 176 214 252 298
#     4   9  18  32  50  75 108 142 175 210 253 305
#     4   9  18  35  57  77 100 133 174 217 262 312
#     4  11  21  35  55  76 102 134 171 216 263 313
#
# _framework density 17.748650999999999
#
# number of rings (size 3 to 8) (size 9 to 14) (size 15 to 20)
#    0.000    2.467    0.667    1.200    1.867    2.667 
#    0.000    1.333    0.000    3.200    0.000    2.800 
#    0.000    0.000    0.000   10.000    0.000   10.400 
#
# Total GULP energy -334706.889335 kJ/mol
# GULP energy per Si atom -5578.448156 kJ/mol
# Density = 1.770825 g / cm^3
# Si number density = 17.748651 Si / 1000 Ang^3
#
#
#
# Elastic Constant Matrix: (Units=GPa)
#
#
# Indices 1 2 3 4 5 6 
#
# 1 109.6610 73.6292 4.6180 0.0000 0.0000 0.0000
# 2 73.6292 143.7664 8.5255 0.0000 0.0000 0.0000
# 3 4.6180 8.5255 2.3985 0.0000 0.0000 0.0000
# 4 0.0000 0.0000 0.0000 11.7156 0.0000 0.0000
# 5 0.0000 0.0000 0.0000 0.0000 13.5235 0.0000
# 6 0.0000 0.0000 0.0000 0.0000 0.0000 11.9438
#
#
#
# Elastic Compliance Matrix: (Units=1/GPa)
#
#
# Indices 1 2 3 4 5 6 
#
# 1 0.013905 -0.007012 -0.001849 0.000000 0.000000 0.000000
# 2 -0.007012 0.012349 -0.030396 0.000000 0.000000 0.000000
# 3 -0.001849 -0.030396 0.528542 0.000000 0.000000 0.000000
# 4 0.000000 0.000000 0.000000 0.085356 0.000000 0.000000
# 5 0.000000 0.000000 0.000000 0.000000 0.073945 0.000000
# 6 0.000000 0.000000 0.000000 0.000000 0.000000 0.083725
#
#
# Mechanical properties :
#
#
# Convention : Reuss Voigt Hill
#
# Bulk Modulus (GPa) = 2.09960 47.70793 24.90376
# Shear Modulus (GPa) = 4.83047 18.70680 11.76864
#
# Velocity S-wave (km/s) = 1.65152 3.25003 2.57781
# Velocity P-wave (km/s) = 2.19595 6.40482 4.78769
#
# Compressibility (1/GPa) = 0.47628195
#
# Stress axis : x y z
#
# Youngs Moduli (GPa) = 71.91869 80.97712 1.89200
#
# Poissons Ratio (x) = 0.56777 0.00350
# Poissons Ratio (y) = 0.50426 0.05751
# Poissons Ratio (z) = 0.13298 2.46139
#
# Static dielectric constant tensor:
#      x y z
#    x 1.601520 0.000000 0.000000 
#    y 0.000000 1.601150 0.000000 
#    z 0.000000 0.000000 1.598460 
# 
# From -- ./inp_files/17085.got.cif
#   From: 2010.05.17/outbox.cif.g08.bks.cpg/sg65_9_cif.got.tgz:17085.got - 2010.06.03 17:01:31.
