data_PCOD9488244
_publ_section_title
;
Structure prediction by ZEFSAII (Michael W. Deem and Ramdas Pophale) SiO2 
 PCOD9488244
Probable space group: C M M M
;
_chemical_formula_sum "Si O2"
_cell_formula_units_Z 104
_cell_length_a 9.167046
_cell_length_b 19.090661
_cell_length_c 34.143573
_cell_angle_alpha 90.000000
_cell_angle_beta 90.000000
_cell_angle_gamma 90.000000
_cell_volume 5975.294885
_symmetry_space_group_name_H-M "C M M M"
_symmetry_group_IT_number 65
_symmetry_cell_setting 'orthorhombic'
loop_
_space_group_symop_operation_xyz
x,y,z
-x,-y,z
x,-y,-z
-x,y,-z
-x,-y,-z
x,y,-z
-x,y,z
x,-y,z
1/2+x,1/2+y,z
1/2-x,1/2-y,z
1/2+x,1/2-y,-z
1/2-x,1/2+y,-z
1/2-x,1/2-y,-z
1/2+x,1/2+y,-z
1/2-x,1/2+y,z
1/2+x,1/2-y,z
loop_
_atom_site_type_symbol
_atom_site_label
_atom_site_fract_x
_atom_site_fract_y
_atom_site_fract_z
Si Si1 0.329298 0.916054 0.656786
Si Si2 0.673651 0.674846 0.277939
Si Si3 0.675666 0.325414 0.500000
Si Si4 0.669763 0.414901 0.956435
Si Si5 0.829158 0.415744 0.877693
Si Si6 0.673416 0.674904 0.812559
Si Si7 0.674339 0.582308 0.575472
O O1 0.500000 0.897253 0.657872
O O2 0.243307 0.878373 0.691436
O O3 0.259431 0.897582 0.614804
O O4 0.316821 0.000000 0.660880
O O5 0.500000 0.680905 0.283790
O O6 0.750000 0.750000 0.283287
O O7 0.699155 0.653246 0.232685
O O8 0.500000 0.317644 0.500000
O O9 0.750000 0.250000 0.500000
O O10 0.715033 0.370009 0.461407
O O11 0.500000 0.395385 0.950810
O O12 0.674467 0.500000 0.956848
O O13 0.766124 0.392104 0.919806
O O14 0.716528 0.391526 0.000000
O O15 0.812732 0.500000 0.875360
O O16 0.740951 0.379186 0.843079
O O17 0.000000 0.399105 0.874692
O O18 0.500000 0.681534 0.818232
O O19 0.750000 0.750000 0.818101
O O20 0.500000 0.588925 0.582038
O O21 0.703259 0.500000 0.567076
#
# Coordination Sequence:
#
# PCOD9488244 Si02
#       7
#    16  16   8  16  16  16  16
#     4  10  21  36  55  81 111 141 174 214 260 309
#     4  10  21  37  57  79 103 135 174 215 260 310
#     4  10  21  35  53  79 107 136 172 216 264 308
#     4   8  14  26  45  69  98 132 169 210 256 304
#     4  10  20  32  49  76 107 137 171 212 256 303
#     4  10  21  37  56  76 101 135 174 214 258 311
#     4   9  18  35  57  77 101 137 179 217 254 303
#
# _framework density 17.404997999999999
#
# number of rings (size 3 to 8) (size 9 to 14) (size 15 to 20)
#    0.000    2.462    0.000    2.538    0.000    6.769 
#    0.000    6.154    0.000    2.769    0.000    0.000 
#    0.000    0.000    0.000    0.000    0.000    0.000 
#
# Total GULP energy -290101.911964 kJ/mol
# GULP energy per Si atom -5578.882922 kJ/mol
# Density = 1.736538 g / cm^3
# Si number density = 17.404998 Si / 1000 Ang^3
#
#
#
# Elastic Constant Matrix: (Units=GPa)
#
#
# Indices 1 2 3 4 5 6 
#
# 1 105.4684 51.3570 101.5808 0.0000 0.0000 0.0000
# 2 51.3570 42.9629 68.2783 0.0000 0.0000 0.0000
# 3 101.5808 68.2783 162.4169 0.0000 0.0000 0.0000
# 4 0.0000 0.0000 0.0000 -54.8934 0.0000 0.0000
# 5 0.0000 0.0000 0.0000 0.0000 27.2960 0.0000
# 6 0.0000 0.0000 0.0000 0.0000 0.0000 30.2015
#
#
#
# Elastic Compliance Matrix: (Units=1/GPa)
#
#
# Indices 1 2 3 4 5 6 
#
# 1 0.027259 -0.016543 -0.010094 0.000000 0.000000 0.000000
# 2 -0.016543 0.080168 -0.023355 0.000000 0.000000 0.000000
# 3 -0.010094 -0.023355 0.022289 0.000000 0.000000 0.000000
# 4 0.000000 0.000000 0.000000 -0.018217 0.000000 0.000000
# 5 0.000000 0.000000 0.000000 0.000000 0.036635 0.000000
# 6 0.000000 0.000000 0.000000 0.000000 0.000000 0.033111
#
#
# Mechanical properties :
#
#
# Convention : Reuss Voigt Hill
#
# Bulk Modulus (GPa) = 33.63507 83.69785 58.66646
# Shear Modulus (GPa) = 17.17385 6.49628 11.83507
#
# Velocity S-wave (km/s) = 3.14462 1.93404 2.61047
# Velocity P-wave (km/s) = 5.70541 7.29247 6.54721
#
# Compressibility (1/GPa) = 0.02973087
#
# Stress axis : x y z
#
# Youngs Moduli (GPa) = 36.68495 12.47382 44.86568
#
# Poissons Ratio (x) = 0.20635 0.45289
# Poissons Ratio (y) = 0.60686 1.04786
# Poissons Ratio (z) = 0.37031 0.29133
#
# Static dielectric constant tensor:
#      x y z
#    x 1.578200 0.000000 0.000000 
#    y 0.000000 1.567610 0.000000 
#    z 0.000000 0.000000 1.580820 
# 
# From -- ./inp_files/76874.got.cif
#   From: 2010.05.17/outbox.cif.g08.bks.cpg/sg65_39_cif.got.tgz:76874.got - 2010.06.03 17:01:31.
