data_PCOD9488444
_publ_section_title
;
Structure prediction by ZEFSAII (Michael W. Deem and Ramdas Pophale) SiO2 
 PCOD9488444
Probable space group: C M M M
;
_chemical_formula_sum "Si O2"
_cell_formula_units_Z 72
_cell_length_a 32.389916
_cell_length_b 7.601250
_cell_length_c 14.031523
_cell_angle_alpha 90.000000
_cell_angle_beta 90.000000
_cell_angle_gamma 90.000000
_cell_volume 3454.614970
_symmetry_space_group_name_H-M "C M M M"
_symmetry_group_IT_number 65
_symmetry_cell_setting 'orthorhombic'
loop_
_space_group_symop_operation_xyz
x,y,z
-x,-y,z
x,-y,-z
-x,y,-z
-x,-y,-z
x,y,-z
-x,y,z
x,-y,z
1/2+x,1/2+y,z
1/2-x,1/2-y,z
1/2+x,1/2-y,-z
1/2-x,1/2+y,-z
1/2-x,1/2-y,-z
1/2+x,1/2+y,-z
1/2-x,1/2+y,z
1/2+x,1/2-y,z
loop_
_atom_site_type_symbol
_atom_site_label
_atom_site_fract_x
_atom_site_fract_y
_atom_site_fract_z
Si Si1 0.796157 0.290525 0.306793
Si Si2 0.086886 0.786220 0.804791
Si Si3 0.000000 0.214897 0.109714
Si Si4 0.380865 0.705727 0.603910
Si Si5 0.826692 0.292027 0.104611
O O1 0.801966 0.500000 0.304945
O O2 0.750000 0.250000 0.337974
O O3 0.832173 0.217146 0.373209
O O4 0.803624 0.220736 0.198563
O O5 0.042286 0.727886 0.840533
O O6 0.097085 0.720866 0.698097
O O7 0.124699 0.730434 0.872382
O O8 0.087547 0.000000 0.804123
O O9 0.000000 0.000000 0.111581
O O10 0.000000 0.269434 0.000000
O O11 0.389761 0.783538 0.500000
O O12 0.392107 0.500000 0.600203
O O13 0.817802 0.500000 0.101147
O O14 0.816771 0.217561 0.000000
#
# Coordination Sequence:
#
# PCOD9488444 Si02
#       5
#    16  16   8  16  16
#     4  10  20  33  49  70  95 122 154 193 235 280
#     4   9  17  30  48  70  95 124 159 194 229 275
#     4   9  16  26  44  72 102 127 153 189 230 271
#     4   9  18  33  51  69  91 121 157 197 238 277
#     4   9  18  32  48  67  94 126 157 191 232 276
#
# _framework density 20.841687
#
# number of rings (size 3 to 8) (size 9 to 14) (size 15 to 20)
#    0.000    2.778    0.000    1.333    0.000    3.556 
#    0.000    1.111    0.000    5.333    0.000    0.000 
#    0.000    7.111    0.000    0.000    0.000    0.000 
#
# Total GULP energy -200871.029496 kJ/mol
# GULP energy per Si atom -5579.750819 kJ/mol
# Density = 2.079425 g / cm^3
# Si number density = 20.841687 Si / 1000 Ang^3
#
#
#
# Elastic Constant Matrix: (Units=GPa)
#
#
# Indices 1 2 3 4 5 6 
#
# 1 80.2418 -18.3640 11.2660 0.0000 0.0000 0.0000
# 2 -18.3640 48.2736 0.0001 0.0000 0.0000 0.0000
# 3 11.2660 0.0001 114.4234 0.0000 0.0000 0.0000
# 4 0.0000 0.0000 0.0000 9.4510 0.0000 0.0000
# 5 0.0000 0.0000 0.0000 0.0000 1.0075 0.0000
# 6 0.0000 0.0000 0.0000 0.0000 0.0000 12.8362
#
#
#
# Elastic Compliance Matrix: (Units=1/GPa)
#
#
# Indices 1 2 3 4 5 6 
#
# 1 0.013861 0.005273 -0.001365 0.000000 0.000000 0.000000
# 2 0.005273 0.022721 -0.000519 0.000000 0.000000 0.000000
# 3 -0.001365 -0.000519 0.008874 0.000000 0.000000 0.000000
# 4 0.000000 0.000000 0.000000 0.105809 0.000000 0.000000
# 5 0.000000 0.000000 0.000000 0.000000 0.992588 0.000000
# 6 0.000000 0.000000 0.000000 0.000000 0.000000 0.077905
#
#
# Mechanical properties :
#
#
# Convention : Reuss Voigt Hill
#
# Bulk Modulus (GPa) = 19.14481 25.41588 22.28034
# Shear Modulus (GPa) = 4.05715 21.32803 12.69259
#
# Velocity S-wave (km/s) = 1.39674 3.20243 2.47047
# Velocity P-wave (km/s) = 3.43612 5.08874 4.34179
#
# Compressibility (1/GPa) = 0.05223349
#
# Stress axis : x y z
#
# Youngs Moduli (GPa) = 72.14656 44.01192 112.69073
#
# Poissons Ratio (x) = -0.23207 0.15379
# Poissons Ratio (y) = -0.38042 0.05851
# Poissons Ratio (z) = 0.09846 0.02285
#
# Static dielectric constant tensor:
#      x y z
#    x 1.700430 0.000000 0.000000 
#    y 0.000000 1.794280 0.000000 
#    z 0.000000 0.000000 1.777450 
# 
# From -- ./inp_files/36932.got.cif
#   From: 2010.05.17/outbox.cif.g08.bks.cpg/sg65_19_cif.got.tgz:36932.got - 2010.06.03 17:01:31.
