data_PCOD9488795
_publ_section_title
;
Structure prediction by ZEFSAII (Michael W. Deem and Ramdas Pophale) SiO2 
 PCOD9488795
Probable space group: C M M M
;
_chemical_formula_sum "Si O2"
_cell_formula_units_Z 104
_cell_length_a 29.685838
_cell_length_b 8.981030
_cell_length_c 23.334132
_cell_angle_alpha 90.000000
_cell_angle_beta 90.000000
_cell_angle_gamma 90.000000
_cell_volume 6221.098971
_symmetry_space_group_name_H-M "C M M M"
_symmetry_group_IT_number 65
_symmetry_cell_setting 'orthorhombic'
loop_
_space_group_symop_operation_xyz
x,y,z
-x,-y,z
x,-y,-z
-x,y,-z
-x,-y,-z
x,y,-z
-x,y,z
x,-y,z
1/2+x,1/2+y,z
1/2-x,1/2-y,z
1/2+x,1/2-y,-z
1/2-x,1/2+y,-z
1/2-x,1/2-y,-z
1/2+x,1/2+y,-z
1/2-x,1/2+y,z
1/2+x,1/2-y,z
loop_
_atom_site_type_symbol
_atom_site_label
_atom_site_fract_x
_atom_site_fract_y
_atom_site_fract_z
Si Si1 0.296923 0.178582 0.932765
Si Si2 0.053412 0.822159 0.785874
Si Si3 0.053673 0.178519 0.000000
Si Si4 0.895357 0.320501 0.108205
Si Si5 0.795281 0.329814 0.430452
Si Si6 0.553919 0.172500 0.334964
Si Si7 0.110658 0.822106 0.566820
O O1 0.250000 0.250000 0.912703
O O2 0.342638 0.220463 0.899840
O O3 0.292691 0.000000 0.930298
O O4 0.303044 0.220218 0.000000
O O5 0.082985 0.742202 0.833935
O O6 0.065470 0.760755 0.723043
O O7 0.000000 0.790365 0.795536
O O8 0.059203 0.000000 0.788506
O O9 0.076883 0.250392 0.055532
O O10 0.000000 0.206862 0.000000
O O11 0.060252 0.000000 0.000000
O O12 0.898643 0.500000 0.106026
O O13 0.792695 0.334142 0.500000
O O14 0.798589 0.500000 0.410395
O O15 0.750000 0.250000 0.409734
O O16 0.839772 0.236841 0.417005
O O17 0.500000 0.177591 0.340586
O O18 0.576040 0.246662 0.390198
O O19 0.567723 0.000000 0.330015
O O20 0.102496 0.781770 0.500000
O O21 0.108858 0.000000 0.571247
#
# Coordination Sequence:
#
# PCOD9488795 Si02
#       7
#    16  16   8  16  16  16  16
#     4   9  18  33  51  75 105 137 175 216 258 307
#     4  10  21  37  56  78 104 136 176 217 258 313
#     4  11  23  35  48  73 108 141 174 213 258 307
#     4  11  21  35  54  78 107 138 174 215 262 312
#     4   9  16  27  45  70 101 135 170 208 251 303
#     4  10  21  37  56  77 102 136 178 220 264 315
#     4  10  20  33  51  77 108 140 174 215 266 319
#
# _framework density 16.717303000000001
#
# number of rings (size 3 to 8) (size 9 to 14) (size 15 to 20)
#    0.000    2.077    0.769    3.000    0.000    8.615 
#    0.000    1.538    0.000    0.923    0.000    4.308 
#    0.000    0.000    0.000    0.000    0.000    0.000 
#
# Total GULP energy -290166.446973 kJ/mol
# GULP energy per Si atom -5580.123980 kJ/mol
# Density = 1.667925 g / cm^3
# Si number density = 16.717303 Si / 1000 Ang^3
#
#
#
# Elastic Constant Matrix: (Units=GPa)
#
#
# Indices 1 2 3 4 5 6 
#
# 1 103.1735 60.6638 67.3593 0.0000 0.0000 0.0000
# 2 60.6638 84.9663 51.0646 0.0000 0.0000 0.0000
# 3 67.3593 51.0646 96.4359 0.0000 0.0000 0.0000
# 4 0.0000 0.0000 0.0000 29.0523 0.0000 0.0000
# 5 0.0000 0.0000 0.0000 0.0000 -3.2183 0.0000
# 6 0.0000 0.0000 0.0000 0.0000 0.0000 32.9509
#
#
#
# Elastic Compliance Matrix: (Units=1/GPa)
#
#
# Indices 1 2 3 4 5 6 
#
# 1 0.022057 -0.009518 -0.010367 0.000000 0.000000 0.000000
# 2 -0.009518 0.021370 -0.004668 0.000000 0.000000 0.000000
# 3 -0.010367 -0.004668 0.020082 0.000000 0.000000 0.000000
# 4 0.000000 0.000000 0.000000 0.034421 0.000000 0.000000
# 5 0.000000 0.000000 0.000000 0.000000 -0.310722 0.000000
# 6 0.000000 0.000000 0.000000 0.000000 0.000000 0.030348
#
#
# Mechanical properties :
#
#
# Convention : Reuss Voigt Hill
#
# Bulk Modulus (GPa) = 69.42118 71.41678 70.41898
# Shear Modulus (GPa) = -38.89873 18.78951 -10.05461
#
# Velocity S-wave (km/s) = -4.82898 3.35618 -2.45511
# Velocity P-wave (km/s) = 3.24417 7.60471 5.84621
#
# Compressibility (1/GPa) = 0.01440483
#
# Stress axis : x y z
#
# Youngs Moduli (GPa) = 45.33797 46.79435 49.79520
#
# Poissons Ratio (x) = 0.44537 0.51620
# Poissons Ratio (y) = 0.43151 0.23244
# Poissons Ratio (z) = 0.47000 0.21843
#
# Static dielectric constant tensor:
#      x y z
#    x 1.555540 0.000000 0.000000 
#    y 0.000000 1.559970 0.000000 
#    z 0.000000 0.000000 1.537110 
# 
# From -- ./inp_files/66425.got.cif
#   From: 2010.05.17/outbox.cif.g08.bks.cpg/sg65_34_cif.got.tgz:66425.got - 2010.06.03 17:01:31.
