data_PCOD9488768
_publ_section_title
;
Structure prediction by ZEFSAII (Michael W. Deem and Ramdas Pophale) SiO2 
 PCOD9488768
Probable space group: C M M M
;
_chemical_formula_sum "Si O2"
_cell_formula_units_Z 116
_cell_length_a 8.789271
_cell_length_b 29.475226
_cell_length_c 28.100327
_cell_angle_alpha 90.000000
_cell_angle_beta 90.000000
_cell_angle_gamma 90.000000
_cell_volume 7279.832264
_symmetry_space_group_name_H-M "C M M M"
_symmetry_group_IT_number 65
_symmetry_cell_setting 'orthorhombic'
loop_
_space_group_symop_operation_xyz
x,y,z
-x,-y,z
x,-y,-z
-x,y,-z
-x,-y,-z
x,y,-z
-x,y,z
x,-y,z
1/2+x,1/2+y,z
1/2-x,1/2-y,z
1/2+x,1/2-y,-z
1/2-x,1/2+y,-z
1/2-x,1/2-y,-z
1/2+x,1/2+y,-z
1/2-x,1/2+y,z
1/2+x,1/2-y,z
loop_
_atom_site_type_symbol
_atom_site_label
_atom_site_fract_x
_atom_site_fract_y
_atom_site_fract_z
Si Si1 0.000000 0.684733 0.000000
Si Si2 0.816796 0.200346 0.446208
Si Si3 0.682421 0.199351 0.266660
Si Si4 0.817463 0.857155 0.354982
Si Si5 0.818190 0.854033 0.176601
Si Si6 0.317876 0.550697 0.782388
Si Si7 0.332817 0.201796 0.096523
Si Si8 0.181496 0.551530 0.322774
O O1 0.869853 0.687153 0.042653
O O2 0.769685 0.187392 0.500000
O O3 0.750000 0.250000 0.436040
O O4 0.772326 0.165725 0.404890
O O5 0.000000 0.203524 0.445678
O O6 0.500000 0.200934 0.266855
O O7 0.750000 0.250000 0.268709
O O8 0.741791 0.170698 0.311824
O O9 0.742417 0.174435 0.219259
O O10 0.763582 0.908919 0.351451
O O11 0.000000 0.854704 0.349733
O O12 0.778869 0.906995 0.184296
O O13 0.760196 0.834243 0.126962
O O14 0.000000 0.849223 0.180133
O O15 0.500000 0.552735 0.773480
O O16 0.283205 0.500000 0.800908
O O17 0.233885 0.556312 0.732103
O O18 0.500000 0.207396 0.119875
O O19 0.250000 0.250000 0.096744
O O20 0.220693 0.500000 0.337491
O O21 0.000000 0.556987 0.325517
#
# Coordination Sequence:
#
# PCOD9488768 Si02
#       8
#     4  16  16  16  16  16  16  16
#     4   8  22  36  58  76 103 142 179 230 256 316
#     4   9  19  35  54  76 102 133 175 225 270 316
#     4  12  24  36  50  71 107 146 178 212 254 319
#     4  11  21  34  53  77 104 139 178 217 267 320
#     4  11  21  34  52  79 110 139 175 214 264 320
#     4   9  18  33  53  75 104 140 176 216 259 313
#     4  10  20  35  54  77 104 139 175 219 263 305
#     4  10  20  33  51  76 105 138 177 220 264 314
#
# _framework density 15.934433
#
# number of rings (size 3 to 8) (size 9 to 14) (size 15 to 20)
#    0.414    1.379    1.379    3.931    0.000    3.586 
#    0.000    0.000    0.000    0.414    0.000    3.862 
#    0.000    2.207    0.000    0.000    0.000    0.000 
#
# Total GULP energy -322982.805254 kJ/mol
# GULP energy per Si atom -5568.669056 kJ/mol
# Density = 1.589817 g / cm^3
# Si number density = 15.934433 Si / 1000 Ang^3
#
#
#
# Elastic Constant Matrix: (Units=GPa)
#
#
# Indices 1 2 3 4 5 6 
#
# 1 69.4905 52.2357 42.9861 0.0000 0.0000 0.0000
# 2 52.2357 132.0217 85.5212 0.0000 0.0000 0.0000
# 3 42.9861 85.5212 106.1012 0.0000 0.0000 0.0000
# 4 0.0000 0.0000 0.0000 6.9874 0.0000 0.0000
# 5 0.0000 0.0000 0.0000 0.0000 24.4083 0.0000
# 6 0.0000 0.0000 0.0000 0.0000 0.0000 21.1469
#
#
#
# Elastic Compliance Matrix: (Units=1/GPa)
#
#
# Indices 1 2 3 4 5 6 
#
# 1 0.021199 -0.005910 -0.003825 0.000000 0.000000 0.000000
# 2 -0.005910 0.017498 -0.011710 0.000000 0.000000 0.000000
# 3 -0.003825 -0.011710 0.020413 0.000000 0.000000 0.000000
# 4 0.000000 0.000000 0.000000 0.143114 0.000000 0.000000
# 5 0.000000 0.000000 0.000000 0.000000 0.040970 0.000000
# 6 0.000000 0.000000 0.000000 0.000000 0.000000 0.047288
#
#
# Mechanical properties :
#
#
# Convention : Reuss Voigt Hill
#
# Bulk Modulus (GPa) = 61.64879 74.34437 67.99658
# Shear Modulus (GPa) = 14.75891 18.96656 16.86273
#
# Velocity S-wave (km/s) = 3.04670 3.45380 3.25662
# Velocity P-wave (km/s) = 7.15189 7.91598 7.54361
#
# Compressibility (1/GPa) = 0.01622092
#
# Stress axis : x y z
#
# Youngs Moduli (GPa) = 47.17210 57.14889 48.98779
#
# Poissons Ratio (x) = 0.33773 0.18739
# Poissons Ratio (y) = 0.27877 0.57364
# Poissons Ratio (z) = 0.18044 0.66920
#
# Static dielectric constant tensor:
#      x y z
#    x 1.540080 0.000000 0.000000 
#    y 0.000000 1.535280 0.000000 
#    z 0.000000 0.000000 1.509110 
# 
# From -- ./inp_files/74080.got.cif
#   From: 2010.05.17/outbox.cif.g08.bks.cpg/sg65_38_cif.got.tgz:74080.got - 2010.06.03 17:01:31.
