data_PCOD9488425
_publ_section_title
;
Structure prediction by ZEFSAII (Michael W. Deem and Ramdas Pophale) SiO2 
 PCOD9488425
Probable space group: C M M M
;
_chemical_formula_sum "Si O2"
_cell_formula_units_Z 72
_cell_length_a 34.791823
_cell_length_b 13.743132
_cell_length_c 7.760701
_cell_angle_alpha 90.000000
_cell_angle_beta 90.000000
_cell_angle_gamma 90.000000
_cell_volume 3710.768442
_symmetry_space_group_name_H-M "C M M M"
_symmetry_group_IT_number 65
_symmetry_cell_setting 'orthorhombic'
loop_
_space_group_symop_operation_xyz
x,y,z
-x,-y,z
x,-y,-z
-x,y,-z
-x,-y,-z
x,y,-z
-x,y,z
x,-y,z
1/2+x,1/2+y,z
1/2-x,1/2-y,z
1/2+x,1/2-y,-z
1/2-x,1/2+y,-z
1/2-x,1/2-y,-z
1/2+x,1/2+y,-z
1/2-x,1/2+y,z
1/2+x,1/2-y,z
loop_
_atom_site_type_symbol
_atom_site_label
_atom_site_fract_x
_atom_site_fract_y
_atom_site_fract_z
Si Si1 0.749828 0.500000 0.210029
Si Si2 0.289314 0.691427 0.803159
Si Si3 0.585484 0.388281 0.702243
Si Si4 0.135286 0.290351 0.697998
Si Si5 0.159070 0.500000 0.708121
Si Si6 0.500000 0.617031 0.805350
O O1 0.725308 0.591021 0.272845
O O2 0.795010 0.500000 0.254302
O O3 0.749037 0.500000 0.000000
O O4 0.250000 0.750000 0.814080
O O5 0.321625 0.748284 0.702050
O O6 0.303754 0.677906 0.000000
O O7 0.595483 0.394831 0.500000
O O8 0.590868 0.500000 0.772522
O O9 0.609853 0.297717 0.776384
O O10 0.540565 0.360247 0.718295
O O11 0.122090 0.302420 0.500000
O O12 0.139511 0.399580 0.773158
O O13 0.156080 0.500000 0.500000
O O14 0.500000 0.500000 0.812722
O O15 0.500000 0.655578 0.000000
#
# Coordination Sequence:
#
# PCOD9488425 Si02
#       6
#     8  16  16  16   8   8
#     4  10  20  34  48  66  93 128 167 208 255 304
#     4  10  20  33  49  68  94 129 169 210 252 295
#     4   9  18  33  52  75 102 130 158 192 239 294
#     4  10  21  34  50  73 100 130 167 207 247 290
#     4  10  20  34  50  69  95 130 170 211 246 284
#     4   9  17  31  53  80 105 128 154 189 236 291
#
# _framework density 19.402989000000002
#
# number of rings (size 3 to 8) (size 9 to 14) (size 15 to 20)
#    0.000    2.333    2.222    0.333    1.556    3.556 
#    0.000    0.000    0.000    0.667    0.000    4.667 
#    0.000    0.000    0.000    0.000    0.000    0.000 
#
# Total GULP energy -200409.178711 kJ/mol
# GULP energy per Si atom -5566.921631 kJ/mol
# Density = 1.935883 g / cm^3
# Si number density = 19.402989 Si / 1000 Ang^3
#
#
#
# Elastic Constant Matrix: (Units=GPa)
#
#
# Indices 1 2 3 4 5 6 
#
# 1 86.1954 60.6571 -3.7602 0.0000 0.0000 0.0000
# 2 60.6571 181.8236 5.6325 0.0000 0.0000 0.0000
# 3 -3.7602 5.6325 32.3429 0.0000 0.0000 0.0000
# 4 0.0000 0.0000 0.0000 4.4359 0.0000 0.0000
# 5 0.0000 0.0000 0.0000 0.0000 52.5420 0.0000
# 6 0.0000 0.0000 0.0000 0.0000 0.0000 26.4712
#
#
#
# Elastic Compliance Matrix: (Units=1/GPa)
#
#
# Indices 1 2 3 4 5 6 
#
# 1 0.015391 -0.005218 0.002698 0.000000 0.000000 0.000000
# 2 -0.005218 0.007299 -0.001878 0.000000 0.000000 0.000000
# 3 0.002698 -0.001878 0.031559 0.000000 0.000000 0.000000
# 4 0.000000 0.000000 0.000000 0.225435 0.000000 0.000000
# 5 0.000000 0.000000 0.000000 0.000000 0.019032 0.000000
# 6 0.000000 0.000000 0.000000 0.000000 0.000000 0.037777
#
#
# Mechanical properties :
#
#
# Convention : Reuss Voigt Hill
#
# Bulk Modulus (GPa) = 22.00028 47.26899 34.63463
# Shear Modulus (GPa) = 13.87191 32.54530 23.20860
#
# Velocity S-wave (km/s) = 2.67673 4.09997 3.46227
# Velocity P-wave (km/s) = 4.57345 6.84307 5.81997
#
# Compressibility (1/GPa) = 0.04545396
#
# Stress axis : x y z
#
# Youngs Moduli (GPa) = 64.97134 137.00838 31.68629
#
# Poissons Ratio (x) = 0.71494 -0.08549
# Poissons Ratio (y) = 0.33903 0.05950
# Poissons Ratio (z) = -0.17530 0.25727
#
# Static dielectric constant tensor:
#      x y z
#    x 1.650470 0.000000 0.000000 
#    y 0.000000 1.695300 0.000000 
#    z 0.000000 0.000000 1.750350 
# 
# From -- ./inp_files/18075.got.cif
#   From: 2010.05.17/outbox.cif.g08.bks.cpg/sg65_10_cif.got.tgz:18075.got - 2010.06.03 17:01:31.
