data_PCOD9488678
_publ_section_title
;
Structure prediction by ZEFSAII (Michael W. Deem and Ramdas Pophale) SiO2 
 PCOD9488678
Probable space group: C M M M
;
_chemical_formula_sum "Si O2"
_cell_formula_units_Z 72
_cell_length_a 14.726156
_cell_length_b 28.751016
_cell_length_c 8.495529
_cell_angle_alpha 90.000000
_cell_angle_beta 90.000000
_cell_angle_gamma 90.000000
_cell_volume 3596.938562
_symmetry_space_group_name_H-M "C M M M"
_symmetry_group_IT_number 65
_symmetry_cell_setting 'orthorhombic'
loop_
_space_group_symop_operation_xyz
x,y,z
-x,-y,z
x,-y,-z
-x,y,-z
-x,-y,-z
x,y,-z
-x,y,z
x,-y,z
1/2+x,1/2+y,z
1/2-x,1/2-y,z
1/2+x,1/2-y,-z
1/2-x,1/2+y,-z
1/2-x,1/2-y,-z
1/2+x,1/2+y,-z
1/2-x,1/2+y,z
1/2+x,1/2-y,z
loop_
_atom_site_type_symbol
_atom_site_label
_atom_site_fract_x
_atom_site_fract_y
_atom_site_fract_z
Si Si1 0.598211 0.610655 0.185889
Si Si2 0.347174 0.809299 0.681815
Si Si3 0.369267 0.709493 0.316329
Si Si4 0.604929 0.000000 0.811345
Si Si5 0.797525 0.591927 0.311164
O O1 0.500000 0.591736 0.242394
O O2 0.596027 0.665954 0.219356
O O3 0.691219 0.593009 0.263785
O O4 0.604765 0.602276 0.000000
O O5 0.378534 0.811806 0.500000
O O6 0.389100 0.761402 0.747032
O O7 0.239434 0.798436 0.680263
O O8 0.349123 0.861225 0.750993
O O9 0.397712 0.706509 0.500000
O O10 0.654846 0.954144 0.749400
O O11 0.500000 0.000000 0.759760
O O12 0.607808 0.000000 0.000000
O O13 0.801467 0.594240 0.500000
#
# Coordination Sequence:
#
# PCOD9488678 Si02
#       5
#    16  16  16   8  16
#     4  10  20  33  50  78 119 160 192 225 271 329
#     4   7  12  25  47  75 104 136 178 228 275 313
#     4   8  13  25  46  71 103 144 188 228 264 309
#     4  11  25  45  66  87 112 139 169 216 284 351
#     4  10  20  37  62  86 109 142 188 238 281 327
#
# _framework density 20.017022000000001
#
# number of rings (size 3 to 8) (size 9 to 14) (size 15 to 20)
#    0.000    3.000    0.000    4.333    0.000    2.667 
#    0.000   11.667    0.000   10.000    0.000    0.000 
#    0.000    0.000    0.000    0.000    0.000    0.000 
#
# Total GULP energy -200440.252569 kJ/mol
# GULP energy per Si atom -5567.784794 kJ/mol
# Density = 1.997146 g / cm^3
# Si number density = 20.017022 Si / 1000 Ang^3
#
#
#
# Elastic Constant Matrix: (Units=GPa)
#
#
# Indices 1 2 3 4 5 6 
#
# 1 107.6089 58.6083 19.0665 0.0000 0.0000 0.0000
# 2 58.6083 155.7622 19.4322 0.0000 0.0000 0.0000
# 3 19.0665 19.4322 30.4194 0.0000 0.0000 0.0000
# 4 0.0000 0.0000 0.0000 -0.4130 0.0000 0.0000
# 5 0.0000 0.0000 0.0000 0.0000 26.7264 0.0000
# 6 0.0000 0.0000 0.0000 0.0000 0.0000 -13.6173
#
#
#
# Elastic Compliance Matrix: (Units=1/GPa)
#
#
# Indices 1 2 3 4 5 6 
#
# 1 0.012404 -0.004017 -0.005208 0.000000 0.000000 0.000000
# 2 -0.004017 0.008277 -0.002769 0.000000 0.000000 0.000000
# 3 -0.005208 -0.002769 0.037907 0.000000 0.000000 0.000000
# 4 0.000000 0.000000 0.000000 -2.421533 0.000000 0.000000
# 5 0.000000 0.000000 0.000000 0.000000 0.037416 0.000000
# 6 0.000000 0.000000 0.000000 0.000000 0.000000 -0.073436
#
#
# Mechanical properties :
#
#
# Convention : Reuss Voigt Hill
#
# Bulk Modulus (GPa) = 28.90326 54.22273 41.56299
# Shear Modulus (GPa) = -2.11556 15.65145 6.76795
#
# Velocity S-wave (km/s) = -1.02916 2.79929 1.84077
# Velocity P-wave (km/s) = 3.61365 6.13149 5.03258
#
# Compressibility (1/GPa) = 0.03459818
#
# Stress axis : x y z
#
# Youngs Moduli (GPa) = 80.62073 120.81429 26.38011
#
# Poissons Ratio (x) = 0.48536 0.13739
# Poissons Ratio (y) = 0.32388 0.07306
# Poissons Ratio (z) = 0.41989 0.33459
#
# Static dielectric constant tensor:
#      x y z
#    x 1.794390 0.000000 0.000000 
#    y 0.000000 1.737420 0.000000 
#    z 0.000000 0.000000 1.680110 
# 
# From -- ./inp_files/7223.got.cif
#   From: 2010.05.17/outbox.cif.g08.bks.cpg/sg65_4_cif.got.tgz:7223.got - 2010.06.03 17:01:31.
