data_PCOD9488877
_publ_section_title
;
Structure prediction by ZEFSAII (Michael W. Deem and Ramdas Pophale) SiO2 
 PCOD9488877
Probable space group: C M M M
;
_chemical_formula_sum "Si O2"
_cell_formula_units_Z 116
_cell_length_a 30.855774
_cell_length_b 25.054413
_cell_length_c 7.940251
_cell_angle_alpha 90.000000
_cell_angle_beta 90.000000
_cell_angle_gamma 90.000000
_cell_volume 6138.396085
_symmetry_space_group_name_H-M "C M M M"
_symmetry_group_IT_number 65
_symmetry_cell_setting 'orthorhombic'
loop_
_space_group_symop_operation_xyz
x,y,z
-x,-y,z
x,-y,-z
-x,y,-z
-x,-y,-z
x,y,-z
-x,y,z
x,-y,z
1/2+x,1/2+y,z
1/2-x,1/2-y,z
1/2+x,1/2-y,-z
1/2-x,1/2+y,-z
1/2-x,1/2-y,-z
1/2+x,1/2+y,-z
1/2-x,1/2+y,z
1/2+x,1/2-y,z
loop_
_atom_site_type_symbol
_atom_site_label
_atom_site_fract_x
_atom_site_fract_y
_atom_site_fract_z
Si Si1 0.639711 0.163214 0.301670
Si Si2 0.188015 0.767331 0.189749
Si Si3 0.189667 0.560657 0.701095
Si Si4 0.548090 0.673722 0.697016
Si Si5 0.366991 0.628471 0.804285
Si Si6 0.451080 0.794232 0.803208
Si Si7 0.785702 0.937903 0.796651
Si Si8 0.250000 0.250000 0.500000
O O1 0.651444 0.168177 0.500000
O O2 0.666730 0.209041 0.207758
O O3 0.655405 0.105057 0.241017
O O4 0.588904 0.175403 0.281733
O O5 0.150692 0.811318 0.205533
O O6 0.219465 0.775085 0.347786
O O7 0.206276 0.774745 0.000000
O O8 0.184832 0.556721 0.500000
O O9 0.185418 0.500000 0.770523
O O10 0.238517 0.580969 0.736161
O O11 0.548130 0.687036 0.500000
O O12 0.500000 0.654878 0.745639
O O13 0.585521 0.630968 0.727502
O O14 0.555780 0.730412 0.787574
O O15 0.327971 0.592841 0.732367
O O16 0.371756 0.613552 0.000000
O O17 0.500000 0.805032 0.737578
O O18 0.450142 0.808133 0.000000
O O19 0.788725 0.000000 0.750140
O O20 0.785218 0.933409 0.000000
#
# Coordination Sequence:
#
# PCOD9488877 Si02
#       8
#    16  16  16  16  16  16  16   4
#     4  11  21  35  55  80 112 146 185 227 277 337
#     4  11  24  38  53  80 115 148 188 231 276 340
#     4   9  20  37  56  78 105 141 186 233 275 321
#     4  10  20  33  52  78 107 139 176 218 267 327
#     4  10  21  35  53  78 108 141 178 223 273 324
#     4  10  20  34  53  78 109 143 180 226 279 333
#     4   9  19  36  56  77 102 136 181 227 269 318
#     4  12  26  40  52  74 112 160 194 220 284 336
#
# _framework density 18.897444
#
# number of rings (size 3 to 8) (size 9 to 14) (size 15 to 20)
#    0.000    1.931    2.069    1.448    2.897    3.310 
#    0.000    0.000    0.000    0.828    0.000    5.793 
#    0.000    0.000    0.000    0.000    0.000    0.000 
#
# Total GULP energy -322950.365764 kJ/mol
# GULP energy per Si atom -5568.109755 kJ/mol
# Density = 1.885443 g / cm^3
# Si number density = 18.897444 Si / 1000 Ang^3
#
#
#
# Elastic Constant Matrix: (Units=GPa)
#
#
# Indices 1 2 3 4 5 6 
#
# 1 71.5177 19.1532 0.6055 0.0000 0.0000 0.0000
# 2 19.1532 46.8166 -2.9992 0.0000 0.0000 0.0000
# 3 0.6055 -2.9992 64.5558 0.0000 0.0000 0.0000
# 4 0.0000 0.0000 0.0000 5.4198 0.0000 0.0000
# 5 0.0000 0.0000 0.0000 0.0000 33.9378 0.0000
# 6 0.0000 0.0000 0.0000 0.0000 0.0000 34.5661
#
#
#
# Elastic Compliance Matrix: (Units=1/GPa)
#
#
# Indices 1 2 3 4 5 6 
#
# 1 0.015716 -0.006458 -0.000447 0.000000 0.000000 0.000000
# 2 -0.006458 0.024078 0.001179 0.000000 0.000000 0.000000
# 3 -0.000447 0.001179 0.015549 0.000000 0.000000 0.000000
# 4 0.000000 0.000000 0.000000 0.184510 0.000000 0.000000
# 5 0.000000 0.000000 0.000000 0.000000 0.029466 0.000000
# 6 0.000000 0.000000 0.000000 0.000000 0.000000 0.028930
#
#
# Mechanical properties :
#
#
# Convention : Reuss Voigt Hill
#
# Bulk Modulus (GPa) = 22.78421 24.04546 23.41483
# Shear Modulus (GPa) = 15.41632 25.86011 20.63822
#
# Velocity S-wave (km/s) = 2.85930 3.70326 3.30830
# Velocity P-wave (km/s) = 4.79414 5.57112 5.19717
#
# Compressibility (1/GPa) = 0.04389005
#
# Stress axis : x y z
#
# Youngs Moduli (GPa) = 63.62968 41.53229 64.31094
#
# Poissons Ratio (x) = 0.26823 0.02878
# Poissons Ratio (y) = 0.41094 -0.07584
# Poissons Ratio (z) = 0.02847 -0.04898
#
# Static dielectric constant tensor:
#      x y z
#    x 1.705890 0.000000 0.000000 
#    y 0.000000 1.656900 0.000000 
#    z 0.000000 0.000000 1.670480 
# 
# From -- ./inp_files/18973.got.cif
#   From: 2010.05.17/outbox.cif.g08.bks.cpg/sg65_10_cif.got.tgz:18973.got - 2010.06.03 17:01:31.
