data_PCOD9488330
_publ_section_title
;
Structure prediction by ZEFSAII (Michael W. Deem and Ramdas Pophale) SiO2 
 PCOD9488330
Probable space group: C M M M
;
_chemical_formula_sum "Si O2"
_cell_formula_units_Z 64
_cell_length_a 22.852552
_cell_length_b 17.294632
_cell_length_c 7.432993
_cell_angle_alpha 90.000000
_cell_angle_beta 90.000000
_cell_angle_gamma 90.000000
_cell_volume 2937.715638
_symmetry_space_group_name_H-M "C M M M"
_symmetry_group_IT_number 65
_symmetry_cell_setting 'orthorhombic'
loop_
_space_group_symop_operation_xyz
x,y,z
-x,-y,z
x,-y,-z
-x,y,-z
-x,-y,-z
x,y,-z
-x,y,z
x,-y,z
1/2+x,1/2+y,z
1/2-x,1/2-y,z
1/2+x,1/2-y,-z
1/2-x,1/2+y,-z
1/2-x,1/2-y,-z
1/2+x,1/2+y,-z
1/2-x,1/2+y,z
1/2+x,1/2-y,z
loop_
_atom_site_type_symbol
_atom_site_label
_atom_site_fract_x
_atom_site_fract_y
_atom_site_fract_z
Si Si1 0.859051 0.351102 0.719743
Si Si2 0.732849 0.589333 0.280247
Si Si3 0.000000 0.087556 0.786510
Si Si4 0.067249 0.500000 0.719850
Si Si5 0.618592 0.320350 0.286512
O O1 0.860359 0.351884 0.500000
O O2 0.791995 0.366758 0.773129
O O3 0.898748 0.423010 0.778055
O O4 0.881248 0.267554 0.782063
O O5 0.732230 0.588753 0.500000
O O6 0.734956 0.500000 0.223422
O O7 0.674073 0.631377 0.216722
O O8 0.941728 0.134346 0.737754
O O9 0.000000 0.000000 0.711720
O O10 0.000000 0.081355 0.000000
O O11 0.067922 0.500000 0.500000
O O12 0.000000 0.500000 0.776588
O O13 0.627998 0.313968 0.500000
#
# Coordination Sequence:
#
# PCOD9488330 Si02
#       5
#    16  16   8   8  16
#     4   9  16  27  44  73 112 145 172 209 259 310
#     4   9  15  26  45  73 110 145 171 208 263 312
#     4  11  25  43  57  72 101 140 176 209 261 325
#     4   9  16  24  38  64 108 153 178 201 249 314
#     4  10  20  32  54  83 107 132 174 225 265 301
#
# _framework density 21.785634000000002
#
# number of rings (size 3 to 8) (size 9 to 14) (size 15 to 20)
#    0.000    2.500    1.250    1.875    1.750    5.000 
#    0.000    0.000    0.000    3.000    0.000    1.750 
#    0.000    0.000    0.000    0.000    0.000    0.000 
#
# Total GULP energy -178821.227363 kJ/mol
# GULP energy per Si atom -5588.163355 kJ/mol
# Density = 2.173605 g / cm^3
# Si number density = 21.785634 Si / 1000 Ang^3
#
#
#
# Elastic Constant Matrix: (Units=GPa)
#
#
# Indices 1 2 3 4 5 6 
#
# 1 215.4493 133.6121 -7.9919 0.0000 0.0000 0.0000
# 2 133.6121 240.1508 2.4029 0.0000 0.0000 0.0000
# 3 -7.9919 2.4029 65.0877 0.0000 0.0000 0.0000
# 4 0.0000 0.0000 0.0000 -33.1125 0.0000 0.0000
# 5 0.0000 0.0000 0.0000 0.0000 -55.9961 0.0000
# 6 0.0000 0.0000 0.0000 0.0000 0.0000 29.9750
#
#
#
# Elastic Compliance Matrix: (Units=1/GPa)
#
#
# Indices 1 2 3 4 5 6 
#
# 1 0.007154 -0.003991 0.001026 0.000000 0.000000 0.000000
# 2 -0.003991 0.006392 -0.000726 0.000000 0.000000 0.000000
# 3 0.001026 -0.000726 0.015517 0.000000 0.000000 0.000000
# 4 0.000000 0.000000 0.000000 -0.030200 0.000000 0.000000
# 5 0.000000 0.000000 0.000000 0.000000 -0.017858 0.000000
# 6 0.000000 0.000000 0.000000 0.000000 0.000000 0.033361
#
#
# Mechanical properties :
#
#
# Convention : Reuss Voigt Hill
#
# Bulk Modulus (GPa) = 46.12371 86.30377 66.21374
# Shear Modulus (GPa) = 172.56794 14.35093 93.45943
#
# Velocity S-wave (km/s) = 8.90976 2.56936 6.55688
# Velocity P-wave (km/s) = 11.27220 6.96442 9.36925
#
# Compressibility (1/GPa) = 0.02168082
#
# Stress axis : x y z
#
# Youngs Moduli (GPa) = 139.77433 156.45467 64.44697
#
# Poissons Ratio (x) = 0.62437 -0.06611
# Poissons Ratio (y) = 0.55780 0.04679
# Poissons Ratio (z) = -0.14338 0.11358
#
# Static dielectric constant tensor:
#      x y z
#    x 2.015260 0.000000 0.000000 
#    y 0.000000 1.769130 0.000000 
#    z 0.000000 0.000000 1.842580 
# 
# From -- ./inp_files/6768.got.cif
#   From: 2010.05.17/outbox.cif.g08.bks.cpg/sg65_4_cif.got.tgz:6768.got - 2010.06.03 17:01:31.
