data_PCOD9488902
_publ_section_title
;
Structure prediction by ZEFSAII (Michael W. Deem and Ramdas Pophale) SiO2 
 PCOD9488902
Probable space group: C M M M
;
_chemical_formula_sum "Si O2"
_cell_formula_units_Z 88
_cell_length_a 20.770223
_cell_length_b 15.601541
_cell_length_c 13.337175
_cell_angle_alpha 90.000000
_cell_angle_beta 90.000000
_cell_angle_gamma 90.000000
_cell_volume 4321.878025
_symmetry_space_group_name_H-M "C M M M"
_symmetry_group_IT_number 65
_symmetry_cell_setting 'orthorhombic'
loop_
_space_group_symop_operation_xyz
x,y,z
-x,-y,z
x,-y,-z
-x,y,-z
-x,-y,-z
x,y,-z
-x,y,z
x,-y,z
1/2+x,1/2+y,z
1/2-x,1/2-y,z
1/2+x,1/2-y,-z
1/2-x,1/2+y,-z
1/2-x,1/2-y,-z
1/2+x,1/2+y,-z
1/2-x,1/2+y,z
1/2+x,1/2-y,z
loop_
_atom_site_type_symbol
_atom_site_label
_atom_site_fract_x
_atom_site_fract_y
_atom_site_fract_z
Si Si1 0.073632 0.102896 0.184377
Si Si2 0.811234 0.603220 0.000000
Si Si3 0.250000 0.250000 0.679347
Si Si4 0.337618 0.395167 0.000000
Si Si5 0.884503 0.183605 0.391206
Si Si6 0.426882 0.874455 0.612492
Si Si7 0.177082 0.597522 0.218643
O O1 0.122980 0.133188 0.098453
O O2 0.097537 0.129351 0.294227
O O3 0.000000 0.133312 0.167898
O O4 0.072409 0.000000 0.177968
O O5 0.736653 0.633309 0.000000
O O6 0.842853 0.625235 0.106302
O O7 0.809990 0.500000 0.000000
O O8 0.189042 0.216460 0.617348
O O9 0.226725 0.331213 0.743768
O O10 0.336604 0.500000 0.000000
O O11 0.894948 0.142038 0.500000
O O12 0.924905 0.271265 0.386344
O O13 0.404665 0.899794 0.500000
O O14 0.500000 0.903002 0.625779
O O15 0.380431 0.903007 0.701263
O O16 0.204131 0.500000 0.214831
#
# Coordination Sequence:
#
# PCOD9488902 Si02
#       7
#    16   8   8   8  16  16  16
#     4  10  20  33  52  79 109 144 186 229 276 332
#     4   9  18  34  56  81 113 149 182 224 282 336
#     4  10  21  37  58  82 110 149 193 230 276 334
#     4   9  17  32  52  73 103 144 188 231 271 319
#     4  10  20  35  54  77 109 145 180 226 283 337
#     4   9  19  37  59  80 105 143 189 232 275 325
#     4  10  21  37  57  84 115 145 183 232 280 331
#
# _framework density 20.361519000000001
#
# number of rings (size 3 to 8) (size 9 to 14) (size 15 to 20)
#    0.000    2.364    0.000    2.182    0.000    6.545 
#    0.000    5.909    0.000    1.636    0.000    0.000 
#    0.000    0.000    0.000    0.000    0.000    0.000 
#
# Total GULP energy -245482.342728 kJ/mol
# GULP energy per Si atom -5579.144153 kJ/mol
# Density = 2.031517 g / cm^3
# Si number density = 20.361519 Si / 1000 Ang^3
#
#
#
# Elastic Constant Matrix: (Units=GPa)
#
#
# Indices 1 2 3 4 5 6 
#
# 1 81.6699 9.9035 51.3086 0.0000 0.0000 0.0000
# 2 9.9035 41.9607 25.3155 0.0000 0.0000 0.0000
# 3 51.3086 25.3155 189.6031 0.0000 0.0000 0.0000
# 4 0.0000 0.0000 0.0000 24.6820 0.0000 0.0000
# 5 0.0000 0.0000 0.0000 0.0000 16.9931 0.0000
# 6 0.0000 0.0000 0.0000 0.0000 0.0000 5.8933
#
#
#
# Elastic Compliance Matrix: (Units=1/GPa)
#
#
# Indices 1 2 3 4 5 6 
#
# 1 0.014805 -0.001172 -0.003850 0.000000 0.000000 0.000000
# 2 -0.001172 0.026012 -0.003156 0.000000 0.000000 0.000000
# 3 -0.003850 -0.003156 0.006737 0.000000 0.000000 0.000000
# 4 0.000000 0.000000 0.000000 0.040515 0.000000 0.000000
# 5 0.000000 0.000000 0.000000 0.000000 0.058848 0.000000
# 6 0.000000 0.000000 0.000000 0.000000 0.000000 0.169685
#
#
# Mechanical properties :
#
#
# Convention : Reuss Voigt Hill
#
# Bulk Modulus (GPa) = 32.05148 54.03210 43.04179
# Shear Modulus (GPa) = 14.56205 24.62741 19.59473
#
# Velocity S-wave (km/s) = 2.67718 3.48157 3.10553
# Velocity P-wave (km/s) = 5.03307 6.53879 5.83470
#
# Compressibility (1/GPa) = 0.03119981
#
# Stress axis : x y z
#
# Youngs Moduli (GPa) = 67.54372 38.44308 148.42446
#
# Poissons Ratio (x) = 0.04504 0.57144
# Poissons Ratio (y) = 0.07913 0.46845
# Poissons Ratio (z) = 0.26005 0.12133
#
# Static dielectric constant tensor:
#      x y z
#    x 1.720550 0.000000 0.000000 
#    y 0.000000 1.745030 0.000000 
#    z 0.000000 0.000000 1.739680 
# 
# From -- ./inp_files/28762.got.cif
#   From: 2010.05.17/outbox.cif.g08.bks.cpg/sg65_15_cif.got.tgz:28762.got - 2010.06.03 17:01:31.
