data_PCOD9488213
_publ_section_title
;
Structure prediction by ZEFSAII (Michael W. Deem and Ramdas Pophale) SiO2 
 PCOD9488213
Probable space group: C M M M
;
_chemical_formula_sum "Si O2"
_cell_formula_units_Z 88
_cell_length_a 31.690577
_cell_length_b 18.387616
_cell_length_c 7.883605
_cell_angle_alpha 90.000000
_cell_angle_beta 90.000000
_cell_angle_gamma 90.000000
_cell_volume 4593.888271
_symmetry_space_group_name_H-M "C M M M"
_symmetry_group_IT_number 65
_symmetry_cell_setting 'orthorhombic'
loop_
_space_group_symop_operation_xyz
x,y,z
-x,-y,z
x,-y,-z
-x,y,-z
-x,-y,-z
x,y,-z
-x,y,z
x,-y,z
1/2+x,1/2+y,z
1/2-x,1/2-y,z
1/2+x,1/2-y,-z
1/2-x,1/2+y,-z
1/2-x,1/2-y,-z
1/2+x,1/2+y,-z
1/2-x,1/2+y,z
1/2+x,1/2-y,z
loop_
_atom_site_type_symbol
_atom_site_label
_atom_site_fract_x
_atom_site_fract_y
_atom_site_fract_z
Si Si1 0.089680 0.861108 0.303098
Si Si2 0.616336 0.200823 0.706849
Si Si3 0.500000 0.413365 0.804157
Si Si4 0.796480 0.762279 0.700419
Si Si5 0.452221 0.084314 0.707079
Si Si6 0.173760 0.079626 0.196037
O O1 0.102199 0.865479 0.500000
O O2 0.094711 0.777562 0.249047
O O3 0.123182 0.910423 0.205419
O O4 0.042219 0.885362 0.281440
O O5 0.617741 0.195852 0.500000
O O6 0.664736 0.212523 0.767244
O O7 0.586050 0.135728 0.766086
O O8 0.500000 0.500000 0.797696
O O9 0.500000 0.390015 0.000000
O O10 0.794355 0.746081 0.500000
O O11 0.750000 0.750000 0.774688
O O12 0.808467 0.847207 0.720102
O O13 0.452027 0.086388 0.500000
O O14 0.500000 0.106986 0.758898
O O15 0.446372 0.000000 0.756626
O O16 0.185052 0.000000 0.267871
O O17 0.186824 0.081165 0.000000
#
# Coordination Sequence:
#
# PCOD9488213 Si02
#       6
#    16  16   8  16  16  16
#     4  10  20  32  49  71  95 128 166 205 246 291
#     4   8  15  27  43  65  93 123 155 195 239 286
#     4  11  23  35  45  63  96 131 162 202 247 289
#     4   9  18  33  51  72  99 129 163 206 254 299
#     4   8  13  21  36  60  91 124 152 184 233 290
#     4  10  20  34  52  73  98 129 165 205 250 301
#
# _framework density 19.155887
#
# number of rings (size 3 to 8) (size 9 to 14) (size 15 to 20)
#    0.000    2.818    0.000    3.545    1.273    4.727 
#    0.000    0.909    0.000    3.273    0.000    0.000 
#    0.000   13.818    0.000    0.000    0.000    0.000 
#
# Total GULP energy -245153.214573 kJ/mol
# GULP energy per Si atom -5571.663968 kJ/mol
# Density = 1.911229 g / cm^3
# Si number density = 19.155887 Si / 1000 Ang^3
#
#
#
# Elastic Constant Matrix: (Units=GPa)
#
#
# Indices 1 2 3 4 5 6 
#
# 1 153.3725 70.3865 1.8991 0.0000 0.0000 0.0000
# 2 70.3865 92.7097 3.2698 0.0000 0.0000 0.0000
# 3 1.8991 3.2698 20.1516 0.0000 0.0000 0.0000
# 4 0.0000 0.0000 0.0000 21.3385 0.0000 0.0000
# 5 0.0000 0.0000 0.0000 0.0000 2.0233 0.0000
# 6 0.0000 0.0000 0.0000 0.0000 0.0000 8.4004
#
#
#
# Elastic Compliance Matrix: (Units=1/GPa)
#
#
# Indices 1 2 3 4 5 6 
#
# 1 0.010008 -0.007609 0.000291 0.000000 0.000000 0.000000
# 2 -0.007609 0.016633 -0.001982 0.000000 0.000000 0.000000
# 3 0.000291 -0.001982 0.049918 0.000000 0.000000 0.000000
# 4 0.000000 0.000000 0.000000 0.046864 0.000000 0.000000
# 5 0.000000 0.000000 0.000000 0.000000 0.494239 0.000000
# 6 0.000000 0.000000 0.000000 0.000000 0.000000 0.119041
#
#
# Mechanical properties :
#
#
# Convention : Reuss Voigt Hill
#
# Bulk Modulus (GPa) = 17.25301 46.37162 31.81232
# Shear Modulus (GPa) = 6.45476 19.06434 12.75955
#
# Velocity S-wave (km/s) = 1.83764 3.15813 2.58367
# Velocity P-wave (km/s) = 3.67814 6.12850 5.05407
#
# Compressibility (1/GPa) = 0.05796089
#
# Stress axis : x y z
#
# Youngs Moduli (GPa) = 99.91700 60.12176 20.03289
#
# Poissons Ratio (x) = 0.45745 -0.00584
# Poissons Ratio (y) = 0.76024 0.03970
# Poissons Ratio (z) = -0.02912 0.11915
#
# Static dielectric constant tensor:
#      x y z
#    x 1.679900 0.000000 0.000000 
#    y 0.000000 1.653330 0.000000 
#    z 0.000000 0.000000 1.700130 
# 
# From -- ./inp_files/18348.got.cif
#   From: 2010.05.17/outbox.cif.g08.bks.cpg/sg65_10_cif.got.tgz:18348.got - 2010.06.03 17:01:31.
