data_PCOD9488503
_publ_section_title
;
Structure prediction by ZEFSAII (Michael W. Deem and Ramdas Pophale) SiO2 
 PCOD9488503
Probable space group: C M M M
;
_chemical_formula_sum "Si O2"
_cell_formula_units_Z 88
_cell_length_a 8.857732
_cell_length_b 28.354142
_cell_length_c 19.351272
_cell_angle_alpha 90.000000
_cell_angle_beta 90.000000
_cell_angle_gamma 90.000000
_cell_volume 4860.137582
_symmetry_space_group_name_H-M "C M M M"
_symmetry_group_IT_number 65
_symmetry_cell_setting 'orthorhombic'
loop_
_space_group_symop_operation_xyz
x,y,z
-x,-y,z
x,-y,-z
-x,y,-z
-x,-y,-z
x,y,-z
-x,y,z
x,-y,z
1/2+x,1/2+y,z
1/2-x,1/2-y,z
1/2+x,1/2-y,-z
1/2-x,1/2+y,-z
1/2-x,1/2-y,-z
1/2+x,1/2+y,-z
1/2-x,1/2+y,z
1/2+x,1/2-y,z
loop_
_atom_site_type_symbol
_atom_site_label
_atom_site_fract_x
_atom_site_fract_y
_atom_site_fract_z
Si Si1 0.681719 0.891063 0.079625
Si Si2 0.680031 0.900171 0.418941
Si Si3 0.180964 0.142825 0.291854
Si Si4 0.319203 0.199908 0.170726
Si Si5 0.829424 0.000000 0.416399
Si Si6 0.318460 0.552588 0.799525
O O1 0.500000 0.895347 0.082251
O O2 0.721217 0.841228 0.115979
O O3 0.753763 0.931625 0.126603
O O4 0.729508 0.892514 0.000000
O O5 0.715695 0.892574 0.500000
O O6 0.500000 0.900178 0.411132
O O7 0.754850 0.862095 0.368648
O O8 0.744876 0.951761 0.398964
O O9 0.252191 0.183269 0.244320
O O10 0.225575 0.093749 0.253550
O O11 0.000000 0.146652 0.292289
O O12 0.500000 0.202770 0.174682
O O13 0.250000 0.250000 0.151018
O O14 0.838995 0.000000 0.500000
O O15 0.000000 0.000000 0.387522
O O16 0.500000 0.552732 0.802616
O O17 0.268010 0.500000 0.780028
#
# Coordination Sequence:
#
# PCOD9488503 Si02
#       6
#    16  16  16  16   8  16
#     4   9  19  35  53  76 106 137 171 212 256 307
#     4  10  20  33  49  73 106 140 175 218 266 313
#     4  10  20  34  54  77 103 137 178 219 262 313
#     4  10  20  36  57  79 105 134 169 213 264 317
#     4   9  17  29  45  67  97 135 176 213 252 301
#     4   9  19  34  50  72 103 139 178 218 257 299
#
# _framework density 18.106483999999998
#
# number of rings (size 3 to 8) (size 9 to 14) (size 15 to 20)
#    0.000    2.455    0.000    1.909    1.273    5.091 
#    0.000    1.818    0.000    0.545    0.000    0.000 
#    0.000    0.000    0.000    0.000    0.000    0.000 
#
# Total GULP energy -245533.697932 kJ/mol
# GULP energy per Si atom -5580.311317 kJ/mol
# Density = 1.806527 g / cm^3
# Si number density = 18.106484 Si / 1000 Ang^3
#
#
#
# Elastic Constant Matrix: (Units=GPa)
#
#
# Indices 1 2 3 4 5 6 
#
# 1 32.4264 3.6271 16.2637 0.0000 0.0000 0.0000
# 2 3.6271 38.6530 -10.4485 0.0000 0.0000 0.0000
# 3 16.2637 -10.4485 66.7590 0.0000 0.0000 0.0000
# 4 0.0000 0.0000 0.0000 15.1522 0.0000 0.0000
# 5 0.0000 0.0000 0.0000 0.0000 26.2951 0.0000
# 6 0.0000 0.0000 0.0000 0.0000 0.0000 28.7068
#
#
#
# Elastic Compliance Matrix: (Units=1/GPa)
#
#
# Indices 1 2 3 4 5 6 
#
# 1 0.036450 -0.006078 -0.009831 0.000000 0.000000 0.000000
# 2 -0.006078 0.028028 0.005867 0.000000 0.000000 0.000000
# 3 -0.009831 0.005867 0.018293 0.000000 0.000000 0.000000
# 4 0.000000 0.000000 0.000000 0.065997 0.000000 0.000000
# 5 0.000000 0.000000 0.000000 0.000000 0.038030 0.000000
# 6 0.000000 0.000000 0.000000 0.000000 0.000000 0.034835
#
#
# Mechanical properties :
#
#
# Convention : Reuss Voigt Hill
#
# Bulk Modulus (GPa) = 15.95237 17.41367 16.68302
# Shear Modulus (GPa) = 19.03958 22.59054 20.81506
#
# Velocity S-wave (km/s) = 3.24625 3.53604 3.39424
# Velocity P-wave (km/s) = 4.78334 5.12930 4.95933
#
# Compressibility (1/GPa) = 0.06268659
#
# Stress axis : x y z
#
# Youngs Moduli (GPa) = 27.43499 35.67920 54.66700
#
# Poissons Ratio (x) = 0.21685 0.53744
# Poissons Ratio (y) = 0.16675 -0.32075
# Poissons Ratio (z) = 0.26972 -0.20934
#
# Static dielectric constant tensor:
#      x y z
#    x 1.604690 0.000000 0.000000 
#    y 0.000000 1.611080 0.000000 
#    z 0.000000 0.000000 1.633640 
# 
# From -- ./inp_files/50435.got.cif
#   From: 2010.05.17/outbox.cif.g08.bks.cpg/sg65_26_cif.got.tgz:50435.got - 2010.06.03 17:01:31.
