data_PCOD9488690
_publ_section_title
;
Structure prediction by ZEFSAII (Michael W. Deem and Ramdas Pophale) SiO2 
 PCOD9488690
Probable space group: C M M M
;
_chemical_formula_sum "Si O2"
_cell_formula_units_Z 128
_cell_length_a 17.390014
_cell_length_b 22.582229
_cell_length_c 18.244211
_cell_angle_alpha 90.000000
_cell_angle_beta 90.000000
_cell_angle_gamma 90.000000
_cell_volume 7164.597961
_symmetry_space_group_name_H-M "C M M M"
_symmetry_group_IT_number 65
_symmetry_cell_setting 'orthorhombic'
loop_
_space_group_symop_operation_xyz
x,y,z
-x,-y,z
x,-y,-z
-x,y,-z
-x,-y,-z
x,y,-z
-x,y,z
x,-y,z
1/2+x,1/2+y,z
1/2-x,1/2-y,z
1/2+x,1/2-y,-z
1/2-x,1/2+y,-z
1/2-x,1/2-y,-z
1/2+x,1/2+y,-z
1/2-x,1/2+y,z
1/2+x,1/2-y,z
loop_
_atom_site_type_symbol
_atom_site_label
_atom_site_fract_x
_atom_site_fract_y
_atom_site_fract_z
Si Si1 0.591496 0.434669 0.305288
Si Si2 0.592191 0.336796 0.580947
Si Si3 0.200241 0.309349 0.286256
Si Si4 0.409327 0.196679 0.413193
Si Si5 0.193073 0.111208 0.816094
Si Si6 0.589725 0.181951 0.152214
Si Si7 0.590188 0.305277 0.084186
Si Si8 0.828751 0.432815 0.087489
O O1 0.500000 0.427639 0.295117
O O2 0.605089 0.500000 0.337186
O O3 0.619877 0.382548 0.358665
O O4 0.633640 0.428509 0.228322
O O5 0.624553 0.348561 0.500000
O O6 0.500000 0.345206 0.577091
O O7 0.602253 0.267589 0.597638
O O8 0.250000 0.250000 0.299880
O O9 0.154244 0.330301 0.358781
O O10 0.245951 0.143295 0.245073
O O11 0.134697 0.298390 0.225071
O O12 0.397881 0.184440 0.500000
O O13 0.500000 0.183646 0.396598
O O14 0.145809 0.159963 0.861598
O O15 0.247529 0.076250 0.871849
O O16 0.500000 0.177811 0.168412
O O17 0.602221 0.235056 0.094719
O O18 0.619341 0.119724 0.120591
O O19 0.500000 0.317020 0.101189
O O20 0.604611 0.321901 0.000000
O O21 0.856943 0.500000 0.101423
O O22 0.821935 0.425355 0.000000
#
# Coordination Sequence:
#
# PCOD9488690 Si02
#       8
#    16  16  16  16  16  16  16  16
#     4  10  20  33  51  73  98 136 182 220 255 301
#     4   8  15  28  47  71  96 124 161 207 252 289
#     4  11  20  32  49  78 108 143 172 205 258 319
#     4   9  18  33  53  76 106 143 178 212 252 304
#     4  11  21  35  51  74 109 140 171 218 265 319
#     4  10  21  36  55  80 108 136 172 220 266 316
#     4  10  20  34  54  79 105 138 177 220 270 321
#     4  10  22  38  56  76 100 136 177 219 272 325
#
# _framework density 17.865621999999998
#
# number of rings (size 3 to 8) (size 9 to 14) (size 15 to 20)
#    0.000    2.125    1.250    3.375    0.000    1.500 
#    0.000    4.375    0.000    0.000    0.000    5.250 
#    0.000    4.500    0.000   40.125    0.000    0.000 
#
# Total GULP energy -356806.844977 kJ/mol
# GULP energy per Si atom -5575.106953 kJ/mol
# Density = 1.782496 g / cm^3
# Si number density = 17.865622 Si / 1000 Ang^3
#
#
#
# Elastic Constant Matrix: (Units=GPa)
#
#
# Indices 1 2 3 4 5 6 
#
# 1 63.1124 29.1281 52.3315 0.0000 0.0000 0.0000
# 2 29.1281 44.9866 19.2986 0.0000 0.0000 0.0000
# 3 52.3315 19.2986 82.9395 0.0000 0.0000 0.0000
# 4 0.0000 0.0000 0.0000 16.8678 0.0000 0.0000
# 5 0.0000 0.0000 0.0000 0.0000 31.3721 0.0000
# 6 0.0000 0.0000 0.0000 0.0000 0.0000 13.1144
#
#
#
# Elastic Compliance Matrix: (Units=1/GPa)
#
#
# Indices 1 2 3 4 5 6 
#
# 1 0.043483 -0.018202 -0.023201 0.000000 0.000000 0.000000
# 2 -0.018202 0.032313 0.003966 0.000000 0.000000 0.000000
# 3 -0.023201 0.003966 0.025773 0.000000 0.000000 0.000000
# 4 0.000000 0.000000 0.000000 0.059284 0.000000 0.000000
# 5 0.000000 0.000000 0.000000 0.000000 0.031876 0.000000
# 6 0.000000 0.000000 0.000000 0.000000 0.000000 0.076252
#
#
# Mechanical properties :
#
#
# Convention : Reuss Voigt Hill
#
# Bulk Modulus (GPa) = 37.45938 43.61721 40.53829
# Shear Modulus (GPa) = 14.17425 18.28954 16.23189
#
# Velocity S-wave (km/s) = 2.81976 3.20305 3.01749
# Velocity P-wave (km/s) = 5.62265 6.17628 5.90595
#
# Compressibility (1/GPa) = 0.02669558
#
# Stress axis : x y z
#
# Youngs Moduli (GPa) = 22.99752 30.94738 38.80046
#
# Poissons Ratio (x) = 0.56330 0.90020
# Poissons Ratio (y) = 0.41860 -0.15388
# Poissons Ratio (z) = 0.53356 -0.12274
#
# Static dielectric constant tensor:
#      x y z
#    x 1.628860 0.000000 0.000000 
#    y 0.000000 1.600990 0.000000 
#    z 0.000000 0.000000 1.620000 
# 
# From -- ./inp_files/56278.got.cif
#   From: 2010.05.17/outbox.cif.g08.bks.cpg/sg65_29_cif.got.tgz:56278.got - 2010.06.03 17:01:31.
