data_PCOD9488253
_publ_section_title
;
Structure prediction by ZEFSAII (Michael W. Deem and Ramdas Pophale) SiO2 
 PCOD9488253
Probable space group: C M M M
;
_chemical_formula_sum "Si O2"
_cell_formula_units_Z 112
_cell_length_a 21.585463
_cell_length_b 17.829583
_cell_length_c 15.870536
_cell_angle_alpha 90.000000
_cell_angle_beta 90.000000
_cell_angle_gamma 90.000000
_cell_volume 6107.931377
_symmetry_space_group_name_H-M "C M M M"
_symmetry_group_IT_number 65
_symmetry_cell_setting 'orthorhombic'
loop_
_space_group_symop_operation_xyz
x,y,z
-x,-y,z
x,-y,-z
-x,y,-z
-x,-y,-z
x,y,-z
-x,y,z
x,-y,z
1/2+x,1/2+y,z
1/2-x,1/2-y,z
1/2+x,1/2-y,-z
1/2-x,1/2+y,-z
1/2-x,1/2-y,-z
1/2+x,1/2+y,-z
1/2-x,1/2+y,z
1/2+x,1/2-y,z
loop_
_atom_site_type_symbol
_atom_site_label
_atom_site_fract_x
_atom_site_fract_y
_atom_site_fract_z
Si Si1 0.191574 0.693625 0.094192
Si Si2 0.071570 0.297260 0.643347
Si Si3 0.425480 0.627966 0.408048
Si Si4 0.930951 0.760357 0.834572
Si Si5 0.613629 0.415818 0.226821
Si Si6 0.742051 0.911708 0.233421
Si Si7 0.178842 0.410405 0.404853
O O1 0.250000 0.750000 0.100953
O O2 0.126459 0.735221 0.108899
O O3 0.200939 0.633916 0.168041
O O4 0.193136 0.660879 0.000000
O O5 0.086939 0.216982 0.601305
O O6 0.075687 0.280857 0.743622
O O7 0.117785 0.361575 0.613753
O O8 0.000000 0.315067 0.623389
O O9 0.404647 0.601474 0.500000
O O10 0.500000 0.618993 0.403010
O O11 0.397154 0.588232 0.327291
O O12 0.924792 0.848886 0.814512
O O13 0.000000 0.744241 0.867408
O O14 0.599079 0.500000 0.197418
O O15 0.686016 0.398908 0.213041
O O16 0.726439 0.890862 0.329926
O O17 0.730205 0.000000 0.224857
O O18 0.200912 0.394597 0.500000
O O19 0.166429 0.500000 0.399803
#
# Coordination Sequence:
#
# PCOD9488253 Si02
#       7
#    16  16  16  16  16  16  16
#     4  11  22  39  65  91 114 147 191 238 286 344
#     4   9  17  31  51  72 101 145 191 234 282 337
#     4   9  18  31  47  72 106 144 191 241 283 330
#     4  10  20  36  60  87 115 147 185 234 286 340
#     4  10  20  34  54  78 110 154 192 228 284 344
#     4  10  21  38  58  82 116 155 194 238 285 336
#     4  10  20  32  49  76 110 149 192 236 282 331
#
# _framework density 18.336812999999999
#
# number of rings (size 3 to 8) (size 9 to 14) (size 15 to 20)
#    0.000    2.143    2.857    1.714    0.000    3.714 
#    0.000    2.857    0.000    3.857    0.000    2.000 
#    0.000    0.000    0.000    0.000    0.000    0.000 
#
# Total GULP energy -312396.135595 kJ/mol
# GULP energy per Si atom -5578.502421 kJ/mol
# Density = 1.829508 g / cm^3
# Si number density = 18.336813 Si / 1000 Ang^3
#
#
#
# Elastic Constant Matrix: (Units=GPa)
#
#
# Indices 1 2 3 4 5 6 
#
# 1 72.1872 23.2141 24.8738 0.0000 0.0000 0.0000
# 2 23.2141 32.2310 21.0955 0.0000 0.0000 0.0000
# 3 24.8738 21.0955 70.0683 0.0000 0.0000 0.0000
# 4 0.0000 0.0000 0.0000 14.7892 0.0000 0.0000
# 5 0.0000 0.0000 0.0000 0.0000 13.1891 0.0000
# 6 0.0000 0.0000 0.0000 0.0000 0.0000 11.7405
#
#
#
# Elastic Compliance Matrix: (Units=1/GPa)
#
#
# Indices 1 2 3 4 5 6 
#
# 1 0.018587 -0.011294 -0.003198 0.000000 0.000000 0.000000
# 2 -0.011294 0.045503 -0.009690 0.000000 0.000000 0.000000
# 3 -0.003198 -0.009690 0.018324 0.000000 0.000000 0.000000
# 4 0.000000 0.000000 0.000000 0.067617 0.000000 0.000000
# 5 0.000000 0.000000 0.000000 0.000000 0.075820 0.000000
# 6 0.000000 0.000000 0.000000 0.000000 0.000000 0.085175
#
#
# Mechanical properties :
#
#
# Convention : Reuss Voigt Hill
#
# Bulk Modulus (GPa) = 29.36873 34.76149 32.06511
# Shear Modulus (GPa) = 13.48654 14.96397 14.22526
#
# Velocity S-wave (km/s) = 2.71493 2.85978 2.78830
# Velocity P-wave (km/s) = 5.08713 5.46835 5.28118
#
# Compressibility (1/GPa) = 0.03404982
#
# Stress axis : x y z
#
# Youngs Moduli (GPa) = 53.80201 21.97671 54.57177
#
# Poissons Ratio (x) = 0.24820 0.17452
# Poissons Ratio (y) = 0.60763 0.52882
# Poissons Ratio (z) = 0.17205 0.21296
#
# Static dielectric constant tensor:
#      x y z
#    x 1.630400 0.000000 0.000000 
#    y 0.000000 1.614780 0.000000 
#    z 0.000000 0.000000 1.639860 
# 
# From -- ./inp_files/45801.got.cif
#   From: 2010.05.17/outbox.cif.g08.bks.cpg/sg65_23_cif.got.tgz:45801.got - 2010.06.03 17:01:31.
