data_PCOD9488809
_publ_section_title
;
Structure prediction by ZEFSAII (Michael W. Deem and Ramdas Pophale) SiO2 
 PCOD9488809
Probable space group: C M M M
;
_chemical_formula_sum "Si O2"
_cell_formula_units_Z 108
_cell_length_a 19.918725
_cell_length_b 23.190209
_cell_length_c 13.470543
_cell_angle_alpha 90.000000
_cell_angle_beta 90.000000
_cell_angle_gamma 90.000000
_cell_volume 6222.305083
_symmetry_space_group_name_H-M "C M M M"
_symmetry_group_IT_number 65
_symmetry_cell_setting 'orthorhombic'
loop_
_space_group_symop_operation_xyz
x,y,z
-x,-y,z
x,-y,-z
-x,y,-z
-x,-y,-z
x,y,-z
-x,y,z
x,-y,z
1/2+x,1/2+y,z
1/2-x,1/2-y,z
1/2+x,1/2-y,-z
1/2-x,1/2+y,-z
1/2-x,1/2-y,-z
1/2+x,1/2+y,-z
1/2-x,1/2+y,z
1/2+x,1/2-y,z
loop_
_atom_site_type_symbol
_atom_site_label
_atom_site_fract_x
_atom_site_fract_y
_atom_site_fract_z
Si Si1 0.419651 0.708812 0.387247
Si Si2 0.827174 0.743232 0.113891
Si Si3 0.256645 0.567373 0.885091
Si Si4 0.626817 0.640075 0.197646
Si Si5 0.000000 0.584161 0.000000
Si Si6 0.500000 0.568405 0.880465
Si Si7 0.577397 0.819202 0.737078
Si Si8 0.396972 0.933670 0.816279
O O1 0.397286 0.699602 0.500000
O O2 0.500000 0.698643 0.382333
O O3 0.385612 0.667452 0.306080
O O4 0.409210 0.775381 0.353246
O O5 0.750000 0.750000 0.148609
O O6 0.864064 0.804457 0.126683
O O7 0.870546 0.699664 0.178317
O O8 0.825292 0.724958 0.000000
O O9 0.276400 0.500000 0.883186
O O10 0.305738 0.603716 0.816100
O O11 0.180412 0.571101 0.849042
O O12 0.262364 0.587225 0.000000
O O13 0.564974 0.600532 0.163723
O O14 0.057825 0.580817 0.912213
O O15 0.500000 0.500000 0.857331
O O16 0.500000 0.574052 0.000000
O O17 0.500000 0.807879 0.767838
O O18 0.586557 0.887586 0.730422
O O19 0.410377 0.000000 0.788880
#
# Coordination Sequence:
#
# PCOD9488809 Si02
#       8
#    16  16  16  16   4   8  16  16
#     4   9  19  39  61  80 103 134 181 240 296 343
#     4  10  21  33  47  71 107 146 179 220 272 328
#     4  10  20  33  51  77 112 158 195 218 260 326
#     4  11  20  35  55  79 107 144 190 234 279 336
#     4  12  21  32  50  78 112 154 194 224 249 298
#     4  11  22  34  52  82 119 156 188 224 268 323
#     4  10  21  32  51  80 103 134 180 224 276 326
#     4  11  21  33  51  77 116 155 189 224 263 316
#
# _framework density 17.356912000000001
#
# number of rings (size 3 to 8) (size 9 to 14) (size 15 to 20)
#    0.000    1.704    2.222    3.333    2.074    2.667 
#    0.000    0.000    0.000   18.667    0.000    4.148 
#    0.000    0.000    0.000    0.000    0.000    0.000 
#
# Total GULP energy -300740.973300 kJ/mol
# GULP energy per Si atom -5569.277283 kJ/mol
# Density = 1.731741 g / cm^3
# Si number density = 17.356912 Si / 1000 Ang^3
#
#
#
# Elastic Constant Matrix: (Units=GPa)
#
#
# Indices 1 2 3 4 5 6 
#
# 1 86.2536 35.3456 32.7398 0.0000 0.0000 0.0000
# 2 35.3456 101.0646 39.8041 0.0000 0.0000 0.0000
# 3 32.7398 39.8041 85.9778 0.0000 0.0000 0.0000
# 4 0.0000 0.0000 0.0000 4.6037 0.0000 0.0000
# 5 0.0000 0.0000 0.0000 0.0000 7.1960 0.0000
# 6 0.0000 0.0000 0.0000 0.0000 0.0000 30.3613
#
#
#
# Elastic Compliance Matrix: (Units=1/GPa)
#
#
# Indices 1 2 3 4 5 6 
#
# 1 0.014523 -0.003548 -0.003888 0.000000 0.000000 0.000000
# 2 -0.003548 0.012968 -0.004653 0.000000 0.000000 0.000000
# 3 -0.003888 -0.004653 0.015265 0.000000 0.000000 0.000000
# 4 0.000000 0.000000 0.000000 0.217215 0.000000 0.000000
# 5 0.000000 0.000000 0.000000 0.000000 0.138967 0.000000
# 6 0.000000 0.000000 0.000000 0.000000 0.000000 0.032937
#
#
# Mechanical properties :
#
#
# Convention : Reuss Voigt Hill
#
# Bulk Modulus (GPa) = 53.82195 54.34168 54.08181
# Shear Modulus (GPa) = 10.81678 19.45930 15.13804
#
# Velocity S-wave (km/s) = 2.49910 3.35196 2.95644
# Velocity P-wave (km/s) = 6.27723 6.80861 6.54831
#
# Compressibility (1/GPa) = 0.01857978
#
# Stress axis : x y z
#
# Youngs Moduli (GPa) = 68.85444 77.11320 65.50811
#
# Poissons Ratio (x) = 0.27361 0.25468
# Poissons Ratio (y) = 0.24430 0.30478
# Poissons Ratio (z) = 0.26769 0.35877
#
# Static dielectric constant tensor:
#      x y z
#    x 1.592210 0.000000 0.000000 
#    y 0.000000 1.654750 0.000000 
#    z 0.000000 0.000000 1.553440 
# 
# From -- ./inp_files/29402.got.cif
#   From: 2010.05.17/outbox.cif.g08.bks.cpg/sg65_15_cif.got.tgz:29402.got - 2010.06.03 17:01:31.
