data_PCOD9488032
_publ_section_title
;
Structure prediction by ZEFSAII (Michael W. Deem and Ramdas Pophale) SiO2 
 PCOD9488032
Probable space group: C M M M
;
_chemical_formula_sum "Si O2"
_cell_formula_units_Z 120
_cell_length_a 14.343642
_cell_length_b 28.114862
_cell_length_c 16.033695
_cell_angle_alpha 90.000000
_cell_angle_beta 90.000000
_cell_angle_gamma 90.000000
_cell_volume 6465.900413
_symmetry_space_group_name_H-M "C M M M"
_symmetry_group_IT_number 65
_symmetry_cell_setting 'orthorhombic'
loop_
_space_group_symop_operation_xyz
x,y,z
-x,-y,z
x,-y,-z
-x,y,-z
-x,-y,-z
x,y,-z
-x,y,z
x,-y,z
1/2+x,1/2+y,z
1/2-x,1/2-y,z
1/2+x,1/2-y,-z
1/2-x,1/2+y,-z
1/2-x,1/2-y,-z
1/2+x,1/2+y,-z
1/2-x,1/2+y,z
1/2+x,1/2-y,z
loop_
_atom_site_type_symbol
_atom_site_label
_atom_site_fract_x
_atom_site_fract_y
_atom_site_fract_z
Si Si1 0.113757 0.734166 0.595679
Si Si2 0.109448 0.448731 0.769334
Si Si3 0.888880 0.848914 0.097202
Si Si4 0.271923 0.913654 0.093252
Si Si5 0.613731 0.053776 0.500000
Si Si6 0.611161 0.184111 0.093849
Si Si7 0.612614 0.127277 0.639548
Si Si8 0.386888 0.734719 0.776541
O O1 0.141589 0.747261 0.500000
O O2 0.144836 0.679756 0.615474
O O3 0.142692 0.763356 0.679130
O O4 0.000000 0.734736 0.594900
O O5 0.118195 0.500000 0.722243
O O6 0.177390 0.449178 0.846390
O O7 0.133931 0.398599 0.725631
O O8 0.000000 0.445643 0.791173
O O9 0.831779 0.896603 0.115329
O O10 0.860394 0.809794 0.165691
O O11 0.000000 0.854606 0.101701
O O12 0.866826 0.835256 0.000000
O O13 0.332348 0.864673 0.094553
O O14 0.271677 0.932202 0.000000
O O15 0.500000 0.051804 0.500000
O O16 0.643089 0.086184 0.576703
O O17 0.647668 0.000000 0.500000
O O18 0.500000 0.175018 0.103181
O O19 0.640008 0.218827 0.169228
O O20 0.623327 0.205689 0.000000
O O21 0.500000 0.130217 0.634681
O O22 0.500000 0.735263 0.774829
#
# Coordination Sequence:
#
# PCOD9488032 Si02
#       8
#    16  16  16  16   8  16  16  16
#     4   9  15  23  37  61  92 125 161 198 231 274
#     4  10  20  32  47  70  99 128 158 190 224 273
#     4   9  18  33  51  70  90 113 152 207 255 290
#     4  10  20  32  47  67  91 123 157 189 234 287
#     4   9  14  20  34  56  82 115 159 205 239 268
#     4   9  16  26  41  64  93 121 152 189 226 273
#     4   9  15  25  39  59  90 126 162 196 229 265
#     4   9  16  26  42  64  91 122 155 195 244 283
#
# _framework density 18.558900000000001
#
# number of rings (size 3 to 8) (size 9 to 14) (size 15 to 20)
#    0.000    2.733    0.667    2.000    0.000    6.933 
#    0.000    2.667    0.000    0.400    1.733    3.733 
#    0.000    0.000    0.000    0.000    0.000    2.933 
#
# Total GULP energy -334042.897957 kJ/mol
# GULP energy per Si atom -5567.381633 kJ/mol
# Density = 1.851666 g / cm^3
# Si number density = 18.558900 Si / 1000 Ang^3
#
#
#
# Elastic Constant Matrix: (Units=GPa)
#
#
# Indices 1 2 3 4 5 6 
#
# 1 40.2290 -1.3403 19.9943 0.0000 0.0000 0.0000
# 2 -1.3403 22.3145 36.3577 0.0000 0.0000 0.0000
# 3 19.9943 36.3577 118.0862 0.0000 0.0000 0.0000
# 4 0.0000 0.0000 0.0000 35.3512 0.0000 0.0000
# 5 0.0000 0.0000 0.0000 0.0000 0.9885 0.0000
# 6 0.0000 0.0000 0.0000 0.0000 0.0000 10.4166
#
#
#
# Elastic Compliance Matrix: (Units=1/GPa)
#
#
# Indices 1 2 3 4 5 6 
#
# 1 0.031456 0.021205 -0.011855 0.000000 0.000000 0.000000
# 2 0.021205 0.104221 -0.035679 0.000000 0.000000 0.000000
# 3 -0.011855 -0.035679 0.021461 0.000000 0.000000 0.000000
# 4 0.000000 0.000000 0.000000 0.028288 0.000000 0.000000
# 5 0.000000 0.000000 0.000000 0.000000 1.011585 0.000000
# 6 0.000000 0.000000 0.000000 0.000000 0.000000 0.096000
#
#
# Mechanical properties :
#
#
# Convention : Reuss Voigt Hill
#
# Bulk Modulus (GPa) = 9.57120 32.29477 20.93299
# Shear Modulus (GPa) = 3.62189 17.72582 10.67385
#
# Velocity S-wave (km/s) = 1.39850 3.09384 2.40080
# Velocity P-wave (km/s) = 2.78857 5.49559 4.35761
#
# Compressibility (1/GPa) = 0.10448009
#
# Stress axis : x y z
#
# Youngs Moduli (GPa) = 31.79017 9.59503 46.59628
#
# Poissons Ratio (x) = -0.20346 0.55240
# Poissons Ratio (y) = -0.67412 1.66251
# Poissons Ratio (z) = 0.37687 0.34234
#
# Static dielectric constant tensor:
#      x y z
#    x 1.636340 0.000000 0.000000 
#    y 0.000000 1.631610 0.000000 
#    z 0.000000 0.000000 1.085430 
# 
# From -- ./inp_files/41478.got.cif
#   From: 2010.05.17/outbox.cif.g08.bks.cpg/sg65_21_cif.got.tgz:41478.got - 2010.06.03 17:01:31.
