data_PCOD9488509
_publ_section_title
;
Structure prediction by ZEFSAII (Michael W. Deem and Ramdas Pophale) SiO2 
 PCOD9488509
Probable space group: C M M M
;
_chemical_formula_sum "Si O2"
_cell_formula_units_Z 64
_cell_length_a 13.938849
_cell_length_b 14.045416
_cell_length_c 13.893268
_cell_angle_alpha 90.000000
_cell_angle_beta 90.000000
_cell_angle_gamma 90.000000
_cell_volume 2719.981395
_symmetry_space_group_name_H-M "C M M M"
_symmetry_group_IT_number 65
_symmetry_cell_setting 'orthorhombic'
loop_
_space_group_symop_operation_xyz
x,y,z
-x,-y,z
x,-y,-z
-x,y,-z
-x,-y,-z
x,y,-z
-x,y,z
x,-y,z
1/2+x,1/2+y,z
1/2-x,1/2-y,z
1/2+x,1/2-y,-z
1/2-x,1/2+y,-z
1/2-x,1/2-y,-z
1/2+x,1/2+y,-z
1/2-x,1/2+y,z
1/2+x,1/2-y,z
loop_
_atom_site_type_symbol
_atom_site_label
_atom_site_fract_x
_atom_site_fract_y
_atom_site_fract_z
Si Si1 0.385432 0.101961 0.384873
Si Si2 0.290959 0.000000 0.115311
Si Si3 0.357024 0.791178 0.108235
Si Si4 0.393707 0.295126 0.693750
Si Si5 0.382087 0.500000 0.740180
O O1 0.377177 0.102736 0.500000
O O2 0.500000 0.101888 0.361696
O O3 0.343795 0.200545 0.346273
O O4 0.347201 0.000000 0.348779
O O5 0.348966 0.097339 0.136513
O O6 0.187588 0.000000 0.167099
O O7 0.275365 0.000000 0.000000
O O8 0.250000 0.750000 0.103415
O O9 0.401615 0.728998 0.192714
O O10 0.396456 0.784062 0.000000
O O11 0.500000 0.297443 0.649027
O O12 0.357631 0.402249 0.685033
O O13 0.500000 0.500000 0.757799
#
# Coordination Sequence:
#
# PCOD9488509 Si02
#       5
#    16   8  16  16   8
#     4   8  15  30  52  76 101 130 167 209 252 303
#     4  10  20  35  51  71  99 136 180 215 252 302
#     4  10  20  34  51  72 101 139 178 211 249 303
#     4  10  20  33  52  78 106 134 169 211 257 301
#     4  10  20  33  49  75 105 135 172 213 251 297
#
# _framework density 23.529574
#
# number of rings (size 3 to 8) (size 9 to 14) (size 15 to 20)
#    0.000    2.500    2.500    0.750    1.750    0.750 
#    0.000    3.125    0.000    6.750    0.000    0.000 
#    0.000    0.000    0.000    0.000    0.000    0.000 
#
# Total GULP energy -178519.582492 kJ/mol
# GULP energy per Si atom -5578.736953 kJ/mol
# Density = 2.347602 g / cm^3
# Si number density = 23.529574 Si / 1000 Ang^3
#
#
#
# Elastic Constant Matrix: (Units=GPa)
#
#
# Indices 1 2 3 4 5 6 
#
# 1 77.6740 24.4338 0.6545 0.0000 0.0000 0.0000
# 2 24.4338 277.6493 42.2534 0.0000 0.0000 0.0000
# 3 0.6545 42.2534 29.5921 0.0000 0.0000 0.0000
# 4 0.0000 0.0000 0.0000 3.6362 0.0000 0.0000
# 5 0.0000 0.0000 0.0000 0.0000 9.9416 0.0000
# 6 0.0000 0.0000 0.0000 0.0000 0.0000 -29.9846
#
#
#
# Elastic Compliance Matrix: (Units=1/GPa)
#
#
# Indices 1 2 3 4 5 6 
#
# 1 0.013312 -0.001440 0.001761 0.000000 0.000000 0.000000
# 2 -0.001440 0.004757 -0.006761 0.000000 0.000000 0.000000
# 3 0.001761 -0.006761 0.043407 0.000000 0.000000 0.000000
# 4 0.000000 0.000000 0.000000 0.275009 0.000000 0.000000
# 5 0.000000 0.000000 0.000000 0.000000 0.100588 0.000000
# 6 0.000000 0.000000 0.000000 0.000000 0.000000 -0.033350
#
#
# Mechanical properties :
#
#
# Convention : Reuss Voigt Hill
#
# Bulk Modulus (GPa) = 20.57690 57.73320 39.15505
# Shear Modulus (GPa) = 11.55263 17.89023 14.72143
#
# Velocity S-wave (km/s) = 2.21822 2.76040 2.50403
# Velocity P-wave (km/s) = 3.91469 5.89487 5.00371
#
# Compressibility (1/GPa) = 0.04859819
#
# Stress axis : x y z
#
# Youngs Moduli (GPa) = 75.11851 210.20670 23.03757
#
# Poissons Ratio (x) = 0.30259 -0.04057
# Poissons Ratio (y) = 0.10813 0.15575
# Poissons Ratio (z) = -0.13228 1.42117
#
# Static dielectric constant tensor:
#      x y z
#    x 1.942440 0.000000 0.000000 
#    y 0.000000 1.933990 0.000000 
#    z 0.000000 0.000000 1.872840 
# 
# From -- ./inp_files/41912.got.cif
#   From: 2010.05.17/outbox.cif.g08.bks.cpg/sg65_21_cif.got.tgz:41912.got - 2010.06.03 17:01:31.
