data_PCOD9488636
_publ_section_title
;
Structure prediction by ZEFSAII (Michael W. Deem and Ramdas Pophale) SiO2 
 PCOD9488636
Probable space group: C M M M
;
_chemical_formula_sum "Si O2"
_cell_formula_units_Z 72
_cell_length_a 8.778462
_cell_length_b 32.700815
_cell_length_c 13.878055
_cell_angle_alpha 90.000000
_cell_angle_beta 90.000000
_cell_angle_gamma 90.000000
_cell_volume 3983.874185
_symmetry_space_group_name_H-M "C M M M"
_symmetry_group_IT_number 65
_symmetry_cell_setting 'orthorhombic'
loop_
_space_group_symop_operation_xyz
x,y,z
-x,-y,z
x,-y,-z
-x,y,-z
-x,-y,-z
x,y,-z
-x,y,z
x,-y,z
1/2+x,1/2+y,z
1/2-x,1/2-y,z
1/2+x,1/2-y,-z
1/2-x,1/2+y,-z
1/2-x,1/2-y,-z
1/2+x,1/2+y,-z
1/2-x,1/2+y,z
1/2+x,1/2-y,z
loop_
_atom_site_type_symbol
_atom_site_label
_atom_site_fract_x
_atom_site_fract_y
_atom_site_fract_z
Si Si1 0.816415 0.335413 0.607601
Si Si2 0.817899 0.706406 0.804855
Si Si3 0.183317 0.874691 0.107423
Si Si4 0.317325 0.583097 0.695990
Si Si5 0.182473 0.500000 0.387114
O O1 0.772757 0.321996 0.500000
O O2 0.772631 0.305202 0.694520
O O3 0.744015 0.379368 0.631616
O O4 0.000000 0.339650 0.610685
O O5 0.750000 0.750000 0.832057
O O6 0.755587 0.669224 0.868781
O O7 0.000000 0.707635 0.810546
O O8 0.226405 0.905058 0.194157
O O9 0.000000 0.870433 0.110903
O O10 0.226542 0.888213 0.000000
O O11 0.500000 0.581439 0.689462
O O12 0.247498 0.540650 0.661973
O O13 0.225365 0.500000 0.500000
O O14 0.000000 0.500000 0.380775
#
# Coordination Sequence:
#
# PCOD9488636 Si02
#       5
#    16  16  16  16   8
#     4   9  18  33  51  71 100 138 173 206 252 308
#     4  10  20  33  50  74 103 134 171 214 256 301
#     4   9  19  37  58  77 100 132 168 208 257 308
#     4  10  20  34  54  80 105 130 167 213 254 295
#     4  11  23  37  54  77 108 144 173 199 240 295
#
# _framework density 18.072861
#
# number of rings (size 3 to 8) (size 9 to 14) (size 15 to 20)
#    0.000    2.333    0.000    2.333    0.000    7.111 
#    0.000    0.556    0.000    3.333    0.000    0.000 
#    0.000    0.000    0.000    0.000    0.000    0.000 
#
# Total GULP energy -200924.076388 kJ/mol
# GULP energy per Si atom -5581.224344 kJ/mol
# Density = 1.803173 g / cm^3
# Si number density = 18.072861 Si / 1000 Ang^3
#
#
#
# Elastic Constant Matrix: (Units=GPa)
#
#
# Indices 1 2 3 4 5 6 
#
# 1 15.3793 20.4076 21.4437 0.0000 0.0000 0.0000
# 2 20.4076 95.0654 24.2795 0.0000 0.0000 0.0000
# 3 21.4437 24.2795 103.8921 0.0000 0.0000 0.0000
# 4 0.0000 0.0000 0.0000 5.3414 0.0000 0.0000
# 5 0.0000 0.0000 0.0000 0.0000 22.1172 0.0000
# 6 0.0000 0.0000 0.0000 0.0000 0.0000 20.2024
#
#
#
# Elastic Compliance Matrix: (Units=1/GPa)
#
#
# Indices 1 2 3 4 5 6 
#
# 1 0.120461 -0.020748 -0.020015 0.000000 0.000000 0.000000
# 2 -0.020748 0.014760 0.000833 0.000000 0.000000 0.000000
# 3 -0.020015 0.000833 0.013562 0.000000 0.000000 0.000000
# 4 0.000000 0.000000 0.000000 0.187217 0.000000 0.000000
# 5 0.000000 0.000000 0.000000 0.000000 0.045214 0.000000
# 6 0.000000 0.000000 0.000000 0.000000 0.000000 0.049499
#
#
# Mechanical properties :
#
#
# Convention : Reuss Voigt Hill
#
# Bulk Modulus (GPa) = 14.50872 38.51094 26.50983
# Shear Modulus (GPa) = 9.37126 19.41261 14.39193
#
# Velocity S-wave (km/s) = 2.27959 3.28095 2.82499
# Velocity P-wave (km/s) = 3.86963 5.97560 5.03398
#
# Compressibility (1/GPa) = 0.06892407
#
# Stress axis : x y z
#
# Youngs Moduli (GPa) = 8.30144 67.74970 73.73621
#
# Poissons Ratio (x) = 1.40564 1.47582
# Poissons Ratio (y) = 0.17223 -0.06142
# Poissons Ratio (z) = 0.16615 -0.05643
#
# Static dielectric constant tensor:
#      x y z
#    x 1.600320 0.000000 0.000000 
#    y 0.000000 1.569660 0.000000 
#    z 0.000000 0.000000 1.646600 
# 
# From -- ./inp_files/36603.got.cif
#   From: 2010.05.17/outbox.cif.g08.bks.cpg/sg65_19_cif.got.tgz:36603.got - 2010.06.03 17:01:31.
