data_PCOD9488413
_publ_section_title
;
Structure prediction by ZEFSAII (Michael W. Deem and Ramdas Pophale) SiO2 
 PCOD9488413
Probable space group: C M M M
;
_chemical_formula_sum "Si O2"
_cell_formula_units_Z 64
_cell_length_a 29.193790
_cell_length_b 8.216227
_cell_length_c 17.456684
_cell_angle_alpha 90.000000
_cell_angle_beta 90.000000
_cell_angle_gamma 90.000000
_cell_volume 4187.209201
_symmetry_space_group_name_H-M "C M M M"
_symmetry_group_IT_number 65
_symmetry_cell_setting 'orthorhombic'
loop_
_space_group_symop_operation_xyz
x,y,z
-x,-y,z
x,-y,-z
-x,y,-z
-x,-y,-z
x,y,-z
-x,y,z
x,-y,z
1/2+x,1/2+y,z
1/2-x,1/2-y,z
1/2+x,1/2-y,-z
1/2-x,1/2+y,-z
1/2-x,1/2-y,-z
1/2+x,1/2+y,-z
1/2-x,1/2+y,z
1/2+x,1/2-y,z
loop_
_atom_site_type_symbol
_atom_site_label
_atom_site_fract_x
_atom_site_fract_y
_atom_site_fract_z
Si Si1 0.605789 0.193064 0.649409
Si Si2 0.055151 0.692095 0.807339
Si Si3 0.551447 0.693605 0.500000
Si Si4 0.055497 0.000000 0.912444
Si Si5 0.199521 0.194077 0.412187
O O1 0.580777 0.236782 0.728465
O O2 0.578323 0.257621 0.576157
O O3 0.658060 0.249728 0.640792
O O4 0.605147 0.000000 0.644944
O O5 0.065277 0.500000 0.826511
O O6 0.000000 0.700489 0.796194
O O7 0.068051 0.831879 0.868731
O O8 0.548606 0.500000 0.500000
O O9 0.500000 0.763163 0.500000
O O10 0.000000 0.000000 0.914233
O O11 0.072102 0.000000 0.000000
O O12 0.192066 0.255896 0.500000
O O13 0.250000 0.250000 0.387986
O O14 0.198901 0.000000 0.415138
#
# Coordination Sequence:
#
# PCOD9488413 Si02
#       5
#    16  16   8   8  16
#     4  11  21  33  49  68  95 131 167 206 250 290
#     4   9  19  33  49  72 102 135 167 204 247 293
#     4  11  23  33  44  65  92 129 175 211 239 283
#     4   9  18  32  52  75  99 131 165 200 248 302
#     4  10  20  33  49  67  91 124 165 208 251 291
#
# _framework density 15.284644
#
# number of rings (size 3 to 8) (size 9 to 14) (size 15 to 20)
#    0.000    2.000    1.250    2.625    3.500    3.500 
#    0.000    2.500    0.000    0.000    0.000    0.000 
#    0.000    1.000    0.500    0.000    0.000    0.000 
#
# Total GULP energy -178406.296827 kJ/mol
# GULP energy per Si atom -5575.196776 kJ/mol
# Density = 1.524986 g / cm^3
# Si number density = 15.284644 Si / 1000 Ang^3
#
#
#
# Elastic Constant Matrix: (Units=GPa)
#
#
# Indices 1 2 3 4 5 6 
#
# 1 79.7462 31.5153 52.0582 0.0000 0.0000 0.0000
# 2 31.5153 73.1122 71.8840 0.0000 0.0000 0.0000
# 3 52.0582 71.8840 120.5979 0.0000 0.0000 0.0000
# 4 0.0000 0.0000 0.0000 -15.4006 0.0000 0.0000
# 5 0.0000 0.0000 0.0000 0.0000 1.1694 0.0000
# 6 0.0000 0.0000 0.0000 0.0000 0.0000 24.0641
#
#
#
# Elastic Compliance Matrix: (Units=1/GPa)
#
#
# Indices 1 2 3 4 5 6 
#
# 1 0.017462 -0.000280 -0.007371 0.000000 0.000000 0.000000
# 2 -0.000280 0.033046 -0.019577 0.000000 0.000000 0.000000
# 3 -0.007371 -0.019577 0.023143 0.000000 0.000000 0.000000
# 4 0.000000 0.000000 0.000000 -0.064932 0.000000 0.000000
# 5 0.000000 0.000000 0.000000 0.000000 0.855109 0.000000
# 6 0.000000 0.000000 0.000000 0.000000 0.000000 0.041556
#
#
# Mechanical properties :
#
#
# Convention : Reuss Voigt Hill
#
# Bulk Modulus (GPa) = 52.09489 64.93015 58.51252
# Shear Modulus (GPa) = 5.17471 9.83317 7.50394
#
# Velocity S-wave (km/s) = 1.84199 2.53916 2.21813
# Velocity P-wave (km/s) = 6.21941 7.15327 6.70262
#
# Compressibility (1/GPa) = 0.01919574
#
# Stress axis : x y z
#
# Youngs Moduli (GPa) = 57.26660 30.26061 43.20993
#
# Poissons Ratio (x) = 0.00847 0.31850
# Poissons Ratio (y) = 0.01604 0.84591
# Poissons Ratio (z) = 0.42211 0.59241
#
# Static dielectric constant tensor:
#      x y z
#    x -1.771040 0.000000 0.000000 
#    y 0.000000 1.527920 0.000000 
#    z 0.000000 0.000000 1.494880 
# 
# From -- ./inp_files/36322.got.cif
#   From: 2010.05.17/outbox.cif.g08.bks.cpg/sg65_19_cif.got.tgz:36322.got - 2010.06.03 17:01:31.
