data_PCOD9488275
_publ_section_title
;
Structure prediction by ZEFSAII (Michael W. Deem and Ramdas Pophale) SiO2 
 PCOD9488275
Probable space group: C M M M
;
_chemical_formula_sum "Si O2"
_cell_formula_units_Z 96
_cell_length_a 14.781026
_cell_length_b 15.796180
_cell_length_c 22.490546
_cell_angle_alpha 90.000000
_cell_angle_beta 90.000000
_cell_angle_gamma 90.000000
_cell_volume 5251.176958
_symmetry_space_group_name_H-M "C M M M"
_symmetry_group_IT_number 65
_symmetry_cell_setting 'orthorhombic'
loop_
_space_group_symop_operation_xyz
x,y,z
-x,-y,z
x,-y,-z
-x,y,-z
-x,-y,-z
x,y,-z
-x,y,z
x,-y,z
1/2+x,1/2+y,z
1/2-x,1/2-y,z
1/2+x,1/2-y,-z
1/2-x,1/2+y,-z
1/2-x,1/2-y,-z
1/2+x,1/2+y,-z
1/2-x,1/2+y,z
1/2+x,1/2-y,z
loop_
_atom_site_type_symbol
_atom_site_label
_atom_site_fract_x
_atom_site_fract_y
_atom_site_fract_z
Si Si1 0.597632 0.845030 0.726783
Si Si2 0.103896 0.198353 0.172816
Si Si3 0.155330 0.215174 0.369093
Si Si4 0.500000 0.398864 0.428783
Si Si5 0.111001 0.684377 0.068363
Si Si6 0.104366 0.500000 0.927329
Si Si7 0.210302 0.907062 0.260995
O O1 0.500000 0.886559 0.729128
O O2 0.601597 0.773730 0.778360
O O3 0.608822 0.795248 0.663959
O O4 0.681848 0.904321 0.738805
O O5 0.136759 0.240462 0.112049
O O6 0.168472 0.128397 0.200447
O O7 0.000000 0.168152 0.166464
O O8 0.250000 0.250000 0.397042
O O9 0.086748 0.156691 0.406595
O O10 0.183548 0.156035 0.313734
O O11 0.500000 0.500000 0.409437
O O12 0.500000 0.400369 0.500000
O O13 0.143747 0.591327 0.089484
O O14 0.000000 0.680812 0.069749
O O15 0.137458 0.697642 0.000000
O O16 0.000000 0.500000 0.906728
O O17 0.102404 0.500000 0.000000
O O18 0.174830 0.000000 0.273313
#
# Coordination Sequence:
#
# PCOD9488275 Si02
#       7
#    16  16  16   8  16   8  16
#     4   9  17  33  54  72  96 131 171 219 267 322
#     4   9  17  29  46  71 101 132 166 208 256 319
#     4   9  18  35  57  78 108 149 186 223 276 327
#     4  11  22  34  54  90 125 149 188 240 276 315
#     4   8  13  23  41  65  94 129 169 210 257 315
#     4   7  10  18  34  58  88 122 163 207 249 301
#     4  10  20  32  50  75 102 135 177 221 267 318
#
# _framework density 18.281616
#
# number of rings (size 3 to 8) (size 9 to 14) (size 15 to 20)
#    0.000    3.000    0.833    3.000    1.167    1.000 
#    1.500    0.000    0.000    2.500    0.000    2.333 
#    0.000    5.333    0.000    0.167    0.000    1.000 
#
# Total GULP energy -267249.098442 kJ/mol
# GULP energy per Si atom -5567.689551 kJ/mol
# Density = 1.824001 g / cm^3
# Si number density = 18.281616 Si / 1000 Ang^3
#
#
#
# Elastic Constant Matrix: (Units=GPa)
#
#
# Indices 1 2 3 4 5 6 
#
# 1 91.9418 39.1908 34.2927 0.0000 0.0000 0.0000
# 2 39.1908 79.4847 21.8766 0.0000 0.0000 0.0000
# 3 34.2927 21.8766 51.6778 0.0000 0.0000 0.0000
# 4 0.0000 0.0000 0.0000 13.9571 0.0000 0.0000
# 5 0.0000 0.0000 0.0000 0.0000 -12.5729 0.0000
# 6 0.0000 0.0000 0.0000 0.0000 0.0000 -1.0255
#
#
#
# Elastic Compliance Matrix: (Units=1/GPa)
#
#
# Indices 1 2 3 4 5 6 
#
# 1 0.016524 -0.005806 -0.008508 0.000000 0.000000 0.000000
# 2 -0.005806 0.016280 -0.003039 0.000000 0.000000 0.000000
# 3 -0.008508 -0.003039 0.026283 0.000000 0.000000 0.000000
# 4 0.000000 0.000000 0.000000 0.071648 0.000000 0.000000
# 5 0.000000 0.000000 0.000000 0.000000 -0.079536 0.000000
# 6 0.000000 0.000000 0.000000 0.000000 0.000000 -0.975134
#
#
# Mechanical properties :
#
#
# Convention : Reuss Voigt Hill
#
# Bulk Modulus (GPa) = 41.01372 45.98049 43.49711
# Shear Modulus (GPa) = -5.67471 8.58803 1.45666
#
# Velocity S-wave (km/s) = -1.76374 2.16975 0.89360
# Velocity P-wave (km/s) = 4.28198 5.61096 4.99091
#
# Compressibility (1/GPa) = 0.02438208
#
# Stress axis : x y z
#
# Youngs Moduli (GPa) = 60.51620 61.42431 38.04782
#
# Poissons Ratio (x) = 0.35663 0.32370
# Poissons Ratio (y) = 0.35136 0.11563
# Poissons Ratio (z) = 0.51485 0.18667
#
# Static dielectric constant tensor:
#      x y z
#    x 1.683440 0.000000 0.000000 
#    y 0.000000 1.632980 0.000000 
#    z 0.000000 0.000000 1.617580 
# 
# From -- ./inp_files/69912.got.cif
#   From: 2010.05.17/outbox.cif.g08.bks.cpg/sg65_35_cif.got.tgz:69912.got - 2010.06.03 17:01:31.
