data_PCOD9488039
_publ_section_title
;
Structure prediction by ZEFSAII (Michael W. Deem and Ramdas Pophale) SiO2 
 PCOD9488039
Probable space group: C M M M
;
_chemical_formula_sum "Si O2"
_cell_formula_units_Z 104
_cell_length_a 7.577263
_cell_length_b 30.950683
_cell_length_c 22.522930
_cell_angle_alpha 90.000000
_cell_angle_beta 90.000000
_cell_angle_gamma 90.000000
_cell_volume 5282.110542
_symmetry_space_group_name_H-M "C M M M"
_symmetry_group_IT_number 65
_symmetry_cell_setting 'orthorhombic'
loop_
_space_group_symop_operation_xyz
x,y,z
-x,-y,z
x,-y,-z
-x,y,-z
-x,-y,-z
x,y,-z
-x,y,z
x,-y,z
1/2+x,1/2+y,z
1/2-x,1/2-y,z
1/2+x,1/2-y,-z
1/2-x,1/2+y,-z
1/2-x,1/2-y,-z
1/2+x,1/2+y,-z
1/2-x,1/2+y,z
1/2+x,1/2-y,z
loop_
_atom_site_type_symbol
_atom_site_label
_atom_site_fract_x
_atom_site_fract_y
_atom_site_fract_z
Si Si1 0.293028 0.320393 0.434009
Si Si2 0.711754 0.701499 0.302365
Si Si3 0.212183 0.119053 0.232137
Si Si4 0.212249 0.549718 0.130148
Si Si5 0.294454 0.545013 0.312561
Si Si6 0.211914 0.421678 0.564585
Si Si7 0.299414 0.947934 0.000000
O O1 0.219179 0.308045 0.500000
O O2 0.500000 0.308555 0.435490
O O3 0.218826 0.304080 0.370652
O O4 0.277613 0.372397 0.430312
O O5 0.500000 0.695656 0.307316
O O6 0.750000 0.750000 0.282935
O O7 0.776099 0.666214 0.253928
O O8 0.251770 0.089374 0.174653
O O9 0.281402 0.087627 0.284072
O O10 0.000000 0.122746 0.232154
O O11 0.273458 0.500000 0.145826
O O12 0.000000 0.546405 0.125854
O O13 0.281418 0.561838 0.064215
O O14 0.500000 0.544301 0.295326
O O15 0.212029 0.500000 0.292700
O O16 0.282957 0.550074 0.382414
O O17 0.263476 0.438127 0.500000
O O18 0.000000 0.420821 0.568268
O O19 0.500000 0.930172 0.000000
O O20 0.311253 0.000000 0.000000
#
# Coordination Sequence:
#
# PCOD9488039 Si02
#       7
#    16  16  16  16  16  16   8
#     4   9  17  33  55  72  90 121 159 199 249 313
#     4  10  21  36  53  74  98 126 162 206 257 307
#     4  10  20  35  51  71 101 134 166 204 247 292
#     4   9  17  30  51  79 109 142 176 205 237 281
#     4  10  20  34  51  68  90 126 167 200 237 293
#     4  10  20  32  47  68  93 120 153 201 253 293
#     4   7  12  26  47  73 108 143 172 203 236 277
#
# _framework density 19.689098999999999
#
# number of rings (size 3 to 8) (size 9 to 14) (size 15 to 20)
#    0.000    2.538    1.538    1.846    0.000    4.615 
#    0.000    1.923    0.000    1.385    0.000    0.538 
#    0.000    0.000    0.000    0.000    0.000    0.000 
#
# Total GULP energy -289523.559311 kJ/mol
# GULP energy per Si atom -5567.760756 kJ/mol
# Density = 1.964429 g / cm^3
# Si number density = 19.689099 Si / 1000 Ang^3
#
#
#
# Elastic Constant Matrix: (Units=GPa)
#
#
# Indices 1 2 3 4 5 6 
#
# 1 48.6218 2.7475 2.1126 0.0000 0.0000 0.0000
# 2 2.7475 138.4755 75.6235 0.0000 0.0000 0.0000
# 3 2.1126 75.6235 142.2040 0.0000 0.0000 0.0000
# 4 0.0000 0.0000 0.0000 22.3112 0.0000 0.0000
# 5 0.0000 0.0000 0.0000 0.0000 11.1991 0.0000
# 6 0.0000 0.0000 0.0000 0.0000 0.0000 7.2483
#
#
#
# Elastic Compliance Matrix: (Units=1/GPa)
#
#
# Indices 1 2 3 4 5 6 
#
# 1 0.020592 -0.000340 -0.000125 0.000000 0.000000 0.000000
# 2 -0.000340 0.010183 -0.005410 0.000000 0.000000 0.000000
# 3 -0.000125 -0.005410 0.009911 0.000000 0.000000 0.000000
# 4 0.000000 0.000000 0.000000 0.044821 0.000000 0.000000
# 5 0.000000 0.000000 0.000000 0.000000 0.089293 0.000000
# 6 0.000000 0.000000 0.000000 0.000000 0.000000 0.137963
#
#
# Mechanical properties :
#
#
# Convention : Reuss Voigt Hill
#
# Bulk Modulus (GPa) = 34.56057 54.47425 44.51741
# Shear Modulus (GPa) = 14.96301 24.73956 19.85129
#
# Velocity S-wave (km/s) = 2.75974 3.54857 3.17872
# Velocity P-wave (km/s) = 5.26746 6.67212 6.01096
#
# Compressibility (1/GPa) = 0.02893471
#
# Stress axis : x y z
#
# Youngs Moduli (GPa) = 48.56356 98.20494 100.89716
#
# Poissons Ratio (x) = 0.03342 0.01260
# Poissons Ratio (y) = 0.01653 0.54586
# Poissons Ratio (z) = 0.00607 0.53130
#
# Static dielectric constant tensor:
#      x y z
#    x 1.753640 0.000000 0.000000 
#    y 0.000000 1.704010 0.000000 
#    z 0.000000 0.000000 1.754480 
# 
# From -- ./inp_files/60922.got.cif
#   From: 2010.05.17/outbox.cif.g08.bks.cpg/sg65_31_cif.got.tgz:60922.got - 2010.06.03 17:01:31.
