data_PCOD9488248
_publ_section_title
;
Structure prediction by ZEFSAII (Michael W. Deem and Ramdas Pophale) SiO2 
 PCOD9488248
Probable space group: C M M M
;
_chemical_formula_sum "Si O2"
_cell_formula_units_Z 88
_cell_length_a 28.812080
_cell_length_b 14.448053
_cell_length_c 9.632166
_cell_angle_alpha 90.000000
_cell_angle_beta 90.000000
_cell_angle_gamma 90.000000
_cell_volume 4009.663218
_symmetry_space_group_name_H-M "C M M M"
_symmetry_group_IT_number 65
_symmetry_cell_setting 'orthorhombic'
loop_
_space_group_symop_operation_xyz
x,y,z
-x,-y,z
x,-y,-z
-x,y,-z
-x,-y,-z
x,y,-z
-x,y,z
x,-y,z
1/2+x,1/2+y,z
1/2-x,1/2-y,z
1/2+x,1/2-y,-z
1/2-x,1/2+y,-z
1/2-x,1/2-y,-z
1/2+x,1/2+y,-z
1/2-x,1/2+y,z
1/2+x,1/2-y,z
loop_
_atom_site_type_symbol
_atom_site_label
_atom_site_fract_x
_atom_site_fract_y
_atom_site_fract_z
Si Si1 0.770123 0.352907 0.656975
Si Si2 0.412154 0.613577 0.842339
Si Si3 0.140058 0.612445 0.159244
Si Si4 0.500000 0.612880 0.341425
Si Si5 0.552533 0.113043 0.340140
Si Si6 0.330805 0.394961 0.655695
O O1 0.782734 0.382914 0.500000
O O2 0.750000 0.250000 0.651674
O O3 0.813785 0.361373 0.755993
O O4 0.722544 0.402222 0.700597
O O5 0.412427 0.500000 0.849598
O O6 0.454395 0.640780 0.742902
O O7 0.364522 0.646629 0.770297
O O8 0.417384 0.646100 0.000000
O O9 0.138993 0.500000 0.158037
O O10 0.093452 0.643665 0.238518
O O11 0.141675 0.644118 0.000000
O O12 0.500000 0.500000 0.345598
O O13 0.500000 0.645691 0.500000
O O14 0.561666 0.140744 0.500000
O O15 0.500000 0.142122 0.302407
O O16 0.552491 0.000000 0.338505
O O17 0.332844 0.351969 0.500000
O O18 0.347890 0.500000 0.639369
#
# Coordination Sequence:
#
# PCOD9488248 Si02
#       6
#    16  16  16   8  16  16
#     4  10  21  36  53  73  97 131 174 216 256 301
#     4   9  16  25  39  62  91 120 150 187 232 281
#     4  10  20  32  49  76 108 140 173 211 258 311
#     4   9  15  23  37  59  89 121 151 185 228 279
#     4   8  14  26  46  73 104 136 169 206 250 301
#     4   9  17  30  48  69  93 122 157 198 245 294
#
# _framework density 21.946981000000001
#
# number of rings (size 3 to 8) (size 9 to 14) (size 15 to 20)
#    0.000    2.818    0.000    2.455    0.000    6.545 
#    0.000    3.636    0.000    0.000    2.364    0.000 
#    0.000    0.000    0.000    0.000    0.000    0.000 
#
# Total GULP energy -245627.445746 kJ/mol
# GULP energy per Si atom -5582.441949 kJ/mol
# Density = 2.189703 g / cm^3
# Si number density = 21.946981 Si / 1000 Ang^3
#
#
#
# Elastic Constant Matrix: (Units=GPa)
#
#
# Indices 1 2 3 4 5 6 
#
# 1 211.8361 6.1830 171.2451 0.0000 0.0000 0.0000
# 2 6.1830 44.7664 8.1017 0.0000 0.0000 0.0000
# 3 171.2451 8.1017 214.5713 0.0000 0.0000 0.0000
# 4 0.0000 0.0000 0.0000 3.1371 0.0000 0.0000
# 5 0.0000 0.0000 0.0000 0.0000 -24.2414 0.0000
# 6 0.0000 0.0000 0.0000 0.0000 0.0000 15.9333
#
#
#
# Elastic Compliance Matrix: (Units=1/GPa)
#
#
# Indices 1 2 3 4 5 6 
#
# 1 0.013304 0.000085 -0.010621 0.000000 0.000000 0.000000
# 2 0.000085 0.022492 -0.000917 0.000000 0.000000 0.000000
# 3 -0.010621 -0.000917 0.013171 0.000000 0.000000 0.000000
# 4 0.000000 0.000000 0.000000 0.318764 0.000000 0.000000
# 5 0.000000 0.000000 0.000000 0.000000 -0.041252 0.000000
# 6 0.000000 0.000000 0.000000 0.000000 0.000000 0.062762
#
#
# Mechanical properties :
#
#
# Convention : Reuss Voigt Hill
#
# Bulk Modulus (GPa) = 38.37049 93.58151 65.97600
# Shear Modulus (GPa) = 11.88117 18.00873 14.94495
#
# Velocity S-wave (km/s) = 2.32923 2.86764 2.61235
# Velocity P-wave (km/s) = 4.97544 7.32782 6.26306
#
# Compressibility (1/GPa) = 0.02606170
#
# Stress axis : x y z
#
# Youngs Moduli (GPa) = 75.16696 44.45947 75.92331
#
# Poissons Ratio (x) = -0.00376 0.80635
# Poissons Ratio (y) = -0.00636 0.06961
# Poissons Ratio (z) = 0.79832 0.04076
#
# Static dielectric constant tensor:
#      x y z
#    x 1.771450 0.000000 0.000000 
#    y 0.000000 3.137480 0.000000 
#    z 0.000000 0.000000 1.769990 
# 
# From -- ./inp_files/18287.got.cif
#   From: 2010.05.17/outbox.cif.g08.bks.cpg/sg65_10_cif.got.tgz:18287.got - 2010.06.03 17:01:31.
