data_PCOD9488266
_publ_section_title
;
Structure prediction by ZEFSAII (Michael W. Deem and Ramdas Pophale) SiO2 
 PCOD9488266
Probable space group: C M M M
;
_chemical_formula_sum "Si O2"
_cell_formula_units_Z 72
_cell_length_a 29.939180
_cell_length_b 8.102801
_cell_length_c 15.991177
_cell_angle_alpha 90.000000
_cell_angle_beta 90.000000
_cell_angle_gamma 90.000000
_cell_volume 3879.319100
_symmetry_space_group_name_H-M "C M M M"
_symmetry_group_IT_number 65
_symmetry_cell_setting 'orthorhombic'
loop_
_space_group_symop_operation_xyz
x,y,z
-x,-y,z
x,-y,-z
-x,y,-z
-x,-y,-z
x,y,-z
-x,y,z
x,-y,z
1/2+x,1/2+y,z
1/2-x,1/2-y,z
1/2+x,1/2-y,-z
1/2-x,1/2+y,-z
1/2-x,1/2-y,-z
1/2+x,1/2+y,-z
1/2-x,1/2+y,z
1/2+x,1/2-y,z
loop_
_atom_site_type_symbol
_atom_site_label
_atom_site_fract_x
_atom_site_fract_y
_atom_site_fract_z
Si Si1 0.554118 0.686259 0.000000
Si Si2 0.949676 0.696648 0.182424
Si Si3 0.800709 0.699463 0.405404
Si Si4 0.698403 0.302213 0.906178
Si Si5 0.859729 0.301465 0.747760
O O1 0.565436 0.772502 0.913261
O O2 0.571935 0.500000 0.000000
O O3 0.500000 0.680146 0.000000
O O4 0.952505 0.500000 0.194148
O O5 0.910119 0.763101 0.240269
O O6 0.000000 0.764806 0.193794
O O7 0.810916 0.756704 0.500000
O O8 0.802429 0.500000 0.405688
O O9 0.750000 0.750000 0.385639
O O10 0.833878 0.761729 0.333805
O O11 0.696116 0.500000 0.904591
O O12 0.750000 0.250000 0.894273
O O13 0.668429 0.235742 0.831151
O O14 0.684726 0.246049 0.000000
O O15 0.862375 0.500000 0.740290
#
# Coordination Sequence:
#
# PCOD9488266 Si02
#       5
#     8  16  16  16  16
#     4   9  17  29  45  65  90 121 160 205 247 281
#     4   9  18  32  48  67  94 129 167 204 242 286
#     4   9  18  33  52  74  99 124 154 196 246 296
#     4  10  21  35  49  68  97 131 163 197 238 287
#     4  10  20  32  50  73  96 128 165 202 243 289
#
# _framework density 18.559958999999999
#
# number of rings (size 3 to 8) (size 9 to 14) (size 15 to 20)
#    0.000    2.556    0.000    1.667    1.556    6.222 
#    0.000    0.000    0.000    0.667    0.000    4.667 
#    0.000    0.000    0.000   13.111    0.000   13.778 
#
# Total GULP energy -200794.747976 kJ/mol
# GULP energy per Si atom -5577.631888 kJ/mol
# Density = 1.851772 g / cm^3
# Si number density = 18.559959 Si / 1000 Ang^3
#
#
#
# Elastic Constant Matrix: (Units=GPa)
#
#
# Indices 1 2 3 4 5 6 
#
# 1 132.5287 5.2829 104.9810 0.0000 0.0000 0.0000
# 2 5.2829 10.4982 5.3365 0.0000 0.0000 0.0000
# 3 104.9810 5.3365 126.5250 0.0000 0.0000 0.0000
# 4 0.0000 0.0000 0.0000 13.5122 0.0000 0.0000
# 5 0.0000 0.0000 0.0000 0.0000 24.4809 0.0000
# 6 0.0000 0.0000 0.0000 0.0000 0.0000 13.9188
#
#
#
# Elastic Compliance Matrix: (Units=1/GPa)
#
#
# Indices 1 2 3 4 5 6 
#
# 1 0.022050 -0.001835 -0.018218 0.000000 0.000000 0.000000
# 2 -0.001835 0.097494 -0.002589 0.000000 0.000000 0.000000
# 3 -0.018218 -0.002589 0.023129 0.000000 0.000000 0.000000
# 4 0.000000 0.000000 0.000000 0.074007 0.000000 0.000000
# 5 0.000000 0.000000 0.000000 0.000000 0.040848 0.000000
# 6 0.000000 0.000000 0.000000 0.000000 0.000000 0.071845
#
#
# Mechanical properties :
#
#
# Convention : Reuss Voigt Hill
#
# Bulk Modulus (GPa) = 10.26822 55.63919 32.95371
# Shear Modulus (GPa) = 12.28138 20.64581 16.46359
#
# Velocity S-wave (km/s) = 2.57517 3.33886 2.98157
# Velocity P-wave (km/s) = 3.79295 6.70128 5.44489
#
# Compressibility (1/GPa) = 0.09738782
#
# Stress axis : x y z
#
# Youngs Moduli (GPa) = 45.35210 10.25701 43.23662
#
# Poissons Ratio (x) = 0.01882 0.78768
# Poissons Ratio (y) = 0.08324 0.11195
# Poissons Ratio (z) = 0.82621 0.02656
#
# Static dielectric constant tensor:
#      x y z
#    x 1.672430 0.000000 0.000000 
#    y 0.000000 1.668660 0.000000 
#    z 0.000000 0.000000 1.635590 
# 
# From -- ./inp_files/36926.got.cif
#   From: 2010.05.17/outbox.cif.g08.bks.cpg/sg65_19_cif.got.tgz:36926.got - 2010.06.03 17:01:31.
