data_PCOD9488256
_publ_section_title
;
Structure prediction by ZEFSAII (Michael W. Deem and Ramdas Pophale) SiO2 
 PCOD9488256
Probable space group: C M M M
;
_chemical_formula_sum "Si O2"
_cell_formula_units_Z 120
_cell_length_a 28.194994
_cell_length_b 8.928128
_cell_length_c 27.030235
_cell_angle_alpha 90.000000
_cell_angle_beta 90.000000
_cell_angle_gamma 90.000000
_cell_volume 6804.280927
_symmetry_space_group_name_H-M "C M M M"
_symmetry_group_IT_number 65
_symmetry_cell_setting 'orthorhombic'
loop_
_space_group_symop_operation_xyz
x,y,z
-x,-y,z
x,-y,-z
-x,y,-z
-x,-y,-z
x,y,-z
-x,y,z
x,-y,z
1/2+x,1/2+y,z
1/2-x,1/2-y,z
1/2+x,1/2-y,-z
1/2-x,1/2+y,-z
1/2-x,1/2-y,-z
1/2+x,1/2+y,-z
1/2-x,1/2+y,z
1/2+x,1/2-y,z
loop_
_atom_site_type_symbol
_atom_site_label
_atom_site_fract_x
_atom_site_fract_y
_atom_site_fract_z
Si Si1 0.946611 0.680492 0.754567
Si Si2 0.601940 0.321059 0.849144
Si Si3 0.200041 0.821114 0.202305
Si Si4 0.801568 0.177947 0.500000
Si Si5 0.055642 0.679864 0.943241
Si Si6 0.353946 0.177056 0.592515
Si Si7 0.945158 0.175024 0.559356
Si Si8 0.651009 0.180365 0.704088
O O1 0.946423 0.500000 0.758677
O O2 0.931920 0.748974 0.807390
O O3 0.903593 0.721434 0.717683
O O4 0.000000 0.727234 0.740306
O O5 0.597201 0.500000 0.847346
O O6 0.655921 0.282350 0.833591
O O7 0.587086 0.259558 0.902280
O O8 0.250000 0.750000 0.187530
O O9 0.184375 0.758547 0.255893
O O10 0.204235 0.000000 0.204373
O O11 0.750000 0.250000 0.500000
O O12 0.828382 0.234417 0.451121
O O13 0.799229 0.000000 0.500000
O O14 0.060141 0.500000 0.938545
O O15 0.000000 0.716397 0.935140
O O16 0.067401 0.720008 0.000000
O O17 0.409276 0.217469 0.587080
O O18 0.337893 0.220021 0.647590
O O19 0.346591 0.000000 0.585769
O O20 0.940019 0.195751 0.500000
O O21 0.000000 0.201589 0.571811
O O22 0.934116 0.000000 0.569485
O O23 0.655109 0.000000 0.709122
#
# Coordination Sequence:
#
# PCOD9488256 Si02
#       8
#    16  16  16   8  16  16  16  16
#     4   9  17  31  51  74 104 143 180 210 246 298
#     4  10  20  32  49  77 108 138 176 222 269 312
#     4  10  21  37  57  79 103 133 173 220 268 320
#     4  12  26  44  63  80 101 130 166 207 255 313
#     4   9  18  32  50  75 109 149 189 222 255 303
#     4  11  22  37  58  84 110 135 169 212 259 310
#     4   9  18  33  53  77 106 141 176 207 246 297
#     4   9  20  36  54  78 108 138 168 208 257 309
#
# _framework density 17.635956
#
# number of rings (size 3 to 8) (size 9 to 14) (size 15 to 20)
#    0.000    2.267    0.667    3.000    0.000    6.400 
#    0.000    2.667    0.000    0.400    0.000    0.000 
#    0.000    0.000    0.000    0.000    0.000    0.000 
#
# Total GULP energy -334880.994287 kJ/mol
# GULP energy per Si atom -5581.349905 kJ/mol
# Density = 1.759582 g / cm^3
# Si number density = 17.635956 Si / 1000 Ang^3
#
#
#
# Elastic Constant Matrix: (Units=GPa)
#
#
# Indices 1 2 3 4 5 6 
#
# 1 73.2176 28.4559 38.1044 0.0000 0.0000 0.0000
# 2 28.4559 40.4576 41.5349 0.0000 0.0000 0.0000
# 3 38.1044 41.5349 110.7482 0.0000 0.0000 0.0000
# 4 0.0000 0.0000 0.0000 6.5687 0.0000 0.0000
# 5 0.0000 0.0000 0.0000 0.0000 8.6437 0.0000
# 6 0.0000 0.0000 0.0000 0.0000 0.0000 31.2497
#
#
#
# Elastic Compliance Matrix: (Units=1/GPa)
#
#
# Indices 1 2 3 4 5 6 
#
# 1 0.019215 -0.010940 -0.002508 0.000000 0.000000 0.000000
# 2 -0.010940 0.046421 -0.013646 0.000000 0.000000 0.000000
# 3 -0.002508 -0.013646 0.015010 0.000000 0.000000 0.000000
# 4 0.000000 0.000000 0.000000 0.152238 0.000000 0.000000
# 5 0.000000 0.000000 0.000000 0.000000 0.115692 0.000000
# 6 0.000000 0.000000 0.000000 0.000000 0.000000 0.032000
#
#
# Mechanical properties :
#
#
# Convention : Reuss Voigt Hill
#
# Bulk Modulus (GPa) = 37.79511 48.95707 43.37609
# Shear Modulus (GPa) = 11.27184 17.04760 14.15972
#
# Velocity S-wave (km/s) = 2.53086 3.11245 2.83660
# Velocity P-wave (km/s) = 5.47883 6.38252 5.94786
#
# Compressibility (1/GPa) = 0.02645845
#
# Stress axis : x y z
#
# Youngs Moduli (GPa) = 52.04247 21.54211 66.62154
#
# Poissons Ratio (x) = 0.23567 0.16711
# Poissons Ratio (y) = 0.56933 0.90909
# Poissons Ratio (z) = 0.13054 0.29396
#
# Static dielectric constant tensor:
#      x y z
#    x 1.624350 0.000000 0.000000 
#    y 0.000000 1.585540 0.000000 
#    z 0.000000 0.000000 1.589870 
# 
# From -- ./inp_files/76099.got.cif
#   From: 2010.05.17/outbox.cif.g08.bks.cpg/sg65_39_cif.got.tgz:76099.got - 2010.06.03 17:01:31.
