data_PCOD9488497
_publ_section_title
;
Structure prediction by ZEFSAII (Michael W. Deem and Ramdas Pophale) SiO2 
 PCOD9488497
Probable space group: C M M M
;
_chemical_formula_sum "Si O2"
_cell_formula_units_Z 116
_cell_length_a 30.896914
_cell_length_b 7.778847
_cell_length_c 24.835144
_cell_angle_alpha 90.000000
_cell_angle_beta 90.000000
_cell_angle_gamma 90.000000
_cell_volume 5968.937288
_symmetry_space_group_name_H-M "C M M M"
_symmetry_group_IT_number 65
_symmetry_cell_setting 'orthorhombic'
loop_
_space_group_symop_operation_xyz
x,y,z
-x,-y,z
x,-y,-z
-x,y,-z
-x,-y,-z
x,y,-z
-x,y,z
x,-y,z
1/2+x,1/2+y,z
1/2-x,1/2-y,z
1/2+x,1/2-y,-z
1/2-x,1/2+y,-z
1/2-x,1/2-y,-z
1/2+x,1/2+y,-z
1/2-x,1/2+y,z
1/2+x,1/2-y,z
loop_
_atom_site_type_symbol
_atom_site_label
_atom_site_fract_x
_atom_site_fract_y
_atom_site_fract_z
Si Si1 0.784969 0.500000 0.500000
Si Si2 0.450129 0.789979 0.732186
Si Si3 0.200689 0.205997 0.746691
Si Si4 0.128762 0.699724 0.661707
Si Si5 0.176227 0.811429 0.556983
Si Si6 0.950681 0.292762 0.146450
Si Si7 0.121687 0.205783 0.060544
Si Si8 0.701215 0.293390 0.869816
O O1 0.792052 0.347383 0.546499
O O2 0.500000 0.739502 0.722352
O O3 0.415165 0.730661 0.688750
O O4 0.437927 0.735088 0.793120
O O5 0.449028 0.000000 0.731923
O O6 0.250000 0.250000 0.731228
O O7 0.165931 0.285801 0.706857
O O8 0.194496 0.268024 0.808333
O O9 0.195582 0.000000 0.745153
O O10 0.121955 0.500000 0.647952
O O11 0.146576 0.790178 0.608533
O O12 0.150210 0.808174 0.500000
O O13 0.198115 0.000000 0.558454
O O14 0.951063 0.500000 0.147556
O O15 0.918267 0.238150 0.100111
O O16 0.000000 0.234645 0.136689
O O17 0.164800 0.273778 0.089903
O O18 0.126493 0.000000 0.056566
O O19 0.115758 0.273452 0.000000
O O20 0.697838 0.500000 0.867853
O O21 0.750000 0.250000 0.886314
#
# Coordination Sequence:
#
# PCOD9488497 Si02
#       8
#     4  16  16  16  16  16  16  16
#     4   8  14  32  48  74 103 138 192 222 260 328
#     4   8  16  30  50  77 105 134 169 208 255 312
#     4  10  20  33  49  73 101 130 167 210 259 313
#     4  11  18  29  52  78 105 138 173 212 260 311
#     4   9  17  30  49  75 106 141 182 226 267 314
#     4   9  18  34  53  73  99 130 166 209 254 301
#     4  10  21  35  50  71  98 128 165 207 253 309
#     4   9  19  35  52  70  97 129 162 205 256 309
#
# _framework density 19.433945999999999
#
# number of rings (size 3 to 8) (size 9 to 14) (size 15 to 20)
#    0.414    2.207    0.690    2.483    0.000    2.207 
#    0.000    2.069    0.000    4.138    0.000    3.379 
#    0.000    0.000    0.000    0.000    0.000    0.000 
#
# Total GULP energy -322888.946199 kJ/mol
# GULP energy per Si atom -5567.050797 kJ/mol
# Density = 1.938971 g / cm^3
# Si number density = 19.433946 Si / 1000 Ang^3
#
#
#
# Elastic Constant Matrix: (Units=GPa)
#
#
# Indices 1 2 3 4 5 6 
#
# 1 102.9452 9.7233 90.1741 0.0000 0.0000 0.0000
# 2 9.7233 65.7270 21.0451 0.0000 0.0000 0.0000
# 3 90.1741 21.0451 126.8335 0.0000 0.0000 0.0000
# 4 0.0000 0.0000 0.0000 18.7051 0.0000 0.0000
# 5 0.0000 0.0000 0.0000 0.0000 -52.3275 0.0000
# 6 0.0000 0.0000 0.0000 0.0000 0.0000 17.2935
#
#
#
# Elastic Compliance Matrix: (Units=1/GPa)
#
#
# Indices 1 2 3 4 5 6 
#
# 1 0.026046 0.002193 -0.018882 0.000000 0.000000 0.000000
# 2 0.002193 0.016253 -0.004256 0.000000 0.000000 0.000000
# 3 -0.018882 -0.004256 0.022015 0.000000 0.000000 0.000000
# 4 0.000000 0.000000 0.000000 0.053461 0.000000 0.000000
# 5 0.000000 0.000000 0.000000 0.000000 -0.019110 0.000000
# 6 0.000000 0.000000 0.000000 0.000000 0.000000 0.057825
#
#
# Mechanical properties :
#
#
# Convention : Reuss Voigt Hill
#
# Bulk Modulus (GPa) = 44.59490 59.71007 52.15248
# Shear Modulus (GPa) = 24.28913 8.37177 16.33045
#
# Velocity S-wave (km/s) = 3.53913 2.07778 2.90195
# Velocity P-wave (km/s) = 6.30058 6.04546 6.17434
#
# Compressibility (1/GPa) = 0.02242409
#
# Stress axis : x y z
#
# Youngs Moduli (GPa) = 38.39356 61.52825 45.42433
#
# Poissons Ratio (x) = -0.13491 0.85768
# Poissons Ratio (y) = -0.08418 0.19331
# Poissons Ratio (z) = 0.72493 0.26184
#
# Static dielectric constant tensor:
#      x y z
#    x 1.673750 0.000000 0.000000 
#    y 0.000000 1.788520 0.000000 
#    z 0.000000 0.000000 1.678860 
# 
# From -- ./inp_files/72248.got.cif
#   From: 2010.05.17/outbox.cif.g08.bks.cpg/sg65_37_cif.got.tgz:72248.got - 2010.06.03 17:01:31.
