data_PCOD9488331
_publ_section_title
;
Structure prediction by ZEFSAII (Michael W. Deem and Ramdas Pophale) SiO2 
 PCOD9488331
Probable space group: C M M M
;
_chemical_formula_sum "Si O2"
_cell_formula_units_Z 88
_cell_length_a 28.189216
_cell_length_b 19.907917
_cell_length_c 7.640094
_cell_angle_alpha 90.000000
_cell_angle_beta 90.000000
_cell_angle_gamma 90.000000
_cell_volume 4287.533445
_symmetry_space_group_name_H-M "C M M M"
_symmetry_group_IT_number 65
_symmetry_cell_setting 'orthorhombic'
loop_
_space_group_symop_operation_xyz
x,y,z
-x,-y,z
x,-y,-z
-x,y,-z
-x,-y,-z
x,y,-z
-x,y,z
x,-y,z
1/2+x,1/2+y,z
1/2-x,1/2-y,z
1/2+x,1/2-y,-z
1/2-x,1/2+y,-z
1/2-x,1/2-y,-z
1/2+x,1/2+y,-z
1/2-x,1/2+y,z
1/2+x,1/2-y,z
loop_
_atom_site_type_symbol
_atom_site_label
_atom_site_fract_x
_atom_site_fract_y
_atom_site_fract_z
Si Si1 0.403236 0.845253 0.210149
Si Si2 0.878340 0.197326 0.207798
Si Si3 0.500000 0.923647 0.707201
Si Si4 0.191211 0.577059 0.785663
Si Si5 0.227751 0.821703 0.213426
Si Si6 0.945597 0.074188 0.711101
O O1 0.398287 0.768512 0.276334
O O2 0.452591 0.882299 0.247522
O O3 0.357487 0.887274 0.272184
O O4 0.399918 0.842914 0.000000
O O5 0.826302 0.178008 0.277367
O O6 0.913735 0.135927 0.233214
O O7 0.872132 0.207055 0.000000
O O8 0.500000 0.930150 0.500000
O O9 0.500000 0.000000 0.782162
O O10 0.192950 0.500000 0.729668
O O11 0.236915 0.619654 0.727915
O O12 0.190998 0.577722 0.000000
O O13 0.250000 0.750000 0.260149
O O14 0.227140 0.825239 0.000000
O O15 0.945993 0.073477 0.500000
O O16 0.000000 0.082645 0.769928
O O17 0.928981 0.000000 0.769798
#
# Coordination Sequence:
#
# PCOD9488331 Si02
#       6
#    16  16   8  16  16  16
#     4  10  20  35  55  81 110 141 177 219 267 318
#     4  10  20  32  54  85 113 139 172 219 270 317
#     4  11  25  41  55  75 106 143 182 227 275 318
#     4   9  16  27  48  76 104 140 181 213 251 310
#     4   9  15  28  47  72 110 143 166 206 263 312
#     4   9  20  39  58  75 102 143 184 219 262 318
#
# _framework density 20.524619999999999
#
# number of rings (size 3 to 8) (size 9 to 14) (size 15 to 20)
#    0.000    2.455    1.818    1.364    1.273    3.636 
#    0.000    2.727    0.000    1.636    0.000    2.545 
#    0.000    0.000    0.000    0.000    0.000    0.000 
#
# Total GULP energy -245601.352973 kJ/mol
# GULP energy per Si atom -5581.848931 kJ/mol
# Density = 2.047791 g / cm^3
# Si number density = 20.524620 Si / 1000 Ang^3
#
#
#
# Elastic Constant Matrix: (Units=GPa)
#
#
# Indices 1 2 3 4 5 6 
#
# 1 184.8861 146.5564 6.5249 0.0000 0.0000 0.0000
# 2 146.5564 237.4876 6.8957 0.0000 0.0000 0.0000
# 3 6.5249 6.8957 38.0042 0.0000 0.0000 0.0000
# 4 0.0000 0.0000 0.000032182.1665 0.0000 0.0000
# 5 0.0000 0.0000 0.0000 0.0000 -26.1751 0.0000
# 6 0.0000 0.0000 0.0000 0.0000 0.0000 43.8843
#
#
#
# Elastic Compliance Matrix: (Units=1/GPa)
#
#
# Indices 1 2 3 4 5 6 
#
# 1 0.010604 -0.006525 -0.000637 0.000000 0.000000 0.000000
# 2 -0.006525 0.008248 -0.000376 0.000000 0.000000 0.000000
# 3 -0.000637 -0.000376 0.026490 0.000000 0.000000 0.000000
# 4 0.000000 0.000000 0.000000 0.000031 0.000000 0.000000
# 5 0.000000 0.000000 0.000000 0.000000 -0.038204 0.000000
# 6 0.000000 0.000000 0.000000 0.000000 0.000000 0.022787
#
#
# Mechanical properties :
#
#
# Convention : Reuss Voigt Hill
#
# Bulk Modulus (GPa) = 33.03994 86.70355 59.87175
# Shear Modulus (GPa) = 90.70931 6460.00188 3275.35559
#
# Velocity S-wave (km/s) = 6.65517 56.16292 39.99103
# Velocity P-wave (km/s) = 8.67109 65.17694 46.49312
#
# Compressibility (1/GPa) = 0.03026640
#
# Stress axis : x y z
#
# Youngs Moduli (GPa) = 94.30820 121.23596 37.74941
#
# Poissons Ratio (x) = 0.79107 0.02403
# Poissons Ratio (y) = 0.61537 0.01421
# Poissons Ratio (z) = 0.06003 0.04563
#
# Static dielectric constant tensor:
#      x y z
#    x 1.707250 0.000000 0.000000 
#    y 0.000000 1.717410 0.000000 
#    z 0.000000 0.000000 1.777890 
# 
# From -- ./inp_files/18294.got.cif
#   From: 2010.05.17/outbox.cif.g08.bks.cpg/sg65_10_cif.got.tgz:18294.got - 2010.06.03 17:01:31.
