data_PCOD9488103
_publ_section_title
;
Structure prediction by ZEFSAII (Michael W. Deem and Ramdas Pophale) SiO2 
 PCOD9488103
Probable space group: C M M M
;
_chemical_formula_sum "Si O2"
_cell_formula_units_Z 88
_cell_length_a 28.518953
_cell_length_b 9.029408
_cell_length_c 19.378144
_cell_angle_alpha 90.000000
_cell_angle_beta 90.000000
_cell_angle_gamma 90.000000
_cell_volume 4990.051568
_symmetry_space_group_name_H-M "C M M M"
_symmetry_group_IT_number 65
_symmetry_cell_setting 'orthorhombic'
loop_
_space_group_symop_operation_xyz
x,y,z
-x,-y,z
x,-y,-z
-x,y,-z
-x,-y,-z
x,y,-z
-x,y,z
x,-y,z
1/2+x,1/2+y,z
1/2-x,1/2-y,z
1/2+x,1/2-y,-z
1/2-x,1/2+y,-z
1/2-x,1/2-y,-z
1/2+x,1/2+y,-z
1/2-x,1/2+y,z
1/2+x,1/2-y,z
loop_
_atom_site_type_symbol
_atom_site_label
_atom_site_fract_x
_atom_site_fract_y
_atom_site_fract_z
Si Si1 0.362083 0.323959 0.204834
Si Si2 0.446518 0.322421 0.307514
Si Si3 0.500000 0.333175 0.916530
Si Si4 0.597645 0.176384 0.080148
Si Si5 0.699613 0.677552 0.334837
Si Si6 0.115417 0.323310 0.418832
O O1 0.362653 0.500000 0.191689
O O2 0.409247 0.285641 0.247878
O O3 0.364218 0.237664 0.133329
O O4 0.319989 0.290785 0.257641
O O5 0.500000 0.284594 0.290177
O O6 0.443512 0.500000 0.318048
O O7 0.428233 0.240859 0.375799
O O8 0.500000 0.500000 0.887425
O O9 0.452286 0.248697 0.899358
O O10 0.500000 0.342810 0.000000
O O11 0.594024 0.000000 0.084541
O O12 0.606899 0.216031 0.000000
O O13 0.701203 0.500000 0.343011
O O14 0.750000 0.750000 0.345355
O O15 0.661375 0.745419 0.386903
O O16 0.111413 0.292956 0.500000
O O17 0.118756 0.500000 0.408767
#
# Coordination Sequence:
#
# PCOD9488103 Si02
#       6
#    16  16   8  16  16  16
#     4   9  19  34  53  77 103 136 176 215 259 314
#     4   9  19  35  53  75 105 142 182 222 262 308
#     4   9  17  29  45  65  93 133 174 209 250 301
#     4  10  20  32  47  72 105 137 173 218 264 308
#     4  10  21  38  60  83 106 134 169 213 264 318
#     4  10  21  36  54  79 110 141 176 217 258 307
#
# _framework density 17.635089000000001
#
# number of rings (size 3 to 8) (size 9 to 14) (size 15 to 20)
#    0.000    2.455    0.000    3.000    1.273    8.364 
#    0.000    1.818    0.000    0.545    0.000    0.000 
#    0.000    0.000    0.000    0.000    0.000    0.000 
#
# Total GULP energy -245511.498279 kJ/mol
# GULP energy per Si atom -5579.806779 kJ/mol
# Density = 1.759495 g / cm^3
# Si number density = 17.635089 Si / 1000 Ang^3
#
#
#
# Elastic Constant Matrix: (Units=GPa)
#
#
# Indices 1 2 3 4 5 6 
#
# 1 42.8626 2.9439 -7.1817 0.0000 0.0000 0.0000
# 2 2.9439 36.5259 27.5932 0.0000 0.0000 0.0000
# 3 -7.1817 27.5932 69.1581 0.0000 0.0000 0.0000
# 4 0.0000 0.0000 0.0000 30.7864 0.0000 0.0000
# 5 0.0000 0.0000 0.0000 0.0000 13.5896 0.0000
# 6 0.0000 0.0000 0.0000 0.0000 0.0000 27.3128
#
#
#
# Elastic Compliance Matrix: (Units=1/GPa)
#
#
# Indices 1 2 3 4 5 6 
#
# 1 0.024513 -0.005581 0.004772 0.000000 0.000000 0.000000
# 2 -0.005581 0.040461 -0.016723 0.000000 0.000000 0.000000
# 3 0.004772 -0.016723 0.021627 0.000000 0.000000 0.000000
# 4 0.000000 0.000000 0.000000 0.032482 0.000000 0.000000
# 5 0.000000 0.000000 0.000000 0.000000 0.073586 0.000000
# 6 0.000000 0.000000 0.000000 0.000000 0.000000 0.036613
#
#
# Mechanical properties :
#
#
# Convention : Reuss Voigt Hill
#
# Bulk Modulus (GPa) = 19.40297 21.69526 20.54912
# Shear Modulus (GPa) = 17.76047 22.68386 20.22217
#
# Velocity S-wave (km/s) = 3.17694 3.59038 3.38997
# Velocity P-wave (km/s) = 4.94810 5.43294 5.19617
#
# Compressibility (1/GPa) = 0.05153850
#
# Stress axis : x y z
#
# Youngs Moduli (GPa) = 40.79425 24.71532 46.23761
#
# Poissons Ratio (x) = 0.13793 -0.22066
# Poissons Ratio (y) = 0.22767 0.77323
# Poissons Ratio (z) = -0.19468 0.41331
#
# Static dielectric constant tensor:
#      x y z
#    x 1.583140 0.000000 0.000000 
#    y 0.000000 1.589470 0.000000 
#    z 0.000000 0.000000 1.608540 
# 
# From -- ./inp_files/50434.got.cif
#   From: 2010.05.17/outbox.cif.g08.bks.cpg/sg65_26_cif.got.tgz:50434.got - 2010.06.03 17:01:31.
