data_PCOD9488218
_publ_section_title
;
Structure prediction by ZEFSAII (Michael W. Deem and Ramdas Pophale) SiO2 
 PCOD9488218
Probable space group: C M M M
;
_chemical_formula_sum "Si O2"
_cell_formula_units_Z 88
_cell_length_a 14.870813
_cell_length_b 27.941758
_cell_length_c 13.009812
_cell_angle_alpha 90.000000
_cell_angle_beta 90.000000
_cell_angle_gamma 90.000000
_cell_volume 5405.793605
_symmetry_space_group_name_H-M "C M M M"
_symmetry_group_IT_number 65
_symmetry_cell_setting 'orthorhombic'
loop_
_space_group_symop_operation_xyz
x,y,z
-x,-y,z
x,-y,-z
-x,y,-z
-x,-y,-z
x,y,-z
-x,y,z
x,-y,z
1/2+x,1/2+y,z
1/2-x,1/2-y,z
1/2+x,1/2-y,-z
1/2-x,1/2+y,-z
1/2-x,1/2-y,-z
1/2+x,1/2+y,-z
1/2-x,1/2+y,z
1/2+x,1/2-y,z
loop_
_atom_site_type_symbol
_atom_site_label
_atom_site_fract_x
_atom_site_fract_y
_atom_site_fract_z
Si Si1 0.397397 0.607277 0.620165
Si Si2 0.222458 0.556677 0.304261
Si Si3 0.604498 0.324161 0.194739
Si Si4 0.893900 0.720577 0.120904
Si Si5 0.777052 0.372627 0.117941
Si Si6 0.396873 0.941853 0.500000
O O1 0.384252 0.617210 0.500000
O O2 0.500000 0.589806 0.634570
O O3 0.322887 0.570058 0.658278
O O4 0.387730 0.654440 0.690682
O O5 0.213374 0.500000 0.289264
O O6 0.205361 0.585833 0.199975
O O7 0.156232 0.572352 0.396842
O O8 0.500000 0.328929 0.162054
O O9 0.628638 0.268460 0.183353
O O10 0.673737 0.355411 0.128718
O O11 0.836204 0.673990 0.145917
O O12 0.000000 0.710563 0.133725
O O13 0.878198 0.731718 0.000000
O O14 0.796587 0.385833 0.000000
O O15 0.500000 0.925451 0.500000
O O16 0.397033 0.000000 0.500000
#
# Coordination Sequence:
#
# PCOD9488218 Si02
#       6
#    16  16  16  16  16   8
#     4   9  17  30  50  75 102 131 163 201 245 293
#     4  10  20  34  52  73  99 129 166 209 250 295
#     4   9  17  29  48  73 101 133 167 200 239 291
#     4   9  17  30  49  71  95 127 167 207 243 285
#     4  10  20  32  49  73 102 133 166 205 247 293
#     4   9  18  34  55  73  88 117 162 208 251 291
#
# _framework density 16.278831
#
# number of rings (size 3 to 8) (size 9 to 14) (size 15 to 20)
#    0.000    2.636    0.909    1.091    0.000    4.000 
#    0.000    0.909    2.000    2.182    0.000   10.182 
#    0.000    0.000    0.000    0.000    0.000    0.000 
#
# Total GULP energy -245154.170076 kJ/mol
# GULP energy per Si atom -5571.685684 kJ/mol
# Density = 1.624178 g / cm^3
# Si number density = 16.278831 Si / 1000 Ang^3
#
#
#
# Elastic Constant Matrix: (Units=GPa)
#
#
# Indices 1 2 3 4 5 6 
#
# 1 68.5644 43.3488 39.3537 0.0000 0.0000 0.0000
# 2 43.3488 87.0990 57.8491 0.0000 0.0000 0.0000
# 3 39.3537 57.8491 92.1418 0.0000 0.0000 0.0000
# 4 0.0000 0.0000 0.0000 18.7278 0.0000 0.0000
# 5 0.0000 0.0000 0.0000 0.0000 18.7552 0.0000
# 6 0.0000 0.0000 0.0000 0.0000 0.0000 21.9831
#
#
#
# Elastic Compliance Matrix: (Units=1/GPa)
#
#
# Indices 1 2 3 4 5 6 
#
# 1 0.022265 -0.008174 -0.004378 0.000000 0.000000 0.000000
# 2 -0.008174 0.022693 -0.010757 0.000000 0.000000 0.000000
# 3 -0.004378 -0.010757 0.019476 0.000000 0.000000 0.000000
# 4 0.000000 0.000000 0.000000 0.053396 0.000000 0.000000
# 5 0.000000 0.000000 0.000000 0.000000 0.053318 0.000000
# 6 0.000000 0.000000 0.000000 0.000000 0.000000 0.045490
#
#
# Mechanical properties :
#
#
# Convention : Reuss Voigt Hill
#
# Bulk Modulus (GPa) = 56.12173 58.76759 57.44466
# Shear Modulus (GPa) = 18.57392 19.04347 18.80870
#
# Velocity S-wave (km/s) = 3.38151 3.42399 3.40282
# Velocity P-wave (km/s) = 7.05665 7.19796 7.12765
#
# Compressibility (1/GPa) = 0.01781841
#
# Stress axis : x y z
#
# Youngs Moduli (GPa) = 44.91311 44.06554 51.34561
#
# Poissons Ratio (x) = 0.36018 0.22478
# Poissons Ratio (y) = 0.36711 0.55230
# Poissons Ratio (z) = 0.19662 0.47400
#
# Static dielectric constant tensor:
#      x y z
#    x 1.573640 0.000000 0.000000 
#    y 0.000000 1.517680 0.000000 
#    z 0.000000 0.000000 1.538600 
# 
# From -- ./inp_files/25112.got.cif
#   From: 2010.05.17/outbox.cif.g08.bks.cpg/sg65_13_cif.got.tgz:25112.got - 2010.06.03 17:01:31.
