data_PCOD9488430
_publ_section_title
;
Structure prediction by ZEFSAII (Michael W. Deem and Ramdas Pophale) SiO2 
 PCOD9488430
Probable space group: C M M M
;
_chemical_formula_sum "Si O2"
_cell_formula_units_Z 96
_cell_length_a 33.816591
_cell_length_b 19.341200
_cell_length_c 7.780407
_cell_angle_alpha 90.000000
_cell_angle_beta 90.000000
_cell_angle_gamma 90.000000
_cell_volume 5088.802040
_symmetry_space_group_name_H-M "C M M M"
_symmetry_group_IT_number 65
_symmetry_cell_setting 'orthorhombic'
loop_
_space_group_symop_operation_xyz
x,y,z
-x,-y,z
x,-y,-z
-x,y,-z
-x,-y,-z
x,y,-z
-x,y,z
x,-y,z
1/2+x,1/2+y,z
1/2-x,1/2-y,z
1/2+x,1/2-y,-z
1/2-x,1/2+y,-z
1/2-x,1/2-y,-z
1/2+x,1/2+y,-z
1/2-x,1/2+y,z
1/2+x,1/2-y,z
loop_
_atom_site_type_symbol
_atom_site_label
_atom_site_fract_x
_atom_site_fract_y
_atom_site_fract_z
Si Si1 0.335166 0.421769 0.792653
Si Si2 0.746023 0.080185 0.209326
Si Si3 0.043693 0.713818 0.294911
Si Si4 0.588390 0.078344 0.791589
Si Si5 0.668109 0.152287 0.203914
Si Si6 0.877206 0.215387 0.296556
O O1 0.344253 0.500000 0.734218
O O2 0.290569 0.403632 0.731952
O O3 0.365540 0.362857 0.740414
O O4 0.334167 0.423154 0.000000
O O5 0.710491 0.128315 0.273041
O O6 0.737553 0.000000 0.252133
O O7 0.747062 0.084186 0.000000
O O8 0.042071 0.725048 0.500000
O O9 0.056243 0.634427 0.264662
O O10 0.080249 0.759577 0.225757
O O11 0.000000 0.728009 0.224122
O O12 0.631087 0.106951 0.729725
O O13 0.581522 0.000000 0.734042
O O14 0.588985 0.078489 0.000000
O O15 0.656050 0.231686 0.229183
O O16 0.669507 0.139409 0.000000
O O17 0.878288 0.225543 0.500000
#
# Coordination Sequence:
#
# PCOD9488430 Si02
#       6
#    16  16  16  16  16  16
#     4   9  18  33  52  72  93 118 150 187 226 271
#     4   8  14  26  46  70  93 122 162 198 221 250
#     4   9  19  35  51  66  87 119 157 191 225 271
#     4   9  17  28  44  69  98 125 155 193 232 264
#     4   9  16  28  47  68  93 127 163 193 221 257
#     4  10  20  33  49  69  93 119 149 188 232 276
#
# _framework density 18.864951000000001
#
# number of rings (size 3 to 8) (size 9 to 14) (size 15 to 20)
#    0.000    3.000    0.000    2.000    0.000    4.667 
#    0.000    5.833    0.000    3.000    0.000    3.500 
#    0.000    0.000    0.000    0.000    0.000    0.000 
#
# Total GULP energy -267561.732604 kJ/mol
# GULP energy per Si atom -5574.202763 kJ/mol
# Density = 1.882201 g / cm^3
# Si number density = 18.864951 Si / 1000 Ang^3
#
#
#
# Elastic Constant Matrix: (Units=GPa)
#
#
# Indices 1 2 3 4 5 6 
#
# 1 107.3050 84.5531 2.5261 0.0000 0.0000 0.0000
# 2 84.5531 98.9083 -11.1122 0.0000 0.0000 0.0000
# 3 2.5261 -11.1122 17.8268 0.0000 0.0000 0.0000
# 4 0.0000 0.0000 0.0000 -63.1050 0.0000 0.0000
# 5 0.0000 0.0000 0.0000 0.0000 20.2684 0.0000
# 6 0.0000 0.0000 0.0000 0.0000 0.0000 10.1925
#
#
#
# Elastic Compliance Matrix: (Units=1/GPa)
#
#
# Indices 1 2 3 4 5 6 
#
# 1 0.038022 -0.035602 -0.027580 0.000000 0.000000 0.000000
# 2 -0.035602 0.044208 0.032602 0.000000 0.000000 0.000000
# 3 -0.027580 0.032602 0.080326 0.000000 0.000000 0.000000
# 4 0.000000 0.000000 0.000000 -0.015847 0.000000 0.000000
# 5 0.000000 0.000000 0.000000 0.000000 0.049338 0.000000
# 6 0.000000 0.000000 0.000000 0.000000 0.000000 0.098112
#
#
# Mechanical properties :
#
#
# Convention : Reuss Voigt Hill
#
# Bulk Modulus (GPa) = 9.86248 41.77490 25.81869
# Shear Modulus (GPa) = 12.84959 3.34271 8.09615
#
# Velocity S-wave (km/s) = 2.61269 1.33258 2.07387
# Velocity P-wave (km/s) = 3.78693 4.95580 4.41026
#
# Compressibility (1/GPa) = 0.10139437
#
# Stress axis : x y z
#
# Youngs Moduli (GPa) = 26.30067 22.62033 12.44934
#
# Poissons Ratio (x) = 0.80533 0.34335
# Poissons Ratio (y) = 0.93636 -0.40587
# Poissons Ratio (z) = 0.72537 -0.73746
#
# Static dielectric constant tensor:
#      x y z
#    x 1.676790 0.000000 0.000000 
#    y 0.000000 1.629820 0.000000 
#    z 0.000000 0.000000 1.703470 
# 
# From -- ./inp_files/16322.got.cif
#   From: 2010.05.17/outbox.cif.g08.bks.cpg/sg65_9_cif.got.tgz:16322.got - 2010.06.03 17:01:31.
