data_PCOD9488985
_publ_section_title
;
Structure prediction by ZEFSAII (Michael W. Deem and Ramdas Pophale) SiO2 
 PCOD9488985
Probable space group: C M M M
;
_chemical_formula_sum "Si O2"
_cell_formula_units_Z 104
_cell_length_a 17.720389
_cell_length_b 15.955177
_cell_length_c 17.655329
_cell_angle_alpha 90.000000
_cell_angle_beta 90.000000
_cell_angle_gamma 90.000000
_cell_volume 4991.725473
_symmetry_space_group_name_H-M "C M M M"
_symmetry_group_IT_number 65
_symmetry_cell_setting 'orthorhombic'
loop_
_space_group_symop_operation_xyz
x,y,z
-x,-y,z
x,-y,-z
-x,y,-z
-x,-y,-z
x,y,-z
-x,y,z
x,-y,z
1/2+x,1/2+y,z
1/2-x,1/2-y,z
1/2+x,1/2-y,-z
1/2-x,1/2+y,-z
1/2-x,1/2-y,-z
1/2+x,1/2+y,-z
1/2-x,1/2+y,z
1/2+x,1/2-y,z
loop_
_atom_site_type_symbol
_atom_site_label
_atom_site_fract_x
_atom_site_fract_y
_atom_site_fract_z
Si Si1 0.583347 0.840975 0.839013
Si Si2 0.867259 0.903245 0.303127
Si Si3 0.500000 0.396853 0.588519
Si Si4 0.198648 0.601642 0.285506
Si Si5 0.583676 0.356837 0.860791
Si Si6 0.809339 0.100403 0.000000
Si Si7 0.415444 0.897785 0.413596
Si Si8 0.363343 0.100147 0.000000
O O1 0.500000 0.869786 0.811637
O O2 0.652705 0.872800 0.788956
O O3 0.584280 0.740951 0.840131
O O4 0.595324 0.870089 0.924752
O O5 0.783662 0.865383 0.294727
O O6 0.901282 0.901932 0.218776
O O7 0.926435 0.867432 0.364038
O O8 0.856627 0.000000 0.326569
O O9 0.500000 0.500000 0.590743
O O10 0.500000 0.372526 0.500000
O O11 0.201860 0.500000 0.284594
O O12 0.147519 0.630444 0.355567
O O13 0.500000 0.379428 0.889564
O O14 0.645447 0.373211 0.924923
O O15 0.723282 0.132241 0.000000
O O16 0.806301 0.000000 0.000000
O O17 0.401152 0.872130 0.500000
O O18 0.500000 0.870772 0.391913
O O19 0.415339 0.000000 0.412587
O O20 0.361451 0.000000 0.000000
#
# Coordination Sequence:
#
# PCOD9488985 Si02
#       8
#    16  16   8  16  16   8  16   8
#     4  11  24  39  57  82 112 153 199 237 284 340
#     4  10  20  35  57  84 114 148 185 232 290 342
#     4   9  18  34  58  87 117 151 189 229 283 349
#     4  10  20  33  53  83 114 146 190 237 280 338
#     4  11  23  39  58  82 114 148 191 238 288 341
#     4  11  24  39  60  88 114 145 188 239 294 348
#     4   8  14  26  46  73 106 142 177 221 278 328
#     4  11  24  41  58  82 116 151 192 240 286 334
#
# _framework density 20.834479999999999
#
# number of rings (size 3 to 8) (size 9 to 14) (size 15 to 20)
#    0.000    1.923    0.769    3.692    0.000   10.769 
#    0.000    3.077    0.000    0.923    0.000    2.154 
#    0.000    0.000    0.000    0.000    0.000    0.000 
#
# Total GULP energy -290453.457870 kJ/mol
# GULP energy per Si atom -5585.643421 kJ/mol
# Density = 2.078706 g / cm^3
# Si number density = 20.834480 Si / 1000 Ang^3
#
#
#
# Elastic Constant Matrix: (Units=GPa)
#
#
# Indices 1 2 3 4 5 6 
#
# 1 154.1384 18.4116 67.1958 0.0000 0.0000 0.0000
# 2 18.4116 20.6355 3.1710 0.0000 0.0000 0.0000
# 3 67.1958 3.1710 121.7262 0.0000 0.0000 0.0000
# 4 0.0000 0.0000 0.0000 -128.7271 0.0000 0.0000
# 5 0.0000 0.0000 0.0000 0.0000 31.4942 0.0000
# 6 0.0000 0.0000 0.0000 0.0000 0.0000 23.1262
#
#
#
# Elastic Compliance Matrix: (Units=1/GPa)
#
#
# Indices 1 2 3 4 5 6 
#
# 1 0.009658 -0.007829 -0.005128 0.000000 0.000000 0.000000
# 2 -0.007829 0.055002 0.002889 0.000000 0.000000 0.000000
# 3 -0.005128 0.002889 0.010970 0.000000 0.000000 0.000000
# 4 0.000000 0.000000 0.000000 -0.007768 0.000000 0.000000
# 5 0.000000 0.000000 0.000000 0.000000 0.031752 0.000000
# 6 0.000000 0.000000 0.000000 0.000000 0.000000 0.043241
#
#
# Mechanical properties :
#
#
# Convention : Reuss Voigt Hill
#
# Bulk Modulus (GPa) = 18.01964 52.67297 35.34630
# Shear Modulus (GPa) = 27.54985 -0.97321 13.28832
#
# Velocity S-wave (km/s) = 3.64032 -0.68420 2.52822
# Velocity P-wave (km/s) = 5.13195 4.97115 5.05219
#
# Compressibility (1/GPa) = 0.05549501
#
# Stress axis : x y z
#
# Youngs Moduli (GPa) = 103.53839 18.18117 91.15384
#
# Poissons Ratio (x) = 0.14235 0.46740
# Poissons Ratio (y) = 0.81065 -0.26337
# Poissons Ratio (z) = 0.53091 -0.05253
#
# Static dielectric constant tensor:
#      x y z
#    x 1.770190 0.000000 0.000000 
#    y 0.000000 1.775050 0.000000 
#    z 0.000000 0.000000 1.740140 
# 
# From -- ./inp_files/54646.got.cif
#   From: 2010.05.17/outbox.cif.g08.bks.cpg/sg65_28_cif.got.tgz:54646.got - 2010.06.03 17:01:31.
