data_PCOD9488011
_publ_section_title
;
Structure prediction by ZEFSAII (Michael W. Deem and Ramdas Pophale) SiO2 
 PCOD9488011
Probable space group: C M M M
;
_chemical_formula_sum "Si O2"
_cell_formula_units_Z 104
_cell_length_a 18.476567
_cell_length_b 9.840735
_cell_length_c 34.605428
_cell_angle_alpha 90.000000
_cell_angle_beta 90.000000
_cell_angle_gamma 90.000000
_cell_volume 6292.062720
_symmetry_space_group_name_H-M "C M M M"
_symmetry_group_IT_number 65
_symmetry_cell_setting 'orthorhombic'
loop_
_space_group_symop_operation_xyz
x,y,z
-x,-y,z
x,-y,-z
-x,y,-z
-x,-y,-z
x,y,-z
-x,y,z
x,-y,z
1/2+x,1/2+y,z
1/2-x,1/2-y,z
1/2+x,1/2-y,-z
1/2-x,1/2+y,-z
1/2-x,1/2-y,-z
1/2+x,1/2+y,-z
1/2-x,1/2+y,z
1/2+x,1/2-y,z
loop_
_atom_site_type_symbol
_atom_site_label
_atom_site_fract_x
_atom_site_fract_y
_atom_site_fract_z
Si Si1 0.916704 0.835001 0.543271
Si Si2 0.088022 0.342380 0.765107
Si Si3 0.588016 0.157422 0.851473
Si Si4 0.914301 0.160644 0.076704
Si Si5 0.085674 0.159586 0.693824
Si Si6 0.177640 0.162091 0.000000
Si Si7 0.322171 0.336977 0.383183
O O1 0.894428 0.791476 0.500000
O O2 0.865189 0.794206 0.578139
O O3 0.000000 0.792056 0.549642
O O4 0.917273 0.000000 0.543306
O O5 0.108185 0.500000 0.759395
O O6 0.111687 0.300201 0.808296
O O7 0.112272 0.249134 0.729810
O O8 0.000000 0.336924 0.765227
O O9 0.500000 0.161282 0.851209
O O10 0.611339 0.252363 0.886583
O O11 0.608825 0.000000 0.857419
O O12 0.869643 0.191702 0.038158
O O13 0.000000 0.187598 0.070255
O O14 0.907229 0.000000 0.084870
O O15 0.128197 0.186602 0.654400
O O16 0.000000 0.185907 0.687824
O O17 0.093346 0.000000 0.703123
O O18 0.250000 0.250000 0.000000
O O19 0.193372 0.000000 0.000000
O O20 0.308125 0.500000 0.385303
O O21 0.250000 0.250000 0.379893
#
# Coordination Sequence:
#
# PCOD9488011 Si02
#       7
#    16  16  16  16  16   8  16
#     4   8  14  27  49  73  93 117 153 193 229 269
#     4   8  14  25  42  66  95 122 147 181 228 277
#     4   8  14  25  42  67  97 122 145 180 227 275
#     4   9  17  30  49  71  94 121 153 189 228 270
#     4   9  17  29  46  67  90 118 154 194 229 263
#     4  10  21  35  49  67  93 124 156 190 228 270
#     4  10  20  32  46  67  95 124 154 190 231 273
#
# _framework density 16.528762
#
# number of rings (size 3 to 8) (size 9 to 14) (size 15 to 20)
#    0.000    3.231    0.000    2.077    0.000    4.923 
#    0.000    3.077    0.000    4.615    0.000    1.077 
#    0.000    0.000    0.000    0.000    0.000    0.000 
#
# Total GULP energy -289522.528760 kJ/mol
# GULP energy per Si atom -5567.740938 kJ/mol
# Density = 1.649114 g / cm^3
# Si number density = 16.528762 Si / 1000 Ang^3
#
#
#
# Elastic Constant Matrix: (Units=GPa)
#
#
# Indices 1 2 3 4 5 6 
#
# 1 52.1701 43.3422 68.2924 0.0000 0.0000 0.0000
# 2 43.3422 49.0600 85.3031 0.0000 0.0000 0.0000
# 3 68.2924 85.3031 186.2978 0.0000 0.0000 0.0000
# 4 0.0000 0.0000 0.0000 20.9873 0.0000 0.0000
# 5 0.0000 0.0000 0.0000 0.0000 -3.8792 0.0000
# 6 0.0000 0.0000 0.0000 0.0000 0.0000 21.7694
#
#
#
# Elastic Compliance Matrix: (Units=1/GPa)
#
#
# Indices 1 2 3 4 5 6 
#
# 1 0.079596 -0.096080 0.014816 0.000000 0.000000 0.000000
# 2 -0.096080 0.215970 -0.063669 0.000000 0.000000 0.000000
# 3 0.014816 -0.063669 0.029090 0.000000 0.000000 0.000000
# 4 0.000000 0.000000 0.000000 0.047648 0.000000 0.000000
# 5 0.000000 0.000000 0.000000 0.000000 -0.257788 0.000000
# 6 0.000000 0.000000 0.000000 0.000000 0.000000 0.045936
#
#
# Mechanical properties :
#
#
# Convention : Reuss Voigt Hill
#
# Bulk Modulus (GPa) = 28.74477 75.71147 52.22812
# Shear Modulus (GPa) = 10.82452 13.81485 12.31969
#
# Velocity S-wave (km/s) = 2.56186 2.89417 2.73307
# Velocity P-wave (km/s) = 5.11657 7.55471 6.45186
#
# Compressibility (1/GPa) = 0.03478893
#
# Stress axis : x y z
#
# Youngs Moduli (GPa) = 12.56347 4.63027 34.37651
#
# Poissons Ratio (x) = 0.44488 -0.50932
# Poissons Ratio (y) = 1.20710 2.18871
# Poissons Ratio (z) = -0.18614 0.29480
#
# Static dielectric constant tensor:
#      x y z
#    x 1.536640 0.000000 0.000000 
#    y 0.000000 1.546200 0.000000 
#    z 0.000000 0.000000 1.559570 
# 
# From -- ./inp_files/77665.got.cif
#   From: 2010.05.17/outbox.cif.g08.bks.cpg/sg65_39_cif.got.tgz:77665.got - 2010.06.03 17:01:31.
