data_PCOD9488603
_publ_section_title
;
Structure prediction by ZEFSAII (Michael W. Deem and Ramdas Pophale) SiO2 
 PCOD9488603
Probable space group: C M M M
;
_chemical_formula_sum "Si O2"
_cell_formula_units_Z 90
_cell_length_a 25.323174
_cell_length_b 7.654702
_cell_length_c 20.363837
_cell_angle_alpha 90.000000
_cell_angle_beta 90.000000
_cell_angle_gamma 90.000000
_cell_volume 3947.353669
_symmetry_space_group_name_H-M "C M M M"
_symmetry_group_IT_number 65
_symmetry_cell_setting 'orthorhombic'
loop_
_space_group_symop_operation_xyz
x,y,z
-x,-y,z
x,-y,-z
-x,y,-z
-x,-y,-z
x,y,-z
-x,y,z
x,-y,z
1/2+x,1/2+y,z
1/2-x,1/2-y,z
1/2+x,1/2-y,-z
1/2-x,1/2+y,-z
1/2-x,1/2-y,-z
1/2+x,1/2+y,-z
1/2-x,1/2+y,z
1/2+x,1/2-y,z
loop_
_atom_site_type_symbol
_atom_site_label
_atom_site_fract_x
_atom_site_fract_y
_atom_site_fract_z
Si Si1 0.000000 0.000000 0.500000
Si Si2 0.170278 0.799546 0.259253
Si Si3 0.057402 0.287892 0.784126
Si Si4 0.807406 0.208446 0.886303
Si Si5 0.900880 0.719200 0.500000
Si Si6 0.190882 0.302174 0.404807
Si Si7 0.579768 0.797150 0.929851
O O1 0.952791 0.841917 0.500000
O O2 0.106971 0.787892 0.253625
O O3 0.189870 0.725047 0.189403
O O4 0.187850 0.713631 0.326207
O O5 0.187648 0.000000 0.262425
O O6 0.062727 0.500000 0.784503
O O7 0.060434 0.225558 0.860123
O O8 0.000000 0.243686 0.756933
O O9 0.750000 0.250000 0.913585
O O10 0.856813 0.287506 0.924013
O O11 0.815318 0.000000 0.885194
O O12 0.911597 0.500000 0.500000
O O13 0.861869 0.771804 0.438838
O O14 0.187270 0.500000 0.424214
O O15 0.250000 0.250000 0.424703
O O16 0.563629 0.000000 0.930593
O O17 0.563825 0.718822 0.000000
#
# Coordination Sequence:
#
# PCOD9488603 Si02
#       7
#     2  16  16  16   8  16  16
#     4  12  26  48  84  94 148 196 234 282 326 410
#     4  10  21  36  56  85 118 153 200 245 302 370
#     4   9  18  34  54  77 108 146 189 242 304 365
#     4  10  20  33  50  73 103 140 179 228 285 353
#     4  10  26  48  71 108 142 185 236 282 333 391
#     4  11  23  41  68 100 139 172 216 275 328 390
#     4   9  18  32  50  72  99 133 178 232 289 357
#
# _framework density 22.800084999999999
#
# number of rings (size 3 to 8) (size 9 to 14) (size 15 to 20)
#    0.000    2.133    0.000    2.533    2.489    4.978 
#    1.600    1.778    0.000    0.000    0.000    4.978 
#    0.000    0.000    0.000    0.000    0.000    0.000 
#
# Total GULP energy -250832.065613 kJ/mol
# GULP energy per Si atom -5574.045903 kJ/mol
# Density = 2.274819 g / cm^3
# Si number density = 22.800085 Si / 1000 Ang^3
#
#
#
# Elastic Constant Matrix: (Units=GPa)
#
#
# Indices 1 2 3 4 5 6 
#
# 1 180.2750 21.3040 21.5858 0.0000 0.0000 0.0000
# 2 21.3040 74.4675 14.8548 0.0000 0.0000 0.0000
# 3 21.5858 14.8548 98.3989 0.0000 0.0000 0.0000
# 4 0.0000 0.0000 0.0000 6.2008 0.0000 0.0000
# 5 0.0000 0.0000 0.0000 0.0000 116.1661 0.0000
# 6 0.0000 0.0000 0.0000 0.0000 0.0000 25.5811
#
#
#
# Elastic Compliance Matrix: (Units=1/GPa)
#
#
# Indices 1 2 3 4 5 6 
#
# 1 0.005847 -0.001461 -0.001062 0.000000 0.000000 0.000000
# 2 -0.001461 0.014211 -0.001825 0.000000 0.000000 0.000000
# 3 -0.001062 -0.001825 0.010671 0.000000 0.000000 0.000000
# 4 0.000000 0.000000 0.000000 0.161268 0.000000 0.000000
# 5 0.000000 0.000000 0.000000 0.000000 0.008608 0.000000
# 6 0.000000 0.000000 0.000000 0.000000 0.000000 0.039091
#
#
# Mechanical properties :
#
#
# Convention : Reuss Voigt Hill
#
# Bulk Modulus (GPa) = 45.38617 52.07007 48.72812
# Shear Modulus (GPa) = 19.55136 49.28273 34.41704
#
# Velocity S-wave (km/s) = 2.93151 4.65425 3.88946
# Velocity P-wave (km/s) = 5.60426 7.19514 6.44894
#
# Compressibility (1/GPa) = 0.02203314
#
# Stress axis : x y z
#
# Youngs Moduli (GPa) = 171.03113 70.36992 93.71024
#
# Poissons Ratio (x) = 0.10280 0.09953
# Poissons Ratio (y) = 0.24985 0.17101
# Poissons Ratio (z) = 0.18165 0.12841
#
# Static dielectric constant tensor:
#      x y z
#    x 1.883090 0.000000 0.000000 
#    y 0.000000 1.883320 0.000000 
#    z 0.000000 0.000000 1.867110 
# 
# From -- ./inp_files/65268.got.cif
#   From: 2010.05.17/outbox.cif.g08.bks.cpg/sg65_33_cif.got.tgz:65268.got - 2010.06.03 17:01:31.
