data_PCOD9488176
_publ_section_title
;
Structure prediction by ZEFSAII (Michael W. Deem and Ramdas Pophale) SiO2 
 PCOD9488176
Probable space group: C M M M
;
_chemical_formula_sum "Si O2"
_cell_formula_units_Z 88
_cell_length_a 18.972911
_cell_length_b 8.180783
_cell_length_c 31.273474
_cell_angle_alpha 90.000000
_cell_angle_beta 90.000000
_cell_angle_gamma 90.000000
_cell_volume 4854.058094
_symmetry_space_group_name_H-M "C M M M"
_symmetry_group_IT_number 65
_symmetry_cell_setting 'orthorhombic'
loop_
_space_group_symop_operation_xyz
x,y,z
-x,-y,z
x,-y,-z
-x,y,-z
-x,-y,-z
x,y,-z
-x,y,z
x,-y,z
1/2+x,1/2+y,z
1/2-x,1/2-y,z
1/2+x,1/2-y,-z
1/2-x,1/2+y,-z
1/2-x,1/2-y,-z
1/2+x,1/2+y,-z
1/2-x,1/2+y,z
1/2+x,1/2-y,z
loop_
_atom_site_type_symbol
_atom_site_label
_atom_site_fract_x
_atom_site_fract_y
_atom_site_fract_z
Si Si1 0.669730 0.694737 0.782750
Si Si2 0.420063 0.805848 0.863176
Si Si3 0.084868 0.685787 0.605182
Si Si4 0.082777 0.196479 0.046128
Si Si5 0.668593 0.302617 0.686758
Si Si6 0.414290 0.500000 0.450942
O O1 0.668108 0.500000 0.782410
O O2 0.750000 0.750000 0.789019
O O3 0.622639 0.754501 0.821654
O O4 0.647431 0.749074 0.734997
O O5 0.500000 0.737083 0.860883
O O6 0.386991 0.754013 0.908730
O O7 0.424323 0.000000 0.863681
O O8 0.102132 0.500000 0.590845
O O9 0.121248 0.721210 0.650513
O O10 0.107000 0.833835 0.573694
O O11 0.000000 0.694908 0.609406
O O12 0.000000 0.246990 0.046529
O O13 0.084458 0.000000 0.046149
O O14 0.112313 0.252699 0.000000
O O15 0.663443 0.500000 0.683415
O O16 0.750000 0.250000 0.681090
O O17 0.500000 0.500000 0.451326
O O18 0.390178 0.500000 0.500000
#
# Coordination Sequence:
#
# PCOD9488176 Si02
#       6
#    16  16  16  16  16   8
#     4  10  21  36  54  74 101 136 175 215 257 313
#     4  10  20  32  48  73 104 135 168 210 258 305
#     4  10  20  34  55  84 114 145 183 226 270 316
#     4   8  14  26  45  68  94 125 163 206 251 304
#     4  10  20  35  55  79 105 139 180 221 267 320
#     4   9  18  34  56  82 114 148 183 225 268 318
#
# _framework density 18.129159999999999
#
# number of rings (size 3 to 8) (size 9 to 14) (size 15 to 20)
#    0.000    2.455    0.909    2.182    0.000    4.727 
#    0.000    7.273    0.000    1.091    0.000    0.000 
#    0.000    0.000    0.000    0.000    0.000    0.000 
#
# Total GULP energy -245196.944124 kJ/mol
# GULP energy per Si atom -5572.657821 kJ/mol
# Density = 1.808790 g / cm^3
# Si number density = 18.129160 Si / 1000 Ang^3
#
#
#
# Elastic Constant Matrix: (Units=GPa)
#
#
# Indices 1 2 3 4 5 6 
#
# 1 20.6539 21.4456 48.5454 0.0000 0.0000 0.0000
# 2 21.4456 89.9767 67.9983 0.0000 0.0000 0.0000
# 3 48.5454 67.9983 186.5204 0.0000 0.0000 0.0000
# 4 0.0000 0.0000 0.0000 14.4992 0.0000 0.0000
# 5 0.0000 0.0000 0.0000 0.0000 -28.8844 0.0000
# 6 0.0000 0.0000 0.0000 0.0000 0.0000 22.1803
#
#
#
# Elastic Compliance Matrix: (Units=1/GPa)
#
#
# Indices 1 2 3 4 5 6 
#
# 1 0.128146 -0.007367 -0.030667 0.000000 0.000000 0.000000
# 2 -0.007367 0.015764 -0.003829 0.000000 0.000000 0.000000
# 3 -0.030667 -0.003829 0.014739 0.000000 0.000000 0.000000
# 4 0.000000 0.000000 0.000000 0.068969 0.000000 0.000000
# 5 0.000000 0.000000 0.000000 0.000000 -0.034621 0.000000
# 6 0.000000 0.000000 0.000000 0.000000 0.000000 0.045085
#
#
# Mechanical properties :
#
#
# Convention : Reuss Voigt Hill
#
# Bulk Modulus (GPa) = 13.34716 63.68106 38.51411
# Shear Modulus (GPa) = 14.41821 12.16980 13.29400
#
# Velocity S-wave (km/s) = 2.82317 2.59372 2.71088
# Velocity P-wave (km/s) = 4.24327 6.64624 5.57574
#
# Compressibility (1/GPa) = 0.07492233
#
# Stress axis : x y z
#
# Youngs Moduli (GPa) = 7.80359 63.43550 67.84744
#
# Poissons Ratio (x) = 0.46736 2.08065
# Poissons Ratio (y) = 0.05749 0.25982
# Poissons Ratio (z) = 0.23931 0.24292
#
# Static dielectric constant tensor:
#      x y z
#    x 1.593910 0.000000 0.000000 
#    y 0.000000 1.633870 0.000000 
#    z 0.000000 0.000000 1.643850 
# 
# From -- ./inp_files/77785.got.cif
#   From: 2010.05.17/outbox.cif.g08.bks.cpg/sg65_39_cif.got.tgz:77785.got - 2010.06.03 17:01:31.
