data_PCOD9488429
_publ_section_title
;
Structure prediction by ZEFSAII (Michael W. Deem and Ramdas Pophale) SiO2 
 PCOD9488429
Probable space group: C M M M
;
_chemical_formula_sum "Si O2"
_cell_formula_units_Z 88
_cell_length_a 7.844348
_cell_length_b 25.876235
_cell_length_c 22.791935
_cell_angle_alpha 90.000000
_cell_angle_beta 90.000000
_cell_angle_gamma 90.000000
_cell_volume 4626.356932
_symmetry_space_group_name_H-M "C M M M"
_symmetry_group_IT_number 65
_symmetry_cell_setting 'orthorhombic'
loop_
_space_group_symop_operation_xyz
x,y,z
-x,-y,z
x,-y,-z
-x,y,-z
-x,-y,-z
x,y,-z
-x,y,z
x,-y,z
1/2+x,1/2+y,z
1/2-x,1/2-y,z
1/2+x,1/2-y,-z
1/2-x,1/2+y,-z
1/2-x,1/2-y,-z
1/2+x,1/2+y,-z
1/2-x,1/2+y,z
1/2+x,1/2-y,z
loop_
_atom_site_type_symbol
_atom_site_label
_atom_site_fract_x
_atom_site_fract_y
_atom_site_fract_z
Si Si1 0.704821 0.890370 0.935138
Si Si2 0.705938 0.500000 0.756034
Si Si3 0.207877 0.083787 0.339411
Si Si4 0.202140 0.807456 0.162210
Si Si5 0.705466 0.307784 0.295891
Si Si6 0.297990 0.000000 0.108671
Si Si7 0.708646 0.500000 0.567029
O O1 0.500000 0.893733 0.937891
O O2 0.743177 0.850165 0.883938
O O3 0.772751 0.947080 0.918126
O O4 0.766738 0.874879 0.000000
O O5 0.500000 0.500000 0.759477
O O6 0.756720 0.449824 0.717938
O O7 0.774722 0.500000 0.821403
O O8 0.266005 0.142801 0.332991
O O9 0.262500 0.050420 0.395723
O O10 0.000000 0.083931 0.340492
O O11 0.250000 0.750000 0.141991
O O12 0.270865 0.813765 0.228696
O O13 0.000000 0.810544 0.166912
O O14 0.500000 0.310455 0.294476
O O15 0.750000 0.250000 0.316319
O O16 0.500000 0.000000 0.096110
O O17 0.500000 0.500000 0.566759
O O18 0.766295 0.500000 0.500000
#
# Coordination Sequence:
#
# PCOD9488429 Si02
#       7
#    16   8  16  16  16   8   8
#     4  10  21  36  51  66  88 120 154 187 227 277
#     4   9  16  28  47  68  90 116 144 182 234 283
#     4   8  14  25  42  65  93 121 149 184 226 266
#     4  10  20  34  52  72  92 116 149 189 233 279
#     4   9  17  29  45  66  92 120 147 179 223 271
#     4  10  20  33  49  69  93 119 149 188 232 276
#     4   8  13  22  40  67  95 123 155 189 222 255
#
# _framework density 19.021446000000001
#
# number of rings (size 3 to 8) (size 9 to 14) (size 15 to 20)
#    0.000    2.818    0.000    3.000    0.000    4.727 
#    0.000    0.909    0.000    2.182    0.000    0.000 
#    0.000   12.364    0.000    0.000    0.000    0.000 
#
# Total GULP energy -245368.596649 kJ/mol
# GULP energy per Si atom -5576.559015 kJ/mol
# Density = 1.897815 g / cm^3
# Si number density = 19.021446 Si / 1000 Ang^3
#
#
#
# Elastic Constant Matrix: (Units=GPa)
#
#
# Indices 1 2 3 4 5 6 
#
# 1 20.8486 8.2908 4.6391 0.0000 0.0000 0.0000
# 2 8.2908 183.8055 71.1206 0.0000 0.0000 0.0000
# 3 4.6391 71.1206 82.3218 0.0000 0.0000 0.0000
# 4 0.0000 0.0000 0.0000 1.4395 0.0000 0.0000
# 5 0.0000 0.0000 0.0000 0.0000 -19.2802 0.0000
# 6 0.0000 0.0000 0.0000 0.0000 0.0000 15.0472
#
#
#
# Elastic Compliance Matrix: (Units=1/GPa)
#
#
# Indices 1 2 3 4 5 6 
#
# 1 0.048930 -0.001713 -0.001278 0.000000 0.000000 0.000000
# 2 -0.001713 0.008232 -0.007016 0.000000 0.000000 0.000000
# 3 -0.001278 -0.007016 0.018281 0.000000 0.000000 0.000000
# 4 0.000000 0.000000 0.000000 0.694704 0.000000 0.000000
# 5 0.000000 0.000000 0.000000 0.000000 -0.051867 0.000000
# 6 0.000000 0.000000 0.000000 0.000000 0.000000 0.066458
#
#
# Mechanical properties :
#
#
# Convention : Reuss Voigt Hill
#
# Bulk Modulus (GPa) = 18.04045 50.56410 34.30227
# Shear Modulus (GPa) = 6.07365 12.96963 9.52164
#
# Velocity S-wave (km/s) = 1.78885 2.61404 2.23978
# Velocity P-wave (km/s) = 3.71100 5.97924 4.97609
#
# Compressibility (1/GPa) = 0.05543100
#
# Stress axis : x y z
#
# Youngs Moduli (GPa) = 20.43722 121.47097 54.70274
#
# Poissons Ratio (x) = 0.20804 0.06990
# Poissons Ratio (y) = 0.03500 0.38378
# Poissons Ratio (z) = 0.02611 0.85221
#
# Static dielectric constant tensor:
#      x y z
#    x 1.691610 0.000000 0.000000 
#    y 0.000000 1.661230 0.000000 
#    z 0.000000 0.000000 1.644690 
# 
# From -- ./inp_files/67642.got.cif
#   From: 2010.05.17/outbox.cif.g08.bks.cpg/sg65_34_cif.got.tgz:67642.got - 2010.06.03 17:01:31.
