data_PCOD9488297
_publ_section_title
;
Structure prediction by ZEFSAII (Michael W. Deem and Ramdas Pophale) SiO2 
 PCOD9488297
Probable space group: C M M M
;
_chemical_formula_sum "Si O2"
_cell_formula_units_Z 56
_cell_length_a 26.093768
_cell_length_b 13.437765
_cell_length_c 8.641313
_cell_angle_alpha 90.000000
_cell_angle_beta 90.000000
_cell_angle_gamma 90.000000
_cell_volume 3030.006602
_symmetry_space_group_name_H-M "C M M M"
_symmetry_group_IT_number 65
_symmetry_cell_setting 'orthorhombic'
loop_
_space_group_symop_operation_xyz
x,y,z
-x,-y,z
x,-y,-z
-x,y,-z
-x,-y,-z
x,y,-z
-x,y,z
x,-y,z
1/2+x,1/2+y,z
1/2-x,1/2-y,z
1/2+x,1/2-y,-z
1/2-x,1/2+y,-z
1/2-x,1/2-y,-z
1/2+x,1/2+y,-z
1/2-x,1/2+y,z
1/2+x,1/2-y,z
loop_
_atom_site_type_symbol
_atom_site_label
_atom_site_fract_x
_atom_site_fract_y
_atom_site_fract_z
Si Si1 0.147790 0.391262 0.183361
Si Si2 0.560016 0.500000 0.185367
Si Si3 0.756494 0.867235 0.677316
Si Si4 0.631021 0.671456 0.686368
O O1 0.126209 0.500000 0.235935
O O2 0.208528 0.397928 0.220313
O O3 0.128969 0.286964 0.258224
O O4 0.139901 0.383570 0.000000
O O5 0.500000 0.500000 0.224892
O O6 0.587125 0.400984 0.251799
O O7 0.565363 0.500000 0.000000
O O8 0.751645 0.902030 0.500000
O O9 0.750000 0.750000 0.668239
O O10 0.814454 0.878639 0.735673
O O11 0.631486 0.672201 0.500000
#
# Coordination Sequence:
#
# PCOD9488297 Si02
#       4
#    16   8  16  16
#     4  10  20  32  50  81 118 155 190 226 273 331
#     4  11  25  43  63  85 109 141 183 237 296 345
#     4   8  16  30  47  72 107 148 189 225 266 322
#     4  10  21  37  57  81 109 147 190 234 283 332
#
# _framework density 18.481808000000001
#
# number of rings (size 3 to 8) (size 9 to 14) (size 15 to 20)
#    0.000    2.429    0.000    3.857    2.000    9.714 
#    0.000    0.000    0.000    0.857    0.000    6.000 
#    0.000    0.000    0.000    0.000    0.000    0.000 
#
# Total GULP energy -155888.369271 kJ/mol
# GULP energy per Si atom -5567.441760 kJ/mol
# Density = 1.843974 g / cm^3
# Si number density = 18.481808 Si / 1000 Ang^3
#
#
#
# Elastic Constant Matrix: (Units=GPa)
#
#
# Indices 1 2 3 4 5 6 
#
# 1 98.9976 59.9047 30.2197 0.0000 0.0000 0.0000
# 2 59.9047 199.4504 41.6103 0.0000 0.0000 0.0000
# 3 30.2197 41.6103 45.6945 0.0000 0.0000 0.0000
# 4 0.0000 0.0000 0.0000 44.9006 0.0000 0.0000
# 5 0.0000 0.0000 0.0000 0.0000 21.1290 0.0000
# 6 0.0000 0.0000 0.0000 0.0000 0.0000 26.9238
#
#
#
# Elastic Compliance Matrix: (Units=1/GPa)
#
#
# Indices 1 2 3 4 5 6 
#
# 1 0.013789 -0.002764 -0.006602 0.000000 0.000000 0.000000
# 2 -0.002764 0.006744 -0.004313 0.000000 0.000000 0.000000
# 3 -0.006602 -0.004313 0.030178 0.000000 0.000000 0.000000
# 4 0.000000 0.000000 0.000000 0.022271 0.000000 0.000000
# 5 0.000000 0.000000 0.000000 0.000000 0.047328 0.000000
# 6 0.000000 0.000000 0.000000 0.000000 0.000000 0.037142
#
#
# Mechanical properties :
#
#
# Convention : Reuss Voigt Hill
#
# Bulk Modulus (GPa) = 42.82199 67.51244 55.16722
# Shear Modulus (GPa) = 25.96108 32.75121 29.35615
#
# Velocity S-wave (km/s) = 3.75198 4.21417 3.98977
# Velocity P-wave (km/s) = 6.47996 7.76450 7.15113
#
# Compressibility (1/GPa) = 0.02335249
#
# Stress axis : x y z
#
# Youngs Moduli (GPa) = 72.51999 148.28462 33.13640
#
# Poissons Ratio (x) = 0.40989 0.21878
# Poissons Ratio (y) = 0.20046 0.14292
# Poissons Ratio (z) = 0.47880 0.63954
#
# Static dielectric constant tensor:
#      x y z
#    x 1.636700 0.000000 0.000000 
#    y 0.000000 1.687500 0.000000 
#    z 0.000000 0.000000 1.625100 
# 
# From -- ./inp_files/13246.got.cif
#   From: 2010.05.17/outbox.cif.g08.bks.cpg/sg65_7_cif.got.tgz:13246.got - 2010.06.03 17:01:31.
