data_PCOD9488250
_publ_section_title
;
Structure prediction by ZEFSAII (Michael W. Deem and Ramdas Pophale) SiO2 
 PCOD9488250
Probable space group: C M M M
;
_chemical_formula_sum "Si O2"
_cell_formula_units_Z 72
_cell_length_a 9.144679
_cell_length_b 19.184063
_cell_length_c 23.397478
_cell_angle_alpha 90.000000
_cell_angle_beta 90.000000
_cell_angle_gamma 90.000000
_cell_volume 4104.668655
_symmetry_space_group_name_H-M "C M M M"
_symmetry_group_IT_number 65
_symmetry_cell_setting 'orthorhombic'
loop_
_space_group_symop_operation_xyz
x,y,z
-x,-y,z
x,-y,-z
-x,y,-z
-x,-y,-z
x,y,-z
-x,y,z
x,-y,z
1/2+x,1/2+y,z
1/2-x,1/2-y,z
1/2+x,1/2-y,-z
1/2-x,1/2+y,-z
1/2-x,1/2-y,-z
1/2+x,1/2+y,-z
1/2-x,1/2+y,z
1/2+x,1/2-y,z
loop_
_atom_site_type_symbol
_atom_site_label
_atom_site_fract_x
_atom_site_fract_y
_atom_site_fract_z
Si Si1 0.329603 0.084692 0.436540
Si Si2 0.829044 0.083802 0.678541
Si Si3 0.672977 0.823897 0.771438
Si Si4 0.326131 0.582985 0.000000
Si Si5 0.674201 0.175376 0.905685
O O1 0.281637 0.107938 0.500000
O O2 0.500000 0.103824 0.428879
O O3 0.234893 0.107711 0.382676
O O4 0.324191 0.000000 0.437059
O O5 0.741724 0.119447 0.729648
O O6 0.000000 0.100712 0.682637
O O7 0.813174 0.000000 0.681519
O O8 0.500000 0.817993 0.761819
O O9 0.750000 0.750000 0.760397
O O10 0.695879 0.840631 0.838501
O O11 0.250171 0.618385 0.054642
O O12 0.305339 0.500000 0.000000
O O13 0.500000 0.597474 0.000000
O O14 0.500000 0.179575 0.916713
O O15 0.750000 0.250000 0.917293
#
# Coordination Sequence:
#
# PCOD9488250 Si02
#       5
#    16  16  16   8  16
#     4   8  14  26  45  69  98 133 173 216 260 307
#     4  10  20  32  49  76 108 140 174 215 262 311
#     4  10  21  37  57  79 104 137 176 217 261 310
#     4  11  24  39  56  81 113 145 174 211 260 307
#     4  10  21  38  60  82 105 137 177 218 258 307
#
# _framework density 17.541001999999999
#
# number of rings (size 3 to 8) (size 9 to 14) (size 15 to 20)
#    0.000    2.333    0.000    3.333    0.000    6.222 
#    0.000    6.667    0.000    0.667    0.000    0.000 
#    0.000    0.000    0.000    0.000    0.000    0.000 
#
# Total GULP energy -200871.070796 kJ/mol
# GULP energy per Si atom -5579.751967 kJ/mol
# Density = 1.750108 g / cm^3
# Si number density = 17.541002 Si / 1000 Ang^3
#
#
#
# Elastic Constant Matrix: (Units=GPa)
#
#
# Indices 1 2 3 4 5 6 
#
# 1 134.7987 63.2623 95.6674 0.0000 0.0000 0.0000
# 2 63.2623 51.1055 61.9600 0.0000 0.0000 0.0000
# 3 95.6674 61.9600 113.6975 0.0000 0.0000 0.0000
# 4 0.0000 0.0000 0.0000 59.0610 0.0000 0.0000
# 5 0.0000 0.0000 0.0000 0.0000 24.7889 0.0000
# 6 0.0000 0.0000 0.0000 0.0000 0.0000 28.9080
#
#
#
# Elastic Compliance Matrix: (Units=1/GPa)
#
#
# Indices 1 2 3 4 5 6 
#
# 1 0.021204 -0.013608 -0.010426 0.000000 0.000000 0.000000
# 2 -0.013608 0.066402 -0.024737 0.000000 0.000000 0.000000
# 3 -0.010426 -0.024737 0.031048 0.000000 0.000000 0.000000
# 4 0.000000 0.000000 0.000000 0.016932 0.000000 0.000000
# 5 0.000000 0.000000 0.000000 0.000000 0.040341 0.000000
# 6 0.000000 0.000000 0.000000 0.000000 0.000000 0.034592
#
#
# Mechanical properties :
#
#
# Convention : Reuss Voigt Hill
#
# Bulk Modulus (GPa) = 47.36119 82.37567 64.86843
# Shear Modulus (GPa) = 15.86808 27.79903 21.83356
#
# Velocity S-wave (km/s) = 3.01097 3.98528 3.53188
# Velocity P-wave (km/s) = 6.25674 8.26077 7.32759
#
# Compressibility (1/GPa) = 0.02111434
#
# Stress axis : x y z
#
# Youngs Moduli (GPa) = 47.16083 15.05968 32.20794
#
# Poissons Ratio (x) = 0.20493 0.33580
# Poissons Ratio (y) = 0.64175 0.79672
# Poissons Ratio (z) = 0.49170 0.37253
#
# Static dielectric constant tensor:
#      x y z
#    x 1.581660 0.000000 0.000000 
#    y 0.000000 1.569500 0.000000 
#    z 0.000000 0.000000 1.600790 
# 
# From -- ./inp_files/66985.got.cif
#   From: 2010.05.17/outbox.cif.g08.bks.cpg/sg65_34_cif.got.tgz:66985.got - 2010.06.03 17:01:31.
