data_PCOD9488156
_publ_section_title
;
Structure prediction by ZEFSAII (Michael W. Deem and Ramdas Pophale) SiO2 
 PCOD9488156
Probable space group: C M M M
;
_chemical_formula_sum "Si O2"
_cell_formula_units_Z 104
_cell_length_a 24.393855
_cell_length_b 26.674709
_cell_length_c 7.520588
_cell_angle_alpha 90.000000
_cell_angle_beta 90.000000
_cell_angle_gamma 90.000000
_cell_volume 4893.638967
_symmetry_space_group_name_H-M "C M M M"
_symmetry_group_IT_number 65
_symmetry_cell_setting 'orthorhombic'
loop_
_space_group_symop_operation_xyz
x,y,z
-x,-y,z
x,-y,-z
-x,y,-z
-x,-y,-z
x,y,-z
-x,y,z
x,-y,z
1/2+x,1/2+y,z
1/2-x,1/2-y,z
1/2+x,1/2-y,-z
1/2-x,1/2+y,-z
1/2-x,1/2-y,-z
1/2+x,1/2+y,-z
1/2-x,1/2+y,z
1/2+x,1/2-y,z
loop_
_atom_site_type_symbol
_atom_site_label
_atom_site_fract_x
_atom_site_fract_y
_atom_site_fract_z
Si Si1 0.334460 0.787598 0.206452
Si Si2 0.842755 0.177669 0.794771
Si Si3 0.436986 0.150035 0.284435
Si Si4 0.861930 0.556997 0.282591
Si Si5 0.066746 0.000000 0.205146
Si Si6 0.562986 0.390994 0.781168
Si Si7 0.761895 0.619886 0.299543
O O1 0.326855 0.731804 0.280844
O O2 0.397565 0.805385 0.219202
O O3 0.299749 0.830387 0.301835
O O4 0.316308 0.789312 0.000000
O O5 0.896408 0.151794 0.717273
O O6 0.793743 0.137735 0.790103
O O7 0.855583 0.189212 0.000000
O O8 0.436306 0.151282 0.500000
O O9 0.500000 0.153187 0.226375
O O10 0.407630 0.097800 0.229065
O O11 0.860855 0.557752 0.500000
O O12 0.872243 0.500000 0.226777
O O13 0.802518 0.577807 0.222400
O O14 0.082137 0.946144 0.281617
O O15 0.000000 0.000000 0.203486
O O16 0.085302 0.000000 0.000000
O O17 0.500000 0.383120 0.730225
O O18 0.564226 0.392276 0.000000
O O19 0.747707 0.605034 0.500000
#
# Coordination Sequence:
#
# PCOD9488156 Si02
#       7
#    16  16  16  16   8  16  16
#     4  10  20  33  50  70  97 133 167 204 248 292
#     4  10  20  32  48  73 100 125 160 205 248 293
#     4   9  18  32  51  77 105 133 168 207 246 293
#     4   8  15  30  51  73  98 129 165 204 245 292
#     4   7  10  20  40  62  85 117 151 181 218 265
#     4   8  14  26  44  66  93 123 155 191 231 279
#     4  10  20  34  52  72  95 127 165 204 246 296
#
# _framework density 21.252078000000001
#
# number of rings (size 3 to 8) (size 9 to 14) (size 15 to 20)
#    0.000    3.000    0.000    3.231    0.000    4.308 
#    1.385    3.077    0.000   11.538    0.000    4.308 
#    0.000    1.846    0.000    0.000    0.000    0.000 
#
# Total GULP energy -289950.700139 kJ/mol
# GULP energy per Si atom -5575.975003 kJ/mol
# Density = 2.120371 g / cm^3
# Si number density = 21.252078 Si / 1000 Ang^3
#
#
#
# Elastic Constant Matrix: (Units=GPa)
#
#
# Indices 1 2 3 4 5 6 
#
# 1 68.2761 -2.0710 -9.0745 0.0000 0.0000 0.0000
# 2 -2.0710 12.1040 -2.4863 0.0000 0.0000 0.0000
# 3 -9.0745 -2.4863 57.0707 0.0000 0.0000 0.0000
# 4 0.0000 0.0000 0.0000 2.3900 0.0000 0.0000
# 5 0.0000 0.0000 0.0000 0.0000 18.9359 0.0000
# 6 0.0000 0.0000 0.0000 0.0000 0.0000 16.0088
#
#
#
# Elastic Compliance Matrix: (Units=1/GPa)
#
#
# Indices 1 2 3 4 5 6 
#
# 1 0.015077 0.003100 0.002532 0.000000 0.000000 0.000000
# 2 0.003100 0.084001 0.004152 0.000000 0.000000 0.000000
# 3 0.002532 0.004152 0.018106 0.000000 0.000000 0.000000
# 4 0.000000 0.000000 0.000000 0.418415 0.000000 0.000000
# 5 0.000000 0.000000 0.000000 0.000000 0.052810 0.000000
# 6 0.000000 0.000000 0.000000 0.000000 0.000000 0.062465
#
#
# Mechanical properties :
#
#
# Convention : Reuss Voigt Hill
#
# Bulk Modulus (GPa) = 7.31249 12.24303 9.77776
# Shear Modulus (GPa) = 7.38674 17.53912 12.46293
#
# Velocity S-wave (km/s) = 1.86637 2.87590 2.42427
# Velocity P-wave (km/s) = 2.84477 4.09892 3.52802
#
# Compressibility (1/GPa) = 0.13675237
#
# Stress axis : x y z
#
# Youngs Moduli (GPa) = 66.32616 11.90468 55.23127
#
# Poissons Ratio (x) = -0.03690 -0.13987
# Poissons Ratio (y) = -0.20560 -0.22934
# Poissons Ratio (z) = -0.16796 -0.04943
#
# Static dielectric constant tensor:
#      x y z
#    x 1.751690 0.000000 0.000000 
#    y 0.000000 1.778790 0.000000 
#    z 0.000000 0.000000 1.813960 
# 
# From -- ./inp_files/14808.got.cif
#   From: 2010.05.17/outbox.cif.g08.bks.cpg/sg65_8_cif.got.tgz:14808.got - 2010.06.03 17:01:31.
