data_PCOD9488969
_publ_section_title
;
Structure prediction by ZEFSAII (Michael W. Deem and Ramdas Pophale) SiO2 
 PCOD9488969
Probable space group: C M M M
;
_chemical_formula_sum "Si O2"
_cell_formula_units_Z 90
_cell_length_a 8.222847
_cell_length_b 25.661539
_cell_length_c 23.865998
_cell_angle_alpha 90.000000
_cell_angle_beta 90.000000
_cell_angle_gamma 90.000000
_cell_volume 5035.985932
_symmetry_space_group_name_H-M "C M M M"
_symmetry_group_IT_number 65
_symmetry_cell_setting 'orthorhombic'
loop_
_space_group_symop_operation_xyz
x,y,z
-x,-y,z
x,-y,-z
-x,y,-z
-x,-y,-z
x,y,-z
-x,y,z
x,-y,z
1/2+x,1/2+y,z
1/2-x,1/2-y,z
1/2+x,1/2-y,-z
1/2-x,1/2+y,-z
1/2-x,1/2-y,-z
1/2+x,1/2+y,-z
1/2-x,1/2+y,z
1/2+x,1/2-y,z
loop_
_atom_site_type_symbol
_atom_site_label
_atom_site_fract_x
_atom_site_fract_y
_atom_site_fract_z
Si Si1 0.805707 0.000000 0.410679
Si Si2 0.305402 0.192514 0.717596
Si Si3 0.808922 0.000000 0.101974
Si Si4 0.193799 0.692938 0.845989
Si Si5 0.500000 0.000000 0.500000
Si Si6 0.814393 0.500000 0.225072
Si Si7 0.189929 0.917660 0.312659
Si Si8 0.803474 0.888927 0.062305
O O1 0.788567 0.949684 0.370064
O O2 0.650509 0.000000 0.452033
O O3 0.000000 0.000000 0.430432
O O4 0.500000 0.191733 0.717349
O O5 0.250000 0.250000 0.698514
O O6 0.245379 0.185664 0.782050
O O7 0.243215 0.142223 0.684393
O O8 0.790763 0.000000 0.169008
O O9 0.740767 0.053274 0.076747
O O10 0.000000 0.000000 0.087892
O O11 0.250000 0.750000 0.864678
O O12 0.252467 0.649812 0.888854
O O13 0.000000 0.691732 0.843713
O O14 0.781474 0.449672 0.263950
O O15 0.000000 0.500000 0.206549
O O16 0.000000 0.920274 0.298304
O O17 0.000000 0.890183 0.062084
O O18 0.749217 0.873040 0.000000
#
# Coordination Sequence:
#
# PCOD9488969 Si02
#       8
#     8  16   8  16   2   8  16  16
#     4   9  22  38  57  91 125 157 203 246 281 333
#     4  10  20  33  53  80 113 145 182 220 270 336
#     4  10  20  35  53  72  97 130 169 207 265 331
#     4  10  21  36  53  75 100 132 169 216 268 326
#     4  12  22  36  68  86 124 168 202 240 294 316
#     4  11  21  31  50  77 107 141 173 214 271 341
#     4  10  20  35  54  80 118 150 184 230 275 321
#     4  10  21  36  53  71  92 124 168 218 267 323
#
# _framework density 17.871376999999999
#
# number of rings (size 3 to 8) (size 9 to 14) (size 15 to 20)
#    0.000    1.956    0.000    4.400    3.733    7.467 
#    0.000    0.000    0.000    1.600    0.000    0.622 
#    0.000    0.000    0.000    0.000    0.000    0.000 
#
# Total GULP energy -250816.267096 kJ/mol
# GULP energy per Si atom -5573.694824 kJ/mol
# Density = 1.783070 g / cm^3
# Si number density = 17.871377 Si / 1000 Ang^3
#
#
#
# Elastic Constant Matrix: (Units=GPa)
#
#
# Indices 1 2 3 4 5 6 
#
# 1 52.1083 29.2041 20.8676 0.0000 0.0000 0.0000
# 2 29.2041 143.4137 41.8206 0.0000 0.0000 0.0000
# 3 20.8676 41.8206 52.9361 0.0000 0.0000 0.0000
# 4 0.0000 0.0000 0.0000 -2.0846 0.0000 0.0000
# 5 0.0000 0.0000 0.0000 0.0000 24.5014 0.0000
# 6 0.0000 0.0000 0.0000 0.0000 0.0000 21.7754
#
#
#
# Elastic Compliance Matrix: (Units=1/GPa)
#
#
# Indices 1 2 3 4 5 6 
#
# 1 0.023576 -0.002717 -0.007147 0.000000 0.000000 0.000000
# 2 -0.002717 0.009373 -0.006334 0.000000 0.000000 0.000000
# 3 -0.007147 -0.006334 0.026712 0.000000 0.000000 0.000000
# 4 0.000000 0.000000 0.000000 -0.479716 0.000000 0.000000
# 5 0.000000 0.000000 0.000000 0.000000 0.040814 0.000000
# 6 0.000000 0.000000 0.000000 0.000000 0.000000 0.045923
#
#
# Mechanical properties :
#
#
# Convention : Reuss Voigt Hill
#
# Bulk Modulus (GPa) = 36.67725 48.02696 42.35211
# Shear Modulus (GPa) = -17.13304 19.27617 1.07156
#
# Velocity S-wave (km/s) = -3.09962 3.28778 0.77518
# Velocity P-wave (km/s) = 2.78518 6.42998 4.95489
#
# Compressibility (1/GPa) = 0.02726486
#
# Stress axis : x y z
#
# Youngs Moduli (GPa) = 42.41671 106.68843 37.43600
#
# Poissons Ratio (x) = 0.28983 0.26757
# Poissons Ratio (y) = 0.11523 0.23712
# Poissons Ratio (z) = 0.30317 0.67577
#
# Static dielectric constant tensor:
#      x y z
#    x 1.630020 0.000000 0.000000 
#    y 0.000000 1.616840 0.000000 
#    z 0.000000 0.000000 1.593440 
# 
# From -- ./inp_files/67715.got.cif
#   From: 2010.05.17/outbox.cif.g08.bks.cpg/sg65_34_cif.got.tgz:67715.got - 2010.06.03 17:01:31.
