data_PCOD9488069
_publ_section_title
;
Structure prediction by ZEFSAII (Michael W. Deem and Ramdas Pophale) SiO2 
 PCOD9488069
Probable space group: C M M M
;
_chemical_formula_sum "Si O2"
_cell_formula_units_Z 80
_cell_length_a 27.949010
_cell_length_b 8.525498
_cell_length_c 19.062308
_cell_angle_alpha 90.000000
_cell_angle_beta 90.000000
_cell_angle_gamma 90.000000
_cell_volume 4542.152050
_symmetry_space_group_name_H-M "C M M M"
_symmetry_group_IT_number 65
_symmetry_cell_setting 'orthorhombic'
loop_
_space_group_symop_operation_xyz
x,y,z
-x,-y,z
x,-y,-z
-x,y,-z
-x,-y,-z
x,y,-z
-x,y,z
x,-y,z
1/2+x,1/2+y,z
1/2-x,1/2-y,z
1/2+x,1/2-y,-z
1/2-x,1/2+y,-z
1/2-x,1/2-y,-z
1/2+x,1/2+y,-z
1/2-x,1/2+y,z
1/2+x,1/2-y,z
loop_
_atom_site_type_symbol
_atom_site_label
_atom_site_fract_x
_atom_site_fract_y
_atom_site_fract_z
Si Si1 0.349192 0.190210 0.146874
Si Si2 0.303957 0.189703 0.000000
Si Si3 0.302455 0.313182 0.288392
Si Si4 0.103559 0.688198 0.358960
Si Si5 0.444556 0.688000 0.500000
Si Si6 0.553329 0.190698 0.785401
O O1 0.330301 0.240988 0.071235
O O2 0.317172 0.253963 0.210625
O O3 0.403802 0.239390 0.163149
O O4 0.347331 0.000000 0.150164
O O5 0.250000 0.250000 0.000000
O O6 0.303562 0.000000 0.000000
O O7 0.302372 0.500000 0.289076
O O8 0.250000 0.250000 0.306125
O O9 0.343737 0.250439 0.340076
O O10 0.105048 0.500000 0.360874
O O11 0.082113 0.751625 0.430768
O O12 0.069917 0.735208 0.293063
O O13 0.444157 0.500000 0.500000
O O14 0.500000 0.741589 0.500000
O O15 0.500000 0.247924 0.801287
O O16 0.552168 0.000000 0.787126
#
# Coordination Sequence:
#
# PCOD9488069 Si02
#       6
#    16   8  16  16   8  16
#     4   9  18  32  49  73 103 134 172 215 258 309
#     4  10  20  32  47  69  99 133 170 216 265 312
#     4  11  21  35  55  78 104 135 172 215 264 315
#     4  10  20  35  55  79 106 138 178 218 257 307
#     4  11  23  37  54  81 116 147 175 213 261 309
#     4   8  14  27  49  74  99 129 166 208 252 299
#
# _framework density 17.612797
#
# number of rings (size 3 to 8) (size 9 to 14) (size 15 to 20)
#    0.000    2.300    0.000    5.100    0.000    4.000 
#    0.000    1.000    0.000    8.400    0.000    0.000 
#    0.000    7.200    0.000    0.000    0.000    0.000 
#
# Total GULP energy -223221.989040 kJ/mol
# GULP energy per Si atom -5580.549726 kJ/mol
# Density = 1.757271 g / cm^3
# Si number density = 17.612797 Si / 1000 Ang^3
#
#
#
# Elastic Constant Matrix: (Units=GPa)
#
#
# Indices 1 2 3 4 5 6 
#
# 1 179.6218 35.9607 98.8232 0.0000 0.0000 0.0000
# 2 35.9607 49.2987 34.9258 0.0000 0.0000 0.0000
# 3 98.8232 34.9258 153.3696 0.0000 0.0000 0.0000
# 4 0.0000 0.0000 0.0000 20.9380 0.0000 0.0000
# 5 0.0000 0.0000 0.0000 0.0000 0.9892 0.0000
# 6 0.0000 0.0000 0.0000 0.0000 0.0000 21.3050
#
#
#
# Elastic Compliance Matrix: (Units=1/GPa)
#
#
# Indices 1 2 3 4 5 6 
#
# 1 0.008963 -0.002917 -0.005111 0.000000 0.000000 0.000000
# 2 -0.002917 0.025136 -0.003844 0.000000 0.000000 0.000000
# 3 -0.005111 -0.003844 0.010689 0.000000 0.000000 0.000000
# 4 0.000000 0.000000 0.000000 0.047760 0.000000 0.000000
# 5 0.000000 0.000000 0.000000 0.000000 1.010927 0.000000
# 6 0.000000 0.000000 0.000000 0.000000 0.000000 0.046937
#
#
# Mechanical properties :
#
#
# Convention : Reuss Voigt Hill
#
# Bulk Modulus (GPa) = 47.52210 80.18995 63.85602
# Shear Modulus (GPa) = 4.23308 22.81847 13.52577
#
# Velocity S-wave (km/s) = 1.55198 3.60330 2.77420
# Velocity P-wave (km/s) = 5.50015 7.93347 6.82611
#
# Compressibility (1/GPa) = 0.02104284
#
# Stress axis : x y z
#
# Youngs Moduli (GPa) = 111.56586 39.78363 93.55406
#
# Poissons Ratio (x) = 0.11606 0.47817
# Poissons Ratio (y) = 0.32546 0.35965
# Poissons Ratio (z) = 0.57023 0.15294
#
# Static dielectric constant tensor:
#      x y z
#    x 1.598030 0.000000 0.000000 
#    y 0.000000 1.603550 0.000000 
#    z 0.000000 0.000000 1.574560 
# 
# From -- ./inp_files/49958.got.cif
#   From: 2010.05.17/outbox.cif.g08.bks.cpg/sg65_25_cif.got.tgz:49958.got - 2010.06.03 17:01:31.
