data_PCOD9488003
_publ_section_title
;
Structure prediction by ZEFSAII (Michael W. Deem and Ramdas Pophale) SiO2 
 PCOD9488003
Probable space group: C M M M
;
_chemical_formula_sum "Si O2"
_cell_formula_units_Z 64
_cell_length_a 18.820597
_cell_length_b 7.635930
_cell_length_c 21.946998
_cell_angle_alpha 90.000000
_cell_angle_beta 90.000000
_cell_angle_gamma 90.000000
_cell_volume 3154.063684
_symmetry_space_group_name_H-M "C M M M"
_symmetry_group_IT_number 65
_symmetry_cell_setting 'orthorhombic'
loop_
_space_group_symop_operation_xyz
x,y,z
-x,-y,z
x,-y,-z
-x,y,-z
-x,-y,-z
x,y,-z
-x,y,z
x,-y,z
1/2+x,1/2+y,z
1/2-x,1/2-y,z
1/2+x,1/2-y,-z
1/2-x,1/2+y,-z
1/2-x,1/2-y,-z
1/2+x,1/2+y,-z
1/2-x,1/2+y,z
1/2+x,1/2-y,z
loop_
_atom_site_type_symbol
_atom_site_label
_atom_site_fract_x
_atom_site_fract_y
_atom_site_fract_z
Si Si1 0.581208 0.208981 0.367687
Si Si2 0.417352 0.214667 0.132721
Si Si3 0.919076 0.207852 0.500000
Si Si4 0.586437 0.204267 0.000000
Si Si5 0.667109 0.210464 0.748917
O O1 0.500000 0.278872 0.366207
O O2 0.612774 0.240471 0.434995
O O3 0.627422 0.277578 0.311635
O O4 0.576455 0.000000 0.360611
O O5 0.500000 0.263476 0.141512
O O6 0.392317 0.277796 0.065850
O O7 0.370417 0.274667 0.189305
O O8 0.416067 0.000000 0.130972
O O9 0.000000 0.282679 0.500000
O O10 0.923414 0.000000 0.500000
O O11 0.500000 0.208325 0.000000
O O12 0.607756 0.000000 0.000000
O O13 0.750000 0.250000 0.747779
O O14 0.659182 0.000000 0.749253
#
# Coordination Sequence:
#
# PCOD9488003 Si02
#       5
#    16  16   8   8  16
#     4   9  17  31  51  71  90 117 154 191 225 265
#     4   8  13  24  44  68  91 117 153 194 231 267
#     4   9  17  29  48  75 100 117 139 181 234 279
#     4   7  10  18  37  66  93 113 142 191 238 266
#     4  10  20  32  46  66  94 125 155 189 228 270
#
# _framework density 20.291283
#
# number of rings (size 3 to 8) (size 9 to 14) (size 15 to 20)
#    0.000    3.250    0.000    2.625    0.000    5.500 
#    0.000    1.250    0.000    2.250    0.000    0.000 
#    0.000    3.000    0.000    0.000    0.000    0.000 
#
# Total GULP energy -178304.733605 kJ/mol
# GULP energy per Si atom -5572.022925 kJ/mol
# Density = 2.024510 g / cm^3
# Si number density = 20.291283 Si / 1000 Ang^3
#
#
#
# Elastic Constant Matrix: (Units=GPa)
#
#
# Indices 1 2 3 4 5 6 
#
# 1 81.3646 0.6947 101.6781 0.0000 0.0000 0.0000
# 2 0.6947 40.9519 8.8713 0.0000 0.0000 0.0000
# 3 101.6781 8.8713 267.9078 0.0000 0.0000 0.0000
# 4 0.0000 0.0000 0.0000 -12.2110 0.0000 0.0000
# 5 0.0000 0.0000 0.0000 0.0000 -39.4864 0.0000
# 6 0.0000 0.0000 0.0000 0.0000 0.0000 15.3238
#
#
#
# Elastic Compliance Matrix: (Units=1/GPa)
#
#
# Indices 1 2 3 4 5 6 
#
# 1 0.023474 0.001543 -0.008960 0.000000 0.000000 0.000000
# 2 0.001543 0.024697 -0.001403 0.000000 0.000000 0.000000
# 3 -0.008960 -0.001403 0.007180 0.000000 0.000000 0.000000
# 4 0.000000 0.000000 0.000000 -0.081893 0.000000 0.000000
# 5 0.000000 0.000000 0.000000 0.000000 -0.025325 0.000000
# 6 0.000000 0.000000 0.000000 0.000000 0.000000 0.065258
#
#
# Mechanical properties :
#
#
# Convention : Reuss Voigt Hill
#
# Bulk Modulus (GPa) = 26.51859 68.07917 47.29888
# Shear Modulus (GPa) = 114.67420 11.32396 62.99908
#
# Velocity S-wave (km/s) = 7.52574 2.36491 5.57806
# Velocity P-wave (km/s) = 9.41344 6.40944 8.05276
#
# Compressibility (1/GPa) = 0.03770940
#
# Stress axis : x y z
#
# Youngs Moduli (GPa) = 42.59947 40.49119 139.28044
#
# Poissons Ratio (x) = -0.06247 1.24799
# Poissons Ratio (y) = -0.06572 0.19546
# Poissons Ratio (z) = 0.38170 0.05682
#
# Static dielectric constant tensor:
#      x y z
#    x 1.669710 0.000000 0.000000 
#    y 0.000000 1.763930 0.000000 
#    z 0.000000 0.000000 1.769410 
# 
# From -- ./inp_files/58837.got.cif
#   From: 2010.05.17/outbox.cif.g08.bks.cpg/sg65_30_cif.got.tgz:58837.got - 2010.06.03 17:01:31.
