data_PCOD9488294
_publ_section_title
;
Structure prediction by ZEFSAII (Michael W. Deem and Ramdas Pophale) SiO2 
 PCOD9488294
Probable space group: C M M M
;
_chemical_formula_sum "Si O2"
_cell_formula_units_Z 72
_cell_length_a 11.489772
_cell_length_b 18.549300
_cell_length_c 16.352154
_cell_angle_alpha 90.000000
_cell_angle_beta 90.000000
_cell_angle_gamma 90.000000
_cell_volume 3485.089250
_symmetry_space_group_name_H-M "C M M M"
_symmetry_group_IT_number 65
_symmetry_cell_setting 'orthorhombic'
loop_
_space_group_symop_operation_xyz
x,y,z
-x,-y,z
x,-y,-z
-x,y,-z
-x,-y,-z
x,y,-z
-x,y,z
x,-y,z
1/2+x,1/2+y,z
1/2-x,1/2-y,z
1/2+x,1/2-y,-z
1/2-x,1/2+y,-z
1/2-x,1/2-y,-z
1/2+x,1/2+y,-z
1/2-x,1/2+y,z
1/2+x,1/2-y,z
loop_
_atom_site_type_symbol
_atom_site_label
_atom_site_fract_x
_atom_site_fract_y
_atom_site_fract_z
Si Si1 0.130427 0.851365 0.092787
Si Si2 0.632456 0.579721 0.642237
Si Si3 0.361919 0.696210 0.500000
Si Si4 0.195996 0.420813 0.203153
Si Si5 0.625034 0.235319 0.761489
O O1 0.225026 0.907835 0.123548
O O2 0.132356 0.785702 0.157873
O O3 0.000000 0.882070 0.096624
O O4 0.151763 0.827179 0.000000
O O5 0.500000 0.583950 0.673072
O O6 0.646169 0.500000 0.603440
O O7 0.649771 0.643069 0.577865
O O8 0.717698 0.582183 0.718868
O O9 0.500000 0.723347 0.500000
O O10 0.250000 0.750000 0.500000
O O11 0.140917 0.500000 0.201924
O O12 0.123054 0.348228 0.213487
O O13 0.500000 0.251621 0.720111
O O14 0.750000 0.250000 0.718300
#
# Coordination Sequence:
#
# PCOD9488294 Si02
#       5
#    16  16   8  16  16
#     4   9  18  33  52  73 101 142 188 228 267 315
#     4   9  18  35  58  81 108 145 186 222 260 315
#     4  10  21  37  59  87 115 142 176 222 272 318
#     4  10  20  32  50  79 111 140 174 221 274 323
#     4   9  19  35  54  75 101 138 182 223 264 315
#
# _framework density 20.659441999999999
#
# number of rings (size 3 to 8) (size 9 to 14) (size 15 to 20)
#    0.000    2.667    0.000    1.000    0.000   11.111 
#    0.000    6.667    0.000    2.667    0.000    9.333 
#    0.000    0.000    0.000    0.000    0.000    0.000 
#
# Total GULP energy -200600.888065 kJ/mol
# GULP energy per Si atom -5572.246891 kJ/mol
# Density = 2.061242 g / cm^3
# Si number density = 20.659442 Si / 1000 Ang^3
#
#
#
# Elastic Constant Matrix: (Units=GPa)
#
#
# Indices 1 2 3 4 5 6 
#
# 1 143.5617 37.5550 18.5263 0.0000 0.0000 0.0000
# 2 37.5550 137.7816 11.2467 0.0000 0.0000 0.0000
# 3 18.5263 11.2467 55.4429 0.0000 0.0000 0.0000
# 4 0.0000 0.0000 0.0000 18.7597 0.0000 0.0000
# 5 0.0000 0.0000 0.0000 0.0000 -57.1343 0.0000
# 6 0.0000 0.0000 0.0000 0.0000 0.0000 -15.9262
#
#
#
# Elastic Compliance Matrix: (Units=1/GPa)
#
#
# Indices 1 2 3 4 5 6 
#
# 1 0.007755 -0.001934 -0.002199 0.000000 0.000000 0.000000
# 2 -0.001934 0.007863 -0.000949 0.000000 0.000000 0.000000
# 3 -0.002199 -0.000949 0.018964 0.000000 0.000000 0.000000
# 4 0.000000 0.000000 0.000000 0.053306 0.000000 0.000000
# 5 0.000000 0.000000 0.000000 0.000000 -0.017503 0.000000
# 6 0.000000 0.000000 0.000000 0.000000 0.000000 -0.062789
#
#
# Mechanical properties :
#
#
# Convention : Reuss Voigt Hill
#
# Bulk Modulus (GPa) = 40.95386 52.38248 46.66817
# Shear Modulus (GPa) = 193.05921 7.10371 100.08146
#
# Velocity S-wave (km/s) = 9.67736 1.85633 6.96768
# Velocity P-wave (km/s) = 12.03057 5.47767 9.34718
#
# Compressibility (1/GPa) = 0.02441773
#
# Stress axis : x y z
#
# Youngs Moduli (GPa) = 128.94136 127.18521 52.73202
#
# Poissons Ratio (x) = 0.24603 0.11596
# Poissons Ratio (y) = 0.24942 0.05002
# Poissons Ratio (z) = 0.28355 0.12064
#
# Static dielectric constant tensor:
#      x y z
#    x 1.772670 0.000000 0.000000 
#    y 0.000000 1.781740 0.000000 
#    z 0.000000 0.000000 1.706150 
# 
# From -- ./inp_files/51142.got.cif
#   From: 2010.05.17/outbox.cif.g08.bks.cpg/sg65_26_cif.got.tgz:51142.got - 2010.06.03 17:01:31.
