data_PCOD9488346
_publ_section_title
;
Structure prediction by ZEFSAII (Michael W. Deem and Ramdas Pophale) SiO2 
 PCOD9488346
Probable space group: C M M M
;
_chemical_formula_sum "Si O2"
_cell_formula_units_Z 96
_cell_length_a 28.520803
_cell_length_b 9.012338
_cell_length_c 26.558522
_cell_angle_alpha 90.000000
_cell_angle_beta 90.000000
_cell_angle_gamma 90.000000
_cell_volume 6826.579035
_symmetry_space_group_name_H-M "C M M M"
_symmetry_group_IT_number 65
_symmetry_cell_setting 'orthorhombic'
loop_
_space_group_symop_operation_xyz
x,y,z
-x,-y,z
x,-y,-z
-x,y,-z
-x,-y,-z
x,y,-z
-x,y,z
x,-y,z
1/2+x,1/2+y,z
1/2-x,1/2-y,z
1/2+x,1/2-y,-z
1/2-x,1/2+y,-z
1/2-x,1/2-y,-z
1/2+x,1/2+y,-z
1/2-x,1/2+y,z
1/2+x,1/2-y,z
loop_
_atom_site_type_symbol
_atom_site_label
_atom_site_fract_x
_atom_site_fract_y
_atom_site_fract_z
Si Si1 0.442846 0.328604 0.103109
Si Si2 0.943013 0.670444 0.205720
Si Si3 0.442874 0.828656 0.000000
Si Si4 0.056265 0.824633 0.309959
Si Si5 0.394080 0.822328 0.595463
Si Si6 0.800064 0.175874 0.560208
Si Si7 0.556234 0.673796 0.500000
O O1 0.500000 0.325538 0.103147
O O2 0.428667 0.500000 0.104869
O O3 0.427320 0.242546 0.153184
O O4 0.427660 0.252286 0.051133
O O5 0.927680 0.500000 0.210224
O O6 0.930017 0.764869 0.254801
O O7 0.000000 0.670056 0.204394
O O8 0.500000 0.825598 0.000000
O O9 0.428611 0.000000 0.000000
O O10 0.082652 0.734910 0.353194
O O11 0.000000 0.803513 0.315544
O O12 0.065644 0.000000 0.314513
O O13 0.341906 0.757524 0.588877
O O14 0.423613 0.753677 0.549214
O O15 0.394006 0.000000 0.592823
O O16 0.808435 0.194097 0.500000
O O17 0.750000 0.250000 0.571400
O O18 0.799537 0.000000 0.570741
O O19 0.570630 0.500000 0.500000
O O20 0.500000 0.679782 0.500000
#
# Coordination Sequence:
#
# PCOD9488346 Si02
#       7
#    16  16   8  16  16  16   8
#     4   9  15  22  32  46  65  90 121 158 202 249
#     4   9  16  26  39  54  72  96 129 168 207 246
#     4   9  15  21  29  43  63  87 117 157 204 247
#     4  10  20  33  47  62  83 112 144 177 213 252
#     4  12  23  34  50  70  91 113 140 172 209 252
#     4  10  20  35  55  74  94 114 136 166 204 249
#     4  11  23  37  50  65  88 117 145 173 209 251
#
# _framework density 14.06268
#
# number of rings (size 3 to 8) (size 9 to 14) (size 15 to 20)
#    0.000    2.000    0.833    4.500    0.000    9.333 
#    0.000    0.000    0.000    0.000    0.000    0.000 
#    0.000    0.000    0.000    0.000    0.000    0.000 
#
# Total GULP energy -267785.686147 kJ/mol
# GULP energy per Si atom -5578.868461 kJ/mol
# Density = 1.403067 g / cm^3
# Si number density = 14.062680 Si / 1000 Ang^3
#
#
#
# Elastic Constant Matrix: (Units=GPa)
#
#
# Indices 1 2 3 4 5 6 
#
# 1 42.3298 40.5713 32.8943 0.0000 0.0000 0.0000
# 2 40.5713 141.0036 67.9106 0.0000 0.0000 0.0000
# 3 32.8943 67.9106 118.3205 0.0000 0.0000 0.0000
# 4 0.0000 0.0000 0.0000 29.1303 0.0000 0.0000
# 5 0.0000 0.0000 0.0000 0.0000 0.1153 0.0000
# 6 0.0000 0.0000 0.0000 0.0000 0.0000 16.5398
#
#
#
# Elastic Compliance Matrix: (Units=1/GPa)
#
#
# Indices 1 2 3 4 5 6 
#
# 1 0.034998 -0.007441 -0.005459 0.000000 0.000000 0.000000
# 2 -0.007441 0.011383 -0.004465 0.000000 0.000000 0.000000
# 3 -0.005459 -0.004465 0.012532 0.000000 0.000000 0.000000
# 4 0.000000 0.000000 0.000000 0.034329 0.000000 0.000000
# 5 0.000000 0.000000 0.000000 0.000000 8.674059 0.000000
# 6 0.000000 0.000000 0.000000 0.000000 0.000000 0.060460
#
#
# Mechanical properties :
#
#
# Convention : Reuss Voigt Hill
#
# Bulk Modulus (GPa) = 41.35025 64.93402 53.14214
# Shear Modulus (GPa) = 0.56366 19.84226 10.20296
#
# Velocity S-wave (km/s) = 0.63379 3.76039 2.69650
# Velocity P-wave (km/s) = 5.47756 8.07025 6.89683
#
# Compressibility (1/GPa) = 0.02418365
#
# Stress axis : x y z
#
# Youngs Moduli (GPa) = 28.57306 87.84730 79.79591
#
# Poissons Ratio (x) = 0.65366 0.43562
# Poissons Ratio (y) = 0.21261 0.35628
# Poissons Ratio (z) = 0.15598 0.39223
#
# Static dielectric constant tensor:
#      x y z
#    x 1.432560 0.000000 0.000000 
#    y 0.000000 1.468570 0.000000 
#    z 0.000000 0.000000 1.456070 
# 
# From -- ./inp_files/71691.got.cif
#   From: 2010.05.17/outbox.cif.g08.bks.cpg/sg65_36_cif.got.tgz:71691.got - 2010.06.03 17:01:31.
