data_PCOD9488731
_publ_section_title
;
Structure prediction by ZEFSAII (Michael W. Deem and Ramdas Pophale) SiO2 
 PCOD9488731
Probable space group: C M M M
;
_chemical_formula_sum "Si O2"
_cell_formula_units_Z 80
_cell_length_a 18.981123
_cell_length_b 27.319097
_cell_length_c 8.711251
_cell_angle_alpha 90.000000
_cell_angle_beta 90.000000
_cell_angle_gamma 90.000000
_cell_volume 4517.194295
_symmetry_space_group_name_H-M "C M M M"
_symmetry_group_IT_number 65
_symmetry_cell_setting 'orthorhombic'
loop_
_space_group_symop_operation_xyz
x,y,z
-x,-y,z
x,-y,-z
-x,y,-z
-x,-y,-z
x,y,-z
-x,y,z
x,-y,z
1/2+x,1/2+y,z
1/2-x,1/2-y,z
1/2+x,1/2-y,-z
1/2-x,1/2+y,-z
1/2-x,1/2-y,-z
1/2+x,1/2+y,-z
1/2-x,1/2+y,z
1/2+x,1/2-y,z
loop_
_atom_site_type_symbol
_atom_site_label
_atom_site_fract_x
_atom_site_fract_y
_atom_site_fract_z
Si Si1 0.642400 0.055222 0.816334
Si Si2 0.919599 0.346185 0.683669
Si Si3 0.281543 0.197085 0.816441
Si Si4 0.920456 0.941491 0.182425
Si Si5 0.219876 0.099242 0.318848
O O1 0.598473 0.098589 0.737921
O O2 0.723232 0.065014 0.767322
O O3 0.621544 0.000000 0.772756
O O4 0.636516 0.059968 0.000000
O O5 0.911758 0.343764 0.500000
O O6 0.861611 0.311378 0.761210
O O7 0.000000 0.334231 0.724560
O O8 0.250000 0.250000 0.778498
O O9 0.237683 0.153982 0.735965
O O10 0.278401 0.190354 0.000000
O O11 0.858621 0.915481 0.273262
O O12 0.000000 0.926735 0.226334
O O13 0.914957 0.000000 0.204833
O O14 0.912074 0.932334 0.000000
O O15 0.231206 0.094781 0.500000
#
# Coordination Sequence:
#
# PCOD9488731 Si02
#       5
#    16  16  16  16  16
#     4  10  20  33  51  75 104 141 181 215 248 294
#     4  10  21  36  55  80 109 139 169 207 258 309
#     4  10  21  38  60  81 100 130 173 216 258 305
#     4   9  18  33  52  73 101 139 178 215 256 302
#     4  11  21  32  51  77 105 136 169 212 263 311
#
# _framework density 17.710108000000002
#
# number of rings (size 3 to 8) (size 9 to 14) (size 15 to 20)
#    0.000    2.000    0.000    7.200    0.000    8.400 
#    0.000    4.000    0.000    1.200    0.000    0.000 
#    0.000    0.000    0.000    0.000    0.000    0.000 
#
# Total GULP energy -223336.738667 kJ/mol
# GULP energy per Si atom -5583.418467 kJ/mol
# Density = 1.766980 g / cm^3
# Si number density = 17.710108 Si / 1000 Ang^3
#
#
#
# Elastic Constant Matrix: (Units=GPa)
#
#
# Indices 1 2 3 4 5 6 
#
# 1 99.4824 27.4919 19.6254 0.0000 0.0000 0.0000
# 2 27.4919 64.5101 14.5122 0.0000 0.0000 0.0000
# 3 19.6254 14.5122 38.2207 0.0000 0.0000 0.0000
# 4 0.0000 0.0000 0.0000 -337.4358 0.0000 0.0000
# 5 0.0000 0.0000 0.0000 0.0000 31.7893 0.0000
# 6 0.0000 0.0000 0.0000 0.0000 0.0000 7.0709
#
#
#
# Elastic Compliance Matrix: (Units=1/GPa)
#
#
# Indices 1 2 3 4 5 6 
#
# 1 0.012107 -0.004112 -0.004655 0.000000 0.000000 0.000000
# 2 -0.004112 0.018346 -0.004854 0.000000 0.000000 0.000000
# 3 -0.004655 -0.004854 0.030397 0.000000 0.000000 0.000000
# 4 0.000000 0.000000 0.000000 -0.002964 0.000000 0.000000
# 5 0.000000 0.000000 0.000000 0.000000 0.031457 0.000000
# 6 0.000000 0.000000 0.000000 0.000000 0.000000 0.141424
#
#
# Mechanical properties :
#
#
# Convention : Reuss Voigt Hill
#
# Bulk Modulus (GPa) = 29.75604 36.16357 32.95981
# Shear Modulus (GPa) = 18.57263 -50.34288 -15.88513
#
# Velocity S-wave (km/s) = 3.24188 -5.33739 -2.99817
# Velocity P-wave (km/s) = 5.55439 4.18565 2.58182
#
# Compressibility (1/GPa) = 0.03360662
#
# Stress axis : x y z
#
# Youngs Moduli (GPa) = 82.59824 54.50789 32.89765
#
# Poissons Ratio (x) = 0.22415 0.15314
# Poissons Ratio (y) = 0.33966 0.15970
# Poissons Ratio (z) = 0.38451 0.26460
#
# Static dielectric constant tensor:
#      x y z
#    x 1.606570 0.000000 0.000000 
#    y 0.000000 1.584870 0.000000 
#    z 0.000000 0.000000 1.593710 
# 
# From -- ./inp_files/9662.got.cif
#   From: 2010.05.17/outbox.cif.g08.bks.cpg/sg65_5_cif.got.tgz:9662.got - 2010.06.03 17:01:31.
