data_PCOD9488161
_publ_section_title
;
Structure prediction by ZEFSAII (Michael W. Deem and Ramdas Pophale) SiO2 
 PCOD9488161
Probable space group: C M M M
;
_chemical_formula_sum "Si O2"
_cell_formula_units_Z 96
_cell_length_a 31.713283
_cell_length_b 15.137704
_cell_length_c 9.748411
_cell_angle_alpha 90.000000
_cell_angle_beta 90.000000
_cell_angle_gamma 90.000000
_cell_volume 4679.883511
_symmetry_space_group_name_H-M "C M M M"
_symmetry_group_IT_number 65
_symmetry_cell_setting 'orthorhombic'
loop_
_space_group_symop_operation_xyz
x,y,z
-x,-y,z
x,-y,-z
-x,y,-z
-x,-y,-z
x,y,-z
-x,y,z
x,-y,z
1/2+x,1/2+y,z
1/2-x,1/2-y,z
1/2+x,1/2-y,-z
1/2-x,1/2+y,-z
1/2-x,1/2-y,-z
1/2+x,1/2+y,-z
1/2-x,1/2+y,z
1/2+x,1/2-y,z
loop_
_atom_site_type_symbol
_atom_site_label
_atom_site_fract_x
_atom_site_fract_y
_atom_site_fract_z
Si Si1 0.702464 0.891562 0.342186
Si Si2 0.452250 0.134808 0.345617
Si Si3 0.875187 0.894021 0.844843
Si Si4 0.453380 0.347181 0.343715
Si Si5 0.280926 0.392197 0.158461
Si Si6 0.374040 0.896043 0.845655
O O1 0.701023 0.862353 0.500000
O O2 0.744617 0.863648 0.262059
O O3 0.662266 0.860106 0.254224
O O4 0.701956 0.000000 0.344589
O O5 0.439683 0.105580 0.500000
O O6 0.500000 0.103565 0.318994
O O7 0.454086 0.240966 0.348601
O O8 0.418590 0.110610 0.231134
O O9 0.913879 0.871488 0.748212
O O10 0.828302 0.863673 0.802113
O O11 0.872803 0.000000 0.849854
O O12 0.882920 0.862120 0.000000
O O13 0.448216 0.379501 0.500000
O O14 0.500000 0.376572 0.294130
O O15 0.280258 0.500000 0.158910
O O16 0.272833 0.365687 0.000000
O O17 0.364693 0.000000 0.858869
O O18 0.374227 0.858473 0.000000
#
# Coordination Sequence:
#
# PCOD9488161 Si02
#       6
#    16  16  16  16  16  16
#     4   9  16  26  43  68  96 126 160 194 230 277
#     4   9  19  36  54  70  92 125 163 200 240 288
#     4   9  18  31  48  73 102 130 161 198 240 285
#     4   9  19  35  52  70  94 126 163 201 242 288
#     4   8  14  26  43  64  94 128 158 191 233 279
#     4  10  20  32  48  73 102 128 156 194 239 284
#
# _framework density 20.513331999999998
#
# number of rings (size 3 to 8) (size 9 to 14) (size 15 to 20)
#    0.000    3.000    0.000    3.000    0.000    6.000 
#    0.000    6.667    0.000    1.000    0.000    7.000 
#    0.000    0.000    0.000    0.000    0.000    0.000 
#
# Total GULP energy -267752.943562 kJ/mol
# GULP energy per Si atom -5578.186324 kJ/mol
# Density = 2.046664 g / cm^3
# Si number density = 20.513332 Si / 1000 Ang^3
#
#
#
# Elastic Constant Matrix: (Units=GPa)
#
#
# Indices 1 2 3 4 5 6 
#
# 1 180.0601 4.5186 140.3079 0.0000 0.0000 0.0000
# 2 4.5186 32.9045 7.5471 0.0000 0.0000 0.0000
# 3 140.3079 7.5471 176.5238 0.0000 0.0000 0.0000
# 4 0.0000 0.0000 0.0000 33.8316 0.0000 0.0000
# 5 0.0000 0.0000 0.0000 0.0000 41.1956 0.0000
# 6 0.0000 0.0000 0.0000 0.0000 0.0000 41.3514
#
#
#
# Elastic Compliance Matrix: (Units=1/GPa)
#
#
# Indices 1 2 3 4 5 6 
#
# 1 0.014605 0.000663 -0.011637 0.000000 0.000000 0.000000
# 2 0.000663 0.030722 -0.001841 0.000000 0.000000 0.000000
# 3 -0.011637 -0.001841 0.014993 0.000000 0.000000 0.000000
# 4 0.000000 0.000000 0.000000 0.029558 0.000000 0.000000
# 5 0.000000 0.000000 0.000000 0.000000 0.024274 0.000000
# 6 0.000000 0.000000 0.000000 0.000000 0.000000 0.024183
#
#
# Mechanical properties :
#
#
# Convention : Reuss Voigt Hill
#
# Bulk Modulus (GPa) = 28.82548 77.13726 52.98137
# Shear Modulus (GPa) = 28.48554 39.08339 33.78447
#
# Velocity S-wave (km/s) = 3.73048 4.36967 4.06267
# Velocity P-wave (km/s) = 5.71296 7.94631 6.92032
#
# Compressibility (1/GPa) = 0.03469153
#
# Stress axis : x y z
#
# Youngs Moduli (GPa) = 68.47068 32.54991 66.69756
#
# Poissons Ratio (x) = -0.02160 0.77615
# Poissons Ratio (y) = -0.04543 0.12278
# Poissons Ratio (z) = 0.79678 0.05992
#
# Static dielectric constant tensor:
#      x y z
#    x 1.721390 0.000000 0.000000 
#    y 0.000000 1.776470 0.000000 
#    z 0.000000 0.000000 1.710320 
# 
# From -- ./inp_files/12269.got.cif
#   From: 2010.05.17/outbox.cif.g08.bks.cpg/sg65_7_cif.got.tgz:12269.got - 2010.06.03 17:01:31.
