data_PCOD9488957
_publ_section_title
;
Structure prediction by ZEFSAII (Michael W. Deem and Ramdas Pophale) SiO2 
 PCOD9488957
Probable space group: C M M M
;
_chemical_formula_sum "Si O2"
_cell_formula_units_Z 100
_cell_length_a 7.300600
_cell_length_b 29.026265
_cell_length_c 19.084643
_cell_angle_alpha 90.000000
_cell_angle_beta 90.000000
_cell_angle_gamma 90.000000
_cell_volume 4044.210481
_symmetry_space_group_name_H-M "C M M M"
_symmetry_group_IT_number 65
_symmetry_cell_setting 'orthorhombic'
loop_
_space_group_symop_operation_xyz
x,y,z
-x,-y,z
x,-y,-z
-x,y,-z
-x,-y,-z
x,y,-z
-x,y,z
x,-y,z
1/2+x,1/2+y,z
1/2-x,1/2-y,z
1/2+x,1/2-y,-z
1/2-x,1/2+y,-z
1/2-x,1/2-y,-z
1/2+x,1/2+y,-z
1/2-x,1/2+y,z
1/2+x,1/2-y,z
loop_
_atom_site_type_symbol
_atom_site_label
_atom_site_fract_x
_atom_site_fract_y
_atom_site_fract_z
Si Si1 0.224389 0.847197 0.580589
Si Si2 0.211078 0.400660 0.924321
Si Si3 0.721070 0.922784 0.229243
Si Si4 0.000000 0.000000 0.278707
Si Si5 0.216849 0.799526 0.124964
Si Si6 0.717065 0.450333 0.415722
Si Si7 0.712244 0.318283 0.275770
O O1 0.277988 0.836610 0.500000
O O2 0.286958 0.899319 0.600431
O O3 0.284223 0.814411 0.644646
O O4 0.000000 0.848639 0.580927
O O5 0.281041 0.422951 0.852716
O O6 0.213105 0.345294 0.912608
O O7 0.000000 0.414962 0.927058
O O8 0.294804 0.411213 0.000000
O O9 0.500000 0.928656 0.234031
O O10 0.773045 0.872329 0.257139
O O11 0.838246 0.960063 0.269341
O O12 0.250000 0.750000 0.090881
O O13 0.294262 0.797330 0.204701
O O14 0.000000 0.806679 0.129821
O O15 0.724459 0.450062 0.500000
O O16 0.500000 0.453189 0.398034
O O17 0.797819 0.500000 0.395287
O O18 0.500000 0.303893 0.279269
#
# Coordination Sequence:
#
# PCOD9488957 Si02
#       7
#    16  16  16   4  16  16  16
#     4   8  13  22  40  67 100 136 177 225 281 345
#     4   9  19  37  60  85 117 152 184 224 281 344
#     4  10  21  38  59  83 114 155 197 244 295 335
#     4  12  22  40  61  84 117 154 212 256 276 336
#     4  10  20  33  53  79 109 145 187 233 283 347
#     4   7   9  14  24  44  78 115 150 191 242 303
#     4   9  17  33  52  77 110 144 187 236 291 354
#
# _framework density 24.726704000000002
#
# number of rings (size 3 to 8) (size 9 to 14) (size 15 to 20)
#    0.000    3.040    0.800    2.160    1.120    1.280 
#    1.440    0.800    0.000    2.880    0.000    0.000 
#    0.000    1.280    0.000    0.000    0.000    0.480 
#
# Total GULP energy -278497.073069 kJ/mol
# GULP energy per Si atom -5569.941461 kJ/mol
# Density = 2.467042 g / cm^3
# Si number density = 24.726704 Si / 1000 Ang^3
#
#
#
# Elastic Constant Matrix: (Units=GPa)
#
#
# Indices 1 2 3 4 5 6 
#
# 1 113.9729 -3.6929 -2.1644 0.0000 0.0000 0.0000
# 2 -3.6929 41.9621 -15.0673 0.0000 0.0000 0.0000
# 3 -2.1644 -15.0673 150.2424 0.0000 0.0000 0.0000
# 4 0.0000 0.0000 0.0000 -25.7294 0.0000 0.0000
# 5 0.0000 0.0000 0.0000 0.0000 6.6562 0.0000
# 6 0.0000 0.0000 0.0000 0.0000 0.0000 -26.3928
#
#
#
# Elastic Compliance Matrix: (Units=1/GPa)
#
#
# Indices 1 2 3 4 5 6 
#
# 1 0.008806 0.000851 0.000212 0.000000 0.000000 0.000000
# 2 0.000851 0.024804 0.002500 0.000000 0.000000 0.000000
# 3 0.000212 0.002500 0.006910 0.000000 0.000000 0.000000
# 4 0.000000 0.000000 0.000000 -0.038866 0.000000 0.000000
# 5 0.000000 0.000000 0.000000 0.000000 0.150235 0.000000
# 6 0.000000 0.000000 0.000000 0.000000 0.000000 -0.037889
#
#
# Mechanical properties :
#
#
# Convention : Reuss Voigt Hill
#
# Bulk Modulus (GPa) = 20.98860 29.36982 25.17921
# Shear Modulus (GPa) = 40.73172 12.71360 26.72266
#
# Velocity S-wave (km/s) = 4.06307 2.26998 3.29100
# Velocity P-wave (km/s) = 5.52431 4.33289 4.96447
#
# Compressibility (1/GPa) = 0.04764491
#
# Stress axis : x y z
#
# Youngs Moduli (GPa) = 113.56376 40.31689 144.72504
#
# Poissons Ratio (x) = -0.03432 -0.03071
# Poissons Ratio (y) = -0.09666 -0.36177
# Poissons Ratio (z) = -0.02410 -0.10078
#
# Static dielectric constant tensor:
#      x y z
#    x 1.968270 0.000000 0.000000 
#    y 0.000000 2.908920 0.000000 
#    z 0.000000 0.000000 2.086060 
# 
# From -- ./inp_files/60902.got.cif
#   From: 2010.05.17/outbox.cif.g08.bks.cpg/sg65_31_cif.got.tgz:60902.got - 2010.06.03 17:01:31.
