data_PCOD9488705
_publ_section_title
;
Structure prediction by ZEFSAII (Michael W. Deem and Ramdas Pophale) SiO2 
 PCOD9488705
Probable space group: C M M M
;
_chemical_formula_sum "Si O2"
_cell_formula_units_Z 88
_cell_length_a 9.346537
_cell_length_b 20.325552
_cell_length_c 28.564656
_cell_angle_alpha 90.000000
_cell_angle_beta 90.000000
_cell_angle_gamma 90.000000
_cell_volume 5426.528357
_symmetry_space_group_name_H-M "C M M M"
_symmetry_group_IT_number 65
_symmetry_cell_setting 'orthorhombic'
loop_
_space_group_symop_operation_xyz
x,y,z
-x,-y,z
x,-y,-z
-x,y,-z
-x,-y,-z
x,y,-z
-x,y,z
x,-y,z
1/2+x,1/2+y,z
1/2-x,1/2-y,z
1/2+x,1/2-y,-z
1/2-x,1/2+y,-z
1/2-x,1/2-y,-z
1/2+x,1/2+y,-z
1/2-x,1/2+y,z
1/2+x,1/2-y,z
loop_
_atom_site_type_symbol
_atom_site_label
_atom_site_fract_x
_atom_site_fract_y
_atom_site_fract_z
Si Si1 0.325572 0.924554 0.195468
Si Si2 0.664834 0.080106 0.908413
Si Si3 0.330932 0.577103 0.444619
Si Si4 0.335767 0.419686 0.000000
Si Si5 0.170491 0.681151 0.618927
Si Si6 0.670956 0.181843 0.728345
O O1 0.500000 0.925885 0.194511
O O2 0.281461 0.901426 0.143413
O O3 0.281678 0.875564 0.236507
O O4 0.278376 0.000000 0.202971
O O5 0.500000 0.101035 0.914005
O O6 0.756677 0.101990 0.952675
O O7 0.664420 0.000000 0.908242
O O8 0.306439 0.588216 0.500000
O O9 0.500000 0.588776 0.435680
O O10 0.302173 0.500000 0.435137
O O11 0.235549 0.624740 0.413537
O O12 0.331675 0.500000 0.000000
O O13 0.500000 0.399386 0.000000
O O14 0.250000 0.750000 0.608923
O O15 0.197044 0.665303 0.673805
O O16 0.000000 0.687957 0.612235
O O17 0.500000 0.190597 0.733726
O O18 0.750000 0.250000 0.738741
#
# Coordination Sequence:
#
# PCOD9488705 Si02
#       6
#    16  16  16   8  16  16
#     4   8  14  26  45  67  89 115 150 190 226 263
#     4   8  13  22  37  56  78 107 144 181 215 257
#     4   9  19  36  55  74  99 130 160 193 237 286
#     4   9  15  21  31  51  82 115 140 169 217 269
#     4  10  20  33  51  74  99 128 162 200 238 279
#     4   9  18  32  49  69  94 123 154 189 230 275
#
# _framework density 16.216629000000001
#
# number of rings (size 3 to 8) (size 9 to 14) (size 15 to 20)
#    0.000    3.182    0.000    2.455    0.000    3.636 
#    0.000    3.636    0.000    1.636    0.000    0.636 
#    0.000    0.000    0.000    0.000    0.000    0.000 
#
# Total GULP energy -245026.594405 kJ/mol
# GULP energy per Si atom -5568.786236 kJ/mol
# Density = 1.617972 g / cm^3
# Si number density = 16.216629 Si / 1000 Ang^3
#
#
#
# Elastic Constant Matrix: (Units=GPa)
#
#
# Indices 1 2 3 4 5 6 
#
# 1 64.3877 52.2826 71.0681 0.0000 0.0000 0.0000
# 2 52.2826 79.2151 87.2636 0.0000 0.0000 0.0000
# 3 71.0681 87.2636 122.1048 0.0000 0.0000 0.0000
# 4 0.0000 0.0000 0.0000 -12.7017 0.0000 0.0000
# 5 0.0000 0.0000 0.0000 0.0000 13.6637 0.0000
# 6 0.0000 0.0000 0.0000 0.0000 0.0000 22.3055
#
#
#
# Elastic Compliance Matrix: (Units=1/GPa)
#
#
# Indices 1 2 3 4 5 6 
#
# 1 0.043683 -0.003870 -0.022659 0.000000 0.000000 0.000000
# 2 -0.003870 0.059686 -0.040402 0.000000 0.000000 0.000000
# 3 -0.022659 -0.040402 0.050252 0.000000 0.000000 0.000000
# 4 0.000000 0.000000 0.000000 -0.078730 0.000000 0.000000
# 5 0.000000 0.000000 0.000000 0.000000 0.073187 0.000000
# 6 0.000000 0.000000 0.000000 0.000000 0.000000 0.044832
#
#
# Mechanical properties :
#
#
# Convention : Reuss Voigt Hill
#
# Bulk Modulus (GPa) = 50.61346 76.32624 63.46985
# Shear Modulus (GPa) = 14.99886 8.32640 11.66263
#
# Velocity S-wave (km/s) = 3.04453 2.26840 2.68466
# Velocity P-wave (km/s) = 6.60586 7.35049 6.98810
#
# Compressibility (1/GPa) = 0.01975759
#
# Stress axis : x y z
#
# Youngs Moduli (GPa) = 22.89204 16.75442 19.89981
#
# Poissons Ratio (x) = 0.06485 0.45091
# Poissons Ratio (y) = 0.08860 0.80400
# Poissons Ratio (z) = 0.51871 0.67692
#
# Static dielectric constant tensor:
#      x y z
#    x 1.536170 0.000000 0.000000 
#    y 0.000000 1.517990 0.000000 
#    z 0.000000 0.000000 1.551960 
# 
# From -- ./inp_files/75327.got.cif
#   From: 2010.05.17/outbox.cif.g08.bks.cpg/sg65_38_cif.got.tgz:75327.got - 2010.06.03 17:01:31.
