data_PCOD9488844
_publ_section_title
;
Structure prediction by ZEFSAII (Michael W. Deem and Ramdas Pophale) SiO2 
 PCOD9488844
Probable space group: C M M M
;
_chemical_formula_sum "Si O2"
_cell_formula_units_Z 90
_cell_length_a 19.759817
_cell_length_b 21.269310
_cell_length_c 11.443701
_cell_angle_alpha 90.000000
_cell_angle_beta 90.000000
_cell_angle_gamma 90.000000
_cell_volume 4809.532030
_symmetry_space_group_name_H-M "C M M M"
_symmetry_group_IT_number 65
_symmetry_cell_setting 'orthorhombic'
loop_
_space_group_symop_operation_xyz
x,y,z
-x,-y,z
x,-y,-z
-x,y,-z
-x,-y,-z
x,y,-z
-x,y,z
x,-y,z
1/2+x,1/2+y,z
1/2-x,1/2-y,z
1/2+x,1/2-y,-z
1/2-x,1/2+y,-z
1/2-x,1/2-y,-z
1/2+x,1/2+y,-z
1/2-x,1/2+y,z
1/2+x,1/2-y,z
loop_
_atom_site_type_symbol
_atom_site_label
_atom_site_fract_x
_atom_site_fract_y
_atom_site_fract_z
Si Si1 0.079459 0.148431 0.638715
Si Si2 0.425003 0.209345 0.725476
Si Si3 0.303634 0.427402 0.745930
Si Si4 0.729562 0.930972 0.500000
Si Si5 0.078264 0.500000 0.142449
Si Si6 0.168795 0.379497 0.860766
Si Si7 0.000000 0.500000 0.500000
Si Si8 0.409323 0.875162 0.500000
O O1 0.096943 0.141736 0.500000
O O2 0.087741 0.220948 0.677097
O O3 0.125421 0.107247 0.725476
O O4 0.000000 0.132474 0.649155
O O5 0.500000 0.207887 0.782996
O O6 0.365939 0.181988 0.806538
O O7 0.428153 0.163476 0.614508
O O8 0.310631 0.500000 0.784958
O O9 0.273077 0.427021 0.615743
O O10 0.245545 0.393113 0.821304
O O11 0.671413 0.880324 0.500000
O O12 0.697780 0.000000 0.500000
O O13 0.120985 0.561383 0.178547
O O14 0.000000 0.500000 0.186436
O O15 0.075165 0.500000 0.000000
O O16 0.165959 0.377215 0.000000
O O17 0.057422 0.556552 0.500000
#
# Coordination Sequence:
#
# PCOD9488844 Si02
#       8
#    16  16  16   8   8  16   2   8
#     4  10  22  41  65  92 121 155 199 253 322 390
#     4  11  22  38  59  85 125 165 206 251 304 366
#     4  11  22  39  63  90 123 155 197 258 316 375
#     4  10  20  33  51  82 120 152 191 242 301 362
#     4   9  18  35  57  83 114 154 205 249 290 342
#     4  11  23  39  60  87 122 168 211 249 296 355
#     4  12  24  28  56  88 130 172 208 228 304 362
#     4  12  20  35  51  85 124 166 203 245 296 366
#
# _framework density 18.71284
#
# number of rings (size 3 to 8) (size 9 to 14) (size 15 to 20)
#    0.000    1.333    5.778    0.533    0.000    2.844 
#    1.600    4.444    0.000    1.600    0.000    1.244 
#    0.000    0.000    0.000    0.000    0.000    0.000 
#
# Total GULP energy -250862.009097 kJ/mol
# GULP energy per Si atom -5574.711313 kJ/mol
# Density = 1.867025 g / cm^3
# Si number density = 18.712840 Si / 1000 Ang^3
#
#
#
# Elastic Constant Matrix: (Units=GPa)
#
#
# Indices 1 2 3 4 5 6 
#
# 1 121.1199 58.0579 30.9311 0.0000 0.0000 0.0000
# 2 58.0579 62.6846 16.5120 0.0000 0.0000 0.0000
# 3 30.9311 16.5120 59.9474 0.0000 0.0000 0.0000
# 4 0.0000 0.0000 0.0000 12.7722 0.0000 0.0000
# 5 0.0000 0.0000 0.0000 0.0000 19.8977 0.0000
# 6 0.0000 0.0000 0.0000 0.0000 0.0000 28.1540
#
#
#
# Elastic Compliance Matrix: (Units=1/GPa)
#
#
# Indices 1 2 3 4 5 6 
#
# 1 0.015886 -0.013536 -0.004468 0.000000 0.000000 0.000000
# 2 -0.013536 0.028735 -0.000931 0.000000 0.000000 0.000000
# 3 -0.004468 -0.000931 0.019243 0.000000 0.000000 0.000000
# 4 0.000000 0.000000 0.000000 0.078295 0.000000 0.000000
# 5 0.000000 0.000000 0.000000 0.000000 0.050257 0.000000
# 6 0.000000 0.000000 0.000000 0.000000 0.000000 0.035519
#
#
# Mechanical properties :
#
#
# Convention : Reuss Voigt Hill
#
# Bulk Modulus (GPa) = 38.47031 50.52819 44.49925
# Shear Modulus (GPa) = 18.21692 21.38150 19.79921
#
# Velocity S-wave (km/s) = 3.12348 3.38392 3.25630
# Velocity P-wave (km/s) = 5.79750 6.50603 6.16196
#
# Compressibility (1/GPa) = 0.02599407
#
# Stress axis : x y z
#
# Youngs Moduli (GPa) = 62.94881 34.80038 51.96682
#
# Poissons Ratio (x) = 0.47107 0.23220
# Poissons Ratio (y) = 0.85210 0.04836
# Poissons Ratio (z) = 0.28127 0.03238
#
# Static dielectric constant tensor:
#      x y z
#    x 1.677300 0.000000 0.000000 
#    y 0.000000 1.647700 0.000000 
#    z 0.000000 0.000000 1.635250 
# 
# From -- ./inp_files/26902.got.cif
#   From: 2010.05.17/outbox.cif.g08.bks.cpg/sg65_14_cif.got.tgz:26902.got - 2010.06.03 17:01:31.
