data_PCOD9488626
_publ_section_title
;
Structure prediction by ZEFSAII (Michael W. Deem and Ramdas Pophale) SiO2 
 PCOD9488626
Probable space group: C M M M
;
_chemical_formula_sum "Si O2"
_cell_formula_units_Z 120
_cell_length_a 7.987218
_cell_length_b 28.789267
_cell_length_c 26.850802
_cell_angle_alpha 90.000000
_cell_angle_beta 90.000000
_cell_angle_gamma 90.000000
_cell_volume 6174.238587
_symmetry_space_group_name_H-M "C M M M"
_symmetry_group_IT_number 65
_symmetry_cell_setting 'orthorhombic'
loop_
_space_group_symop_operation_xyz
x,y,z
-x,-y,z
x,-y,-z
-x,y,-z
-x,-y,-z
x,y,-z
-x,y,z
x,-y,z
1/2+x,1/2+y,z
1/2-x,1/2-y,z
1/2+x,1/2-y,-z
1/2-x,1/2+y,-z
1/2-x,1/2-y,-z
1/2+x,1/2+y,-z
1/2-x,1/2+y,z
1/2+x,1/2-y,z
loop_
_atom_site_type_symbol
_atom_site_label
_atom_site_fract_x
_atom_site_fract_y
_atom_site_fract_z
Si Si1 0.796047 0.054223 0.500000
Si Si2 0.696756 0.115670 0.708539
Si Si3 0.693303 0.552970 0.209433
Si Si4 0.204197 0.551939 0.058425
Si Si5 0.689007 0.392714 0.403082
Si Si6 0.798209 0.696065 0.216387
Si Si7 0.690730 0.873644 0.865628
Si Si8 0.689761 0.200267 0.440090
O O1 0.734373 0.077809 0.448810
O O2 0.000000 0.060525 0.500000
O O3 0.759130 0.000000 0.500000
O O4 0.500000 0.111237 0.718771
O O5 0.791882 0.073996 0.735744
O O6 0.723443 0.110908 0.649986
O O7 0.753203 0.163678 0.736264
O O8 0.500000 0.556713 0.192761
O O9 0.746089 0.500000 0.207363
O O10 0.806119 0.585838 0.175725
O O11 0.258812 0.500000 0.076408
O O12 0.267034 0.597422 0.088089
O O13 0.000000 0.552236 0.062646
O O14 0.245092 0.554879 0.000000
O O15 0.500000 0.409649 0.394755
O O16 0.690866 0.340402 0.423292
O O17 0.750000 0.750000 0.220053
O O18 0.735560 0.670020 0.165533
O O19 0.000000 0.694195 0.214421
O O20 0.500000 0.860935 0.879304
O O21 0.689056 0.201658 0.500000
O O22 0.500000 0.190610 0.423322
O O23 0.750000 0.250000 0.421476
#
# Coordination Sequence:
#
# PCOD9488626 Si02
#       8
#     8  16  16  16  16  16  16  16
#     4   9  20  38  58  79 104 137 174 207 240 289
#     4  10  22  38  54  76 104 132 169 211 257 309
#     4  10  20  33  50  74 102 132 168 208 255 313
#     4   8  13  22  41  72 106 138 174 216 261 309
#     4  11  21  36  58  81 107 137 170 208 255 307
#     4   9  19  34  52  73  98 130 169 213 260 313
#     4   9  17  30  49  74 102 134 173 217 263 309
#     4  10  20  34  54  78 104 131 163 202 247 299
#
# _framework density 19.435594999999999
#
# number of rings (size 3 to 8) (size 9 to 14) (size 15 to 20)
#    0.000    2.467    0.667    3.200    0.000    5.867 
#    0.000    2.667    0.000    3.600    0.000    1.867 
#    0.000    0.000    0.000    0.000    0.000    0.267 
#
# Total GULP energy -334210.252700 kJ/mol
# GULP energy per Si atom -5570.170878 kJ/mol
# Density = 1.939136 g / cm^3
# Si number density = 19.435595 Si / 1000 Ang^3
#
#
#
# Elastic Constant Matrix: (Units=GPa)
#
#
# Indices 1 2 3 4 5 6 
#
# 1 30.8754 -3.9369 2.5994 0.0000 0.0000 0.0000
# 2 -3.9369 89.4277 39.1604 0.0000 0.0000 0.0000
# 3 2.5994 39.1604 95.4271 0.0000 0.0000 0.0000
# 4 0.0000 0.0000 0.0000 -12.6065 0.0000 0.0000
# 5 0.0000 0.0000 0.0000 0.0000 1.5585 0.0000
# 6 0.0000 0.0000 0.0000 0.0000 0.0000 12.5578
#
#
#
# Elastic Compliance Matrix: (Units=1/GPa)
#
#
# Indices 1 2 3 4 5 6 
#
# 1 0.032826 0.002239 -0.001813 0.000000 0.000000 0.000000
# 2 0.002239 0.013785 -0.005718 0.000000 0.000000 0.000000
# 3 -0.001813 -0.005718 0.012875 0.000000 0.000000 0.000000
# 4 0.000000 0.000000 0.000000 -0.079324 0.000000 0.000000
# 5 0.000000 0.000000 0.000000 0.000000 0.641656 0.000000
# 6 0.000000 0.000000 0.000000 0.000000 0.000000 0.079632
#
#
# Mechanical properties :
#
#
# Convention : Reuss Voigt Hill
#
# Bulk Modulus (GPa) = 20.44887 32.37511 26.41199
# Shear Modulus (GPa) = 6.86498 12.16245 9.51372
#
# Velocity S-wave (km/s) = 1.88145 2.50428 2.21486
# Velocity P-wave (km/s) = 3.90691 5.00556 4.48997
#
# Compressibility (1/GPa) = 0.04890245
#
# Stress axis : x y z
#
# Youngs Moduli (GPa) = 30.46334 72.54475 77.66998
#
# Poissons Ratio (x) = -0.16243 0.14082
# Poissons Ratio (y) = -0.06821 0.44410
# Poissons Ratio (z) = 0.05523 0.41479
#
# Static dielectric constant tensor:
#      x y z
#    x 1.738830 0.000000 0.000000 
#    y 0.000000 1.671750 0.000000 
#    z 0.000000 0.000000 1.725000 
# 
# From -- ./inp_files/74008.got.cif
#   From: 2010.05.17/outbox.cif.g08.bks.cpg/sg65_38_cif.got.tgz:74008.got - 2010.06.03 17:01:31.
