data_PCOD9488766
_publ_section_title
;
Structure prediction by ZEFSAII (Michael W. Deem and Ramdas Pophale) SiO2 
 PCOD9488766
Probable space group: C M M M
;
_chemical_formula_sum "Si O2"
_cell_formula_units_Z 80
_cell_length_a 19.688754
_cell_length_b 8.872360
_cell_length_c 25.958601
_cell_angle_alpha 90.000000
_cell_angle_beta 90.000000
_cell_angle_gamma 90.000000
_cell_volume 4534.596736
_symmetry_space_group_name_H-M "C M M M"
_symmetry_group_IT_number 65
_symmetry_cell_setting 'orthorhombic'
loop_
_space_group_symop_operation_xyz
x,y,z
-x,-y,z
x,-y,-z
-x,y,-z
-x,-y,-z
x,y,-z
-x,y,z
x,-y,z
1/2+x,1/2+y,z
1/2-x,1/2-y,z
1/2+x,1/2-y,-z
1/2-x,1/2+y,-z
1/2-x,1/2-y,-z
1/2+x,1/2+y,-z
1/2-x,1/2+y,z
1/2+x,1/2-y,z
loop_
_atom_site_type_symbol
_atom_site_label
_atom_site_fract_x
_atom_site_fract_y
_atom_site_fract_z
Si Si1 0.675908 0.818253 0.092021
Si Si2 0.674573 0.820031 0.500000
Si Si3 0.079154 0.180119 0.706137
Si Si4 0.823676 0.679842 0.790405
Si Si5 0.420492 0.318419 0.586847
Si Si6 0.422144 0.816111 0.000000
O O1 0.750000 0.750000 0.080693
O O2 0.656980 0.777092 0.150797
O O3 0.681309 0.000000 0.089491
O O4 0.620247 0.769433 0.050408
O O5 0.750000 0.750000 0.500000
O O6 0.631184 0.762831 0.548960
O O7 0.679461 0.000000 0.500000
O O8 0.124812 0.261742 0.747790
O O9 0.094247 0.219155 0.646572
O O10 0.000000 0.214481 0.714892
O O11 0.088037 0.000000 0.710897
O O12 0.819251 0.500000 0.788356
O O13 0.750000 0.750000 0.780533
O O14 0.500000 0.280893 0.576252
O O15 0.414520 0.500000 0.580835
O O16 0.500000 0.764153 0.000000
O O17 0.423604 0.000000 0.000000
#
# Coordination Sequence:
#
# PCOD9488766 Si02
#       6
#    16   8  16  16  16   8
#     4   9  18  32  51  73  97 131 171 209 252 303
#     4  12  25  38  55  81 111 141 175 216 261 306
#     4   9  19  36  57  80 106 138 174 211 256 309
#     4  10  20  33  51  76 105 137 174 216 260 307
#     4   9  19  38  61  81 105 139 175 211 256 311
#     4   9  17  30  49  73 100 129 164 208 256 305
#
# _framework density 17.642143000000001
#
# number of rings (size 3 to 8) (size 9 to 14) (size 15 to 20)
#    0.000    2.500    0.000    3.300    0.000    5.200 
#    0.000    4.000    0.000    1.200    0.000    0.000 
#    0.000    0.000    0.000    0.000    0.000    0.000 
#
# Total GULP energy -223192.466577 kJ/mol
# GULP energy per Si atom -5579.811664 kJ/mol
# Density = 1.760199 g / cm^3
# Si number density = 17.642143 Si / 1000 Ang^3
#
#
#
# Elastic Constant Matrix: (Units=GPa)
#
#
# Indices 1 2 3 4 5 6 
#
# 1 146.8915 64.0863 132.4174 0.0000 0.0000 0.0000
# 2 64.0863 42.1787 67.3187 0.0000 0.0000 0.0000
# 3 132.4174 67.3187 157.9721 0.0000 0.0000 0.0000
# 4 0.0000 0.0000 0.0000 17.1185 0.0000 0.0000
# 5 0.0000 0.0000 0.0000 0.0000 33.3649 0.0000
# 6 0.0000 0.0000 0.0000 0.0000 0.0000 31.3219
#
#
#
# Elastic Compliance Matrix: (Units=1/GPa)
#
#
# Indices 1 2 3 4 5 6 
#
# 1 0.031697 -0.017991 -0.018903 0.000000 0.000000 0.000000
# 2 -0.017991 0.084333 -0.020857 0.000000 0.000000 0.000000
# 3 -0.018903 -0.020857 0.031063 0.000000 0.000000 0.000000
# 4 0.000000 0.000000 0.000000 0.058416 0.000000 0.000000
# 5 0.000000 0.000000 0.000000 0.000000 0.029972 0.000000
# 6 0.000000 0.000000 0.000000 0.000000 0.000000 0.031927
#
#
# Mechanical properties :
#
#
# Convention : Reuss Voigt Hill
#
# Bulk Modulus (GPa) = 31.65422 97.18744 64.42083
# Shear Modulus (GPa) = 12.70837 21.90904 17.30871
#
# Velocity S-wave (km/s) = 2.68683 3.52782 3.13565
# Velocity P-wave (km/s) = 5.25421 8.47360 7.05013
#
# Compressibility (1/GPa) = 0.03159137
#
# Stress axis : x y z
#
# Youngs Moduli (GPa) = 31.54849 11.85772 32.19223
#
# Poissons Ratio (x) = 0.21333 0.60853
# Poissons Ratio (y) = 0.56759 0.67144
# Poissons Ratio (z) = 0.59636 0.24732
#
# Static dielectric constant tensor:
#      x y z
#    x 1.568080 0.000000 0.000000 
#    y 0.000000 1.588740 0.000000 
#    z 0.000000 0.000000 1.604480 
# 
# From -- ./inp_files/67402.got.cif
#   From: 2010.05.17/outbox.cif.g08.bks.cpg/sg65_34_cif.got.tgz:67402.got - 2010.06.03 17:01:31.
