data_PCOD9488317
_publ_section_title
;
Structure prediction by ZEFSAII (Michael W. Deem and Ramdas Pophale) SiO2 
 PCOD9488317
Probable space group: C M M M
;
_chemical_formula_sum "Si O2"
_cell_formula_units_Z 72
_cell_length_a 29.568587
_cell_length_b 15.098623
_cell_length_c 9.517586
_cell_angle_alpha 90.000000
_cell_angle_beta 90.000000
_cell_angle_gamma 90.000000
_cell_volume 4249.078185
_symmetry_space_group_name_H-M "C M M M"
_symmetry_group_IT_number 65
_symmetry_cell_setting 'orthorhombic'
loop_
_space_group_symop_operation_xyz
x,y,z
-x,-y,z
x,-y,-z
-x,y,-z
-x,-y,-z
x,y,-z
-x,y,z
x,-y,z
1/2+x,1/2+y,z
1/2-x,1/2-y,z
1/2+x,1/2-y,-z
1/2-x,1/2+y,-z
1/2-x,1/2-y,-z
1/2+x,1/2+y,-z
1/2-x,1/2+y,z
1/2+x,1/2-y,z
loop_
_atom_site_type_symbol
_atom_site_label
_atom_site_fract_x
_atom_site_fract_y
_atom_site_fract_z
Si Si1 0.552708 0.674118 0.333441
Si Si2 0.295210 0.105475 0.835889
Si Si3 0.704087 0.398188 0.334753
Si Si4 0.445171 0.500000 0.159312
Si Si5 0.859475 0.730995 0.665255
O O1 0.556704 0.653298 0.500000
O O2 0.500000 0.694562 0.305142
O O3 0.566541 0.588175 0.244513
O O4 0.587841 0.752368 0.303407
O O5 0.247824 0.124190 0.757824
O O6 0.334543 0.159602 0.759963
O O7 0.302877 0.000000 0.823772
O O8 0.292132 0.128403 0.000000
O O9 0.716691 0.394583 0.500000
O O10 0.690096 0.500000 0.304173
O O11 0.665611 0.325389 0.312759
O O12 0.500000 0.500000 0.152975
O O13 0.427657 0.500000 0.000000
O O14 0.854486 0.708451 0.500000
#
# Coordination Sequence:
#
# PCOD9488317 Si02
#       5
#    16  16  16   8  16
#     4   9  18  32  50  72 100 133 167 205 248 292
#     4  10  21  36  52  71  98 130 165 207 254 301
#     4   9  18  32  50  73 103 134 163 198 240 292
#     4   9  17  29  45  67  97 133 169 201 237 285
#     4  10  20  32  52  77 100 130 169 207 245 294
#
# _framework density 16.944852000000001
#
# number of rings (size 3 to 8) (size 9 to 14) (size 15 to 20)
#    0.000    2.556    0.000    1.667    1.556    7.111 
#    0.000    0.000    0.000    0.667    0.000    4.667 
#    0.000    0.000    0.000    0.000    0.000    0.000 
#
# Total GULP energy -200807.873574 kJ/mol
# GULP energy per Si atom -5577.996488 kJ/mol
# Density = 1.690629 g / cm^3
# Si number density = 16.944852 Si / 1000 Ang^3
#
#
#
# Elastic Constant Matrix: (Units=GPa)
#
#
# Indices 1 2 3 4 5 6 
#
# 1 86.2113 34.8384 52.6084 0.0000 0.0000 0.0000
# 2 34.8384 30.4621 35.0419 0.0000 0.0000 0.0000
# 3 52.6084 35.0419 58.4762 0.0000 0.0000 0.0000
# 4 0.0000 0.0000 0.0000 25.4502 0.0000 0.0000
# 5 0.0000 0.0000 0.0000 0.0000 6.3020 0.0000
# 6 0.0000 0.0000 0.0000 0.0000 0.0000 25.6768
#
#
#
# Elastic Compliance Matrix: (Units=1/GPa)
#
#
# Indices 1 2 3 4 5 6 
#
# 1 0.026510 -0.009280 -0.018288 0.000000 0.000000 0.000000
# 2 -0.009280 0.108921 -0.056922 0.000000 0.000000 0.000000
# 3 -0.018288 -0.056922 0.067664 0.000000 0.000000 0.000000
# 4 0.000000 0.000000 0.000000 0.039292 0.000000 0.000000
# 5 0.000000 0.000000 0.000000 0.000000 0.158681 0.000000
# 6 0.000000 0.000000 0.000000 0.000000 0.000000 0.038946
#
#
# Mechanical properties :
#
#
# Convention : Reuss Voigt Hill
#
# Bulk Modulus (GPa) = 29.31324 46.68076 37.99700
# Shear Modulus (GPa) = 8.05976 14.99651 11.52813
#
# Velocity S-wave (km/s) = 2.18330 2.97815 2.61115
# Velocity P-wave (km/s) = 4.86749 6.27967 5.61813
#
# Compressibility (1/GPa) = 0.03411428
#
# Stress axis : x y z
#
# Youngs Moduli (GPa) = 37.72221 9.18097 14.77880
#
# Poissons Ratio (x) = 0.08520 0.27028
# Poissons Ratio (y) = 0.35007 0.84124
# Poissons Ratio (z) = 0.68987 0.52260
#
# Static dielectric constant tensor:
#      x y z
#    x 1.571120 0.000000 0.000000 
#    y 0.000000 1.558440 0.000000 
#    z 0.000000 0.000000 1.570760 
# 
# From -- ./inp_files/7224.got.cif
#   From: 2010.05.17/outbox.cif.g08.bks.cpg/sg65_4_cif.got.tgz:7224.got - 2010.06.03 17:01:31.
