data_PCOD9488396
_publ_section_title
;
Structure prediction by ZEFSAII (Michael W. Deem and Ramdas Pophale) SiO2 
 PCOD9488396
Probable space group: C M M M
;
_chemical_formula_sum "Si O2"
_cell_formula_units_Z 76
_cell_length_a 14.236408
_cell_length_b 28.611135
_cell_length_c 12.890718
_cell_angle_alpha 90.000000
_cell_angle_beta 90.000000
_cell_angle_gamma 90.000000
_cell_volume 5250.644564
_symmetry_space_group_name_H-M "C M M M"
_symmetry_group_IT_number 65
_symmetry_cell_setting 'orthorhombic'
loop_
_space_group_symop_operation_xyz
x,y,z
-x,-y,z
x,-y,-z
-x,y,-z
-x,-y,-z
x,y,-z
-x,y,z
x,-y,z
1/2+x,1/2+y,z
1/2-x,1/2-y,z
1/2+x,1/2-y,-z
1/2-x,1/2+y,-z
1/2-x,1/2-y,-z
1/2+x,1/2+y,-z
1/2-x,1/2+y,z
1/2+x,1/2-y,z
loop_
_atom_site_type_symbol
_atom_site_label
_atom_site_fract_x
_atom_site_fract_y
_atom_site_fract_z
Si Si1 0.610204 0.054056 0.124678
Si Si2 0.500000 0.200706 0.805740
Si Si3 0.291668 0.696896 0.000000
Si Si4 0.791060 0.198002 0.621659
Si Si5 0.000000 0.229314 0.000000
Si Si6 0.304542 0.853392 0.806181
Si Si7 0.500000 0.271749 0.379420
O O1 0.500000 0.061735 0.151679
O O2 0.677055 0.091811 0.177837
O O3 0.632491 0.000000 0.148104
O O4 0.617068 0.060346 0.000000
O O5 0.500000 0.237936 0.898708
O O6 0.593030 0.170115 0.813712
O O7 0.500000 0.228253 0.697624
O O8 0.250000 0.750000 0.000000
O O9 0.403841 0.700648 0.000000
O O10 0.255171 0.669670 0.898981
O O11 0.772546 0.188834 0.500000
O O12 0.750000 0.250000 0.644933
O O13 0.742612 0.161776 0.698536
O O14 0.903304 0.200433 0.638068
O O15 0.500000 0.256693 0.500000
#
# Coordination Sequence:
#
# PCOD9488396 Si02
#       7
#    16   8   8  16   4  16   8
#     4   9  18  32  51  74  99 126 162 206 246 289
#     4  12  20  28  47  69 100 133 162 196 236 284
#     4  12  22  32  45  69  99 133 163 199 238 287
#     4  10  20  33  48  69  97 132 171 202 234 282
#     4  12  24  32  40  66 108 132 160 192 244 286
#     4  12  20  31  50  73  98 132 164 197 240 296
#     4  10  20  34  48  65  96 135 174 208 228 266
#
# _framework density 14.474413
#
# number of rings (size 3 to 8) (size 9 to 14) (size 15 to 20)
#    0.000    1.263    6.316    2.526    0.000    0.000 
#    0.000    0.000    0.000    0.632    0.000    5.158 
#    0.000    2.526    0.000    0.000    0.000    0.000 
#
# Total GULP energy -212076.593613 kJ/mol
# GULP energy per Si atom -5580.962990 kJ/mol
# Density = 1.444147 g / cm^3
# Si number density = 14.474413 Si / 1000 Ang^3
#
#
#
# Elastic Constant Matrix: (Units=GPa)
#
#
# Indices 1 2 3 4 5 6 
#
# 1 114.8851 48.5616 43.3599 0.0000 0.0000 0.0000
# 2 48.5616 106.6120 52.1653 0.0000 0.0000 0.0000
# 3 43.3599 52.1653 62.0230 0.0000 0.0000 0.0000
# 4 0.0000 0.0000 0.0000 21.2943 0.0000 0.0000
# 5 0.0000 0.0000 0.0000 0.0000 17.1265 0.0000
# 6 0.0000 0.0000 0.0000 0.0000 0.0000 23.8441
#
#
#
# Elastic Compliance Matrix: (Units=1/GPa)
#
#
# Indices 1 2 3 4 5 6 
#
# 1 0.012159 -0.002344 -0.006529 0.000000 0.000000 0.000000
# 2 -0.002344 0.016391 -0.012147 0.000000 0.000000 0.000000
# 3 -0.006529 -0.012147 0.030904 0.000000 0.000000 0.000000
# 4 0.000000 0.000000 0.000000 0.046961 0.000000 0.000000
# 5 0.000000 0.000000 0.000000 0.000000 0.058389 0.000000
# 6 0.000000 0.000000 0.000000 0.000000 0.000000 0.041939
#
#
# Mechanical properties :
#
#
# Convention : Reuss Voigt Hill
#
# Bulk Modulus (GPa) = 57.42547 63.52153 60.47350
# Shear Modulus (GPa) = 19.63948 21.74856 20.69402
#
# Velocity S-wave (km/s) = 3.68753 3.88048 3.78523
# Velocity P-wave (km/s) = 7.60857 8.00364 7.80860
#
# Compressibility (1/GPa) = 0.01741388
#
# Stress axis : x y z
#
# Youngs Moduli (GPa) = 82.24148 61.00844 32.35791
#
# Poissons Ratio (x) = 0.14299 0.21127
# Poissons Ratio (y) = 0.19276 0.39307
# Poissons Ratio (z) = 0.53697 0.74110
#
# Static dielectric constant tensor:
#      x y z
#    x 1.485290 0.000000 0.000000 
#    y 0.000000 1.459710 0.000000 
#    z 0.000000 0.000000 1.476680 
# 
# From -- ./inp_files/25068.got.cif
#   From: 2010.05.17/outbox.cif.g08.bks.cpg/sg65_13_cif.got.tgz:25068.got - 2010.06.03 17:01:31.
