data_PCOD9488493
_publ_section_title
;
Structure prediction by ZEFSAII (Michael W. Deem and Ramdas Pophale) SiO2 
 PCOD9488493
Probable space group: C M M M
;
_chemical_formula_sum "Si O2"
_cell_formula_units_Z 88
_cell_length_a 17.721738
_cell_length_b 15.279732
_cell_length_c 17.137851
_cell_angle_alpha 90.000000
_cell_angle_beta 90.000000
_cell_angle_gamma 90.000000
_cell_volume 4640.645686
_symmetry_space_group_name_H-M "C M M M"
_symmetry_group_IT_number 65
_symmetry_cell_setting 'orthorhombic'
loop_
_space_group_symop_operation_xyz
x,y,z
-x,-y,z
x,-y,-z
-x,y,-z
-x,-y,-z
x,y,-z
-x,y,z
x,-y,z
1/2+x,1/2+y,z
1/2-x,1/2-y,z
1/2+x,1/2-y,-z
1/2-x,1/2+y,-z
1/2-x,1/2-y,-z
1/2+x,1/2+y,-z
1/2-x,1/2+y,z
1/2+x,1/2-y,z
loop_
_atom_site_type_symbol
_atom_site_label
_atom_site_fract_x
_atom_site_fract_y
_atom_site_fract_z
Si Si1 0.081147 0.102856 0.143755
Si Si2 0.408569 0.099651 0.500000
Si Si3 0.257152 0.353694 0.085346
Si Si4 0.812187 0.598295 0.751345
Si Si5 0.909426 0.282540 0.648177
Si Si6 0.644758 0.400281 0.317492
O O1 0.154013 0.131959 0.097449
O O2 0.099966 0.110924 0.235637
O O3 0.000000 0.144327 0.125941
O O4 0.075871 0.000000 0.128399
O O5 0.500000 0.095319 0.500000
O O6 0.387531 0.153936 0.423290
O O7 0.379624 0.000000 0.500000
O O8 0.250000 0.250000 0.088665
O O9 0.212004 0.393005 0.158309
O O10 0.233387 0.386166 0.000000
O O11 0.842631 0.500000 0.737152
O O12 0.868103 0.674152 0.722811
O O13 0.733238 0.606685 0.704167
O O14 0.881081 0.183617 0.633691
O O15 0.000000 0.282582 0.656751
O O16 0.630620 0.500000 0.346081
#
# Coordination Sequence:
#
# PCOD9488493 Si02
#       6
#    16   8  16  16  16  16
#     4   9  17  30  50  75 101 132 174 222 264 302
#     4   9  20  38  56  79 111 141 175 224 276 316
#     4  10  20  33  49  72 106 145 181 220 268 320
#     4  10  20  35  56  79 106 143 184 223 265 318
#     4  11  21  35  59  84 106 137 179 226 271 318
#     4   9  18  33  53  79 112 145 175 212 264 325
#
# _framework density 18.962878
#
# number of rings (size 3 to 8) (size 9 to 14) (size 15 to 20)
#    0.000    2.273    0.000    5.455    0.000    4.000 
#    0.000    3.182    0.000    5.455    0.000    1.273 
#    0.000    0.000    0.000    0.000    0.000    0.000 
#
# Total GULP energy -245366.333125 kJ/mol
# GULP energy per Si atom -5576.507571 kJ/mol
# Density = 1.891972 g / cm^3
# Si number density = 18.962878 Si / 1000 Ang^3
#
#
#
# Elastic Constant Matrix: (Units=GPa)
#
#
# Indices 1 2 3 4 5 6 
#
# 1 57.1339 37.0732 21.6639 0.0000 0.0000 0.0000
# 2 37.0732 142.7773 37.6085 0.0000 0.0000 0.0000
# 3 21.6639 37.6085 59.5290 0.0000 0.0000 0.0000
# 4 0.0000 0.0000 0.0000 45.6867 0.0000 0.0000
# 5 0.0000 0.0000 0.0000 0.0000 9.8331 0.0000
# 6 0.0000 0.0000 0.0000 0.0000 0.0000 28.4501
#
#
#
# Elastic Compliance Matrix: (Units=1/GPa)
#
#
# Indices 1 2 3 4 5 6 
#
# 1 0.022394 -0.004400 -0.005370 0.000000 0.000000 0.000000
# 2 -0.004400 0.009267 -0.004253 0.000000 0.000000 0.000000
# 3 -0.005370 -0.004253 0.021440 0.000000 0.000000 0.000000
# 4 0.000000 0.000000 0.000000 0.021888 0.000000 0.000000
# 5 0.000000 0.000000 0.000000 0.000000 0.101697 0.000000
# 6 0.000000 0.000000 0.000000 0.000000 0.000000 0.035149
#
#
# Mechanical properties :
#
#
# Convention : Reuss Voigt Hill
#
# Bulk Modulus (GPa) = 39.91333 50.23683 45.07508
# Shear Modulus (GPa) = 20.14236 27.66696 23.90466
#
# Velocity S-wave (km/s) = 3.26268 3.82384 3.55435
# Velocity P-wave (km/s) = 5.94031 6.78567 6.37701
#
# Compressibility (1/GPa) = 0.02505429
#
# Stress axis : x y z
#
# Youngs Moduli (GPa) = 44.65450 107.91211 46.64263
#
# Poissons Ratio (x) = 0.47486 0.25046
# Poissons Ratio (y) = 0.19650 0.19837
# Poissons Ratio (z) = 0.23978 0.45896
#
# Static dielectric constant tensor:
#      x y z
#    x 1.632100 0.000000 0.000000 
#    y 0.000000 1.673110 0.000000 
#    z 0.000000 0.000000 1.687560 
# 
# From -- ./inp_files/53018.got.cif
#   From: 2010.05.17/outbox.cif.g08.bks.cpg/sg65_27_cif.got.tgz:53018.got - 2010.06.03 17:01:31.
