data_PCOD9488708
_publ_section_title
;
Structure prediction by ZEFSAII (Michael W. Deem and Ramdas Pophale) SiO2 
 PCOD9488708
Probable space group: C M M M
;
_chemical_formula_sum "Si O2"
_cell_formula_units_Z 80
_cell_length_a 19.978485
_cell_length_b 8.045165
_cell_length_c 26.150816
_cell_angle_alpha 90.000000
_cell_angle_beta 90.000000
_cell_angle_gamma 90.000000
_cell_volume 4203.226102
_symmetry_space_group_name_H-M "C M M M"
_symmetry_group_IT_number 65
_symmetry_cell_setting 'orthorhombic'
loop_
_space_group_symop_operation_xyz
x,y,z
-x,-y,z
x,-y,-z
-x,y,-z
-x,-y,-z
x,y,-z
-x,y,z
x,-y,z
1/2+x,1/2+y,z
1/2-x,1/2-y,z
1/2+x,1/2-y,-z
1/2-x,1/2+y,-z
1/2-x,1/2-y,-z
1/2+x,1/2+y,-z
1/2-x,1/2+y,z
1/2+x,1/2-y,z
loop_
_atom_site_type_symbol
_atom_site_label
_atom_site_fract_x
_atom_site_fract_y
_atom_site_fract_z
Si Si1 0.423606 0.799975 0.556748
Si Si2 0.174093 0.200756 0.238274
Si Si3 0.077124 0.796340 0.852244
Si Si4 0.824873 0.200457 0.058322
Si Si5 0.325137 0.697541 0.353692
O O1 0.401329 0.742576 0.500000
O O2 0.500000 0.741589 0.564491
O O3 0.376469 0.750667 0.603001
O O4 0.425105 0.000000 0.555334
O O5 0.250000 0.250000 0.224239
O O6 0.119526 0.258128 0.197268
O O7 0.160924 0.262776 0.296152
O O8 0.171694 0.000000 0.238695
O O9 0.118642 0.742300 0.902244
O O10 0.000000 0.742172 0.851883
O O11 0.076676 0.000000 0.852237
O O12 0.750000 0.250000 0.074976
O O13 0.827286 0.000000 0.057327
O O14 0.834498 0.260968 0.000000
O O15 0.327024 0.500000 0.350485
O O16 0.250000 0.750000 0.367459
#
# Coordination Sequence:
#
# PCOD9488708 Si02
#       5
#    16  16  16  16  16
#     4   9  19  36  55  74  99 131 163 196 239 290
#     4   9  18  32  50  70  93 124 159 195 236 282
#     4   9  17  29  46  69  96 124 155 194 238 280
#     4   9  17  29  47  70  93 121 158 196 234 278
#     4  10  20  33  51  75 100 127 162 203 244 287
#
# _framework density 19.032999
#
# number of rings (size 3 to 8) (size 9 to 14) (size 15 to 20)
#    0.000    2.800    0.000    1.800    0.000    3.200 
#    0.000    5.000    0.000    2.400    0.000    2.800 
#    0.000    0.000    0.000    0.000    0.000    0.000 
#
# Total GULP energy -223086.024632 kJ/mol
# GULP energy per Si atom -5577.150616 kJ/mol
# Density = 1.898968 g / cm^3
# Si number density = 19.032999 Si / 1000 Ang^3
#
#
#
# Elastic Constant Matrix: (Units=GPa)
#
#
# Indices 1 2 3 4 5 6 
#
# 1 178.5292 9.2423 138.2172 0.0000 0.0000 0.0000
# 2 9.2423 11.5403 12.4690 0.0000 0.0000 0.0000
# 3 138.2172 12.4690 152.7107 0.0000 0.0000 0.0000
# 4 0.0000 0.0000 0.0000 9.9752 0.0000 0.0000
# 5 0.0000 0.0000 0.0000 0.0000 -43.0529 0.0000
# 6 0.0000 0.0000 0.0000 0.0000 0.0000 23.5830
#
#
#
# Elastic Compliance Matrix: (Units=1/GPa)
#
#
# Indices 1 2 3 4 5 6 
#
# 1 0.018856 0.003662 -0.017365 0.000000 0.000000 0.000000
# 2 0.003662 0.095749 -0.011132 0.000000 0.000000 0.000000
# 3 -0.017365 -0.011132 0.023175 0.000000 0.000000 0.000000
# 4 0.000000 0.000000 0.000000 0.100249 0.000000 0.000000
# 5 0.000000 0.000000 0.000000 0.000000 -0.023227 0.000000
# 6 0.000000 0.000000 0.000000 0.000000 0.000000 0.042404
#
#
# Mechanical properties :
#
#
# Convention : Reuss Voigt Hill
#
# Bulk Modulus (GPa) = 11.34975 73.62635 42.48805
# Shear Modulus (GPa) = 14.87009 10.29118 12.58063
#
# Velocity S-wave (km/s) = 2.79817 2.32782 2.57376
# Velocity P-wave (km/s) = 4.05164 6.78178 5.58607
#
# Compressibility (1/GPa) = 0.08810764
#
# Stress axis : x y z
#
# Youngs Moduli (GPa) = 53.03322 10.44399 43.15060
#
# Poissons Ratio (x) = -0.03824 0.74933
# Poissons Ratio (y) = -0.19420 0.48037
# Poissons Ratio (z) = 0.92095 0.11627
#
# Static dielectric constant tensor:
#      x y z
#    x 1.614220 0.000000 0.000000 
#    y 0.000000 1.682470 0.000000 
#    z 0.000000 0.000000 1.684850 
# 
# From -- ./inp_files/72724.got.cif
#   From: 2010.05.17/outbox.cif.g08.bks.cpg/sg65_37_cif.got.tgz:72724.got - 2010.06.03 17:01:31.
