data_PCOD9488360
_publ_section_title
;
Structure prediction by ZEFSAII (Michael W. Deem and Ramdas Pophale) SiO2 
 PCOD9488360
Probable space group: C M M M
;
_chemical_formula_sum "Si O2"
_cell_formula_units_Z 88
_cell_length_a 16.265681
_cell_length_b 16.109856
_cell_length_c 17.527614
_cell_angle_alpha 90.000000
_cell_angle_beta 90.000000
_cell_angle_gamma 90.000000
_cell_volume 4592.897038
_symmetry_space_group_name_H-M "C M M M"
_symmetry_group_IT_number 65
_symmetry_cell_setting 'orthorhombic'
loop_
_space_group_symop_operation_xyz
x,y,z
-x,-y,z
x,-y,-z
-x,y,-z
-x,-y,-z
x,y,-z
-x,y,z
x,-y,z
1/2+x,1/2+y,z
1/2-x,1/2-y,z
1/2+x,1/2-y,-z
1/2-x,1/2+y,-z
1/2-x,1/2-y,-z
1/2+x,1/2+y,-z
1/2-x,1/2+y,z
1/2+x,1/2-y,z
loop_
_atom_site_type_symbol
_atom_site_label
_atom_site_fract_x
_atom_site_fract_y
_atom_site_fract_z
Si Si1 0.000000 0.408339 0.091280
Si Si2 0.590391 0.597446 0.752158
Si Si3 0.230651 0.398046 0.709368
Si Si4 0.407967 0.899315 0.588037
Si Si5 0.841275 0.858961 0.915370
Si Si6 0.827961 0.333656 0.130838
O O1 0.082461 0.367093 0.118077
O O2 0.000000 0.500000 0.123140
O O3 0.000000 0.409052 0.000000
O O4 0.500000 0.635407 0.736821
O O5 0.584749 0.500000 0.735360
O O6 0.672401 0.625881 0.707185
O O7 0.610725 0.605803 0.842723
O O8 0.226894 0.500000 0.721506
O O9 0.170219 0.376904 0.639705
O O10 0.196186 0.347743 0.781675
O O11 0.398460 0.872675 0.500000
O O12 0.500000 0.872766 0.614904
O O13 0.409428 0.000000 0.588091
O O14 0.834275 0.760544 0.898532
O O15 0.744938 0.883342 0.911841
O O16 0.874772 0.875107 0.000000
#
# Coordination Sequence:
#
# PCOD9488360 Si02
#       6
#     8  16  16  16  16  16
#     4  11  22  32  44  66  98 132 164 202 248 303
#     4   9  19  34  50  70  92 119 162 210 257 298
#     4   9  17  30  49  71  99 132 161 198 243 289
#     4   8  14  25  44  72 103 132 161 194 236 288
#     4  10  20  35  52  67  91 126 166 215 260 298
#     4  10  20  33  47  68  94 127 168 200 244 299
#
# _framework density 19.160019999999999
#
# number of rings (size 3 to 8) (size 9 to 14) (size 15 to 20)
#    0.000    2.636    0.000    3.273    2.545    1.455 
#    0.000    0.909    0.000    0.545    0.000   14.000 
#    0.000    0.000    0.000    0.000    0.000    0.000 
#
# Total GULP energy -244955.106567 kJ/mol
# GULP energy per Si atom -5567.161513 kJ/mol
# Density = 1.911641 g / cm^3
# Si number density = 19.160020 Si / 1000 Ang^3
#
#
#
# Elastic Constant Matrix: (Units=GPa)
#
#
# Indices 1 2 3 4 5 6 
#
# 1 194.3023 18.5748 59.9111 0.0000 0.0000 0.0000
# 2 18.5748 11.2383 -5.1339 0.0000 0.0000 0.0000
# 3 59.9111 -5.1339 82.2948 0.0000 0.0000 0.0000
# 4 0.0000 0.0000 0.0000 14.2390 0.0000 0.0000
# 5 0.0000 0.0000 0.0000 0.0000 11.5861 0.0000
# 6 0.0000 0.0000 0.0000 0.0000 0.0000 15.8692
#
#
#
# Elastic Compliance Matrix: (Units=1/GPa)
#
#
# Indices 1 2 3 4 5 6 
#
# 1 0.009516 -0.019447 -0.008141 0.000000 0.000000 0.000000
# 2 -0.019447 0.131334 0.022350 0.000000 0.000000 0.000000
# 3 -0.008141 0.022350 0.019472 0.000000 0.000000 0.000000
# 4 0.000000 0.000000 0.000000 0.070230 0.000000 0.000000
# 5 0.000000 0.000000 0.000000 0.000000 0.086310 0.000000
# 6 0.000000 0.000000 0.000000 0.000000 0.000000 0.063015
#
#
# Mechanical properties :
#
#
# Convention : Reuss Voigt Hill
#
# Bulk Modulus (GPa) = 6.67344 48.28217 27.47781
# Shear Modulus (GPa) = 11.35589 22.63774 16.99682
#
# Velocity S-wave (km/s) = 2.43716 3.44104 2.98165
# Velocity P-wave (km/s) = 3.37790 6.40639 5.12113
#
# Compressibility (1/GPa) = 0.14984776
#
# Stress axis : x y z
#
# Youngs Moduli (GPa) = 105.08863 7.61419 51.35525
#
# Poissons Ratio (x) = 0.14807 0.41807
# Poissons Ratio (y) = 2.04363 -1.14781
# Poissons Ratio (z) = 0.85549 -0.17018
#
# Static dielectric constant tensor:
#      x y z
#    x 1.686570 0.000000 0.000000 
#    y 0.000000 1.739040 0.000000 
#    z 0.000000 0.000000 1.666340 
# 
# From -- ./inp_files/53216.got.cif
#   From: 2010.05.17/outbox.cif.g08.bks.cpg/sg65_27_cif.got.tgz:53216.got - 2010.06.03 17:01:31.
