data_PCOD9488219
_publ_section_title
;
Structure prediction by ZEFSAII (Michael W. Deem and Ramdas Pophale) SiO2 
 PCOD9488219
Probable space group: C M M M
;
_chemical_formula_sum "Si O2"
_cell_formula_units_Z 64
_cell_length_a 11.460776
_cell_length_b 14.548214
_cell_length_c 17.144128
_cell_angle_alpha 90.000000
_cell_angle_beta 90.000000
_cell_angle_gamma 90.000000
_cell_volume 2858.505984
_symmetry_space_group_name_H-M "C M M M"
_symmetry_group_IT_number 65
_symmetry_cell_setting 'orthorhombic'
loop_
_space_group_symop_operation_xyz
x,y,z
-x,-y,z
x,-y,-z
-x,y,-z
-x,-y,-z
x,y,-z
-x,y,z
x,-y,z
1/2+x,1/2+y,z
1/2-x,1/2-y,z
1/2+x,1/2-y,-z
1/2-x,1/2+y,-z
1/2-x,1/2-y,-z
1/2+x,1/2+y,-z
1/2-x,1/2+y,z
1/2+x,1/2-y,z
loop_
_atom_site_type_symbol
_atom_site_label
_atom_site_fract_x
_atom_site_fract_y
_atom_site_fract_z
Si Si1 0.000000 0.153318 0.351135
Si Si2 0.637338 0.893196 0.000000
Si Si3 0.755473 0.391625 0.845156
Si Si4 0.742570 0.856216 0.337129
Si Si5 0.000000 0.361296 0.409208
Si Si6 0.000000 0.107117 0.818998
O O1 0.871815 0.106679 0.361453
O O2 0.000000 0.250274 0.395400
O O3 0.000000 0.170703 0.257413
O O4 0.675932 0.850616 0.082172
O O5 0.500000 0.897613 0.000000
O O6 0.683250 0.000000 0.000000
O O7 0.784494 0.500000 0.839689
O O8 0.770706 0.357839 0.756839
O O9 0.618903 0.380971 0.864237
O O10 0.750000 0.750000 0.361712
O O11 0.622428 0.894543 0.372078
O O12 0.000000 0.381831 0.500000
O O13 0.000000 0.000000 0.790039
#
# Coordination Sequence:
#
# PCOD9488219 Si02
#       6
#     8   8  16  16   8   8
#     4   8  16  30  47  70  96 121 155 196 232 281
#     4   9  18  29  42  67  99 128 164 198 227 274
#     4   9  17  30  49  71  96 127 161 198 237 278
#     4   9  18  32  50  72  97 126 159 196 238 285
#     4  10  20  32  49  73  96 122 158 197 240 290
#     4   8  14  27  48  71  93 121 159 197 237 280
#
# _framework density 22.389317999999999
#
# number of rings (size 3 to 8) (size 9 to 14) (size 15 to 20)
#    0.000    3.125    0.000    0.000    1.750    5.000 
#    0.000    3.125    0.000    1.875    0.000   10.500 
#    0.000    0.000    0.000    0.000    0.000    0.000 
#
# Total GULP energy -178185.440112 kJ/mol
# GULP energy per Si atom -5568.295004 kJ/mol
# Density = 2.233836 g / cm^3
# Si number density = 22.389318 Si / 1000 Ang^3
#
#
#
# Elastic Constant Matrix: (Units=GPa)
#
#
# Indices 1 2 3 4 5 6 
#
# 1 202.5124 10.3574 88.9378 0.0000 0.0000 0.0000
# 2 10.3574 64.9604 4.7046 0.0000 0.0000 0.0000
# 3 88.9378 4.7046 96.5819 0.0000 0.0000 0.0000
# 4 0.0000 0.0000 0.0000 12.1583 0.0000 0.0000
# 5 0.0000 0.0000 0.0000 0.0000 -2.4316 0.0000
# 6 0.0000 0.0000 0.0000 0.0000 0.0000 0.2947
#
#
#
# Elastic Compliance Matrix: (Units=1/GPa)
#
#
# Indices 1 2 3 4 5 6 
#
# 1 0.008330 -0.000775 -0.007633 0.000000 0.000000 0.000000
# 2 -0.000775 0.015521 -0.000042 0.000000 0.000000 0.000000
# 3 -0.007633 -0.000042 0.017384 0.000000 0.000000 0.000000
# 4 0.000000 0.000000 0.000000 0.082249 0.000000 0.000000
# 5 0.000000 0.000000 0.000000 0.000000 -0.411259 0.000000
# 6 0.000000 0.000000 0.000000 0.000000 0.000000 3.393082
#
#
# Mechanical properties :
#
#
# Convention : Reuss Voigt Hill
#
# Bulk Modulus (GPa) = 41.09347 63.56160 52.32753
# Shear Modulus (GPa) = 1.59728 19.34128 10.46928
#
# Velocity S-wave (km/s) = 0.84555 2.94234 2.16476
# Velocity P-wave (km/s) = 4.39854 6.32408 5.44707
#
# Compressibility (1/GPa) = 0.02433477
#
# Stress axis : x y z
#
# Youngs Moduli (GPa) = 120.05289 64.43023 57.52254
#
# Poissons Ratio (x) = 0.04995 0.43905
# Poissons Ratio (y) = 0.09308 0.00242
# Poissons Ratio (z) = 0.91632 0.00271
#
# Static dielectric constant tensor:
#      x y z
#    x 1.875280 0.000000 0.000000 
#    y 0.000000 1.905380 0.000000 
#    z 0.000000 0.000000 1.793730 
# 
# From -- ./inp_files/37828.got.cif
#   From: 2010.05.17/outbox.cif.g08.bks.cpg/sg65_19_cif.got.tgz:37828.got - 2010.06.03 17:01:31.
