data_PCOD9488504
_publ_section_title
;
Structure prediction by ZEFSAII (Michael W. Deem and Ramdas Pophale) SiO2 
 PCOD9488504
Probable space group: C M M M
;
_chemical_formula_sum "Si O2"
_cell_formula_units_Z 112
_cell_length_a 14.809503
_cell_length_b 19.692970
_cell_length_c 18.862708
_cell_angle_alpha 90.000000
_cell_angle_beta 90.000000
_cell_angle_gamma 90.000000
_cell_volume 5501.178603
_symmetry_space_group_name_H-M "C M M M"
_symmetry_group_IT_number 65
_symmetry_cell_setting 'orthorhombic'
loop_
_space_group_symop_operation_xyz
x,y,z
-x,-y,z
x,-y,-z
-x,y,-z
-x,-y,-z
x,y,-z
-x,y,z
x,-y,z
1/2+x,1/2+y,z
1/2-x,1/2-y,z
1/2+x,1/2-y,-z
1/2-x,1/2+y,-z
1/2-x,1/2-y,-z
1/2+x,1/2+y,-z
1/2-x,1/2+y,z
1/2+x,1/2-y,z
loop_
_atom_site_type_symbol
_atom_site_label
_atom_site_fract_x
_atom_site_fract_y
_atom_site_fract_z
Si Si1 0.151518 0.574890 0.282606
Si Si2 0.759752 0.921221 0.582548
Si Si3 0.352232 0.424013 0.784898
Si Si4 0.601172 0.671948 0.337108
Si Si5 0.396514 0.220400 0.232261
Si Si6 0.259967 0.580125 0.079724
Si Si7 0.891147 0.691871 0.920238
O O1 0.110656 0.500000 0.271702
O O2 0.173642 0.585413 0.365703
O O3 0.250725 0.573391 0.247076
O O4 0.105885 0.640524 0.249546
O O5 0.739138 0.912836 0.500000
O O6 0.834203 0.866896 0.608063
O O7 0.792331 0.000000 0.593265
O O8 0.388793 0.500000 0.787653
O O9 0.404207 0.378052 0.730473
O O10 0.334605 0.397359 0.863663
O O11 0.500000 0.684274 0.365808
O O12 0.643501 0.738394 0.298763
O O13 0.500000 0.243084 0.231633
O O14 0.362559 0.230996 0.151812
O O15 0.242040 0.500000 0.093278
O O16 0.168030 0.623129 0.084420
O O17 0.294116 0.587182 0.000000
O O18 0.000000 0.680476 0.915462
O O19 0.873710 0.720539 0.000000
#
# Coordination Sequence:
#
# PCOD9488504 Si02
#       7
#    16  16  16  16  16  16  16
#     4   9  17  32  52  75 103 134 169 206 248 303
#     4   9  19  36  59  85 107 128 159 203 257 313
#     4   9  17  30  48  70  95 127 166 205 254 310
#     4  10  21  35  51  74 103 133 167 210 257 305
#     4  10  20  33  49  73 106 142 178 215 253 295
#     4   9  16  27  44  68  99 130 165 216 268 308
#     4   9  17  29  45  67  99 138 177 217 261 304
#
# _framework density 20.359272000000001
#
# number of rings (size 3 to 8) (size 9 to 14) (size 15 to 20)
#    0.000    2.714    1.429    1.286    0.000    4.286 
#    0.000    5.714    0.000    4.286    0.000    4.000 
#    0.000    0.000    0.000    0.000    0.000    0.000 
#
# Total GULP energy -311805.356185 kJ/mol
# GULP energy per Si atom -5567.952789 kJ/mol
# Density = 2.031293 g / cm^3
# Si number density = 20.359272 Si / 1000 Ang^3
#
#
#
# Elastic Constant Matrix: (Units=GPa)
#
#
# Indices 1 2 3 4 5 6 
#
# 1 29.5480 -1.4527 -2.1868 0.0000 0.0000 0.0000
# 2 -1.4527 74.7148 20.7784 0.0000 0.0000 0.0000
# 3 -2.1868 20.7784 122.4047 0.0000 0.0000 0.0000
# 4 0.0000 0.0000 0.0000 19.2311 0.0000 0.0000
# 5 0.0000 0.0000 0.0000 0.0000 14.9747 0.0000
# 6 0.0000 0.0000 0.0000 0.0000 0.0000 14.5442
#
#
#
# Elastic Compliance Matrix: (Units=1/GPa)
#
#
# Indices 1 2 3 4 5 6 
#
# 1 0.033907 0.000515 0.000518 0.000000 0.000000 0.000000
# 2 0.000515 0.014055 -0.002377 0.000000 0.000000 0.000000
# 3 0.000518 -0.002377 0.008582 0.000000 0.000000 0.000000
# 4 0.000000 0.000000 0.000000 0.051999 0.000000 0.000000
# 5 0.000000 0.000000 0.000000 0.000000 0.066779 0.000000
# 6 0.000000 0.000000 0.000000 0.000000 0.000000 0.068756
#
#
# Mechanical properties :
#
#
# Convention : Reuss Voigt Hill
#
# Bulk Modulus (GPa) = 18.56734 28.99391 23.78063
# Shear Modulus (GPa) = 18.88802 23.71857 21.30330
#
# Velocity S-wave (km/s) = 3.04918 3.41691 3.23827
# Velocity P-wave (km/s) = 4.64072 5.46252 5.06830
#
# Compressibility (1/GPa) = 0.05385802
#
# Stress axis : x y z
#
# Youngs Moduli (GPa) = 29.49246 71.14798 116.51849
#
# Poissons Ratio (x) = -0.03665 -0.06039
# Poissons Ratio (y) = -0.01519 0.27693
# Poissons Ratio (z) = -0.01529 0.16910
#
# Static dielectric constant tensor:
#      x y z
#    x 1.703020 0.000000 0.000000 
#    y 0.000000 1.775410 0.000000 
#    z 0.000000 0.000000 1.770560 
# 
# From -- ./inp_files/56029.got.cif
#   From: 2010.05.17/outbox.cif.g08.bks.cpg/sg65_29_cif.got.tgz:56029.got - 2010.06.03 17:01:31.
