data_PCOD9488596
_publ_section_title
;
Structure prediction by ZEFSAII (Michael W. Deem and Ramdas Pophale) SiO2 
 PCOD9488596
Probable space group: C M M M
;
_chemical_formula_sum "Si O2"
_cell_formula_units_Z 64
_cell_length_a 18.582717
_cell_length_b 7.783768
_cell_length_c 21.618736
_cell_angle_alpha 90.000000
_cell_angle_beta 90.000000
_cell_angle_gamma 90.000000
_cell_volume 3127.010893
_symmetry_space_group_name_H-M "C M M M"
_symmetry_group_IT_number 65
_symmetry_cell_setting 'orthorhombic'
loop_
_space_group_symop_operation_xyz
x,y,z
-x,-y,z
x,-y,-z
-x,y,-z
-x,-y,-z
x,y,-z
-x,y,z
x,-y,z
1/2+x,1/2+y,z
1/2-x,1/2-y,z
1/2+x,1/2-y,-z
1/2-x,1/2+y,-z
1/2-x,1/2-y,-z
1/2+x,1/2+y,-z
1/2-x,1/2+y,z
1/2+x,1/2-y,z
loop_
_atom_site_type_symbol
_atom_site_label
_atom_site_fract_x
_atom_site_fract_y
_atom_site_fract_z
Si Si1 0.587576 0.700293 0.500000
Si Si2 0.418624 0.705248 0.876379
Si Si3 0.833599 0.207010 0.243683
Si Si4 0.666133 0.202724 0.000000
Si Si5 0.916231 0.789413 0.634666
O O1 0.609484 0.500000 0.500000
O O2 0.500000 0.703199 0.500000
O O3 0.608996 0.773118 0.566804
O O4 0.500000 0.773563 0.881501
O O5 0.423990 0.500000 0.868427
O O6 0.376918 0.772957 0.816114
O O7 0.373639 0.733607 0.938490
O O8 0.750000 0.250000 0.239254
O O9 0.868757 0.268994 0.307764
O O10 0.839966 0.000000 0.244059
O O11 0.750000 0.250000 0.000000
O O12 0.660680 0.000000 0.000000
O O13 0.000000 0.741777 0.643664
O O14 0.914850 0.000000 0.632842
#
# Coordination Sequence:
#
# PCOD9488596 Si02
#       5
#     8  16  16   8  16
#     4   7  10  18  37  66  95 121 156 207 256 292
#     4  10  21  38  59  81 105 135 172 214 259 306
#     4  10  20  33  50  73 102 135 169 207 252 302
#     4  12  25  40  59  83 111 141 171 206 251 302
#     4   8  13  24  44  69  95 125 165 210 252 295
#
# _framework density 20.466828
#
# number of rings (size 3 to 8) (size 9 to 14) (size 15 to 20)
#    0.000    2.625    0.000    4.500    0.000    8.000 
#    0.000    0.625    0.000    2.250    0.000    0.000 
#    0.000    3.000    0.000    0.000    0.000    0.000 
#
# Total GULP energy -178555.743705 kJ/mol
# GULP energy per Si atom -5579.866991 kJ/mol
# Density = 2.042024 g / cm^3
# Si number density = 20.466828 Si / 1000 Ang^3
#
#
#
# Elastic Constant Matrix: (Units=GPa)
#
#
# Indices 1 2 3 4 5 6 
#
# 1 162.4030 1.6679 125.0767 0.0000 0.0000 0.0000
# 2 1.6679 29.0495 4.9302 0.0000 0.0000 0.0000
# 3 125.0767 4.9302 243.6517 0.0000 0.0000 0.0000
# 4 0.0000 0.0000 0.0000 -15.0654 0.0000 0.0000
# 5 0.0000 0.0000 0.0000 0.0000 -0.7116 0.0000
# 6 0.0000 0.0000 0.0000 0.0000 0.0000 20.3709
#
#
#
# Elastic Compliance Matrix: (Units=1/GPa)
#
#
# Indices 1 2 3 4 5 6 
#
# 1 0.010186 0.000304 -0.005235 0.000000 0.000000 0.000000
# 2 0.000304 0.034552 -0.000855 0.000000 0.000000 0.000000
# 3 -0.005235 -0.000855 0.006809 0.000000 0.000000 0.000000
# 4 0.000000 0.000000 0.000000 -0.066377 0.000000 0.000000
# 5 0.000000 0.000000 0.000000 0.000000 -1.405268 0.000000
# 6 0.000000 0.000000 0.000000 0.000000 0.000000 0.049090
#
#
# Mechanical properties :
#
#
# Convention : Reuss Voigt Hill
#
# Bulk Modulus (GPa) = 25.01638 77.60597 51.31118
# Shear Modulus (GPa) = -3.71441 21.14742 8.71650
#
# Velocity S-wave (km/s) = -1.34862 3.21791 2.06594
# Velocity P-wave (km/s) = 3.13439 7.19770 5.55118
#
# Compressibility (1/GPa) = 0.03997381
#
# Stress axis : x y z
#
# Youngs Moduli (GPa) = 98.17020 28.94219 146.86462
#
# Poissons Ratio (x) = -0.00879 0.76887
# Poissons Ratio (y) = -0.02981 0.12557
# Poissons Ratio (z) = 0.51395 0.02475
#
# Static dielectric constant tensor:
#      x y z
#    x 1.676960 0.000000 0.000000 
#    y 0.000000 1.759030 0.000000 
#    z 0.000000 0.000000 1.792750 
# 
# From -- ./inp_files/63281.got.cif
#   From: 2010.05.17/outbox.cif.g08.bks.cpg/sg65_32_cif.got.tgz:63281.got - 2010.06.03 17:01:31.
