data_PCOD9488352
_publ_section_title
;
Structure prediction by ZEFSAII (Michael W. Deem and Ramdas Pophale) SiO2 
 PCOD9488352
Probable space group: C M M M
;
_chemical_formula_sum "Si O2"
_cell_formula_units_Z 104
_cell_length_a 19.024623
_cell_length_b 22.606411
_cell_length_c 15.824923
_cell_angle_alpha 90.000000
_cell_angle_beta 90.000000
_cell_angle_gamma 90.000000
_cell_volume 6805.958302
_symmetry_space_group_name_H-M "C M M M"
_symmetry_group_IT_number 65
_symmetry_cell_setting 'orthorhombic'
loop_
_space_group_symop_operation_xyz
x,y,z
-x,-y,z
x,-y,-z
-x,y,-z
-x,-y,-z
x,y,-z
-x,y,z
x,-y,z
1/2+x,1/2+y,z
1/2-x,1/2-y,z
1/2+x,1/2-y,-z
1/2-x,1/2+y,-z
1/2-x,1/2-y,-z
1/2+x,1/2+y,-z
1/2-x,1/2+y,z
1/2+x,1/2-y,z
loop_
_atom_site_type_symbol
_atom_site_label
_atom_site_fract_x
_atom_site_fract_y
_atom_site_fract_z
Si Si1 0.083787 0.067376 0.000000
Si Si2 0.415330 0.565602 0.337490
Si Si3 0.206401 0.569426 0.900214
Si Si4 0.915645 0.233628 0.226143
Si Si5 0.917789 0.340576 0.097533
Si Si6 0.150870 0.886989 0.830023
Si Si7 0.584879 0.306444 0.592430
O O1 0.111537 0.097247 0.083972
O O2 0.000000 0.067731 0.000000
O O3 0.109754 0.000000 0.000000
O O4 0.500000 0.568118 0.327523
O O5 0.398522 0.500000 0.372327
O O6 0.379786 0.573835 0.246307
O O7 0.395145 0.624830 0.388987
O O8 0.200837 0.500000 0.880343
O O9 0.133720 0.604354 0.889242
O O10 0.267696 0.599519 0.845920
O O11 0.225347 0.574341 0.000000
O O12 0.903687 0.290787 0.168185
O O13 0.869499 0.179953 0.191089
O O14 0.897731 0.233991 0.326312
O O15 0.000000 0.219636 0.219872
O O16 0.000000 0.356889 0.103900
O O17 0.906623 0.318886 0.000000
O O18 0.611611 0.288192 0.500000
O O19 0.500000 0.306135 0.588836
#
# Coordination Sequence:
#
# PCOD9488352 Si02
#       7
#     8  16  16  16  16  16  16
#     4  11  20  26  36  55  83 125 166 189 211 247
#     4   9  16  25  37  56  86 122 161 197 223 256
#     4  10  20  33  47  65  90 119 153 194 233 268
#     4   9  18  31  46  67  95 124 155 189 222 264
#     4   9  19  34  51  69  89 116 150 189 233 280
#     4  11  19  28  41  61  89 123 154 188 223 260
#     4   8  14  25  41  62  88 117 149 188 232 268
#
# _framework density 15.280728
#
# number of rings (size 3 to 8) (size 9 to 14) (size 15 to 20)
#    0.000    2.538    0.769    3.692    1.077    2.462 
#    0.000    4.615    0.000    0.000    0.000    8.615 
#    0.000    5.538    0.000    6.000    0.000    0.154 
#
# Total GULP energy -289531.245103 kJ/mol
# GULP energy per Si atom -5567.908560 kJ/mol
# Density = 1.524595 g / cm^3
# Si number density = 15.280728 Si / 1000 Ang^3
#
#
#
# Elastic Constant Matrix: (Units=GPa)
#
#
# Indices 1 2 3 4 5 6 
#
# 1 45.9403 38.8780 28.9948 0.0000 0.0000 0.0000
# 2 38.8780 61.6415 34.4796 0.0000 0.0000 0.0000
# 3 28.9948 34.4796 100.2071 0.0000 0.0000 0.0000
# 4 0.0000 0.0000 0.0000 7.9223 0.0000 0.0000
# 5 0.0000 0.0000 0.0000 0.0000 7.8512 0.0000
# 6 0.0000 0.0000 0.0000 0.0000 0.0000 -13.5042
#
#
#
# Elastic Compliance Matrix: (Units=1/GPa)
#
#
# Indices 1 2 3 4 5 6 
#
# 1 0.048146 -0.027954 -0.004312 0.000000 0.000000 0.000000
# 2 -0.027954 0.036320 -0.004409 0.000000 0.000000 0.000000
# 3 -0.004312 -0.004409 0.012744 0.000000 0.000000 0.000000
# 4 0.000000 0.000000 0.000000 0.126227 0.000000 0.000000
# 5 0.000000 0.000000 0.000000 0.000000 0.127369 0.000000
# 6 0.000000 0.000000 0.000000 0.000000 0.000000 -0.074051
#
#
# Mechanical properties :
#
#
# Convention : Reuss Voigt Hill
#
# Bulk Modulus (GPa) = 41.91178 45.83264 43.87221
# Shear Modulus (GPa) = 13.96426 7.48295 10.72360
#
# Velocity S-wave (km/s) = 3.02627 2.21531 2.65197
# Velocity P-wave (km/s) = 6.30067 6.04999 6.17660
#
# Compressibility (1/GPa) = 0.02385964
#
# Stress axis : x y z
#
# Youngs Moduli (GPa) = 20.77027 27.53335 78.46798
#
# Poissons Ratio (x) = 0.76966 0.33839
# Poissons Ratio (y) = 0.58061 0.34593
# Poissons Ratio (z) = 0.08957 0.12138
#
# Static dielectric constant tensor:
#      x y z
#    x 1.495860 0.000000 0.000000 
#    y 0.000000 1.510180 0.000000 
#    z 0.000000 0.000000 1.528480 
# 
# From -- ./inp_files/44417.got.cif
#   From: 2010.05.17/outbox.cif.g08.bks.cpg/sg65_23_cif.got.tgz:44417.got - 2010.06.03 17:01:31.
