data_PCOD9488364
_publ_section_title
;
Structure prediction by ZEFSAII (Michael W. Deem and Ramdas Pophale) SiO2 
 PCOD9488364
Probable space group: C M M M
;
_chemical_formula_sum "Si O2"
_cell_formula_units_Z 116
_cell_length_a 7.710400
_cell_length_b 29.729095
_cell_length_c 28.346307
_cell_angle_alpha 90.000000
_cell_angle_beta 90.000000
_cell_angle_gamma 90.000000
_cell_volume 6497.631598
_symmetry_space_group_name_H-M "C M M M"
_symmetry_group_IT_number 65
_symmetry_cell_setting 'orthorhombic'
loop_
_space_group_symop_operation_xyz
x,y,z
-x,-y,z
x,-y,-z
-x,y,-z
-x,-y,-z
x,y,-z
-x,y,z
x,-y,z
1/2+x,1/2+y,z
1/2-x,1/2-y,z
1/2+x,1/2-y,-z
1/2-x,1/2+y,-z
1/2-x,1/2-y,-z
1/2+x,1/2+y,-z
1/2-x,1/2+y,z
1/2+x,1/2-y,z
loop_
_atom_site_type_symbol
_atom_site_label
_atom_site_fract_x
_atom_site_fract_y
_atom_site_fract_z
Si Si1 0.796881 0.049916 0.185403
Si Si2 0.710752 0.855133 0.322681
Si Si3 0.709231 0.197370 0.419095
Si Si4 0.791258 0.302519 0.770059
Si Si5 0.295967 0.139913 0.141561
Si Si6 0.201992 0.550180 0.291675
Si Si7 0.706134 0.699010 0.053199
Si Si8 0.000000 0.180324 0.500000
O O1 0.770756 0.089486 0.148344
O O2 0.708582 0.060311 0.235586
O O3 0.000000 0.047914 0.196122
O O4 0.739270 0.000000 0.169973
O O5 0.500000 0.857154 0.318984
O O6 0.746498 0.830797 0.371761
O O7 0.772757 0.826191 0.277819
O O8 0.776798 0.906382 0.317959
O O9 0.500000 0.193309 0.430468
O O10 0.750000 0.250000 0.410646
O O11 0.844368 0.182431 0.459202
O O12 0.750000 0.250000 0.771582
O O13 0.723688 0.328809 0.816174
O O14 0.000000 0.306087 0.770115
O O15 0.500000 0.136970 0.148899
O O16 0.265545 0.163419 0.091714
O O17 0.278402 0.500000 0.298620
O O18 0.000000 0.547210 0.305151
O O19 0.500000 0.695858 0.050723
O O20 0.750000 0.750000 0.068190
O O21 0.777160 0.692562 0.000000
#
# Coordination Sequence:
#
# PCOD9488364 Si02
#       8
#    16  16  16  16  16  16  16   4
#     4  10  20  33  50  77 109 141 179 224 272 325
#     4   9  18  34  50  76 111 139 175 218 268 323
#     4  11  22  36  57  80 110 146 181 232 276 318
#     4  10  20  33  47  69 106 143 175 210 254 317
#     4  11  21  34  54  77 103 142 184 223 269 322
#     4   9  16  31  55  77 104 142 180 221 268 321
#     4  10  21  37  56  78 107 140 181 231 276 319
#     4  12  24  40  58  82 109 140 195 230 270 328
#
# _framework density 17.85266
#
# number of rings (size 3 to 8) (size 9 to 14) (size 15 to 20)
#    0.000    1.931    2.069    2.483    0.000    3.862 
#    2.483    0.000    0.000    0.414    0.000    3.862 
#    0.000    3.310    0.000    0.000    0.000    0.000 
#
# Total GULP energy -322946.971227 kJ/mol
# GULP energy per Si atom -5568.051228 kJ/mol
# Density = 1.781203 g / cm^3
# Si number density = 17.852660 Si / 1000 Ang^3
#
#
#
# Elastic Constant Matrix: (Units=GPa)
#
#
# Indices 1 2 3 4 5 6 
#
# 1 65.7278 19.6629 20.8472 0.0000 0.0000 0.0000
# 2 19.6629 78.0678 57.8896 0.0000 0.0000 0.0000
# 3 20.8472 57.8896 94.8429 0.0000 0.0000 0.0000
# 4 0.0000 0.0000 0.0000 -55.7502 0.0000 0.0000
# 5 0.0000 0.0000 0.0000 0.0000 16.5166 0.0000
# 6 0.0000 0.0000 0.0000 0.0000 0.0000 17.5616
#
#
#
# Elastic Compliance Matrix: (Units=1/GPa)
#
#
# Indices 1 2 3 4 5 6 
#
# 1 0.016661 -0.002705 -0.002011 0.000000 0.000000 0.000000
# 2 -0.002705 0.023840 -0.013957 0.000000 0.000000 0.000000
# 3 -0.002011 -0.013957 0.019505 0.000000 0.000000 0.000000
# 4 0.000000 0.000000 0.000000 -0.017937 0.000000 0.000000
# 5 0.000000 0.000000 0.000000 0.000000 0.060545 0.000000
# 6 0.000000 0.000000 0.000000 0.000000 0.000000 0.056942
#
#
# Mechanical properties :
#
#
# Convention : Reuss Voigt Hill
#
# Bulk Modulus (GPa) = 44.13060 48.38198 46.25629
# Shear Modulus (GPa) = 24.45519 5.01486 14.73503
#
# Velocity S-wave (km/s) = 3.70514 1.67783 2.87604
# Velocity P-wave (km/s) = 6.56332 5.55995 6.08236
#
# Compressibility (1/GPa) = 0.02266001
#
# Stress axis : x y z
#
# Youngs Moduli (GPa) = 60.01894 41.94625 51.26993
#
# Poissons Ratio (x) = 0.11347 0.10311
# Poissons Ratio (y) = 0.16236 0.71556
# Poissons Ratio (z) = 0.12070 0.58543
#
# Static dielectric constant tensor:
#      x y z
#    x 1.664110 0.000000 0.000000 
#    y 0.000000 1.618070 0.000000 
#    z 0.000000 0.000000 1.597950 
# 
# From -- ./inp_files/68629.got.cif
#   From: 2010.05.17/outbox.cif.g08.bks.cpg/sg65_35_cif.got.tgz:68629.got - 2010.06.03 17:01:31.
