data_PCOD9488082
_publ_section_title
;
Structure prediction by ZEFSAII (Michael W. Deem and Ramdas Pophale) SiO2 
 PCOD9488082
Probable space group: C M M M
;
_chemical_formula_sum "Si O2"
_cell_formula_units_Z 104
_cell_length_a 8.228168
_cell_length_b 19.935161
_cell_length_c 36.168465
_cell_angle_alpha 90.000000
_cell_angle_beta 90.000000
_cell_angle_gamma 90.000000
_cell_volume 5932.708027
_symmetry_space_group_name_H-M "C M M M"
_symmetry_group_IT_number 65
_symmetry_cell_setting 'orthorhombic'
loop_
_space_group_symop_operation_xyz
x,y,z
-x,-y,z
x,-y,-z
-x,y,-z
-x,-y,-z
x,y,-z
-x,y,z
x,-y,z
1/2+x,1/2+y,z
1/2-x,1/2-y,z
1/2+x,1/2-y,-z
1/2-x,1/2+y,-z
1/2-x,1/2-y,-z
1/2+x,1/2+y,-z
1/2-x,1/2+y,z
1/2+x,1/2-y,z
loop_
_atom_site_type_symbol
_atom_site_label
_atom_site_fract_x
_atom_site_fract_y
_atom_site_fract_z
Si Si1 0.193756 0.077071 0.254871
Si Si2 0.679760 0.418164 0.587621
Si Si3 0.805313 0.673834 0.189951
Si Si4 0.803593 0.325941 0.893562
Si Si5 0.801670 0.577452 0.958591
Si Si6 0.000000 0.581806 0.457208
Si Si7 0.687646 0.918817 0.334635
O O1 0.241714 0.123129 0.220652
O O2 0.261612 0.104061 0.293903
O O3 0.000000 0.075141 0.258095
O O4 0.252406 0.000000 0.249621
O O5 0.500000 0.397301 0.574724
O O6 0.681973 0.500000 0.587224
O O7 0.707810 0.396780 0.630189
O O8 0.834913 0.396487 0.563533
O O9 0.750000 0.750000 0.197409
O O10 0.749188 0.656318 0.148152
O O11 0.000000 0.672020 0.190404
O O12 0.750000 0.250000 0.900950
O O13 0.743842 0.375380 0.925566
O O14 0.000000 0.328098 0.893578
O O15 0.753567 0.500000 0.953175
O O16 0.000000 0.578707 0.958242
O O17 0.750997 0.598589 0.000000
O O18 0.000000 0.500000 0.456068
O O19 0.000000 0.601931 0.500000
O O20 0.500000 0.902558 0.341867
O O21 0.701980 0.000000 0.333435
#
# Coordination Sequence:
#
# PCOD9488082 Si02
#       7
#    16  16  16  16  16   8  16
#     4  10  20  32  47  70  96 120 153 199 242 284
#     4   9  15  23  35  50  71 103 142 187 239 288
#     4  10  20  34  50  67  92 126 160 196 238 290
#     4   9  18  31  48  69  91 118 153 190 229 275
#     4   8  14  26  45  69  95 121 151 189 231 275
#     4   9  16  24  32  46  70 102 146 194 236 286
#     4   9  15  25  41  60  83 110 143 187 236 283
#
# _framework density 17.529938000000001
#
# number of rings (size 3 to 8) (size 9 to 14) (size 15 to 20)
#    0.000    2.846    0.769    1.846    0.000    4.615 
#    0.000    3.077    0.000    0.462    0.000    1.077 
#    0.000    0.000    0.000    0.000    0.000    0.769 
#
# Total GULP energy -289697.026387 kJ/mol
# GULP energy per Si atom -5571.096661 kJ/mol
# Density = 1.749004 g / cm^3
# Si number density = 17.529938 Si / 1000 Ang^3
#
#
#
# Elastic Constant Matrix: (Units=GPa)
#
#
# Indices 1 2 3 4 5 6 
#
# 1 62.8417 14.6279 48.2928 0.0000 0.0000 0.0000
# 2 14.6279 28.5414 52.8997 0.0000 0.0000 0.0000
# 3 48.2928 52.8997 147.6280 0.0000 0.0000 0.0000
# 4 0.0000 0.0000 0.0000 -7.1138 0.0000 0.0000
# 5 0.0000 0.0000 0.0000 0.0000 11.0269 0.0000
# 6 0.0000 0.0000 0.0000 0.0000 0.0000 15.3223
#
#
#
# Elastic Compliance Matrix: (Units=1/GPa)
#
#
# Indices 1 2 3 4 5 6 
#
# 1 0.021600 0.006032 -0.009227 0.000000 0.000000 0.000000
# 2 0.006032 0.106006 -0.039958 0.000000 0.000000 0.000000
# 3 -0.009227 -0.039958 0.024111 0.000000 0.000000 0.000000
# 4 0.000000 0.000000 0.000000 -0.140571 0.000000 0.000000
# 5 0.000000 0.000000 0.000000 0.000000 0.090687 0.000000
# 6 0.000000 0.000000 0.000000 0.000000 0.000000 0.065264
#
#
# Mechanical properties :
#
#
# Convention : Reuss Voigt Hill
#
# Bulk Modulus (GPa) = 15.28845 52.29465 33.79155
# Shear Modulus (GPa) = 18.16811 12.05979 15.11395
#
# Velocity S-wave (km/s) = 3.22282 2.62573 2.93947
# Velocity P-wave (km/s) = 4.75279 6.25212 5.55329
#
# Compressibility (1/GPa) = 0.06540886
#
# Stress axis : x y z
#
# Youngs Moduli (GPa) = 46.29644 9.43345 41.47556
#
# Poissons Ratio (x) = -0.05690 0.38271
# Poissons Ratio (y) = -0.27926 1.65730
# Poissons Ratio (z) = 0.42719 0.37695
#
# Static dielectric constant tensor:
#      x y z
#    x 1.614640 0.000000 0.000000 
#    y 0.000000 1.556210 0.000000 
#    z 0.000000 0.000000 1.610120 
# 
# From -- ./inp_files/76884.got.cif
#   From: 2010.05.17/outbox.cif.g08.bks.cpg/sg65_39_cif.got.tgz:76884.got - 2010.06.03 17:01:31.
