data_PCOD9488534
_publ_section_title
;
Structure prediction by ZEFSAII (Michael W. Deem and Ramdas Pophale) SiO2 
 PCOD9488534
Probable space group: C M M M
;
_chemical_formula_sum "Si O2"
_cell_formula_units_Z 88
_cell_length_a 7.576785
_cell_length_b 19.000266
_cell_length_c 29.410226
_cell_angle_alpha 90.000000
_cell_angle_beta 90.000000
_cell_angle_gamma 90.000000
_cell_volume 4233.923499
_symmetry_space_group_name_H-M "C M M M"
_symmetry_group_IT_number 65
_symmetry_cell_setting 'orthorhombic'
loop_
_space_group_symop_operation_xyz
x,y,z
-x,-y,z
x,-y,-z
-x,y,-z
-x,-y,-z
x,y,-z
-x,y,z
x,-y,z
1/2+x,1/2+y,z
1/2-x,1/2-y,z
1/2+x,1/2-y,-z
1/2-x,1/2+y,-z
1/2-x,1/2-y,-z
1/2+x,1/2+y,-z
1/2-x,1/2+y,z
1/2+x,1/2-y,z
loop_
_atom_site_type_symbol
_atom_site_label
_atom_site_fract_x
_atom_site_fract_y
_atom_site_fract_z
Si Si1 0.211768 0.419620 0.413880
Si Si2 0.287957 0.167751 0.500000
Si Si3 0.288322 0.419487 0.311842
Si Si4 0.788228 0.168373 0.948961
Si Si5 0.716281 0.418830 0.137594
Si Si6 0.711811 0.332488 0.225679
O O1 0.278946 0.500000 0.417910
O O2 0.278908 0.370882 0.454517
O O3 0.250364 0.394093 0.362898
O O4 0.000000 0.422801 0.417923
O O5 0.500000 0.160130 0.500000
O O6 0.250000 0.250000 0.500000
O O7 0.500000 0.422842 0.307595
O O8 0.221171 0.500000 0.307611
O O9 0.221156 0.369698 0.271676
O O10 0.750000 0.250000 0.938314
O O11 0.723459 0.117983 0.909003
O O12 0.000000 0.160774 0.950512
O O13 0.720186 0.153761 0.000000
O O14 0.500000 0.417931 0.137442
O O15 0.770157 0.500000 0.140826
O O16 0.775724 0.373695 0.181015
O O17 0.500000 0.339765 0.225757
O O18 0.750000 0.250000 0.224003
#
# Coordination Sequence:
#
# PCOD9488534 Si02
#       6
#    16   8  16  16  16  16
#     4   9  18  34  55  75  96 126 162 197 235 280
#     4  10  21  35  51  73 101 130 160 196 236 280
#     4   9  18  33  52  73  96 123 158 198 237 279
#     4   9  17  29  47  71  97 125 157 195 239 286
#     4   9  17  30  49  71  94 123 161 202 240 279
#     4  10  20  33  50  71  96 127 160 195 237 285
#
# _framework density 20.784503999999998
#
# number of rings (size 3 to 8) (size 9 to 14) (size 15 to 20)
#    0.000    2.727    0.000    1.364    0.000    5.818 
#    0.000    5.455    0.000    6.000    0.000    2.545 
#    0.000    0.000    0.000    0.000    0.000    0.000 
#
# Total GULP energy -245638.405576 kJ/mol
# GULP energy per Si atom -5582.691036 kJ/mol
# Density = 2.073720 g / cm^3
# Si number density = 20.784504 Si / 1000 Ang^3
#
#
#
# Elastic Constant Matrix: (Units=GPa)
#
#
# Indices 1 2 3 4 5 6 
#
# 1 47.1786 -0.0337 6.7787 0.0000 0.0000 0.0000
# 2 -0.0337 161.3107 153.1344 0.0000 0.0000 0.0000
# 3 6.7787 153.1344 229.2223 0.0000 0.0000 0.0000
# 4 0.0000 0.0000 0.0000 41.6597 0.0000 0.0000
# 5 0.0000 0.0000 0.0000 0.0000 24.1485 0.0000
# 6 0.0000 0.0000 0.0000 0.0000 0.0000 23.0200
#
#
#
# Elastic Compliance Matrix: (Units=1/GPa)
#
#
# Indices 1 2 3 4 5 6 
#
# 1 0.021448 0.001658 -0.001742 0.000000 0.000000 0.000000
# 2 0.001658 0.017075 -0.011456 0.000000 0.000000 0.000000
# 3 -0.001742 -0.011456 0.012068 0.000000 0.000000 0.000000
# 4 0.000000 0.000000 0.000000 0.024004 0.000000 0.000000
# 5 0.000000 0.000000 0.000000 0.000000 0.041410 0.000000
# 6 0.000000 0.000000 0.000000 0.000000 0.000000 0.043441
#
#
# Mechanical properties :
#
#
# Convention : Reuss Voigt Hill
#
# Bulk Modulus (GPa) = 36.35029 84.16338 60.25683
# Shear Modulus (GPa) = 26.08302 36.28777 31.18539
#
# Velocity S-wave (km/s) = 3.54634 4.18294 3.87772
# Velocity P-wave (km/s) = 5.85626 7.99440 7.00736
#
# Compressibility (1/GPa) = 0.02751010
#
# Stress axis : x y z
#
# Youngs Moduli (GPa) = 46.62536 58.56447 82.86644
#
# Poissons Ratio (x) = -0.09712 0.14436
# Poissons Ratio (y) = -0.07732 0.94934
# Poissons Ratio (z) = 0.08123 0.67093
#
# Static dielectric constant tensor:
#      x y z
#    x 1.794460 0.000000 0.000000 
#    y 0.000000 1.696340 0.000000 
#    z 0.000000 0.000000 1.738920 
# 
# From -- ./inp_files/68927.got.cif
#   From: 2010.05.17/outbox.cif.g08.bks.cpg/sg65_35_cif.got.tgz:68927.got - 2010.06.03 17:01:31.
