data_PCOD9488303
_publ_section_title
;
Structure prediction by ZEFSAII (Michael W. Deem and Ramdas Pophale) SiO2 
 PCOD9488303
Probable space group: C M M M
;
_chemical_formula_sum "Si O2"
_cell_formula_units_Z 64
_cell_length_a 7.726705
_cell_length_b 27.232276
_cell_length_c 18.622454
_cell_angle_alpha 90.000000
_cell_angle_beta 90.000000
_cell_angle_gamma 90.000000
_cell_volume 3918.457870
_symmetry_space_group_name_H-M "C M M M"
_symmetry_group_IT_number 65
_symmetry_cell_setting 'orthorhombic'
loop_
_space_group_symop_operation_xyz
x,y,z
-x,-y,z
x,-y,-z
-x,y,-z
-x,-y,-z
x,y,-z
-x,y,z
x,-y,z
1/2+x,1/2+y,z
1/2-x,1/2-y,z
1/2+x,1/2-y,-z
1/2-x,1/2+y,-z
1/2-x,1/2-y,-z
1/2+x,1/2+y,-z
1/2-x,1/2+y,z
1/2+x,1/2-y,z
loop_
_atom_site_type_symbol
_atom_site_label
_atom_site_fract_x
_atom_site_fract_y
_atom_site_fract_z
Si Si1 0.696371 0.098471 0.729777
Si Si2 0.000000 0.055642 0.176670
Si Si3 0.290683 0.557140 0.580803
Si Si4 0.500000 0.347313 0.085208
Si Si5 0.201969 0.694974 0.817252
O O1 0.500000 0.085741 0.750107
O O2 0.834049 0.065896 0.772936
O O3 0.720280 0.089440 0.645495
O O4 0.727693 0.154497 0.754857
O O5 0.000000 0.096880 0.115011
O O6 0.000000 0.000000 0.150484
O O7 0.236578 0.571095 0.500000
O O8 0.500000 0.558981 0.583143
O O9 0.240952 0.500000 0.592282
O O10 0.331448 0.321151 0.119357
O O11 0.500000 0.345194 0.000000
O O12 0.250000 0.750000 0.794652
O O13 0.000000 0.693443 0.838520
#
# Coordination Sequence:
#
# PCOD9488303 Si02
#       5
#    16   8  16   8  16
#     4  10  20  32  51  76 102 134 173 214 252 299
#     4  10  20  35  53  74 104 137 173 211 244 295
#     4   9  17  29  46  71 103 136 170 209 253 296
#     4  10  22  37  54  79 107 134 165 204 256 309
#     4  10  20  36  55  78 103 130 168 210 257 305
#
# _framework density 16.332957
#
# number of rings (size 3 to 8) (size 9 to 14) (size 15 to 20)
#    0.000    2.250    2.500    1.500    0.000    3.750 
#    0.000    1.250    0.000    0.750    0.000    7.000 
#    0.000    0.000    0.000    0.000    0.000    0.000 
#
# Total GULP energy -178451.652471 kJ/mol
# GULP energy per Si atom -5576.614140 kJ/mol
# Density = 1.629578 g / cm^3
# Si number density = 16.332957 Si / 1000 Ang^3
#
#
#
# Elastic Constant Matrix: (Units=GPa)
#
#
# Indices 1 2 3 4 5 6 
#
# 1 96.6029 41.0288 42.2559 0.0000 0.0000 0.0000
# 2 41.0288 95.4576 44.8543 0.0000 0.0000 0.0000
# 3 42.2559 44.8543 119.3133 0.0000 0.0000 0.0000
# 4 0.0000 0.0000 0.0000 8.5065 0.0000 0.0000
# 5 0.0000 0.0000 0.0000 0.0000 9.9632 0.0000
# 6 0.0000 0.0000 0.0000 0.0000 0.0000 -29.8732
#
#
#
# Elastic Compliance Matrix: (Units=1/GPa)
#
#
# Indices 1 2 3 4 5 6 
#
# 1 0.013588 -0.004347 -0.003178 0.000000 0.000000 0.000000
# 2 -0.004347 0.014114 -0.003766 0.000000 0.000000 0.000000
# 3 -0.003178 -0.003766 0.010923 0.000000 0.000000 0.000000
# 4 0.000000 0.000000 0.000000 0.117557 0.000000 0.000000
# 5 0.000000 0.000000 0.000000 0.000000 0.100369 0.000000
# 6 0.000000 0.000000 0.000000 0.000000 0.000000 -0.033475
#
#
# Mechanical properties :
#
#
# Convention : Reuss Voigt Hill
#
# Bulk Modulus (GPa) = 62.33724 63.07242 62.70483
# Shear Modulus (GPa) = 19.91977 9.93495 14.92736
#
# Velocity S-wave (km/s) = 3.49607 2.46900 3.02643
# Velocity P-wave (km/s) = 7.38553 6.84313 7.11950
#
# Compressibility (1/GPa) = 0.01604177
#
# Stress axis : x y z
#
# Youngs Moduli (GPa) = 73.59405 70.85141 91.55127
#
# Poissons Ratio (x) = 0.30799 0.29097
# Poissons Ratio (y) = 0.31991 0.34483
# Poissons Ratio (z) = 0.23389 0.26686
#
# Static dielectric constant tensor:
#      x y z
#    x 1.579490 0.000000 0.000000 
#    y 0.000000 1.537030 0.000000 
#    z 0.000000 0.000000 1.521640 
# 
# From -- ./inp_files/49427.got.cif
#   From: 2010.05.17/outbox.cif.g08.bks.cpg/sg65_25_cif.got.tgz:49427.got - 2010.06.03 17:01:31.
