data_PCOD9488102
_publ_section_title
;
Structure prediction by ZEFSAII (Michael W. Deem and Ramdas Pophale) SiO2 
 PCOD9488102
Probable space group: C M M M
;
_chemical_formula_sum "Si O2"
_cell_formula_units_Z 72
_cell_length_a 7.657140
_cell_length_b 16.864286
_cell_length_c 25.337940
_cell_angle_alpha 90.000000
_cell_angle_beta 90.000000
_cell_angle_gamma 90.000000
_cell_volume 3271.943908
_symmetry_space_group_name_H-M "C M M M"
_symmetry_group_IT_number 65
_symmetry_cell_setting 'orthorhombic'
loop_
_space_group_symop_operation_xyz
x,y,z
-x,-y,z
x,-y,-z
-x,y,-z
-x,-y,-z
x,y,-z
-x,y,z
x,-y,z
1/2+x,1/2+y,z
1/2-x,1/2-y,z
1/2+x,1/2-y,-z
1/2-x,1/2+y,-z
1/2-x,1/2-y,-z
1/2+x,1/2+y,-z
1/2-x,1/2+y,z
1/2+x,1/2-y,z
loop_
_atom_site_type_symbol
_atom_site_label
_atom_site_fract_x
_atom_site_fract_y
_atom_site_fract_z
Si Si1 0.213797 0.000000 0.438352
Si Si2 0.209502 0.341180 0.831903
Si Si3 0.702873 0.339148 0.384620
Si Si4 0.212237 0.593463 0.057364
Si Si5 0.211019 0.588377 0.277235
O O1 0.281435 0.918161 0.411886
O O2 0.256436 0.000000 0.500000
O O3 0.000000 0.000000 0.433907
O O4 0.250000 0.250000 0.822211
O O5 0.278255 0.365779 0.889489
O O6 0.273774 0.390165 0.781437
O O7 0.000000 0.352531 0.833674
O O8 0.500000 0.344783 0.395272
O O9 0.750000 0.250000 0.401275
O O10 0.734205 0.350580 0.322169
O O11 0.252801 0.500000 0.060265
O O12 0.000000 0.599760 0.057115
O O13 0.273582 0.623844 0.000000
O O14 0.271476 0.500000 0.291964
O O15 0.000000 0.588285 0.276084
#
# Coordination Sequence:
#
# PCOD9488102 Si02
#       5
#     8  16  16  16  16
#     4   9  20  40  63  87 119 157 194 233 280 332
#     4  10  20  32  47  72 103 135 171 215 268 325
#     4  11  22  38  61  89 119 154 193 235 282 335
#     4   8  14  27  48  70  91 121 167 218 263 313
#     4  10  20  35  56  80 109 144 184 232 282 333
#
# _framework density 22.005267
#
# number of rings (size 3 to 8) (size 9 to 14) (size 15 to 20)
#    0.000    2.333    1.111    2.667    0.000    6.222 
#    0.000    0.000    0.000    6.667    0.000    1.556 
#    0.000    0.000    0.000    0.000    0.000    0.000 
#
# Total GULP energy -200917.792050 kJ/mol
# GULP energy per Si atom -5581.049779 kJ/mol
# Density = 2.195518 g / cm^3
# Si number density = 22.005267 Si / 1000 Ang^3
#
#
#
# Elastic Constant Matrix: (Units=GPa)
#
#
# Indices 1 2 3 4 5 6 
#
# 1 38.7388 14.3353 1.2304 0.0000 0.0000 0.0000
# 2 14.3353 132.0482 66.5953 0.0000 0.0000 0.0000
# 3 1.2304 66.5953 113.3586 0.0000 0.0000 0.0000
# 4 0.0000 0.0000 0.0000 84.1411 0.0000 0.0000
# 5 0.0000 0.0000 0.0000 0.0000 11.6173 0.0000
# 6 0.0000 0.0000 0.0000 0.0000 0.0000 3.8590
#
#
#
# Elastic Compliance Matrix: (Units=1/GPa)
#
#
# Indices 1 2 3 4 5 6 
#
# 1 0.027225 -0.003988 0.002047 0.000000 0.000000 0.000000
# 2 -0.003988 0.011346 -0.006622 0.000000 0.000000 0.000000
# 3 0.002047 -0.006622 0.012690 0.000000 0.000000 0.000000
# 4 0.000000 0.000000 0.000000 0.011885 0.000000 0.000000
# 5 0.000000 0.000000 0.000000 0.000000 0.086079 0.000000
# 6 0.000000 0.000000 0.000000 0.000000 0.000000 0.259134
#
#
# Mechanical properties :
#
#
# Convention : Reuss Voigt Hill
#
# Bulk Modulus (GPa) = 29.29583 49.82971 39.56277
# Shear Modulus (GPa) = 11.44530 33.38912 22.41721
#
# Velocity S-wave (km/s) = 2.28308 3.89951 3.19520
# Velocity P-wave (km/s) = 4.50466 6.55504 5.62408
#
# Compressibility (1/GPa) = 0.03413455
#
# Stress axis : x y z
#
# Youngs Moduli (GPa) = 36.73137 88.14025 78.80494
#
# Poissons Ratio (x) = 0.35151 -0.16135
# Poissons Ratio (y) = 0.14649 0.52184
# Poissons Ratio (z) = -0.07520 0.58366
#
# Static dielectric constant tensor:
#      x y z
#    x 1.813440 0.000000 0.000000 
#    y 0.000000 1.803430 0.000000 
#    z 0.000000 0.000000 1.807580 
# 
# From -- ./inp_files/72505.got.cif
#   From: 2010.05.17/outbox.cif.g08.bks.cpg/sg65_37_cif.got.tgz:72505.got - 2010.06.03 17:01:31.
