data_PCOD9488435
_publ_section_title
;
Structure prediction by ZEFSAII (Michael W. Deem and Ramdas Pophale) SiO2 
 PCOD9488435
Probable space group: C M M M
;
_chemical_formula_sum "Si O2"
_cell_formula_units_Z 104
_cell_length_a 9.111986
_cell_length_b 28.434786
_cell_length_c 24.443641
_cell_angle_alpha 90.000000
_cell_angle_beta 90.000000
_cell_angle_gamma 90.000000
_cell_volume 6333.283144
_symmetry_space_group_name_H-M "C M M M"
_symmetry_group_IT_number 65
_symmetry_cell_setting 'orthorhombic'
loop_
_space_group_symop_operation_xyz
x,y,z
-x,-y,z
x,-y,-z
-x,y,-z
-x,-y,-z
x,y,-z
-x,y,z
x,-y,z
1/2+x,1/2+y,z
1/2-x,1/2-y,z
1/2+x,1/2-y,-z
1/2-x,1/2+y,-z
1/2-x,1/2-y,-z
1/2+x,1/2+y,-z
1/2-x,1/2+y,z
1/2+x,1/2-y,z
loop_
_atom_site_type_symbol
_atom_site_label
_atom_site_fract_x
_atom_site_fract_y
_atom_site_fract_z
Si Si1 0.667584 0.297193 0.750863
Si Si2 0.834354 0.000000 0.565769
Si Si3 0.668464 0.618409 0.333392
Si Si4 0.823740 0.637740 0.161923
Si Si5 0.675226 0.096912 0.436661
Si Si6 0.323397 0.799412 0.936390
Si Si7 0.822733 0.555113 0.242111
O O1 0.500000 0.287447 0.767292
O O2 0.750000 0.250000 0.735718
O O3 0.667008 0.334183 0.701688
O O4 0.753800 0.323095 0.799121
O O5 0.742038 0.953911 0.578701
O O6 0.846837 0.000000 0.500000
O O7 0.000000 0.000000 0.588180
O O8 0.500000 0.604188 0.344203
O O9 0.753029 0.628061 0.389780
O O10 0.747824 0.579706 0.294717
O O11 0.782528 0.655853 0.101343
O O12 0.781742 0.587321 0.188969
O O13 0.000000 0.639426 0.165128
O O14 0.714980 0.107382 0.500000
O O15 0.500000 0.096241 0.433166
O O16 0.500000 0.793811 0.933195
O O17 0.250000 0.750000 0.918344
O O18 0.283538 0.806823 0.000000
O O19 0.783147 0.500000 0.237007
O O20 0.000000 0.557708 0.248467
#
# Coordination Sequence:
#
# PCOD9488435 Si02
#       7
#    16   8  16  16  16  16  16
#     4  10  20  33  50  72  96 122 154 194 239 285
#     4   9  17  29  45  65  89 119 153 187 224 267
#     4  10  21  34  49  71  96 123 155 192 237 285
#     4   9  17  30  48  69  94 126 161 195 235 282
#     4  10  20  33  49  69  94 124 157 192 232 281
#     4   9  17  28  43  66  96 127 158 194 237 284
#     4   9  18  32  49  68  92 124 160 197 236 280
#
# _framework density 16.421182000000002
#
# number of rings (size 3 to 8) (size 9 to 14) (size 15 to 20)
#    0.000    2.538    0.000    2.077    1.077    5.846 
#    0.000    0.000    0.000    0.923    0.000    3.231 
#    0.000    0.000    0.000   11.538    0.000   12.000 
#
# Total GULP energy -289614.550658 kJ/mol
# GULP energy per Si atom -5569.510590 kJ/mol
# Density = 1.638381 g / cm^3
# Si number density = 16.421182 Si / 1000 Ang^3
#
#
#
# Elastic Constant Matrix: (Units=GPa)
#
#
# Indices 1 2 3 4 5 6 
#
# 1 32.6123 30.8138 30.8934 0.0000 0.0000 0.0000
# 2 30.8138 85.5732 42.2485 0.0000 0.0000 0.0000
# 3 30.8934 42.2485 92.1711 0.0000 0.0000 0.0000
# 4 0.0000 0.0000 0.0000 13.0914 0.0000 0.0000
# 5 0.0000 0.0000 0.0000 0.0000 17.8816 0.0000
# 6 0.0000 0.0000 0.0000 0.0000 0.0000 22.0961
#
#
#
# Elastic Compliance Matrix: (Units=1/GPa)
#
#
# Indices 1 2 3 4 5 6 
#
# 1 0.055344 -0.013921 -0.012169 0.000000 0.000000 0.000000
# 2 -0.013921 0.018605 -0.003862 0.000000 0.000000 0.000000
# 3 -0.012169 -0.003862 0.016699 0.000000 0.000000 0.000000
# 4 0.000000 0.000000 0.000000 0.076386 0.000000 0.000000
# 5 0.000000 0.000000 0.000000 0.000000 0.055923 0.000000
# 6 0.000000 0.000000 0.000000 0.000000 0.000000 0.045257
#
#
# Mechanical properties :
#
#
# Convention : Reuss Voigt Hill
#
# Bulk Modulus (GPa) = 32.52684 46.47421 39.50052
# Shear Modulus (GPa) = 14.77688 17.70720 16.24204
#
# Velocity S-wave (km/s) = 3.00303 3.28733 3.14839
# Velocity P-wave (km/s) = 5.64581 6.54000 6.10928
#
# Compressibility (1/GPa) = 0.03074384
#
# Stress axis : x y z
#
# Youngs Moduli (GPa) = 18.06882 53.74777 59.88551
#
# Poissons Ratio (x) = 0.74820 0.72875
# Poissons Ratio (y) = 0.25153 0.23130
# Poissons Ratio (z) = 0.21988 0.20759
#
# Static dielectric constant tensor:
#      x y z
#    x 1.554630 0.000000 0.000000 
#    y 0.000000 1.560110 0.000000 
#    z 0.000000 0.000000 1.576530 
# 
# From -- ./inp_files/68187.got.cif
#   From: 2010.05.17/outbox.cif.g08.bks.cpg/sg65_35_cif.got.tgz:68187.got - 2010.06.03 17:01:31.
