data_PCOD9488441
_publ_section_title
;
Structure prediction by ZEFSAII (Michael W. Deem and Ramdas Pophale) SiO2 
 PCOD9488441
Probable space group: C M M M
;
_chemical_formula_sum "Si O2"
_cell_formula_units_Z 120
_cell_length_a 7.832565
_cell_length_b 27.801349
_cell_length_c 28.677448
_cell_angle_alpha 90.000000
_cell_angle_beta 90.000000
_cell_angle_gamma 90.000000
_cell_volume 6244.682728
_symmetry_space_group_name_H-M "C M M M"
_symmetry_group_IT_number 65
_symmetry_cell_setting 'orthorhombic'
loop_
_space_group_symop_operation_xyz
x,y,z
-x,-y,z
x,-y,-z
-x,y,-z
-x,-y,-z
x,y,-z
-x,y,z
x,-y,z
1/2+x,1/2+y,z
1/2-x,1/2-y,z
1/2+x,1/2-y,-z
1/2-x,1/2+y,-z
1/2-x,1/2-y,-z
1/2+x,1/2+y,-z
1/2-x,1/2+y,z
1/2+x,1/2-y,z
loop_
_atom_site_type_symbol
_atom_site_label
_atom_site_fract_x
_atom_site_fract_y
_atom_site_fract_z
Si Si1 0.702326 0.355969 0.143969
Si Si2 0.291194 0.500000 0.554425
Si Si3 0.205578 0.803314 0.553873
Si Si4 0.700661 0.598502 0.600705
Si Si5 0.797064 0.605973 0.293800
Si Si6 0.793311 0.053392 0.798651
Si Si7 0.706186 0.694207 0.052106
Si Si8 0.203401 0.696501 0.764703
O O1 0.500000 0.363135 0.137527
O O2 0.772359 0.405002 0.166751
O O3 0.773021 0.337881 0.094740
O O4 0.725840 0.316073 0.184145
O O5 0.500000 0.500000 0.558289
O O6 0.248654 0.500000 0.500000
O O7 0.228483 0.450500 0.578060
O O8 0.265995 0.805939 0.500000
O O9 0.250000 0.750000 0.572467
O O10 0.270062 0.850323 0.581621
O O11 0.000000 0.805245 0.553384
O O12 0.500000 0.598990 0.588591
O O13 0.718465 0.596001 0.656222
O O14 0.758764 0.567092 0.253837
O O15 0.733097 0.656174 0.271357
O O16 0.000000 0.609129 0.300211
O O17 0.000000 0.054410 0.800053
O O18 0.735343 0.000000 0.810940
O O19 0.500000 0.690708 0.051781
O O20 0.750000 0.750000 0.060435
O O21 0.767755 0.681351 0.000000
O O22 0.250000 0.750000 0.750519
O O23 0.000000 0.691855 0.767540
#
# Coordination Sequence:
#
# PCOD9488441 Si02
#       8
#    16   8  16  16  16  16  16  16
#     4   9  17  30  48  70  95 126 164 204 245 288
#     4   9  18  34  57  81 101 125 161 203 242 285
#     4   9  18  33  53  76 101 130 164 202 242 286
#     4  10  20  34  54  78 102 129 163 202 244 292
#     4  10  22  36  49  71 101 130 159 195 243 292
#     4   9  18  33  53  72  92 122 163 206 243 287
#     4   9  17  28  43  66  97 130 161 195 239 290
#     4  10  20  33  49  69  96 130 165 201 242 289
#
# _framework density 19.216348
#
# number of rings (size 3 to 8) (size 9 to 14) (size 15 to 20)
#    0.000    2.600    0.000    1.600    0.933    6.133 
#    0.000    2.667    0.000    2.000    0.000    2.800 
#    0.000    0.000    0.000   10.000    0.000   10.400 
#
# Total GULP energy -334653.235933 kJ/mol
# GULP energy per Si atom -5577.553932 kJ/mol
# Density = 1.917261 g / cm^3
# Si number density = 19.216348 Si / 1000 Ang^3
#
#
#
# Elastic Constant Matrix: (Units=GPa)
#
#
# Indices 1 2 3 4 5 6 
#
# 1 19.6777 8.5673 -3.3081 0.0000 0.0000 0.0000
# 2 8.5673 137.7530 78.6437 0.0000 0.0000 0.0000
# 3 -3.3081 78.6437 128.0867 0.0000 0.0000 0.0000
# 4 0.0000 0.0000 0.0000 17.0668 0.0000 0.0000
# 5 0.0000 0.0000 0.0000 0.0000 2.2755 0.0000
# 6 0.0000 0.0000 0.0000 0.0000 0.0000 15.4885
#
#
#
# Elastic Compliance Matrix: (Units=1/GPa)
#
#
# Indices 1 2 3 4 5 6 
#
# 1 0.054535 -0.006460 0.005375 0.000000 0.000000 0.000000
# 2 -0.006460 0.011943 -0.007500 0.000000 0.000000 0.000000
# 3 0.005375 -0.007500 0.012551 0.000000 0.000000 0.000000
# 4 0.000000 0.000000 0.000000 0.058593 0.000000 0.000000
# 5 0.000000 0.000000 0.000000 0.000000 0.439457 0.000000
# 6 0.000000 0.000000 0.000000 0.000000 0.000000 0.064564
#
#
# Mechanical properties :
#
#
# Convention : Reuss Voigt Hill
#
# Bulk Modulus (GPa) = 16.16581 50.36925 33.26753
# Shear Modulus (GPa) = 7.35908 20.40714 13.88311
#
# Velocity S-wave (km/s) = 1.95906 3.26232 2.69078
# Velocity P-wave (km/s) = 3.68076 6.36073 5.19648
#
# Compressibility (1/GPa) = 0.06185895
#
# Stress axis : x y z
#
# Youngs Moduli (GPa) = 18.33677 83.73346 79.67719
#
# Poissons Ratio (x) = 0.54095 -0.42827
# Poissons Ratio (y) = 0.11846 0.59754
# Poissons Ratio (z) = -0.09856 0.62796
#
# Static dielectric constant tensor:
#      x y z
#    x 1.709320 0.000000 0.000000 
#    y 0.000000 1.668030 0.000000 
#    z 0.000000 0.000000 1.652280 
# 
# From -- ./inp_files/73980.got.cif
#   From: 2010.05.17/outbox.cif.g08.bks.cpg/sg65_37_cif.got.tgz:73980.got - 2010.06.03 17:01:31.
