data_PCOD9488315
_publ_section_title
;
Structure prediction by ZEFSAII (Michael W. Deem and Ramdas Pophale) SiO2 
 PCOD9488315
Probable space group: C M M M
;
_chemical_formula_sum "Si O2"
_cell_formula_units_Z 88
_cell_length_a 14.999152
_cell_length_b 30.823161
_cell_length_c 9.631758
_cell_angle_alpha 90.000000
_cell_angle_beta 90.000000
_cell_angle_gamma 90.000000
_cell_volume 4452.966658
_symmetry_space_group_name_H-M "C M M M"
_symmetry_group_IT_number 65
_symmetry_cell_setting 'orthorhombic'
loop_
_space_group_symop_operation_xyz
x,y,z
-x,-y,z
x,-y,-z
-x,y,-z
-x,-y,-z
x,y,-z
-x,y,z
x,-y,z
1/2+x,1/2+y,z
1/2-x,1/2-y,z
1/2+x,1/2-y,-z
1/2-x,1/2+y,-z
1/2-x,1/2-y,-z
1/2+x,1/2+y,-z
1/2-x,1/2+y,z
1/2+x,1/2-y,z
loop_
_atom_site_type_symbol
_atom_site_label
_atom_site_fract_x
_atom_site_fract_y
_atom_site_fract_z
Si Si1 0.839670 0.877805 0.342058
Si Si2 0.853628 0.201940 0.840808
Si Si3 0.893688 0.048600 0.851309
Si Si4 0.363767 0.799018 0.161119
Si Si5 0.874908 0.382506 0.335952
Si Si6 0.000000 0.552813 0.830882
O O1 0.865049 0.872499 0.500000
O O2 0.878602 0.837860 0.255164
O O3 0.871892 0.921971 0.276229
O O4 0.732362 0.881287 0.331902
O O5 0.744887 0.201476 0.837582
O O6 0.887106 0.249633 0.798301
O O7 0.880694 0.194968 0.000000
O O8 0.000000 0.045830 0.859111
O O9 0.857705 0.000000 0.838146
O O10 0.861141 0.067102 0.000000
O O11 0.398496 0.836870 0.260648
O O12 0.389864 0.806449 0.000000
O O13 0.899729 0.384697 0.500000
O O14 0.917657 0.421857 0.245841
O O15 0.000000 0.500000 0.808512
O O16 0.000000 0.559586 0.000000
#
# Coordination Sequence:
#
# PCOD9488315 Si02
#       6
#    16  16  16  16  16   8
#     4  10  20  32  51  82 114 143 176 216 266 325
#     4   8  14  26  47  75 106 140 175 212 255 302
#     4   9  19  36  56  76 100 135 177 219 265 315
#     4   8  14  27  49  76 104 136 176 216 253 304
#     4  10  21  36  55  80 110 143 176 217 274 331
#     4  11  25  43  61  79 101 137 187 239 286 329
#
# _framework density 19.762105999999999
#
# number of rings (size 3 to 8) (size 9 to 14) (size 15 to 20)
#    0.000    2.818    0.000    3.000    0.000    5.091 
#    0.000    8.182    2.000    0.000    0.000    0.000 
#    0.000    0.000    0.000    0.000    0.000    0.000 
#
# Total GULP energy -245195.950061 kJ/mol
# GULP energy per Si atom -5572.635229 kJ/mol
# Density = 1.971713 g / cm^3
# Si number density = 19.762106 Si / 1000 Ang^3
#
#
#
# Elastic Constant Matrix: (Units=GPa)
#
#
# Indices 1 2 3 4 5 6 
#
# 1 31.2600 20.1330 22.1657 0.0000 0.0000 0.0000
# 2 20.1330 148.3753 103.4669 0.0000 0.0000 0.0000
# 3 22.1657 103.4669 132.7779 0.0000 0.0000 0.0000
# 4 0.0000 0.0000 0.0000 -53.7347 0.0000 0.0000
# 5 0.0000 0.0000 0.0000 0.0000 15.1502 0.0000
# 6 0.0000 0.0000 0.0000 0.0000 0.0000 32.6828
#
#
#
# Elastic Compliance Matrix: (Units=1/GPa)
#
#
# Indices 1 2 3 4 5 6 
#
# 1 0.036445 -0.001539 -0.004885 0.000000 0.000000 0.000000
# 2 -0.001539 0.014825 -0.011296 0.000000 0.000000 0.000000
# 3 -0.004885 -0.011296 0.017149 0.000000 0.000000 0.000000
# 4 0.000000 0.000000 0.000000 -0.018610 0.000000 0.000000
# 5 0.000000 0.000000 0.000000 0.000000 0.066006 0.000000
# 6 0.000000 0.000000 0.000000 0.000000 0.000000 0.030597
#
#
# Mechanical properties :
#
#
# Convention : Reuss Voigt Hill
#
# Bulk Modulus (GPa) = 30.32128 67.10493 48.71310
# Shear Modulus (GPa) = 25.92767 9.92948 17.92858
#
# Velocity S-wave (km/s) = 3.62607 2.24397 3.01528
# Velocity P-wave (km/s) = 5.73652 6.38310 6.06843
#
# Compressibility (1/GPa) = 0.03298014
#
# Stress axis : x y z
#
# Youngs Moduli (GPa) = 27.43893 67.45209 58.31239
#
# Poissons Ratio (x) = 0.10379 0.28485
# Poissons Ratio (y) = 0.04222 0.65868
# Poissons Ratio (z) = 0.13404 0.76192
#
# Static dielectric constant tensor:
#      x y z
#    x 1.879290 0.000000 0.000000 
#    y 0.000000 1.685120 0.000000 
#    z 0.000000 0.000000 1.672760 
# 
# From -- ./inp_files/10158.got.cif
#   From: 2010.05.17/outbox.cif.g08.bks.cpg/sg65_6_cif.got.tgz:10158.got - 2010.06.03 17:01:31.
