data_PCOD9488410
_publ_section_title
;
Structure prediction by ZEFSAII (Michael W. Deem and Ramdas Pophale) SiO2 
 PCOD9488410
Probable space group: C M M M
;
_chemical_formula_sum "Si O2"
_cell_formula_units_Z 80
_cell_length_a 28.331042
_cell_length_b 7.820473
_cell_length_c 19.555315
_cell_angle_alpha 90.000000
_cell_angle_beta 90.000000
_cell_angle_gamma 90.000000
_cell_volume 4332.717616
_symmetry_space_group_name_H-M "C M M M"
_symmetry_group_IT_number 65
_symmetry_cell_setting 'orthorhombic'
loop_
_space_group_symop_operation_xyz
x,y,z
-x,-y,z
x,-y,-z
-x,y,-z
-x,-y,-z
x,y,-z
-x,y,z
x,-y,z
1/2+x,1/2+y,z
1/2-x,1/2-y,z
1/2+x,1/2-y,-z
1/2-x,1/2+y,-z
1/2-x,1/2-y,-z
1/2+x,1/2+y,-z
1/2-x,1/2+y,z
1/2+x,1/2-y,z
loop_
_atom_site_type_symbol
_atom_site_label
_atom_site_fract_x
_atom_site_fract_y
_atom_site_fract_z
Si Si1 0.395584 0.793440 0.287481
Si Si2 0.554691 0.791251 0.576570
Si Si3 0.052496 0.205858 0.849621
Si Si4 0.303058 0.202421 0.787488
Si Si5 0.146522 0.794277 0.923897
O O1 0.413149 0.730577 0.360984
O O2 0.432666 0.748440 0.227893
O O3 0.344837 0.727134 0.261015
O O4 0.393423 0.000000 0.291131
O O5 0.568756 0.736691 0.500000
O O6 0.500000 0.741823 0.587624
O O7 0.555572 0.000000 0.576930
O O8 0.095371 0.269396 0.897189
O O9 0.000000 0.270543 0.865430
O O10 0.051590 0.000000 0.856115
O O11 0.250000 0.250000 0.769158
O O12 0.316023 0.252614 0.865095
O O13 0.306553 0.000000 0.783980
O O14 0.143843 0.000000 0.926896
O O15 0.157347 0.730411 0.000000
#
# Coordination Sequence:
#
# PCOD9488410 Si02
#       5
#    16  16  16  16  16
#     4   9  17  29  46  67  89 115 149 186 220 256
#     4   8  13  22  40  68  97 120 143 174 211 249
#     4   9  17  28  43  65  92 121 150 178 212 256
#     4  10  20  33  49  67  86 111 145 185 228 270
#     4   9  18  32  48  66  89 116 146 181 220 262
#
# _framework density 18.464162000000002
#
# number of rings (size 3 to 8) (size 9 to 14) (size 15 to 20)
#    0.000    3.000    0.000    1.800    0.000    3.200 
#    0.000    2.000    0.000    1.200    0.000    8.400 
#    0.000    0.000    0.000    0.000    0.000    0.600 
#
# Total GULP energy -222953.803417 kJ/mol
# GULP energy per Si atom -5573.845085 kJ/mol
# Density = 1.842214 g / cm^3
# Si number density = 18.464162 Si / 1000 Ang^3
#
#
#
# Elastic Constant Matrix: (Units=GPa)
#
#
# Indices 1 2 3 4 5 6 
#
# 1 76.0047 5.1080 28.7225 0.0000 0.0000 0.0000
# 2 5.1080 22.1006 6.9929 0.0000 0.0000 0.0000
# 3 28.7225 6.9929 112.4455 0.0000 0.0000 0.0000
# 4 0.0000 0.0000 0.0000 17.7042 0.0000 0.0000
# 5 0.0000 0.0000 0.0000 0.0000 10.4470 0.0000
# 6 0.0000 0.0000 0.0000 0.0000 0.0000 7.6898
#
#
#
# Elastic Compliance Matrix: (Units=1/GPa)
#
#
# Indices 1 2 3 4 5 6 
#
# 1 0.014672 -0.002249 -0.003608 0.000000 0.000000 0.000000
# 2 -0.002249 0.046501 -0.002317 0.000000 0.000000 0.000000
# 3 -0.003608 -0.002317 0.009959 0.000000 0.000000 0.000000
# 4 0.000000 0.000000 0.000000 0.056484 0.000000 0.000000
# 5 0.000000 0.000000 0.000000 0.000000 0.095722 0.000000
# 6 0.000000 0.000000 0.000000 0.000000 0.000000 0.130042
#
#
# Mechanical properties :
#
#
# Convention : Reuss Voigt Hill
#
# Bulk Modulus (GPa) = 18.25407 32.46641 25.36024
# Shear Modulus (GPa) = 12.88699 18.48335 15.68517
#
# Velocity S-wave (km/s) = 2.64473 3.16735 2.91777
# Velocity P-wave (km/s) = 4.38564 5.56757 5.01157
#
# Compressibility (1/GPa) = 0.05478231
#
# Stress axis : x y z
#
# Youngs Moduli (GPa) = 68.15866 21.50502 100.41311
#
# Poissons Ratio (x) = 0.04838 0.36227
# Poissons Ratio (y) = 0.15332 0.23268
# Poissons Ratio (z) = 0.24590 0.04983
#
# Static dielectric constant tensor:
#      x y z
#    x 1.770090 0.000000 0.000000 
#    y 0.000000 1.669650 0.000000 
#    z 0.000000 0.000000 1.638990 
# 
# From -- ./inp_files/49852.got.cif
#   From: 2010.05.17/outbox.cif.g08.bks.cpg/sg65_25_cif.got.tgz:49852.got - 2010.06.03 17:01:31.
