data_PCOD9488695
_publ_section_title
;
Structure prediction by ZEFSAII (Michael W. Deem and Ramdas Pophale) SiO2 
 PCOD9488695
Probable space group: C M M M
;
_chemical_formula_sum "Si O2"
_cell_formula_units_Z 112
_cell_length_a 27.914391
_cell_length_b 14.840448
_cell_length_c 15.382702
_cell_angle_alpha 90.000000
_cell_angle_beta 90.000000
_cell_angle_gamma 90.000000
_cell_volume 6372.469943
_symmetry_space_group_name_H-M "C M M M"
_symmetry_group_IT_number 65
_symmetry_cell_setting 'orthorhombic'
loop_
_space_group_symop_operation_xyz
x,y,z
-x,-y,z
x,-y,-z
-x,y,-z
-x,-y,-z
x,y,-z
-x,y,z
x,-y,z
1/2+x,1/2+y,z
1/2-x,1/2-y,z
1/2+x,1/2-y,-z
1/2-x,1/2+y,-z
1/2-x,1/2-y,-z
1/2+x,1/2+y,-z
1/2-x,1/2+y,z
1/2+x,1/2-y,z
loop_
_atom_site_type_symbol
_atom_site_label
_atom_site_fract_x
_atom_site_fract_y
_atom_site_fract_z
Si Si1 0.054175 0.738867 0.602653
Si Si2 0.790592 0.607459 0.243232
Si Si3 0.345012 0.221631 0.901013
Si Si4 0.418818 0.397327 0.268468
Si Si5 0.316285 0.604161 0.192288
Si Si6 0.358539 0.893026 0.601034
Si Si7 0.053716 0.795310 0.099930
O O1 0.058429 0.760747 0.500000
O O2 0.062799 0.826026 0.661859
O O3 0.094403 0.664699 0.623100
O O4 0.000000 0.705515 0.617685
O O5 0.795787 0.500000 0.231776
O O6 0.818487 0.658799 0.167230
O O7 0.734191 0.627239 0.236563
O O8 0.815642 0.631623 0.334082
O O9 0.326814 0.323432 0.882519
O O10 0.402433 0.226230 0.886582
O O11 0.335265 0.195557 0.000000
O O12 0.430978 0.500000 0.290015
O O13 0.361279 0.388835 0.257534
O O14 0.439264 0.370623 0.173544
O O15 0.314719 0.500000 0.162048
O O16 0.346464 0.876387 0.500000
O O17 0.368105 0.000000 0.610186
O O18 0.000000 0.757662 0.108862
O O19 0.058679 0.828567 0.000000
#
# Coordination Sequence:
#
# PCOD9488695 Si02
#       7
#    16  16  16  16  16  16  16
#     4  10  21  35  51  74 103 132 163 201 244 292
#     4  10  20  34  52  75 103 131 162 205 251 296
#     4  10  20  33  51  74 101 135 170 203 243 293
#     4  10  20  34  51  71  99 135 169 201 241 290
#     4   9  19  34  51  72 100 133 167 205 248 289
#     4   9  18  34  56  78  98 124 161 205 253 300
#     4   9  18  32  50  72  97 127 165 208 250 288
#
# _framework density 17.575602
#
# number of rings (size 3 to 8) (size 9 to 14) (size 15 to 20)
#    0.000    2.429    0.000    2.571    0.000    3.714 
#    0.000    7.857    0.000    7.286    0.000    2.000 
#    0.000    0.000    0.000    0.000    0.000    0.143 
#
# Total GULP energy -312192.673425 kJ/mol
# GULP energy per Si atom -5574.869168 kJ/mol
# Density = 1.753560 g / cm^3
# Si number density = 17.575602 Si / 1000 Ang^3
#
#
#
# Elastic Constant Matrix: (Units=GPa)
#
#
# Indices 1 2 3 4 5 6 
#
# 1 132.5516 24.8563 45.1603 0.0000 0.0000 0.0000
# 2 24.8563 18.0871 19.8145 0.0000 0.0000 0.0000
# 3 45.1603 19.8145 57.3095 0.0000 0.0000 0.0000
# 4 0.0000 0.0000 0.0000 18.5192 0.0000 0.0000
# 5 0.0000 0.0000 0.0000 0.0000 19.9877 0.0000
# 6 0.0000 0.0000 0.0000 0.0000 0.0000 18.2398
#
#
#
# Elastic Compliance Matrix: (Units=1/GPa)
#
#
# Indices 1 2 3 4 5 6 
#
# 1 0.011190 -0.009205 -0.005636 0.000000 0.000000 0.000000
# 2 -0.009205 0.096569 -0.026135 0.000000 0.000000 0.000000
# 3 -0.005636 -0.026135 0.030926 0.000000 0.000000 0.000000
# 4 0.000000 0.000000 0.000000 0.053998 0.000000 0.000000
# 5 0.000000 0.000000 0.000000 0.000000 0.050031 0.000000
# 6 0.000000 0.000000 0.000000 0.000000 0.000000 0.054825
#
#
# Mechanical properties :
#
#
# Convention : Reuss Voigt Hill
#
# Bulk Modulus (GPa) = 17.62590 43.06781 30.34685
# Shear Modulus (GPa) = 12.55018 19.22382 15.88700
#
# Velocity S-wave (km/s) = 2.67510 3.31082 3.00979
# Velocity P-wave (km/s) = 4.42628 6.25883 5.42056
#
# Compressibility (1/GPa) = 0.05673471
#
# Stress axis : x y z
#
# Youngs Moduli (GPa) = 89.36279 10.35534 32.33511
#
# Poissons Ratio (x) = 0.09532 0.18223
# Poissons Ratio (y) = 0.82254 0.84508
# Poissons Ratio (z) = 0.50362 0.27064
#
# Static dielectric constant tensor:
#      x y z
#    x 1.620200 0.000000 0.000000 
#    y 0.000000 1.582090 0.000000 
#    z 0.000000 0.000000 1.582260 
# 
# From -- ./inp_files/41090.got.cif
#   From: 2010.05.17/outbox.cif.g08.bks.cpg/sg65_21_cif.got.tgz:41090.got - 2010.06.03 17:01:31.
