data_PCOD9488830
_publ_section_title
;
Structure prediction by ZEFSAII (Michael W. Deem and Ramdas Pophale) SiO2 
 PCOD9488830
Probable space group: C M M M
;
_chemical_formula_sum "Si O2"
_cell_formula_units_Z 120
_cell_length_a 8.874260
_cell_length_b 27.329962
_cell_length_c 28.450724
_cell_angle_alpha 90.000000
_cell_angle_beta 90.000000
_cell_angle_gamma 90.000000
_cell_volume 6900.244809
_symmetry_space_group_name_H-M "C M M M"
_symmetry_group_IT_number 65
_symmetry_cell_setting 'orthorhombic'
loop_
_space_group_symop_operation_xyz
x,y,z
-x,-y,z
x,-y,-z
-x,y,-z
-x,-y,-z
x,y,-z
-x,y,z
x,-y,z
1/2+x,1/2+y,z
1/2-x,1/2-y,z
1/2+x,1/2-y,-z
1/2-x,1/2+y,-z
1/2-x,1/2-y,-z
1/2+x,1/2+y,-z
1/2-x,1/2+y,z
1/2+x,1/2-y,z
loop_
_atom_site_type_symbol
_atom_site_label
_atom_site_fract_x
_atom_site_fract_y
_atom_site_fract_z
Si Si1 0.819211 0.356346 0.140948
Si Si2 0.316560 0.500000 0.553742
Si Si3 0.181483 0.802229 0.555200
Si Si4 0.682626 0.598215 0.609093
Si Si5 0.819164 0.600416 0.287990
Si Si6 0.822272 0.056359 0.802973
Si Si7 0.679924 0.696403 0.054231
Si Si8 0.179696 0.698894 0.765687
O O1 0.759512 0.407644 0.160791
O O2 0.748747 0.340485 0.091875
O O3 0.773778 0.317595 0.181785
O O4 0.000000 0.356959 0.138269
O O5 0.500000 0.500000 0.553388
O O6 0.264769 0.500000 0.500000
O O7 0.271376 0.449806 0.579483
O O8 0.221705 0.809054 0.500000
O O9 0.250000 0.750000 0.570752
O O10 0.228067 0.850411 0.584438
O O11 0.000000 0.798835 0.557957
O O12 0.500000 0.598376 0.611823
O O13 0.751421 0.593594 0.660755
O O14 0.748628 0.565421 0.248447
O O15 0.780742 0.654879 0.269251
O O16 0.000000 0.595193 0.288228
O O17 0.000000 0.068018 0.801256
O O18 0.803973 0.000000 0.816264
O O19 0.500000 0.699064 0.059608
O O20 0.750000 0.750000 0.062717
O O21 0.713780 0.683102 0.000000
O O22 0.250000 0.750000 0.752188
O O23 0.000000 0.703213 0.765908
#
# Coordination Sequence:
#
# PCOD9488830 Si02
#       8
#    16   8  16  16  16  16  16  16
#     4  10  20  34  53  79 109 142 181 223 273 328
#     4   9  18  34  57  81 103 129 165 213 262 311
#     4   9  18  33  53  76 102 134 172 213 257 307
#     4  10  20  34  54  79 104 132 170 214 261 315
#     4  10  22  37  51  74 107 139 171 209 260 314
#     4  10  21  37  58  80 103 134 176 223 267 317
#     4  10  20  33  51  78 113 151 189 229 273 320
#     4   9  19  33  49  71 100 136 174 211 253 305
#
# _framework density 17.390687
#
# number of rings (size 3 to 8) (size 9 to 14) (size 15 to 20)
#    0.000    2.333    0.000    3.200    0.933    8.800 
#    0.000    2.667    0.000    2.000    0.000    2.800 
#    0.000    0.000    0.000    0.000    0.000    0.000 
#
# Total GULP energy -334810.819220 kJ/mol
# GULP energy per Si atom -5580.180320 kJ/mol
# Density = 1.735110 g / cm^3
# Si number density = 17.390687 Si / 1000 Ang^3
#
#
#
# Elastic Constant Matrix: (Units=GPa)
#
#
# Indices 1 2 3 4 5 6 
#
# 1 38.0966 36.3371 45.8414 0.0000 0.0000 0.0000
# 2 36.3371 100.3811 66.1159 0.0000 0.0000 0.0000
# 3 45.8414 66.1159 136.6367 0.0000 0.0000 0.0000
# 4 0.0000 0.0000 0.0000 4.0785 0.0000 0.0000
# 5 0.0000 0.0000 0.0000 0.0000 26.2917 0.0000
# 6 0.0000 0.0000 0.0000 0.0000 0.0000 28.0333
#
#
#
# Elastic Compliance Matrix: (Units=1/GPa)
#
#
# Indices 1 2 3 4 5 6 
#
# 1 0.050538 -0.010461 -0.011894 0.000000 0.000000 0.000000
# 2 -0.010461 0.016787 -0.004614 0.000000 0.000000 0.000000
# 3 -0.011894 -0.004614 0.013542 0.000000 0.000000 0.000000
# 4 0.000000 0.000000 0.000000 0.245188 0.000000 0.000000
# 5 0.000000 0.000000 0.000000 0.000000 0.038035 0.000000
# 6 0.000000 0.000000 0.000000 0.000000 0.000000 0.035672
#
#
# Mechanical properties :
#
#
# Convention : Reuss Voigt Hill
#
# Bulk Modulus (GPa) = 37.13170 63.52258 50.32714
# Shear Modulus (GPa) = 10.80671 20.13535 15.47103
#
# Velocity S-wave (km/s) = 2.49551 3.40637 2.98588
# Velocity P-wave (km/s) = 5.44989 7.21646 6.39447
#
# Compressibility (1/GPa) = 0.02693117
#
# Stress axis : x y z
#
# Youngs Moduli (GPa) = 19.78696 59.56848 73.84705
#
# Poissons Ratio (x) = 0.62312 0.87833
# Poissons Ratio (y) = 0.20698 0.34070
# Poissons Ratio (z) = 0.23534 0.27483
#
# Static dielectric constant tensor:
#      x y z
#    x 1.585100 0.000000 0.000000 
#    y 0.000000 1.582570 0.000000 
#    z 0.000000 0.000000 1.575350 
# 
# From -- ./inp_files/73981.got.cif
#   From: 2010.05.17/outbox.cif.g08.bks.cpg/sg65_37_cif.got.tgz:73981.got - 2010.06.03 17:01:31.
