data_PCOD9488892
_publ_section_title
;
Structure prediction by ZEFSAII (Michael W. Deem and Ramdas Pophale) SiO2 
 PCOD9488892
Probable space group: C M M M
;
_chemical_formula_sum "Si O2"
_cell_formula_units_Z 80
_cell_length_a 19.601779
_cell_length_b 26.041568
_cell_length_c 9.191365
_cell_angle_alpha 90.000000
_cell_angle_beta 90.000000
_cell_angle_gamma 90.000000
_cell_volume 4691.833928
_symmetry_space_group_name_H-M "C M M M"
_symmetry_group_IT_number 65
_symmetry_cell_setting 'orthorhombic'
loop_
_space_group_symop_operation_xyz
x,y,z
-x,-y,z
x,-y,-z
-x,y,-z
-x,-y,-z
x,y,-z
-x,y,z
x,-y,z
1/2+x,1/2+y,z
1/2-x,1/2-y,z
1/2+x,1/2-y,-z
1/2-x,1/2+y,-z
1/2-x,1/2-y,-z
1/2+x,1/2+y,-z
1/2-x,1/2+y,z
1/2+x,1/2-y,z
loop_
_atom_site_type_symbol
_atom_site_label
_atom_site_fract_x
_atom_site_fract_y
_atom_site_fract_z
Si Si1 0.417142 0.754956 0.667037
Si Si2 0.674581 0.940107 0.672932
Si Si3 0.819741 0.939995 0.172952
Si Si4 0.081899 0.357739 0.170670
Si Si5 0.419413 0.360725 0.674959
O O1 0.395138 0.763777 0.500000
O O2 0.500000 0.754039 0.665776
O O3 0.396192 0.802093 0.767766
O O4 0.396699 0.697531 0.712938
O O5 0.680680 0.932237 0.500000
O O6 0.747141 0.930768 0.749993
O O7 0.619391 0.902118 0.740774
O O8 0.656499 0.000000 0.698124
O O9 0.875421 0.902668 0.242291
O O10 0.837543 0.000000 0.197628
O O11 0.813905 0.931965 0.000000
O O12 0.000000 0.361650 0.189033
O O13 0.097326 0.361928 0.000000
O O14 0.411978 0.365914 0.500000
O O15 0.500000 0.365829 0.708018
#
# Coordination Sequence:
#
# PCOD9488892 Si02
#       5
#    16  16  16  16  16
#     4   8  15  30  51  74 102 135 169 206 249 296
#     4  10  21  37  56  75  98 133 174 213 254 301
#     4  10  21  36  53  74 103 137 170 209 259 309
#     4  10  20  33  52  79 108 136 166 204 252 303
#     4   9  18  33  54  79 105 135 172 212 252 296
#
# _framework density 17.050902000000001
#
# number of rings (size 3 to 8) (size 9 to 14) (size 15 to 20)
#    0.000    2.600    0.000    3.000    0.000    5.600 
#    0.000    7.000    0.000    6.000    0.000    0.000 
#    0.000    0.000    0.000    0.000    0.000    0.000 
#
# Total GULP energy -223075.575934 kJ/mol
# GULP energy per Si atom -5576.889398 kJ/mol
# Density = 1.701209 g / cm^3
# Si number density = 17.050902 Si / 1000 Ang^3
#
#
#
# Elastic Constant Matrix: (Units=GPa)
#
#
# Indices 1 2 3 4 5 6 
#
# 1 47.6171 66.4624 56.2702 0.0000 0.0000 0.0000
# 2 66.4624 128.1470 91.0510 0.0000 0.0000 0.0000
# 3 56.2702 91.0510 98.0133 0.0000 0.0000 0.0000
# 4 0.0000 0.0000 0.0000 30.4484 0.0000 0.0000
# 5 0.0000 0.0000 0.0000 0.0000 30.4266 0.0000
# 6 0.0000 0.0000 0.0000 0.0000 0.0000 -80.9582
#
#
#
# Elastic Compliance Matrix: (Units=1/GPa)
#
#
# Indices 1 2 3 4 5 6 
#
# 1 0.093543 -0.030468 -0.025400 0.000000 0.000000 0.000000
# 2 -0.030468 0.032879 -0.013051 0.000000 0.000000 0.000000
# 3 -0.025400 -0.013051 0.036909 0.000000 0.000000 0.000000
# 4 0.000000 0.000000 0.000000 0.032842 0.000000 0.000000
# 5 0.000000 0.000000 0.000000 0.000000 0.032866 0.000000
# 6 0.000000 0.000000 0.000000 0.000000 0.000000 -0.012352
#
#
# Mechanical properties :
#
#
# Convention : Reuss Voigt Hill
#
# Bulk Modulus (GPa) = 39.22746 77.92718 58.57732
# Shear Modulus (GPa) = 13.77321 -0.01705 6.87808
#
# Velocity S-wave (km/s) = 2.84521 -0.10010 2.01062
# Velocity P-wave (km/s) = 5.81805 6.76672 6.31024
#
# Compressibility (1/GPa) = 0.02549235
#
# Stress axis : x y z
#
# Youngs Moduli (GPa) = 10.69025 30.41471 27.09362
#
# Poissons Ratio (x) = 0.92669 0.68817
# Poissons Ratio (y) = 0.32571 0.35360
# Poissons Ratio (z) = 0.27153 0.39695
#
# Static dielectric constant tensor:
#      x y z
#    x 1.549780 0.000000 0.000000 
#    y 0.000000 1.573420 0.000000 
#    z 0.000000 0.000000 1.563580 
# 
# From -- ./inp_files/9590.got.cif
#   From: 2010.05.17/outbox.cif.g08.bks.cpg/sg65_5_cif.got.tgz:9590.got - 2010.06.03 17:01:31.
