data_PCOD9488623
_publ_section_title
;
Structure prediction by ZEFSAII (Michael W. Deem and Ramdas Pophale) SiO2 
 PCOD9488623
Probable space group: C M M M
;
_chemical_formula_sum "Si O2"
_cell_formula_units_Z 112
_cell_length_a 23.639662
_cell_length_b 29.705188
_cell_length_c 7.530569
_cell_angle_alpha 90.000000
_cell_angle_beta 90.000000
_cell_angle_gamma 90.000000
_cell_volume 5288.120711
_symmetry_space_group_name_H-M "C M M M"
_symmetry_group_IT_number 65
_symmetry_cell_setting 'orthorhombic'
loop_
_space_group_symop_operation_xyz
x,y,z
-x,-y,z
x,-y,-z
-x,y,-z
-x,-y,-z
x,y,-z
-x,y,z
x,-y,z
1/2+x,1/2+y,z
1/2-x,1/2-y,z
1/2+x,1/2-y,-z
1/2-x,1/2+y,-z
1/2-x,1/2-y,-z
1/2+x,1/2+y,-z
1/2-x,1/2+y,z
1/2+x,1/2-y,z
loop_
_atom_site_type_symbol
_atom_site_label
_atom_site_fract_x
_atom_site_fract_y
_atom_site_fract_z
Si Si1 0.564846 0.275182 0.717364
Si Si2 0.875054 0.315694 0.714708
Si Si3 0.634202 0.361001 0.712046
Si Si4 0.564310 0.449358 0.786527
Si Si5 0.678486 0.050104 0.215591
Si Si6 0.760436 0.641303 0.707764
Si Si7 0.437284 0.907631 0.789160
O O1 0.564599 0.275002 0.500000
O O2 0.500000 0.271235 0.774570
O O3 0.601316 0.232117 0.774815
O O4 0.592855 0.321740 0.777785
O O5 0.872534 0.314882 0.500000
O O6 0.812613 0.329413 0.782361
O O7 0.917566 0.356133 0.762872
O O8 0.637857 0.355403 0.500000
O O9 0.607548 0.410034 0.740669
O O10 0.697690 0.355068 0.784567
O O11 0.500000 0.439078 0.724375
O O12 0.579198 0.500000 0.724648
O O13 0.562321 0.450985 0.000000
O O14 0.719180 0.089691 0.278615
O O15 0.614930 0.062426 0.278062
O O16 0.694536 0.000000 0.271302
O O17 0.678606 0.051559 0.000000
O O18 0.756784 0.653452 0.500000
O O19 0.500000 0.915396 0.715314
O O20 0.440117 0.915930 0.000000
#
# Coordination Sequence:
#
# PCOD9488623 Si02
#       7
#    16  16  16  16  16  16  16
#     4   9  17  29  48  74  99 123 155 196 237 278
#     4   9  17  31  50  69  93 128 165 195 228 277
#     4  10  20  33  50  74 102 128 157 196 240 282
#     4   9  19  36  55  74  98 128 161 197 238 286
#     4   9  18  32  49  68  91 123 161 198 239 286
#     4   9  19  33  48  69  96 127 162 198 235 277
#     4   9  17  29  46  69  96 123 154 197 243 284
#
# _framework density 21.179548
#
# number of rings (size 3 to 8) (size 9 to 14) (size 15 to 20)
#    0.000    2.857    0.000    1.286    0.000    4.286 
#    0.000    8.571    0.000    2.571    0.000    9.000 
#    0.000    0.000    0.000    0.000    0.000    0.000 
#
# Total GULP energy -312497.964959 kJ/mol
# GULP energy per Si atom -5580.320803 kJ/mol
# Density = 2.113134 g / cm^3
# Si number density = 21.179548 Si / 1000 Ang^3
#
#
#
# Elastic Constant Matrix: (Units=GPa)
#
#
# Indices 1 2 3 4 5 6 
#
# 1 146.0516 66.8102 1.2799 0.0000 0.0000 0.0000
# 2 66.8102 98.2137 -10.0510 0.0000 0.0000 0.0000
# 3 1.2799 -10.0510 52.4253 0.0000 0.0000 0.0000
# 4 0.0000 0.0000 0.0000 22.4146 0.0000 0.0000
# 5 0.0000 0.0000 0.0000 0.0000 25.8925 0.0000
# 6 0.0000 0.0000 0.0000 0.0000 0.0000 15.6268
#
#
#
# Elastic Compliance Matrix: (Units=1/GPa)
#
#
# Indices 1 2 3 4 5 6 
#
# 1 0.010068 -0.007012 -0.001590 0.000000 0.000000 0.000000
# 2 -0.007012 0.015269 0.003099 0.000000 0.000000 0.000000
# 3 -0.001590 0.003099 0.019708 0.000000 0.000000 0.000000
# 4 0.000000 0.000000 0.000000 0.044614 0.000000 0.000000
# 5 0.000000 0.000000 0.000000 0.000000 0.038621 0.000000
# 6 0.000000 0.000000 0.000000 0.000000 0.000000 0.063993
#
#
# Mechanical properties :
#
#
# Convention : Reuss Voigt Hill
#
# Bulk Modulus (GPa) = 29.37893 45.86323 37.62108
# Shear Modulus (GPa) = 23.29645 28.69686 25.99666
#
# Velocity S-wave (km/s) = 3.32015 3.68493 3.50729
# Velocity P-wave (km/s) = 5.34783 6.30924 5.84833
#
# Compressibility (1/GPa) = 0.03403800
#
# Stress axis : x y z
#
# Youngs Moduli (GPa) = 99.32173 65.49336 50.74179
#
# Poissons Ratio (x) = 0.45922 0.08068
# Poissons Ratio (y) = 0.69642 -0.15722
# Poissons Ratio (z) = 0.15793 -0.20293
#
# Static dielectric constant tensor:
#      x y z
#    x 1.758340 0.000000 0.000000 
#    y 0.000000 1.725320 0.000000 
#    z 0.000000 0.000000 1.818000 
# 
# From -- ./inp_files/29601.got.cif
#   From: 2010.05.17/outbox.cif.g08.bks.cpg/sg65_15_cif.got.tgz:29601.got - 2010.06.03 17:01:31.
