data_PCOD9488608
_publ_section_title
;
Structure prediction by ZEFSAII (Michael W. Deem and Ramdas Pophale) SiO2 
 PCOD9488608
Probable space group: C M M M
;
_chemical_formula_sum "Si O2"
_cell_formula_units_Z 104
_cell_length_a 29.368173
_cell_length_b 7.531387
_cell_length_c 24.597990
_cell_angle_alpha 90.000000
_cell_angle_beta 90.000000
_cell_angle_gamma 90.000000
_cell_volume 5440.659100
_symmetry_space_group_name_H-M "C M M M"
_symmetry_group_IT_number 65
_symmetry_cell_setting 'orthorhombic'
loop_
_space_group_symop_operation_xyz
x,y,z
-x,-y,z
x,-y,-z
-x,y,-z
-x,-y,-z
x,y,-z
-x,y,z
x,-y,z
1/2+x,1/2+y,z
1/2-x,1/2-y,z
1/2+x,1/2-y,-z
1/2-x,1/2+y,-z
1/2-x,1/2-y,-z
1/2+x,1/2+y,-z
1/2-x,1/2+y,z
1/2+x,1/2-y,z
loop_
_atom_site_type_symbol
_atom_site_label
_atom_site_fract_x
_atom_site_fract_y
_atom_site_fract_z
Si Si1 0.644492 0.217663 0.774389
Si Si2 0.351877 0.206429 0.558965
Si Si3 0.696648 0.787197 0.666441
Si Si4 0.303885 0.213370 0.881459
Si Si5 0.304002 0.787499 0.000000
Si Si6 0.449508 0.785472 0.726660
Si Si7 0.449291 0.708878 0.598888
O O1 0.673555 0.277058 0.722038
O O2 0.667399 0.279391 0.830203
O O3 0.592595 0.273755 0.763315
O O4 0.645167 0.000000 0.775268
O O5 0.341124 0.286221 0.500000
O O6 0.327500 0.284744 0.612059
O O7 0.406063 0.211610 0.568838
O O8 0.338115 0.000000 0.556926
O O9 0.750000 0.750000 0.665856
O O10 0.689746 0.000000 0.666608
O O11 0.250000 0.250000 0.874436
O O12 0.308352 0.000000 0.882504
O O13 0.319645 0.280602 0.941010
O O14 0.250000 0.750000 0.000000
O O15 0.310940 0.000000 0.000000
O O16 0.500000 0.723628 0.742824
O O17 0.442346 0.733272 0.663709
O O18 0.449575 0.000000 0.727479
O O19 0.500000 0.779328 0.585942
O O20 0.449304 0.500000 0.586890
#
# Coordination Sequence:
#
# PCOD9488608 Si02
#       7
#    16  16  16  16   8  16  16
#     4   9  16  28  46  68  91 115 146 187 224 261
#     4  10  21  37  54  69  88 118 155 188 219 266
#     4  10  20  34  49  67  90 115 147 186 227 266
#     4   9  16  26  41  62  91 122 153 185 220 260
#     4   8  14  24  38  58  85 121 155 183 216 258
#     4   9  16  29  50  70  89 117 150 182 220 269
#     4  10  20  33  50  73  98 119 141 179 231 279
#
# _framework density 19.115331000000001
#
# number of rings (size 3 to 8) (size 9 to 14) (size 15 to 20)
#    0.000    2.615    1.538    0.923    0.000    2.462 
#    0.000    2.308    0.000    0.000    0.000    0.538 
#    0.000    4.308    0.000    0.000    0.000   33.462 
#
# Total GULP energy -290030.309556 kJ/mol
# GULP energy per Si atom -5577.505953 kJ/mol
# Density = 1.907182 g / cm^3
# Si number density = 19.115331 Si / 1000 Ang^3
#
#
#
# Elastic Constant Matrix: (Units=GPa)
#
#
# Indices 1 2 3 4 5 6 
#
# 1 101.5372 -4.4413 78.0213 0.0000 0.0000 0.0000
# 2 -4.4413 49.8105 7.5481 0.0000 0.0000 0.0000
# 3 78.0213 7.5481 179.5501 0.0000 0.0000 0.0000
# 4 0.0000 0.0000 0.0000 -10.5993 0.0000 0.0000
# 5 0.0000 0.0000 0.0000 0.0000 13.3487 0.0000
# 6 0.0000 0.0000 0.0000 0.0000 0.0000 13.2343
#
#
#
# Elastic Compliance Matrix: (Units=1/GPa)
#
#
# Indices 1 2 3 4 5 6 
#
# 1 0.015054 0.002348 -0.006640 0.000000 0.000000 0.000000
# 2 0.002348 0.020571 -0.001885 0.000000 0.000000 0.000000
# 3 -0.006640 -0.001885 0.008534 0.000000 0.000000 0.000000
# 4 0.000000 0.000000 0.000000 -0.094346 0.000000 0.000000
# 5 0.000000 0.000000 0.000000 0.000000 0.074913 0.000000
# 6 0.000000 0.000000 0.000000 0.000000 0.000000 0.075561
#
#
# Mechanical properties :
#
#
# Convention : Reuss Voigt Hill
#
# Bulk Modulus (GPa) = 31.44161 54.79490 43.11826
# Shear Modulus (GPa) = 40.57026 19.84807 30.20916
#
# Velocity S-wave (km/s) = 4.61194 3.22581 3.97969
# Velocity P-wave (km/s) = 6.69657 6.52703 6.61235
#
# Compressibility (1/GPa) = 0.03180499
#
# Stress axis : x y z
#
# Youngs Moduli (GPa) = 66.42951 48.61176 117.17712
#
# Poissons Ratio (x) = -0.11416 0.77806
# Poissons Ratio (y) = -0.15601 0.22091
# Poissons Ratio (z) = 0.44110 0.09165
#
# Static dielectric constant tensor:
#      x y z
#    x 1.650710 0.000000 0.000000 
#    y 0.000000 1.693550 0.000000 
#    z 0.000000 0.000000 1.688610 
# 
# From -- ./inp_files/71782.got.cif
#   From: 2010.05.17/outbox.cif.g08.bks.cpg/sg65_36_cif.got.tgz:71782.got - 2010.06.03 17:01:31.
