data_PCOD9488932
_publ_section_title
;
Structure prediction by ZEFSAII (Michael W. Deem and Ramdas Pophale) SiO2 
 PCOD9488932
Probable space group: C M M M
;
_chemical_formula_sum "Si O2"
_cell_formula_units_Z 116
_cell_length_a 26.701016
_cell_length_b 8.607191
_cell_length_c 25.667339
_cell_angle_alpha 90.000000
_cell_angle_beta 90.000000
_cell_angle_gamma 90.000000
_cell_volume 5898.886961
_symmetry_space_group_name_H-M "C M M M"
_symmetry_group_IT_number 65
_symmetry_cell_setting 'orthorhombic'
loop_
_space_group_symop_operation_xyz
x,y,z
-x,-y,z
x,-y,-z
-x,y,-z
-x,-y,-z
x,y,-z
-x,y,z
x,-y,z
1/2+x,1/2+y,z
1/2-x,1/2-y,z
1/2+x,1/2-y,-z
1/2-x,1/2+y,-z
1/2-x,1/2-y,-z
1/2+x,1/2+y,-z
1/2-x,1/2+y,z
1/2+x,1/2-y,z
loop_
_atom_site_type_symbol
_atom_site_label
_atom_site_fract_x
_atom_site_fract_y
_atom_site_fract_z
Si Si1 0.306105 0.313060 0.733028
Si Si2 0.193420 0.312585 0.381735
Si Si3 0.639901 0.314718 0.158893
Si Si4 0.000000 0.223464 0.500000
Si Si5 0.440010 0.328866 0.676527
Si Si6 0.089569 0.319907 0.424312
Si Si7 0.940400 0.677419 0.217165
Si Si8 0.806295 0.686020 0.057636
O O1 0.307301 0.500000 0.730209
O O2 0.250000 0.250000 0.737542
O O3 0.322133 0.249276 0.675946
O O4 0.331970 0.264812 0.787472
O O5 0.195452 0.500000 0.380016
O O6 0.250000 0.250000 0.392800
O O7 0.148488 0.271055 0.422757
O O8 0.638243 0.500000 0.158597
O O9 0.585443 0.240846 0.165855
O O10 0.665221 0.254993 0.106760
O O11 0.954432 0.230913 0.544520
O O12 0.500000 0.335074 0.676663
O O13 0.420908 0.500000 0.661098
O O14 0.425093 0.199011 0.635755
O O15 0.424724 0.286572 0.734732
O O16 0.086110 0.500000 0.440725
O O17 0.925524 0.500000 0.227952
O O18 0.000000 0.682564 0.213664
O O19 0.805351 0.500000 0.061611
O O20 0.750000 0.750000 0.059707
O O21 0.826790 0.727571 0.000000
#
# Coordination Sequence:
#
# PCOD9488932 Si02
#       8
#    16  16  16   4  16  16  16  16
#     4  10  20  33  52  81 115 149 184 223 273 331
#     4  10  21  36  57  84 111 147 188 225 275 339
#     4  11  22  34  53  82 115 152 190 235 293 346
#     4  12  25  44  67  90 115 144 187 248 293 336
#     4  10  20  34  54  82 116 151 184 225 281 343
#     4  11  22  38  62  86 111 146 189 234 285 340
#     4  10  21  36  55  80 111 149 192 234 279 338
#     4  10  21  37  57  81 111 149 193 240 289 342
#
# _framework density 19.664726999999999
#
# number of rings (size 3 to 8) (size 9 to 14) (size 15 to 20)
#    0.000    1.655    0.690    5.172    0.000    8.828 
#    0.000    1.034    0.000    0.414    0.000    2.897 
#    0.000    0.000    0.000    0.000    0.000    0.000 
#
# Total GULP energy -323035.051950 kJ/mol
# GULP energy per Si atom -5569.569861 kJ/mol
# Density = 1.961997 g / cm^3
# Si number density = 19.664727 Si / 1000 Ang^3
#
#
#
# Elastic Constant Matrix: (Units=GPa)
#
#
# Indices 1 2 3 4 5 6 
#
# 1 85.6465 25.2805 55.5492 0.0000 0.0000 0.0000
# 2 25.2805 55.5800 24.8852 0.0000 0.0000 0.0000
# 3 55.5492 24.8852 93.0690 0.0000 0.0000 0.0000
# 4 0.0000 0.0000 0.0000 106.9375 0.0000 0.0000
# 5 0.0000 0.0000 0.0000 0.0000 20.5598 0.0000
# 6 0.0000 0.0000 0.0000 0.0000 0.0000 21.7193
#
#
#
# Elastic Compliance Matrix: (Units=1/GPa)
#
#
# Indices 1 2 3 4 5 6 
#
# 1 0.019893 -0.004240 -0.010740 0.000000 0.000000 0.000000
# 2 -0.004240 0.021343 -0.003176 0.000000 0.000000 0.000000
# 3 -0.010740 -0.003176 0.018004 0.000000 0.000000 0.000000
# 4 0.000000 0.000000 0.000000 0.009351 0.000000 0.000000
# 5 0.000000 0.000000 0.000000 0.000000 0.048639 0.000000
# 6 0.000000 0.000000 0.000000 0.000000 0.000000 0.046042
#
#
# Mechanical properties :
#
#
# Convention : Reuss Voigt Hill
#
# Bulk Modulus (GPa) = 43.61388 49.52504 46.56946
# Shear Modulus (GPa) = 24.12831 38.41537 31.27184
#
# Velocity S-wave (km/s) = 3.50663 4.42466 3.99212
# Velocity P-wave (km/s) = 6.21468 7.16539 6.70690
#
# Compressibility (1/GPa) = 0.02292848
#
# Stress axis : x y z
#
# Youngs Moduli (GPa) = 50.26904 46.85466 55.54306
#
# Poissons Ratio (x) = 0.19865 0.59651
# Poissons Ratio (y) = 0.21313 0.17641
# Poissons Ratio (z) = 0.53987 0.14882
#
# Static dielectric constant tensor:
#      x y z
#    x 1.750720 0.000000 0.000000 
#    y 0.000000 1.701120 0.000000 
#    z 0.000000 0.000000 1.663390 
# 
# From -- ./inp_files/71957.got.cif
#   From: 2010.05.17/outbox.cif.g08.bks.cpg/sg65_36_cif.got.tgz:71957.got - 2010.06.03 17:01:31.
