data_PCOD9488281
_publ_section_title
;
Structure prediction by ZEFSAII (Michael W. Deem and Ramdas Pophale) SiO2 
 PCOD9488281
Probable space group: C M M M
;
_chemical_formula_sum "Si O2"
_cell_formula_units_Z 88
_cell_length_a 27.846479
_cell_length_b 8.906290
_cell_length_c 21.494725
_cell_angle_alpha 90.000000
_cell_angle_beta 90.000000
_cell_angle_gamma 90.000000
_cell_volume 5330.881329
_symmetry_space_group_name_H-M "C M M M"
_symmetry_group_IT_number 65
_symmetry_cell_setting 'orthorhombic'
loop_
_space_group_symop_operation_xyz
x,y,z
-x,-y,z
x,-y,-z
-x,y,-z
-x,-y,-z
x,y,-z
-x,y,z
x,-y,z
1/2+x,1/2+y,z
1/2-x,1/2-y,z
1/2+x,1/2-y,-z
1/2-x,1/2+y,-z
1/2-x,1/2-y,-z
1/2+x,1/2+y,-z
1/2-x,1/2+y,z
1/2+x,1/2-y,z
loop_
_atom_site_type_symbol
_atom_site_label
_atom_site_fract_x
_atom_site_fract_y
_atom_site_fract_z
Si Si1 0.443344 0.819631 0.500000
Si Si2 0.444797 0.678998 0.751002
Si Si3 0.302384 0.180304 0.685164
Si Si4 0.893184 0.179066 0.379607
Si Si5 0.197354 0.820763 0.070778
Si Si6 0.855418 0.321411 0.814181
O O1 0.500000 0.779333 0.500000
O O2 0.417261 0.753000 0.439478
O O3 0.439753 0.000000 0.500000
O O4 0.500000 0.723432 0.758696
O O5 0.440613 0.500000 0.762119
O O6 0.427304 0.705490 0.680294
O O7 0.408061 0.765406 0.795074
O O8 0.250000 0.250000 0.675617
O O9 0.341988 0.248965 0.638614
O O10 0.321235 0.217062 0.755069
O O11 0.301082 0.000000 0.679140
O O12 0.888171 0.000000 0.388024
O O13 0.250000 0.750000 0.079482
O O14 0.163251 0.756474 0.123750
O O15 0.200816 0.000000 0.076388
O O16 0.181723 0.784702 0.000000
O O17 0.854514 0.500000 0.821539
#
# Coordination Sequence:
#
# PCOD9488281 Si02
#       6
#     8  16  16  16  16  16
#     4  11  23  37  54  77 106 137 167 205 253 301
#     4   9  18  33  53  76 102 132 167 209 254 298
#     4  10  20  34  52  76 105 136 170 207 250 298
#     4  10  20  35  55  78 103 133 170 209 250 298
#     4  10  20  33  50  73 102 135 169 206 249 297
#     4  10  20  32  50  76 104 135 169 207 250 298
#
# _framework density 16.507588999999999
#
# number of rings (size 3 to 8) (size 9 to 14) (size 15 to 20)
#    0.000    2.091    0.000    3.545    0.000    7.273 
#    0.000    0.455    0.000    0.545    0.000    3.818 
#    0.000    0.000    0.000    0.000    0.000    0.000 
#
# Total GULP energy -245654.178686 kJ/mol
# GULP energy per Si atom -5583.049516 kJ/mol
# Density = 1.647002 g / cm^3
# Si number density = 16.507589 Si / 1000 Ang^3
#
#
#
# Elastic Constant Matrix: (Units=GPa)
#
#
# Indices 1 2 3 4 5 6 
#
# 1 153.5924 68.8889 86.5200 0.0000 0.0000 0.0000
# 2 68.8889 73.0777 71.6496 0.0000 0.0000 0.0000
# 3 86.5200 71.6496 132.5775 0.0000 0.0000 0.0000
# 4 0.0000 0.0000 0.0000 28.6590 0.0000 0.0000
# 5 0.0000 0.0000 0.0000 0.0000 18.6541 0.0000
# 6 0.0000 0.0000 0.0000 0.0000 0.0000 31.2407
#
#
#
# Elastic Compliance Matrix: (Units=1/GPa)
#
#
# Indices 1 2 3 4 5 6 
#
# 1 0.012066 -0.007773 -0.003674 0.000000 0.000000 0.000000
# 2 -0.007773 0.034114 -0.013364 0.000000 0.000000 0.000000
# 3 -0.003674 -0.013364 0.017163 0.000000 0.000000 0.000000
# 4 0.000000 0.000000 0.000000 0.034893 0.000000 0.000000
# 5 0.000000 0.000000 0.000000 0.000000 0.053607 0.000000
# 6 0.000000 0.000000 0.000000 0.000000 0.000000 0.032010
#
#
# Mechanical properties :
#
#
# Convention : Reuss Voigt Hill
#
# Bulk Modulus (GPa) = 72.87552 90.37383 81.62467
# Shear Modulus (GPa) = 21.00412 24.52338 22.76375
#
# Velocity S-wave (km/s) = 3.57093 3.85851 3.71750
# Velocity P-wave (km/s) = 7.82589 8.64387 8.24503
#
# Compressibility (1/GPa) = 0.01372203
#
# Stress axis : x y z
#
# Youngs Moduli (GPa) = 82.87415 29.31347 58.26575
#
# Poissons Ratio (x) = 0.22784 0.21407
# Poissons Ratio (y) = 0.64415 0.77866
# Poissons Ratio (z) = 0.30448 0.39174
#
# Static dielectric constant tensor:
#      x y z
#    x 1.528500 0.000000 0.000000 
#    y 0.000000 1.550350 0.000000 
#    z 0.000000 0.000000 1.536630 
# 
# From -- ./inp_files/59789.got.cif
#   From: 2010.05.17/outbox.cif.g08.bks.cpg/sg65_30_cif.got.tgz:59789.got - 2010.06.03 17:01:31.
