data_PCOD9488598
_publ_section_title
;
Structure prediction by ZEFSAII (Michael W. Deem and Ramdas Pophale) SiO2 
 PCOD9488598
Probable space group: C M M M
;
_chemical_formula_sum "Si O2"
_cell_formula_units_Z 104
_cell_length_a 27.027913
_cell_length_b 8.469996
_cell_length_c 22.820206
_cell_angle_alpha 90.000000
_cell_angle_beta 90.000000
_cell_angle_gamma 90.000000
_cell_volume 5224.145667
_symmetry_space_group_name_H-M "C M M M"
_symmetry_group_IT_number 65
_symmetry_cell_setting 'orthorhombic'
loop_
_space_group_symop_operation_xyz
x,y,z
-x,-y,z
x,-y,-z
-x,y,-z
-x,-y,-z
x,y,-z
-x,y,z
x,-y,z
1/2+x,1/2+y,z
1/2-x,1/2-y,z
1/2+x,1/2-y,-z
1/2-x,1/2+y,-z
1/2-x,1/2-y,-z
1/2+x,1/2+y,-z
1/2-x,1/2+y,z
1/2+x,1/2-y,z
loop_
_atom_site_type_symbol
_atom_site_label
_atom_site_fract_x
_atom_site_fract_y
_atom_site_fract_z
Si Si1 0.944735 0.808173 0.888230
Si Si2 0.194396 0.312488 0.186943
Si Si3 0.903540 0.684345 0.360641
Si Si4 0.806275 0.186674 0.312827
Si Si5 0.000000 0.307567 0.568350
Si Si6 0.844364 0.809442 0.062998
Si Si7 0.559603 0.318244 0.758028
O O1 0.902606 0.769182 0.933971
O O2 0.927536 0.758506 0.823078
O O3 0.000000 0.750384 0.900516
O O4 0.947120 0.000000 0.885161
O O5 0.191520 0.500000 0.191320
O O6 0.250000 0.250000 0.188286
O O7 0.174558 0.241809 0.248224
O O8 0.176015 0.258999 0.123250
O O9 0.897313 0.500000 0.373641
O O10 0.848757 0.760347 0.358681
O O11 0.924303 0.710877 0.295247
O O12 0.948635 0.747650 0.401270
O O13 0.750000 0.250000 0.322393
O O14 0.802755 0.000000 0.312404
O O15 0.000000 0.500000 0.574098
O O16 0.000000 0.267698 0.500000
O O17 0.839267 0.000000 0.065746
O O18 0.823501 0.756268 0.000000
O O19 0.500000 0.325473 0.758496
O O20 0.577452 0.500000 0.749885
#
# Coordination Sequence:
#
# PCOD9488598 Si02
#       7
#    16  16  16  16   8  16  16
#     4   8  15  28  46  69  97 132 172 217 268 326
#     4  11  22  38  59  81 106 137 176 226 285 347
#     4  11  20  33  56  86 119 158 201 244 285 336
#     4  11  22  38  60  88 120 151 186 236 295 358
#     4   9  20  38  59  87 127 173 212 243 280 327
#     4  10  20  33  50  73 102 138 182 229 279 338
#     4   9  16  27  46  73 106 142 183 231 289 347
#
# _framework density 19.907561000000001
#
# number of rings (size 3 to 8) (size 9 to 14) (size 15 to 20)
#    0.000    2.077    0.769    6.000    0.000    2.154 
#    0.000    1.538    0.000    4.615    0.000    1.077 
#    0.000    0.000    0.000    0.000    0.000    0.000 
#
# Total GULP energy -289906.700709 kJ/mol
# GULP energy per Si atom -5575.128860 kJ/mol
# Density = 1.986225 g / cm^3
# Si number density = 19.907561 Si / 1000 Ang^3
#
#
#
# Elastic Constant Matrix: (Units=GPa)
#
#
# Indices 1 2 3 4 5 6 
#
# 1 100.0326 29.6673 69.3785 0.0000 0.0000 0.0000
# 2 29.6673 71.7007 23.7893 0.0000 0.0000 0.0000
# 3 69.3785 23.7893 91.6679 0.0000 0.0000 0.0000
# 4 0.0000 0.0000 0.0000 11.4232 0.0000 0.0000
# 5 0.0000 0.0000 0.0000 0.0000 20.8893 0.0000
# 6 0.0000 0.0000 0.0000 0.0000 0.0000 18.9381
#
#
#
# Elastic Compliance Matrix: (Units=1/GPa)
#
#
# Indices 1 2 3 4 5 6 
#
# 1 0.022003 -0.003916 -0.015637 0.000000 0.000000 0.000000
# 2 -0.003916 0.015958 -0.001177 0.000000 0.000000 0.000000
# 3 -0.015637 -0.001177 0.023049 0.000000 0.000000 0.000000
# 4 0.000000 0.000000 0.000000 0.087541 0.000000 0.000000
# 5 0.000000 0.000000 0.000000 0.000000 0.047871 0.000000
# 6 0.000000 0.000000 0.000000 0.000000 0.000000 0.052804
#
#
# Mechanical properties :
#
#
# Convention : Reuss Voigt Hill
#
# Bulk Modulus (GPa) = 51.15189 56.56347 53.85768
# Shear Modulus (GPa) = 16.82351 19.62121 18.22236
#
# Velocity S-wave (km/s) = 2.91018 3.14286 3.02876
# Velocity P-wave (km/s) = 6.08627 6.45328 6.27246
#
# Compressibility (1/GPa) = 0.01954962
#
# Stress axis : x y z
#
# Youngs Moduli (GPa) = 45.44805 62.66502 43.38567
#
# Poissons Ratio (x) = 0.24540 0.67841
# Poissons Ratio (y) = 0.17798 0.05108
# Poissons Ratio (z) = 0.71066 0.07378
#
# Static dielectric constant tensor:
#      x y z
#    x 1.765820 0.000000 0.000000 
#    y 0.000000 1.688260 0.000000 
#    z 0.000000 0.000000 1.688840 
# 
# From -- ./inp_files/65912.got.cif
#   From: 2010.05.17/outbox.cif.g08.bks.cpg/sg65_33_cif.got.tgz:65912.got - 2010.06.03 17:01:31.
