data_PCOD9488765
_publ_section_title
;
Structure prediction by ZEFSAII (Michael W. Deem and Ramdas Pophale) SiO2 
 PCOD9488765
Probable space group: C M M M
;
_chemical_formula_sum "Si O2"
_cell_formula_units_Z 104
_cell_length_a 29.384976
_cell_length_b 9.064589
_cell_length_c 23.406521
_cell_angle_alpha 90.000000
_cell_angle_beta 90.000000
_cell_angle_gamma 90.000000
_cell_volume 6234.624838
_symmetry_space_group_name_H-M "C M M M"
_symmetry_group_IT_number 65
_symmetry_cell_setting 'orthorhombic'
loop_
_space_group_symop_operation_xyz
x,y,z
-x,-y,z
x,-y,-z
-x,y,-z
-x,-y,-z
x,y,-z
-x,y,z
x,-y,z
1/2+x,1/2+y,z
1/2-x,1/2-y,z
1/2+x,1/2-y,-z
1/2-x,1/2+y,-z
1/2-x,1/2-y,-z
1/2+x,1/2+y,-z
1/2-x,1/2+y,z
1/2+x,1/2-y,z
loop_
_atom_site_type_symbol
_atom_site_label
_atom_site_fract_x
_atom_site_fract_y
_atom_site_fract_z
Si Si1 0.298267 0.174928 0.931296
Si Si2 0.053138 0.176057 0.781471
Si Si3 0.054398 0.323810 0.000000
Si Si4 0.891247 0.177431 0.104105
Si Si5 0.795278 0.331637 0.430651
Si Si6 0.554633 0.169685 0.336656
Si Si7 0.110288 0.823752 0.566168
O O1 0.250000 0.250000 0.916516
O O2 0.341013 0.253946 0.901764
O O3 0.297460 0.000000 0.919094
O O4 0.304432 0.192222 0.000000
O O5 0.084858 0.209835 0.835349
O O6 0.067639 0.258678 0.723914
O O7 0.000000 0.213835 0.793875
O O8 0.054820 0.000000 0.771497
O O9 0.077700 0.249743 0.945067
O O10 0.063138 0.500000 0.000000
O O11 0.000000 0.300535 0.000000
O O12 0.889445 0.000000 0.096588
O O13 0.792635 0.335862 0.500000
O O14 0.797815 0.500000 0.410500
O O15 0.750000 0.250000 0.409971
O O16 0.840597 0.241579 0.417348
O O17 0.500000 0.173973 0.339095
O O18 0.574529 0.258478 0.389751
O O19 0.569632 0.000000 0.339628
O O20 0.100968 0.781108 0.500000
O O21 0.111296 0.000000 0.568860
#
# Coordination Sequence:
#
# PCOD9488765 Si02
#       7
#    16  16   8  16  16  16  16
#     4  10  20  34  53  77 108 142 179 220 264 313
#     4   9  19  36  56  77 102 136 177 216 256 311
#     4  11  23  35  48  73 110 145 175 213 261 309
#     4  11  21  34  55  80 107 139 176 217 264 313
#     4   9  16  27  45  70 101 134 167 204 247 299
#     4  10  21  36  54  76 102 135 175 218 264 314
#     4  10  20  33  51  76 105 137 173 214 262 314
#
# _framework density 16.681037
#
# number of rings (size 3 to 8) (size 9 to 14) (size 15 to 20)
#    0.000    2.077    0.769    3.000    0.000    7.077 
#    0.000    3.077    0.000    0.923    0.000    2.154 
#    0.000    0.000    0.000    0.000    0.000    0.000 
#
# Total GULP energy -290174.866857 kJ/mol
# GULP energy per Si atom -5580.285901 kJ/mol
# Density = 1.664307 g / cm^3
# Si number density = 16.681037 Si / 1000 Ang^3
#
#
#
# Elastic Constant Matrix: (Units=GPa)
#
#
# Indices 1 2 3 4 5 6 
#
# 1 93.1526 62.0741 59.3546 0.0000 0.0000 0.0000
# 2 62.0741 104.2835 66.8936 0.0000 0.0000 0.0000
# 3 59.3546 66.8936 95.3763 0.0000 0.0000 0.0000
# 4 0.0000 0.0000 0.0000 20.7829 0.0000 0.0000
# 5 0.0000 0.0000 0.0000 0.0000 2.3807 0.0000
# 6 0.0000 0.0000 0.0000 0.0000 0.0000 33.1884
#
#
#
# Elastic Compliance Matrix: (Units=1/GPa)
#
#
# Indices 1 2 3 4 5 6 
#
# 1 0.020438 -0.007284 -0.007610 0.000000 0.000000 0.000000
# 2 -0.007284 0.020028 -0.009514 0.000000 0.000000 0.000000
# 3 -0.007610 -0.009514 0.021893 0.000000 0.000000 0.000000
# 4 0.000000 0.000000 0.000000 0.048116 0.000000 0.000000
# 5 0.000000 0.000000 0.000000 0.000000 0.420053 0.000000
# 6 0.000000 0.000000 0.000000 0.000000 0.000000 0.030131
#
#
# Mechanical properties :
#
#
# Convention : Reuss Voigt Hill
#
# Bulk Modulus (GPa) = 73.83813 74.38413 74.11113
# Shear Modulus (GPa) = 8.14346 18.23640 13.18993
#
# Velocity S-wave (km/s) = 2.21189 3.31001 2.81501
# Velocity P-wave (km/s) = 7.13331 7.70046 7.42230
#
# Compressibility (1/GPa) = 0.01354314
#
# Stress axis : x y z
#
# Youngs Moduli (GPa) = 48.92867 49.93108 45.67568
#
# Poissons Ratio (x) = 0.36369 0.34761
# Poissons Ratio (y) = 0.35639 0.43455
# Poissons Ratio (z) = 0.37236 0.47503
#
# Static dielectric constant tensor:
#      x y z
#    x 1.551940 0.000000 0.000000 
#    y 0.000000 1.560840 0.000000 
#    z 0.000000 0.000000 1.532920 
# 
# From -- ./inp_files/66426.got.cif
#   From: 2010.05.17/outbox.cif.g08.bks.cpg/sg65_34_cif.got.tgz:66426.got - 2010.06.03 17:01:31.
