data_PCOD9488936
_publ_section_title
;
Structure prediction by ZEFSAII (Michael W. Deem and Ramdas Pophale) SiO2 
 PCOD9488936
Probable space group: C M M M
;
_chemical_formula_sum "Si O2"
_cell_formula_units_Z 104
_cell_length_a 13.585585
_cell_length_b 18.996732
_cell_length_c 20.590521
_cell_angle_alpha 90.000000
_cell_angle_beta 90.000000
_cell_angle_gamma 90.000000
_cell_volume 5314.037020
_symmetry_space_group_name_H-M "C M M M"
_symmetry_group_IT_number 65
_symmetry_cell_setting 'orthorhombic'
loop_
_space_group_symop_operation_xyz
x,y,z
-x,-y,z
x,-y,-z
-x,y,-z
-x,-y,-z
x,y,-z
-x,y,z
x,-y,z
1/2+x,1/2+y,z
1/2-x,1/2-y,z
1/2+x,1/2-y,-z
1/2-x,1/2+y,-z
1/2-x,1/2-y,-z
1/2+x,1/2+y,-z
1/2-x,1/2+y,z
1/2+x,1/2-y,z
loop_
_atom_site_type_symbol
_atom_site_label
_atom_site_fract_x
_atom_site_fract_y
_atom_site_fract_z
Si Si1 0.383310 0.500000 0.578172
Si Si2 0.691926 0.425421 0.924397
Si Si3 0.887383 0.584328 0.728545
Si Si4 0.234581 0.137855 0.374397
Si Si5 0.114158 0.739349 0.573824
Si Si6 0.383023 0.720135 0.075392
Si Si7 0.613201 0.873714 0.879045
O O1 0.500000 0.500000 0.597231
O O2 0.380743 0.500000 0.500000
O O3 0.324757 0.568938 0.603221
O O4 0.659708 0.500000 0.895408
O O5 0.652003 0.353406 0.894823
O O6 0.809221 0.418776 0.919192
O O7 0.661764 0.425094 0.000000
O O8 0.878648 0.500000 0.720999
O O9 0.798658 0.620605 0.689490
O O10 0.880497 0.603805 0.804286
O O11 0.000000 0.603793 0.707499
O O12 0.157199 0.202713 0.376430
O O13 0.320018 0.169355 0.421132
O O14 0.123460 0.767954 0.500000
O O15 0.000000 0.725599 0.585789
O O16 0.500000 0.716964 0.074270
O O17 0.357191 0.792093 0.111201
O O18 0.350151 0.725295 0.000000
O O19 0.500000 0.881787 0.900586
#
# Coordination Sequence:
#
# PCOD9488936 Si02
#       7
#     8  16  16  16  16  16  16
#     4  11  22  36  61  97 127 153 193 242 294 352
#     4  10  20  33  52  82 117 150 185 231 291 351
#     4  10  21  38  58  81 113 153 196 240 289 354
#     4  11  20  37  59  85 119 158 194 237 291 343
#     4  10  21  38  60  87 120 156 194 237 286 345
#     4   9  18  34  56  82 112 146 189 241 290 340
#     4  10  20  35  56  79 106 145 191 238 288 338
#
# _framework density 19.570808
#
# number of rings (size 3 to 8) (size 9 to 14) (size 15 to 20)
#    0.000    1.923    0.769    4.154    0.000    4.615 
#    5.538    2.308    0.000    2.769    0.000    0.000 
#    0.000    0.000    0.000    0.000    0.000    0.000 
#
# Total GULP energy -289825.685875 kJ/mol
# GULP energy per Si atom -5573.570882 kJ/mol
# Density = 1.952626 g / cm^3
# Si number density = 19.570808 Si / 1000 Ang^3
#
#
#
# Elastic Constant Matrix: (Units=GPa)
#
#
# Indices 1 2 3 4 5 6 
#
# 1 104.7270 47.3104 7.5038 0.0000 0.0000 0.0000
# 2 47.3104 103.5878 8.3068 0.0000 0.0000 0.0000
# 3 7.5038 8.3068 25.6712 0.0000 0.0000 0.0000
# 4 0.0000 0.0000 0.0000 33.9202 0.0000 0.0000
# 5 0.0000 0.0000 0.0000 0.0000 28.0327 0.0000
# 6 0.0000 0.0000 0.0000 0.0000 0.0000 22.3077
#
#
#
# Elastic Compliance Matrix: (Units=1/GPa)
#
#
# Indices 1 2 3 4 5 6 
#
# 1 0.012111 -0.005387 -0.001797 0.000000 0.000000 0.000000
# 2 -0.005387 0.012307 -0.002408 0.000000 0.000000 0.000000
# 3 -0.001797 -0.002408 0.040258 0.000000 0.000000 0.000000
# 4 0.000000 0.000000 0.000000 0.029481 0.000000 0.000000
# 5 0.000000 0.000000 0.000000 0.000000 0.035673 0.000000
# 6 0.000000 0.000000 0.000000 0.000000 0.000000 0.044828
#
#
# Mechanical properties :
#
#
# Convention : Reuss Voigt Hill
#
# Bulk Modulus (GPa) = 21.98138 40.02535 31.00336
# Shear Modulus (GPa) = 23.92277 28.24312 26.08295
#
# Velocity S-wave (km/s) = 3.50003 3.80297 3.65464
# Velocity P-wave (km/s) = 5.25259 6.30709 5.80384
#
# Compressibility (1/GPa) = 0.04549305
#
# Stress axis : x y z
#
# Youngs Moduli (GPa) = 82.56905 81.25341 24.83949
#
# Poissons Ratio (x) = 0.43773 0.04463
# Poissons Ratio (y) = 0.44482 0.05981
# Poissons Ratio (z) = 0.14837 0.19563
#
# Static dielectric constant tensor:
#      x y z
#    x 1.717020 0.000000 0.000000 
#    y 0.000000 1.730300 0.000000 
#    z 0.000000 0.000000 1.665080 
# 
# From -- ./inp_files/62863.got.cif
#   From: 2010.05.17/outbox.cif.g08.bks.cpg/sg65_32_cif.got.tgz:62863.got - 2010.06.03 17:01:31.
