data_PCOD9488379
_publ_section_title
;
Structure prediction by ZEFSAII (Michael W. Deem and Ramdas Pophale) SiO2 
 PCOD9488379
Probable space group: C M M M
;
_chemical_formula_sum "Si O2"
_cell_formula_units_Z 88
_cell_length_a 7.627736
_cell_length_b 31.937960
_cell_length_c 18.196155
_cell_angle_alpha 90.000000
_cell_angle_beta 90.000000
_cell_angle_gamma 90.000000
_cell_volume 4432.844059
_symmetry_space_group_name_H-M "C M M M"
_symmetry_group_IT_number 65
_symmetry_cell_setting 'orthorhombic'
loop_
_space_group_symop_operation_xyz
x,y,z
-x,-y,z
x,-y,-z
-x,y,-z
-x,-y,-z
x,y,-z
-x,y,z
x,-y,z
1/2+x,1/2+y,z
1/2-x,1/2-y,z
1/2+x,1/2-y,-z
1/2-x,1/2+y,-z
1/2-x,1/2-y,-z
1/2+x,1/2+y,-z
1/2-x,1/2+y,z
1/2+x,1/2-y,z
loop_
_atom_site_type_symbol
_atom_site_label
_atom_site_fract_x
_atom_site_fract_y
_atom_site_fract_z
Si Si1 0.790023 0.673624 0.919933
Si Si2 0.713249 0.087602 0.150159
Si Si3 0.285842 0.000000 0.915991
Si Si4 0.203290 0.880567 0.309271
Si Si5 0.206483 0.203310 0.241979
Si Si6 0.713953 0.546725 0.585811
O O1 0.735098 0.625665 0.903610
O O2 0.749159 0.697928 0.844679
O O3 0.000000 0.674056 0.924371
O O4 0.722012 0.688005 0.000000
O O5 0.500000 0.088262 0.154616
O O6 0.770607 0.042553 0.122504
O O7 0.787631 0.097438 0.229971
O O8 0.500000 0.000000 0.915364
O O9 0.229641 0.000000 0.000000
O O10 0.283526 0.834742 0.290925
O O11 0.279641 0.913897 0.366938
O O12 0.000000 0.874486 0.331379
O O13 0.250000 0.250000 0.266308
O O14 0.000000 0.197976 0.246251
O O15 0.760055 0.550944 0.500000
O O16 0.500000 0.546687 0.590134
O O17 0.770599 0.500000 0.610991
#
# Coordination Sequence:
#
# PCOD9488379 Si02
#       6
#    16  16   8  16  16  16
#     4   9  17  30  47  65  87 117 154 196 240 281
#     4   9  17  28  43  64  89 121 158 192 227 271
#     4   9  16  26  41  61  86 119 160 198 225 259
#     4   9  18  31  48  71  95 120 151 190 231 270
#     4  10  20  33  48  67  91 119 154 193 236 282
#     4   8  14  26  47  75 102 126 152 182 219 266
#
# _framework density 19.851815999999999
#
# number of rings (size 3 to 8) (size 9 to 14) (size 15 to 20)
#    0.000    3.000    0.000    1.636    1.273    3.636 
#    0.000    0.000    0.000    3.273    0.000    1.273 
#    0.000    0.000    0.000    0.000    0.000    0.545 
#
# Total GULP energy -245190.783504 kJ/mol
# GULP energy per Si atom -5572.517807 kJ/mol
# Density = 1.980663 g / cm^3
# Si number density = 19.851816 Si / 1000 Ang^3
#
#
#
# Elastic Constant Matrix: (Units=GPa)
#
#
# Indices 1 2 3 4 5 6 
#
# 1 38.2992 3.6181 2.3620 0.0000 0.0000 0.0000
# 2 3.6181 177.1416 67.8814 0.0000 0.0000 0.0000
# 3 2.3620 67.8814 77.0564 0.0000 0.0000 0.0000
# 4 0.0000 0.0000 0.0000 13.0768 0.0000 0.0000
# 5 0.0000 0.0000 0.0000 0.0000 9.7713 0.0000
# 6 0.0000 0.0000 0.0000 0.0000 0.0000 -2.8748
#
#
#
# Elastic Compliance Matrix: (Units=1/GPa)
#
#
# Indices 1 2 3 4 5 6 
#
# 1 0.026173 -0.000343 -0.000500 0.000000 0.000000 0.000000
# 2 -0.000343 0.008527 -0.007501 0.000000 0.000000 0.000000
# 3 -0.000500 -0.007501 0.019601 0.000000 0.000000 0.000000
# 4 0.000000 0.000000 0.000000 0.076472 0.000000 0.000000
# 5 0.000000 0.000000 0.000000 0.000000 0.102340 0.000000
# 6 0.000000 0.000000 0.000000 0.000000 0.000000 -0.347851
#
#
# Mechanical properties :
#
#
# Convention : Reuss Voigt Hill
#
# Bulk Modulus (GPa) = 26.58677 48.91336 37.75006
# Shear Modulus (GPa) = -58.47064 18.57036 -19.95014
#
# Velocity S-wave (km/s) = -5.43300 3.06183 -3.17354
# Velocity P-wave (km/s) = 5.09264 6.09856 2.37250
#
# Compressibility (1/GPa) = 0.03761269
#
# Stress axis : x y z
#
# Youngs Moduli (GPa) = 38.20666 117.28080 51.01901
#
# Poissons Ratio (x) = 0.04022 0.02552
# Poissons Ratio (y) = 0.01310 0.38268
# Poissons Ratio (z) = 0.01911 0.87970
#
# Static dielectric constant tensor:
#      x y z
#    x 1.753140 0.000000 0.000000 
#    y 0.000000 1.657220 0.000000 
#    z 0.000000 0.000000 1.683550 
# 
# From -- ./inp_files/50439.got.cif
#   From: 2010.05.17/outbox.cif.g08.bks.cpg/sg65_26_cif.got.tgz:50439.got - 2010.06.03 17:01:31.
