data_PCOD9488686
_publ_section_title
;
Structure prediction by ZEFSAII (Michael W. Deem and Ramdas Pophale) SiO2 
 PCOD9488686
Probable space group: C M M M
;
_chemical_formula_sum "Si O2"
_cell_formula_units_Z 112
_cell_length_a 29.083459
_cell_length_b 7.497799
_cell_length_c 24.434820
_cell_angle_alpha 90.000000
_cell_angle_beta 90.000000
_cell_angle_gamma 90.000000
_cell_volume 5328.304004
_symmetry_space_group_name_H-M "C M M M"
_symmetry_group_IT_number 65
_symmetry_cell_setting 'orthorhombic'
loop_
_space_group_symop_operation_xyz
x,y,z
-x,-y,z
x,-y,-z
-x,y,-z
-x,-y,-z
x,y,-z
-x,y,z
x,-y,z
1/2+x,1/2+y,z
1/2-x,1/2-y,z
1/2+x,1/2-y,-z
1/2-x,1/2+y,-z
1/2-x,1/2-y,-z
1/2+x,1/2+y,-z
1/2-x,1/2+y,z
1/2+x,1/2-y,z
loop_
_atom_site_type_symbol
_atom_site_label
_atom_site_fract_x
_atom_site_fract_y
_atom_site_fract_z
Si Si1 0.552193 0.783231 0.873487
Si Si2 0.141111 0.282146 0.061446
Si Si3 0.949560 0.710625 0.329809
Si Si4 0.200992 0.787174 0.437261
Si Si5 0.889285 0.282826 0.767074
Si Si6 0.600580 0.715084 0.562797
Si Si7 0.696641 0.786684 0.166746
O O1 0.500000 0.719686 0.880511
O O2 0.590085 0.728652 0.918300
O O3 0.574356 0.735802 0.814877
O O4 0.550753 0.000000 0.874881
O O5 0.141714 0.500000 0.061143
O O6 0.177154 0.222866 0.107937
O O7 0.150998 0.221928 0.000000
O O8 0.952021 0.500000 0.318246
O O9 0.909704 0.782481 0.290204
O O10 0.936528 0.730171 0.393026
O O11 0.000000 0.786719 0.318364
O O12 0.203691 0.717947 0.500000
O O13 0.250000 0.750000 0.409644
O O14 0.151412 0.723976 0.416805
O O15 0.198062 0.000000 0.440035
O O16 0.886919 0.500000 0.765412
O O17 0.839164 0.220532 0.787130
O O18 0.593847 0.775490 0.500000
O O19 0.600445 0.500000 0.561273
O O20 0.750000 0.750000 0.175521
O O21 0.691921 0.000000 0.165617
#
# Coordination Sequence:
#
# PCOD9488686 Si02
#       7
#    16  16  16  16  16  16  16
#     4   8  12  19  35  58  84 117 152 184 225 277
#     4   8  14  23  35  57  90 123 154 189 228 269
#     4  10  20  33  51  73  93 116 152 197 236 273
#     4   8  14  26  45  67  89 115 147 179 211 251
#     4   8  15  29  46  64  88 116 147 186 234 281
#     4   9  19  35  51  69  98 132 159 184 223 279
#     4   9  17  30  48  67  90 123 157 189 229 275
#
# _framework density 21.019822999999999
#
# number of rings (size 3 to 8) (size 9 to 14) (size 15 to 20)
#    0.000    3.429    0.000    3.000    0.000    3.714 
#    0.000    5.714    0.000    3.429    0.000    0.000 
#    0.000    5.143    0.000    5.143    0.000    5.714 
#
# Total GULP energy -311990.013100 kJ/mol
# GULP energy per Si atom -5571.250234 kJ/mol
# Density = 2.097198 g / cm^3
# Si number density = 21.019823 Si / 1000 Ang^3
#
#
#
# Elastic Constant Matrix: (Units=GPa)
#
#
# Indices 1 2 3 4 5 6 
#
# 1 174.4743 4.2312 73.4843 0.0000 0.0000 0.0000
# 2 4.2312 52.6384 1.4867 0.0000 0.0000 0.0000
# 3 73.4843 1.4867 108.4200 0.0000 0.0000 0.0000
# 4 0.0000 0.0000 0.0000 -57.4231 0.0000 0.0000
# 5 0.0000 0.0000 0.0000 0.0000 13.6085 0.0000
# 6 0.0000 0.0000 0.0000 0.0000 0.0000 12.2182
#
#
#
# Elastic Compliance Matrix: (Units=1/GPa)
#
#
# Indices 1 2 3 4 5 6 
#
# 1 0.008034 -0.000492 -0.005438 0.000000 0.000000 0.000000
# 2 -0.000492 0.019035 0.000073 0.000000 0.000000 0.000000
# 3 -0.005438 0.000073 0.012908 0.000000 0.000000 0.000000
# 4 0.000000 0.000000 0.000000 -0.017415 0.000000 0.000000
# 5 0.000000 0.000000 0.000000 0.000000 0.073484 0.000000
# 6 0.000000 0.000000 0.000000 0.000000 0.000000 0.081845
#
#
# Mechanical properties :
#
#
# Convention : Reuss Voigt Hill
#
# Bulk Modulus (GPa) = 35.38403 54.88188 45.13296
# Shear Modulus (GPa) = 25.12209 10.76942 17.94576
#
# Velocity S-wave (km/s) = 3.46086 2.26596 2.92508
# Velocity P-wave (km/s) = 5.73064 5.74564 5.73815
#
# Compressibility (1/GPa) = 0.02826134
#
# Stress axis : x y z
#
# Youngs Moduli (GPa) = 124.47107 52.53462 77.46857
#
# Poissons Ratio (x) = 0.02586 0.42131
# Poissons Ratio (y) = 0.06126 -0.00562
# Poissons Ratio (z) = 0.67693 -0.00381
#
# Static dielectric constant tensor:
#      x y z
#    x 1.787010 0.000000 0.000000 
#    y 0.000000 1.828780 0.000000 
#    z 0.000000 0.000000 1.739710 
# 
# From -- ./inp_files/61795.got.cif
#   From: 2010.05.17/outbox.cif.g08.bks.cpg/sg65_31_cif.got.tgz:61795.got - 2010.06.03 17:01:31.
