data_PCOD9488701
_publ_section_title
;
Structure prediction by ZEFSAII (Michael W. Deem and Ramdas Pophale) SiO2 
 PCOD9488701
Probable space group: C M M M
;
_chemical_formula_sum "Si O2"
_cell_formula_units_Z 72
_cell_length_a 9.139398
_cell_length_b 14.660345
_cell_length_c 31.673099
_cell_angle_alpha 90.000000
_cell_angle_beta 90.000000
_cell_angle_gamma 90.000000
_cell_volume 4243.774893
_symmetry_space_group_name_H-M "C M M M"
_symmetry_group_IT_number 65
_symmetry_cell_setting 'orthorhombic'
loop_
_space_group_symop_operation_xyz
x,y,z
-x,-y,z
x,-y,-z
-x,y,-z
-x,-y,-z
x,y,-z
-x,y,z
x,-y,z
1/2+x,1/2+y,z
1/2-x,1/2-y,z
1/2+x,1/2-y,-z
1/2-x,1/2+y,-z
1/2-x,1/2-y,-z
1/2+x,1/2+y,-z
1/2-x,1/2+y,z
1/2+x,1/2-y,z
loop_
_atom_site_type_symbol
_atom_site_label
_atom_site_fract_x
_atom_site_fract_y
_atom_site_fract_z
Si Si1 0.176008 0.500000 0.795689
Si Si2 0.323877 0.651510 0.500000
Si Si3 0.676085 0.848479 0.272718
Si Si4 0.175640 0.152431 0.952772
Si Si5 0.676078 0.000000 0.340985
Si Si6 0.323958 0.500000 0.431688
Si Si7 0.823293 0.000000 0.886467
O O1 0.215161 0.589128 0.767838
O O2 0.251553 0.500000 0.840821
O O3 0.000000 0.500000 0.800210
O O4 0.500000 0.661629 0.500000
O O5 0.250000 0.750000 0.500000
O O6 0.284344 0.589145 0.459467
O O7 0.500000 0.838296 0.272813
O O8 0.750000 0.750000 0.272663
O O9 0.715860 0.910846 0.313232
O O10 0.250000 0.250000 0.948488
O O11 0.000000 0.161730 0.951098
O O12 0.220072 0.086366 0.915051
O O13 0.211062 0.116515 0.000000
O O14 0.500000 0.000000 0.345119
O O15 0.749881 0.000000 0.386355
O O16 0.500000 0.500000 0.427464
O O17 0.000000 0.000000 0.882475
#
# Coordination Sequence:
#
# PCOD9488701 Si02
#       7
#     8   8  16  16   8   8   8
#     4   9  20  37  52  70 100 132 161 198 244 293
#     4   9  19  35  52  72 102 139 175 209 248 294
#     4   9  19  36  55  74  99 131 164 201 247 296
#     4   9  18  33  51  71  97 128 161 198 240 286
#     4   9  19  35  53  76 104 131 164 206 251 298
#     4   9  19  35  52  73 104 137 169 209 251 292
#     4  10  20  33  51  74  98 127 163 200 240 288
#
# _framework density 16.966027
#
# number of rings (size 3 to 8) (size 9 to 14) (size 15 to 20)
#    0.000    2.889    0.000    2.333    0.000    6.667 
#    0.000   12.222    0.000    3.333    0.000    0.000 
#    0.000    0.000    0.000    0.000    0.000    0.000 
#
# Total GULP energy -200678.082362 kJ/mol
# GULP energy per Si atom -5574.391177 kJ/mol
# Density = 1.692741 g / cm^3
# Si number density = 16.966027 Si / 1000 Ang^3
#
#
#
# Elastic Constant Matrix: (Units=GPa)
#
#
# Indices 1 2 3 4 5 6 
#
# 1 20.6489 50.5014 55.1463 0.0000 0.0000 0.0000
# 2 50.5014 171.9654 107.1154 0.0000 0.0000 0.0000
# 3 55.1463 107.1154 197.5463 0.0000 0.0000 0.0000
# 4 0.0000 0.0000 0.0000 11.2101 0.0000 0.0000
# 5 0.0000 0.0000 0.0000 0.0000 36.7046 0.0000
# 6 0.0000 0.0000 0.0000 0.0000 0.0000 33.0291
#
#
#
# Elastic Compliance Matrix: (Units=1/GPa)
#
#
# Indices 1 2 3 4 5 6 
#
# 1 0.654278 -0.118346 -0.118475 0.000000 0.000000 0.000000
# 2 -0.118346 0.030187 0.016669 0.000000 0.000000 0.000000
# 3 -0.118475 0.016669 0.029097 0.000000 0.000000 0.000000
# 4 0.000000 0.000000 0.000000 0.089205 0.000000 0.000000
# 5 0.000000 0.000000 0.000000 0.000000 0.027245 0.000000
# 6 0.000000 0.000000 0.000000 0.000000 0.000000 0.030276
#
#
# Mechanical properties :
#
#
# Convention : Reuss Voigt Hill
#
# Bulk Modulus (GPa) = 3.65956 90.63184 47.14570
# Shear Modulus (GPa) = 3.59278 28.01526 15.80402
#
# Velocity S-wave (km/s) = 1.45679 4.06797 3.05538
# Velocity P-wave (km/s) = 2.23412 8.69483 6.34789
#
# Compressibility (1/GPa) = 0.27325716
#
# Stress axis : x y z
#
# Youngs Moduli (GPa) = 1.52840 33.12648 34.36790
#
# Poissons Ratio (x) = 3.92039 4.07173
# Poissons Ratio (y) = 0.18088 -0.57286
# Poissons Ratio (z) = 0.18108 -0.55217
#
# Static dielectric constant tensor:
#      x y z
#    x 1.562240 0.000000 0.000000 
#    y 0.000000 1.557740 0.000000 
#    z 0.000000 0.000000 1.560790 
# 
# From -- ./inp_files/76393.got.cif
#   From: 2010.05.17/outbox.cif.g08.bks.cpg/sg65_39_cif.got.tgz:76393.got - 2010.06.03 17:01:31.
