data_PCOD9488304
_publ_section_title
;
Structure prediction by ZEFSAII (Michael W. Deem and Ramdas Pophale) SiO2 
 PCOD9488304
Probable space group: C M M M
;
_chemical_formula_sum "Si O2"
_cell_formula_units_Z 104
_cell_length_a 14.136253
_cell_length_b 19.829675
_cell_length_c 15.897764
_cell_angle_alpha 90.000000
_cell_angle_beta 90.000000
_cell_angle_gamma 90.000000
_cell_volume 4456.418324
_symmetry_space_group_name_H-M "C M M M"
_symmetry_group_IT_number 65
_symmetry_cell_setting 'orthorhombic'
loop_
_space_group_symop_operation_xyz
x,y,z
-x,-y,z
x,-y,-z
-x,y,-z
-x,-y,-z
x,y,-z
-x,y,z
x,-y,z
1/2+x,1/2+y,z
1/2-x,1/2-y,z
1/2+x,1/2-y,-z
1/2-x,1/2+y,-z
1/2-x,1/2-y,-z
1/2+x,1/2+y,-z
1/2-x,1/2+y,z
1/2+x,1/2-y,z
loop_
_atom_site_type_symbol
_atom_site_label
_atom_site_fract_x
_atom_site_fract_y
_atom_site_fract_z
Si Si1 0.751575 0.921263 0.405072
Si Si2 0.891604 0.216155 0.774574
Si Si3 0.395376 0.580972 0.000000
Si Si4 0.883699 0.075128 0.182851
Si Si5 0.891388 0.580426 0.253103
Si Si6 0.615537 0.171044 0.902632
Si Si7 0.647939 0.715590 0.409369
O O1 0.709422 0.916643 0.500000
O O2 0.676126 0.904359 0.332281
O O3 0.834559 0.865413 0.405470
O O4 0.781910 0.000000 0.394523
O O5 0.851421 0.140674 0.768326
O O6 0.852911 0.264157 0.847259
O O7 0.891447 0.241884 0.679099
O O8 0.000000 0.207144 0.799744
O O9 0.351075 0.594264 0.911170
O O10 0.406661 0.500000 0.000000
O O11 0.500000 0.613108 0.000000
O O12 0.000000 0.070431 0.182815
O O13 0.850242 0.000000 0.205815
O O14 0.892307 0.500000 0.245501
O O15 0.861680 0.610951 0.162805
O O16 0.000000 0.603492 0.268673
O O17 0.500000 0.172248 0.907804
O O18 0.649181 0.168251 0.000000
O O19 0.602495 0.730493 0.500000
O O20 0.750000 0.750000 0.412315
#
# Coordination Sequence:
#
# PCOD9488304 Si02
#       7
#    16  16   8  16  16  16  16
#     4   9  18  33  54  79 105 135 170 207 251 303
#     4  10  20  32  51  77 102 129 166 212 255 294
#     4   7  10  18  34  58  89 122 153 187 227 270
#     4   8  14  24  40  66  98 128 159 197 240 282
#     4   9  17  30  51  79 107 134 167 208 253 300
#     4   9  18  31  47  72 105 134 164 207 256 304
#     4  10  21  37  55  73  98 133 170 206 249 308
#
# _framework density 23.337126999999999
#
# number of rings (size 3 to 8) (size 9 to 14) (size 15 to 20)
#    0.000    3.000    0.000    1.846    1.077    1.538 
#    0.000    3.077    0.000    9.692    0.000    4.308 
#    0.000    0.000    0.000    0.000    0.000    0.000 
#
# Total GULP energy -289679.100921 kJ/mol
# GULP energy per Si atom -5570.751941 kJ/mol
# Density = 2.328401 g / cm^3
# Si number density = 23.337127 Si / 1000 Ang^3
#
#
#
# Elastic Constant Matrix: (Units=GPa)
#
#
# Indices 1 2 3 4 5 6 
#
# 1 58.9188 -7.1091 12.4809 0.0000 0.0000 0.0000
# 2 -7.1091 71.6329 26.1243 0.0000 0.0000 0.0000
# 3 12.4809 26.1243 214.8120 0.0000 0.0000 0.0000
# 4 0.0000 0.0000 0.0000 32.6353 0.0000 0.0000
# 5 0.0000 0.0000 0.0000 0.0000 58.4123 0.0000
# 6 0.0000 0.0000 0.0000 0.0000 0.0000 -5.0548
#
#
#
# Elastic Compliance Matrix: (Units=1/GPa)
#
#
# Indices 1 2 3 4 5 6 
#
# 1 0.017511 0.002207 -0.001286 0.000000 0.000000 0.000000
# 2 0.002207 0.014886 -0.001939 0.000000 0.000000 0.000000
# 3 -0.001286 -0.001939 0.004966 0.000000 0.000000 0.000000
# 4 0.000000 0.000000 0.000000 0.030642 0.000000 0.000000
# 5 0.000000 0.000000 0.000000 0.000000 0.017120 0.000000
# 6 0.000000 0.000000 0.000000 0.000000 0.000000 -0.197831
#
#
# Mechanical properties :
#
#
# Convention : Reuss Voigt Hill
#
# Bulk Modulus (GPa) = 28.30635 45.37288 36.83961
# Shear Modulus (GPa) = -50.55816 38.12307 -6.21755
#
# Velocity S-wave (km/s) = -4.65954 4.04614 -1.63402
# Velocity P-wave (km/s) = 4.09789 6.42751 3.50144
#
# Compressibility (1/GPa) = 0.03532776
#
# Stress axis : x y z
#
# Youngs Moduli (GPa) = 57.10648 67.17685 201.38143
#
# Poissons Ratio (x) = -0.14825 0.25894
# Poissons Ratio (y) = -0.12602 0.39040
# Poissons Ratio (z) = 0.07343 0.13023
#
# Static dielectric constant tensor:
#      x y z
#    x 1.936320 0.000000 0.000000 
#    y 0.000000 1.925360 0.000000 
#    z 0.000000 0.000000 1.961990 
# 
# From -- ./inp_files/42829.got.cif
#   From: 2010.05.17/outbox.cif.g08.bks.cpg/sg65_22_cif.got.tgz:42829.got - 2010.06.03 17:01:31.
