data_PCOD9488424
_publ_section_title
;
Structure prediction by ZEFSAII (Michael W. Deem and Ramdas Pophale) SiO2 
 PCOD9488424
Probable space group: C M M M
;
_chemical_formula_sum "Si O2"
_cell_formula_units_Z 104
_cell_length_a 7.489457
_cell_length_b 16.889065
_cell_length_c 37.232083
_cell_angle_alpha 90.000000
_cell_angle_beta 90.000000
_cell_angle_gamma 90.000000
_cell_volume 4709.483427
_symmetry_space_group_name_H-M "C M M M"
_symmetry_group_IT_number 65
_symmetry_cell_setting 'orthorhombic'
loop_
_space_group_symop_operation_xyz
x,y,z
-x,-y,z
x,-y,-z
-x,y,-z
-x,-y,-z
x,y,-z
-x,y,z
x,-y,z
1/2+x,1/2+y,z
1/2-x,1/2-y,z
1/2+x,1/2-y,-z
1/2-x,1/2+y,-z
1/2-x,1/2-y,-z
1/2+x,1/2+y,-z
1/2-x,1/2+y,z
1/2+x,1/2-y,z
loop_
_atom_site_type_symbol
_atom_site_label
_atom_site_fract_x
_atom_site_fract_y
_atom_site_fract_z
Si Si1 0.781938 0.000000 0.041572
Si Si2 0.285923 0.156479 0.461211
Si Si3 0.213868 0.840784 0.916692
Si Si4 0.714243 0.090161 0.763883
Si Si5 0.786512 0.342044 0.688733
Si Si6 0.707892 0.093861 0.613831
Si Si7 0.787162 0.091413 0.157435
O O1 0.723201 0.082523 0.060384
O O2 0.000000 0.000000 0.043188
O O3 0.729562 0.000000 0.000000
O O4 0.219064 0.125625 0.500000
O O5 0.500000 0.142558 0.461215
O O6 0.250000 0.250000 0.460870
O O7 0.212977 0.123371 0.423775
O O8 0.250000 0.750000 0.928249
O O9 0.279871 0.857085 0.875954
O O10 0.000000 0.846534 0.916890
O O11 0.500000 0.088542 0.761495
O O12 0.783117 0.128360 0.727211
O O13 0.754482 0.125805 0.802895
O O14 0.780942 0.000000 0.765168
O O15 0.750000 0.250000 0.686475
O O16 0.713878 0.379367 0.651926
O O17 0.000000 0.358088 0.689067
O O18 0.500000 0.121921 0.613984
O O19 0.708085 0.000000 0.613135
O O20 0.000000 0.085856 0.153432
O O21 0.717953 0.000000 0.155717
#
# Coordination Sequence:
#
# PCOD9488424 Si02
#       7
#     8  16  16  16  16  16  16
#     4   9  18  36  61  83 109 149 189 223 267 327
#     4   9  17  29  47  71  96 121 150 186 229 279
#     4  10  20  35  56  83 112 144 184 226 269 321
#     4   9  18  32  50  72  97 127 166 209 251 295
#     4  10  20  33  49  68  93 125 160 199 243 292
#     4   9  17  30  49  70  91 119 156 196 237 280
#     4   9  17  32  53  74 101 138 176 212 255 309
#
# _framework density 22.083102
#
# number of rings (size 3 to 8) (size 9 to 14) (size 15 to 20)
#    0.000    2.692    0.769    0.923    0.000    4.308 
#    0.000    5.000    0.000    3.231    0.000    2.154 
#    0.000    0.000    0.000    0.000    0.000    0.000 
#
# Total GULP energy -289926.255969 kJ/mol
# GULP energy per Si atom -5575.504922 kJ/mol
# Density = 2.203284 g / cm^3
# Si number density = 22.083102 Si / 1000 Ang^3
#
#
#
# Elastic Constant Matrix: (Units=GPa)
#
#
# Indices 1 2 3 4 5 6 
#
# 1 64.7219 -1.8009 10.2546 0.0000 0.0000 0.0000
# 2 -1.8009 86.9422 87.8635 0.0000 0.0000 0.0000
# 3 10.2546 87.8635 228.0461 0.0000 0.0000 0.0000
# 4 0.0000 0.0000 0.0000 149.4080 0.0000 0.0000
# 5 0.0000 0.0000 0.0000 0.0000 9.0850 0.0000
# 6 0.0000 0.0000 0.0000 0.0000 0.0000 18.1316
#
#
#
# Elastic Compliance Matrix: (Units=1/GPa)
#
#
# Indices 1 2 3 4 5 6 
#
# 1 0.015714 0.001703 -0.001363 0.000000 0.000000 0.000000
# 2 0.001703 0.019021 -0.007405 0.000000 0.000000 0.000000
# 3 -0.001363 -0.007405 0.007299 0.000000 0.000000 0.000000
# 4 0.000000 0.000000 0.000000 0.006693 0.000000 0.000000
# 5 0.000000 0.000000 0.000000 0.000000 0.110071 0.000000
# 6 0.000000 0.000000 0.000000 0.000000 0.000000 0.055152
#
#
# Mechanical properties :
#
#
# Convention : Reuss Voigt Hill
#
# Bulk Modulus (GPa) = 35.83727 63.59387 49.71557
# Shear Modulus (GPa) = 21.06310 54.21780 37.64045
#
# Velocity S-wave (km/s) = 3.09173 4.96034 4.13303
# Velocity P-wave (km/s) = 5.38597 7.85282 6.73333
#
# Compressibility (1/GPa) = 0.02790391
#
# Stress axis : x y z
#
# Youngs Moduli (GPa) = 63.63761 52.57458 136.99755
#
# Poissons Ratio (x) = -0.08951 0.18667
# Poissons Ratio (y) = -0.10834 1.01446
# Poissons Ratio (z) = 0.08671 0.38931
#
# Static dielectric constant tensor:
#      x y z
#    x 1.934890 0.000000 0.000000 
#    y 0.000000 1.767030 0.000000 
#    z 0.000000 0.000000 1.863480 
# 
# From -- ./inp_files/77432.got.cif
#   From: 2010.05.17/outbox.cif.g08.bks.cpg/sg65_39_cif.got.tgz:77432.got - 2010.06.03 17:01:31.
