data_PCOD9488049
_publ_section_title
;
Structure prediction by ZEFSAII (Michael W. Deem and Ramdas Pophale) SiO2 
 PCOD9488049
Probable space group: C M M M
;
_chemical_formula_sum "Si O2"
_cell_formula_units_Z 112
_cell_length_a 19.665900
_cell_length_b 7.504395
_cell_length_c 37.433173
_cell_angle_alpha 90.000000
_cell_angle_beta 90.000000
_cell_angle_gamma 90.000000
_cell_volume 5524.413187
_symmetry_space_group_name_H-M "C M M M"
_symmetry_group_IT_number 65
_symmetry_cell_setting 'orthorhombic'
loop_
_space_group_symop_operation_xyz
x,y,z
-x,-y,z
x,-y,-z
-x,y,-z
-x,-y,-z
x,y,-z
-x,y,z
x,-y,z
1/2+x,1/2+y,z
1/2-x,1/2-y,z
1/2+x,1/2-y,-z
1/2-x,1/2+y,-z
1/2-x,1/2-y,-z
1/2+x,1/2+y,-z
1/2-x,1/2+y,z
1/2+x,1/2-y,z
loop_
_atom_site_type_symbol
_atom_site_label
_atom_site_fract_x
_atom_site_fract_y
_atom_site_fract_z
Si Si1 0.421702 0.782682 0.895579
Si Si2 0.421519 0.782601 0.815028
Si Si3 0.830066 0.286193 0.749511
Si Si4 0.922614 0.785919 0.603934
Si Si5 0.670549 0.713737 0.460196
Si Si6 0.577727 0.213056 0.684667
Si Si7 0.329616 0.786363 0.039682
O O1 0.500000 0.732278 0.901890
O O2 0.403138 0.726059 0.855325
O O3 0.373750 0.717938 0.927321
O O4 0.419361 0.000000 0.895489
O O5 0.500000 0.730157 0.807628
O O6 0.369352 0.720772 0.784871
O O7 0.421227 0.000000 0.814884
O O8 0.836838 0.500000 0.749637
O O9 0.750000 0.250000 0.749160
O O10 0.870490 0.218918 0.714591
O O11 0.875039 0.717319 0.572251
O O12 0.898907 0.746820 0.644155
O O13 0.000000 0.718741 0.600681
O O14 0.924882 0.000000 0.600883
O O15 0.652791 0.781439 0.500000
O O16 0.662258 0.500000 0.461138
O O17 0.750000 0.750000 0.454075
O O18 0.500000 0.282116 0.688579
O O19 0.573733 0.000000 0.688954
O O20 0.250000 0.750000 0.045123
O O21 0.338469 0.000000 0.038877
O O22 0.348363 0.718682 0.000000
#
# Coordination Sequence:
#
# PCOD9488049 Si02
#       7
#    16  16  16  16  16  16  16
#     4   8  14  25  43  67  89 110 144 189 228 259
#     4   8  14  27  47  67  87 114 149 186 222 263
#     4  10  20  32  47  69  94 118 147 184 224 265
#     4   9  18  32  50  72  95 119 150 188 228 267
#     4   9  18  32  49  69  94 124 155 186 222 265
#     4   9  18  33  51  68  88 118 154 187 220 262
#     4   9  17  28  42  62  89 119 148 179 219 267
#
# _framework density 20.273645999999999
#
# number of rings (size 3 to 8) (size 9 to 14) (size 15 to 20)
#    0.000    3.143    0.000    1.286    0.000    4.571 
#    0.000    5.714    0.000    1.714    0.000    8.000 
#    0.000    0.000    0.000    0.000    0.000    0.000 
#
# Total GULP energy -312339.224060 kJ/mol
# GULP energy per Si atom -5577.486144 kJ/mol
# Density = 2.022750 g / cm^3
# Si number density = 20.273646 Si / 1000 Ang^3
#
#
#
# Elastic Constant Matrix: (Units=GPa)
#
#
# Indices 1 2 3 4 5 6 
#
# 1 123.1748 1.8508 151.1753 0.0000 0.0000 0.0000
# 2 1.8508 54.9396 7.1801 0.0000 0.0000 0.0000
# 3 151.1753 7.1801 245.7639 0.0000 0.0000 0.0000
# 4 0.0000 0.0000 0.0000 17.4038 0.0000 0.0000
# 5 0.0000 0.0000 0.0000 0.0000 38.6111 0.0000
# 6 0.0000 0.0000 0.0000 0.0000 0.0000 17.7309
#
#
#
# Elastic Compliance Matrix: (Units=1/GPa)
#
#
# Indices 1 2 3 4 5 6 
#
# 1 0.033264 0.001559 -0.020507 0.000000 0.000000 0.000000
# 2 0.001559 0.018345 -0.001495 0.000000 0.000000 0.000000
# 3 -0.020507 -0.001495 0.016727 0.000000 0.000000 0.000000
# 4 0.000000 0.000000 0.000000 0.057459 0.000000 0.000000
# 5 0.000000 0.000000 0.000000 0.000000 0.025899 0.000000
# 6 0.000000 0.000000 0.000000 0.000000 0.000000 0.056399
#
#
# Mechanical properties :
#
#
# Convention : Reuss Voigt Hill
#
# Bulk Modulus (GPa) = 36.42982 82.69896 59.56439
# Shear Modulus (GPa) = 19.37032 32.32730 25.84881
#
# Velocity S-wave (km/s) = 3.09438 3.99751 3.57458
# Velocity P-wave (km/s) = 5.54752 7.88585 6.81769
#
# Compressibility (1/GPa) = 0.02745004
#
# Stress axis : x y z
#
# Youngs Moduli (GPa) = 30.06293 54.51167 59.78413
#
# Poissons Ratio (x) = -0.08501 1.22598
# Poissons Ratio (y) = -0.04688 0.08939
# Poissons Ratio (z) = 0.61649 0.08151
#
# Static dielectric constant tensor:
#      x y z
#    x 1.677090 0.000000 0.000000 
#    y 0.000000 1.777260 0.000000 
#    z 0.000000 0.000000 1.722900 
# 
# From -- ./inp_files/77697.got.cif
#   From: 2010.05.17/outbox.cif.g08.bks.cpg/sg65_39_cif.got.tgz:77697.got - 2010.06.03 17:01:31.
