data_PCOD9488469
_publ_section_title
;
Structure prediction by ZEFSAII (Michael W. Deem and Ramdas Pophale) SiO2 
 PCOD9488469
Probable space group: C M M M
;
_chemical_formula_sum "Si O2"
_cell_formula_units_Z 72
_cell_length_a 8.925749
_cell_length_b 17.997453
_cell_length_c 24.589794
_cell_angle_alpha 90.000000
_cell_angle_beta 90.000000
_cell_angle_gamma 90.000000
_cell_volume 3950.122904
_symmetry_space_group_name_H-M "C M M M"
_symmetry_group_IT_number 65
_symmetry_cell_setting 'orthorhombic'
loop_
_space_group_symop_operation_xyz
x,y,z
-x,-y,z
x,-y,-z
-x,y,-z
-x,-y,-z
x,y,-z
-x,y,z
x,-y,z
1/2+x,1/2+y,z
1/2-x,1/2-y,z
1/2+x,1/2-y,-z
1/2-x,1/2+y,-z
1/2-x,1/2-y,-z
1/2+x,1/2+y,-z
1/2-x,1/2+y,z
1/2+x,1/2-y,z
loop_
_atom_site_type_symbol
_atom_site_label
_atom_site_fract_x
_atom_site_fract_y
_atom_site_fract_z
Si Si1 0.825899 0.910460 0.711580
Si Si2 0.817621 0.584997 0.500000
Si Si3 0.818069 0.411985 0.941491
Si Si4 0.679448 0.168808 0.390203
Si Si5 0.825028 0.590646 0.176538
O O1 0.732355 0.875360 0.662886
O O2 0.766393 0.885677 0.770670
O O3 0.000000 0.890985 0.705371
O O4 0.811945 0.000000 0.709367
O O5 0.765774 0.500000 0.500000
O O6 0.770744 0.626648 0.554850
O O7 0.000000 0.584091 0.500000
O O8 0.781362 0.500000 0.942393
O O9 0.767756 0.382469 0.882670
O O10 0.000000 0.407752 0.940463
O O11 0.767238 0.380341 0.000000
O O12 0.500000 0.173630 0.390721
O O13 0.750000 0.250000 0.389382
O O14 0.819943 0.500000 0.174736
O O15 0.000000 0.610810 0.182861
#
# Coordination Sequence:
#
# PCOD9488469 Si02
#       5
#    16   8  16  16  16
#     4  10  20  33  49  71 100 133 171 213 254 297
#     4   9  19  36  59  85 108 133 166 201 238 286
#     4   7   9  14  27  50  80 113 151 196 243 291
#     4  11  22  37  57  79 106 136 167 204 247 295
#     4   8  13  22  38  60  86 120 162 204 248 297
#
# _framework density 18.227281000000001
#
# number of rings (size 3 to 8) (size 9 to 14) (size 15 to 20)
#    0.000    3.000    0.000    4.333    0.000    2.222 
#    0.000    1.667    0.000    4.667    0.000    4.667 
#    0.000    0.889    0.000    2.444    0.000    6.222 
#
# Total GULP energy -200494.450496 kJ/mol
# GULP energy per Si atom -5569.290292 kJ/mol
# Density = 1.818579 g / cm^3
# Si number density = 18.227281 Si / 1000 Ang^3
#
#
#
# Elastic Constant Matrix: (Units=GPa)
#
#
# Indices 1 2 3 4 5 6 
#
# 1 50.7429 22.7334 49.0617 0.0000 0.0000 0.0000
# 2 22.7334 22.1447 33.0899 0.0000 0.0000 0.0000
# 3 49.0617 33.0899 193.6298 0.0000 0.0000 0.0000
# 4 0.0000 0.0000 0.0000 -8.3006 0.0000 0.0000
# 5 0.0000 0.0000 0.0000 0.0000 -7.3394 0.0000
# 6 0.0000 0.0000 0.0000 0.0000 0.0000 13.0469
#
#
#
# Elastic Compliance Matrix: (Units=1/GPa)
#
#
# Indices 1 2 3 4 5 6 
#
# 1 0.038722 -0.033695 -0.004053 0.000000 0.000000 0.000000
# 2 -0.033695 0.089964 -0.006837 0.000000 0.000000 0.000000
# 3 -0.004053 -0.006837 0.007360 0.000000 0.000000 0.000000
# 4 0.000000 0.000000 0.000000 -0.120474 0.000000 0.000000
# 5 0.000000 0.000000 0.000000 0.000000 -0.136250 0.000000
# 6 0.000000 0.000000 0.000000 0.000000 0.000000 0.076646
#
#
# Mechanical properties :
#
#
# Convention : Reuss Voigt Hill
#
# Bulk Modulus (GPa) = 21.33268 52.92084 37.12676
# Shear Modulus (GPa) = 82.28765 10.25687 46.27226
#
# Velocity S-wave (km/s) = 6.72632 2.37475 5.04394
# Velocity P-wave (km/s) = 8.48844 6.05113 7.37122
#
# Compressibility (1/GPa) = 0.04687644
#
# Stress axis : x y z
#
# Youngs Moduli (GPa) = 25.82533 11.11555 135.87352
#
# Poissons Ratio (x) = 0.37454 0.55070
# Poissons Ratio (y) = 0.87018 0.92892
# Poissons Ratio (z) = 0.10467 0.07599
#
# Static dielectric constant tensor:
#      x y z
#    x 1.606440 0.000000 0.000000 
#    y 0.000000 1.607630 0.000000 
#    z 0.000000 0.000000 1.666280 
# 
# From -- ./inp_files/67057.got.cif
#   From: 2010.05.17/outbox.cif.g08.bks.cpg/sg65_34_cif.got.tgz:67057.got - 2010.06.03 17:01:31.
