data_PCOD9488252
_publ_section_title
;
Structure prediction by ZEFSAII (Michael W. Deem and Ramdas Pophale) SiO2 
 PCOD9488252
Probable space group: C M M M
;
_chemical_formula_sum "Si O2"
_cell_formula_units_Z 104
_cell_length_a 29.798984
_cell_length_b 8.352111
_cell_length_c 21.240729
_cell_angle_alpha 90.000000
_cell_angle_beta 90.000000
_cell_angle_gamma 90.000000
_cell_volume 5286.486561
_symmetry_space_group_name_H-M "C M M M"
_symmetry_group_IT_number 65
_symmetry_cell_setting 'orthorhombic'
loop_
_space_group_symop_operation_xyz
x,y,z
-x,-y,z
x,-y,-z
-x,y,-z
-x,-y,-z
x,y,-z
-x,y,z
x,-y,z
1/2+x,1/2+y,z
1/2-x,1/2-y,z
1/2+x,1/2-y,-z
1/2-x,1/2+y,-z
1/2-x,1/2-y,-z
1/2+x,1/2+y,-z
1/2-x,1/2+y,z
1/2+x,1/2-y,z
loop_
_atom_site_type_symbol
_atom_site_label
_atom_site_fract_x
_atom_site_fract_y
_atom_site_fract_z
Si Si1 0.049030 0.692930 0.890491
Si Si2 0.500000 0.183157 0.576630
Si Si3 0.698973 0.805612 0.193672
Si Si4 0.402359 0.689720 0.570862
Si Si5 0.860296 0.686295 0.690565
Si Si6 0.950036 0.811111 0.251493
Si Si7 0.853063 0.305279 0.068151
O O1 0.050985 0.500000 0.879985
O O2 0.050462 0.779355 0.823200
O O3 0.094295 0.736783 0.926451
O O4 0.000000 0.726598 0.919578
O O5 0.500000 0.187450 0.500000
O O6 0.547538 0.261775 0.593523
O O7 0.500000 0.000000 0.597561
O O8 0.750000 0.750000 0.191969
O O9 0.674204 0.747375 0.257366
O O10 0.672927 0.750105 0.130570
O O11 0.696960 0.000000 0.194053
O O12 0.395659 0.756261 0.500000
O O13 0.402142 0.500000 0.567089
O O14 0.365316 0.740433 0.621414
O O15 0.850711 0.500000 0.683055
O O16 0.909400 0.711617 0.720605
O O17 0.000000 0.764888 0.273898
O O18 0.943419 0.000000 0.264441
O O19 0.850629 0.500000 0.068614
O O20 0.835414 0.250275 0.000000
#
# Coordination Sequence:
#
# PCOD9488252 Si02
#       7
#    16   8  16  16  16  16  16
#     4   9  16  29  50  76 109 147 186 227 270 321
#     4   9  17  31  51  77 113 159 202 233 266 313
#     4  10  22  40  60  84 109 139 180 232 291 345
#     4  10  21  36  54  80 116 153 189 230 275 325
#     4  11  22  37  58  82 110 145 188 232 279 334
#     4  10  20  32  49  76 110 147 186 228 275 325
#     4   9  17  32  54  81 114 146 181 227 275 328
#
# _framework density 19.672801
#
# number of rings (size 3 to 8) (size 9 to 14) (size 15 to 20)
#    0.000    2.231    1.538    1.615    1.077    4.615 
#    0.000    1.538    0.000    1.846    0.000    2.154 
#    0.000    0.000    0.000    0.000    0.000    0.000 
#
# Total GULP energy -290097.403027 kJ/mol
# GULP energy per Si atom -5578.796212 kJ/mol
# Density = 1.962802 g / cm^3
# Si number density = 19.672801 Si / 1000 Ang^3
#
#
#
# Elastic Constant Matrix: (Units=GPa)
#
#
# Indices 1 2 3 4 5 6 
#
# 1 108.3252 9.6488 70.6626 0.0000 0.0000 0.0000
# 2 9.6488 18.3701 15.0892 0.0000 0.0000 0.0000
# 3 70.6626 15.0892 144.3189 0.0000 0.0000 0.0000
# 4 0.0000 0.0000 0.0000 2.1200 0.0000 0.0000
# 5 0.0000 0.0000 0.0000 0.0000 6.5120 0.0000
# 6 0.0000 0.0000 0.0000 0.0000 0.0000 22.8442
#
#
#
# Elastic Compliance Matrix: (Units=1/GPa)
#
#
# Indices 1 2 3 4 5 6 
#
# 1 0.013620 -0.001834 -0.006477 0.000000 0.000000 0.000000
# 2 -0.001834 0.059797 -0.005354 0.000000 0.000000 0.000000
# 3 -0.006477 -0.005354 0.010660 0.000000 0.000000 0.000000
# 4 0.000000 0.000000 0.000000 0.471707 0.000000 0.000000
# 5 0.000000 0.000000 0.000000 0.000000 0.153562 0.000000
# 6 0.000000 0.000000 0.000000 0.000000 0.000000 0.043775
#
#
# Mechanical properties :
#
#
# Convention : Reuss Voigt Hill
#
# Bulk Modulus (GPa) = 17.62188 51.31283 34.46735
# Shear Modulus (GPa) = 6.25495 18.00281 12.12888
#
# Velocity S-wave (km/s) = 1.78505 3.02836 2.48570
# Velocity P-wave (km/s) = 3.63668 6.19417 5.07903
#
# Compressibility (1/GPa) = 0.05674764
#
# Stress axis : x y z
#
# Youngs Moduli (GPa) = 73.42243 16.72317 93.80683
#
# Poissons Ratio (x) = 0.03066 0.60758
# Poissons Ratio (y) = 0.13463 0.50227
# Poissons Ratio (z) = 0.47555 0.08954
#
# Static dielectric constant tensor:
#      x y z
#    x 1.672760 0.000000 0.000000 
#    y 0.000000 1.675090 0.000000 
#    z 0.000000 0.000000 1.757700 
# 
# From -- ./inp_files/65888.got.cif
#   From: 2010.05.17/outbox.cif.g08.bks.cpg/sg65_33_cif.got.tgz:65888.got - 2010.06.03 17:01:31.
