data_PCOD9488384
_publ_section_title
;
Structure prediction by ZEFSAII (Michael W. Deem and Ramdas Pophale) SiO2 
 PCOD9488384
Probable space group: C M M M
;
_chemical_formula_sum "Si O2"
_cell_formula_units_Z 72
_cell_length_a 8.894348
_cell_length_b 14.981004
_cell_length_c 24.774456
_cell_angle_alpha 90.000000
_cell_angle_beta 90.000000
_cell_angle_gamma 90.000000
_cell_volume 3301.103679
_symmetry_space_group_name_H-M "C M M M"
_symmetry_group_IT_number 65
_symmetry_cell_setting 'orthorhombic'
loop_
_space_group_symop_operation_xyz
x,y,z
-x,-y,z
x,-y,-z
-x,y,-z
-x,-y,-z
x,y,-z
-x,y,z
x,-y,z
1/2+x,1/2+y,z
1/2-x,1/2-y,z
1/2+x,1/2-y,-z
1/2-x,1/2+y,-z
1/2-x,1/2-y,-z
1/2+x,1/2+y,-z
1/2-x,1/2+y,z
1/2+x,1/2-y,z
loop_
_atom_site_type_symbol
_atom_site_label
_atom_site_fract_x
_atom_site_fract_y
_atom_site_fract_z
Si Si1 0.333973 0.394570 0.224517
Si Si2 0.819828 0.850021 0.559264
Si Si3 0.675043 0.109622 0.882978
Si Si4 0.178313 0.651708 0.666311
Si Si5 0.816999 0.395123 0.000000
O O1 0.500000 0.356505 0.236342
O O2 0.349307 0.500000 0.215602
O O3 0.266281 0.358324 0.168886
O O4 0.227805 0.385971 0.276178
O O5 0.788454 0.890388 0.500000
O O6 0.750000 0.750000 0.557146
O O7 0.749159 0.892931 0.612763
O O8 0.000000 0.844598 0.565441
O O9 0.500000 0.134229 0.877191
O O10 0.678369 0.000000 0.883888
O O11 0.733358 0.140556 0.941774
O O12 0.250000 0.750000 0.667068
O O13 0.000000 0.653973 0.661034
O O14 0.776913 0.500000 0.000000
O O15 0.000000 0.390718 0.000000
#
# Coordination Sequence:
#
# PCOD9488384 Si02
#       5
#    16  16  16  16   8
#     4  10  20  33  48  68  97 130 162 197 238 283
#     4   9  16  27  45  69  96 123 152 189 233 278
#     4   8  13  23  40  62  88 119 155 192 232 277
#     4  11  21  33  51  73  98 126 159 198 237 280
#     4   7  10  18  35  59  86 115 148 189 232 273
#
# _framework density 21.810887999999998
#
# number of rings (size 3 to 8) (size 9 to 14) (size 15 to 20)
#    0.000    2.778    0.000    6.000    0.000    2.667 
#    0.000    0.556    0.000    4.000    0.000    5.444 
#    0.000    0.000    0.000    0.000    0.000    0.000 
#
# Total GULP energy -200700.730993 kJ/mol
# GULP energy per Si atom -5575.020305 kJ/mol
# Density = 2.176125 g / cm^3
# Si number density = 21.810888 Si / 1000 Ang^3
#
#
#
# Elastic Constant Matrix: (Units=GPa)
#
#
# Indices 1 2 3 4 5 6 
#
# 1 130.2296 6.6434 87.7948 0.0000 0.0000 0.0000
# 2 6.6434 42.2539 12.4247 0.0000 0.0000 0.0000
# 3 87.7948 12.4247 234.8066 0.0000 0.0000 0.0000
# 4 0.0000 0.0000 0.0000 7.6981 0.0000 0.0000
# 5 0.0000 0.0000 0.0000 0.0000 34.2282 0.0000
# 6 0.0000 0.0000 0.0000 0.0000 0.0000 7.7589
#
#
#
# Elastic Compliance Matrix: (Units=1/GPa)
#
#
# Indices 1 2 3 4 5 6 
#
# 1 0.010277 -0.000494 -0.003816 0.000000 0.000000 0.000000
# 2 -0.000494 0.024064 -0.001089 0.000000 0.000000 0.000000
# 3 -0.003816 -0.001089 0.005743 0.000000 0.000000 0.000000
# 4 0.000000 0.000000 0.000000 0.129901 0.000000 0.000000
# 5 0.000000 0.000000 0.000000 0.000000 0.029216 0.000000
# 6 0.000000 0.000000 0.000000 0.000000 0.000000 0.128885
#
#
# Mechanical properties :
#
#
# Convention : Reuss Voigt Hill
#
# Bulk Modulus (GPa) = 34.14501 69.00177 51.57339
# Shear Modulus (GPa) = 14.34120 29.96552 22.15336
#
# Velocity S-wave (km/s) = 2.56701 3.71061 3.19047
# Velocity P-wave (km/s) = 4.94723 7.07554 6.10484
#
# Compressibility (1/GPa) = 0.02928686
#
# Stress axis : x y z
#
# Youngs Moduli (GPa) = 97.30689 41.55545 174.11294
#
# Poissons Ratio (x) = 0.02051 0.66448
# Poissons Ratio (y) = 0.04803 0.18957
# Poissons Ratio (z) = 0.37136 0.04525
#
# Static dielectric constant tensor:
#      x y z
#    x 1.760570 0.000000 0.000000 
#    y 0.000000 1.893090 0.000000 
#    z 0.000000 0.000000 1.872820 
# 
# From -- ./inp_files/67230.got.cif
#   From: 2010.05.17/outbox.cif.g08.bks.cpg/sg65_34_cif.got.tgz:67230.got - 2010.06.03 17:01:31.
