data_PCOD9488392
_publ_section_title
;
Structure prediction by ZEFSAII (Michael W. Deem and Ramdas Pophale) SiO2 
 PCOD9488392
Probable space group: C M M M
;
_chemical_formula_sum "Si O2"
_cell_formula_units_Z 104
_cell_length_a 8.610115
_cell_length_b 28.007186
_cell_length_c 24.586476
_cell_angle_alpha 90.000000
_cell_angle_beta 90.000000
_cell_angle_gamma 90.000000
_cell_volume 5928.908024
_symmetry_space_group_name_H-M "C M M M"
_symmetry_group_IT_number 65
_symmetry_cell_setting 'orthorhombic'
loop_
_space_group_symop_operation_xyz
x,y,z
-x,-y,z
x,-y,-z
-x,y,-z
-x,-y,-z
x,y,-z
-x,y,z
x,-y,z
1/2+x,1/2+y,z
1/2-x,1/2-y,z
1/2+x,1/2-y,-z
1/2-x,1/2+y,-z
1/2-x,1/2-y,-z
1/2+x,1/2+y,-z
1/2-x,1/2+y,z
1/2+x,1/2-y,z
loop_
_atom_site_type_symbol
_atom_site_label
_atom_site_fract_x
_atom_site_fract_y
_atom_site_fract_z
Si Si1 0.315342 0.198598 0.733398
Si Si2 0.189354 0.054952 0.438264
Si Si3 0.313656 0.353425 0.164870
Si Si4 0.687302 0.390877 0.667232
Si Si5 0.675597 0.500000 0.934154
Si Si6 0.312249 0.552175 0.227712
Si Si7 0.185469 0.603022 0.063128
O O1 0.500000 0.199248 0.734384
O O2 0.250000 0.250000 0.717182
O O3 0.252910 0.185621 0.793873
O O4 0.257748 0.157135 0.692509
O O5 0.237503 0.066595 0.500000
O O6 0.240868 0.091661 0.391880
O O7 0.000000 0.055265 0.437337
O O8 0.235626 0.000000 0.426506
O O9 0.500000 0.350987 0.166335
O O10 0.259435 0.403784 0.191336
O O11 0.255595 0.357482 0.103333
O O12 0.500000 0.385019 0.666713
O O13 0.722309 0.433065 0.710345
O O14 0.500000 0.500000 0.912162
O O15 0.756421 0.549908 0.920068
O O16 0.669616 0.500000 0.000000
O O17 0.500000 0.550933 0.222997
O O18 0.251321 0.500000 0.213332
O O19 0.000000 0.603876 0.066112
O O20 0.232049 0.610057 0.000000
#
# Coordination Sequence:
#
# PCOD9488392 Si02
#       7
#    16  16  16  16   8  16  16
#     4  11  22  38  58  77  99 125 162 211 267 321
#     4   8  13  22  42  76 114 149 183 216 247 284
#     4  10  20  33  52  77 102 129 167 207 251 307
#     4   9  16  28  48  74 103 135 173 213 254 300
#     4   9  17  29  45  65  91 131 179 215 244 287
#     4   8  14  24  40  65  96 129 164 203 242 284
#     4  10  20  33  48  69 101 138 173 211 254 298
#
# _framework density 17.541172
#
# number of rings (size 3 to 8) (size 9 to 14) (size 15 to 20)
#    0.000    2.692    0.000    4.385    1.077    3.692 
#    0.000    0.000    0.000    9.692    0.000    1.077 
#    0.000    0.000    0.000    0.000    0.000    0.000 
#
# Total GULP energy -289869.429204 kJ/mol
# GULP energy per Si atom -5574.412100 kJ/mol
# Density = 1.750125 g / cm^3
# Si number density = 17.541172 Si / 1000 Ang^3
#
#
#
# Elastic Constant Matrix: (Units=GPa)
#
#
# Indices 1 2 3 4 5 6 
#
# 1 51.9194 18.8261 29.6404 0.0000 0.0000 0.0000
# 2 18.8261 68.4913 32.0378 0.0000 0.0000 0.0000
# 3 29.6404 32.0378 105.8916 0.0000 0.0000 0.0000
# 4 0.0000 0.0000 0.0000 18.8212 0.0000 0.0000
# 5 0.0000 0.0000 0.0000 0.0000 14.5551 0.0000
# 6 0.0000 0.0000 0.0000 0.0000 0.0000 15.3625
#
#
#
# Elastic Compliance Matrix: (Units=1/GPa)
#
#
# Indices 1 2 3 4 5 6 
#
# 1 0.023827 -0.003995 -0.005461 0.000000 0.000000 0.000000
# 2 -0.003995 0.017677 -0.004230 0.000000 0.000000 0.000000
# 3 -0.005461 -0.004230 0.012252 0.000000 0.000000 0.000000
# 4 0.000000 0.000000 0.000000 0.053132 0.000000 0.000000
# 5 0.000000 0.000000 0.000000 0.000000 0.068705 0.000000
# 6 0.000000 0.000000 0.000000 0.000000 0.000000 0.065094
#
#
# Mechanical properties :
#
#
# Convention : Reuss Voigt Hill
#
# Bulk Modulus (GPa) = 37.90110 43.03456 40.46783
# Shear Modulus (GPa) = 18.06020 19.46761 18.76391
#
# Velocity S-wave (km/s) = 3.21220 3.33502 3.27418
# Velocity P-wave (km/s) = 5.95076 6.27826 6.11670
#
# Compressibility (1/GPa) = 0.02638446
#
# Stress axis : x y z
#
# Youngs Moduli (GPa) = 41.96972 56.57025 81.61959
#
# Poissons Ratio (x) = 0.22599 0.44570
# Poissons Ratio (y) = 0.16766 0.34525
# Poissons Ratio (z) = 0.22919 0.23929
#
# Static dielectric constant tensor:
#      x y z
#    x 1.596560 0.000000 0.000000 
#    y 0.000000 1.586440 0.000000 
#    z 0.000000 0.000000 1.634820 
# 
# From -- ./inp_files/68223.got.cif
#   From: 2010.05.17/outbox.cif.g08.bks.cpg/sg65_35_cif.got.tgz:68223.got - 2010.06.03 17:01:31.
