data_PCOD9488019
_publ_section_title
;
Structure prediction by ZEFSAII (Michael W. Deem and Ramdas Pophale) SiO2 
 PCOD9488019
Probable space group: C M M M
;
_chemical_formula_sum "Si O2"
_cell_formula_units_Z 88
_cell_length_a 15.969874
_cell_length_b 23.526837
_cell_length_c 14.252719
_cell_angle_alpha 90.000000
_cell_angle_beta 90.000000
_cell_angle_gamma 90.000000
_cell_volume 5355.040455
_symmetry_space_group_name_H-M "C M M M"
_symmetry_group_IT_number 65
_symmetry_cell_setting 'orthorhombic'
loop_
_space_group_symop_operation_xyz
x,y,z
-x,-y,z
x,-y,-z
-x,y,-z
-x,-y,-z
x,y,-z
-x,y,z
x,-y,z
1/2+x,1/2+y,z
1/2-x,1/2-y,z
1/2+x,1/2-y,-z
1/2-x,1/2+y,-z
1/2-x,1/2-y,-z
1/2+x,1/2+y,-z
1/2-x,1/2+y,z
1/2+x,1/2-y,z
loop_
_atom_site_type_symbol
_atom_site_label
_atom_site_fract_x
_atom_site_fract_y
_atom_site_fract_z
Si Si1 0.000000 0.435387 0.885799
Si Si2 0.240142 0.933436 0.704373
Si Si3 0.094971 0.614257 0.386154
Si Si4 0.092439 0.138162 0.613083
Si Si5 0.154184 0.260266 0.613719
Si Si6 0.682569 0.930622 0.893271
O O1 0.910095 0.409145 0.863395
O O2 0.000000 0.500000 0.848273
O O3 0.000000 0.439220 0.000000
O O4 0.330011 0.923072 0.655135
O O5 0.168447 0.897063 0.655563
O O6 0.252374 0.915651 0.812836
O O7 0.219940 0.000000 0.699656
O O8 0.098135 0.611359 0.500000
O O9 0.115875 0.679452 0.357449
O O10 0.000000 0.598812 0.357472
O O11 0.098728 0.135226 0.500000
O O12 0.102696 0.204344 0.639892
O O13 0.000000 0.117514 0.640526
O O14 0.155738 0.262219 0.500000
O O15 0.250000 0.250000 0.644831
O O16 0.677005 0.000000 0.894292
O O17 0.701013 0.912931 0.000000
#
# Coordination Sequence:
#
# PCOD9488019 Si02
#       6
#     8  16  16  16  16  16
#     4   7  10  20  40  62  81 107 147 191 232 268
#     4  11  22  32  46  69  99 132 163 193 232 291
#     4  10  20  32  46  68  99 131 160 191 231 282
#     4  10  20  34  52  72  94 125 166 208 243 272
#     4   9  15  29  52  71  90 118 157 206 247 272
#     4   8  15  28  45  64  88 120 159 203 240 272
#
# _framework density 16.433115999999998
#
# number of rings (size 3 to 8) (size 9 to 14) (size 15 to 20)
#    0.000    2.636    1.818    2.182    1.273    4.364 
#    0.000    1.818    0.000    0.545    0.000    5.091 
#    0.000    2.909    0.000    0.000    0.000    0.000 
#
# Total GULP energy -245090.766121 kJ/mol
# GULP energy per Si atom -5570.244685 kJ/mol
# Density = 1.639571 g / cm^3
# Si number density = 16.433116 Si / 1000 Ang^3
#
#
#
# Elastic Constant Matrix: (Units=GPa)
#
#
# Indices 1 2 3 4 5 6 
#
# 1 85.6899 5.2499 23.9193 0.0000 0.0000 0.0000
# 2 5.2499 31.1865 5.7935 0.0000 0.0000 0.0000
# 3 23.9193 5.7935 41.2826 0.0000 0.0000 0.0000
# 4 0.0000 0.0000 0.0000 -7.0659 0.0000 0.0000
# 5 0.0000 0.0000 0.0000 0.0000 19.6178 0.0000
# 6 0.0000 0.0000 0.0000 0.0000 0.0000 8.2604
#
#
#
# Elastic Compliance Matrix: (Units=1/GPa)
#
#
# Indices 1 2 3 4 5 6 
#
# 1 0.013944 -0.000869 -0.007958 0.000000 0.000000 0.000000
# 2 -0.000869 0.032978 -0.004124 0.000000 0.000000 0.000000
# 3 -0.007958 -0.004124 0.029413 0.000000 0.000000 0.000000
# 4 0.000000 0.000000 0.000000 -0.141524 0.000000 0.000000
# 5 0.000000 0.000000 0.000000 0.000000 0.050974 0.000000
# 6 0.000000 0.000000 0.000000 0.000000 0.000000 0.121060
#
#
# Mechanical properties :
#
#
# Convention : Reuss Voigt Hill
#
# Bulk Modulus (GPa) = 19.82840 25.34271 22.58555
# Shear Modulus (GPa) = 33.43196 12.37555 22.90375
#
# Velocity S-wave (km/s) = 4.51535 2.74722 3.73735
# Velocity P-wave (km/s) = 6.26713 5.05155 5.69188
#
# Compressibility (1/GPa) = 0.05043272
#
# Stress axis : x y z
#
# Youngs Moduli (GPa) = 71.71301 30.32354 33.99894
#
# Poissons Ratio (x) = 0.02635 0.27055
# Poissons Ratio (y) = 0.06233 0.14023
# Poissons Ratio (z) = 0.57066 0.12507
#
# Static dielectric constant tensor:
#      x y z
#    x 1.575090 0.000000 0.000000 
#    y 0.000000 1.546620 0.000000 
#    z 0.000000 0.000000 1.567810 
# 
# From -- ./inp_files/40607.got.cif
#   From: 2010.05.17/outbox.cif.g08.bks.cpg/sg65_21_cif.got.tgz:40607.got - 2010.06.03 17:01:31.
