data_PCOD9488840
_publ_section_title
;
Structure prediction by ZEFSAII (Michael W. Deem and Ramdas Pophale) SiO2 
 PCOD9488840
Probable space group: C M M M
;
_chemical_formula_sum "Si O2"
_cell_formula_units_Z 48
_cell_length_a 8.375127
_cell_length_b 25.766038
_cell_length_c 12.412054
_cell_angle_alpha 90.000000
_cell_angle_beta 90.000000
_cell_angle_gamma 90.000000
_cell_volume 2678.444802
_symmetry_space_group_name_H-M "C M M M"
_symmetry_group_IT_number 65
_symmetry_cell_setting 'orthorhombic'
loop_
_space_group_symop_operation_xyz
x,y,z
-x,-y,z
x,-y,-z
-x,y,-z
-x,-y,-z
x,y,-z
-x,y,z
x,-y,z
1/2+x,1/2+y,z
1/2-x,1/2-y,z
1/2+x,1/2-y,-z
1/2-x,1/2+y,-z
1/2-x,1/2-y,-z
1/2+x,1/2+y,-z
1/2-x,1/2+y,z
1/2+x,1/2-y,z
loop_
_atom_site_type_symbol
_atom_site_label
_atom_site_fract_x
_atom_site_fract_y
_atom_site_fract_z
Si Si1 0.191447 0.308732 0.624655
Si Si2 0.190958 0.500000 0.876628
Si Si3 0.681275 0.438818 0.500000
Si Si4 0.808281 0.906654 0.271453
O O1 0.241627 0.323161 0.500000
O O2 0.250000 0.250000 0.640223
O O3 0.260476 0.346357 0.717628
O O4 0.000000 0.310814 0.627599
O O5 0.246481 0.552650 0.816398
O O6 0.000000 0.500000 0.876409
O O7 0.248906 0.500000 0.000000
O O8 0.664823 0.500000 0.500000
O O9 0.500000 0.416394 0.500000
O O10 0.759452 0.425186 0.612648
O O11 0.000000 0.911066 0.269737
#
# Coordination Sequence:
#
# PCOD9488840 Si02
#       4
#    16   8   8  16
#     4  10  20  33  51  80 117 154 188 222 267 326
#     4  11  25  42  57  78 110 146 187 235 282 329
#     4   9  16  28  47  78 111 140 171 215 272 326
#     4  11  20  34  57  82 112 146 184 228 276 332
#
# _framework density 17.920849
#
# number of rings (size 3 to 8) (size 9 to 14) (size 15 to 20)
#    0.000    1.667    3.333    2.500    0.000    2.667 
#    0.000    0.833    0.000    1.000    0.000    0.000 
#    0.000    0.000    0.000    0.000    0.000    0.000 
#
# Total GULP energy -133642.080364 kJ/mol
# GULP energy per Si atom -5568.420015 kJ/mol
# Density = 1.788006 g / cm^3
# Si number density = 17.920849 Si / 1000 Ang^3
#
#
#
# Elastic Constant Matrix: (Units=GPa)
#
#
# Indices 1 2 3 4 5 6 
#
# 1 54.1492 30.9735 27.0854 0.0000 0.0000 0.0000
# 2 30.9735 129.9850 71.8658 0.0000 0.0000 0.0000
# 3 27.0854 71.8658 120.4126 0.0000 0.0000 0.0000
# 4 0.0000 0.0000 0.0000 13.6919 0.0000 0.0000
# 5 0.0000 0.0000 0.0000 0.0000 21.3400 0.0000
# 6 0.0000 0.0000 0.0000 0.0000 0.0000 30.2469
#
#
#
# Elastic Compliance Matrix: (Units=1/GPa)
#
#
# Indices 1 2 3 4 5 6 
#
# 1 0.021959 -0.003734 -0.002711 0.000000 0.000000 0.000000
# 2 -0.003734 0.012117 -0.006392 0.000000 0.000000 0.000000
# 3 -0.002711 -0.006392 0.012729 0.000000 0.000000 0.000000
# 4 0.000000 0.000000 0.000000 0.073036 0.000000 0.000000
# 5 0.000000 0.000000 0.000000 0.000000 0.046860 0.000000
# 6 0.000000 0.000000 0.000000 0.000000 0.000000 0.033061
#
#
# Mechanical properties :
#
#
# Convention : Reuss Voigt Hill
#
# Bulk Modulus (GPa) = 47.32091 62.71068 55.01580
# Shear Modulus (GPa) = 21.50723 24.69725 23.10224
#
# Velocity S-wave (km/s) = 3.46804 3.71634 3.59434
# Velocity P-wave (km/s) = 6.51914 7.31328 6.92760
#
# Compressibility (1/GPa) = 0.02113231
#
# Stress axis : x y z
#
# Youngs Moduli (GPa) = 45.53887 82.53043 78.55815
#
# Poissons Ratio (x) = 0.30814 0.21298
# Poissons Ratio (y) = 0.17003 0.50213
# Poissons Ratio (z) = 0.12346 0.52752
#
# Static dielectric constant tensor:
#      x y z
#    x 1.634450 0.000000 0.000000 
#    y 0.000000 1.687930 0.000000 
#    z 0.000000 0.000000 1.623720 
# 
# From -- ./inp_files/20089.got.cif
#   From: 2010.05.17/outbox.cif.g08.bks.cpg/sg65_11_cif.got.tgz:20089.got - 2010.06.03 17:01:31.
