data_PCOD9488423
_publ_section_title
;
Structure prediction by ZEFSAII (Michael W. Deem and Ramdas Pophale) SiO2 
 PCOD9488423
Probable space group: C M M M
;
_chemical_formula_sum "Si O2"
_cell_formula_units_Z 88
_cell_length_a 20.146291
_cell_length_b 9.217607
_cell_length_c 29.002072
_cell_angle_alpha 90.000000
_cell_angle_beta 90.000000
_cell_angle_gamma 90.000000
_cell_volume 5385.701967
_symmetry_space_group_name_H-M "C M M M"
_symmetry_group_IT_number 65
_symmetry_cell_setting 'orthorhombic'
loop_
_space_group_symop_operation_xyz
x,y,z
-x,-y,z
x,-y,-z
-x,y,-z
-x,-y,-z
x,y,-z
-x,y,z
x,-y,z
1/2+x,1/2+y,z
1/2-x,1/2-y,z
1/2+x,1/2-y,-z
1/2-x,1/2+y,-z
1/2-x,1/2-y,-z
1/2+x,1/2+y,-z
1/2-x,1/2+y,z
1/2+x,1/2-y,z
loop_
_atom_site_type_symbol
_atom_site_label
_atom_site_fract_x
_atom_site_fract_y
_atom_site_fract_z
Si Si1 0.423901 0.176572 0.448048
Si Si2 0.418966 0.166429 0.000000
Si Si3 0.578563 0.324876 0.194856
Si Si4 0.180134 0.326272 0.628556
Si Si5 0.919308 0.833236 0.091041
Si Si6 0.678968 0.826264 0.264301
O O1 0.403937 0.220647 0.500000
O O2 0.500000 0.222545 0.440324
O O3 0.374702 0.224655 0.407947
O O4 0.423960 0.000000 0.447486
O O5 0.396463 0.242813 0.952928
O O6 0.500000 0.173049 0.000000
O O7 0.399313 0.000000 0.000000
O O8 0.500000 0.293323 0.200809
O O9 0.586077 0.500000 0.198542
O O10 0.598818 0.282784 0.142445
O O11 0.623784 0.242725 0.231379
O O12 0.187819 0.500000 0.623833
O O13 0.250000 0.250000 0.619505
O O14 0.161638 0.298355 0.681883
O O15 0.000000 0.832358 0.090604
O O16 0.898415 0.000000 0.085653
O O17 0.750000 0.750000 0.255657
O O18 0.684109 0.000000 0.257863
#
# Coordination Sequence:
#
# PCOD9488423 Si02
#       6
#    16   8  16  16  16  16
#     4   8  14  26  45  68  93 121 153 188 225 268
#     4   9  15  21  33  57  88 119 150 187 228 267
#     4   9  18  32  49  70  96 124 156 196 239 283
#     4   9  18  31  47  68  92 118 151 191 232 274
#     4   8  14  25  40  58  84 119 153 184 224 275
#     4  10  20  33  49  68  93 125 159 197 239 284
#
# _framework density 16.339559999999999
#
# number of rings (size 3 to 8) (size 9 to 14) (size 15 to 20)
#    0.000    3.182    0.000    2.455    0.000    4.000 
#    0.000    3.636    0.000    0.545    0.000    1.909 
#    0.000    0.000    0.000    0.000    0.000    0.000 
#
# Total GULP energy -244979.462900 kJ/mol
# GULP energy per Si atom -5567.715066 kJ/mol
# Density = 1.630237 g / cm^3
# Si number density = 16.339560 Si / 1000 Ang^3
#
#
#
# Elastic Constant Matrix: (Units=GPa)
#
#
# Indices 1 2 3 4 5 6 
#
# 1 72.0576 42.4042 96.7030 0.0000 0.0000 0.0000
# 2 42.4042 45.2349 68.6619 0.0000 0.0000 0.0000
# 3 96.7030 68.6619 169.9181 0.0000 0.0000 0.0000
# 4 0.0000 0.0000 0.0000 18.1481 0.0000 0.0000
# 5 0.0000 0.0000 0.0000 0.0000 -9.7848 0.0000
# 6 0.0000 0.0000 0.0000 0.0000 0.0000 20.8110
#
#
#
# Elastic Compliance Matrix: (Units=1/GPa)
#
#
# Indices 1 2 3 4 5 6 
#
# 1 0.061015 -0.011609 -0.030034 0.000000 0.000000 0.000000
# 2 -0.011609 0.059386 -0.017390 0.000000 0.000000 0.000000
# 3 -0.030034 -0.017390 0.030005 0.000000 0.000000 0.000000
# 4 0.000000 0.000000 0.000000 0.055102 0.000000 0.000000
# 5 0.000000 0.000000 0.000000 0.000000 -0.102200 0.000000
# 6 0.000000 0.000000 0.000000 0.000000 0.000000 0.048051
#
#
# Mechanical properties :
#
#
# Convention : Reuss Voigt Hill
#
# Bulk Modulus (GPa) = 30.92113 78.08320 54.50216
# Shear Modulus (GPa) = 17.84398 11.13097 14.48747
#
# Velocity S-wave (km/s) = 3.30824 2.61287 2.98090
# Velocity P-wave (km/s) = 5.79290 7.54946 6.72875
#
# Compressibility (1/GPa) = 0.03234035
#
# Stress axis : x y z
#
# Youngs Moduli (GPa) = 16.38934 16.83897 33.32771
#
# Poissons Ratio (x) = 0.19548 1.00095
# Poissons Ratio (y) = 0.19026 0.57958
# Poissons Ratio (z) = 0.49223 0.29284
#
# Static dielectric constant tensor:
#      x y z
#    x 1.521460 0.000000 0.000000 
#    y 0.000000 1.541610 0.000000 
#    z 0.000000 0.000000 1.559370 
# 
# From -- ./inp_files/70964.got.cif
#   From: 2010.05.17/outbox.cif.g08.bks.cpg/sg65_36_cif.got.tgz:70964.got - 2010.06.03 17:01:31.
