data_PCOD9488704
_publ_section_title
;
Structure prediction by ZEFSAII (Michael W. Deem and Ramdas Pophale) SiO2 
 PCOD9488704
Probable space group: C M M M
;
_chemical_formula_sum "Si O2"
_cell_formula_units_Z 72
_cell_length_a 18.011967
_cell_length_b 9.687871
_cell_length_c 23.886839
_cell_angle_alpha 90.000000
_cell_angle_beta 90.000000
_cell_angle_gamma 90.000000
_cell_volume 4168.196382
_symmetry_space_group_name_H-M "C M M M"
_symmetry_group_IT_number 65
_symmetry_cell_setting 'orthorhombic'
loop_
_space_group_symop_operation_xyz
x,y,z
-x,-y,z
x,-y,-z
-x,y,-z
-x,-y,-z
x,y,-z
-x,y,z
x,-y,z
1/2+x,1/2+y,z
1/2-x,1/2-y,z
1/2+x,1/2-y,-z
1/2-x,1/2+y,-z
1/2-x,1/2-y,-z
1/2+x,1/2+y,-z
1/2-x,1/2+y,z
1/2+x,1/2-y,z
loop_
_atom_site_type_symbol
_atom_site_label
_atom_site_fract_x
_atom_site_fract_y
_atom_site_fract_z
Si Si1 0.590427 0.659322 0.936832
Si Si2 0.174569 0.834831 0.389137
Si Si3 0.411308 0.660700 0.273820
Si Si4 0.584429 0.667561 0.500000
Si Si5 0.409310 0.158710 0.167693
O O1 0.500000 0.661915 0.936511
O O2 0.611756 0.500000 0.926179
O O3 0.615784 0.760484 0.887861
O O4 0.613706 0.697597 0.000000
O O5 0.250000 0.750000 0.387919
O O6 0.128967 0.810288 0.332195
O O7 0.127415 0.792683 0.443709
O O8 0.188374 0.000000 0.392838
O O9 0.500000 0.676869 0.281385
O O10 0.398235 0.500000 0.258704
O O11 0.386692 0.759214 0.223411
O O12 0.581612 0.500000 0.500000
O O13 0.500000 0.718385 0.500000
O O14 0.500000 0.159991 0.167115
O O15 0.385348 0.000000 0.168232
#
# Coordination Sequence:
#
# PCOD9488704 Si02
#       5
#    16  16  16   8  16
#     4   8  13  21  33  50  76 113 153 189 228 278
#     4  10  20  33  51  74  99 127 157 194 239 282
#     4   9  17  30  47  65  87 120 162 199 231 276
#     4   9  17  32  55  79 100 125 162 200 230 271
#     4   9  16  24  36  57  84 114 149 192 241 284
#
# _framework density 17.273658000000001
#
# number of rings (size 3 to 8) (size 9 to 14) (size 15 to 20)
#    0.000    3.000    0.000    2.333    0.000    6.667 
#    0.000    2.222    0.000    2.667    0.000    0.000 
#    0.000    0.889    0.000    2.889    0.000    5.778 
#
# Total GULP energy -200615.386774 kJ/mol
# GULP energy per Si atom -5572.649633 kJ/mol
# Density = 1.723434 g / cm^3
# Si number density = 17.273658 Si / 1000 Ang^3
#
#
#
# Elastic Constant Matrix: (Units=GPa)
#
#
# Indices 1 2 3 4 5 6 
#
# 1 40.7551 44.2671 52.7099 0.0000 0.0000 0.0000
# 2 44.2671 99.7538 115.7056 0.0000 0.0000 0.0000
# 3 52.7099 115.7056 193.8594 0.0000 0.0000 0.0000
# 4 0.0000 0.0000 0.0000 3.1817 0.0000 0.0000
# 5 0.0000 0.0000 0.0000 0.0000 -6.0879 0.0000
# 6 0.0000 0.0000 0.0000 0.0000 0.0000 18.6412
#
#
#
# Elastic Compliance Matrix: (Units=1/GPa)
#
#
# Indices 1 2 3 4 5 6 
#
# 1 0.047439 -0.019793 -0.001085 0.000000 0.000000 0.000000
# 2 -0.019793 0.040838 -0.018992 0.000000 0.000000 0.000000
# 3 -0.001085 -0.018992 0.016789 0.000000 0.000000 0.000000
# 4 0.000000 0.000000 0.000000 0.314296 0.000000 0.000000
# 5 0.000000 0.000000 0.000000 0.000000 -0.164260 0.000000
# 6 0.000000 0.000000 0.000000 0.000000 0.000000 0.053644
#
#
# Mechanical properties :
#
#
# Convention : Reuss Voigt Hill
#
# Bulk Modulus (GPa) = 39.48747 84.41483 61.95115
# Shear Modulus (GPa) = 12.59672 11.25939 11.92806
#
# Velocity S-wave (km/s) = 2.70338 2.55585 2.63065
# Velocity P-wave (km/s) = 5.71436 7.59507 6.72083
#
# Compressibility (1/GPa) = 0.02532449
#
# Stress axis : x y z
#
# Youngs Moduli (GPa) = 21.07978 24.48714 59.56298
#
# Poissons Ratio (x) = 0.48469 0.06461
# Poissons Ratio (y) = 0.41724 1.13124
# Poissons Ratio (z) = 0.02287 0.46507
#
# Static dielectric constant tensor:
#      x y z
#    x 1.560130 0.000000 0.000000 
#    y 0.000000 1.575090 0.000000 
#    z 0.000000 0.000000 1.580340 
# 
# From -- ./inp_files/67025.got.cif
#   From: 2010.05.17/outbox.cif.g08.bks.cpg/sg65_34_cif.got.tgz:67025.got - 2010.06.03 17:01:31.
