data_PCOD9488142
_publ_section_title
;
Structure prediction by ZEFSAII (Michael W. Deem and Ramdas Pophale) SiO2 
 PCOD9488142
Probable space group: C M M M
;
_chemical_formula_sum "Si O2"
_cell_formula_units_Z 120
_cell_length_a 27.746996
_cell_length_b 26.122698
_cell_length_c 8.395439
_cell_angle_alpha 90.000000
_cell_angle_beta 90.000000
_cell_angle_gamma 90.000000
_cell_volume 6085.235801
_symmetry_space_group_name_H-M "C M M M"
_symmetry_group_IT_number 65
_symmetry_cell_setting 'orthorhombic'
loop_
_space_group_symop_operation_xyz
x,y,z
-x,-y,z
x,-y,-z
-x,y,-z
-x,-y,-z
x,y,-z
-x,y,z
x,-y,z
1/2+x,1/2+y,z
1/2-x,1/2-y,z
1/2+x,1/2-y,-z
1/2-x,1/2+y,-z
1/2-x,1/2-y,-z
1/2+x,1/2+y,-z
1/2-x,1/2+y,z
1/2+x,1/2-y,z
loop_
_atom_site_type_symbol
_atom_site_label
_atom_site_fract_x
_atom_site_fract_y
_atom_site_fract_z
Si Si1 0.287236 0.439397 0.809967
Si Si2 0.555382 0.111699 0.308956
Si Si3 0.110129 0.100384 0.308638
Si Si4 0.056726 0.797740 0.192095
Si Si5 0.134597 0.442428 0.819590
Si Si6 0.945944 0.000000 0.694162
Si Si7 0.703650 0.865916 0.320137
Si Si8 0.877119 0.703128 0.189805
O O1 0.281478 0.500000 0.753346
O O2 0.335766 0.413174 0.744294
O O3 0.245705 0.397860 0.767398
O O4 0.289517 0.442625 0.000000
O O5 0.559997 0.109912 0.500000
O O6 0.500000 0.117907 0.268531
O O7 0.578997 0.062438 0.226330
O O8 0.585847 0.158394 0.237495
O O9 0.109299 0.104341 0.500000
O O10 0.082594 0.149533 0.240270
O O11 0.080612 0.050787 0.254478
O O12 0.094427 0.753705 0.248707
O O13 0.000000 0.793706 0.247279
O O14 0.054716 0.794219 0.000000
O O15 0.152167 0.500000 0.815317
O O16 0.161805 0.408512 0.691605
O O17 0.142876 0.422629 0.000000
O O18 0.945889 0.000000 0.500000
O O19 0.000000 0.000000 0.751303
O O20 0.718858 0.855654 0.500000
O O21 0.675544 0.815524 0.253555
O O22 0.872531 0.706973 0.000000
#
# Coordination Sequence:
#
# PCOD9488142 Si02
#       8
#    16  16  16  16  16   8  16  16
#     4  11  23  40  63  89 122 162 204 249 301 361
#     4  10  20  32  48  72 102 137 180 233 292 352
#     4  11  22  38  61  91 127 162 202 249 298 355
#     4  10  22  40  62  90 124 162 204 248 298 358
#     4  10  20  33  49  71 101 138 183 232 285 351
#     4   9  18  34  57  87 125 163 197 237 290 351
#     4  11  22  36  58  86 115 148 192 246 302 357
#     4  10  20  37  60  83 112 151 196 246 297 353
#
# _framework density 19.719861000000002
#
# number of rings (size 3 to 8) (size 9 to 14) (size 15 to 20)
#    0.000    1.667    0.667    6.000    0.000    7.200 
#    0.000    2.000    0.000    5.600    0.000    0.000 
#    0.000    0.000    0.000    0.000    0.000    0.000 
#
# Total GULP energy -334205.759416 kJ/mol
# GULP energy per Si atom -5570.095990 kJ/mol
# Density = 1.967498 g / cm^3
# Si number density = 19.719861 Si / 1000 Ang^3
#
#
#
# Elastic Constant Matrix: (Units=GPa)
#
#
# Indices 1 2 3 4 5 6 
#
# 1 105.8601 52.6871 -4.9582 0.0000 0.0000 0.0000
# 2 52.6871 128.3739 8.6362 0.0000 0.0000 0.0000
# 3 -4.9582 8.6362 29.9782 0.0000 0.0000 0.0000
# 4 0.0000 0.0000 0.0000 24.8417 0.0000 0.0000
# 5 0.0000 0.0000 0.0000 0.0000 25.9816 0.0000
# 6 0.0000 0.0000 0.0000 0.0000 0.0000 29.7751
#
#
#
# Elastic Compliance Matrix: (Units=1/GPa)
#
#
# Indices 1 2 3 4 5 6 
#
# 1 0.012228 -0.005257 0.003537 0.000000 0.000000 0.000000
# 2 -0.005257 0.010203 -0.003809 0.000000 0.000000 0.000000
# 3 0.003537 -0.003809 0.035040 0.000000 0.000000 0.000000
# 4 0.000000 0.000000 0.000000 0.040255 0.000000 0.000000
# 5 0.000000 0.000000 0.000000 0.000000 0.038489 0.000000
# 6 0.000000 0.000000 0.000000 0.000000 0.000000 0.033585
#
#
# Mechanical properties :
#
#
# Convention : Reuss Voigt Hill
#
# Bulk Modulus (GPa) = 21.54514 41.88250 31.71382
# Shear Modulus (GPa) = 25.46743 29.97615 27.72179
#
# Velocity S-wave (km/s) = 3.59759 3.90307 3.75344
# Velocity P-wave (km/s) = 5.31095 6.44956 5.90775
#
# Compressibility (1/GPa) = 0.04641418
#
# Stress axis : x y z
#
# Youngs Moduli (GPa) = 81.77705 98.00628 28.53900
#
# Poissons Ratio (x) = 0.51519 -0.10094
# Poissons Ratio (y) = 0.42988 0.10870
# Poissons Ratio (z) = -0.28923 0.37329
#
# Static dielectric constant tensor:
#      x y z
#    x 1.761060 0.000000 0.000000 
#    y 0.000000 1.732520 0.000000 
#    z 0.000000 0.000000 1.696590 
# 
# From -- ./inp_files/17105.got.cif
#   From: 2010.05.17/outbox.cif.g08.bks.cpg/sg65_9_cif.got.tgz:17105.got - 2010.06.03 17:01:31.
