data_PCOD9488559
_publ_section_title
;
Structure prediction by ZEFSAII (Michael W. Deem and Ramdas Pophale) SiO2 
 PCOD9488559
Probable space group: C M M M
;
_chemical_formula_sum "Si O2"
_cell_formula_units_Z 72
_cell_length_a 14.732124
_cell_length_b 32.937670
_cell_length_c 7.844150
_cell_angle_alpha 90.000000
_cell_angle_beta 90.000000
_cell_angle_gamma 90.000000
_cell_volume 3806.309769
_symmetry_space_group_name_H-M "C M M M"
_symmetry_group_IT_number 65
_symmetry_cell_setting 'orthorhombic'
loop_
_space_group_symop_operation_xyz
x,y,z
-x,-y,z
x,-y,-z
-x,y,-z
-x,-y,-z
x,y,-z
-x,y,z
x,-y,z
1/2+x,1/2+y,z
1/2-x,1/2-y,z
1/2+x,1/2-y,-z
1/2-x,1/2+y,-z
1/2-x,1/2-y,-z
1/2+x,1/2+y,-z
1/2-x,1/2+y,z
1/2+x,1/2-y,z
loop_
_atom_site_type_symbol
_atom_site_label
_atom_site_fract_x
_atom_site_fract_y
_atom_site_fract_z
Si Si1 0.500000 0.952073 0.309299
Si Si2 0.000000 0.759046 0.296459
Si Si3 0.000000 0.665851 0.703244
Si Si4 0.698024 0.132217 0.794023
Si Si5 0.700385 0.954485 0.802364
Si Si6 0.804283 0.210878 0.204324
O O1 0.500000 0.932861 0.500000
O O2 0.407711 0.945896 0.208281
O O3 0.500000 0.000000 0.335971
O O4 0.000000 0.712385 0.228953
O O5 0.090557 0.782051 0.240668
O O6 0.000000 0.756714 0.500000
O O7 0.906976 0.643473 0.755506
O O8 0.000000 0.668041 0.500000
O O9 0.733070 0.088397 0.726348
O O10 0.759419 0.169475 0.730399
O O11 0.704846 0.130009 0.000000
O O12 0.716959 0.000000 0.728040
O O13 0.727905 0.956775 0.000000
O O14 0.750000 0.250000 0.272389
O O15 0.792141 0.210254 0.000000
#
# Coordination Sequence:
#
# PCOD9488559 Si02
#       6
#     8   8   8  16  16  16
#     4   9  16  25  38  58  87 123 161 196 229 272
#     4  11  23  36  52  74 102 133 161 199 249 293
#     4  11  22  32  46  71 102 134 166 201 243 288
#     4  10  20  33  50  72  97 130 169 203 239 287
#     4   9  17  29  44  63  90 123 158 197 239 281
#     4  10  20  35  55  75  97 128 165 203 241 287
#
# _framework density 18.915959000000001
#
# number of rings (size 3 to 8) (size 9 to 14) (size 15 to 20)
#    0.000    2.111    2.222    1.667    0.000    7.111 
#    0.000    0.000    0.000    0.000    0.000    0.778 
#    0.000    6.222    0.000    0.000    0.000    0.000 
#
# Total GULP energy -200544.190182 kJ/mol
# GULP energy per Si atom -5570.671949 kJ/mol
# Density = 1.887291 g / cm^3
# Si number density = 18.915959 Si / 1000 Ang^3
#
#
#
# Elastic Constant Matrix: (Units=GPa)
#
#
# Indices 1 2 3 4 5 6 
#
# 1 84.6830 67.9916 -9.1816 0.0000 0.0000 0.0000
# 2 67.9916 223.1267 9.1446 0.0000 0.0000 0.0000
# 3 -9.1816 9.1446 27.3424 0.0000 0.0000 0.0000
# 4 0.0000 0.0000 0.0000 6.5003 0.0000 0.0000
# 5 0.0000 0.0000 0.0000 0.0000 21.3403 0.0000
# 6 0.0000 0.0000 0.0000 0.0000 0.0000 15.1238
#
#
#
# Elastic Compliance Matrix: (Units=1/GPa)
#
#
# Indices 1 2 3 4 5 6 
#
# 1 0.017049 -0.005505 0.007566 0.000000 0.000000 0.000000
# 2 -0.005505 0.006322 -0.003963 0.000000 0.000000 0.000000
# 3 0.007566 -0.003963 0.040439 0.000000 0.000000 0.000000
# 4 0.000000 0.000000 0.000000 0.153838 0.000000 0.000000
# 5 0.000000 0.000000 0.000000 0.000000 0.046860 0.000000
# 6 0.000000 0.000000 0.000000 0.000000 0.000000 0.066121
#
#
# Mechanical properties :
#
#
# Convention : Reuss Voigt Hill
#
# Bulk Modulus (GPa) = 16.66479 52.34013 34.50246
# Shear Modulus (GPa) = 14.10691 26.40605 20.25648
#
# Velocity S-wave (km/s) = 2.73384 3.74032 3.27596
# Velocity P-wave (km/s) = 4.33523 6.81052 5.70865
#
# Compressibility (1/GPa) = 0.06000676
#
# Stress axis : x y z
#
# Youngs Moduli (GPa) = 58.65299 158.18264 24.72830
#
# Poissons Ratio (x) = 0.87086 -0.18711
# Poissons Ratio (y) = 0.32291 0.09800
# Poissons Ratio (z) = -0.44380 0.62688
#
# Static dielectric constant tensor:
#      x y z
#    x 1.680000 0.000000 0.000000 
#    y 0.000000 1.769060 0.000000 
#    z 0.000000 0.000000 1.692900 
# 
# From -- ./inp_files/7754.got.cif
#   From: 2010.05.17/outbox.cif.g08.bks.cpg/sg65_4_cif.got.tgz:7754.got - 2010.06.03 17:01:31.
