data_PCOD9488919
_publ_section_title
;
Structure prediction by ZEFSAII (Michael W. Deem and Ramdas Pophale) SiO2 
 PCOD9488919
Probable space group: C M M M
;
_chemical_formula_sum "Si O2"
_cell_formula_units_Z 80
_cell_length_a 27.493907
_cell_length_b 13.766399
_cell_length_c 10.752253
_cell_angle_alpha 90.000000
_cell_angle_beta 90.000000
_cell_angle_gamma 90.000000
_cell_volume 4069.642751
_symmetry_space_group_name_H-M "C M M M"
_symmetry_group_IT_number 65
_symmetry_cell_setting 'orthorhombic'
loop_
_space_group_symop_operation_xyz
x,y,z
-x,-y,z
x,-y,-z
-x,y,-z
-x,-y,-z
x,y,-z
-x,y,z
x,-y,z
1/2+x,1/2+y,z
1/2-x,1/2-y,z
1/2+x,1/2-y,-z
1/2-x,1/2+y,-z
1/2-x,1/2-y,-z
1/2+x,1/2+y,-z
1/2-x,1/2+y,z
1/2+x,1/2-y,z
loop_
_atom_site_type_symbol
_atom_site_label
_atom_site_fract_x
_atom_site_fract_y
_atom_site_fract_z
Si Si1 0.753367 0.386837 0.862136
Si Si2 0.080518 0.893949 0.353449
Si Si3 0.945720 0.320735 0.651045
Si Si4 0.311299 0.317483 0.635742
Si Si5 0.156322 0.391107 0.708534
O O1 0.740345 0.500000 0.857763
O O2 0.723683 0.339014 0.750200
O O3 0.810966 0.381732 0.832570
O O4 0.741580 0.351387 0.000000
O O5 0.067999 0.897539 0.500000
O O6 0.057741 0.792760 0.308513
O O7 0.138627 0.876769 0.346252
O O8 0.067631 0.000000 0.299781
O O9 0.937870 0.324486 0.500000
O O10 0.901575 0.377493 0.714842
O O11 0.000000 0.357358 0.675282
O O12 0.290496 0.343410 0.500000
O O13 0.326159 0.204049 0.634395
O O14 0.166642 0.500000 0.659003
#
# Coordination Sequence:
#
# PCOD9488919 Si02
#       5
#    16  16  16  16  16
#     4  10  22  39  58  81 109 141 177 218 267 323
#     4   8  14  26  45  71 104 138 170 209 261 319
#     4   9  18  31  47  71 102 135 175 222 269 316
#     4  10  20  33  52  80 112 145 181 219 260 312
#     4  10  21  35  51  73 105 144 184 225 269 316
#
# _framework density 19.657744999999998
#
# number of rings (size 3 to 8) (size 9 to 14) (size 15 to 20)
#    0.000    2.600    0.000    3.000    0.000    7.600 
#    0.000    7.000    0.000    0.600    0.000    2.800 
#    0.000    0.000    0.000   21.200    0.000   16.000 
#
# Total GULP energy -222794.266300 kJ/mol
# GULP energy per Si atom -5569.856658 kJ/mol
# Density = 1.961300 g / cm^3
# Si number density = 19.657745 Si / 1000 Ang^3
#
#
#
# Elastic Constant Matrix: (Units=GPa)
#
#
# Indices 1 2 3 4 5 6 
#
# 1 108.9268 11.6030 50.6235 0.0000 0.0000 0.0000
# 2 11.6030 109.8925 21.3116 0.0000 0.0000 0.0000
# 3 50.6235 21.3116 97.2497 0.0000 0.0000 0.0000
# 4 0.0000 0.0000 0.0000 24.5204 0.0000 0.0000
# 5 0.0000 0.0000 0.0000 0.0000 32.3873 0.0000
# 6 0.0000 0.0000 0.0000 0.0000 0.0000 9.3078
#
#
#
# Elastic Compliance Matrix: (Units=1/GPa)
#
#
# Indices 1 2 3 4 5 6 
#
# 1 0.012111 -0.000059 -0.006291 0.000000 0.000000 0.000000
# 2 -0.000059 0.009504 -0.002052 0.000000 0.000000 0.000000
# 3 -0.006291 -0.002052 0.014008 0.000000 0.000000 0.000000
# 4 0.000000 0.000000 0.000000 0.040782 0.000000 0.000000
# 5 0.000000 0.000000 0.000000 0.000000 0.030876 0.000000
# 6 0.000000 0.000000 0.000000 0.000000 0.000000 0.107437
#
#
# Mechanical properties :
#
#
# Convention : Reuss Voigt Hill
#
# Bulk Modulus (GPa) = 53.14136 53.68280 53.41208
# Shear Modulus (GPa) = 21.02654 28.74517 24.88585
#
# Velocity S-wave (km/s) = 3.27407 3.82813 3.56189
# Velocity P-wave (km/s) = 6.43309 6.84890 6.64425
#
# Compressibility (1/GPa) = 0.01881773
#
# Stress axis : x y z
#
# Youngs Moduli (GPa) = 82.57216 105.21904 71.39025
#
# Poissons Ratio (x) = 0.00617 0.44914
# Poissons Ratio (y) = 0.00484 0.14651
# Poissons Ratio (z) = 0.51949 0.21593
#
# Static dielectric constant tensor:
#      x y z
#    x 1.726330 0.000000 0.000000 
#    y 0.000000 1.755270 0.000000 
#    z 0.000000 0.000000 1.669920 
# 
# From -- ./inp_files/32120.got.cif
#   From: 2010.05.17/outbox.cif.g08.bks.cpg/sg65_17_cif.got.tgz:32120.got - 2010.06.03 17:01:31.
