data_PCOD9488184
_publ_section_title
;
Structure prediction by ZEFSAII (Michael W. Deem and Ramdas Pophale) SiO2 
 PCOD9488184
Probable space group: C M M M
;
_chemical_formula_sum "Si O2"
_cell_formula_units_Z 72
_cell_length_a 9.807365
_cell_length_b 32.785957
_cell_length_c 13.928702
_cell_angle_alpha 90.000000
_cell_angle_beta 90.000000
_cell_angle_gamma 90.000000
_cell_volume 4478.688427
_symmetry_space_group_name_H-M "C M M M"
_symmetry_group_IT_number 65
_symmetry_cell_setting 'orthorhombic'
loop_
_space_group_symop_operation_xyz
x,y,z
-x,-y,z
x,-y,-z
-x,y,-z
-x,-y,-z
x,y,-z
-x,y,z
x,-y,z
1/2+x,1/2+y,z
1/2-x,1/2-y,z
1/2+x,1/2-y,-z
1/2-x,1/2+y,-z
1/2-x,1/2-y,-z
1/2+x,1/2+y,-z
1/2-x,1/2+y,z
1/2+x,1/2-y,z
loop_
_atom_site_type_symbol
_atom_site_label
_atom_site_fract_x
_atom_site_fract_y
_atom_site_fract_z
Si Si1 0.500000 0.685304 0.116508
Si Si2 0.500000 0.221844 0.884043
Si Si3 0.710555 0.152806 0.115735
Si Si4 0.156380 0.950835 0.387164
Si Si5 0.160711 0.000000 0.115156
Si Si6 0.157347 0.431535 0.783581
O O1 0.500000 0.732002 0.152470
O O2 0.365826 0.660952 0.143255
O O3 0.500000 0.687657 0.000000
O O4 0.371340 0.193856 0.858566
O O5 0.500000 0.224940 0.000000
O O6 0.657966 0.112728 0.167678
O O7 0.698628 0.147526 0.000000
O O8 0.174808 0.942094 0.500000
O O9 0.269695 0.930907 0.319959
O O10 0.000000 0.939600 0.360843
O O11 0.167237 0.000000 0.375167
O O12 0.244446 0.038700 0.154950
O O13 0.000000 0.000000 0.144898
O O14 0.163204 0.000000 0.000000
O O15 0.000000 0.446009 0.778765
#
# Coordination Sequence:
#
# PCOD9488184 Si02
#       6
#     8   8  16  16   8  16
#     4   9  18  30  50  73  96 135 182 217 252 299
#     4   9  16  32  50  69 100 137 174 213 260 305
#     4  10  20  32  48  73 106 142 175 213 253 297
#     4   9  19  37  59  78  98 128 168 216 267 311
#     4  11  25  39  52  69  98 145 189 220 244 291
#     4  12  23  35  52  77 107 138 173 212 262 308
#
# _framework density 16.076135000000001
#
# number of rings (size 3 to 8) (size 9 to 14) (size 15 to 20)
#    0.000    1.889    2.222    3.000    3.111    4.889 
#    0.000    1.111    0.000    0.000    0.000    0.000 
#    0.000    5.333    0.000    0.000    0.000    0.000 
#
# Total GULP energy -200750.819385 kJ/mol
# GULP energy per Si atom -5576.411650 kJ/mol
# Density = 1.603955 g / cm^3
# Si number density = 16.076135 Si / 1000 Ang^3
#
#
#
# Elastic Constant Matrix: (Units=GPa)
#
#
# Indices 1 2 3 4 5 6 
#
# 1 146.7294 30.9218 41.0024 0.0000 0.0000 0.0000
# 2 30.9218 62.8753 19.2830 0.0000 0.0000 0.0000
# 3 41.0024 19.2830 58.4505 0.0000 0.0000 0.0000
# 4 0.0000 0.0000 0.0000 2.3446 0.0000 0.0000
# 5 0.0000 0.0000 0.0000 0.0000 18.3314 0.0000
# 6 0.0000 0.0000 0.0000 0.0000 0.0000 11.3883
#
#
#
# Elastic Compliance Matrix: (Units=1/GPa)
#
#
# Indices 1 2 3 4 5 6 
#
# 1 0.008880 -0.002733 -0.005328 0.000000 0.000000 0.000000
# 2 -0.002733 0.018536 -0.004198 0.000000 0.000000 0.000000
# 3 -0.005328 -0.004198 0.022231 0.000000 0.000000 0.000000
# 4 0.000000 0.000000 0.000000 0.426507 0.000000 0.000000
# 5 0.000000 0.000000 0.000000 0.000000 0.054551 0.000000
# 6 0.000000 0.000000 0.000000 0.000000 0.000000 0.087809
#
#
# Mechanical properties :
#
#
# Convention : Reuss Voigt Hill
#
# Bulk Modulus (GPa) = 39.79374 50.05217 44.92295
# Shear Modulus (GPa) = 7.67568 18.20274 12.93921
#
# Velocity S-wave (km/s) = 2.18745 3.36859 2.84010
# Velocity P-wave (km/s) = 5.58453 6.80676 6.22571
#
# Compressibility (1/GPa) = 0.02512958
#
# Stress axis : x y z
#
# Youngs Moduli (GPa) = 112.61239 53.94876 44.98318
#
# Poissons Ratio (x) = 0.14746 0.23965
# Poissons Ratio (y) = 0.30780 0.18883
# Poissons Ratio (z) = 0.59994 0.22646
#
# Static dielectric constant tensor:
#      x y z
#    x 1.578100 0.000000 0.000000 
#    y 0.000000 1.522910 0.000000 
#    z 0.000000 0.000000 1.527440 
# 
# From -- ./inp_files/37045.got.cif
#   From: 2010.05.17/outbox.cif.g08.bks.cpg/sg65_19_cif.got.tgz:37045.got - 2010.06.03 17:01:31.
