data_PCOD9488642
_publ_section_title
;
Structure prediction by ZEFSAII (Michael W. Deem and Ramdas Pophale) SiO2 
 PCOD9488642
Probable space group: C M M M
;
_chemical_formula_sum "Si O2"
_cell_formula_units_Z 88
_cell_length_a 14.850084
_cell_length_b 8.777439
_cell_length_c 30.260059
_cell_angle_alpha 90.000000
_cell_angle_beta 90.000000
_cell_angle_gamma 90.000000
_cell_volume 3944.268768
_symmetry_space_group_name_H-M "C M M M"
_symmetry_group_IT_number 65
_symmetry_cell_setting 'orthorhombic'
loop_
_space_group_symop_operation_xyz
x,y,z
-x,-y,z
x,-y,-z
-x,y,-z
-x,-y,-z
x,y,-z
-x,y,z
x,-y,z
1/2+x,1/2+y,z
1/2-x,1/2-y,z
1/2+x,1/2-y,-z
1/2-x,1/2+y,-z
1/2-x,1/2-y,-z
1/2+x,1/2+y,-z
1/2-x,1/2+y,z
1/2+x,1/2-y,z
loop_
_atom_site_type_symbol
_atom_site_label
_atom_site_fract_x
_atom_site_fract_y
_atom_site_fract_z
Si Si1 0.650519 0.679685 0.771983
Si Si2 0.393513 0.832654 0.862884
Si Si3 0.103611 0.672037 0.584715
Si Si4 0.109973 0.177308 0.048261
Si Si5 0.651788 0.176333 0.685017
Si Si6 0.393715 0.500000 0.447316
O O1 0.651461 0.500000 0.769698
O O2 0.750000 0.750000 0.770351
O O3 0.614941 0.731972 0.819300
O O4 0.606474 0.743777 0.727133
O O5 0.500000 0.847762 0.870176
O O6 0.356944 0.763533 0.908351
O O7 0.353944 0.000000 0.854136
O O8 0.141310 0.500000 0.574058
O O9 0.103718 0.683735 0.637935
O O10 0.144084 0.834728 0.568595
O O11 0.000000 0.669704 0.568359
O O12 0.000000 0.180594 0.048748
O O13 0.135607 0.000000 0.050951
O O14 0.137529 0.238928 0.000000
O O15 0.750000 0.250000 0.677762
O O16 0.663398 0.000000 0.696811
O O17 0.500000 0.500000 0.433214
O O18 0.389758 0.500000 0.500000
#
# Coordination Sequence:
#
# PCOD9488642 Si02
#       6
#    16  16  16  16  16   8
#     4  11  22  36  54  74 101 135 174 213 255 313
#     4  10  20  33  50  74 104 135 168 210 258 304
#     4   9  19  34  53  80 110 140 177 221 264 308
#     4   8  14  26  45  69  97 128 164 206 250 301
#     4  10  20  34  54  78 102 136 174 211 258 309
#     4   9  18  32  54  82 110 142 177 217 264 314
#
# _framework density 22.310853000000002
#
# number of rings (size 3 to 8) (size 9 to 14) (size 15 to 20)
#    0.000    2.455    0.000    4.364    2.545    2.545 
#    0.000    5.455    0.000    1.091    0.000    0.000 
#    0.000    0.000    0.000    0.000    0.000    0.000 
#
# Total GULP energy -245388.465544 kJ/mol
# GULP energy per Si atom -5577.010581 kJ/mol
# Density = 2.226007 g / cm^3
# Si number density = 22.310853 Si / 1000 Ang^3
#
#
#
# Elastic Constant Matrix: (Units=GPa)
#
#
# Indices 1 2 3 4 5 6 
#
# 1 41.5055 10.6635 -3.5362 0.0000 0.0000 0.0000
# 2 10.6635 219.2077 77.6051 0.0000 0.0000 0.0000
# 3 -3.5362 77.6051 92.9867 0.0000 0.0000 0.0000
# 4 0.0000 0.0000 0.0000 36.6984 0.0000 0.0000
# 5 0.0000 0.0000 0.0000 0.0000 24.7104 0.0000
# 6 0.0000 0.0000 0.0000 0.0000 0.0000 13.8641
#
#
#
# Elastic Compliance Matrix: (Units=1/GPa)
#
#
# Indices 1 2 3 4 5 6 
#
# 1 0.024894 -0.002195 0.002778 0.000000 0.000000 0.000000
# 2 -0.002195 0.006668 -0.005649 0.000000 0.000000 0.000000
# 3 0.002778 -0.005649 0.015574 0.000000 0.000000 0.000000
# 4 0.000000 0.000000 0.000000 0.027249 0.000000 0.000000
# 5 0.000000 0.000000 0.000000 0.000000 0.040469 0.000000
# 6 0.000000 0.000000 0.000000 0.000000 0.000000 0.072129
#
#
# Mechanical properties :
#
#
# Convention : Reuss Voigt Hill
#
# Bulk Modulus (GPa) = 27.02253 58.12942 42.57597
# Shear Modulus (GPa) = 23.87217 32.98574 28.42896
#
# Velocity S-wave (km/s) = 3.27460 3.84925 3.57350
# Velocity P-wave (km/s) = 5.14155 6.77248 6.01257
#
# Compressibility (1/GPa) = 0.03700615
#
# Stress axis : x y z
#
# Youngs Moduli (GPa) = 40.17076 149.95926 64.20826
#
# Poissons Ratio (x) = 0.32909 -0.17838
# Poissons Ratio (y) = 0.08816 0.36270
# Poissons Ratio (z) = -0.11160 0.84710
#
# Static dielectric constant tensor:
#      x y z
#    x 1.880380 0.000000 0.000000 
#    y 0.000000 1.829390 0.000000 
#    z 0.000000 0.000000 1.832200 
# 
# From -- ./inp_files/71011.got.cif
#   From: 2010.05.17/outbox.cif.g08.bks.cpg/sg65_36_cif.got.tgz:71011.got - 2010.06.03 17:01:31.
