data_PCOD9488554
_publ_section_title
;
Structure prediction by ZEFSAII (Michael W. Deem and Ramdas Pophale) SiO2 
 PCOD9488554
Probable space group: C M M M
;
_chemical_formula_sum "Si O2"
_cell_formula_units_Z 88
_cell_length_a 17.415208
_cell_length_b 9.234952
_cell_length_c 29.749634
_cell_angle_alpha 90.000000
_cell_angle_beta 90.000000
_cell_angle_gamma 90.000000
_cell_volume 4784.592283
_symmetry_space_group_name_H-M "C M M M"
_symmetry_group_IT_number 65
_symmetry_cell_setting 'orthorhombic'
loop_
_space_group_symop_operation_xyz
x,y,z
-x,-y,z
x,-y,-z
-x,y,-z
-x,-y,-z
x,y,-z
-x,y,z
x,-y,z
1/2+x,1/2+y,z
1/2-x,1/2-y,z
1/2+x,1/2-y,-z
1/2-x,1/2+y,-z
1/2-x,1/2-y,-z
1/2+x,1/2+y,-z
1/2-x,1/2+y,z
1/2+x,1/2-y,z
loop_
_atom_site_type_symbol
_atom_site_label
_atom_site_fract_x
_atom_site_fract_y
_atom_site_fract_z
Si Si1 0.906385 0.331140 0.811345
Si Si2 0.093948 0.833267 0.000000
Si Si3 0.907626 0.835073 0.276926
Si Si4 0.910772 0.324269 0.549419
Si Si5 0.331333 0.174483 0.641864
Si Si6 0.093380 0.331037 0.088904
O O1 0.885037 0.500000 0.805215
O O2 0.879462 0.233806 0.769994
O O3 0.881555 0.282273 0.861268
O O4 0.000000 0.327450 0.811183
O O5 0.120698 0.756665 0.954277
O O6 0.000000 0.825765 0.000000
O O7 0.115870 0.000000 0.000000
O O8 0.884181 0.734199 0.318271
O O9 0.000000 0.839371 0.274882
O O10 0.879698 0.000000 0.282922
O O11 0.882772 0.275697 0.500000
O O12 0.909713 0.500000 0.549106
O O13 0.864122 0.279312 0.593117
O O14 0.000000 0.280931 0.553860
O O15 0.250000 0.250000 0.648168
O O16 0.326835 0.000000 0.643317
O O17 0.113050 0.500000 0.084073
O O18 0.000000 0.322785 0.088850
#
# Coordination Sequence:
#
# PCOD9488554 Si02
#       6
#    16   8  16  16  16  16
#     4   8  14  25  41  60  81 109 149 194 238 286
#     4   9  15  19  25  41  67 101 140 181 226 277
#     4  10  20  33  50  72  97 125 160 204 250 296
#     4   8  15  30  53  79 103 129 165 205 242 284
#     4  11  22  35  52  74 102 135 168 203 245 292
#     4   8  13  21  32  46  68 101 141 183 226 276
#
# _framework density 18.392371000000001
#
# number of rings (size 3 to 8) (size 9 to 14) (size 15 to 20)
#    0.000    3.000    0.000    3.545    0.000    4.000 
#    0.000    3.636    0.000    1.636    0.000    6.364 
#    0.000    0.000    0.000    0.818    0.000   11.636 
#
# Total GULP energy -245104.980878 kJ/mol
# GULP energy per Si atom -5570.567747 kJ/mol
# Density = 1.835051 g / cm^3
# Si number density = 18.392371 Si / 1000 Ang^3
#
#
#
# Elastic Constant Matrix: (Units=GPa)
#
#
# Indices 1 2 3 4 5 6 
#
# 1 7.3762 11.6935 14.9569 0.0000 0.0000 0.0000
# 2 11.6935 74.2146 68.7887 0.0000 0.0000 0.0000
# 3 14.9569 68.7887 163.2631 0.0000 0.0000 0.0000
# 4 0.0000 0.0000 0.0000 3.2276 0.0000 0.0000
# 5 0.0000 0.0000 0.0000 0.0000 -8.7717 0.0000
# 6 0.0000 0.0000 0.0000 0.0000 0.0000 9.6651
#
#
#
# Elastic Compliance Matrix: (Units=1/GPa)
#
#
# Indices 1 2 3 4 5 6 
#
# 1 0.186453 -0.022225 -0.007717 0.000000 0.000000 0.000000
# 2 -0.022225 0.024758 -0.008395 0.000000 0.000000 0.000000
# 3 -0.007717 -0.008395 0.010369 0.000000 0.000000 0.000000
# 4 0.000000 0.000000 0.000000 0.309828 0.000000 0.000000
# 5 0.000000 0.000000 0.000000 0.000000 -0.114002 0.000000
# 6 0.000000 0.000000 0.000000 0.000000 0.000000 0.103465
#
#
# Mechanical properties :
#
#
# Convention : Reuss Voigt Hill
#
# Bulk Modulus (GPa) = 6.90109 48.41468 27.65789
# Shear Modulus (GPa) = 7.74178 10.78519 9.26349
#
# Velocity S-wave (km/s) = 2.05387 2.42419 2.24667
# Velocity P-wave (km/s) = 3.06346 5.84944 4.66909
#
# Compressibility (1/GPa) = 0.14490468
#
# Stress axis : x y z
#
# Youngs Moduli (GPa) = 5.36329 40.39128 96.43871
#
# Poissons Ratio (x) = 0.89771 0.74421
# Poissons Ratio (y) = 0.11920 0.80963
# Poissons Ratio (z) = 0.04139 0.33910
#
# Static dielectric constant tensor:
#      x y z
#    x 1.632850 0.000000 0.000000 
#    y 0.000000 1.615310 0.000000 
#    z 0.000000 0.000000 1.649920 
# 
# From -- ./inp_files/77883.got.cif
#   From: 2010.05.17/outbox.cif.g08.bks.cpg/sg65_39_cif.got.tgz:77883.got - 2010.06.03 17:01:31.
