data_PCOD9488758
_publ_section_title
;
Structure prediction by ZEFSAII (Michael W. Deem and Ramdas Pophale) SiO2 
 PCOD9488758
Probable space group: C M M M
;
_chemical_formula_sum "Si O2"
_cell_formula_units_Z 104
_cell_length_a 15.343514
_cell_length_b 18.178278
_cell_length_c 21.427926
_cell_angle_alpha 90.000000
_cell_angle_beta 90.000000
_cell_angle_gamma 90.000000
_cell_volume 5976.648471
_symmetry_space_group_name_H-M "C M M M"
_symmetry_group_IT_number 65
_symmetry_cell_setting 'orthorhombic'
loop_
_space_group_symop_operation_xyz
x,y,z
-x,-y,z
x,-y,-z
-x,y,-z
-x,-y,-z
x,y,-z
-x,y,z
x,-y,z
1/2+x,1/2+y,z
1/2-x,1/2-y,z
1/2+x,1/2-y,-z
1/2-x,1/2+y,-z
1/2-x,1/2-y,-z
1/2+x,1/2+y,-z
1/2-x,1/2+y,z
1/2+x,1/2-y,z
loop_
_atom_site_type_symbol
_atom_site_label
_atom_site_fract_x
_atom_site_fract_y
_atom_site_fract_z
Si Si1 0.902132 0.000000 0.575162
Si Si2 0.604355 0.660025 0.569994
Si Si3 0.100699 0.081598 0.108521
Si Si4 0.731466 0.416052 0.774707
Si Si5 0.403636 0.179627 0.803298
Si Si6 0.343143 0.288260 0.698929
Si Si7 0.854591 0.241881 0.931778
O O1 0.859490 0.078726 0.587438
O O2 0.911361 0.000000 0.500000
O O3 0.000000 0.000000 0.603515
O O4 0.634799 0.681402 0.500000
O O5 0.500000 0.651520 0.565590
O O6 0.621708 0.711380 0.628781
O O7 0.170035 0.083855 0.164419
O O8 0.119600 0.155878 0.070857
O O9 0.000000 0.086098 0.130424
O O10 0.109753 0.000000 0.078355
O O11 0.747118 0.500000 0.755509
O O12 0.822343 0.374779 0.790564
O O13 0.676803 0.369534 0.724547
O O14 0.500000 0.145418 0.799656
O O15 0.396945 0.243409 0.750667
O O16 0.392204 0.217082 0.871268
O O17 0.250000 0.250000 0.697472
O O18 0.750000 0.250000 0.927140
O O19 0.881565 0.271385 0.000000
#
# Coordination Sequence:
#
# PCOD9488758 Si02
#       7
#     8  16  16  16  16  16  16
#     4   7  12  24  40  62  94 126 158 194 232 287
#     4   9  17  29  46  71 103 137 171 205 249 308
#     4  10  20  35  55  78 105 136 170 211 258 312
#     4  10  21  37  54  77 107 137 176 221 263 314
#     4  11  21  37  58  78 104 137 179 224 266 316
#     4  10  20  33  51  76 104 134 171 217 266 312
#     4  11  21  36  56  80 110 142 176 216 266 321
#
# _framework density 17.401057000000002
#
# number of rings (size 3 to 8) (size 9 to 14) (size 15 to 20)
#    0.000    2.077    3.077    2.308    1.077    2.769 
#    0.000    0.769    0.000    0.462    0.000    1.077 
#    0.000    0.000    0.000   16.308    0.000    0.000 
#
# Total GULP energy -289471.943435 kJ/mol
# GULP energy per Si atom -5566.768143 kJ/mol
# Density = 1.736145 g / cm^3
# Si number density = 17.401057 Si / 1000 Ang^3
#
#
#
# Elastic Constant Matrix: (Units=GPa)
#
#
# Indices 1 2 3 4 5 6 
#
# 1 86.0815 19.1224 17.7586 0.0000 0.0000 0.0000
# 2 19.1224 71.6319 16.6222 0.0000 0.0000 0.0000
# 3 17.7586 16.6222 100.4137 0.0000 0.0000 0.0000
# 4 0.0000 0.0000 0.0000 18.8813 0.0000 0.0000
# 5 0.0000 0.0000 0.0000 0.0000 54.8608 0.0000
# 6 0.0000 0.0000 0.0000 0.0000 0.0000 10.0554
#
#
#
# Elastic Compliance Matrix: (Units=1/GPa)
#
#
# Indices 1 2 3 4 5 6 
#
# 1 0.012636 -0.002969 -0.001743 0.000000 0.000000 0.000000
# 2 -0.002969 0.015215 -0.001994 0.000000 0.000000 0.000000
# 3 -0.001743 -0.001994 0.010597 0.000000 0.000000 0.000000
# 4 0.000000 0.000000 0.000000 0.052962 0.000000 0.000000
# 5 0.000000 0.000000 0.000000 0.000000 0.018228 0.000000
# 6 0.000000 0.000000 0.000000 0.000000 0.000000 0.099449
#
#
# Mechanical properties :
#
#
# Convention : Reuss Voigt Hill
#
# Bulk Modulus (GPa) = 39.94059 40.57037 40.25548
# Shear Modulus (GPa) = 21.65959 30.40111 26.03035
#
# Velocity S-wave (km/s) = 3.53190 4.18435 3.87189
# Velocity P-wave (km/s) = 6.29565 6.83451 6.57061
#
# Compressibility (1/GPa) = 0.02503719
#
# Stress axis : x y z
#
# Youngs Moduli (GPa) = 79.13883 65.72284 94.36506
#
# Poissons Ratio (x) = 0.19511 0.16451
# Poissons Ratio (y) = 0.23494 0.18813
# Poissons Ratio (z) = 0.13796 0.13103
#
# Static dielectric constant tensor:
#      x y z
#    x 1.592400 0.000000 0.000000 
#    y 0.000000 1.624640 0.000000 
#    z 0.000000 0.000000 1.615030 
# 
# From -- ./inp_files/62867.got.cif
#   From: 2010.05.17/outbox.cif.g08.bks.cpg/sg65_32_cif.got.tgz:62867.got - 2010.06.03 17:01:31.
