data_PCOD9488518
_publ_section_title
;
Structure prediction by ZEFSAII (Michael W. Deem and Ramdas Pophale) SiO2 
 PCOD9488518
Probable space group: C M M M
;
_chemical_formula_sum "Si O2"
_cell_formula_units_Z 88
_cell_length_a 9.192885
_cell_length_b 18.772411
_cell_length_c 29.307864
_cell_angle_alpha 90.000000
_cell_angle_beta 90.000000
_cell_angle_gamma 90.000000
_cell_volume 5057.734745
_symmetry_space_group_name_H-M "C M M M"
_symmetry_group_IT_number 65
_symmetry_cell_setting 'orthorhombic'
loop_
_space_group_symop_operation_xyz
x,y,z
-x,-y,z
x,-y,-z
-x,y,-z
-x,-y,-z
x,y,-z
-x,y,z
x,-y,z
1/2+x,1/2+y,z
1/2-x,1/2-y,z
1/2+x,1/2-y,-z
1/2-x,1/2+y,-z
1/2-x,1/2-y,-z
1/2+x,1/2+y,-z
1/2-x,1/2+y,z
1/2+x,1/2-y,z
loop_
_atom_site_type_symbol
_atom_site_label
_atom_site_fract_x
_atom_site_fract_y
_atom_site_fract_z
Si Si1 0.326095 0.416272 0.315809
Si Si2 0.822899 0.081236 0.861981
Si Si3 0.325061 0.673871 0.051872
Si Si4 0.332316 0.413006 0.500000
Si Si5 0.332626 0.086794 0.591431
Si Si6 0.675609 0.673459 0.774100
O O1 0.500000 0.411486 0.322845
O O2 0.292424 0.500000 0.307744
O O3 0.245419 0.392076 0.361678
O O4 0.287311 0.370164 0.271681
O O5 0.778978 0.118933 0.909090
O O6 0.779170 0.128147 0.818495
O O7 0.000000 0.079400 0.861640
O O8 0.771735 0.000000 0.858698
O O9 0.500000 0.682457 0.054866
O O10 0.250000 0.750000 0.059414
O O11 0.291159 0.650469 0.000000
O O12 0.330006 0.500000 0.500000
O O13 0.500000 0.390986 0.500000
O O14 0.251328 0.389611 0.546010
O O15 0.500000 0.109493 0.590475
O O16 0.330296 0.000000 0.590889
O O17 0.500000 0.681094 0.775403
O O18 0.750000 0.750000 0.774321
#
# Coordination Sequence:
#
# PCOD9488518 Si02
#       6
#    16  16  16   8  16  16
#     4   9  17  30  47  66  89 119 156 194 233 280
#     4   9  17  30  49  72  96 123 159 202 243 283
#     4   9  17  29  47  71  98 129 163 199 240 286
#     4   9  15  23  37  59  90 127 162 193 228 275
#     4   9  16  25  39  62  92 123 154 192 238 281
#     4  10  20  33  50  70  92 121 156 195 239 287
#
# _framework density 17.399094000000002
#
# number of rings (size 3 to 8) (size 9 to 14) (size 15 to 20)
#    0.000    2.818    0.000    1.909    0.000    6.545 
#    0.000    1.818    0.000    3.273    0.000    3.182 
#    0.000    0.000    0.000    0.000    0.000    0.000 
#
# Total GULP energy -245286.021653 kJ/mol
# GULP energy per Si atom -5574.682310 kJ/mol
# Density = 1.735949 g / cm^3
# Si number density = 17.399094 Si / 1000 Ang^3
#
#
#
# Elastic Constant Matrix: (Units=GPa)
#
#
# Indices 1 2 3 4 5 6 
#
# 1 42.6862 40.1621 66.8833 0.0000 0.0000 0.0000
# 2 40.1621 94.3753 98.5071 0.0000 0.0000 0.0000
# 3 66.8833 98.5071 201.6573 0.0000 0.0000 0.0000
# 4 0.0000 0.0000 0.0000 -7.0263 0.0000 0.0000
# 5 0.0000 0.0000 0.0000 0.0000 8.6417 0.0000
# 6 0.0000 0.0000 0.0000 0.0000 0.0000 21.1436
#
#
#
# Elastic Compliance Matrix: (Units=1/GPa)
#
#
# Indices 1 2 3 4 5 6 
#
# 1 0.051840 -0.008395 -0.013093 0.000000 0.000000 0.000000
# 2 -0.008395 0.022978 -0.008440 0.000000 0.000000 0.000000
# 3 -0.013093 -0.008440 0.013424 0.000000 0.000000 0.000000
# 4 0.000000 0.000000 0.000000 -0.142322 0.000000 0.000000
# 5 0.000000 0.000000 0.000000 0.000000 0.115718 0.000000
# 6 0.000000 0.000000 0.000000 0.000000 0.000000 0.047296
#
#
# Mechanical properties :
#
#
# Convention : Reuss Voigt Hill
#
# Bulk Modulus (GPa) = 35.22784 83.31374 59.27079
# Shear Modulus (GPa) = 28.05011 13.42956 20.73983
#
# Velocity S-wave (km/s) = 4.01953 2.78124 3.45629
# Velocity P-wave (km/s) = 6.46784 7.63555 7.07583
#
# Compressibility (1/GPa) = 0.02838664
#
# Stress axis : x y z
#
# Youngs Moduli (GPa) = 19.29019 43.51937 74.49109
#
# Poissons Ratio (x) = 0.36533 0.97531
# Poissons Ratio (y) = 0.16193 0.62873
# Poissons Ratio (z) = 0.25257 0.36732
#
# Static dielectric constant tensor:
#      x y z
#    x 1.582270 0.000000 0.000000 
#    y 0.000000 1.564840 0.000000 
#    z 0.000000 0.000000 1.586740 
# 
# From -- ./inp_files/76580.got.cif
#   From: 2010.05.17/outbox.cif.g08.bks.cpg/sg65_39_cif.got.tgz:76580.got - 2010.06.03 17:01:31.
