data_PCOD9488458
_publ_section_title
;
Structure prediction by ZEFSAII (Michael W. Deem and Ramdas Pophale) SiO2 
 PCOD9488458
Probable space group: C M M M
;
_chemical_formula_sum "Si O2"
_cell_formula_units_Z 120
_cell_length_a 8.791611
_cell_length_b 27.692850
_cell_length_c 28.554810
_cell_angle_alpha 90.000000
_cell_angle_beta 90.000000
_cell_angle_gamma 90.000000
_cell_volume 6952.090097
_symmetry_space_group_name_H-M "C M M M"
_symmetry_group_IT_number 65
_symmetry_cell_setting 'orthorhombic'
loop_
_space_group_symop_operation_xyz
x,y,z
-x,-y,z
x,-y,-z
-x,y,-z
-x,-y,-z
x,y,-z
-x,y,z
x,-y,z
1/2+x,1/2+y,z
1/2-x,1/2-y,z
1/2+x,1/2-y,-z
1/2-x,1/2+y,-z
1/2-x,1/2-y,-z
1/2+x,1/2+y,-z
1/2-x,1/2+y,z
1/2+x,1/2-y,z
loop_
_atom_site_type_symbol
_atom_site_label
_atom_site_fract_x
_atom_site_fract_y
_atom_site_fract_z
Si Si1 0.818460 0.356807 0.140155
Si Si2 0.314290 0.500000 0.554178
Si Si3 0.183191 0.801751 0.555202
Si Si4 0.685575 0.598571 0.605405
Si Si5 0.683170 0.609061 0.287866
Si Si6 0.816835 0.055005 0.806001
Si Si7 0.681817 0.696967 0.053675
Si Si8 0.181573 0.697955 0.765296
O O1 0.759864 0.408295 0.158122
O O2 0.745385 0.339486 0.092034
O O3 0.775180 0.320339 0.182509
O O4 0.000000 0.356783 0.136078
O O5 0.500000 0.500000 0.555800
O O6 0.269021 0.500000 0.500000
O O7 0.264492 0.450082 0.578758
O O8 0.221691 0.807228 0.500000
O O9 0.250000 0.750000 0.571280
O O10 0.233838 0.850283 0.582394
O O11 0.000000 0.799054 0.558954
O O12 0.500000 0.598743 0.603542
O O13 0.731349 0.596090 0.659773
O O14 0.500000 0.613179 0.288002
O O15 0.723941 0.571205 0.246965
O O16 0.753509 0.659314 0.271068
O O17 0.000000 0.059188 0.810027
O O18 0.772856 0.000000 0.814186
O O19 0.500000 0.699534 0.057054
O O20 0.750000 0.750000 0.063032
O O21 0.722399 0.683994 0.000000
O O22 0.250000 0.750000 0.756600
O O23 0.000000 0.698954 0.762672
#
# Coordination Sequence:
#
# PCOD9488458 Si02
#       8
#    16   8  16  16  16  16  16  16
#     4  10  20  33  51  75 101 133 172 212 254 299
#     4   9  16  26  44  72 103 131 157 197 252 301
#     4   9  17  30  47  67  92 123 159 198 240 288
#     4   9  17  28  45  70  99 127 158 198 246 299
#     4   9  18  31  47  70  98 127 161 200 246 296
#     4   9  18  32  51  72  96 128 166 209 255 304
#     4  10  20  33  51  77 109 142 173 207 249 297
#     4  10  20  33  49  70  98 132 168 204 245 294
#
# _framework density 17.260995000000001
#
# number of rings (size 3 to 8) (size 9 to 14) (size 15 to 20)
#    0.000    2.600    0.000    2.000    0.933    5.867 
#    0.000    2.000    0.000    0.400    0.000    4.200 
#    0.000    4.267    0.000    0.000    0.000    0.000 
#
# Total GULP energy -334618.957220 kJ/mol
# GULP energy per Si atom -5576.982620 kJ/mol
# Density = 1.722171 g / cm^3
# Si number density = 17.260995 Si / 1000 Ang^3
#
#
#
# Elastic Constant Matrix: (Units=GPa)
#
#
# Indices 1 2 3 4 5 6 
#
# 1 12.9969 29.3113 35.1018 0.0000 0.0000 0.0000
# 2 29.3113 137.5283 90.8132 0.0000 0.0000 0.0000
# 3 35.1018 90.8132 140.6126 0.0000 0.0000 0.0000
# 4 0.0000 0.0000 0.0000 0.0255 0.0000 0.0000
# 5 0.0000 0.0000 0.0000 0.0000 14.9130 0.0000
# 6 0.0000 0.0000 0.0000 0.0000 0.0000 24.2481
#
#
#
# Elastic Compliance Matrix: (Units=1/GPa)
#
#
# Indices 1 2 3 4 5 6 
#
# 1 0.272102 -0.022910 -0.053130 0.000000 0.000000 0.000000
# 2 -0.022910 0.014607 -0.003715 0.000000 0.000000 0.000000
# 3 -0.053130 -0.003715 0.022774 0.000000 0.000000 0.000000
# 4 0.000000 0.000000 0.000000 39.259167 0.000000 0.000000
# 5 0.000000 0.000000 0.000000 0.000000 0.067056 0.000000
# 6 0.000000 0.000000 0.000000 0.000000 0.000000 0.041240
#
#
# Mechanical properties :
#
#
# Convention : Reuss Voigt Hill
#
# Bulk Modulus (GPa) = 6.66783 66.84338 36.75560
# Shear Modulus (GPa) = 0.12536 16.89808 8.51172
#
# Velocity S-wave (km/s) = 0.26978 3.13225 2.22304
# Velocity P-wave (km/s) = 1.99208 7.20351 5.28483
#
# Compressibility (1/GPa) = 0.14997391
#
# Stress axis : x y z
#
# Youngs Moduli (GPa) = 3.67509 68.46132 43.90995
#
# Poissons Ratio (x) = 1.56843 2.33294
# Poissons Ratio (y) = 0.08420 0.16311
# Poissons Ratio (z) = 0.19526 0.25430
#
# Static dielectric constant tensor:
#      x y z
#    x 1.583650 0.000000 0.000000 
#    y 0.000000 1.575390 0.000000 
#    z 0.000000 0.000000 1.580310 
# 
# From -- ./inp_files/73982.got.cif
#   From: 2010.05.17/outbox.cif.g08.bks.cpg/sg65_37_cif.got.tgz:73982.got - 2010.06.03 17:01:31.
