data_PCOD9488967
_publ_section_title
;
Structure prediction by ZEFSAII (Michael W. Deem and Ramdas Pophale) SiO2 
 PCOD9488967
Probable space group: C M M M
;
_chemical_formula_sum "Si O2"
_cell_formula_units_Z 120
_cell_length_a 17.194131
_cell_length_b 20.671787
_cell_length_c 19.606554
_cell_angle_alpha 90.000000
_cell_angle_beta 90.000000
_cell_angle_gamma 90.000000
_cell_volume 6968.824419
_symmetry_space_group_name_H-M "C M M M"
_symmetry_group_IT_number 65
_symmetry_cell_setting 'orthorhombic'
loop_
_space_group_symop_operation_xyz
x,y,z
-x,-y,z
x,-y,-z
-x,y,-z
-x,-y,-z
x,y,-z
-x,y,z
x,-y,z
1/2+x,1/2+y,z
1/2-x,1/2-y,z
1/2+x,1/2-y,-z
1/2-x,1/2+y,-z
1/2-x,1/2-y,-z
1/2+x,1/2+y,-z
1/2-x,1/2+y,z
1/2+x,1/2-y,z
loop_
_atom_site_type_symbol
_atom_site_label
_atom_site_fract_x
_atom_site_fract_y
_atom_site_fract_z
Si Si1 0.825195 0.927811 0.419935
Si Si2 0.087084 0.767729 0.825537
Si Si3 0.208816 0.571984 0.294982
Si Si4 0.410394 0.812087 0.313537
Si Si5 0.093350 0.792767 0.421630
Si Si6 0.905961 0.000000 0.917285
Si Si7 0.806021 0.892227 0.838288
Si Si8 0.190038 0.689158 0.922835
O O1 0.802240 0.923338 0.500000
O O2 0.755340 0.925330 0.366287
O O3 0.877087 0.864841 0.404594
O O4 0.862054 0.000000 0.411739
O O5 0.087727 0.732453 0.753250
O O6 0.144177 0.828333 0.822654
O O7 0.117974 0.716252 0.880389
O O8 0.000000 0.789300 0.842242
O O9 0.174851 0.500000 0.287657
O O10 0.144397 0.627513 0.297866
O O11 0.269211 0.581801 0.232176
O O12 0.500000 0.831338 0.329251
O O13 0.378866 0.765137 0.373227
O O14 0.114841 0.779638 0.500000
O O15 0.000000 0.793597 0.416045
O O16 0.862238 0.939886 0.880697
O O17 0.000000 0.000000 0.905567
O O18 0.894622 0.000000 0.000000
O O19 0.734192 0.868815 0.885124
O O20 0.250000 0.750000 0.924448
O O21 0.170048 0.672242 0.000000
#
# Coordination Sequence:
#
# PCOD9488967 Si02
#       8
#    16  16  16  16  16   8  16  16
#     4   9  19  34  53  81 116 150 188 229 271 327
#     4  10  20  33  53  80 110 142 177 224 277 328
#     4  11  22  37  58  80 106 145 188 234 286 337
#     4  10  21  37  56  80 108 140 184 237 289 338
#     4   9  18  33  54  81 114 151 189 229 277 334
#     4  11  24  40  58  82 116 154 186 223 278 338
#     4  11  20  36  56  81 109 145 189 229 270 332
#     4   9  18  32  52  77 103 136 179 223 269 326
#
# _framework density 17.219546999999999
#
# number of rings (size 3 to 8) (size 9 to 14) (size 15 to 20)
#    0.000    2.067    2.000    1.600    0.000    3.467 
#    0.000    3.333    0.000    0.000    0.000    3.733 
#    0.000    4.267    0.000    0.000    0.000    0.000 
#
# Total GULP energy -334369.057340 kJ/mol
# GULP energy per Si atom -5572.817622 kJ/mol
# Density = 1.718035 g / cm^3
# Si number density = 17.219547 Si / 1000 Ang^3
#
#
#
# Elastic Constant Matrix: (Units=GPa)
#
#
# Indices 1 2 3 4 5 6 
#
# 1 53.3391 50.5808 34.2423 0.0000 0.0000 0.0000
# 2 50.5808 118.7104 48.8097 0.0000 0.0000 0.0000
# 3 34.2423 48.8097 79.8059 0.0000 0.0000 0.0000
# 4 0.0000 0.0000 0.0000 24.5470 0.0000 0.0000
# 5 0.0000 0.0000 0.0000 0.0000 23.2209 0.0000
# 6 0.0000 0.0000 0.0000 0.0000 0.0000 91.7403
#
#
#
# Elastic Compliance Matrix: (Units=1/GPa)
#
#
# Indices 1 2 3 4 5 6 
#
# 1 0.034769 -0.011597 -0.007826 0.000000 0.000000 0.000000
# 2 -0.011597 0.015122 -0.004273 0.000000 0.000000 0.000000
# 3 -0.007826 -0.004273 0.018501 0.000000 0.000000 0.000000
# 4 0.000000 0.000000 0.000000 0.040738 0.000000 0.000000
# 5 0.000000 0.000000 0.000000 0.000000 0.043065 0.000000
# 6 0.000000 0.000000 0.000000 0.000000 0.000000 0.010900
#
#
# Mechanical properties :
#
#
# Convention : Reuss Voigt Hill
#
# Bulk Modulus (GPa) = 47.61508 57.68010 52.64759
# Shear Modulus (GPa) = 22.98991 35.78316 29.38653
#
# Velocity S-wave (km/s) = 3.65787 4.56351 4.13556
# Velocity P-wave (km/s) = 6.74921 7.83180 7.31057
#
# Compressibility (1/GPa) = 0.02100175
#
# Stress axis : x y z
#
# Youngs Moduli (GPa) = 28.76124 66.12889 54.04999
#
# Poissons Ratio (x) = 0.76689 0.42297
# Poissons Ratio (y) = 0.33354 0.23094
# Poissons Ratio (z) = 0.22507 0.28255
#
# Static dielectric constant tensor:
#      x y z
#    x 1.569340 0.000000 0.000000 
#    y 0.000000 1.585290 0.000000 
#    z 0.000000 0.000000 1.589890 
# 
# From -- ./inp_files/63059.got.cif
#   From: 2010.05.17/outbox.cif.g08.bks.cpg/sg65_32_cif.got.tgz:63059.got - 2010.06.03 17:01:31.
