data_PCOD9488948
_publ_section_title
;
Structure prediction by ZEFSAII (Michael W. Deem and Ramdas Pophale) SiO2 
 PCOD9488948
Probable space group: C M M M
;
_chemical_formula_sum "Si O2"
_cell_formula_units_Z 116
_cell_length_a 29.212796
_cell_length_b 26.615272
_cell_length_c 7.721184
_cell_angle_alpha 90.000000
_cell_angle_beta 90.000000
_cell_angle_gamma 90.000000
_cell_volume 6003.270836
_symmetry_space_group_name_H-M "C M M M"
_symmetry_group_IT_number 65
_symmetry_cell_setting 'orthorhombic'
loop_
_space_group_symop_operation_xyz
x,y,z
-x,-y,z
x,-y,-z
-x,y,-z
-x,-y,-z
x,y,-z
-x,y,z
x,-y,z
1/2+x,1/2+y,z
1/2-x,1/2-y,z
1/2+x,1/2-y,-z
1/2-x,1/2+y,-z
1/2-x,1/2-y,-z
1/2+x,1/2+y,-z
1/2-x,1/2+y,z
1/2+x,1/2-y,z
loop_
_atom_site_type_symbol
_atom_site_label
_atom_site_fract_x
_atom_site_fract_y
_atom_site_fract_z
Si Si1 0.628884 0.318723 0.801850
Si Si2 0.312168 0.586712 0.202823
Si Si3 0.197315 0.266077 0.704439
Si Si4 0.713983 0.876019 0.701145
Si Si5 0.552233 0.751899 0.209391
Si Si6 0.947624 0.364754 0.706096
Si Si7 0.630490 0.943017 0.796284
Si Si8 0.185078 0.000000 0.500000
O O1 0.653386 0.368811 0.736758
O O2 0.665916 0.274097 0.797556
O O3 0.584277 0.292524 0.721015
O O4 0.617024 0.330699 0.000000
O O5 0.260391 0.608266 0.205837
O O6 0.314190 0.543351 0.345251
O O7 0.322051 0.572884 0.000000
O O8 0.185177 0.264207 0.500000
O O9 0.250000 0.250000 0.721928
O O10 0.193680 0.323300 0.767330
O O11 0.726400 0.867301 0.500000
O O12 0.674927 0.917993 0.710943
O O13 0.500000 0.747861 0.271135
O O14 0.568849 0.808077 0.254408
O O15 0.552168 0.749276 0.000000
O O16 0.949266 0.369785 0.500000
O O17 0.913113 0.407027 0.771420
O O18 0.000000 0.369515 0.773914
O O19 0.622273 0.000000 0.734152
O O20 0.640407 0.945002 0.000000
#
# Coordination Sequence:
#
# PCOD9488948 Si02
#       8
#    16  16  16  16  16  16  16   4
#     4  10  21  35  56  88 121 153 196 246 293 355
#     4  11  24  41  62  89 118 156 207 253 297 359
#     4  10  20  33  53  78 115 156 194 234 288 362
#     4  11  22  38  57  84 118 157 202 246 304 362
#     4   9  18  35  60  89 122 157 189 228 290 362
#     4  10  21  38  58  83 113 147 191 243 304 367
#     4  11  25  40  55  77 106 149 203 258 307 351
#     4  12  26  44  64  84 117 162 203 246 308 350
#
# _framework density 19.322800000000001
#
# number of rings (size 3 to 8) (size 9 to 14) (size 15 to 20)
#    0.000    1.655    2.069    2.276    1.931    6.345 
#    0.000    1.379    0.000    0.000    0.000    0.966 
#    0.000    3.310    0.000    0.000    0.000    0.000 
#
# Total GULP energy -323276.074400 kJ/mol
# GULP energy per Si atom -5573.725421 kJ/mol
# Density = 1.927882 g / cm^3
# Si number density = 19.322800 Si / 1000 Ang^3
#
#
#
# Elastic Constant Matrix: (Units=GPa)
#
#
# Indices 1 2 3 4 5 6 
#
# 1 52.8053 34.7091 -0.1556 0.0000 0.0000 0.0000
# 2 34.7091 126.0167 24.1789 0.0000 0.0000 0.0000
# 3 -0.1556 24.1789 71.2424 0.0000 0.0000 0.0000
# 4 0.0000 0.0000 0.0000 21.3350 0.0000 0.0000
# 5 0.0000 0.0000 0.0000 0.0000 -25.0646 0.0000
# 6 0.0000 0.0000 0.0000 0.0000 0.0000 -0.5376
#
#
#
# Elastic Compliance Matrix: (Units=1/GPa)
#
#
# Indices 1 2 3 4 5 6 
#
# 1 0.023503 -0.006935 0.002405 0.000000 0.000000 0.000000
# 2 -0.006935 0.010534 -0.003590 0.000000 0.000000 0.000000
# 3 0.002405 -0.003590 0.015260 0.000000 0.000000 0.000000
# 4 0.000000 0.000000 0.000000 0.046871 0.000000 0.000000
# 5 0.000000 0.000000 0.000000 0.000000 -0.039897 0.000000
# 6 0.000000 0.000000 0.000000 0.000000 0.000000 -1.860015
#
#
# Mechanical properties :
#
#
# Convention : Reuss Voigt Hill
#
# Bulk Modulus (GPa) = 30.25078 40.83658 35.54368
# Shear Modulus (GPa) = -2.81455 11.90203 4.54374
#
# Velocity S-wave (km/s) = -1.20820 2.48454 1.53512
# Velocity P-wave (km/s) = 3.70717 5.42313 4.64508
#
# Compressibility (1/GPa) = 0.03305700
#
# Stress axis : x y z
#
# Youngs Moduli (GPa) = 42.54788 94.92656 65.52917
#
# Poissons Ratio (x) = 0.65831 -0.15759
# Poissons Ratio (y) = 0.29507 0.23528
# Poissons Ratio (z) = -0.10233 0.34083
#
# Static dielectric constant tensor:
#      x y z
#    x 1.685420 0.000000 0.000000 
#    y 0.000000 1.672760 0.000000 
#    z 0.000000 0.000000 1.744330 
# 
# From -- ./inp_files/18981.got.cif
#   From: 2010.05.17/outbox.cif.g08.bks.cpg/sg65_10_cif.got.tgz:18981.got - 2010.06.03 17:01:31.
