data_PCOD9488753
_publ_section_title
;
Structure prediction by ZEFSAII (Michael W. Deem and Ramdas Pophale) SiO2 
 PCOD9488753
Probable space group: C M M M
;
_chemical_formula_sum "Si O2"
_cell_formula_units_Z 96
_cell_length_a 9.299364
_cell_length_b 32.562996
_cell_length_c 15.145332
_cell_angle_alpha 90.000000
_cell_angle_beta 90.000000
_cell_angle_gamma 90.000000
_cell_volume 4586.236023
_symmetry_space_group_name_H-M "C M M M"
_symmetry_group_IT_number 65
_symmetry_cell_setting 'orthorhombic'
loop_
_space_group_symop_operation_xyz
x,y,z
-x,-y,z
x,-y,-z
-x,y,-z
-x,-y,-z
x,y,-z
-x,y,z
x,-y,z
1/2+x,1/2+y,z
1/2-x,1/2-y,z
1/2+x,1/2-y,-z
1/2-x,1/2+y,-z
1/2-x,1/2-y,-z
1/2+x,1/2+y,-z
1/2-x,1/2+y,z
1/2+x,1/2-y,z
loop_
_atom_site_type_symbol
_atom_site_label
_atom_site_fract_x
_atom_site_fract_y
_atom_site_fract_z
Si Si1 0.340263 0.211751 0.105642
Si Si2 0.165234 0.872961 0.357644
Si Si3 0.828203 0.044279 0.839886
Si Si4 0.661896 0.368289 0.144596
Si Si5 0.663147 0.789543 0.394601
Si Si6 0.672227 0.045858 0.349120
O O1 0.500000 0.212182 0.142477
O O2 0.250000 0.250000 0.141144
O O3 0.265293 0.168558 0.121977
O O4 0.348864 0.216839 0.000000
O O5 0.160882 0.873237 0.250718
O O6 0.251188 0.831799 0.380831
O O7 0.246361 0.914496 0.388072
O O8 0.000000 0.871810 0.388798
O O9 0.796571 0.086520 0.889984
O O10 0.732223 0.043968 0.751409
O O11 0.000000 0.046731 0.816554
O O12 0.807407 0.000000 0.884509
O O13 0.500000 0.358204 0.115035
O O14 0.652485 0.783974 0.500000
O O15 0.500000 0.791884 0.359777
O O16 0.750000 0.750000 0.359483
O O17 0.500000 0.052101 0.350741
O O18 0.701640 0.000000 0.386918
#
# Coordination Sequence:
#
# PCOD9488753 Si02
#       6
#    16  16  16  16  16  16
#     4  10  21  36  53  71  92 123 162 201 244 295
#     4  10  20  33  51  76 104 133 166 204 246 290
#     4   8  14  26  44  67  97 130 162 196 235 283
#     4   9  18  31  49  75 102 128 160 199 242 284
#     4  10  21  37  56  76  99 130 167 204 245 295
#     4   9  16  26  43  69 100 132 165 201 243 290
#
# _framework density 20.932199000000001
#
# number of rings (size 3 to 8) (size 9 to 14) (size 15 to 20)
#    0.000    2.667    0.000    3.000    0.000    7.000 
#    0.000    0.000    0.000    1.000    0.000    7.000 
#    0.000    0.000    0.000    0.000    0.000    0.000 
#
# Total GULP energy -267673.970850 kJ/mol
# GULP energy per Si atom -5576.541059 kJ/mol
# Density = 2.088456 g / cm^3
# Si number density = 20.932199 Si / 1000 Ang^3
#
#
#
# Elastic Constant Matrix: (Units=GPa)
#
#
# Indices 1 2 3 4 5 6 
#
# 1 170.6178 139.0820 7.5784 0.0000 0.0000 0.0000
# 2 139.0820 245.0105 2.5313 0.0000 0.0000 0.0000
# 3 7.5784 2.5313 42.9031 0.0000 0.0000 0.0000
# 4 0.0000 0.0000 0.0000 34.7079 0.0000 0.0000
# 5 0.0000 0.0000 0.0000 0.0000 12.2950 0.0000
# 6 0.0000 0.0000 0.0000 0.0000 0.0000 38.6298
#
#
#
# Elastic Compliance Matrix: (Units=1/GPa)
#
#
# Indices 1 2 3 4 5 6 
#
# 1 0.011015 -0.006236 -0.001578 0.000000 0.000000 0.000000
# 2 -0.006236 0.007615 0.000652 0.000000 0.000000 0.000000
# 3 -0.001578 0.000652 0.023549 0.000000 0.000000 0.000000
# 4 0.000000 0.000000 0.000000 0.028812 0.000000 0.000000
# 5 0.000000 0.000000 0.000000 0.000000 0.081334 0.000000
# 6 0.000000 0.000000 0.000000 0.000000 0.000000 0.025887
#
#
# Mechanical properties :
#
#
# Convention : Reuss Voigt Hill
#
# Bulk Modulus (GPa) = 35.90063 84.10165 60.00114
# Shear Modulus (GPa) = 24.77470 37.74920 31.26195
#
# Velocity S-wave (km/s) = 3.44404 4.25126 3.86876
# Velocity P-wave (km/s) = 5.74485 8.02265 6.97733
#
# Compressibility (1/GPa) = 0.02785466
#
# Stress axis : x y z
#
# Youngs Moduli (GPa) = 90.78723 131.32315 42.46552
#
# Poissons Ratio (x) = 0.81897 0.06700
# Poissons Ratio (y) = 0.56618 -0.02770
# Poissons Ratio (z) = 0.14324 -0.08566
#
# Static dielectric constant tensor:
#      x y z
#    x 1.728670 0.000000 0.000000 
#    y 0.000000 1.775960 0.000000 
#    z 0.000000 0.000000 1.785500 
# 
# From -- ./inp_files/60247.got.cif
#   From: 2010.05.17/outbox.cif.g08.bks.cpg/sg65_31_cif.got.tgz:60247.got - 2010.06.03 17:01:31.
