data_PCOD9488739
_publ_section_title
;
Structure prediction by ZEFSAII (Michael W. Deem and Ramdas Pophale) SiO2 
 PCOD9488739
Probable space group: C M M M
;
_chemical_formula_sum "Si O2"
_cell_formula_units_Z 66
_cell_length_a 15.158119
_cell_length_b 7.520262
_cell_length_c 29.484159
_cell_angle_alpha 90.000000
_cell_angle_beta 90.000000
_cell_angle_gamma 90.000000
_cell_volume 3360.988513
_symmetry_space_group_name_H-M "C M M M"
_symmetry_group_IT_number 65
_symmetry_cell_setting 'orthorhombic'
loop_
_space_group_symop_operation_xyz
x,y,z
-x,-y,z
x,-y,-z
-x,y,-z
-x,-y,-z
x,y,-z
-x,y,z
x,-y,z
1/2+x,1/2+y,z
1/2-x,1/2-y,z
1/2+x,1/2-y,-z
1/2-x,1/2+y,-z
1/2-x,1/2-y,-z
1/2+x,1/2+y,-z
1/2-x,1/2+y,z
1/2+x,1/2-y,z
loop_
_atom_site_type_symbol
_atom_site_label
_atom_site_fract_x
_atom_site_fract_y
_atom_site_fract_z
Si Si1 0.500000 0.218604 0.083430
Si Si2 0.647508 0.786799 0.256426
Si Si3 0.854202 0.213096 0.500000
Si Si4 0.000000 0.000000 0.000000
Si Si5 0.000000 0.713927 0.324334
Si Si6 0.852620 0.711822 0.155348
Si Si7 0.500000 0.287906 0.569554
O O1 0.415808 0.266887 0.114789
O O2 0.500000 0.000000 0.075234
O O3 0.500000 0.341627 0.039522
O O4 0.750000 0.750000 0.264829
O O5 0.584765 0.719985 0.296228
O O6 0.625204 0.717574 0.205799
O O7 0.636841 0.000000 0.254759
O O8 0.750000 0.250000 0.500000
O O9 0.911942 0.277518 0.543317
O O10 0.858914 0.000000 0.500000
O O11 0.000000 0.755010 0.377204
O O12 0.000000 0.500000 0.321829
O O13 0.863435 0.500000 0.158063
O O14 0.750000 0.750000 0.146637
O O15 0.500000 0.500000 0.563895
#
# Coordination Sequence:
#
# PCOD9488739 Si02
#       7
#     8  16   8   2   8  16   8
#     4  10  22  41  62  83 116 150 184 234 289 337
#     4   9  18  33  52  79 110 144 179 220 261 319
#     4   9  19  37  58  76  96 131 179 229 276 320
#     4  12  26  40  64  86 116 146 194 236 284 344
#     4  10  20  33  51  75 112 148 180 210 272 326
#     4   9  18  34  60  84 110 144 187 227 273 325
#     4   9  20  37  53  73 104 138 174 222 272 326
#
# _framework density 19.637077999999999
#
# number of rings (size 3 to 8) (size 9 to 14) (size 15 to 20)
#    0.000    2.667    0.000    1.636    1.697    5.818 
#    0.000    6.667    2.667    0.000    0.000    0.000 
#    0.000    0.000    0.000    0.000    0.000    0.000 
#
# Total GULP energy -183711.580896 kJ/mol
# GULP energy per Si atom -5567.017603 kJ/mol
# Density = 1.959238 g / cm^3
# Si number density = 19.637078 Si / 1000 Ang^3
#
#
#
# Elastic Constant Matrix: (Units=GPa)
#
#
# Indices 1 2 3 4 5 6 
#
# 1 143.3076 18.4463 133.5912 0.0000 0.0000 0.0000
# 2 18.4463 68.0190 36.0975 0.0000 0.0000 0.0000
# 3 133.5912 36.0975 235.4084 0.0000 0.0000 0.0000
# 4 0.0000 0.0000 0.0000 22.5946 0.0000 0.0000
# 5 0.0000 0.0000 0.0000 0.0000 -4.4651 0.0000
# 6 0.0000 0.0000 0.0000 0.0000 0.0000 23.3148
#
#
#
# Elastic Compliance Matrix: (Units=1/GPa)
#
#
# Indices 1 2 3 4 5 6 
#
# 1 0.014830 0.000484 -0.008490 0.000000 0.000000 0.000000
# 2 0.000484 0.016020 -0.002731 0.000000 0.000000 0.000000
# 3 -0.008490 -0.002731 0.009485 0.000000 0.000000 0.000000
# 4 0.000000 0.000000 0.000000 0.044258 0.000000 0.000000
# 5 0.000000 0.000000 0.000000 0.000000 -0.223958 0.000000
# 6 0.000000 0.000000 0.000000 0.000000 0.000000 0.042891
#
#
# Mechanical properties :
#
#
# Convention : Reuss Voigt Hill
#
# Bulk Modulus (GPa) = 53.02181 91.44500 72.23340
# Shear Modulus (GPa) = -72.76740 25.52886 -23.61927
#
# Velocity S-wave (km/s) = -6.09398 3.60951 -3.47189
# Velocity P-wave (km/s) = 4.73877 8.00250 4.55983
#
# Compressibility (1/GPa) = 0.01886017
#
# Stress axis : x y z
#
# Youngs Moduli (GPa) = 67.42991 62.42225 105.43227
#
# Poissons Ratio (x) = -0.03020 0.89513
# Poissons Ratio (y) = -0.03263 0.28794
# Poissons Ratio (z) = 0.57249 0.17048
#
# Static dielectric constant tensor:
#      x y z
#    x 1.663900 0.000000 0.000000 
#    y 0.000000 1.741100 0.000000 
#    z 0.000000 0.000000 1.679410 
# 
# From -- ./inp_files/74584.got.cif
#   From: 2010.05.17/outbox.cif.g08.bks.cpg/sg65_38_cif.got.tgz:74584.got - 2010.06.03 17:01:31.
