data_PCOD9488726
_publ_section_title
;
Structure prediction by ZEFSAII (Michael W. Deem and Ramdas Pophale) SiO2 
 PCOD9488726
Probable space group: C M M M
;
_chemical_formula_sum "Si O2"
_cell_formula_units_Z 96
_cell_length_a 29.780900
_cell_length_b 18.645147
_cell_length_c 8.264129
_cell_angle_alpha 90.000000
_cell_angle_beta 90.000000
_cell_angle_gamma 90.000000
_cell_volume 4588.816780
_symmetry_space_group_name_H-M "C M M M"
_symmetry_group_IT_number 65
_symmetry_cell_setting 'orthorhombic'
loop_
_space_group_symop_operation_xyz
x,y,z
-x,-y,z
x,-y,-z
-x,y,-z
-x,-y,-z
x,y,-z
-x,y,z
x,-y,z
1/2+x,1/2+y,z
1/2-x,1/2-y,z
1/2+x,1/2-y,-z
1/2-x,1/2+y,-z
1/2-x,1/2-y,-z
1/2+x,1/2+y,-z
1/2-x,1/2+y,z
1/2+x,1/2-y,z
loop_
_atom_site_type_symbol
_atom_site_label
_atom_site_fract_x
_atom_site_fract_y
_atom_site_fract_z
Si Si1 0.949635 0.882939 0.810700
Si Si2 0.449373 0.780481 0.695770
Si Si3 0.271643 0.918830 0.807381
Si Si4 0.697328 0.307153 0.184059
Si Si5 0.148030 0.333329 0.309126
Si Si6 0.359955 0.579672 0.680123
O O1 0.946635 0.797654 0.777055
O O2 0.912929 0.919701 0.700770
O O3 0.000000 0.905460 0.771837
O O4 0.941442 0.897500 0.000000
O O5 0.446922 0.771322 0.500000
O O6 0.500000 0.809451 0.731671
O O7 0.403957 0.822779 0.744145
O O8 0.239379 0.853479 0.747036
O O9 0.322624 0.894929 0.774628
O O10 0.263416 0.000000 0.744677
O O11 0.263408 0.920495 0.000000
O O12 0.676016 0.239980 0.276127
O O13 0.658957 0.366983 0.188665
O O14 0.706324 0.284250 0.000000
O O15 0.147571 0.347121 0.500000
O O16 0.347891 0.605261 0.500000
O O17 0.342261 0.500000 0.702466
#
# Coordination Sequence:
#
# PCOD9488726 Si02
#       6
#    16  16  16  16  16  16
#     4  10  20  33  51  75 103 140 188 238 286 337
#     4   9  18  34  56  82 115 151 185 228 284 342
#     4  10  23  42  61  83 115 155 195 236 289 347
#     4  11  22  38  60  84 112 150 195 239 283 337
#     4  11  22  36  60  92 120 149 190 236 285 342
#     4  11  23  36  51  74 107 148 191 237 291 344
#
# _framework density 20.920425999999999
#
# number of rings (size 3 to 8) (size 9 to 14) (size 15 to 20)
#    0.000    1.667    1.667    3.000    0.000    7.667 
#    0.000    1.667    0.000    0.500    0.000    3.500 
#    0.000    0.000    0.000    0.000    0.000    0.000 
#
# Total GULP energy -267836.209870 kJ/mol
# GULP energy per Si atom -5579.921039 kJ/mol
# Density = 2.087281 g / cm^3
# Si number density = 20.920426 Si / 1000 Ang^3
#
#
#
# Elastic Constant Matrix: (Units=GPa)
#
#
# Indices 1 2 3 4 5 6 
#
# 1 135.9830 37.8302 6.9083 0.0000 0.0000 0.0000
# 2 37.8302 24.1922 1.8080 0.0000 0.0000 0.0000
# 3 6.9083 1.8080 21.6463 0.0000 0.0000 0.0000
# 4 0.0000 0.0000 0.0000 5.3719 0.0000 0.0000
# 5 0.0000 0.0000 0.0000 0.0000 26.1727 0.0000
# 6 0.0000 0.0000 0.0000 0.0000 0.0000 89.9950
#
#
#
# Elastic Compliance Matrix: (Units=1/GPa)
#
#
# Indices 1 2 3 4 5 6 
#
# 1 0.013149 -0.020375 -0.002495 0.000000 0.000000 0.000000
# 2 -0.020375 0.073167 0.000391 0.000000 0.000000 0.000000
# 3 -0.002495 0.000391 0.046961 0.000000 0.000000 0.000000
# 4 0.000000 0.000000 0.000000 0.186155 0.000000 0.000000
# 5 0.000000 0.000000 0.000000 0.000000 0.038208 0.000000
# 6 0.000000 0.000000 0.000000 0.000000 0.000000 0.011112
#
#
# Mechanical properties :
#
#
# Convention : Reuss Voigt Hill
#
# Bulk Modulus (GPa) = 11.32242 30.54607 20.93425
# Shear Modulus (GPa) = 11.28293 33.32625 22.30459
#
# Velocity S-wave (km/s) = 2.32486 3.99557 3.26876
# Velocity P-wave (km/s) = 3.55394 5.99324 4.92694
#
# Compressibility (1/GPa) = 0.08832032
#
# Stress axis : x y z
#
# Youngs Moduli (GPa) = 76.05229 13.66732 21.29439
#
# Poissons Ratio (x) = 0.27847 0.05312
# Poissons Ratio (y) = 1.54956 -0.00833
# Poissons Ratio (z) = 0.18972 -0.00535
#
# Static dielectric constant tensor:
#      x y z
#    x 1.826410 0.000000 0.000000 
#    y 0.000000 1.740610 0.000000 
#    z 0.000000 0.000000 1.734820 
# 
# From -- ./inp_files/12251.got.cif
#   From: 2010.05.17/outbox.cif.g08.bks.cpg/sg65_7_cif.got.tgz:12251.got - 2010.06.03 17:01:31.
