data_PCOD9488112
_publ_section_title
;
Structure prediction by ZEFSAII (Michael W. Deem and Ramdas Pophale) SiO2 
 PCOD9488112
Probable space group: C M M M
;
_chemical_formula_sum "Si O2"
_cell_formula_units_Z 72
_cell_length_a 32.245450
_cell_length_b 13.936966
_cell_length_c 7.805115
_cell_angle_alpha 90.000000
_cell_angle_beta 90.000000
_cell_angle_gamma 90.000000
_cell_volume 3507.647875
_symmetry_space_group_name_H-M "C M M M"
_symmetry_group_IT_number 65
_symmetry_cell_setting 'orthorhombic'
loop_
_space_group_symop_operation_xyz
x,y,z
-x,-y,z
x,-y,-z
-x,y,-z
-x,-y,-z
x,y,-z
-x,y,z
x,-y,z
1/2+x,1/2+y,z
1/2-x,1/2-y,z
1/2+x,1/2-y,-z
1/2-x,1/2+y,-z
1/2-x,1/2-y,-z
1/2+x,1/2+y,-z
1/2-x,1/2+y,z
1/2+x,1/2-y,z
loop_
_atom_site_type_symbol
_atom_site_label
_atom_site_fract_x
_atom_site_fract_y
_atom_site_fract_z
Si Si1 0.779346 0.828041 0.698366
Si Si2 0.871896 0.500000 0.805604
Si Si3 0.500000 0.887652 0.706031
Si Si4 0.088545 0.695150 0.204053
Si Si5 0.629185 0.609383 0.202292
Si Si6 0.715590 0.000000 0.686065
O O1 0.788632 0.798546 0.500000
O O2 0.750000 0.750000 0.786360
O O3 0.822790 0.859095 0.777291
O O4 0.747126 0.913746 0.695528
O O5 0.886967 0.601052 0.726665
O O6 0.822453 0.500000 0.812481
O O7 0.889208 0.500000 0.000000
O O8 0.500000 0.889483 0.500000
O O9 0.540809 0.831878 0.767133
O O10 0.500000 0.000000 0.764422
O O11 0.102774 0.799670 0.272786
O O12 0.097212 0.699800 0.000000
O O13 0.623795 0.500000 0.273247
O O14 0.619947 0.602389 0.000000
O O15 0.694490 0.000000 0.500000
#
# Coordination Sequence:
#
# PCOD9488112 Si02
#       6
#    16   8   8  16  16   8
#     4  10  20  34  52  75 106 147 193 238 284 332
#     4  10  20  33  53  82 111 144 189 235 280 334
#     4  11  23  39  62  93 120 142 179 230 287 348
#     4  10  21  38  60  85 115 151 187 228 286 347
#     4  10  21  37  57  83 114 151 195 238 281 333
#     4  10  20  32  47  73 108 145 184 226 278 328
#
# _framework density 20.526575000000001
#
# number of rings (size 3 to 8) (size 9 to 14) (size 15 to 20)
#    0.000    1.889    2.222    1.667    0.000    3.556 
#    0.000    0.556    0.000    3.333    0.000    0.000 
#    0.000    0.000    0.000    0.000    0.000    0.000 
#
# Total GULP energy -200552.425203 kJ/mol
# GULP energy per Si atom -5570.900700 kJ/mol
# Density = 2.047986 g / cm^3
# Si number density = 20.526575 Si / 1000 Ang^3
#
#
#
# Elastic Constant Matrix: (Units=GPa)
#
#
# Indices 1 2 3 4 5 6 
#
# 1 119.6473 75.8018 -7.8871 0.0000 0.0000 0.0000
# 2 75.8018 205.5754 14.5079 0.0000 0.0000 0.0000
# 3 -7.8871 14.5079 28.2959 0.0000 0.0000 0.0000
# 4 0.0000 0.0000 0.0000 3.5349 0.0000 0.0000
# 5 0.0000 0.0000 0.0000 0.0000 38.5283 0.0000
# 6 0.0000 0.0000 0.0000 0.0000 0.0000 8.7590
#
#
#
# Elastic Compliance Matrix: (Units=1/GPa)
#
#
# Indices 1 2 3 4 5 6 
#
# 1 0.011727 -0.004726 0.005692 0.000000 0.000000 0.000000
# 2 -0.004726 0.006951 -0.004881 0.000000 0.000000 0.000000
# 3 0.005692 -0.004881 0.039430 0.000000 0.000000 0.000000
# 4 0.000000 0.000000 0.000000 0.282894 0.000000 0.000000
# 5 0.000000 0.000000 0.000000 0.000000 0.025955 0.000000
# 6 0.000000 0.000000 0.000000 0.000000 0.000000 0.114168
#
#
# Mechanical properties :
#
#
# Convention : Reuss Voigt Hill
#
# Bulk Modulus (GPa) = 19.88951 57.59597 38.74274
# Shear Modulus (GPa) = 9.88696 28.23750 19.06223
#
# Velocity S-wave (km/s) = 2.19707 3.71301 3.05070
# Velocity P-wave (km/s) = 4.01831 6.81924 5.59682
#
# Compressibility (1/GPa) = 0.05027777
#
# Stress axis : x y z
#
# Youngs Moduli (GPa) = 85.27255 143.85531 25.36135
#
# Poissons Ratio (x) = 0.67983 -0.14435
# Poissons Ratio (y) = 0.40298 0.12380
# Poissons Ratio (z) = -0.48535 0.70221
#
# Static dielectric constant tensor:
#      x y z
#    x 1.667510 0.000000 0.000000 
#    y 0.000000 1.758190 0.000000 
#    z 0.000000 0.000000 1.801310 
# 
# From -- ./inp_files/7344.got.cif
#   From: 2010.05.17/outbox.cif.g08.bks.cpg/sg65_4_cif.got.tgz:7344.got - 2010.06.03 17:01:31.
