data_PCOD9488996
_publ_section_title
;
Structure prediction by ZEFSAII (Michael W. Deem and Ramdas Pophale) SiO2 
 PCOD9488996
Probable space group: C M M M
;
_chemical_formula_sum "Si O2"
_cell_formula_units_Z 90
_cell_length_a 23.632185
_cell_length_b 7.932190
_cell_length_c 23.836115
_cell_angle_alpha 90.000000
_cell_angle_beta 90.000000
_cell_angle_gamma 90.000000
_cell_volume 4468.198497
_symmetry_space_group_name_H-M "C M M M"
_symmetry_group_IT_number 65
_symmetry_cell_setting 'orthorhombic'
loop_
_space_group_symop_operation_xyz
x,y,z
-x,-y,z
x,-y,-z
-x,y,-z
-x,-y,-z
x,y,-z
-x,y,z
x,-y,z
1/2+x,1/2+y,z
1/2-x,1/2-y,z
1/2+x,1/2-y,-z
1/2-x,1/2+y,-z
1/2-x,1/2-y,-z
1/2+x,1/2+y,-z
1/2-x,1/2+y,z
1/2+x,1/2-y,z
loop_
_atom_site_type_symbol
_atom_site_label
_atom_site_fract_x
_atom_site_fract_y
_atom_site_fract_z
Si Si1 0.880412 0.299005 0.665429
Si Si2 0.500000 0.299027 0.065250
Si Si3 0.684564 0.203297 0.559502
Si Si4 0.121263 0.703109 0.110185
Si Si5 0.814982 0.703112 0.000000
Si Si6 0.000000 0.000000 0.500000
Si Si7 0.683348 0.204060 0.776870
Si Si8 0.000000 0.185733 0.379595
O O1 0.871400 0.500000 0.667506
O O2 0.844952 0.224714 0.613743
O O3 0.853859 0.235009 0.723619
O O4 0.944512 0.272036 0.645822
O O5 0.500000 0.500000 0.061543
O O6 0.555944 0.245092 0.098896
O O7 0.500000 0.233288 0.000000
O O8 0.659934 0.264406 0.500000
O O9 0.750000 0.250000 0.560646
O O10 0.679853 0.000000 0.560056
O O11 0.125397 0.500000 0.111348
O O12 0.152097 0.765031 0.166513
O O13 0.154703 0.767720 0.055765
O O14 0.750000 0.750000 0.000000
O O15 0.820089 0.500000 0.000000
O O16 0.000000 0.146828 0.447523
O O17 0.750000 0.250000 0.773723
O O18 0.681611 0.000000 0.777484
O O19 0.000000 0.000000 0.353864
#
# Coordination Sequence:
#
# PCOD9488996 Si02
#       8
#    16   8  16  16   8   2  16   8
#     4  10  21  38  59  83 115 153 195 238 287 351
#     4  11  23  38  59  89 118 149 195 252 308 354
#     4   9  18  31  49  76 105 138 179 224 275 331
#     4  10  21  38  59  84 117 161 201 244 300 368
#     4  10  20  33  54  81 111 150 198 244 301 360
#     4   8  24  44  58  88 124 144 198 250 308 354
#     4  10  22  39  61  89 122 158 201 245 296 355
#     4  10  23  40  60  85 116 150 192 242 296 349
#
# _framework density 20.142344999999999
#
# number of rings (size 3 to 8) (size 9 to 14) (size 15 to 20)
#    0.267    1.867    0.889    1.600    1.244    3.911 
#    0.000    4.000    0.000    0.000    0.000    0.000 
#    0.000    0.000    0.000    0.000    0.000    0.000 
#
# Total GULP energy -250559.537904 kJ/mol
# GULP energy per Si atom -5567.989731 kJ/mol
# Density = 2.009650 g / cm^3
# Si number density = 20.142345 Si / 1000 Ang^3
#
#
#
# Elastic Constant Matrix: (Units=GPa)
#
#
# Indices 1 2 3 4 5 6 
#
# 1 160.6656 -10.0244 120.4906 0.0000 0.0000 0.0000
# 2 -10.0244 16.6746 19.0449 0.0000 0.0000 0.0000
# 3 120.4906 19.0449 234.7412 0.0000 0.0000 0.0000
# 4 0.0000 0.0000 0.0000 1.6803 0.0000 0.0000
# 5 0.0000 0.0000 0.0000 0.0000 32.4135 0.0000
# 6 0.0000 0.0000 0.0000 0.0000 0.0000 32.3143
#
#
#
# Elastic Compliance Matrix: (Units=1/GPa)
#
#
# Indices 1 2 3 4 5 6 
#
# 1 0.013716 0.017950 -0.008497 0.000000 0.000000 0.000000
# 2 0.017950 0.089588 -0.016482 0.000000 0.000000 0.000000
# 3 -0.008497 -0.016482 0.009959 0.000000 0.000000 0.000000
# 4 0.000000 0.000000 0.000000 0.595119 0.000000 0.000000
# 5 0.000000 0.000000 0.000000 0.000000 0.030851 0.000000
# 6 0.000000 0.000000 0.000000 0.000000 0.000000 0.030946
#
#
# Mechanical properties :
#
#
# Convention : Reuss Voigt Hill
#
# Bulk Modulus (GPa) = 10.08004 74.56706 42.32355
# Shear Modulus (GPa) = 6.11766 32.11963 19.11865
#
# Velocity S-wave (km/s) = 1.74465 3.99762 3.08421
# Velocity P-wave (km/s) = 3.01225 7.64253 5.80870
#
# Compressibility (1/GPa) = 0.09920592
#
# Stress axis : x y z
#
# Youngs Moduli (GPa) = 72.90654 11.16218 100.41628
#
# Poissons Ratio (x) = -0.20037 0.85321
# Poissons Ratio (y) = -1.30870 1.65508
# Poissons Ratio (z) = 0.61947 0.18398
#
# Static dielectric constant tensor:
#      x y z
#    x 1.944280 0.000000 0.000000 
#    y 0.000000 1.718790 0.000000 
#    z 0.000000 0.000000 1.750330 
# 
# From -- ./inp_files/71144.got.cif
#   From: 2010.05.17/outbox.cif.g08.bks.cpg/sg65_36_cif.got.tgz:71144.got - 2010.06.03 17:01:31.
