data_PCOD9488093
_publ_section_title
;
Structure prediction by ZEFSAII (Michael W. Deem and Ramdas Pophale) SiO2 
 PCOD9488093
Probable space group: C M M M
;
_chemical_formula_sum "Si O2"
_cell_formula_units_Z 96
_cell_length_a 8.033816
_cell_length_b 19.460773
_cell_length_c 31.685933
_cell_angle_alpha 90.000000
_cell_angle_beta 90.000000
_cell_angle_gamma 90.000000
_cell_volume 4953.914048
_symmetry_space_group_name_H-M "C M M M"
_symmetry_group_IT_number 65
_symmetry_cell_setting 'orthorhombic'
loop_
_space_group_symop_operation_xyz
x,y,z
-x,-y,z
x,-y,-z
-x,y,-z
-x,-y,-z
x,y,-z
-x,y,z
x,-y,z
1/2+x,1/2+y,z
1/2-x,1/2-y,z
1/2+x,1/2-y,-z
1/2-x,1/2+y,-z
1/2-x,1/2-y,-z
1/2+x,1/2+y,-z
1/2-x,1/2+y,z
1/2+x,1/2-y,z
loop_
_atom_site_type_symbol
_atom_site_label
_atom_site_fract_x
_atom_site_fract_y
_atom_site_fract_z
Si Si1 0.299321 0.422102 0.547862
Si Si2 0.700881 0.921349 0.297872
Si Si3 0.796914 0.078948 0.952200
Si Si4 0.700753 0.421252 0.796491
Si Si5 0.298871 0.329229 0.125610
Si Si6 0.197666 0.671132 0.625425
O O1 0.243177 0.406125 0.500000
O O2 0.500000 0.423096 0.547276
O O3 0.242627 0.500000 0.558308
O O4 0.245248 0.368195 0.582708
O O5 0.500000 0.922652 0.299853
O O6 0.749453 0.899807 0.250652
O O7 0.765663 0.871256 0.334339
O O8 0.760233 0.000000 0.304318
O O9 0.739269 0.131178 0.916376
O O10 0.000000 0.079844 0.952115
O O11 0.748276 0.000000 0.942887
O O12 0.743612 0.095901 0.000000
O O13 0.500000 0.422632 0.798363
O O14 0.759552 0.500000 0.803088
O O15 0.760825 0.370511 0.833045
O O16 0.500000 0.332794 0.125546
O O17 0.250000 0.250000 0.126175
O O18 0.250000 0.750000 0.625241
O O19 0.000000 0.669521 0.628695
#
# Coordination Sequence:
#
# PCOD9488093 Si02
#       6
#    16  16  16  16  16  16
#     4   9  19  37  60  84 109 138 174 216 260 307
#     4   9  19  36  56  77 101 130 167 212 259 306
#     4   8  14  27  49  73  94 122 164 209 247 285
#     4   9  18  33  53  74  95 125 167 210 248 290
#     4  10  20  32  47  71 102 131 161 200 246 297
#     4  11  23  37  54  78 109 143 177 214 258 307
#
# _framework density 19.378616000000001
#
# number of rings (size 3 to 8) (size 9 to 14) (size 15 to 20)
#    0.000    2.667    0.000    2.500    0.000    6.667 
#    0.000    5.833    0.000    1.500    0.000    1.167 
#    0.000    0.000    0.000    0.000    0.000    0.000 
#
# Total GULP energy -267847.869950 kJ/mol
# GULP energy per Si atom -5580.163957 kJ/mol
# Density = 1.933451 g / cm^3
# Si number density = 19.378616 Si / 1000 Ang^3
#
#
#
# Elastic Constant Matrix: (Units=GPa)
#
#
# Indices 1 2 3 4 5 6 
#
# 1 14.3969 12.1429 13.7368 0.0000 0.0000 0.0000
# 2 12.1429 160.5764 148.8556 0.0000 0.0000 0.0000
# 3 13.7368 148.8556 195.3176 0.0000 0.0000 0.0000
# 4 0.0000 0.0000 0.0000 2.2791 0.0000 0.0000
# 5 0.0000 0.0000 0.0000 0.0000 10.5004 0.0000
# 6 0.0000 0.0000 0.0000 0.0000 0.0000 12.5914
#
#
#
# Elastic Compliance Matrix: (Units=1/GPa)
#
#
# Indices 1 2 3 4 5 6 
#
# 1 0.074787 -0.002656 -0.003236 0.000000 0.000000 0.000000
# 2 -0.002656 0.021312 -0.016056 0.000000 0.000000 0.000000
# 3 -0.003236 -0.016056 0.017584 0.000000 0.000000 0.000000
# 4 0.000000 0.000000 0.000000 0.438773 0.000000 0.000000
# 5 0.000000 0.000000 0.000000 0.000000 0.095235 0.000000
# 6 0.000000 0.000000 0.000000 0.000000 0.000000 0.079420
#
#
# Mechanical properties :
#
#
# Convention : Reuss Voigt Hill
#
# Bulk Modulus (GPa) = 14.32902 79.97351 47.15126
# Shear Modulus (GPa) = 6.29511 18.11120 12.20316
#
# Velocity S-wave (km/s) = 1.80431 3.06043 2.51215
# Velocity P-wave (km/s) = 3.42797 7.33804 5.72704
#
# Compressibility (1/GPa) = 0.06978845
#
# Stress axis : x y z
#
# Youngs Moduli (GPa) = 13.37129 46.92195 56.87100
#
# Poissons Ratio (x) = 0.12463 0.18401
# Poissons Ratio (y) = 0.03551 0.91309
# Poissons Ratio (z) = 0.04326 0.75336
#
# Static dielectric constant tensor:
#      x y z
#    x 1.698420 0.000000 0.000000 
#    y 0.000000 1.772860 0.000000 
#    z 0.000000 0.000000 1.673830 
# 
# From -- ./inp_files/73082.got.cif
#   From: 2010.05.17/outbox.cif.g08.bks.cpg/sg65_37_cif.got.tgz:73082.got - 2010.06.03 17:01:31.
