data_PCOD9488405
_publ_section_title
;
Structure prediction by ZEFSAII (Michael W. Deem and Ramdas Pophale) SiO2 
 PCOD9488405
Probable space group: C M M M
;
_chemical_formula_sum "Si O2"
_cell_formula_units_Z 64
_cell_length_a 8.928313
_cell_length_b 36.948784
_cell_length_c 11.894760
_cell_angle_alpha 90.000000
_cell_angle_beta 90.000000
_cell_angle_gamma 90.000000
_cell_volume 3923.966046
_symmetry_space_group_name_H-M "C M M M"
_symmetry_group_IT_number 65
_symmetry_cell_setting 'orthorhombic'
loop_
_space_group_symop_operation_xyz
x,y,z
-x,-y,z
x,-y,-z
-x,y,-z
-x,-y,-z
x,y,-z
-x,y,z
x,-y,z
1/2+x,1/2+y,z
1/2-x,1/2-y,z
1/2+x,1/2-y,-z
1/2-x,1/2+y,-z
1/2-x,1/2-y,-z
1/2+x,1/2+y,-z
1/2-x,1/2+y,z
1/2+x,1/2-y,z
loop_
_atom_site_type_symbol
_atom_site_label
_atom_site_fract_x
_atom_site_fract_y
_atom_site_fract_z
Si Si1 0.818197 0.958119 0.500000
Si Si2 0.172340 0.787056 0.863335
Si Si3 0.680352 0.568876 0.743991
Si Si4 0.321077 0.137068 0.133079
Si Si5 0.322977 0.000000 0.134235
O O1 0.773989 0.938166 0.614521
O O2 0.000000 0.959459 0.500000
O O3 0.766078 0.000000 0.500000
O O4 0.250000 0.750000 0.824432
O O5 0.260563 0.823428 0.832793
O O6 0.000000 0.788893 0.826762
O O7 0.172678 0.785896 0.000000
O O8 0.500000 0.568856 0.750532
O O9 0.744628 0.605679 0.795178
O O10 0.745463 0.535336 0.814380
O O11 0.500000 0.135598 0.144574
O O12 0.285635 0.131837 0.000000
O O13 0.500000 0.000000 0.161019
O O14 0.307292 0.000000 0.000000
#
# Coordination Sequence:
#
# PCOD9488405 Si02
#       5
#     8  16  16  16   8
#     4   9  18  36  56  74  95 122 161 214 262 296
#     4   9  16  27  45  70 100 135 172 205 242 292
#     4  11  21  35  55  74  95 127 168 209 251 299
#     4  10  20  33  48  71 106 139 166 204 251 296
#     4  11  23  36  49  70 102 133 160 197 248 301
#
# _framework density 16.310029
#
# number of rings (size 3 to 8) (size 9 to 14) (size 15 to 20)
#    0.000    2.000    1.250    3.375    0.000    8.500 
#    0.000    3.125    0.000    0.000    0.000    0.875 
#    0.000    0.000    0.000    0.000    0.000    0.000 
#
# Total GULP energy -178570.023677 kJ/mol
# GULP energy per Si atom -5580.313240 kJ/mol
# Density = 1.627291 g / cm^3
# Si number density = 16.310029 Si / 1000 Ang^3
#
#
#
# Elastic Constant Matrix: (Units=GPa)
#
#
# Indices 1 2 3 4 5 6 
#
# 1 89.3608 71.1010 53.7300 0.0000 0.0000 0.0000
# 2 71.1010 178.3687 73.8351 0.0000 0.0000 0.0000
# 3 53.7300 73.8351 83.4014 0.0000 0.0000 0.0000
# 4 0.0000 0.0000 0.0000 -3.6750 0.0000 0.0000
# 5 0.0000 0.0000 0.0000 0.0000 8.4921 0.0000
# 6 0.0000 0.0000 0.0000 0.0000 0.0000 36.1947
#
#
#
# Elastic Compliance Matrix: (Units=1/GPa)
#
#
# Indices 1 2 3 4 5 6 
#
# 1 0.020062 -0.004178 -0.009226 0.000000 0.000000 0.000000
# 2 -0.004178 0.009720 -0.005913 0.000000 0.000000 0.000000
# 3 -0.009226 -0.005913 0.023169 0.000000 0.000000 0.000000
# 4 0.000000 0.000000 0.000000 -0.272107 0.000000 0.000000
# 5 0.000000 0.000000 0.000000 0.000000 0.117756 0.000000
# 6 0.000000 0.000000 0.000000 0.000000 0.000000 0.027628
#
#
# Mechanical properties :
#
#
# Convention : Reuss Voigt Hill
#
# Bulk Modulus (GPa) = 69.85017 83.16257 76.50637
# Shear Modulus (GPa) = -164.65317 18.36668 -73.14324
#
# Velocity S-wave (km/s) = -10.05839 3.35938 -6.70395
# Velocity P-wave (km/s) = 9.59039 8.13305 3.59367
#
# Compressibility (1/GPa) = 0.01431636
#
# Stress axis : x y z
#
# Youngs Moduli (GPa) = 49.84495 102.88587 43.16199
#
# Poissons Ratio (x) = 0.42987 0.39821
# Poissons Ratio (y) = 0.20826 0.25521
# Poissons Ratio (z) = 0.45986 0.60836
#
# Static dielectric constant tensor:
#      x y z
#    x 1.547810 0.000000 0.000000 
#    y 0.000000 1.527910 0.000000 
#    z 0.000000 0.000000 1.528380 
# 
# From -- ./inp_files/20952.got.cif
#   From: 2010.05.17/outbox.cif.g08.bks.cpg/sg65_11_cif.got.tgz:20952.got - 2010.06.03 17:01:31.
