data_PCOD9488101
_publ_section_title
;
Structure prediction by ZEFSAII (Michael W. Deem and Ramdas Pophale) SiO2 
 PCOD9488101
Probable space group: C M M M
;
_chemical_formula_sum "Si O2"
_cell_formula_units_Z 88
_cell_length_a 19.187046
_cell_length_b 8.109037
_cell_length_c 31.517590
_cell_angle_alpha 90.000000
_cell_angle_beta 90.000000
_cell_angle_gamma 90.000000
_cell_volume 4903.773478
_symmetry_space_group_name_H-M "C M M M"
_symmetry_group_IT_number 65
_symmetry_cell_setting 'orthorhombic'
loop_
_space_group_symop_operation_xyz
x,y,z
-x,-y,z
x,-y,-z
-x,y,-z
-x,-y,-z
x,y,-z
-x,y,z
x,-y,z
1/2+x,1/2+y,z
1/2-x,1/2-y,z
1/2+x,1/2-y,-z
1/2-x,1/2+y,-z
1/2-x,1/2-y,-z
1/2+x,1/2+y,-z
1/2-x,1/2+y,z
1/2+x,1/2-y,z
loop_
_atom_site_type_symbol
_atom_site_label
_atom_site_fract_x
_atom_site_fract_y
_atom_site_fract_z
Si Si1 0.081677 0.198210 0.954270
Si Si2 0.416114 0.306143 0.392242
Si Si3 0.415325 0.000000 0.548577
Si Si4 0.421040 0.195667 0.863921
Si Si5 0.829697 0.198056 0.690476
Si Si6 0.829576 0.803197 0.784792
O O1 0.111576 0.253856 0.909291
O O2 0.000000 0.250496 0.953729
O O3 0.082831 0.000000 0.954511
O O4 0.110996 0.255150 0.000000
O O5 0.500000 0.300493 0.388021
O O6 0.398198 0.500000 0.401786
O O7 0.395105 0.168438 0.426883
O O8 0.379924 0.255482 0.348023
O O9 0.500000 0.000000 0.547907
O O10 0.390783 0.000000 0.500000
O O11 0.500000 0.266063 0.861431
O O12 0.377544 0.246073 0.823087
O O13 0.425875 0.000000 0.864268
O O14 0.750000 0.250000 0.682337
O O15 0.849825 0.260094 0.737599
O O16 0.831381 0.000000 0.692150
O O17 0.750000 0.750000 0.792011
O O18 0.832214 0.000000 0.783750
#
# Coordination Sequence:
#
# PCOD9488101 Si02
#       6
#    16  16   8  16  16  16
#     4   8  14  26  45  68  93 123 161 202 245 297
#     4   9  18  33  52  78 108 136 173 217 258 303
#     4   9  18  32  52  80 108 138 175 211 258 310
#     4  10  20  32  47  72 103 132 165 205 251 298
#     4   9  19  33  52  76  98 131 170 207 253 304
#     4  10  20  35  53  72  99 132 170 209 250 306
#
# _framework density 17.945364999999999
#
# number of rings (size 3 to 8) (size 9 to 14) (size 15 to 20)
#    0.000    2.818    0.000    1.636    1.273    3.273 
#    0.000    5.455    0.000    1.091    0.000    0.000 
#    0.000    0.000    0.000    0.000    0.000    0.000 
#
# Total GULP energy -244985.134573 kJ/mol
# GULP energy per Si atom -5567.843968 kJ/mol
# Density = 1.790452 g / cm^3
# Si number density = 17.945365 Si / 1000 Ang^3
#
#
#
# Elastic Constant Matrix: (Units=GPa)
#
#
# Indices 1 2 3 4 5 6 
#
# 1 26.8518 19.4486 60.7420 0.0000 0.0000 0.0000
# 2 19.4486 57.4416 64.9019 0.0000 0.0000 0.0000
# 3 60.7420 64.9019 202.7817 0.0000 0.0000 0.0000
# 4 0.0000 0.0000 0.0000 15.3456 0.0000 0.0000
# 5 0.0000 0.0000 0.0000 0.0000 -18.4371 0.0000
# 6 0.0000 0.0000 0.0000 0.0000 0.0000 18.4336
#
#
#
# Elastic Compliance Matrix: (Units=1/GPa)
#
#
# Indices 1 2 3 4 5 6 
#
# 1 0.115515 -0.000024 -0.034594 0.000000 0.000000 0.000000
# 2 -0.000024 0.027271 -0.008721 0.000000 0.000000 0.000000
# 3 -0.034594 -0.008721 0.018085 0.000000 0.000000 0.000000
# 4 0.000000 0.000000 0.000000 0.065165 0.000000 0.000000
# 5 0.000000 0.000000 0.000000 0.000000 -0.054238 0.000000
# 6 0.000000 0.000000 0.000000 0.000000 0.000000 0.054249
#
#
# Mechanical properties :
#
#
# Convention : Reuss Voigt Hill
#
# Bulk Modulus (GPa) = 13.47845 64.13999 38.80922
# Shear Modulus (GPa) = 14.81673 12.53390 13.67532
#
# Velocity S-wave (km/s) = 2.87654 2.64568 2.76353
# Velocity P-wave (km/s) = 4.30811 6.71954 5.64412
#
# Compressibility (1/GPa) = 0.07419249
#
# Stress axis : x y z
#
# Youngs Moduli (GPa) = 8.65687 36.66924 55.29420
#
# Poissons Ratio (x) = 0.00089 1.91285
# Poissons Ratio (y) = 0.00021 0.48222
# Poissons Ratio (z) = 0.29948 0.31979
#
# Static dielectric constant tensor:
#      x y z
#    x 1.588210 0.000000 0.000000 
#    y 0.000000 1.622370 0.000000 
#    z 0.000000 0.000000 1.651280 
# 
# From -- ./inp_files/77849.got.cif
#   From: 2010.05.17/outbox.cif.g08.bks.cpg/sg65_39_cif.got.tgz:77849.got - 2010.06.03 17:01:31.
