data_PCOD9488568
_publ_section_title
;
Structure prediction by ZEFSAII (Michael W. Deem and Ramdas Pophale) SiO2 
 PCOD9488568
Probable space group: C M M M
;
_chemical_formula_sum "Si O2"
_cell_formula_units_Z 96
_cell_length_a 9.248840
_cell_length_b 19.247292
_cell_length_c 31.533734
_cell_angle_alpha 90.000000
_cell_angle_beta 90.000000
_cell_angle_gamma 90.000000
_cell_volume 5613.481573
_symmetry_space_group_name_H-M "C M M M"
_symmetry_group_IT_number 65
_symmetry_cell_setting 'orthorhombic'
loop_
_space_group_symop_operation_xyz
x,y,z
-x,-y,z
x,-y,-z
-x,y,-z
-x,-y,-z
x,y,-z
-x,y,z
x,-y,z
1/2+x,1/2+y,z
1/2-x,1/2-y,z
1/2+x,1/2-y,-z
1/2-x,1/2+y,-z
1/2-x,1/2-y,-z
1/2+x,1/2+y,-z
1/2-x,1/2+y,z
1/2+x,1/2-y,z
loop_
_atom_site_type_symbol
_atom_site_label
_atom_site_fract_x
_atom_site_fract_y
_atom_site_fract_z
Si Si1 0.670650 0.082998 0.451590
Si Si2 0.172282 0.175811 0.285553
Si Si3 0.334209 0.415359 0.130839
Si Si4 0.669955 0.083538 0.216551
Si Si5 0.831610 0.415461 0.952681
Si Si6 0.171144 0.823488 0.616096
O O1 0.708876 0.103121 0.500000
O O2 0.500000 0.097994 0.445572
O O3 0.763426 0.122341 0.416854
O O4 0.688794 0.000000 0.448157
O O5 0.250000 0.250000 0.279361
O O6 0.243440 0.121247 0.253748
O O7 0.195370 0.155335 0.334815
O O8 0.000000 0.181847 0.278519
O O9 0.500000 0.392752 0.135505
O O10 0.334142 0.500000 0.129826
O O11 0.238449 0.395462 0.171328
O O12 0.264787 0.391334 0.086538
O O13 0.500000 0.100650 0.218163
O O14 0.683983 0.000000 0.220310
O O15 0.826786 0.500000 0.952575
O O16 0.000000 0.396591 0.946597
O O17 0.785653 0.393117 0.000000
O O18 0.250000 0.750000 0.609867
O O19 0.000000 0.815393 0.609920
#
# Coordination Sequence:
#
# PCOD9488568 Si02
#       6
#    16  16  16  16  16  16
#     4   9  19  36  56  78 106 139 172 207 248 293
#     4  10  21  37  55  75 101 131 165 206 251 298
#     4   9  16  25  38  58  86 119 155 198 245 290
#     4  10  20  33  50  72  98 130 167 204 246 298
#     4   8  13  21  33  50  76 113 154 193 236 289
#     4  10  21  36  55  78 103 133 168 207 250 296
#
# _framework density 17.101686000000001
#
# number of rings (size 3 to 8) (size 9 to 14) (size 15 to 20)
#    0.000    2.667    0.000    3.000    0.000    7.000 
#    0.000    5.833    0.000    0.000    0.000    0.000 
#    0.000    0.667    0.000    2.500    0.000    5.833 
#
# Total GULP energy -267620.166532 kJ/mol
# GULP energy per Si atom -5575.420136 kJ/mol
# Density = 1.706276 g / cm^3
# Si number density = 17.101686 Si / 1000 Ang^3
#
#
#
# Elastic Constant Matrix: (Units=GPa)
#
#
# Indices 1 2 3 4 5 6 
#
# 1 128.5162 43.1274 105.5223 0.0000 0.0000 0.0000
# 2 43.1274 23.4716 53.1420 0.0000 0.0000 0.0000
# 3 105.5223 53.1420 148.0741 0.0000 0.0000 0.0000
# 4 0.0000 0.0000 0.0000 -27.3641 0.0000 0.0000
# 5 0.0000 0.0000 0.0000 0.0000 37.6062 0.0000
# 6 0.0000 0.0000 0.0000 0.0000 0.0000 25.4848
#
#
#
# Elastic Compliance Matrix: (Units=1/GPa)
#
#
# Indices 1 2 3 4 5 6 
#
# 1 0.021260 -0.025402 -0.006034 0.000000 0.000000 0.000000
# 2 -0.025402 0.257646 -0.074364 0.000000 0.000000 0.000000
# 3 -0.006034 -0.074364 0.037742 0.000000 0.000000 0.000000
# 4 0.000000 0.000000 0.000000 -0.036544 0.000000 0.000000
# 5 0.000000 0.000000 0.000000 0.000000 0.026591 0.000000
# 6 0.000000 0.000000 0.000000 0.000000 0.000000 0.039239
#
#
# Mechanical properties :
#
#
# Convention : Reuss Voigt Hill
#
# Bulk Modulus (GPa) = 9.51944 78.18280 43.85112
# Shear Modulus (GPa) = 8.43811 13.69671 11.06741
#
# Velocity S-wave (km/s) = 2.22369 2.83308 2.54668
# Velocity P-wave (km/s) = 3.48877 7.51781 5.86042
#
# Compressibility (1/GPa) = 0.10504815
#
# Stress axis : x y z
#
# Youngs Moduli (GPa) = 47.03684 3.88129 26.49588
#
# Poissons Ratio (x) = 0.09859 0.15988
# Poissons Ratio (y) = 1.19482 1.97033
# Poissons Ratio (z) = 0.28382 0.28863
#
# Static dielectric constant tensor:
#      x y z
#    x 1.568250 0.000000 0.000000 
#    y 0.000000 1.553720 0.000000 
#    z 0.000000 0.000000 1.576830 
# 
# From -- ./inp_files/73156.got.cif
#   From: 2010.05.17/outbox.cif.g08.bks.cpg/sg65_37_cif.got.tgz:73156.got - 2010.06.03 17:01:31.
