data_PCOD9488273
_publ_section_title
;
Structure prediction by ZEFSAII (Michael W. Deem and Ramdas Pophale) SiO2 
 PCOD9488273
Probable space group: C M M M
;
_chemical_formula_sum "Si O2"
_cell_formula_units_Z 88
_cell_length_a 19.220437
_cell_length_b 28.085903
_cell_length_c 9.198522
_cell_angle_alpha 90.000000
_cell_angle_beta 90.000000
_cell_angle_gamma 90.000000
_cell_volume 4965.576770
_symmetry_space_group_name_H-M "C M M M"
_symmetry_group_IT_number 65
_symmetry_cell_setting 'orthorhombic'
loop_
_space_group_symop_operation_xyz
x,y,z
-x,-y,z
x,-y,-z
-x,y,-z
-x,-y,-z
x,y,-z
-x,y,z
x,-y,z
1/2+x,1/2+y,z
1/2-x,1/2-y,z
1/2+x,1/2-y,-z
1/2-x,1/2+y,-z
1/2-x,1/2-y,-z
1/2+x,1/2+y,-z
1/2-x,1/2+y,z
1/2+x,1/2-y,z
loop_
_atom_site_type_symbol
_atom_site_label
_atom_site_fract_x
_atom_site_fract_y
_atom_site_fract_z
Si Si1 0.579922 0.269989 0.825182
Si Si2 0.639344 0.081658 0.832733
Si Si3 0.328818 0.656364 0.673883
Si Si4 0.808680 0.689257 0.167960
Si Si5 0.721541 0.552477 0.674132
Si Si6 0.000000 0.556899 0.335527
O O1 0.500000 0.258282 0.787111
O O2 0.606297 0.317753 0.747919
O O3 0.635294 0.228695 0.785971
O O4 0.583223 0.275314 0.000000
O O5 0.654494 0.137980 0.830439
O O6 0.704394 0.057323 0.753116
O O7 0.568618 0.072070 0.749215
O O8 0.634919 0.065946 0.000000
O O9 0.331770 0.660320 0.500000
O O10 0.259776 0.683098 0.734427
O O11 0.321009 0.600279 0.713256
O O12 0.787476 0.698813 0.000000
O O13 0.732447 0.554667 0.500000
O O14 0.691419 0.500000 0.707834
O O15 0.000000 0.500000 0.342329
O O16 0.000000 0.575899 0.500000
#
# Coordination Sequence:
#
# PCOD9488273 Si02
#       6
#    16  16  16  16  16   8
#     4  10  21  36  55  76 103 140 177 209 252 312
#     4  10  20  32  50  74  99 127 169 221 258 293
#     4  10  20  34  54  80 108 134 169 215 258 302
#     4   9  19  35  55  76 102 137 174 210 252 306
#     4   9  18  34  54  74 100 134 168 204 254 314
#     4  11  23  35  45  61  95 141 177 209 258 313
#
# _framework density 17.722010000000001
#
# number of rings (size 3 to 8) (size 9 to 14) (size 15 to 20)
#    0.000    2.273    0.000    2.455    1.273    8.000 
#    0.000    0.000    0.000    0.545    0.000    3.818 
#    0.000    0.000    0.000    0.000    0.000    0.000 
#
# Total GULP energy -245483.967475 kJ/mol
# GULP energy per Si atom -5579.181079 kJ/mol
# Density = 1.768167 g / cm^3
# Si number density = 17.722010 Si / 1000 Ang^3
#
#
#
# Elastic Constant Matrix: (Units=GPa)
#
#
# Indices 1 2 3 4 5 6 
#
# 1 43.9410 34.5069 15.7062 0.0000 0.0000 0.0000
# 2 34.5069 110.3306 23.4800 0.0000 0.0000 0.0000
# 3 15.7062 23.4800 29.3836 0.0000 0.0000 0.0000
# 4 0.0000 0.0000 0.0000 25.3808 0.0000 0.0000
# 5 0.0000 0.0000 0.0000 0.0000 32.0147 0.0000
# 6 0.0000 0.0000 0.0000 0.0000 0.0000 10.0279
#
#
#
# Elastic Compliance Matrix: (Units=1/GPa)
#
#
# Indices 1 2 3 4 5 6 
#
# 1 0.033024 -0.007919 -0.011324 0.000000 0.000000 0.000000
# 2 -0.007919 0.012820 -0.006011 0.000000 0.000000 0.000000
# 3 -0.011324 -0.006011 0.044889 0.000000 0.000000 0.000000
# 4 0.000000 0.000000 0.000000 0.039400 0.000000 0.000000
# 5 0.000000 0.000000 0.000000 0.000000 0.031236 0.000000
# 6 0.000000 0.000000 0.000000 0.000000 0.000000 0.099722
#
#
# Mechanical properties :
#
#
# Convention : Reuss Voigt Hill
#
# Bulk Modulus (GPa) = 24.86058 36.78236 30.82147
# Shear Modulus (GPa) = 15.38428 20.81548 18.09988
#
# Velocity S-wave (km/s) = 2.94953 3.43090 3.19928
# Velocity P-wave (km/s) = 5.06539 6.04111 5.57464
#
# Compressibility (1/GPa) = 0.04022433
#
# Stress axis : x y z
#
# Youngs Moduli (GPa) = 30.28100 78.00582 22.27699
#
# Poissons Ratio (x) = 0.61769 0.25228
# Poissons Ratio (y) = 0.23978 0.13391
# Poissons Ratio (z) = 0.34292 0.46892
#
# Static dielectric constant tensor:
#      x y z
#    x 1.558380 0.000000 0.000000 
#    y 0.000000 1.635950 0.000000 
#    z 0.000000 0.000000 1.599890 
# 
# From -- ./inp_files/10006.got.cif
#   From: 2010.05.17/outbox.cif.g08.bks.cpg/sg65_6_cif.got.tgz:10006.got - 2010.06.03 17:01:31.
