data_PCOD9488970
_publ_section_title
;
Structure prediction by ZEFSAII (Michael W. Deem and Ramdas Pophale) SiO2 
 PCOD9488970
Probable space group: C M M M
;
_chemical_formula_sum "Si O2"
_cell_formula_units_Z 96
_cell_length_a 24.285258
_cell_length_b 21.446583
_cell_length_c 7.995629
_cell_angle_alpha 90.000000
_cell_angle_beta 90.000000
_cell_angle_gamma 90.000000
_cell_volume 4164.409838
_symmetry_space_group_name_H-M "C M M M"
_symmetry_group_IT_number 65
_symmetry_cell_setting 'orthorhombic'
loop_
_space_group_symop_operation_xyz
x,y,z
-x,-y,z
x,-y,-z
-x,y,-z
-x,-y,-z
x,y,-z
-x,y,z
x,-y,z
1/2+x,1/2+y,z
1/2-x,1/2-y,z
1/2+x,1/2-y,-z
1/2-x,1/2+y,-z
1/2-x,1/2-y,-z
1/2+x,1/2+y,-z
1/2-x,1/2+y,z
1/2+x,1/2-y,z
loop_
_atom_site_type_symbol
_atom_site_label
_atom_site_fract_x
_atom_site_fract_y
_atom_site_fract_z
Si Si1 0.411490 0.931772 0.194549
Si Si2 0.560525 0.798569 0.692433
Si Si3 0.822680 0.870309 0.702542
Si Si4 0.938876 0.073673 0.296696
Si Si5 0.293351 0.099218 0.691771
Si Si6 0.675263 0.230417 0.812355
O O1 0.434874 0.873489 0.294994
O O2 0.344988 0.927905 0.208928
O O3 0.429264 0.000000 0.252351
O O4 0.426704 0.924208 0.000000
O O5 0.569591 0.779307 0.500000
O O6 0.500000 0.778703 0.744374
O O7 0.609262 0.772883 0.802897
O O8 0.823066 0.871832 0.500000
O O9 0.882879 0.892747 0.761888
O O10 0.768946 0.910362 0.754370
O O11 0.811021 0.799829 0.758772
O O12 0.938910 0.078814 0.500000
O O13 0.000000 0.095723 0.240360
O O14 0.934895 0.000000 0.257282
O O15 0.297577 0.077948 0.500000
O O16 0.304156 0.174022 0.697602
O O17 0.693804 0.216737 0.000000
#
# Coordination Sequence:
#
# PCOD9488970 Si02
#       6
#    16  16  16  16  16  16
#     4  10  21  36  54  77 107 142 177 216 264 317
#     4  10  21  37  57  79 104 137 177 221 266 310
#     4  10  20  33  53  81 107 134 174 218 259 309
#     4   8  15  30  52  77 104 132 164 206 254 301
#     4  10  20  34  53  76 105 139 175 220 266 308
#     4  11  22  35  53  76 106 141 174 213 262 316
#
# _framework density 23.052485999999998
#
# number of rings (size 3 to 8) (size 9 to 14) (size 15 to 20)
#    0.000    2.167    0.000    6.000    0.000    7.667 
#    0.000    5.000    0.000    0.500    0.000    1.167 
#    0.000    0.000    0.000    0.000    0.000    0.000 
#
# Total GULP energy -268113.221051 kJ/mol
# GULP energy per Si atom -5585.692105 kJ/mol
# Density = 2.300002 g / cm^3
# Si number density = 23.052486 Si / 1000 Ang^3
#
#
#
# Elastic Constant Matrix: (Units=GPa)
#
#
# Indices 1 2 3 4 5 6 
#
# 1 116.2314 -1.8746 13.9886 0.0000 0.0000 0.0000
# 2 -1.8746 36.6052 -4.4052 0.0000 0.0000 0.0000
# 3 13.9886 -4.4052 37.8834 0.0000 0.0000 0.0000
# 4 0.0000 0.0000 0.0000 11.9307 0.0000 0.0000
# 5 0.0000 0.0000 0.0000 0.0000 -51.0694 0.0000
# 6 0.0000 0.0000 0.0000 0.0000 0.0000 -12.8982
#
#
#
# Elastic Compliance Matrix: (Units=1/GPa)
#
#
# Indices 1 2 3 4 5 6 
#
# 1 0.009004 0.000062 -0.003317 0.000000 0.000000 0.000000
# 2 0.000062 0.027707 0.003199 0.000000 0.000000 0.000000
# 3 -0.003317 0.003199 0.027994 0.000000 0.000000 0.000000
# 4 0.000000 0.000000 0.000000 0.083818 0.000000 0.000000
# 5 0.000000 0.000000 0.000000 0.000000 -0.019581 0.000000
# 6 0.000000 0.000000 0.000000 0.000000 0.000000 -0.077530
#
#
# Mechanical properties :
#
#
# Convention : Reuss Voigt Hill
#
# Bulk Modulus (GPa) = 15.48205 22.90418 19.19312
# Shear Modulus (GPa) = 68.44225 1.79335 35.11780
#
# Velocity S-wave (km/s) = 5.45474 0.88297 3.90729
# Velocity P-wave (km/s) = 6.81196 3.31613 5.35722
#
# Compressibility (1/GPa) = 0.06459091
#
# Stress axis : x y z
#
# Youngs Moduli (GPa) = 111.06438 36.09236 35.72226
#
# Poissons Ratio (x) = -0.00223 0.11851
# Poissons Ratio (y) = -0.00687 -0.11427
# Poissons Ratio (z) = 0.36846 -0.11546
#
# Static dielectric constant tensor:
#      x y z
#    x 1.918990 0.000000 0.000000 
#    y 0.000000 1.844910 0.000000 
#    z 0.000000 0.000000 1.787190 
# 
# From -- ./inp_files/14298.got.cif
#   From: 2010.05.17/outbox.cif.g08.bks.cpg/sg65_8_cif.got.tgz:14298.got - 2010.06.03 17:01:31.
