data_PCOD9488937
_publ_section_title
;
Structure prediction by ZEFSAII (Michael W. Deem and Ramdas Pophale) SiO2 
 PCOD9488937
Probable space group: C M M M
;
_chemical_formula_sum "Si O2"
_cell_formula_units_Z 88
_cell_length_a 21.121351
_cell_length_b 14.454814
_cell_length_c 14.728111
_cell_angle_alpha 90.000000
_cell_angle_beta 90.000000
_cell_angle_gamma 90.000000
_cell_volume 4496.568876
_symmetry_space_group_name_H-M "C M M M"
_symmetry_group_IT_number 65
_symmetry_cell_setting 'orthorhombic'
loop_
_space_group_symop_operation_xyz
x,y,z
-x,-y,z
x,-y,-z
-x,y,-z
-x,-y,-z
x,y,-z
-x,y,z
x,-y,z
1/2+x,1/2+y,z
1/2-x,1/2-y,z
1/2+x,1/2-y,-z
1/2-x,1/2+y,-z
1/2-x,1/2-y,-z
1/2+x,1/2+y,-z
1/2-x,1/2+y,z
1/2+x,1/2-y,z
loop_
_atom_site_type_symbol
_atom_site_label
_atom_site_fract_x
_atom_site_fract_y
_atom_site_fract_z
Si Si1 0.305859 0.106632 0.715054
Si Si2 0.142287 0.890281 0.102403
Si Si3 0.188387 0.106321 0.401758
Si Si4 0.429443 0.153528 0.608829
Si Si5 0.429389 0.347639 0.715858
Si Si6 0.250000 0.250000 0.154317
O O1 0.247492 0.142267 0.653687
O O2 0.369084 0.105254 0.654371
O O3 0.301261 0.184444 0.792744
O O4 0.294572 0.000000 0.746349
O O5 0.095104 0.854778 0.180984
O O6 0.205420 0.827128 0.107663
O O7 0.155392 0.000000 0.119669
O O8 0.116434 0.882806 0.000000
O O9 0.179607 0.151149 0.500000
O O10 0.124973 0.106439 0.344086
O O11 0.205783 0.000000 0.413909
O O12 0.419975 0.167409 0.500000
O O13 0.500000 0.110643 0.618112
O O14 0.432007 0.247425 0.668001
O O15 0.500000 0.387218 0.709374
#
# Coordination Sequence:
#
# PCOD9488937 Si02
#       6
#    16  16  16  16  16   8
#     4  11  21  36  62  90 120 162 205 248 300 355
#     4  11  24  42  65  92 120 153 196 245 303 368
#     4  10  20  33  52  82 117 154 198 242 287 344
#     4  10  21  37  58  87 124 165 206 248 297 351
#     4  11  22  38  58  84 120 159 199 247 302 356
#     4  12  21  40  63  92 122 156 193 246 305 356
#
# _framework density 19.570477
#
# number of rings (size 3 to 8) (size 9 to 14) (size 15 to 20)
#    0.000    1.273    3.636    2.455    0.000    4.364 
#    0.000    5.455    0.000    0.000    0.000    0.000 
#    0.000    2.909    0.000    0.000    0.000    0.000 
#
# Total GULP energy -244986.686004 kJ/mol
# GULP energy per Si atom -5567.879227 kJ/mol
# Density = 1.952593 g / cm^3
# Si number density = 19.570477 Si / 1000 Ang^3
#
#
#
# Elastic Constant Matrix: (Units=GPa)
#
#
# Indices 1 2 3 4 5 6 
#
# 1 72.7855 23.2952 -3.2226 0.0000 0.0000 0.0000
# 2 23.2952 108.8950 39.3356 0.0000 0.0000 0.0000
# 3 -3.2226 39.3356 74.0540 0.0000 0.0000 0.0000
# 4 0.0000 0.0000 0.0000 17.1838 0.0000 0.0000
# 5 0.0000 0.0000 0.0000 0.0000 6.5483 0.0000
# 6 0.0000 0.0000 0.0000 0.0000 0.0000 40.2989
#
#
#
# Elastic Compliance Matrix: (Units=1/GPa)
#
#
# Indices 1 2 3 4 5 6 
#
# 1 0.015258 -0.004336 0.002967 0.000000 0.000000 0.000000
# 2 -0.004336 0.012596 -0.006879 0.000000 0.000000 0.000000
# 3 0.002967 -0.006879 0.017287 0.000000 0.000000 0.000000
# 4 0.000000 0.000000 0.000000 0.058194 0.000000 0.000000
# 5 0.000000 0.000000 0.000000 0.000000 0.152712 0.000000
# 6 0.000000 0.000000 0.000000 0.000000 0.000000 0.024815
#
#
# Mechanical properties :
#
#
# Convention : Reuss Voigt Hill
#
# Bulk Modulus (GPa) = 34.91051 41.61675 38.26363
# Shear Modulus (GPa) = 16.29166 25.89463 21.09314
#
# Velocity S-wave (km/s) = 2.88837 3.64146 3.28655
# Velocity P-wave (km/s) = 5.38523 6.24432 5.83062
#
# Compressibility (1/GPa) = 0.02864467
#
# Stress axis : x y z
#
# Youngs Moduli (GPa) = 65.53908 79.39270 57.84756
#
# Poissons Ratio (x) = 0.34423 -0.17164
# Poissons Ratio (y) = 0.28417 0.39794
# Poissons Ratio (z) = -0.19446 0.54615
#
# Static dielectric constant tensor:
#      x y z
#    x 1.712570 0.000000 0.000000 
#    y 0.000000 1.814730 0.000000 
#    z 0.000000 0.000000 1.799600 
# 
# From -- ./inp_files/43976.got.cif
#   From: 2010.05.17/outbox.cif.g08.bks.cpg/sg65_22_cif.got.tgz:43976.got - 2010.06.03 17:01:31.
