data_PCOD9489592
_publ_section_title
;
Structure prediction by ZEFSAII (Michael W. Deem and Ramdas Pophale) SiO2 
 PCOD9489592
Probable space group: C M M M
;
_chemical_formula_sum "Si O2"
_cell_formula_units_Z 100
_cell_length_a 29.341282
_cell_length_b 7.743463
_cell_length_c 23.133559
_cell_angle_alpha 90.000000
_cell_angle_beta 90.000000
_cell_angle_gamma 90.000000
_cell_volume 5256.017048
_symmetry_space_group_name_H-M "C M M M"
_symmetry_group_IT_number 65
_symmetry_cell_setting 'orthorhombic'
loop_
_space_group_symop_operation_xyz
x,y,z
-x,-y,z
x,-y,-z
-x,y,-z
-x,-y,-z
x,y,-z
-x,y,z
x,-y,z
1/2+x,1/2+y,z
1/2-x,1/2-y,z
1/2+x,1/2-y,-z
1/2-x,1/2+y,-z
1/2-x,1/2-y,-z
1/2+x,1/2+y,-z
1/2-x,1/2+y,z
1/2+x,1/2-y,z
loop_
_atom_site_type_symbol
_atom_site_label
_atom_site_fract_x
_atom_site_fract_y
_atom_site_fract_z
Si Si1 0.301135 0.710186 0.602475
Si Si2 0.850697 0.701599 0.062320
Si Si3 0.551041 0.302318 0.903667
Si Si4 0.803125 0.706798 0.178104
Si Si5 0.862050 0.200083 0.288694
Si Si6 0.449752 0.801702 0.774845
Si Si7 0.309091 0.000000 0.500000
O O1 0.303757 0.500000 0.588850
O O2 0.250000 0.750000 0.624398
O O3 0.337052 0.754025 0.652750
O O4 0.307875 0.844186 0.549995
O O5 0.837829 0.500000 0.060921
O O6 0.905197 0.711582 0.069934
O O7 0.826845 0.775443 0.119460
O O8 0.838176 0.779050 0.000000
O O9 0.500000 0.231700 0.914872
O O10 0.551706 0.500000 0.923732
O O11 0.557777 0.301011 0.834084
O O12 0.809213 0.500000 0.179978
O O13 0.750000 0.750000 0.178127
O O14 0.828061 0.777052 0.234755
O O15 0.909506 0.285083 0.270658
O O16 0.872564 0.000000 0.295494
O O17 0.500000 0.756953 0.751675
O O18 0.450419 0.000000 0.794423
#
# Coordination Sequence:
#
# PCOD9489592 Si02
#       7
#    16  16  16  16  16  16   4
#     4  11  24  38  60  93 125 170 212 244 294 352
#     4  10  22  39  56  77 105 146 195 242 295 357
#     4  10  20  34  54  81 111 145 186 235 295 357
#     4  11  23  38  59  80 110 150 191 246 300 353
#     4  11  23  38  59  90 124 153 197 246 291 351
#     4  10  20  34  57  86 118 154 192 237 295 355
#     4  12  24  40  66  86 133 176 197 260 284 348
#
# _framework density 19.025812999999999
#
# number of rings (size 3 to 8) (size 9 to 14) (size 15 to 20)
#    0.000    1.440    2.400    2.880    2.240    4.800 
#    0.000    1.600    0.000    0.000    0.000    1.120 
#    0.000    2.560    0.000    0.000    0.000    0.000 
#
# Total GULP energy -278496.677584 kJ/mol
# GULP energy per Si atom -5569.933552 kJ/mol
# Density = 1.898251 g / cm^3
# Si number density = 19.025813 Si / 1000 Ang^3
#
#
#
# Elastic Constant Matrix: (Units=GPa)
#
#
# Indices 1 2 3 4 5 6 
#
# 1 93.0447 3.3684 44.1264 0.0000 0.0000 0.0000
# 2 3.3684 59.3534 12.5610 0.0000 0.0000 0.0000
# 3 44.1264 12.5610 69.1353 0.0000 0.0000 0.0000
# 4 0.0000 0.0000 0.0000 -11.3015 0.0000 0.0000
# 5 0.0000 0.0000 0.0000 0.0000 27.3769 0.0000
# 6 0.0000 0.0000 0.0000 0.0000 0.0000 23.2010
#
#
#
# Elastic Compliance Matrix: (Units=1/GPa)
#
#
# Indices 1 2 3 4 5 6 
#
# 1 0.015503 0.001263 -0.010125 0.000000 0.000000 0.000000
# 2 0.001263 0.017625 -0.004008 0.000000 0.000000 0.000000
# 3 -0.010125 -0.004008 0.021655 0.000000 0.000000 0.000000
# 4 0.000000 0.000000 0.000000 -0.088484 0.000000 0.000000
# 5 0.000000 0.000000 0.000000 0.000000 0.036527 0.000000
# 6 0.000000 0.000000 0.000000 0.000000 0.000000 0.043102
#
#
# Mechanical properties :
#
#
# Convention : Reuss Voigt Hill
#
# Bulk Modulus (GPa) = 34.43178 37.96057 36.19617
# Shear Modulus (GPa) = 61.46363 18.62046 40.04205
#
# Velocity S-wave (km/s) = 5.68995 3.13180 4.59259
# Velocity P-wave (km/s) = 7.82969 5.75092 6.86939
#
# Compressibility (1/GPa) = 0.02904294
#
# Stress axis : x y z
#
# Youngs Moduli (GPa) = 64.50186 56.73815 46.17906
#
# Poissons Ratio (x) = -0.07165 0.46755
# Poissons Ratio (y) = -0.08146 0.18510
# Poissons Ratio (z) = 0.65306 0.22742
#
# Static dielectric constant tensor:
#      x y z
#    x 1.663220 0.000000 0.000000 
#    y 0.000000 1.703290 0.000000 
#    z 0.000000 0.000000 1.667780 
# 
# From -- ./inp_files/66430.got.cif
#   From: 2010.05.17/outbox.cif.g08.bks.cpg/sg65_34_cif.got.tgz:66430.got - 2010.06.03 17:01:31.
