data_PCOD9489629
_publ_section_title
;
Structure prediction by ZEFSAII (Michael W. Deem and Ramdas Pophale) SiO2 
 PCOD9489629
Probable space group: C M M M
;
_chemical_formula_sum "Si O2"
_cell_formula_units_Z 88
_cell_length_a 22.545125
_cell_length_b 17.369478
_cell_length_c 13.187105
_cell_angle_alpha 90.000000
_cell_angle_beta 90.000000
_cell_angle_gamma 90.000000
_cell_volume 5164.031452
_symmetry_space_group_name_H-M "C M M M"
_symmetry_group_IT_number 65
_symmetry_cell_setting 'orthorhombic'
loop_
_space_group_symop_operation_xyz
x,y,z
-x,-y,z
x,-y,-z
-x,y,-z
-x,-y,-z
x,y,-z
-x,y,z
x,-y,z
1/2+x,1/2+y,z
1/2-x,1/2-y,z
1/2+x,1/2-y,-z
1/2-x,1/2+y,-z
1/2-x,1/2-y,-z
1/2+x,1/2+y,-z
1/2-x,1/2+y,z
1/2+x,1/2-y,z
loop_
_atom_site_type_symbol
_atom_site_label
_atom_site_fract_x
_atom_site_fract_y
_atom_site_fract_z
Si Si1 0.603727 0.320433 0.236442
Si Si2 0.193811 0.092476 0.384506
Si Si3 0.000000 0.092266 0.880008
Si Si4 0.933804 0.315409 0.381272
Si Si5 0.677218 0.908296 0.702159
Si Si6 0.187044 0.707178 0.117006
O O1 0.651287 0.367901 0.302823
O O2 0.557066 0.373297 0.177659
O O3 0.572796 0.261182 0.314038
O O4 0.638285 0.267471 0.155951
O O5 0.179955 0.116650 0.500000
O O6 0.262623 0.110119 0.359902
O O7 0.187052 0.000000 0.378295
O O8 0.000000 0.000000 0.872926
O O9 0.000000 0.112892 0.000000
O O10 0.928168 0.297004 0.500000
O O11 0.880864 0.372345 0.349863
O O12 0.000000 0.348142 0.364320
O O13 0.684356 0.866431 0.810129
O O14 0.672398 0.000000 0.710520
O O15 0.250000 0.750000 0.128005
O O16 0.178312 0.686889 0.000000
#
# Coordination Sequence:
#
# PCOD9489629 Si02
#       6
#    16  16   8  16  16  16
#     4  11  20  38  57  82 110 149 186 234 280 333
#     4  10  20  34  54  82 115 149 183 224 277 336
#     4  11  24  40  59  83 112 149 193 235 281 335
#     4  10  21  36  57  84 113 149 190 231 275 330
#     4  10  21  37  57  83 116 150 187 231 282 336
#     4  10  20  36  58  83 110 144 186 232 284 335
#
# _framework density 17.040949000000001
#
# number of rings (size 3 to 8) (size 9 to 14) (size 15 to 20)
#    0.000    1.727    2.727    2.182    0.000    1.818 
#    0.000    3.636    0.000    2.182    0.000    2.545 
#    0.000    0.000    0.000    0.000    0.000    0.000 
#
# Total GULP energy -245574.606958 kJ/mol
# GULP energy per Si atom -5581.241067 kJ/mol
# Density = 1.700216 g / cm^3
# Si number density = 17.040949 Si / 1000 Ang^3
#
#
#
# Elastic Constant Matrix: (Units=GPa)
#
#
# Indices 1 2 3 4 5 6 
#
# 1 121.7199 46.8238 56.9793 0.0000 0.0000 0.0000
# 2 46.8238 69.9794 45.5703 0.0000 0.0000 0.0000
# 3 56.9793 45.5703 118.3385 0.0000 0.0000 0.0000
# 4 0.0000 0.0000 0.0000 12.8586 0.0000 0.0000
# 5 0.0000 0.0000 0.0000 0.0000 22.4925 0.0000
# 6 0.0000 0.0000 0.0000 0.0000 0.0000 27.8455
#
#
#
# Elastic Compliance Matrix: (Units=1/GPa)
#
#
# Indices 1 2 3 4 5 6 
#
# 1 0.012125 -0.005754 -0.003622 0.000000 0.000000 0.000000
# 2 -0.005754 0.021803 -0.005626 0.000000 0.000000 0.000000
# 3 -0.003622 -0.005626 0.012361 0.000000 0.000000 0.000000
# 4 0.000000 0.000000 0.000000 0.077769 0.000000 0.000000
# 5 0.000000 0.000000 0.000000 0.000000 0.044459 0.000000
# 6 0.000000 0.000000 0.000000 0.000000 0.000000 0.035912
#
#
# Mechanical properties :
#
#
# Convention : Reuss Voigt Hill
#
# Bulk Modulus (GPa) = 61.40553 67.64275 64.52414
# Shear Modulus (GPa) = 20.84538 23.35028 22.09783
#
# Velocity S-wave (km/s) = 3.50130 3.70570 3.60495
# Velocity P-wave (km/s) = 7.24277 7.62168 7.43464
#
# Compressibility (1/GPa) = 0.01628518
#
# Stress axis : x y z
#
# Youngs Moduli (GPa) = 82.47654 45.86460 80.90132
#
# Poissons Ratio (x) = 0.26390 0.29304
# Poissons Ratio (y) = 0.47457 0.45512
# Poissons Ratio (z) = 0.29875 0.25802
#
# Static dielectric constant tensor:
#      x y z
#    x 1.575360 0.000000 0.000000 
#    y 0.000000 1.546070 0.000000 
#    z 0.000000 0.000000 1.555180 
# 
# From -- ./inp_files/26795.got.cif
#   From: 2010.05.17/outbox.cif.g08.bks.cpg/sg65_14_cif.got.tgz:26795.got - 2010.06.03 17:01:31.
