data_PCOD9489750
_publ_section_title
;
Structure prediction by ZEFSAII (Michael W. Deem and Ramdas Pophale) SiO2 
 PCOD9489750
Probable space group: C M M M
;
_chemical_formula_sum "Si O2"
_cell_formula_units_Z 116
_cell_length_a 23.813967
_cell_length_b 27.112503
_cell_length_c 9.620864
_cell_angle_alpha 90.000000
_cell_angle_beta 90.000000
_cell_angle_gamma 90.000000
_cell_volume 6211.770989
_symmetry_space_group_name_H-M "C M M M"
_symmetry_group_IT_number 65
_symmetry_cell_setting 'orthorhombic'
loop_
_space_group_symop_operation_xyz
x,y,z
-x,-y,z
x,-y,-z
-x,y,-z
-x,-y,-z
x,y,-z
-x,y,z
x,-y,z
1/2+x,1/2+y,z
1/2-x,1/2-y,z
1/2+x,1/2-y,-z
1/2-x,1/2+y,-z
1/2-x,1/2-y,-z
1/2+x,1/2+y,-z
1/2-x,1/2+y,z
1/2+x,1/2-y,z
loop_
_atom_site_type_symbol
_atom_site_label
_atom_site_fract_x
_atom_site_fract_y
_atom_site_fract_z
Si Si1 0.627972 0.856593 0.839699
Si Si2 0.796443 0.103846 0.662679
Si Si3 0.748527 0.692496 0.838659
Si Si4 0.601223 0.576857 0.162704
Si Si5 0.500000 0.500000 0.214522
Si Si6 0.827521 0.442043 0.339533
Si Si7 0.067531 0.278296 0.656596
Si Si8 0.067712 0.809249 0.846361
O O1 0.688194 0.828663 0.834137
O O2 0.637277 0.908821 0.765622
O O3 0.585834 0.823394 0.751915
O O4 0.611429 0.861154 0.000000
O O5 0.809792 0.111016 0.500000
O O6 0.787603 0.156040 0.742032
O O7 0.844457 0.072856 0.740479
O O8 0.737249 0.075278 0.672444
O O9 0.750000 0.750000 0.798107
O O10 0.729048 0.689274 0.000000
O O11 0.549518 0.542697 0.206493
O O12 0.583823 0.634210 0.173568
O O13 0.613526 0.566506 0.000000
O O14 0.844367 0.432413 0.500000
O O15 0.832008 0.500000 0.312529
O O16 0.089328 0.283299 0.500000
O O17 0.088400 0.228128 0.729610
O O18 0.000000 0.276066 0.651078
O O19 0.000000 0.807078 0.846348
O O20 0.087207 0.792878 0.000000
#
# Coordination Sequence:
#
# PCOD9489750 Si02
#       8
#    16  16  16  16   4  16  16  16
#     4  10  20  34  56  86 116 147 185 233 283 333
#     4  10  22  37  55  82 113 148 190 235 288 350
#     4   9  19  36  56  81 114 150 187 231 287 347
#     4  11  22  38  59  80 107 144 194 250 303 354
#     4  12  25  44  65  86 109 152 213 270 317 364
#     4   9  19  38  60  80 110 151 189 227 277 341
#     4  10  21  36  56  83 116 153 189 226 271 334
#     4   9  18  34  54  75 102 140 185 233 283 336
#
# _framework density 18.674223000000001
#
# number of rings (size 3 to 8) (size 9 to 14) (size 15 to 20)
#    0.000    2.207    0.690    1.862    2.897    3.034 
#    0.000    0.690    0.000    0.414    0.000    2.897 
#    0.000    0.000    0.000    0.000    0.000    0.000 
#
# Total GULP energy -323271.072705 kJ/mol
# GULP energy per Si atom -5573.639185 kJ/mol
# Density = 1.863172 g / cm^3
# Si number density = 18.674223 Si / 1000 Ang^3
#
#
#
# Elastic Constant Matrix: (Units=GPa)
#
#
# Indices 1 2 3 4 5 6 
#
# 1 30.0869 15.2124 31.7717 0.0000 0.0000 0.0000
# 2 15.2124 114.2436 72.1397 0.0000 0.0000 0.0000
# 3 31.7717 72.1397 114.5976 0.0000 0.0000 0.0000
# 4 0.0000 0.0000 0.0000 15.6129 0.0000 0.0000
# 5 0.0000 0.0000 0.0000 0.0000 13.1275 0.0000
# 6 0.0000 0.0000 0.0000 0.0000 0.0000 12.3456
#
#
#
# Elastic Compliance Matrix: (Units=1/GPa)
#
#
# Indices 1 2 3 4 5 6 
#
# 1 0.047743 0.003321 -0.015327 0.000000 0.000000 0.000000
# 2 0.003321 0.014759 -0.010212 0.000000 0.000000 0.000000
# 3 -0.015327 -0.010212 0.019404 0.000000 0.000000 0.000000
# 4 0.000000 0.000000 0.000000 0.064050 0.000000 0.000000
# 5 0.000000 0.000000 0.000000 0.000000 0.076176 0.000000
# 6 0.000000 0.000000 0.000000 0.000000 0.000000 0.081001
#
#
# Mechanical properties :
#
#
# Convention : Reuss Voigt Hill
#
# Bulk Modulus (GPa) = 26.68752 55.24175 40.96463
# Shear Modulus (GPa) = 13.88660 17.53747 15.71204
#
# Velocity S-wave (km/s) = 2.72991 3.06784 2.90379
# Velocity P-wave (km/s) = 4.92531 6.49576 5.76427
#
# Compressibility (1/GPa) = 0.03747070
#
# Stress axis : x y z
#
# Youngs Moduli (GPa) = 20.94528 67.75398 51.53579
#
# Poissons Ratio (x) = -0.22502 0.78991
# Poissons Ratio (y) = -0.06956 0.52627
# Poissons Ratio (z) = 0.32103 0.69189
#
# Static dielectric constant tensor:
#      x y z
#    x 1.650210 0.000000 0.000000 
#    y 0.000000 1.622350 0.000000 
#    z 0.000000 0.000000 1.654540 
# 
# From -- ./inp_files/14883.got.cif
#   From: 2010.05.17/outbox.cif.g08.bks.cpg/sg65_8_cif.got.tgz:14883.got - 2010.06.03 17:01:31.
