data_PCOD9489151
_publ_section_title
;
Structure prediction by ZEFSAII (Michael W. Deem and Ramdas Pophale) SiO2 
 PCOD9489151
Probable space group: C M M M
;
_chemical_formula_sum "Si O2"
_cell_formula_units_Z 104
_cell_length_a 20.668821
_cell_length_b 32.618433
_cell_length_c 9.112233
_cell_angle_alpha 90.000000
_cell_angle_beta 90.000000
_cell_angle_gamma 90.000000
_cell_volume 6143.326732
_symmetry_space_group_name_H-M "C M M M"
_symmetry_group_IT_number 65
_symmetry_cell_setting 'orthorhombic'
loop_
_space_group_symop_operation_xyz
x,y,z
-x,-y,z
x,-y,-z
-x,y,-z
-x,-y,-z
x,y,-z
-x,y,z
x,-y,z
1/2+x,1/2+y,z
1/2-x,1/2-y,z
1/2+x,1/2-y,-z
1/2-x,1/2+y,-z
1/2-x,1/2-y,-z
1/2+x,1/2+y,-z
1/2-x,1/2+y,z
1/2+x,1/2-y,z
loop_
_atom_site_type_symbol
_atom_site_label
_atom_site_fract_x
_atom_site_fract_y
_atom_site_fract_z
Si Si1 0.426214 0.824041 0.175098
Si Si2 0.308839 0.129908 0.324636
Si Si3 0.830189 0.835927 0.324186
Si Si4 0.734016 0.046284 0.825552
Si Si5 0.374779 0.581000 0.826638
Si Si6 0.925848 0.773313 0.175612
Si Si7 0.500000 0.451417 0.665408
O O1 0.500000 0.835554 0.214028
O O2 0.372679 0.849453 0.260290
O O3 0.419415 0.775315 0.202883
O O4 0.418443 0.830042 0.000000
O O5 0.311644 0.126795 0.500000
O O6 0.246064 0.158317 0.287416
O O7 0.298025 0.084585 0.257369
O O8 0.836010 0.835751 0.500000
O O9 0.861660 0.876326 0.254212
O O10 0.869762 0.798089 0.257214
O O11 0.811100 0.053058 0.806747
O O12 0.716371 0.000000 0.778194
O O13 0.720572 0.049811 0.000000
O O14 0.437067 0.561642 0.753895
O O15 0.383672 0.587618 0.000000
O O16 0.000000 0.785400 0.218053
O O17 0.920490 0.779896 0.000000
O O18 0.500000 0.500000 0.654309
O O19 0.500000 0.433885 0.500000
#
# Coordination Sequence:
#
# PCOD9489151 Si02
#       7
#    16  16  16  16  16  16   8
#     4   9  19  37  59  81 105 136 174 217 263 314
#     4  10  21  35  53  80 111 141 173 211 260 319
#     4  10  21  35  50  74 108 142 177 217 265 315
#     4   9  18  34  56  79 102 132 173 217 259 308
#     4  10  20  34  52  72  97 133 177 223 265 308
#     4   9  19  35  54  76 103 138 183 226 265 311
#     4  11  23  35  47  67  97 133 173 219 273 325
#
# _framework density 16.928937999999999
#
# number of rings (size 3 to 8) (size 9 to 14) (size 15 to 20)
#    0.000    2.385    0.000    3.000    1.077    5.846 
#    0.000    4.615    0.000    0.462    0.000    3.231 
#    0.000    0.000    0.000    0.000    0.000    0.000 
#
# Total GULP energy -290034.852627 kJ/mol
# GULP energy per Si atom -5577.593320 kJ/mol
# Density = 1.689041 g / cm^3
# Si number density = 16.928938 Si / 1000 Ang^3
#
#
#
# Elastic Constant Matrix: (Units=GPa)
#
#
# Indices 1 2 3 4 5 6 
#
# 1 136.1858 85.2116 71.6364 0.0000 0.0000 0.0000
# 2 85.2116 89.1677 56.5717 0.0000 0.0000 0.0000
# 3 71.6364 56.5717 63.6100 0.0000 0.0000 0.0000
# 4 0.0000 0.0000 0.0000 14.7488 0.0000 0.0000
# 5 0.0000 0.0000 0.0000 0.0000 28.5217 0.0000
# 6 0.0000 0.0000 0.0000 0.0000 0.0000 9.1691
#
#
#
# Elastic Compliance Matrix: (Units=1/GPa)
#
#
# Indices 1 2 3 4 5 6 
#
# 1 0.022930 -0.012689 -0.014538 0.000000 0.000000 0.000000
# 2 -0.012689 0.032758 -0.014844 0.000000 0.000000 0.000000
# 3 -0.014538 -0.014844 0.045295 0.000000 0.000000 0.000000
# 4 0.000000 0.000000 0.000000 0.067802 0.000000 0.000000
# 5 0.000000 0.000000 0.000000 0.000000 0.035061 0.000000
# 6 0.000000 0.000000 0.000000 0.000000 0.000000 0.109062
#
#
# Mechanical properties :
#
#
# Convention : Reuss Voigt Hill
#
# Bulk Modulus (GPa) = 59.37801 79.53366 69.45583
# Shear Modulus (GPa) = 12.41738 15.52417 13.97077
#
# Velocity S-wave (km/s) = 2.71126 3.03152 2.87585
# Velocity P-wave (km/s) = 6.70464 7.70301 7.22110
#
# Compressibility (1/GPa) = 0.01684125
#
# Stress axis : x y z
#
# Youngs Moduli (GPa) = 43.61168 30.52702 22.07765
#
# Poissons Ratio (x) = 0.38735 0.32097
# Poissons Ratio (y) = 0.55337 0.32771
# Poissons Ratio (z) = 0.63404 0.45313
#
# Static dielectric constant tensor:
#      x y z
#    x 1.620780 0.000000 0.000000 
#    y 0.000000 1.559220 0.000000 
#    z 0.000000 0.000000 1.564530 
# 
# From -- ./inp_files/12734.got.cif
#   From: 2010.05.17/outbox.cif.g08.bks.cpg/sg65_7_cif.got.tgz:12734.got - 2010.06.03 17:01:31.
