data_PCOD9489711
_publ_section_title
;
Structure prediction by ZEFSAII (Michael W. Deem and Ramdas Pophale) SiO2 
 PCOD9489711
Probable space group: C M M M
;
_chemical_formula_sum "Si O2"
_cell_formula_units_Z 88
_cell_length_a 29.081569
_cell_length_b 8.669113
_cell_length_c 18.400383
_cell_angle_alpha 90.000000
_cell_angle_beta 90.000000
_cell_angle_gamma 90.000000
_cell_volume 4638.946464
_symmetry_space_group_name_H-M "C M M M"
_symmetry_group_IT_number 65
_symmetry_cell_setting 'orthorhombic'
loop_
_space_group_symop_operation_xyz
x,y,z
-x,-y,z
x,-y,-z
-x,y,-z
-x,-y,-z
x,y,-z
-x,y,z
x,-y,z
1/2+x,1/2+y,z
1/2-x,1/2-y,z
1/2+x,1/2-y,-z
1/2-x,1/2+y,-z
1/2-x,1/2-y,-z
1/2+x,1/2+y,-z
1/2-x,1/2+y,z
1/2+x,1/2-y,z
loop_
_atom_site_type_symbol
_atom_site_label
_atom_site_fract_x
_atom_site_fract_y
_atom_site_fract_z
Si Si1 0.947932 0.315768 0.650501
Si Si2 0.354935 0.183769 0.138587
Si Si3 0.552446 0.315697 0.186672
Si Si4 0.858172 0.814122 0.419096
Si Si5 0.198674 0.814203 0.277491
Si Si6 0.801546 0.815679 0.000000
O O1 0.943666 0.500000 0.658245
O O2 0.942198 0.239589 0.729889
O O3 0.908234 0.253131 0.598954
O O4 0.000000 0.281105 0.625296
O O5 0.408062 0.235061 0.140356
O O6 0.331918 0.247635 0.212283
O O7 0.351217 0.000000 0.136731
O O8 0.328176 0.255907 0.070879
O O9 0.500000 0.278406 0.164706
O O10 0.558412 0.500000 0.183998
O O11 0.843300 0.767086 0.500000
O O12 0.823958 0.767412 0.354402
O O13 0.861114 0.000000 0.417161
O O14 0.250000 0.750000 0.271391
O O15 0.198997 0.000000 0.272801
O O16 0.750000 0.750000 0.000000
O O17 0.799936 0.000000 0.000000
#
# Coordination Sequence:
#
# PCOD9489711 Si02
#       6
#    16  16  16  16  16   8
#     4  10  20  34  55  85 119 156 200 251 304 360
#     4  12  24  41  66  96 129 162 203 250 303 361
#     4  10  20  36  61  92 125 163 205 248 298 359
#     4  10  22  39  58  82 116 158 205 255 307 366
#     4  11  23  40  62  87 117 156 205 254 307 367
#     4  12  26  46  69  96 131 166 206 253 307 359
#
# _framework density 18.969825
#
# number of rings (size 3 to 8) (size 9 to 14) (size 15 to 20)
#    0.000    1.273    1.818    4.636    0.000    4.000 
#    0.000    2.273    0.000    2.727    0.000    0.000 
#    0.000    0.000    0.000    0.000    0.000    0.000 
#
# Total GULP energy -246011.360830 kJ/mol
# GULP energy per Si atom -5591.167292 kJ/mol
# Density = 1.892665 g / cm^3
# Si number density = 18.969825 Si / 1000 Ang^3
#
#
#
# Elastic Constant Matrix: (Units=GPa)
#
#
# Indices 1 2 3 4 5 6 
#
# 1 133.3420 55.7618 72.2911 0.0000 0.0000 0.0000
# 2 55.7618 92.8045 55.7022 0.0000 0.0000 0.0000
# 3 72.2911 55.7022 121.6117 0.0000 0.0000 0.0000
# 4 0.0000 0.0000 0.0000 9.4032 0.0000 0.0000
# 5 0.0000 0.0000 0.0000 0.0000 -8.1190 0.0000
# 6 0.0000 0.0000 0.0000 0.0000 0.0000 35.4928
#
#
#
# Elastic Compliance Matrix: (Units=1/GPa)
#
#
# Indices 1 2 3 4 5 6 
#
# 1 0.012085 -0.004068 -0.005321 0.000000 0.000000 0.000000
# 2 -0.004068 0.016230 -0.005016 0.000000 0.000000 0.000000
# 3 -0.005321 -0.005016 0.013683 0.000000 0.000000 0.000000
# 4 0.000000 0.000000 0.000000 0.106347 0.000000 0.000000
# 5 0.000000 0.000000 0.000000 0.000000 -0.123169 0.000000
# 6 0.000000 0.000000 0.000000 0.000000 0.000000 0.028175
#
#
# Mechanical properties :
#
#
# Convention : Reuss Voigt Hill
#
# Bulk Modulus (GPa) = 75.81712 79.47427 77.64569
# Shear Modulus (GPa) = 57.76558 18.28897 38.02728
#
# Velocity S-wave (km/s) = 5.52426 3.10838 4.48215
# Velocity P-wave (km/s) = 8.98576 7.40734 8.23446
#
# Compressibility (1/GPa) = 0.01318963
#
# Stress axis : x y z
#
# Youngs Moduli (GPa) = 82.74526 61.61408 73.08246
#
# Poissons Ratio (x) = 0.25064 0.38885
# Poissons Ratio (y) = 0.33660 0.36657
# Poissons Ratio (z) = 0.44027 0.30904
#
# Static dielectric constant tensor:
#      x y z
#    x 1.648760 0.000000 0.000000 
#    y 0.000000 1.634490 0.000000 
#    z 0.000000 0.000000 1.641590 
# 
# From -- ./inp_files/57957.got.cif
#   From: 2010.05.17/outbox.cif.g08.bks.cpg/sg65_29_cif.got.tgz:57957.got - 2010.06.03 17:01:31.
