data_PCOD9489246
_publ_section_title
;
Structure prediction by ZEFSAII (Michael W. Deem and Ramdas Pophale) SiO2 
 PCOD9489246
Probable space group: C M M M
;
_chemical_formula_sum "Si O2"
_cell_formula_units_Z 64
_cell_length_a 9.046735
_cell_length_b 17.905723
_cell_length_c 21.369241
_cell_angle_alpha 90.000000
_cell_angle_beta 90.000000
_cell_angle_gamma 90.000000
_cell_volume 3461.567684
_symmetry_space_group_name_H-M "C M M M"
_symmetry_group_IT_number 65
_symmetry_cell_setting 'orthorhombic'
loop_
_space_group_symop_operation_xyz
x,y,z
-x,-y,z
x,-y,-z
-x,y,-z
-x,-y,-z
x,y,-z
-x,y,z
x,-y,z
1/2+x,1/2+y,z
1/2-x,1/2-y,z
1/2+x,1/2-y,-z
1/2-x,1/2+y,-z
1/2-x,1/2-y,-z
1/2+x,1/2+y,-z
1/2-x,1/2+y,z
1/2+x,1/2-y,z
loop_
_atom_site_type_symbol
_atom_site_label
_atom_site_fract_x
_atom_site_fract_y
_atom_site_fract_z
Si Si1 0.670794 0.591219 0.500000
Si Si2 0.170408 0.408916 0.372461
Si Si3 0.677872 0.831206 0.127367
Si Si4 0.671870 0.590171 0.244218
Si Si5 0.679517 0.085201 0.000000
O O1 0.672986 0.500000 0.500000
O O2 0.500000 0.614151 0.500000
O O3 0.752912 0.615605 0.436829
O O4 0.171549 0.500000 0.373077
O O5 0.259317 0.385854 0.310669
O O6 0.000000 0.385173 0.369451
O O7 0.500000 0.826507 0.128966
O O8 0.750000 0.750000 0.128247
O O9 0.736528 0.876338 0.187062
O O10 0.723619 0.872589 0.063194
O O11 0.500000 0.612101 0.240020
O O12 0.679344 0.500000 0.241565
O O13 0.500000 0.083399 0.000000
O O14 0.732776 0.000000 0.000000
#
# Coordination Sequence:
#
# PCOD9489246 Si02
#       5
#     8  16  16  16   8
#     4   9  15  23  37  61  96 135 172 215 268 319
#     4   9  16  26  42  66  97 134 175 218 266 320
#     4  11  22  37  57  80 109 143 179 219 264 316
#     4  10  20  34  52  76 106 139 178 224 272 322
#     4   9  19  36  59  85 110 139 176 217 262 314
#
# _framework density 18.488733
#
# number of rings (size 3 to 8) (size 9 to 14) (size 15 to 20)
#    0.000    2.250    0.000    3.750    0.000    7.000 
#    0.000    1.875    0.000    4.500    0.000    0.875 
#    0.000    0.000    0.000    0.000    0.000    0.000 
#
# Total GULP energy -178635.146623 kJ/mol
# GULP energy per Si atom -5582.348332 kJ/mol
# Density = 1.844665 g / cm^3
# Si number density = 18.488733 Si / 1000 Ang^3
#
#
#
# Elastic Constant Matrix: (Units=GPa)
#
#
# Indices 1 2 3 4 5 6 
#
# 1 129.1905 31.7176 81.6853 0.0000 0.0000 0.0000
# 2 31.7176 31.0972 39.2464 0.0000 0.0000 0.0000
# 3 81.6853 39.2464 197.1426 0.0000 0.0000 0.0000
# 4 0.0000 0.0000 0.0000 -11.4040 0.0000 0.0000
# 5 0.0000 0.0000 0.0000 0.0000 16.3836 0.0000
# 6 0.0000 0.0000 0.0000 0.0000 0.0000 16.7701
#
#
#
# Elastic Compliance Matrix: (Units=1/GPa)
#
#
# Indices 1 2 3 4 5 6 
#
# 1 0.011753 -0.007802 -0.003317 0.000000 0.000000 0.000000
# 2 -0.007802 0.048126 -0.006348 0.000000 0.000000 0.000000
# 3 -0.003317 -0.006348 0.007711 0.000000 0.000000 0.000000
# 4 0.000000 0.000000 0.000000 -0.087689 0.000000 0.000000
# 5 0.000000 0.000000 0.000000 0.000000 0.061037 0.000000
# 6 0.000000 0.000000 0.000000 0.000000 0.000000 0.059630
#
#
# Mechanical properties :
#
#
# Convention : Reuss Voigt Hill
#
# Bulk Modulus (GPa) = 30.62160 73.63656 52.12908
# Shear Modulus (GPa) = 34.15623 18.00201 26.07912
#
# Velocity S-wave (km/s) = 4.30281 3.12376 3.75979
# Velocity P-wave (km/s) = 6.42525 7.27494 6.86326
#
# Compressibility (1/GPa) = 0.03265668
#
# Stress axis : x y z
#
# Youngs Moduli (GPa) = 85.08479 20.77870 129.69305
#
# Poissons Ratio (x) = 0.16211 0.43015
# Poissons Ratio (y) = 0.66380 0.82332
# Poissons Ratio (z) = 0.28220 0.13191
#
# Static dielectric constant tensor:
#      x y z
#    x 1.620160 0.000000 0.000000 
#    y 0.000000 1.626790 0.000000 
#    z 0.000000 0.000000 1.613420 
# 
# From -- ./inp_files/55341.got.cif
#   From: 2010.05.17/outbox.cif.g08.bks.cpg/sg65_28_cif.got.tgz:55341.got - 2010.06.03 17:01:31.
