data_PCOD9489946
_publ_section_title
;
Structure prediction by ZEFSAII (Michael W. Deem and Ramdas Pophale) SiO2 
 PCOD9489946
Probable space group: C M M M
;
_chemical_formula_sum "Si O2"
_cell_formula_units_Z 96
_cell_length_a 7.511519
_cell_length_b 25.582474
_cell_length_c 19.424500
_cell_angle_alpha 90.000000
_cell_angle_beta 90.000000
_cell_angle_gamma 90.000000
_cell_volume 3732.674846
_symmetry_space_group_name_H-M "C M M M"
_symmetry_group_IT_number 65
_symmetry_cell_setting 'orthorhombic'
loop_
_space_group_symop_operation_xyz
x,y,z
-x,-y,z
x,-y,-z
-x,y,-z
-x,-y,-z
x,y,-z
-x,y,z
x,-y,z
1/2+x,1/2+y,z
1/2-x,1/2-y,z
1/2+x,1/2-y,-z
1/2-x,1/2+y,-z
1/2-x,1/2-y,-z
1/2+x,1/2+y,-z
1/2-x,1/2+y,z
1/2+x,1/2-y,z
loop_
_atom_site_type_symbol
_atom_site_label
_atom_site_fract_x
_atom_site_fract_y
_atom_site_fract_z
Si Si1 0.703417 0.325444 0.076871
Si Si2 0.288266 0.693052 0.375410
Si Si3 0.790616 0.170210 0.776683
Si Si4 0.202233 0.556709 0.082019
Si Si5 0.205651 0.417715 0.426190
Si Si6 0.784790 0.557186 0.275537
O O1 0.500000 0.306292 0.074099
O O2 0.787354 0.309797 0.150529
O O3 0.699376 0.388354 0.087489
O O4 0.781928 0.315209 0.000000
O O5 0.500000 0.684601 0.372994
O O6 0.250000 0.750000 0.404254
O O7 0.217551 0.690907 0.296206
O O8 0.209753 0.644972 0.417324
O O9 0.774764 0.107309 0.767275
O O10 0.000000 0.182894 0.778813
O O11 0.275680 0.500000 0.103804
O O12 0.000000 0.561812 0.110855
O O13 0.184329 0.552585 0.000000
O O14 0.285695 0.432135 0.500000
O O15 0.282798 0.437328 0.354133
O O16 0.000000 0.434946 0.427268
O O17 0.733030 0.500000 0.250388
O O18 0.000000 0.559694 0.277854
#
# Coordination Sequence:
#
# PCOD9489946 Si02
#       6
#    16  16  16  16  16  16
#     4   9  17  29  45  64  86 115 153 197 245 293
#     4  10  20  35  55  76  99 128 162 200 244 295
#     4   9  19  34  50  70  96 127 164 205 248 295
#     4   8  14  24  36  52  78 111 145 182 226 275
#     4   9  18  33  53  78 107 135 164 200 240 283
#     4   9  18  32  50  73 101 135 173 207 239 278
#
# _framework density 25.718823
#
# number of rings (size 3 to 8) (size 9 to 14) (size 15 to 20)
#    0.000    3.000    0.000    1.000    0.000    3.667 
#    0.000    6.667    0.000    0.500    0.000    4.667 
#    0.000    0.000    0.000    0.000    0.000    0.500 
#
# Total GULP energy -267847.676037 kJ/mol
# GULP energy per Si atom -5580.159917 kJ/mol
# Density = 2.566029 g / cm^3
# Si number density = 25.718823 Si / 1000 Ang^3
#
#
#
# Elastic Constant Matrix: (Units=GPa)
#
#
# Indices 1 2 3 4 5 6 
#
# 1 80.9470 -9.6015 5.1278 0.0000 0.0000 0.0000
# 2 -9.6015 117.0487 -2.2698 0.0000 0.0000 0.0000
# 3 5.1278 -2.2698 209.5798 0.0000 0.0000 0.0000
# 4 0.0000 0.0000 0.0000 -25.3252 0.0000 0.0000
# 5 0.0000 0.0000 0.0000 0.0000 7.3593 0.0000
# 6 0.0000 0.0000 0.0000 0.0000 0.0000 11.7849
#
#
#
# Elastic Compliance Matrix: (Units=1/GPa)
#
#
# Indices 1 2 3 4 5 6 
#
# 1 0.012493 0.001019 -0.000295 0.000000 0.000000 0.000000
# 2 0.001019 0.008628 0.000069 0.000000 0.000000 0.000000
# 3 -0.000295 0.000069 0.004779 0.000000 0.000000 0.000000
# 4 0.000000 0.000000 0.000000 -0.039486 0.000000 0.000000
# 5 0.000000 0.000000 0.000000 0.000000 0.135882 0.000000
# 6 0.000000 0.000000 0.000000 0.000000 0.000000 0.084855
#
#
# Mechanical properties :
#
#
# Convention : Reuss Voigt Hill
#
# Bulk Modulus (GPa) = 36.38075 43.78762 40.08419
# Shear Modulus (GPa) = 23.28527 26.38504 24.83515
#
# Velocity S-wave (km/s) = 3.01221 3.20645 3.11085
# Velocity P-wave (km/s) = 5.12584 5.54715 5.34065
#
# Compressibility (1/GPa) = 0.02748706
#
# Stress axis : x y z
#
# Youngs Moduli (GPa) = 80.04280 115.89661 209.23112
#
# Poissons Ratio (x) = -0.11811 0.06165
# Poissons Ratio (y) = -0.08157 -0.01433
# Poissons Ratio (z) = 0.02358 -0.00794
#
# Static dielectric constant tensor:
#      x y z
#    x 2.114330 0.000000 0.000000 
#    y 0.000000 1.979380 0.000000 
#    z 0.000000 0.000000 2.078460 
# 
# From -- ./inp_files/60245.got.cif
#   From: 2010.05.17/outbox.cif.g08.bks.cpg/sg65_31_cif.got.tgz:60245.got - 2010.06.03 17:01:31.
