data_PCOD9489929
_publ_section_title
;
Structure prediction by ZEFSAII (Michael W. Deem and Ramdas Pophale) SiO2 
 PCOD9489929
Probable space group: C M M M
;
_chemical_formula_sum "Si O2"
_cell_formula_units_Z 104
_cell_length_a 30.640805
_cell_length_b 9.146006
_cell_length_c 23.341737
_cell_angle_alpha 90.000000
_cell_angle_beta 90.000000
_cell_angle_gamma 90.000000
_cell_volume 6541.311401
_symmetry_space_group_name_H-M "C M M M"
_symmetry_group_IT_number 65
_symmetry_cell_setting 'orthorhombic'
loop_
_space_group_symop_operation_xyz
x,y,z
-x,-y,z
x,-y,-z
-x,y,-z
-x,-y,-z
x,y,-z
-x,y,z
x,-y,z
1/2+x,1/2+y,z
1/2-x,1/2-y,z
1/2+x,1/2-y,-z
1/2-x,1/2+y,-z
1/2-x,1/2-y,-z
1/2+x,1/2+y,-z
1/2-x,1/2+y,z
1/2+x,1/2-y,z
loop_
_atom_site_type_symbol
_atom_site_label
_atom_site_fract_x
_atom_site_fract_y
_atom_site_fract_z
Si Si1 0.793276 0.167135 0.774666
Si Si2 0.614783 0.824502 0.910601
Si Si3 0.552895 0.328220 0.436962
Si Si4 0.050521 0.675851 0.678765
Si Si5 0.705700 0.669316 0.086016
Si Si6 0.948087 0.824610 0.000000
Si Si7 0.117818 0.674708 0.775662
O O1 0.750000 0.250000 0.755109
O O2 0.792713 0.168372 0.844378
O O3 0.837459 0.248070 0.757989
O O4 0.793116 0.000000 0.755831
O O5 0.661519 0.756168 0.928913
O O6 0.576434 0.748178 0.946054
O O7 0.609173 0.794267 0.842714
O O8 0.615054 0.000000 0.919264
O O9 0.568060 0.276830 0.500000
O O10 0.500000 0.316266 0.437528
O O11 0.563253 0.500000 0.431689
O O12 0.567647 0.242134 0.380873
O O13 0.051414 0.500000 0.674766
O O14 0.079222 0.720029 0.733246
O O15 0.000000 0.720771 0.686359
O O16 0.704116 0.500000 0.067576
O O17 0.750000 0.750000 0.066910
O O18 0.000000 0.795748 0.000000
O O19 0.941670 0.000000 0.000000
O O20 0.123408 0.500000 0.771456
#
# Coordination Sequence:
#
# PCOD9489929 Si02
#       7
#    16  16  16  16  16   8  16
#     4   9  16  26  43  66  92 122 154 186 223 270
#     4  10  20  35  55  75  94 120 155 192 233 281
#     4   8  14  25  40  58  83 117 155 192 228 266
#     4   9  17  28  42  63  92 124 156 190 228 268
#     4   9  16  28  48  74 102 127 150 179 221 274
#     4  11  25  43  58  71  90 117 153 199 243 279
#     4   9  18  31  47  69  97 124 151 188 231 274
#
# _framework density 15.898953000000001
#
# number of rings (size 3 to 8) (size 9 to 14) (size 15 to 20)
#    0.000    2.846    0.000    2.077    0.000    6.462 
#    0.000    3.462    0.000    1.846    0.000    0.000 
#    0.000    0.615    0.000    2.000    0.000    2.923 
#
# Total GULP energy -289788.815721 kJ/mol
# GULP energy per Si atom -5572.861841 kJ/mol
# Density = 1.586277 g / cm^3
# Si number density = 15.898953 Si / 1000 Ang^3
#
#
#
# Elastic Constant Matrix: (Units=GPa)
#
#
# Indices 1 2 3 4 5 6 
#
# 1 122.2443 62.6729 62.5645 0.0000 0.0000 0.0000
# 2 62.6729 70.8894 45.6012 0.0000 0.0000 0.0000
# 3 62.5645 45.6012 93.1320 0.0000 0.0000 0.0000
# 4 0.0000 0.0000 0.0000 17.0964 0.0000 0.0000
# 5 0.0000 0.0000 0.0000 0.0000 -9.6333 0.0000
# 6 0.0000 0.0000 0.0000 0.0000 0.0000 26.0368
#
#
#
# Elastic Compliance Matrix: (Units=1/GPa)
#
#
# Indices 1 2 3 4 5 6 
#
# 1 0.016927 -0.011168 -0.005903 0.000000 0.000000 0.000000
# 2 -0.011168 0.027961 -0.006188 0.000000 0.000000 0.000000
# 3 -0.005903 -0.006188 0.017733 0.000000 0.000000 0.000000
# 4 0.000000 0.000000 0.000000 0.058492 0.000000 0.000000
# 5 0.000000 0.000000 0.000000 0.000000 -0.103807 0.000000
# 6 0.000000 0.000000 0.000000 0.000000 0.000000 0.038407
#
#
# Mechanical properties :
#
#
# Convention : Reuss Voigt Hill
#
# Bulk Modulus (GPa) = 62.10271 69.77142 65.93706
# Shear Modulus (GPa) = 46.46868 14.39512 30.43190
#
# Velocity S-wave (km/s) = 5.41211 3.01227 4.37977
# Velocity P-wave (km/s) = 8.84309 7.48852 8.19385
#
# Compressibility (1/GPa) = 0.01610236
#
# Stress axis : x y z
#
# Youngs Moduli (GPa) = 59.07656 35.76447 56.39163
#
# Poissons Ratio (x) = 0.39941 0.33289
# Poissons Ratio (y) = 0.65976 0.34897
# Poissons Ratio (z) = 0.34874 0.22132
#
# Static dielectric constant tensor:
#      x y z
#    x 1.511770 0.000000 0.000000 
#    y 0.000000 1.532030 0.000000 
#    z 0.000000 0.000000 1.544130 
# 
# From -- ./inp_files/72164.got.cif
#   From: 2010.05.17/outbox.cif.g08.bks.cpg/sg65_37_cif.got.tgz:72164.got - 2010.06.03 17:01:31.
