data_PCOD9489844
_publ_section_title
;
Structure prediction by ZEFSAII (Michael W. Deem and Ramdas Pophale) SiO2 
 PCOD9489844
Probable space group: C M M M
;
_chemical_formula_sum "Si O2"
_cell_formula_units_Z 116
_cell_length_a 26.383057
_cell_length_b 29.812570
_cell_length_c 7.699912
_cell_angle_alpha 90.000000
_cell_angle_beta 90.000000
_cell_angle_gamma 90.000000
_cell_volume 6056.340633
_symmetry_space_group_name_H-M "C M M M"
_symmetry_group_IT_number 65
_symmetry_cell_setting 'orthorhombic'
loop_
_space_group_symop_operation_xyz
x,y,z
-x,-y,z
x,-y,-z
-x,y,-z
-x,-y,-z
x,y,-z
-x,y,z
x,-y,z
1/2+x,1/2+y,z
1/2-x,1/2-y,z
1/2+x,1/2-y,-z
1/2-x,1/2+y,-z
1/2-x,1/2-y,-z
1/2+x,1/2+y,-z
1/2-x,1/2+y,z
1/2+x,1/2-y,z
loop_
_atom_site_type_symbol
_atom_site_label
_atom_site_fract_x
_atom_site_fract_y
_atom_site_fract_z
Si Si1 0.409811 0.190392 0.787033
Si Si2 0.747123 0.550207 0.298040
Si Si3 0.500000 0.183574 0.500000
Si Si4 0.738371 0.299791 0.701800
Si Si5 0.057852 0.874383 0.212752
Si Si6 0.875170 0.792078 0.208040
Si Si7 0.864018 0.050917 0.204083
Si Si8 0.682825 0.872409 0.196310
O O1 0.456109 0.184187 0.655939
O O2 0.387791 0.240435 0.754368
O O3 0.366795 0.153694 0.740605
O O4 0.419994 0.187777 0.000000
O O5 0.735423 0.546893 0.500000
O O6 0.757341 0.500000 0.228894
O O7 0.694238 0.567016 0.217498
O O8 0.794183 0.583380 0.281525
O O9 0.753989 0.301490 0.500000
O O10 0.750000 0.250000 0.770208
O O11 0.678528 0.306605 0.715059
O O12 0.771671 0.336447 0.796877
O O13 0.080970 0.826302 0.264575
O O14 0.095747 0.913494 0.275024
O O15 0.000000 0.880296 0.269619
O O16 0.057676 0.874983 0.000000
O O17 0.870302 0.795871 0.000000
O O18 0.866638 0.000000 0.276653
O O19 0.875343 0.047453 0.000000
O O20 0.671830 0.885314 0.000000
#
# Coordination Sequence:
#
# PCOD9489844 Si02
#       8
#    16  16   4  16  16  16  16  16
#     4  10  24  41  61  90 116 156 205 245 296 354
#     4  10  21  36  58  87 119 151 184 230 292 359
#     4  12  26  40  68  80 121 162 195 252 290 348
#     4  11  22  33  53  81 117 154 195 239 293 362
#     4   9  18  31  49  72 100 144 194 246 298 335
#     4  10  20  35  53  75 111 151 200 251 297 354
#     4   9  17  31  52  79 109 142 187 237 290 352
#     4  11  22  37  59  86 121 156 194 241 289 356
#
# _framework density 19.153479000000001
#
# number of rings (size 3 to 8) (size 9 to 14) (size 15 to 20)
#    0.000    1.931    1.379    2.276    3.862    2.759 
#    0.000    1.379    0.000    1.241    0.000    2.897 
#    0.000    2.207    0.000    0.000    0.000    0.000 
#
# Total GULP energy -323068.088957 kJ/mol
# GULP energy per Si atom -5570.139465 kJ/mol
# Density = 1.910989 g / cm^3
# Si number density = 19.153479 Si / 1000 Ang^3
#
#
#
# Elastic Constant Matrix: (Units=GPa)
#
#
# Indices 1 2 3 4 5 6 
#
# 1 122.9651 38.1328 24.5086 0.0000 0.0000 0.0000
# 2 38.1328 65.4810 8.7512 0.0000 0.0000 0.0000
# 3 24.5086 8.7512 42.9139 0.0000 0.0000 0.0000
# 4 0.0000 0.0000 0.0000 9.8495 0.0000 0.0000
# 5 0.0000 0.0000 0.0000 0.0000 137.3920 0.0000
# 6 0.0000 0.0000 0.0000 0.0000 0.0000 5.1971
#
#
#
# Elastic Compliance Matrix: (Units=1/GPa)
#
#
# Indices 1 2 3 4 5 6 
#
# 1 0.010901 -0.005671 -0.005069 0.000000 0.000000 0.000000
# 2 -0.005671 0.018649 -0.000564 0.000000 0.000000 0.000000
# 3 -0.005069 -0.000564 0.026313 0.000000 0.000000 0.000000
# 4 0.000000 0.000000 0.000000 0.101528 0.000000 0.000000
# 5 0.000000 0.000000 0.000000 0.000000 0.007278 0.000000
# 6 0.000000 0.000000 0.000000 0.000000 0.000000 0.192414
#
#
# Mechanical properties :
#
#
# Convention : Reuss Voigt Hill
#
# Bulk Modulus (GPa) = 30.07143 41.57167 35.82155
# Shear Modulus (GPa) = 12.79498 41.15220 26.97359
#
# Velocity S-wave (km/s) = 2.58742 4.64027 3.75679
# Velocity P-wave (km/s) = 4.96595 7.10360 6.12869
#
# Compressibility (1/GPa) = 0.03325415
#
# Stress axis : x y z
#
# Youngs Moduli (GPa) = 91.73127 53.62076 38.00437
#
# Poissons Ratio (x) = 0.30408 0.19266
# Poissons Ratio (y) = 0.52020 0.02145
# Poissons Ratio (z) = 0.46503 0.03026
#
# Static dielectric constant tensor:
#      x y z
#    x 1.646050 0.000000 0.000000 
#    y 0.000000 1.692710 0.000000 
#    z 0.000000 0.000000 1.711520 
# 
# From -- ./inp_files/15146.got.cif
#   From: 2010.05.17/outbox.cif.g08.bks.cpg/sg65_8_cif.got.tgz:15146.got - 2010.06.03 17:01:31.
