data_PCOD9489178
_publ_section_title
;
Structure prediction by ZEFSAII (Michael W. Deem and Ramdas Pophale) SiO2 
 PCOD9489178
Probable space group: C M M M
;
_chemical_formula_sum "Si O2"
_cell_formula_units_Z 112
_cell_length_a 14.431457
_cell_length_b 27.849346
_cell_length_c 15.367543
_cell_angle_alpha 90.000000
_cell_angle_beta 90.000000
_cell_angle_gamma 90.000000
_cell_volume 6176.317561
_symmetry_space_group_name_H-M "C M M M"
_symmetry_group_IT_number 65
_symmetry_cell_setting 'orthorhombic'
loop_
_space_group_symop_operation_xyz
x,y,z
-x,-y,z
x,-y,-z
-x,y,-z
-x,-y,-z
x,y,-z
-x,y,z
x,-y,z
1/2+x,1/2+y,z
1/2-x,1/2-y,z
1/2+x,1/2-y,-z
1/2-x,1/2+y,-z
1/2-x,1/2-y,-z
1/2+x,1/2+y,-z
1/2-x,1/2+y,z
1/2+x,1/2-y,z
loop_
_atom_site_type_symbol
_atom_site_label
_atom_site_fract_x
_atom_site_fract_y
_atom_site_fract_z
Si Si1 0.608027 0.774510 0.100812
Si Si2 0.890292 0.848736 0.598474
Si Si3 0.400734 0.056350 0.344422
Si Si4 0.252749 0.137352 0.098285
Si Si5 0.199854 0.945808 0.396983
Si Si6 0.896328 0.555787 0.134690
Si Si7 0.889177 0.181575 0.218538
O O1 0.500000 0.788785 0.110528
O O2 0.675444 0.819100 0.115733
O O3 0.626810 0.730988 0.166220
O O4 0.620732 0.758723 0.000000
O O5 0.851791 0.841239 0.500000
O O6 0.870116 0.903709 0.627543
O O7 0.858942 0.816867 0.680386
O O8 0.000000 0.842072 0.591697
O O9 0.500000 0.077484 0.373027
O O10 0.303143 0.074255 0.379184
O O11 0.397323 0.058354 0.239929
O O12 0.402050 0.000000 0.369783
O O13 0.314419 0.089573 0.103607
O O14 0.170891 0.141970 0.167628
O O15 0.216613 0.142731 0.000000
O O16 0.189416 0.951057 0.500000
O O17 0.189906 0.000000 0.358673
O O18 0.883771 0.500000 0.110825
O O19 0.000000 0.570766 0.105353
O O20 0.000000 0.172062 0.215059
#
# Coordination Sequence:
#
# PCOD9489178 Si02
#       7
#    16  16  16  16  16  16  16
#     4   9  18  33  53  78 105 129 159 203 251 296
#     4   9  18  32  49  69  92 121 161 203 241 287
#     4   8  14  25  40  59  87 123 159 193 231 279
#     4  11  21  32  51  77 103 132 165 203 248 294
#     4   9  16  25  40  64  92 120 152 197 250 295
#     4   9  18  32  49  70  98 133 171 207 243 287
#     4  10  20  34  52  73  99 132 166 202 248 297
#
# _framework density 18.133783000000001
#
# number of rings (size 3 to 8) (size 9 to 14) (size 15 to 20)
#    0.000    2.714    0.000    3.000    0.000    3.714 
#    0.000    3.571    0.000    3.000    0.000    1.000 
#    0.000    4.571    0.000    0.286    0.000    0.143 
#
# Total GULP energy -311834.445293 kJ/mol
# GULP energy per Si atom -5568.472237 kJ/mol
# Density = 1.809251 g / cm^3
# Si number density = 18.133783 Si / 1000 Ang^3
#
#
#
# Elastic Constant Matrix: (Units=GPa)
#
#
# Indices 1 2 3 4 5 6 
#
# 1 34.6836 18.6554 24.4757 0.0000 0.0000 0.0000
# 2 18.6554 44.5723 36.9449 0.0000 0.0000 0.0000
# 3 24.4757 36.9449 71.3414 0.0000 0.0000 0.0000
# 4 0.0000 0.0000 0.0000 27.2393 0.0000 0.0000
# 5 0.0000 0.0000 0.0000 0.0000 20.2968 0.0000
# 6 0.0000 0.0000 0.0000 0.0000 0.0000 20.1284
#
#
#
# Elastic Compliance Matrix: (Units=1/GPa)
#
#
# Indices 1 2 3 4 5 6 
#
# 1 0.040192 -0.009448 -0.008896 0.000000 0.000000 0.000000
# 2 -0.009448 0.041529 -0.018265 0.000000 0.000000 0.000000
# 3 -0.008896 -0.018265 0.026528 0.000000 0.000000 0.000000
# 4 0.000000 0.000000 0.000000 0.036712 0.000000 0.000000
# 5 0.000000 0.000000 0.000000 0.000000 0.049269 0.000000
# 6 0.000000 0.000000 0.000000 0.000000 0.000000 0.049681
#
#
# Mechanical properties :
#
#
# Convention : Reuss Voigt Hill
#
# Bulk Modulus (GPa) = 28.54657 34.52770 31.53713
# Shear Modulus (GPa) = 15.20654 18.23431 16.72042
#
# Velocity S-wave (km/s) = 2.89896 3.17447 3.03984
# Velocity P-wave (km/s) = 5.19439 5.70248 5.45435
#
# Compressibility (1/GPa) = 0.03503048
#
# Stress axis : x y z
#
# Youngs Moduli (GPa) = 24.88067 24.07938 37.69627
#
# Poissons Ratio (x) = 0.22751 0.33535
# Poissons Ratio (y) = 0.23508 0.68852
# Poissons Ratio (z) = 0.22134 0.43981
#
# Static dielectric constant tensor:
#      x y z
#    x 1.650610 0.000000 0.000000 
#    y 0.000000 1.623840 0.000000 
#    z 0.000000 0.000000 1.658430 
# 
# From -- ./inp_files/41098.got.cif
#   From: 2010.05.17/outbox.cif.g08.bks.cpg/sg65_21_cif.got.tgz:41098.got - 2010.06.03 17:01:31.
