data_PCOD9489795
_publ_section_title
;
Structure prediction by ZEFSAII (Michael W. Deem and Ramdas Pophale) SiO2 
 PCOD9489795
Probable space group: C M M M
;
_chemical_formula_sum "Si O2"
_cell_formula_units_Z 92
_cell_length_a 25.560545
_cell_length_b 30.025578
_cell_length_c 7.169718
_cell_angle_alpha 90.000000
_cell_angle_beta 90.000000
_cell_angle_gamma 90.000000
_cell_volume 5502.544460
_symmetry_space_group_name_H-M "C M M M"
_symmetry_group_IT_number 65
_symmetry_cell_setting 'orthorhombic'
loop_
_space_group_symop_operation_xyz
x,y,z
-x,-y,z
x,-y,-z
-x,y,-z
-x,-y,-z
x,y,-z
-x,y,z
x,-y,z
1/2+x,1/2+y,z
1/2-x,1/2-y,z
1/2+x,1/2-y,-z
1/2-x,1/2+y,-z
1/2-x,1/2-y,-z
1/2+x,1/2+y,-z
1/2-x,1/2+y,z
1/2+x,1/2-y,z
loop_
_atom_site_type_symbol
_atom_site_label
_atom_site_fract_x
_atom_site_fract_y
_atom_site_fract_z
Si Si1 0.594833 0.387342 0.725635
Si Si2 0.712362 0.416746 0.725886
Si Si3 0.559312 0.288648 0.273049
Si Si4 0.334281 0.249523 0.726472
Si Si5 0.248460 0.321802 0.274258
Si Si6 0.500000 0.449239 0.273020
Si Si7 0.270948 0.500000 0.000000
O O1 0.594206 0.386013 0.500000
O O2 0.652782 0.402581 0.775690
O O3 0.577272 0.338189 0.784755
O O4 0.551500 0.422777 0.785585
O O5 0.714743 0.422931 0.500000
O O6 0.746375 0.373113 0.777687
O O7 0.727219 0.460560 0.837669
O O8 0.558467 0.288543 0.500000
O O9 0.500000 0.279374 0.212677
O O10 0.605988 0.255864 0.214603
O O11 0.334257 0.249527 0.500000
O O12 0.298789 0.292096 0.782146
O O13 0.302737 0.205609 0.785259
O O14 0.249240 0.321193 0.500000
O O15 0.500000 0.500000 0.212156
O O16 0.500000 0.449225 0.500000
#
# Coordination Sequence:
#
# PCOD9489795 Si02
#       7
#    16  16  16  16  16   8   4
#     4   9  15  24  39  59  81 111 154 192 231 274
#     4  10  20  35  51  66  88 120 151 192 239 277
#     4   9  13  18  31  59  95 121 148 187 224 268
#     4   8  12  19  35  64  91 115 150 187 220 272
#     4   8  13  23  42  63  85 114 151 187 225 271
#     4   9  16  22  32  54  78 104 152 206 234 260
#     4  12  26  36  48  69  90 112 155 200 240 290
#
# _framework density 16.719538
#
# number of rings (size 3 to 8) (size 9 to 14) (size 15 to 20)
#    0.000    3.043    2.609    1.304    1.217    0.000 
#    0.000    0.000    0.000    3.130    0.000    0.000 
#    0.000    0.000    0.000    1.565    0.000   22.261 
#
# Total GULP energy -256094.281766 kJ/mol
# GULP energy per Si atom -5567.266995 kJ/mol
# Density = 1.668148 g / cm^3
# Si number density = 16.719538 Si / 1000 Ang^3
#
#
#
# Elastic Constant Matrix: (Units=GPa)
#
#
# Indices 1 2 3 4 5 6 
#
# 1 96.1322 83.5587 13.6173 0.0000 0.0000 0.0000
# 2 83.5587 154.1968 26.4987 0.0000 0.0000 0.0000
# 3 13.6173 26.4987 101.4211 0.0000 0.0000 0.0000
# 4 0.0000 0.0000 0.0000 -173.0060 0.0000 0.0000
# 5 0.0000 0.0000 0.0000 0.0000 248.8191 0.0000
# 6 0.0000 0.0000 0.0000 0.0000 0.0000 5.4932
#
#
#
# Elastic Compliance Matrix: (Units=1/GPa)
#
#
# Indices 1 2 3 4 5 6 
#
# 1 0.019667 -0.010683 0.000151 0.000000 0.000000 0.000000
# 2 -0.010683 0.012593 -0.001856 0.000000 0.000000 0.000000
# 3 0.000151 -0.001856 0.010325 0.000000 0.000000 0.000000
# 4 0.000000 0.000000 0.000000 -0.005780 0.000000 0.000000
# 5 0.000000 0.000000 0.000000 0.000000 0.004019 0.000000
# 6 0.000000 0.000000 0.000000 0.000000 0.000000 0.182042
#
#
# Mechanical properties :
#
#
# Convention : Reuss Voigt Hill
#
# Bulk Modulus (GPa) = 56.15519 66.56660 61.36090
# Shear Modulus (GPa) = 19.71773 31.46629 25.59201
#
# Velocity S-wave (km/s) = 3.43785 4.34292 3.91662
# Velocity P-wave (km/s) = 7.02979 8.06523 7.56525
#
# Compressibility (1/GPa) = 0.01780779
#
# Stress axis : x y z
#
# Youngs Moduli (GPa) = 50.84634 79.40617 96.85646
#
# Poissons Ratio (x) = 0.84833 -0.01460
# Poissons Ratio (y) = 0.54321 0.17976
# Poissons Ratio (z) = -0.00766 0.14737
#
# Static dielectric constant tensor:
#      x y z
#    x 1.557290 0.000000 0.000000 
#    y 0.000000 1.538520 0.000000 
#    z 0.000000 0.000000 1.642700 
# 
# From -- ./inp_files/16948.got.cif
#   From: 2010.05.17/outbox.cif.g08.bks.cpg/sg65_9_cif.got.tgz:16948.got - 2010.06.03 17:01:31.
