data_PCOD9489879
_publ_section_title
;
Structure prediction by ZEFSAII (Michael W. Deem and Ramdas Pophale) SiO2 
 PCOD9489879
Probable space group: C M M M
;
_chemical_formula_sum "Si O2"
_cell_formula_units_Z 88
_cell_length_a 19.164941
_cell_length_b 8.658904
_cell_length_c 29.943746
_cell_angle_alpha 90.000000
_cell_angle_beta 90.000000
_cell_angle_gamma 90.000000
_cell_volume 4969.086324
_symmetry_space_group_name_H-M "C M M M"
_symmetry_group_IT_number 65
_symmetry_cell_setting 'orthorhombic'
loop_
_space_group_symop_operation_xyz
x,y,z
-x,-y,z
x,-y,-z
-x,y,-z
-x,-y,-z
x,y,-z
-x,y,z
x,-y,z
1/2+x,1/2+y,z
1/2-x,1/2-y,z
1/2+x,1/2-y,-z
1/2-x,1/2+y,-z
1/2-x,1/2-y,-z
1/2+x,1/2+y,-z
1/2-x,1/2+y,z
1/2+x,1/2-y,z
loop_
_atom_site_type_symbol
_atom_site_label
_atom_site_fract_x
_atom_site_fract_y
_atom_site_fract_z
Si Si1 0.916194 0.685671 0.547946
Si Si2 0.671969 0.316135 0.273197
Si Si3 0.417035 0.813720 0.645815
Si Si4 0.328070 0.814214 0.178450
Si Si5 0.083364 0.182802 0.000000
Si Si6 0.580789 0.813978 0.906473
O O1 0.889216 0.746234 0.500000
O O2 0.905975 0.500000 0.547741
O O3 0.891568 0.740851 0.596506
O O4 0.000000 0.709363 0.547942
O O5 0.675446 0.500000 0.270380
O O6 0.750000 0.250000 0.279417
O O7 0.624389 0.263252 0.314141
O O8 0.645424 0.248942 0.225948
O O9 0.500000 0.782628 0.649172
O O10 0.408617 0.000000 0.648008
O O11 0.250000 0.750000 0.172742
O O12 0.375127 0.765818 0.136555
O O13 0.326070 0.000000 0.180352
O O14 0.109992 0.252130 0.046506
O O15 0.000000 0.217573 0.000000
O O16 0.092715 0.000000 0.000000
O O17 0.500000 0.763202 0.901883
O O18 0.581131 0.000000 0.908345
#
# Coordination Sequence:
#
# PCOD9489879 Si02
#       6
#    16  16  16  16   8  16
#     4   7  10  19  39  68  98 126 157 193 235 285
#     4  11  22  36  53  71  96 131 169 207 249 299
#     4   9  17  30  50  76 104 131 161 201 246 292
#     4  10  20  35  54  74  97 127 163 202 247 296
#     4   9  17  29  48  75 104 131 159 195 238 281
#     4   9  18  33  53  75  99 129 163 197 235 283
#
# _framework density 17.709493999999999
#
# number of rings (size 3 to 8) (size 9 to 14) (size 15 to 20)
#    0.000    2.818    0.000    5.182    0.000    3.636 
#    0.000    2.273    0.000    1.091    0.000    2.545 
#    0.000    0.000    0.000    0.000    0.000    0.000 
#
# Total GULP energy -245104.955019 kJ/mol
# GULP energy per Si atom -5570.567160 kJ/mol
# Density = 1.766919 g / cm^3
# Si number density = 17.709494 Si / 1000 Ang^3
#
#
#
# Elastic Constant Matrix: (Units=GPa)
#
#
# Indices 1 2 3 4 5 6 
#
# 1 28.8665 21.0167 62.9426 0.0000 0.0000 0.0000
# 2 21.0167 39.5685 53.1814 0.0000 0.0000 0.0000
# 3 62.9426 53.1814 229.0088 0.0000 0.0000 0.0000
# 4 0.0000 0.0000 0.0000 17.9269 0.0000 0.0000
# 5 0.0000 0.0000 0.0000 0.0000 -44.9260 0.0000
# 6 0.0000 0.0000 0.0000 0.0000 0.0000 19.1849
#
#
#
# Elastic Compliance Matrix: (Units=1/GPa)
#
#
# Indices 1 2 3 4 5 6 
#
# 1 0.099383 -0.023368 -0.021889 0.000000 0.000000 0.000000
# 2 -0.023368 0.042234 -0.003385 0.000000 0.000000 0.000000
# 3 -0.021889 -0.003385 0.011169 0.000000 0.000000 0.000000
# 4 0.000000 0.000000 0.000000 0.055782 0.000000 0.000000
# 5 0.000000 0.000000 0.000000 0.000000 -0.022259 0.000000
# 6 0.000000 0.000000 0.000000 0.000000 0.000000 0.052124
#
#
# Mechanical properties :
#
#
# Convention : Reuss Voigt Hill
#
# Bulk Modulus (GPa) = 18.01717 63.52501 40.77109
# Shear Modulus (GPa) = 14.11559 9.12404 11.61981
#
# Velocity S-wave (km/s) = 2.82629 2.27228 2.56429
# Velocity P-wave (km/s) = 4.56579 6.54468 5.64266
#
# Compressibility (1/GPa) = 0.05550261
#
# Stress axis : x y z
#
# Youngs Moduli (GPa) = 10.06207 23.67749 89.53504
#
# Poissons Ratio (x) = 0.55329 1.95980
# Poissons Ratio (y) = 0.23513 0.30309
# Poissons Ratio (z) = 0.22025 0.08015
#
# Static dielectric constant tensor:
#      x y z
#    x 1.582640 0.000000 0.000000 
#    y 0.000000 1.594860 0.000000 
#    z 0.000000 0.000000 1.642190 
# 
# From -- ./inp_files/75374.got.cif
#   From: 2010.05.17/outbox.cif.g08.bks.cpg/sg65_38_cif.got.tgz:75374.got - 2010.06.03 17:01:31.
