data_PCOD9489558
_publ_section_title
;
Structure prediction by ZEFSAII (Michael W. Deem and Ramdas Pophale) SiO2 
 PCOD9489558
Probable space group: C M M M
;
_chemical_formula_sum "Si O2"
_cell_formula_units_Z 88
_cell_length_a 8.758128
_cell_length_b 18.621709
_cell_length_c 29.177999
_cell_angle_alpha 90.000000
_cell_angle_beta 90.000000
_cell_angle_gamma 90.000000
_cell_volume 4758.678109
_symmetry_space_group_name_H-M "C M M M"
_symmetry_group_IT_number 65
_symmetry_cell_setting 'orthorhombic'
loop_
_space_group_symop_operation_xyz
x,y,z
-x,-y,z
x,-y,-z
-x,y,-z
-x,-y,-z
x,y,-z
-x,y,z
x,-y,z
1/2+x,1/2+y,z
1/2-x,1/2-y,z
1/2+x,1/2-y,-z
1/2-x,1/2+y,-z
1/2-x,1/2-y,-z
1/2+x,1/2+y,-z
1/2-x,1/2+y,z
1/2+x,1/2-y,z
loop_
_atom_site_type_symbol
_atom_site_label
_atom_site_fract_x
_atom_site_fract_y
_atom_site_fract_z
Si Si1 0.682020 0.085442 0.449401
Si Si2 0.317625 0.670709 0.365178
Si Si3 0.816140 0.829608 0.262565
Si Si4 0.182768 0.669651 0.086828
Si Si5 0.815364 0.915946 0.172641
Si Si6 0.683573 0.414983 0.000000
O O1 0.734574 0.110790 0.500000
O O2 0.500000 0.097798 0.446919
O O3 0.760064 0.122390 0.406542
O O4 0.706771 0.000000 0.447535
O O5 0.500000 0.674109 0.366269
O O6 0.250000 0.750000 0.370948
O O7 0.270705 0.646026 0.313851
O O8 0.750000 0.750000 0.254761
O O9 0.771582 0.883133 0.221966
O O10 0.000000 0.824265 0.261900
O O11 0.250000 0.750000 0.085244
O O12 0.237061 0.630225 0.133028
O O13 0.247889 0.623798 0.044456
O O14 0.000000 0.672815 0.084623
O O15 0.000000 0.909941 0.167861
O O16 0.776125 0.000000 0.169129
O O17 0.719089 0.500000 0.000000
O O18 0.500000 0.407371 0.000000
#
# Coordination Sequence:
#
# PCOD9489558 Si02
#       6
#    16  16  16  16  16   8
#     4   9  19  36  55  75 103 139 177 220 273 330
#     4  10  20  34  54  80 109 141 180 225 272 324
#     4   9  19  35  55  79 108 144 183 225 273 325
#     4  12  25  41  62  88 119 153 193 237 280 329
#     4  10  21  38  59  84 116 151 186 227 278 332
#     4  11  24  43  66  91 121 155 190 231 282 335
#
# _framework density 18.492529999999999
#
# number of rings (size 3 to 8) (size 9 to 14) (size 15 to 20)
#    0.000    1.909    0.000    4.364    0.000    8.000 
#    0.000    2.727    0.000    0.000    0.000    0.000 
#    0.000    0.000    0.000    0.000    0.000    0.000 
#
# Total GULP energy -245742.678613 kJ/mol
# GULP energy per Si atom -5585.060878 kJ/mol
# Density = 1.845044 g / cm^3
# Si number density = 18.492530 Si / 1000 Ang^3
#
#
#
# Elastic Constant Matrix: (Units=GPa)
#
#
# Indices 1 2 3 4 5 6 
#
# 1 65.2846 65.1419 73.0752 0.0000 0.0000 0.0000
# 2 65.1419 128.2880 104.6864 0.0000 0.0000 0.0000
# 3 73.0752 104.6864 187.8045 0.0000 0.0000 0.0000
# 4 0.0000 0.0000 0.0000 43.3238 0.0000 0.0000
# 5 0.0000 0.0000 0.0000 0.0000 24.3446 0.0000
# 6 0.0000 0.0000 0.0000 0.0000 0.0000 27.5444
#
#
#
# Elastic Compliance Matrix: (Units=1/GPa)
#
#
# Indices 1 2 3 4 5 6 
#
# 1 0.035296 -0.012319 -0.006867 0.000000 0.000000 0.000000
# 2 -0.012319 0.018599 -0.005574 0.000000 0.000000 0.000000
# 3 -0.006867 -0.005574 0.011104 0.000000 0.000000 0.000000
# 4 0.000000 0.000000 0.000000 0.023082 0.000000 0.000000
# 5 0.000000 0.000000 0.000000 0.000000 0.041077 0.000000
# 6 0.000000 0.000000 0.000000 0.000000 0.000000 0.036305
#
#
# Mechanical properties :
#
#
# Convention : Reuss Voigt Hill
#
# Bulk Modulus (GPa) = 64.60506 96.35379 80.47943
# Shear Modulus (GPa) = 22.71264 28.27411 25.49337
#
# Velocity S-wave (km/s) = 3.50838 3.91442 3.71695
# Velocity P-wave (km/s) = 7.17100 8.52335 7.87625
#
# Compressibility (1/GPa) = 0.01547866
#
# Stress axis : x y z
#
# Youngs Moduli (GPa) = 28.33195 53.76675 90.05984
#
# Poissons Ratio (x) = 0.66235 0.61843
# Poissons Ratio (y) = 0.34902 0.50200
# Poissons Ratio (z) = 0.19455 0.29970
#
# Static dielectric constant tensor:
#      x y z
#    x 1.623130 0.000000 0.000000 
#    y 0.000000 1.598950 0.000000 
#    z 0.000000 0.000000 1.659440 
# 
# From -- ./inp_files/76433.got.cif
#   From: 2010.05.17/outbox.cif.g08.bks.cpg/sg65_39_cif.got.tgz:76433.got - 2010.06.03 17:01:31.
