data_PCOD9489497
_publ_section_title
;
Structure prediction by ZEFSAII (Michael W. Deem and Ramdas Pophale) SiO2 
 PCOD9489497
Probable space group: C M M M
;
_chemical_formula_sum "Si O2"
_cell_formula_units_Z 128
_cell_length_a 19.582055
_cell_length_b 20.241725
_cell_length_c 20.059411
_cell_angle_alpha 90.000000
_cell_angle_beta 90.000000
_cell_angle_gamma 90.000000
_cell_volume 7951.040455
_symmetry_space_group_name_H-M "C M M M"
_symmetry_group_IT_number 65
_symmetry_cell_setting 'orthorhombic'
loop_
_space_group_symop_operation_xyz
x,y,z
-x,-y,z
x,-y,-z
-x,y,-z
-x,-y,-z
x,y,-z
-x,y,z
x,-y,z
1/2+x,1/2+y,z
1/2-x,1/2-y,z
1/2+x,1/2-y,-z
1/2-x,1/2+y,-z
1/2-x,1/2-y,-z
1/2+x,1/2+y,-z
1/2-x,1/2+y,z
1/2+x,1/2-y,z
loop_
_atom_site_type_symbol
_atom_site_label
_atom_site_fract_x
_atom_site_fract_y
_atom_site_fract_z
Si Si1 0.077118 0.775204 0.348386
Si Si2 0.683271 0.923712 0.078582
Si Si3 0.579820 0.682015 0.193927
Si Si4 0.775335 0.575699 0.323026
Si Si5 0.923212 0.373701 0.302273
Si Si6 0.078483 0.327600 0.148233
Si Si7 0.709993 0.319122 0.422154
Si Si8 0.197880 0.922645 0.816108
O O1 0.085129 0.801937 0.272885
O O2 0.083871 0.695888 0.341401
O O3 0.134084 0.806053 0.395021
O O4 0.000000 0.789937 0.370502
O O5 0.627644 0.871432 0.103477
O O6 0.751278 0.913182 0.121895
O O7 0.660825 0.000000 0.091697
O O8 0.695562 0.917227 0.000000
O O9 0.500000 0.666479 0.180513
O O10 0.597092 0.750237 0.155500
O O11 0.632616 0.624256 0.178660
O O12 0.757908 0.500000 0.338479
O O13 0.857197 0.583261 0.318348
O O14 0.745834 0.625554 0.377384
O O15 0.741102 0.592228 0.251308
O O16 0.919767 0.355871 0.223752
O O17 0.000000 0.400112 0.315404
O O18 0.000000 0.331567 0.125209
O O19 0.710381 0.336479 0.500000
O O20 0.750000 0.250000 0.413664
O O21 0.178513 0.000000 0.813214
#
# Coordination Sequence:
#
# PCOD9489497 Si02
#       8
#    16  16  16  16  16  16  16  16
#     4   9  17  32  54  79 106 136 173 216 265 316
#     4  10  21  36  52  75 111 147 176 212 259 312
#     4   9  18  33  55  81 104 131 171 222 272 309
#     4  11  21  34  54  79 107 141 179 220 264 311
#     4   9  17  31  52  78 108 138 173 218 262 307
#     4   9  18  32  51  77 106 138 176 214 257 310
#     4  11  22  35  54  80 106 139 181 220 264 319
#     4  10  20  34  54  79 103 137 182 221 261 315
#
# _framework density 16.098521999999999
#
# number of rings (size 3 to 8) (size 9 to 14) (size 15 to 20)
#    0.000    2.250    3.750    1.500    0.000    2.000 
#    0.000    3.125    0.000    1.875    0.000    3.500 
#    0.000    0.000    0.000    0.000    0.000    0.000 
#
# Total GULP energy -356793.994774 kJ/mol
# GULP energy per Si atom -5574.906168 kJ/mol
# Density = 1.606188 g / cm^3
# Si number density = 16.098522 Si / 1000 Ang^3
#
#
#
# Elastic Constant Matrix: (Units=GPa)
#
#
# Indices 1 2 3 4 5 6 
#
# 1 119.1522 76.8287 57.7714 0.0000 0.0000 0.0000
# 2 76.8287 90.5910 59.6158 0.0000 0.0000 0.0000
# 3 57.7714 59.6158 85.8549 0.0000 0.0000 0.0000
# 4 0.0000 0.0000 0.0000 21.6822 0.0000 0.0000
# 5 0.0000 0.0000 0.0000 0.0000 16.9311 0.0000
# 6 0.0000 0.0000 0.0000 0.0000 0.0000 29.0269
#
#
#
# Elastic Compliance Matrix: (Units=1/GPa)
#
#
# Indices 1 2 3 4 5 6 
#
# 1 0.018911 -0.014113 -0.002925 0.000000 0.000000 0.000000
# 2 -0.014113 0.030859 -0.011932 0.000000 0.000000 0.000000
# 3 -0.002925 -0.011932 0.021901 0.000000 0.000000 0.000000
# 4 0.000000 0.000000 0.000000 0.046121 0.000000 0.000000
# 5 0.000000 0.000000 0.000000 0.000000 0.059063 0.000000
# 6 0.000000 0.000000 0.000000 0.000000 0.000000 0.034451
#
#
# Mechanical properties :
#
#
# Convention : Reuss Voigt Hill
#
# Bulk Modulus (GPa) = 72.82447 76.00333 74.41390
# Shear Modulus (GPa) = 18.25994 20.28683 19.27339
#
# Velocity S-wave (km/s) = 3.37153 3.55373 3.46383
# Velocity P-wave (km/s) = 7.77761 8.00953 7.89442
#
# Compressibility (1/GPa) = 0.01373165
#
# Stress axis : x y z
#
# Youngs Moduli (GPa) = 52.87945 32.40496 45.65978
#
# Poissons Ratio (x) = 0.45733 0.13357
# Poissons Ratio (y) = 0.74628 0.54480
# Poissons Ratio (z) = 0.15469 0.38664
#
# Static dielectric constant tensor:
#      x y z
#    x 1.532250 0.000000 0.000000 
#    y 0.000000 1.531880 0.000000 
#    z 0.000000 0.000000 1.518550 
# 
# From -- ./inp_files/64100.got.cif
#   From: 2010.05.17/outbox.cif.g08.bks.cpg/sg65_33_cif.got.tgz:64100.got - 2010.06.03 17:01:31.
