data_PCOD9489731
_publ_section_title
;
Structure prediction by ZEFSAII (Michael W. Deem and Ramdas Pophale) SiO2 
 PCOD9489731
Probable space group: C M M M
;
_chemical_formula_sum "Si O2"
_cell_formula_units_Z 112
_cell_length_a 14.498299
_cell_length_b 14.908633
_cell_length_c 24.979255
_cell_angle_alpha 90.000000
_cell_angle_beta 90.000000
_cell_angle_gamma 90.000000
_cell_volume 5399.261445
_symmetry_space_group_name_H-M "C M M M"
_symmetry_group_IT_number 65
_symmetry_cell_setting 'orthorhombic'
loop_
_space_group_symop_operation_xyz
x,y,z
-x,-y,z
x,-y,-z
-x,y,-z
-x,-y,-z
x,y,-z
-x,y,z
x,-y,z
1/2+x,1/2+y,z
1/2-x,1/2-y,z
1/2+x,1/2-y,-z
1/2-x,1/2+y,-z
1/2-x,1/2-y,-z
1/2+x,1/2+y,-z
1/2-x,1/2+y,z
1/2+x,1/2-y,z
loop_
_atom_site_type_symbol
_atom_site_label
_atom_site_fract_x
_atom_site_fract_y
_atom_site_fract_z
Si Si1 0.101099 0.604521 0.373437
Si Si2 0.394871 0.400644 0.100294
Si Si3 0.226414 0.145564 0.559425
Si Si4 0.792945 0.604209 0.155222
Si Si5 0.604292 0.391783 0.337612
Si Si6 0.390620 0.793329 0.941290
Si Si7 0.781841 0.610352 0.274247
O O1 0.089913 0.500000 0.361067
O O2 0.176604 0.606750 0.419972
O O3 0.148736 0.643766 0.320306
O O4 0.000000 0.642415 0.386121
O O5 0.500000 0.395032 0.120673
O O6 0.384593 0.500000 0.074894
O O7 0.317034 0.394851 0.145399
O O8 0.380533 0.314276 0.063330
O O9 0.200734 0.114090 0.500000
O O10 0.250000 0.250000 0.557385
O O11 0.149386 0.129187 0.604483
O O12 0.823272 0.500000 0.151125
O O13 0.839216 0.660562 0.107962
O O14 0.809866 0.638957 0.214937
O O15 0.500000 0.357526 0.331833
O O16 0.600831 0.500000 0.334094
O O17 0.679609 0.362204 0.293538
O O18 0.500000 0.812636 0.937526
O O19 0.357513 0.823258 0.000000
O O20 0.782041 0.500000 0.273385
#
# Coordination Sequence:
#
# PCOD9489731 Si02
#       7
#    16  16  16  16  16  16  16
#     4   9  18  34  56  78 100 132 177 227 272 310
#     4   9  19  36  57  81 107 137 179 229 278 327
#     4  10  21  35  50  72 107 147 181 217 265 323
#     4  10  20  34  56  84 113 148 183 217 268 333
#     4   9  18  34  57  82 107 139 180 226 274 320
#     4  10  22  39  57  79 110 146 183 226 273 324
#     4   8  16  32  53  79 109 138 172 216 265 319
#
# _framework density 20.743577999999999
#
# number of rings (size 3 to 8) (size 9 to 14) (size 15 to 20)
#    0.000    2.714    0.000    1.714    0.000    5.429 
#    0.000   16.429    0.000    0.000    0.000    0.000 
#    0.000    0.000    0.000    0.000    0.000    0.000 
#
# Total GULP energy -312250.719208 kJ/mol
# GULP energy per Si atom -5575.905700 kJ/mol
# Density = 2.069636 g / cm^3
# Si number density = 20.743578 Si / 1000 Ang^3
#
#
#
# Elastic Constant Matrix: (Units=GPa)
#
#
# Indices 1 2 3 4 5 6 
#
# 1 85.1725 11.3363 23.8420 0.0000 0.0000 0.0000
# 2 11.3363 56.6767 18.7530 0.0000 0.0000 0.0000
# 3 23.8420 18.7530 114.8727 0.0000 0.0000 0.0000
# 4 0.0000 0.0000 0.0000 22.6730 0.0000 0.0000
# 5 0.0000 0.0000 0.0000 0.0000 10.0542 0.0000
# 6 0.0000 0.0000 0.0000 0.0000 0.0000 13.2800
#
#
#
# Elastic Compliance Matrix: (Units=1/GPa)
#
#
# Indices 1 2 3 4 5 6 
#
# 1 0.012628 -0.001753 -0.002335 0.000000 0.000000 0.000000
# 2 -0.001753 0.018895 -0.002721 0.000000 0.000000 0.000000
# 3 -0.002335 -0.002721 0.009634 0.000000 0.000000 0.000000
# 4 0.000000 0.000000 0.000000 0.044105 0.000000 0.000000
# 5 0.000000 0.000000 0.000000 0.000000 0.099461 0.000000
# 6 0.000000 0.000000 0.000000 0.000000 0.000000 0.075301
#
#
# Mechanical properties :
#
#
# Convention : Reuss Voigt Hill
#
# Bulk Modulus (GPa) = 36.31172 40.50938 38.41055
# Shear Modulus (GPa) = 17.67900 22.72081 20.19991
#
# Velocity S-wave (km/s) = 2.92252 3.31315 3.12395
# Velocity P-wave (km/s) = 5.37878 5.84867 5.61864
#
# Compressibility (1/GPa) = 0.02753932
#
# Stress axis : x y z
#
# Youngs Moduli (GPa) = 79.19052 52.92448 103.79893
#
# Poissons Ratio (x) = 0.09279 0.24234
# Poissons Ratio (y) = 0.13884 0.28240
# Poissons Ratio (z) = 0.18489 0.14399
#
# Static dielectric constant tensor:
#      x y z
#    x 1.744000 0.000000 0.000000 
#    y 0.000000 1.666630 0.000000 
#    z 0.000000 0.000000 1.725040 
# 
# From -- ./inp_files/70005.got.cif
#   From: 2010.05.17/outbox.cif.g08.bks.cpg/sg65_36_cif.got.tgz:70005.got - 2010.06.03 17:01:31.
