data_PCOD9489411
_publ_section_title
;
Structure prediction by ZEFSAII (Michael W. Deem and Ramdas Pophale) SiO2 
 PCOD9489411
Probable space group: C M M M
;
_chemical_formula_sum "Si O2"
_cell_formula_units_Z 88
_cell_length_a 21.062166
_cell_length_b 22.456550
_cell_length_c 9.564111
_cell_angle_alpha 90.000000
_cell_angle_beta 90.000000
_cell_angle_gamma 90.000000
_cell_volume 4523.667497
_symmetry_space_group_name_H-M "C M M M"
_symmetry_group_IT_number 65
_symmetry_cell_setting 'orthorhombic'
loop_
_space_group_symop_operation_xyz
x,y,z
-x,-y,z
x,-y,-z
-x,y,-z
-x,-y,-z
x,y,-z
-x,y,z
x,-y,z
1/2+x,1/2+y,z
1/2-x,1/2-y,z
1/2+x,1/2-y,-z
1/2-x,1/2+y,-z
1/2-x,1/2-y,-z
1/2+x,1/2+y,-z
1/2-x,1/2+y,z
1/2+x,1/2-y,z
loop_
_atom_site_type_symbol
_atom_site_label
_atom_site_fract_x
_atom_site_fract_y
_atom_site_fract_z
Si Si1 0.926283 0.172377 0.332360
Si Si2 0.112076 0.567454 0.655602
Si Si3 0.822208 0.726849 0.662746
Si Si4 0.141306 0.070626 0.165487
Si Si5 0.285934 0.887844 0.835417
Si Si6 0.000000 0.426706 0.842041
O O1 0.920920 0.163854 0.500000
O O2 0.875128 0.224261 0.295616
O O3 0.905998 0.111686 0.254336
O O4 0.000000 0.187684 0.301225
O O5 0.115765 0.592395 0.500000
O O6 0.089719 0.500000 0.640148
O O7 0.177841 0.566174 0.736788
O O8 0.060568 0.595877 0.756958
O O9 0.836045 0.710830 0.500000
O O10 0.750000 0.750000 0.660848
O O11 0.814988 0.672854 0.771680
O O12 0.211118 0.100557 0.182757
O O13 0.142697 0.000000 0.203251
O O14 0.126033 0.073739 0.000000
O O15 0.300036 0.894186 0.000000
O O16 0.000000 0.500000 0.850341
O O17 0.000000 0.405565 0.000000
#
# Coordination Sequence:
#
# PCOD9489411 Si02
#       6
#    16  16  16  16  16   8
#     4  10  22  41  64  90 121 158 201 252 308 364
#     4  10  20  34  53  78 110 150 195 242 297 361
#     4  10  20  38  63  87 115 152 197 246 302 364
#     4  10  22  39  60  89 124 161 200 245 303 368
#     4  11  22  36  58  86 118 153 196 249 301 357
#     4   9  17  31  51  73 103 145 189 235 290 349
#
# _framework density 19.453240999999998
#
# number of rings (size 3 to 8) (size 9 to 14) (size 15 to 20)
#    0.000    1.909    1.818    1.909    0.000    5.818 
#    1.636    1.818    0.000    0.000    0.000    0.000 
#    0.000    0.000    0.000    0.000    0.000    0.000 
#
# Total GULP energy -245028.218745 kJ/mol
# GULP energy per Si atom -5568.823153 kJ/mol
# Density = 1.940896 g / cm^3
# Si number density = 19.453241 Si / 1000 Ang^3
#
#
#
# Elastic Constant Matrix: (Units=GPa)
#
#
# Indices 1 2 3 4 5 6 
#
# 1 115.5633 50.3919 51.9695 0.0000 0.0000 0.0000
# 2 50.3919 113.8396 38.9221 0.0000 0.0000 0.0000
# 3 51.9695 38.9221 110.0293 0.0000 0.0000 0.0000
# 4 0.0000 0.0000 0.0000 -1.9349 0.0000 0.0000
# 5 0.0000 0.0000 0.0000 0.0000 23.1212 0.0000
# 6 0.0000 0.0000 0.0000 0.0000 0.0000 171.5718
#
#
#
# Elastic Compliance Matrix: (Units=1/GPa)
#
#
# Indices 1 2 3 4 5 6 
#
# 1 0.012379 -0.003960 -0.004446 0.000000 0.000000 0.000000
# 2 -0.003960 0.011259 -0.002113 0.000000 0.000000 0.000000
# 3 -0.004446 -0.002113 0.011936 0.000000 0.000000 0.000000
# 4 0.000000 0.000000 0.000000 -0.516809 0.000000 0.000000
# 5 0.000000 0.000000 0.000000 0.000000 0.043250 0.000000
# 6 0.000000 0.000000 0.000000 0.000000 0.000000 0.005828
#
#
# Mechanical properties :
#
#
# Convention : Reuss Voigt Hill
#
# Bulk Modulus (GPa) = 68.78839 69.11104 68.94971
# Shear Modulus (GPa) = -12.30701 51.76152 19.72726
#
# Velocity S-wave (km/s) = -2.51797 5.16391 3.18793
# Velocity P-wave (km/s) = 5.19462 8.43555 7.00509
#
# Compressibility (1/GPa) = 0.01453734
#
# Stress axis : x y z
#
# Youngs Moduli (GPa) = 80.77901 88.81488 83.78014
#
# Poissons Ratio (x) = 0.35167 0.37252
# Poissons Ratio (y) = 0.31985 0.17700
# Poissons Ratio (z) = 0.35918 0.18764
#
# Static dielectric constant tensor:
#      x y z
#    x 1.724140 0.000000 0.000000 
#    y 0.000000 1.832040 0.000000 
#    z 0.000000 0.000000 1.670060 
# 
# From -- ./inp_files/11773.got.cif
#   From: 2010.05.17/outbox.cif.g08.bks.cpg/sg65_6_cif.got.tgz:11773.got - 2010.06.03 17:01:31.
