data_PCOD9489895
_publ_section_title
;
Structure prediction by ZEFSAII (Michael W. Deem and Ramdas Pophale) SiO2 
 PCOD9489895
Probable space group: C M M M
;
_chemical_formula_sum "Si O2"
_cell_formula_units_Z 104
_cell_length_a 8.686731
_cell_length_b 30.102106
_cell_length_c 20.624165
_cell_angle_alpha 90.000000
_cell_angle_beta 90.000000
_cell_angle_gamma 90.000000
_cell_volume 5392.990165
_symmetry_space_group_name_H-M "C M M M"
_symmetry_group_IT_number 65
_symmetry_cell_setting 'orthorhombic'
loop_
_space_group_symop_operation_xyz
x,y,z
-x,-y,z
x,-y,-z
-x,y,-z
-x,-y,-z
x,y,-z
-x,y,z
x,-y,z
1/2+x,1/2+y,z
1/2-x,1/2-y,z
1/2+x,1/2-y,-z
1/2-x,1/2+y,-z
1/2-x,1/2-y,-z
1/2+x,1/2+y,-z
1/2-x,1/2+y,z
1/2+x,1/2-y,z
loop_
_atom_site_type_symbol
_atom_site_label
_atom_site_fract_x
_atom_site_fract_y
_atom_site_fract_z
Si Si1 0.186444 0.357092 0.124956
Si Si2 0.680332 0.447714 0.309842
Si Si3 0.314923 0.049701 0.831992
Si Si4 0.183831 0.797311 0.236713
Si Si5 0.315994 0.203578 0.381440
Si Si6 0.313911 0.799852 0.000000
Si Si7 0.185265 0.392680 0.428730
O O1 0.233786 0.408863 0.123712
O O2 0.255534 0.335032 0.189164
O O3 0.000000 0.355474 0.128738
O O4 0.234066 0.327771 0.063382
O O5 0.500000 0.438530 0.300209
O O6 0.699340 0.500000 0.325116
O O7 0.766046 0.439862 0.241875
O O8 0.743076 0.418916 0.368953
O O9 0.500000 0.047974 0.834346
O O10 0.256063 0.000000 0.847957
O O11 0.500000 0.704021 0.237928
O O12 0.250000 0.750000 0.212924
O O13 0.247429 0.803082 0.309388
O O14 0.500000 0.207457 0.376372
O O15 0.250000 0.250000 0.407246
O O16 0.278494 0.159565 0.421456
O O17 0.250000 0.750000 0.000000
O O18 0.500000 0.797445 0.000000
O O19 0.235398 0.408562 0.500000
O O20 0.000000 0.396936 0.424880
#
# Coordination Sequence:
#
# PCOD9489895 Si02
#       7
#    16  16  16  16  16   8  16
#     4  10  20  35  54  78 109 142 177 217 260 306
#     4  10  21  36  55  81 110 137 170 217 268 314
#     4   9  18  34  57  82 107 138 175 214 260 314
#     4  11  21  33  52  78 105 134 172 217 266 316
#     4  10  20  35  54  76 103 134 171 217 266 315
#     4  10  22  38  55  77 109 147 182 218 259 306
#     4  10  22  38  54  74 102 138 178 216 258 315
#
# _framework density 19.284293000000002
#
# number of rings (size 3 to 8) (size 9 to 14) (size 15 to 20)
#    0.000    2.000    0.000    4.615    0.000    9.231 
#    0.000    1.923    0.000    2.308    0.000    0.000 
#    0.000    4.308    0.000    0.000    0.000    0.000 
#
# Total GULP energy -290379.736182 kJ/mol
# GULP energy per Si atom -5584.225696 kJ/mol
# Density = 1.924040 g / cm^3
# Si number density = 19.284293 Si / 1000 Ang^3
#
#
#
# Elastic Constant Matrix: (Units=GPa)
#
#
# Indices 1 2 3 4 5 6 
#
# 1 29.1979 26.7712 10.0043 0.0000 0.0000 0.0000
# 2 26.7712 122.3900 53.9839 0.0000 0.0000 0.0000
# 3 10.0043 53.9839 49.9981 0.0000 0.0000 0.0000
# 4 0.0000 0.0000 0.0000 37.0529 0.0000 0.0000
# 5 0.0000 0.0000 0.0000 0.0000 7.3656 0.0000
# 6 0.0000 0.0000 0.0000 0.0000 0.0000 28.3096
#
#
#
# Elastic Compliance Matrix: (Units=1/GPa)
#
#
# Indices 1 2 3 4 5 6 
#
# 1 0.043070 -0.010730 0.002967 0.000000 0.000000 0.000000
# 2 -0.010730 0.018273 -0.017583 0.000000 0.000000 0.000000
# 3 0.002967 -0.017583 0.038391 0.000000 0.000000 0.000000
# 4 0.000000 0.000000 0.000000 0.026988 0.000000 0.000000
# 5 0.000000 0.000000 0.000000 0.000000 0.135766 0.000000
# 6 0.000000 0.000000 0.000000 0.000000 0.000000 0.035324
#
#
# Mechanical properties :
#
#
# Convention : Reuss Voigt Hill
#
# Bulk Modulus (GPa) = 20.38991 42.56723 31.47857
# Shear Modulus (GPa) = 13.70419 21.93407 17.81913
#
# Velocity S-wave (km/s) = 2.66868 3.37620 3.04307
# Velocity P-wave (km/s) = 4.48242 6.10899 5.35779
#
# Compressibility (1/GPa) = 0.04904387
#
# Stress axis : x y z
#
# Youngs Moduli (GPa) = 23.21781 54.72547 26.04743
#
# Poissons Ratio (x) = 0.58719 -0.07728
# Poissons Ratio (y) = 0.24912 0.45799
# Poissons Ratio (z) = -0.06889 0.96223
#
# Static dielectric constant tensor:
#      x y z
#    x 1.652820 0.000000 0.000000 
#    y 0.000000 1.712880 0.000000 
#    z 0.000000 0.000000 1.648160 
# 
# From -- ./inp_files/60836.got.cif
#   From: 2010.05.17/outbox.cif.g08.bks.cpg/sg65_31_cif.got.tgz:60836.got - 2010.06.03 17:01:31.
