data_PCOD9489989
_publ_section_title
;
Structure prediction by ZEFSAII (Michael W. Deem and Ramdas Pophale) SiO2 
 PCOD9489989
Probable space group: C M M M
;
_chemical_formula_sum "Si O2"
_cell_formula_units_Z 80
_cell_length_a 8.527538
_cell_length_b 30.346580
_cell_length_c 16.773132
_cell_angle_alpha 90.000000
_cell_angle_beta 90.000000
_cell_angle_gamma 90.000000
_cell_volume 4340.578173
_symmetry_space_group_name_H-M "C M M M"
_symmetry_group_IT_number 65
_symmetry_cell_setting 'orthorhombic'
loop_
_space_group_symop_operation_xyz
x,y,z
-x,-y,z
x,-y,-z
-x,y,-z
-x,-y,-z
x,y,-z
-x,y,z
x,-y,z
1/2+x,1/2+y,z
1/2-x,1/2-y,z
1/2+x,1/2-y,-z
1/2-x,1/2+y,-z
1/2-x,1/2-y,-z
1/2+x,1/2+y,-z
1/2-x,1/2+y,z
1/2+x,1/2-y,z
loop_
_atom_site_type_symbol
_atom_site_label
_atom_site_fract_x
_atom_site_fract_y
_atom_site_fract_z
Si Si1 0.311250 0.201233 0.408349
Si Si2 0.688952 0.950352 0.827065
Si Si3 0.183295 0.207306 0.156284
Si Si4 0.821302 0.325903 0.000000
Si Si5 0.690082 0.865475 0.730132
Si Si6 0.817635 0.079394 0.000000
O O1 0.260144 0.194055 0.500000
O O2 0.500000 0.203749 0.406584
O O3 0.250000 0.250000 0.384486
O O4 0.267734 0.159452 0.352535
O O5 0.500000 0.950162 0.830540
O O6 0.731937 0.915131 0.757821
O O7 0.745576 0.937479 0.916323
O O8 0.743009 0.000000 0.809297
O O9 0.250000 0.250000 0.200549
O O10 0.222218 0.164196 0.205422
O O11 0.000000 0.211199 0.140155
O O12 0.284753 0.202497 0.076897
O O13 0.709145 0.368094 0.000000
O O14 0.000000 0.341756 0.000000
O O15 0.500000 0.861686 0.738326
O O16 0.000000 0.068244 0.000000
#
# Coordination Sequence:
#
# PCOD9489989 Si02
#       6
#    16  16  16   8  16   8
#     4   9  18  33  54  81 111 143 179 219 266 321
#     4  10  21  37  57  78 104 143 187 229 277 331
#     4  12  24  37  53  76 106 142 181 222 267 319
#     4  12  23  38  55  73 103 142 181 222 266 320
#     4  10  20  35  55  78 107 142 179 224 273 324
#     4  12  23  36  55  80 106 139 182 234 284 324
#
# _framework density 18.430724000000001
#
# number of rings (size 3 to 8) (size 9 to 14) (size 15 to 20)
#    0.000    1.400    2.000    4.800    0.000    4.000 
#    0.000    0.000    0.000    0.600    0.000    4.200 
#    0.000    0.000    0.000    8.600    0.000    9.200 
#
# Total GULP energy -223085.914158 kJ/mol
# GULP energy per Si atom -5577.147854 kJ/mol
# Density = 1.838877 g / cm^3
# Si number density = 18.430724 Si / 1000 Ang^3
#
#
#
# Elastic Constant Matrix: (Units=GPa)
#
#
# Indices 1 2 3 4 5 6 
#
# 1 22.0272 10.5009 15.5633 0.0000 0.0000 0.0000
# 2 10.5009 151.3551 55.9923 0.0000 0.0000 0.0000
# 3 15.5633 55.9923 116.7598 0.0000 0.0000 0.0000
# 4 0.0000 0.0000 0.0000 15.3577 0.0000 0.0000
# 5 0.0000 0.0000 0.0000 0.0000 8.9944 0.0000
# 6 0.0000 0.0000 0.0000 0.0000 0.0000 19.6656
#
#
#
# Elastic Compliance Matrix: (Units=1/GPa)
#
#
# Indices 1 2 3 4 5 6 
#
# 1 0.050305 -0.001227 -0.006117 0.000000 0.000000 0.000000
# 2 -0.001227 0.008062 -0.003702 0.000000 0.000000 0.000000
# 3 -0.006117 -0.003702 0.011155 0.000000 0.000000 0.000000
# 4 0.000000 0.000000 0.000000 0.065114 0.000000 0.000000
# 5 0.000000 0.000000 0.000000 0.000000 0.111181 0.000000
# 6 0.000000 0.000000 0.000000 0.000000 0.000000 0.050850
#
#
# Mechanical properties :
#
#
# Convention : Reuss Voigt Hill
#
# Bulk Modulus (GPa) = 21.08391 50.47278 35.77835
# Shear Modulus (GPa) = 14.94454 22.67590 18.81022
#
# Velocity S-wave (km/s) = 2.85063 3.51141 3.19813
# Velocity P-wave (km/s) = 4.72220 6.62455 5.75256
#
# Compressibility (1/GPa) = 0.04742953
#
# Stress axis : x y z
#
# Youngs Moduli (GPa) = 19.87856 124.04146 89.64228
#
# Poissons Ratio (x) = 0.15224 0.54833
# Poissons Ratio (y) = 0.02440 0.33190
# Poissons Ratio (z) = 0.12159 0.45926
#
# Static dielectric constant tensor:
#      x y z
#    x 1.625710 0.000000 0.000000 
#    y 0.000000 1.678750 0.000000 
#    z 0.000000 0.000000 1.668970 
# 
# From -- ./inp_files/50164.got.cif
#   From: 2010.05.17/outbox.cif.g08.bks.cpg/sg65_26_cif.got.tgz:50164.got - 2010.06.03 17:01:31.
