data_PCOD9489523
_publ_section_title
;
Structure prediction by ZEFSAII (Michael W. Deem and Ramdas Pophale) SiO2 
 PCOD9489523
Probable space group: C M M M
;
_chemical_formula_sum "Si O2"
_cell_formula_units_Z 104
_cell_length_a 8.171993
_cell_length_b 27.234936
_cell_length_c 21.602387
_cell_angle_alpha 90.000000
_cell_angle_beta 90.000000
_cell_angle_gamma 90.000000
_cell_volume 4807.907317
_symmetry_space_group_name_H-M "C M M M"
_symmetry_group_IT_number 65
_symmetry_cell_setting 'orthorhombic'
loop_
_space_group_symop_operation_xyz
x,y,z
-x,-y,z
x,-y,-z
-x,y,-z
-x,-y,-z
x,y,-z
-x,y,z
x,-y,z
1/2+x,1/2+y,z
1/2-x,1/2-y,z
1/2+x,1/2-y,-z
1/2-x,1/2+y,-z
1/2-x,1/2-y,-z
1/2+x,1/2+y,-z
1/2-x,1/2+y,z
1/2+x,1/2-y,z
loop_
_atom_site_type_symbol
_atom_site_label
_atom_site_fract_x
_atom_site_fract_y
_atom_site_fract_z
Si Si1 0.304143 0.305419 0.427935
Si Si2 0.696617 0.302549 0.802968
Si Si3 0.304728 0.340663 0.067340
Si Si4 0.307350 0.054136 0.888495
Si Si5 0.190101 0.441882 0.500000
Si Si6 0.693445 0.590943 0.760526
Si Si7 0.192947 0.402122 0.371969
O O1 0.256573 0.315995 0.500000
O O2 0.500000 0.309211 0.423454
O O3 0.250000 0.250000 0.414927
O O4 0.223644 0.344288 0.382024
O O5 0.500000 0.302824 0.803717
O O6 0.750000 0.250000 0.778182
O O7 0.759609 0.310817 0.873464
O O8 0.747599 0.351980 0.767697
O O9 0.500000 0.333308 0.066161
O O10 0.274510 0.398412 0.080571
O O11 0.236504 0.327304 0.000000
O O12 0.500000 0.056346 0.902281
O O13 0.281127 0.061023 0.814694
O O14 0.245617 0.000000 0.906898
O O15 0.187168 0.500000 0.500000
O O16 0.264342 0.424131 0.435608
O O17 0.000000 0.423870 0.500000
O O18 0.500000 0.588086 0.773316
O O19 0.728251 0.577239 0.690177
O O20 0.000000 0.412488 0.368406
#
# Coordination Sequence:
#
# PCOD9489523 Si02
#       7
#    16  16  16  16   8  16  16
#     4  10  20  34  54  79 109 142 179 222 271 328
#     4   9  19  35  55  79 110 147 186 229 271 319
#     4   9  19  36  56  81 115 152 188 226 273 332
#     4  10  21  37  57  82 111 143 184 235 287 335
#     4   9  20  38  58  81 110 143 178 221 276 337
#     4  10  22  39  57  80 111 146 188 232 278 334
#     4  11  21  36  59  84 112 145 184 229 283 340
#
# _framework density 21.631034
#
# number of rings (size 3 to 8) (size 9 to 14) (size 15 to 20)
#    0.000    2.231    0.769    2.769    0.000    7.077 
#    0.000    4.615    0.000    3.231    0.000    0.000 
#    0.000    0.000    0.000    0.000    0.000    0.000 
#
# Total GULP energy -290354.286626 kJ/mol
# GULP energy per Si atom -5583.736281 kJ/mol
# Density = 2.158180 g / cm^3
# Si number density = 21.631034 Si / 1000 Ang^3
#
#
#
# Elastic Constant Matrix: (Units=GPa)
#
#
# Indices 1 2 3 4 5 6 
#
# 1 18.7545 -7.8930 -4.0821 0.0000 0.0000 0.0000
# 2 -7.8930 37.3073 -21.5403 0.0000 0.0000 0.0000
# 3 -4.0821 -21.5403 71.6072 0.0000 0.0000 0.0000
# 4 0.0000 0.0000 0.0000 -0.4997 0.0000 0.0000
# 5 0.0000 0.0000 0.0000 0.0000 15.9186 0.0000
# 6 0.0000 0.0000 0.0000 0.0000 0.0000 19.2893
#
#
#
# Elastic Compliance Matrix: (Units=1/GPa)
#
#
# Indices 1 2 3 4 5 6 
#
# 1 0.063198 0.018698 0.009227 0.000000 0.000000 0.000000
# 2 0.018698 0.037971 0.012488 0.000000 0.000000 0.000000
# 3 0.009227 0.012488 0.018248 0.000000 0.000000 0.000000
# 4 0.000000 0.000000 0.000000 -2.001040 0.000000 0.000000
# 5 0.000000 0.000000 0.000000 0.000000 0.062820 0.000000
# 6 0.000000 0.000000 0.000000 0.000000 0.000000 0.051842
#
#
# Mechanical properties :
#
#
# Convention : Reuss Voigt Hill
#
# Bulk Modulus (GPa) = 4.99392 6.73760 5.86576
# Shear Modulus (GPa) = -2.80735 17.68725 7.43995
#
# Velocity S-wave (km/s) = -1.14046 2.86261 1.85660
# Velocity P-wave (km/s) = 0.76125 3.74801 2.70436
#
# Compressibility (1/GPa) = 0.20024337
#
# Stress axis : x y z
#
# Youngs Moduli (GPa) = 15.82324 26.33620 54.80174
#
# Poissons Ratio (x) = -0.49244 -0.50568
# Poissons Ratio (y) = -0.29587 -0.68436
# Poissons Ratio (z) = -0.14601 -0.32888
#
# Static dielectric constant tensor:
#      x y z
#    x 1.766770 0.000000 0.000000 
#    y 0.000000 1.780600 0.000000 
#    z 0.000000 0.000000 1.823730 
# 
# From -- ./inp_files/60453.got.cif
#   From: 2010.05.17/outbox.cif.g08.bks.cpg/sg65_31_cif.got.tgz:60453.got - 2010.06.03 17:01:31.
