data_PCOD9489938
_publ_section_title
;
Structure prediction by ZEFSAII (Michael W. Deem and Ramdas Pophale) SiO2 
 PCOD9489938
Probable space group: C M M M
;
_chemical_formula_sum "Si O2"
_cell_formula_units_Z 88
_cell_length_a 8.224926
_cell_length_b 19.811032
_cell_length_c 28.955809
_cell_angle_alpha 90.000000
_cell_angle_beta 90.000000
_cell_angle_gamma 90.000000
_cell_volume 4718.183223
_symmetry_space_group_name_H-M "C M M M"
_symmetry_group_IT_number 65
_symmetry_cell_setting 'orthorhombic'
loop_
_space_group_symop_operation_xyz
x,y,z
-x,-y,z
x,-y,-z
-x,y,-z
-x,-y,-z
x,y,-z
-x,y,z
x,-y,z
1/2+x,1/2+y,z
1/2-x,1/2-y,z
1/2+x,1/2-y,-z
1/2-x,1/2+y,-z
1/2-x,1/2-y,-z
1/2+x,1/2+y,-z
1/2-x,1/2+y,z
1/2+x,1/2-y,z
loop_
_atom_site_type_symbol
_atom_site_label
_atom_site_fract_x
_atom_site_fract_y
_atom_site_fract_z
Si Si1 0.804044 0.077582 0.098607
Si Si2 0.696067 0.923022 0.366365
Si Si3 0.696415 0.174746 0.447229
Si Si4 0.306023 0.921704 0.000000
Si Si5 0.803628 0.174284 0.819953
Si Si6 0.694777 0.674015 0.285203
O O1 0.754443 0.106846 0.048684
O O2 0.745003 0.121931 0.141532
O O3 0.000000 0.075897 0.100159
O O4 0.744616 0.000000 0.101853
O O5 0.500000 0.925388 0.369036
O O6 0.754769 0.880997 0.410998
O O7 0.741749 0.880506 0.321237
O O8 0.756428 0.000000 0.365148
O O9 0.752372 0.163122 0.500000
O O10 0.500000 0.173485 0.447442
O O11 0.750000 0.250000 0.433295
O O12 0.500000 0.921372 0.000000
O O13 0.246923 0.000000 0.000000
O O14 0.750000 0.250000 0.831554
O O15 0.748394 0.160055 0.767420
O O16 0.000000 0.172043 0.819629
O O17 0.500000 0.672730 0.285733
O O18 0.750000 0.750000 0.297469
#
# Coordination Sequence:
#
# PCOD9489938 Si02
#       6
#    16  16  16   8  16  16
#     4   9  17  31  51  72  95 126 163 200 239 286
#     4  10  21  35  51  75 106 136 168 209 255 301
#     4   9  18  33  53  75  99 131 171 211 250 296
#     4   9  17  29  46  71 100 127 159 199 242 287
#     4   9  19  34  52  74  99 128 162 202 246 293
#     4  10  20  35  55  76 100 133 171 209 251 301
#
# _framework density 18.651247000000001
#
# number of rings (size 3 to 8) (size 9 to 14) (size 15 to 20)
#    0.000    2.636    0.000    1.364    0.000    6.182 
#    0.000    4.091    0.000    2.182    0.000    3.818 
#    0.000    0.000    0.000    0.000    0.000    0.000 
#
# Total GULP energy -245397.865605 kJ/mol
# GULP energy per Si atom -5577.224218 kJ/mol
# Density = 1.860880 g / cm^3
# Si number density = 18.651247 Si / 1000 Ang^3
#
#
#
# Elastic Constant Matrix: (Units=GPa)
#
#
# Indices 1 2 3 4 5 6 
#
# 1 7.4735 11.7503 12.4645 0.0000 0.0000 0.0000
# 2 11.7503 143.6856 120.7185 0.0000 0.0000 0.0000
# 3 12.4645 120.7185 151.3926 0.0000 0.0000 0.0000
# 4 0.0000 0.0000 0.0000 44.0925 0.0000 0.0000
# 5 0.0000 0.0000 0.0000 0.0000 9.8893 0.0000
# 6 0.0000 0.0000 0.0000 0.0000 0.0000 22.0762
#
#
#
# Elastic Compliance Matrix: (Units=1/GPa)
#
#
# Indices 1 2 3 4 5 6 
#
# 1 0.156786 -0.005988 -0.008134 0.000000 0.000000 0.000000
# 2 -0.005988 0.021314 -0.016503 0.000000 0.000000 0.000000
# 3 -0.008134 -0.016503 0.020434 0.000000 0.000000 0.000000
# 4 0.000000 0.000000 0.000000 0.022680 0.000000 0.000000
# 5 0.000000 0.000000 0.000000 0.000000 0.101120 0.000000
# 6 0.000000 0.000000 0.000000 0.000000 0.000000 0.045298
#
#
# Mechanical properties :
#
#
# Convention : Reuss Voigt Hill
#
# Bulk Modulus (GPa) = 7.28409 65.82424 36.55416
# Shear Modulus (GPa) = 10.53427 25.71949 18.12688
#
# Velocity S-wave (km/s) = 2.37914 3.71748 3.12089
# Velocity P-wave (km/s) = 3.38540 7.33450 5.71209
#
# Compressibility (1/GPa) = 0.13728554
#
# Stress axis : x y z
#
# Youngs Moduli (GPa) = 6.37811 46.91738 48.93820
#
# Poissons Ratio (x) = 0.28094 0.39805
# Poissons Ratio (y) = 0.03819 0.80761
# Poissons Ratio (z) = 0.05188 0.77426
#
# Static dielectric constant tensor:
#      x y z
#    x 1.652110 0.000000 0.000000 
#    y 0.000000 1.621730 0.000000 
#    z 0.000000 0.000000 1.661550 
# 
# From -- ./inp_files/76510.got.cif
#   From: 2010.05.17/outbox.cif.g08.bks.cpg/sg65_39_cif.got.tgz:76510.got - 2010.06.03 17:01:31.
