data_PCOD9489131
_publ_section_title
;
Structure prediction by ZEFSAII (Michael W. Deem and Ramdas Pophale) SiO2 
 PCOD9489131
Probable space group: C M M M
;
_chemical_formula_sum "Si O2"
_cell_formula_units_Z 72
_cell_length_a 8.363532
_cell_length_b 29.423574
_cell_length_c 19.086584
_cell_angle_alpha 90.000000
_cell_angle_beta 90.000000
_cell_angle_gamma 90.000000
_cell_volume 4696.922075
_symmetry_space_group_name_H-M "C M M M"
_symmetry_group_IT_number 65
_symmetry_cell_setting 'orthorhombic'
loop_
_space_group_symop_operation_xyz
x,y,z
-x,-y,z
x,-y,-z
-x,y,-z
-x,-y,-z
x,y,-z
-x,y,z
x,-y,z
1/2+x,1/2+y,z
1/2-x,1/2-y,z
1/2+x,1/2-y,-z
1/2-x,1/2+y,-z
1/2-x,1/2-y,-z
1/2+x,1/2+y,-z
1/2-x,1/2+y,z
1/2+x,1/2-y,z
loop_
_atom_site_type_symbol
_atom_site_label
_atom_site_fract_x
_atom_site_fract_y
_atom_site_fract_z
Si Si1 0.695201 0.552425 0.000000
Si Si2 0.693517 0.052647 0.271641
Si Si3 0.189638 0.444988 0.575334
Si Si4 0.691139 0.392784 0.862309
Si Si5 0.308794 0.799734 0.919123
O O1 0.748838 0.578594 0.069807
O O2 0.746566 0.500000 0.000000
O O3 0.500000 0.552729 0.000000
O O4 0.500000 0.052290 0.274056
O O5 0.752824 0.069129 0.348449
O O6 0.748007 0.083785 0.208145
O O7 0.744908 0.000000 0.260827
O O8 0.257951 0.429460 0.500000
O O9 0.200419 0.500000 0.576095
O O10 0.000000 0.434179 0.574305
O O11 0.500000 0.394176 0.862440
O O12 0.746319 0.341179 0.873070
O O13 0.500000 0.800195 0.919231
O O14 0.250000 0.750000 0.896730
O O15 0.252364 0.806560 0.000000
#
# Coordination Sequence:
#
# PCOD9489131 Si02
#       5
#     8  16  16  16  16
#     4   9  18  30  42  57  80 115 156 189 212 245
#     4   9  17  28  42  63  91 120 152 190 227 262
#     4   7  10  19  37  59  82 111 147 184 221 261
#     4  11  20  31  46  63  88 119 153 186 222 265
#     4  10  20  34  52  70  88 108 139 182 230 274
#
# _framework density 15.329188
#
# number of rings (size 3 to 8) (size 9 to 14) (size 15 to 20)
#    0.000    2.778    1.111    4.000    0.000    2.222 
#    0.000    0.000    0.000    3.333    0.000    3.111 
#    0.000    0.889    0.000    2.444    0.000    3.556 
#
# Total GULP energy -200491.583946 kJ/mol
# GULP energy per Si atom -5569.210665 kJ/mol
# Density = 1.529430 g / cm^3
# Si number density = 15.329188 Si / 1000 Ang^3
#
#
#
# Elastic Constant Matrix: (Units=GPa)
#
#
# Indices 1 2 3 4 5 6 
#
# 1 16.8278 15.1781 21.0481 0.0000 0.0000 0.0000
# 2 15.1781 98.8718 74.2721 0.0000 0.0000 0.0000
# 3 21.0481 74.2721 163.3555 0.0000 0.0000 0.0000
# 4 0.0000 0.0000 0.0000 2.1729 0.0000 0.0000
# 5 0.0000 0.0000 0.0000 0.0000 6.0726 0.0000
# 6 0.0000 0.0000 0.0000 0.0000 0.0000 14.3508
#
#
#
# Elastic Compliance Matrix: (Units=1/GPa)
#
#
# Indices 1 2 3 4 5 6 
#
# 1 0.073353 -0.006319 -0.006578 0.000000 0.000000 0.000000
# 2 -0.006319 0.015905 -0.006417 0.000000 0.000000 0.000000
# 3 -0.006578 -0.006417 0.009887 0.000000 0.000000 0.000000
# 4 0.000000 0.000000 0.000000 0.460211 0.000000 0.000000
# 5 0.000000 0.000000 0.000000 0.000000 0.164673 0.000000
# 6 0.000000 0.000000 0.000000 0.000000 0.000000 0.069682
#
#
# Mechanical properties :
#
#
# Convention : Reuss Voigt Hill
#
# Bulk Modulus (GPa) = 16.52465 55.56131 36.04298
# Shear Modulus (GPa) = 5.86502 15.75640 10.81071
#
# Velocity S-wave (km/s) = 1.95815 3.20952 2.65851
# Velocity P-wave (km/s) = 3.98945 7.07522 5.74345
#
# Compressibility (1/GPa) = 0.06051566
#
# Stress axis : x y z
#
# Youngs Moduli (GPa) = 13.63268 62.87470 101.14418
#
# Poissons Ratio (x) = 0.39730 0.66537
# Poissons Ratio (y) = 0.08614 0.64905
# Poissons Ratio (z) = 0.08968 0.40347
#
# Static dielectric constant tensor:
#      x y z
#    x 1.526260 0.000000 0.000000 
#    y 0.000000 1.477400 0.000000 
#    z 0.000000 0.000000 1.547880 
# 
# From -- ./inp_files/49729.got.cif
#   From: 2010.05.17/outbox.cif.g08.bks.cpg/sg65_25_cif.got.tgz:49729.got - 2010.06.03 17:01:31.
