data_PCOD9489268
_publ_section_title
;
Structure prediction by ZEFSAII (Michael W. Deem and Ramdas Pophale) SiO2 
 PCOD9489268
Probable space group: C M M M
;
_chemical_formula_sum "Si O2"
_cell_formula_units_Z 48
_cell_length_a 7.550031
_cell_length_b 39.681430
_cell_length_c 7.926985
_cell_angle_alpha 90.000000
_cell_angle_beta 90.000000
_cell_angle_gamma 90.000000
_cell_volume 2374.893209
_symmetry_space_group_name_H-M "C M M M"
_symmetry_group_IT_number 65
_symmetry_cell_setting 'orthorhombic'
loop_
_space_group_symop_operation_xyz
x,y,z
-x,-y,z
x,-y,-z
-x,y,-z
-x,-y,-z
x,y,-z
-x,y,z
x,-y,z
1/2+x,1/2+y,z
1/2-x,1/2-y,z
1/2+x,1/2-y,-z
1/2-x,1/2+y,-z
1/2-x,1/2-y,-z
1/2+x,1/2+y,-z
1/2-x,1/2+y,z
1/2+x,1/2-y,z
loop_
_atom_site_type_symbol
_atom_site_label
_atom_site_fract_x
_atom_site_fract_y
_atom_site_fract_z
Si Si1 0.000000 0.037922 0.700469
Si Si2 0.783585 0.335382 0.194001
Si Si3 0.699904 0.089587 0.202739
Si Si4 0.787799 0.710540 0.500000
O O1 0.829658 0.059663 0.751066
O O2 0.000000 0.035495 0.500000
O O3 0.000000 0.000000 0.771758
O O4 0.734096 0.373143 0.253118
O O5 0.723115 0.308116 0.330426
O O6 0.000000 0.335389 0.189695
O O7 0.725203 0.329644 0.000000
O O8 0.500000 0.084513 0.267696
O O9 0.691179 0.091286 0.000000
O O10 0.750000 0.750000 0.500000
O O11 0.000000 0.706393 0.500000
#
# Coordination Sequence:
#
# PCOD9489268 Si02
#       4
#     8  16  16   8
#     4  11  25  39  53  85 127 159 189 239 299 355
#     4   8  16  33  56  79 105 142 189 237 282 337
#     4   9  19  38  63  86 108 147 202 248 292 345
#     4  10  20  34  52  78 110 145 181 222 284 349
#
# _framework density 20.211434000000001
#
# number of rings (size 3 to 8) (size 9 to 14) (size 15 to 20)
#    0.000    2.833    0.000    2.500    2.333    3.333 
#    3.000    3.333    0.000    0.000    0.000    0.000 
#    0.000    0.000    0.000    0.000    0.000    0.000 
#
# Total GULP energy -133934.139843 kJ/mol
# GULP energy per Si atom -5580.589160 kJ/mol
# Density = 2.016543 g / cm^3
# Si number density = 20.211434 Si / 1000 Ang^3
#
#
#
# Elastic Constant Matrix: (Units=GPa)
#
#
# Indices 1 2 3 4 5 6 
#
# 1 73.1023 56.8918 23.3761 0.0000 0.0000 0.0000
# 2 56.8918 217.8545 82.3200 0.0000 0.0000 0.0000
# 3 23.3761 82.3200 80.7123 0.0000 0.0000 0.0000
# 4 0.0000 0.0000 0.0000 48.8463 0.0000 0.0000
# 5 0.0000 0.0000 0.0000 0.0000 -4.4085 0.0000
# 6 0.0000 0.0000 0.0000 0.0000 0.0000 30.5429
#
#
#
# Elastic Compliance Matrix: (Units=1/GPa)
#
#
# Indices 1 2 3 4 5 6 
#
# 1 0.017190 -0.004243 -0.000651 0.000000 0.000000 0.000000
# 2 -0.004243 0.008516 -0.007457 0.000000 0.000000 0.000000
# 3 -0.000651 -0.007457 0.020183 0.000000 0.000000 0.000000
# 4 0.000000 0.000000 0.000000 0.020472 0.000000 0.000000
# 5 0.000000 0.000000 0.000000 0.000000 -0.226834 0.000000
# 6 0.000000 0.000000 0.000000 0.000000 0.000000 0.032741
#
#
# Mechanical properties :
#
#
# Convention : Reuss Voigt Hill
#
# Bulk Modulus (GPa) = 47.19718 77.42721 62.31219
# Shear Modulus (GPa) = -52.10096 28.93488 -11.58304
#
# Velocity S-wave (km/s) = -5.08271 3.78777 -2.39653
# Velocity P-wave (km/s) = 3.32307 7.58428 4.82071
#
# Compressibility (1/GPa) = 0.02118771
#
# Stress axis : x y z
#
# Youngs Moduli (GPa) = 58.17411 117.42764 49.54575
#
# Poissons Ratio (x) = 0.49825 0.03225
# Poissons Ratio (y) = 0.24684 0.36944
# Poissons Ratio (z) = 0.03787 0.87561
#
# Static dielectric constant tensor:
#      x y z
#    x 1.862410 0.000000 0.000000 
#    y 0.000000 1.706280 0.000000 
#    z 0.000000 0.000000 1.719250 
# 
# From -- ./inp_files/3094.got.cif
#   From: 2010.05.17/outbox.cif.g08.bks.cpg/sg65_2_cif.got.tgz:3094.got - 2010.06.03 17:01:31.
