data_PCOD9489928
_publ_section_title
;
Structure prediction by ZEFSAII (Michael W. Deem and Ramdas Pophale) SiO2 
 PCOD9489928
Probable space group: C M M M
;
_chemical_formula_sum "Si O2"
_cell_formula_units_Z 64
_cell_length_a 8.754413
_cell_length_b 29.015181
_cell_length_c 16.082827
_cell_angle_alpha 90.000000
_cell_angle_beta 90.000000
_cell_angle_gamma 90.000000
_cell_volume 4085.213003
_symmetry_space_group_name_H-M "C M M M"
_symmetry_group_IT_number 65
_symmetry_cell_setting 'orthorhombic'
loop_
_space_group_symop_operation_xyz
x,y,z
-x,-y,z
x,-y,-z
-x,y,-z
-x,-y,-z
x,y,-z
-x,y,z
x,-y,z
1/2+x,1/2+y,z
1/2-x,1/2-y,z
1/2+x,1/2-y,-z
1/2-x,1/2+y,-z
1/2-x,1/2-y,-z
1/2+x,1/2+y,-z
1/2-x,1/2+y,z
1/2+x,1/2-y,z
loop_
_atom_site_type_symbol
_atom_site_label
_atom_site_fract_x
_atom_site_fract_y
_atom_site_fract_z
Si Si1 0.181580 0.054943 0.000000
Si Si2 0.317683 0.299767 0.901484
Si Si3 0.822457 0.055916 0.500000
Si Si4 0.185345 0.054328 0.317529
Si Si5 0.682181 0.893438 0.840219
O O1 0.253613 0.077459 0.081848
O O2 0.000000 0.064279 0.000000
O O3 0.204553 0.000000 0.000000
O O4 0.500000 0.299932 0.891098
O O5 0.250000 0.250000 0.878837
O O6 0.243151 0.341620 0.851923
O O7 0.284898 0.307092 0.000000
O O8 0.758880 0.069293 0.590169
O O9 0.000000 0.070364 0.500000
O O10 0.822210 0.000000 0.500000
O O11 0.255991 0.083774 0.243969
O O12 0.000000 0.057836 0.315763
O O13 0.221602 0.000000 0.306216
O O14 0.500000 0.894040 0.841909
#
# Coordination Sequence:
#
# PCOD9489928 Si02
#       5
#     8  16   8  16  16
#     4  11  23  37  50  65  92 133 175 209 243 285
#     4  10  20  35  55  74  96 125 162 206 251 293
#     4   7  12  26  49  73  94 123 166 211 249 287
#     4   9  17  31  51  73  99 132 170 209 248 292
#     4  12  23  33  48  72 102 133 166 202 245 295
#
# _framework density 15.666257
#
# number of rings (size 3 to 8) (size 9 to 14) (size 15 to 20)
#    0.000    2.000    1.250    5.625    0.000    5.500 
#    0.000    0.625    0.000    2.250    0.000    0.875 
#    0.000    0.000    0.000    0.000    0.000    0.000 
#
# Total GULP energy -178541.385309 kJ/mol
# GULP energy per Si atom -5579.418291 kJ/mol
# Density = 1.563060 g / cm^3
# Si number density = 15.666257 Si / 1000 Ang^3
#
#
#
# Elastic Constant Matrix: (Units=GPa)
#
#
# Indices 1 2 3 4 5 6 
#
# 1 67.5098 61.9639 55.2972 0.0000 0.0000 0.0000
# 2 61.9639 110.2464 84.7766 0.0000 0.0000 0.0000
# 3 55.2972 84.7766 159.3014 0.0000 0.0000 0.0000
# 4 0.0000 0.0000 0.0000 3.5730 0.0000 0.0000
# 5 0.0000 0.0000 0.0000 0.0000 4.6580 0.0000
# 6 0.0000 0.0000 0.0000 0.0000 0.0000 25.8804
#
#
#
# Elastic Compliance Matrix: (Units=1/GPa)
#
#
# Indices 1 2 3 4 5 6 
#
# 1 0.031190 -0.015581 -0.002535 0.000000 0.000000 0.000000
# 2 -0.015581 0.023137 -0.006905 0.000000 0.000000 0.000000
# 3 -0.002535 -0.006905 0.010832 0.000000 0.000000 0.000000
# 4 0.000000 0.000000 0.000000 0.279876 0.000000 0.000000
# 5 0.000000 0.000000 0.000000 0.000000 0.214686 0.000000
# 6 0.000000 0.000000 0.000000 0.000000 0.000000 0.038639
#
#
# Mechanical properties :
#
#
# Convention : Reuss Voigt Hill
#
# Bulk Modulus (GPa) = 66.14601 82.34810 74.24705
# Shear Modulus (GPa) = 7.65180 15.82361 11.73770
#
# Velocity S-wave (km/s) = 2.21243 3.18157 2.74018
# Velocity P-wave (km/s) = 6.98857 8.13478 7.58336
#
# Compressibility (1/GPa) = 0.01511807
#
# Stress axis : x y z
#
# Youngs Moduli (GPa) = 32.06144 43.21997 92.32038
#
# Poissons Ratio (x) = 0.67341 0.23402
# Poissons Ratio (y) = 0.49955 0.63744
# Poissons Ratio (z) = 0.08127 0.29842
#
# Static dielectric constant tensor:
#      x y z
#    x 1.519140 0.000000 0.000000 
#    y 0.000000 1.500540 0.000000 
#    z 0.000000 0.000000 1.527250 
# 
# From -- ./inp_files/36361.got.cif
#   From: 2010.05.17/outbox.cif.g08.bks.cpg/sg65_19_cif.got.tgz:36361.got - 2010.06.03 17:01:31.
