data_PCOD9489493
_publ_section_title
;
Structure prediction by ZEFSAII (Michael W. Deem and Ramdas Pophale) SiO2 
 PCOD9489493
Probable space group: C M M M
;
_chemical_formula_sum "Si O2"
_cell_formula_units_Z 72
_cell_length_a 7.663915
_cell_length_b 27.907971
_cell_length_c 15.216589
_cell_angle_alpha 90.000000
_cell_angle_beta 90.000000
_cell_angle_gamma 90.000000
_cell_volume 3254.589754
_symmetry_space_group_name_H-M "C M M M"
_symmetry_group_IT_number 65
_symmetry_cell_setting 'orthorhombic'
loop_
_space_group_symop_operation_xyz
x,y,z
-x,-y,z
x,-y,-z
-x,y,-z
-x,-y,-z
x,y,-z
-x,y,z
x,-y,z
1/2+x,1/2+y,z
1/2-x,1/2-y,z
1/2+x,1/2-y,-z
1/2-x,1/2+y,-z
1/2-x,1/2-y,-z
1/2+x,1/2+y,-z
1/2-x,1/2+y,z
1/2+x,1/2-y,z
loop_
_atom_site_type_symbol
_atom_site_label
_atom_site_fract_x
_atom_site_fract_y
_atom_site_fract_z
Si Si1 0.791820 0.694134 0.711630
Si Si2 0.000000 0.558353 0.901154
Si Si3 0.203947 0.891753 0.402693
Si Si4 0.201904 0.942354 0.229519
Si Si5 0.709952 0.192900 0.905021
O O1 0.750000 0.750000 0.701630
O O2 0.717671 0.662147 0.633548
O O3 0.724899 0.677462 0.808353
O O4 0.000000 0.688239 0.710939
O O5 0.828847 0.573559 0.848372
O O6 0.000000 0.500000 0.903383
O O7 0.000000 0.576149 0.000000
O O8 0.280359 0.897222 0.500000
O O9 0.274336 0.923218 0.322259
O O10 0.000000 0.904774 0.408521
O O11 0.000000 0.927626 0.217864
O O12 0.204493 0.000000 0.231408
O O13 0.500000 0.187019 0.904267
O O14 0.750000 0.250000 0.905887
O O15 0.775215 0.174018 0.000000
#
# Coordination Sequence:
#
# PCOD9489493 Si02
#       5
#    16   8  16  16  16
#     4  10  20  34  54  78 108 146 188 238 291 348
#     4   9  18  34  59  91 125 161 198 236 285 349
#     4  10  22  39  58  80 109 147 193 246 298 351
#     4   9  19  37  61  89 122 158 195 241 296 352
#     4   8  14  26  45  69  96 128 167 211 265 324
#
# _framework density 22.122605
#
# number of rings (size 3 to 8) (size 9 to 14) (size 15 to 20)
#    0.000    2.778    0.000    0.667    1.556    2.667 
#    0.000    5.556    0.000    3.333    0.000    0.000 
#    0.000    0.000    0.000    0.000    0.000    0.000 
#
# Total GULP energy -200952.836749 kJ/mol
# GULP energy per Si atom -5582.023243 kJ/mol
# Density = 2.207225 g / cm^3
# Si number density = 22.122605 Si / 1000 Ang^3
#
#
#
# Elastic Constant Matrix: (Units=GPa)
#
#
# Indices 1 2 3 4 5 6 
#
# 1 77.4585 16.9886 61.5704 0.0000 0.0000 0.0000
# 2 16.9886 55.8052 21.0960 0.0000 0.0000 0.0000
# 3 61.5704 21.0960 215.0611 0.0000 0.0000 0.0000
# 4 0.0000 0.0000 0.0000 41.2067 0.0000 0.0000
# 5 0.0000 0.0000 0.0000 0.0000 25.1279 0.0000
# 6 0.0000 0.0000 0.0000 0.0000 0.0000 19.0140
#
#
#
# Elastic Compliance Matrix: (Units=1/GPa)
#
#
# Indices 1 2 3 4 5 6 
#
# 1 0.017361 -0.003537 -0.004623 0.000000 0.000000 0.000000
# 2 -0.003537 0.019330 -0.000883 0.000000 0.000000 0.000000
# 3 -0.004623 -0.000883 0.006060 0.000000 0.000000 0.000000
# 4 0.000000 0.000000 0.000000 0.024268 0.000000 0.000000
# 5 0.000000 0.000000 0.000000 0.000000 0.039796 0.000000
# 6 0.000000 0.000000 0.000000 0.000000 0.000000 0.052593
#
#
# Mechanical properties :
#
#
# Convention : Reuss Voigt Hill
#
# Bulk Modulus (GPa) = 40.54643 60.84832 50.69737
# Shear Modulus (GPa) = 26.92258 33.64772 30.28515
#
# Velocity S-wave (km/s) = 3.49230 3.90419 3.70397
# Velocity P-wave (km/s) = 5.88467 6.92014 6.42330
#
# Compressibility (1/GPa) = 0.02466308
#
# Stress axis : x y z
#
# Youngs Moduli (GPa) = 57.60050 51.73224 165.01316
#
# Poissons Ratio (x) = 0.18300 0.76291
# Poissons Ratio (y) = 0.20376 0.14578
# Poissons Ratio (z) = 0.26631 0.04570
#
# Static dielectric constant tensor:
#      x y z
#    x 1.778650 0.000000 0.000000 
#    y 0.000000 1.840010 0.000000 
#    z 0.000000 0.000000 1.840750 
# 
# From -- ./inp_files/36593.got.cif
#   From: 2010.05.17/outbox.cif.g08.bks.cpg/sg65_19_cif.got.tgz:36593.got - 2010.06.03 17:01:31.
