data_PCOD9489671
_publ_section_title
;
Structure prediction by ZEFSAII (Michael W. Deem and Ramdas Pophale) SiO2 
 PCOD9489671
Probable space group: C M M M
;
_chemical_formula_sum "Si O2"
_cell_formula_units_Z 104
_cell_length_a 27.041166
_cell_length_b 7.906868
_cell_length_c 23.153979
_cell_angle_alpha 90.000000
_cell_angle_beta 90.000000
_cell_angle_gamma 90.000000
_cell_volume 4950.573786
_symmetry_space_group_name_H-M "C M M M"
_symmetry_group_IT_number 65
_symmetry_cell_setting 'orthorhombic'
loop_
_space_group_symop_operation_xyz
x,y,z
-x,-y,z
x,-y,-z
-x,y,-z
-x,-y,-z
x,y,-z
-x,y,z
x,-y,z
1/2+x,1/2+y,z
1/2-x,1/2-y,z
1/2+x,1/2-y,-z
1/2-x,1/2+y,-z
1/2-x,1/2-y,-z
1/2+x,1/2+y,-z
1/2-x,1/2+y,z
1/2+x,1/2-y,z
loop_
_atom_site_type_symbol
_atom_site_label
_atom_site_fract_x
_atom_site_fract_y
_atom_site_fract_z
Si Si1 0.158135 0.699785 0.436577
Si Si2 0.403249 0.703866 0.865815
Si Si3 0.000000 0.792962 0.065961
Si Si4 0.445790 0.699062 0.386012
Si Si5 0.905142 0.297800 0.265855
Si Si6 0.694063 0.703842 0.066810
Si Si7 0.697024 0.202771 0.317696
O O1 0.166756 0.774153 0.500000
O O2 0.168821 0.500000 0.439648
O O3 0.100825 0.718211 0.417754
O O4 0.189246 0.771386 0.382890
O O5 0.401813 0.500000 0.868853
O O6 0.449768 0.763576 0.903346
O O7 0.414243 0.751581 0.799892
O O8 0.350661 0.764984 0.892065
O O9 0.000000 0.000000 0.067592
O O10 0.000000 0.740205 0.000000
O O11 0.500000 0.764788 0.402614
O O12 0.443822 0.500000 0.398908
O O13 0.438355 0.722954 0.317110
O O14 0.908094 0.500000 0.272190
O O15 0.849405 0.238553 0.280640
O O16 0.691516 0.500000 0.065766
O O17 0.750000 0.750000 0.085068
O O18 0.687330 0.762772 0.000000
O O19 0.750000 0.250000 0.294064
O O20 0.694023 0.000000 0.320278
#
# Coordination Sequence:
#
# PCOD9489671 Si02
#       7
#    16  16   8  16  16  16  16
#     4   9  19  36  55  78 110 144 179 217 262 323
#     4  10  20  34  55  82 109 139 180 227 272 323
#     4   9  18  34  57  83 111 143 178 221 272 325
#     4  10  21  36  55  78 105 137 176 224 271 314
#     4  10  22  38  54  76 107 141 177 218 267 323
#     4   9  18  33  53  77 106 141 180 222 269 322
#     4   9  19  35  54  76 104 140 179 219 265 315
#
# _framework density 21.007667000000001
#
# number of rings (size 3 to 8) (size 9 to 14) (size 15 to 20)
#    0.000    2.538    0.000    2.308    1.077    8.308 
#    0.000    4.615    0.000    1.846    0.000    0.000 
#    0.000    0.000    0.000    0.000    0.000    0.000 
#
# Total GULP energy -290178.775704 kJ/mol
# GULP energy per Si atom -5580.361071 kJ/mol
# Density = 2.095985 g / cm^3
# Si number density = 21.007667 Si / 1000 Ang^3
#
#
#
# Elastic Constant Matrix: (Units=GPa)
#
#
# Indices 1 2 3 4 5 6 
#
# 1 56.1915 -3.8709 -12.8514 0.0000 0.0000 0.0000
# 2 -3.8709 20.4736 -3.8016 0.0000 0.0000 0.0000
# 3 -12.8514 -3.8016 71.5540 0.0000 0.0000 0.0000
# 4 0.0000 0.0000 0.0000 20.7484 0.0000 0.0000
# 5 0.0000 0.0000 0.0000 0.0000 -1.0720 0.0000
# 6 0.0000 0.0000 0.0000 0.0000 0.0000 19.3633
#
#
#
# Elastic Compliance Matrix: (Units=1/GPa)
#
#
# Indices 1 2 3 4 5 6 
#
# 1 0.018918 0.004250 0.003623 0.000000 0.000000 0.000000
# 2 0.004250 0.050285 0.003435 0.000000 0.000000 0.000000
# 3 0.003623 0.003435 0.014809 0.000000 0.000000 0.000000
# 4 0.000000 0.000000 0.000000 0.048197 0.000000 0.000000
# 5 0.000000 0.000000 0.000000 0.000000 -0.932796 0.000000
# 6 0.000000 0.000000 0.000000 0.000000 0.000000 0.051644
#
#
# Mechanical properties :
#
#
# Convention : Reuss Voigt Hill
#
# Bulk Modulus (GPa) = 9.37850 11.90792 10.64321
# Shear Modulus (GPa) = -6.79332 19.05747 6.13207
#
# Velocity S-wave (km/s) = -1.80021 3.01519 1.71035
# Velocity P-wave (km/s) = 0.39117 4.21930 2.99629
#
# Compressibility (1/GPa) = 0.10662684
#
# Stress axis : x y z
#
# Youngs Moduli (GPa) = 52.86045 19.88679 67.52765
#
# Poissons Ratio (x) = -0.08451 -0.24469
# Poissons Ratio (y) = -0.22463 -0.23195
# Poissons Ratio (z) = -0.19154 -0.06831
#
# Static dielectric constant tensor:
#      x y z
#    x 1.745480 0.000000 0.000000 
#    y 0.000000 1.768880 0.000000 
#    z 0.000000 0.000000 1.751060 
# 
# From -- ./inp_files/65843.got.cif
#   From: 2010.05.17/outbox.cif.g08.bks.cpg/sg65_33_cif.got.tgz:65843.got - 2010.06.03 17:01:31.
