data_PCOD9489258
_publ_section_title
;
Structure prediction by ZEFSAII (Michael W. Deem and Ramdas Pophale) SiO2 
 PCOD9489258
Probable space group: C M M M
;
_chemical_formula_sum "Si O2"
_cell_formula_units_Z 64
_cell_length_a 16.439209
_cell_length_b 7.813252
_cell_length_c 23.061384
_cell_angle_alpha 90.000000
_cell_angle_beta 90.000000
_cell_angle_gamma 90.000000
_cell_volume 2962.089087
_symmetry_space_group_name_H-M "C M M M"
_symmetry_group_IT_number 65
_symmetry_cell_setting 'orthorhombic'
loop_
_space_group_symop_operation_xyz
x,y,z
-x,-y,z
x,-y,-z
-x,y,-z
-x,-y,-z
x,y,-z
-x,y,z
x,-y,z
1/2+x,1/2+y,z
1/2-x,1/2-y,z
1/2+x,1/2-y,-z
1/2-x,1/2+y,-z
1/2-x,1/2-y,-z
1/2+x,1/2+y,-z
1/2-x,1/2+y,z
1/2+x,1/2-y,z
loop_
_atom_site_type_symbol
_atom_site_label
_atom_site_fract_x
_atom_site_fract_y
_atom_site_fract_z
Si Si1 0.345464 0.706458 0.374724
Si Si2 0.909522 0.206185 0.251915
Si Si3 0.346320 0.706270 0.500000
Si Si4 0.839430 0.298357 0.132710
Si Si5 0.000000 0.710093 0.067284
O O1 0.353618 0.500000 0.374960
O O2 0.250000 0.750000 0.371819
O O3 0.386132 0.770920 0.315802
O O4 0.377879 0.768810 0.437477
O O5 0.849288 0.253433 0.200450
O O6 0.000000 0.267572 0.236233
O O7 0.910885 0.000000 0.254918
O O8 0.354649 0.500000 0.500000
O O9 0.250000 0.750000 0.500000
O O10 0.845148 0.500000 0.127560
O O11 0.750000 0.250000 0.111208
O O12 0.917920 0.226485 0.098907
O O13 0.000000 0.500000 0.069619
O O14 0.000000 0.758081 0.000000
#
# Coordination Sequence:
#
# PCOD9489258 Si02
#       5
#    16  16   8  16   8
#     4   9  17  29  46  69  95 130 173 222 274 328
#     4  10  20  34  52  76 109 144 182 231 283 330
#     4   8  14  26  43  63  91 125 169 218 269 325
#     4  11  22  38  61  88 116 151 191 230 277 330
#     4   9  20  40  63  87 119 154 187 226 272 327
#
# _framework density 21.606370999999999
#
# number of rings (size 3 to 8) (size 9 to 14) (size 15 to 20)
#    0.000    2.375    1.250    1.500    0.000    3.500 
#    0.000    0.625    0.000    9.000    0.000    0.000 
#    0.000   12.000    0.000    0.000    0.000    0.000 
#
# Total GULP energy -178518.481388 kJ/mol
# GULP energy per Si atom -5578.702543 kJ/mol
# Density = 2.155719 g / cm^3
# Si number density = 21.606371 Si / 1000 Ang^3
#
#
#
# Elastic Constant Matrix: (Units=GPa)
#
#
# Indices 1 2 3 4 5 6 
#
# 1 121.7161 7.8005 67.8257 0.0000 0.0000 0.0000
# 2 7.8005 29.6781 7.5896 0.0000 0.0000 0.0000
# 3 67.8257 7.5896 146.6170 0.0000 0.0000 0.0000
# 4 0.0000 0.0000 0.0000 22.5470 0.0000 0.0000
# 5 0.0000 0.0000 0.0000 0.0000 28.4785 0.0000
# 6 0.0000 0.0000 0.0000 0.0000 0.0000 16.9551
#
#
#
# Elastic Compliance Matrix: (Units=1/GPa)
#
#
# Indices 1 2 3 4 5 6 
#
# 1 0.011147 -0.001633 -0.005072 0.000000 0.000000 0.000000
# 2 -0.001633 0.034386 -0.001025 0.000000 0.000000 0.000000
# 3 -0.005072 -0.001025 0.009220 0.000000 0.000000 0.000000
# 4 0.000000 0.000000 0.000000 0.044352 0.000000 0.000000
# 5 0.000000 0.000000 0.000000 0.000000 0.035114 0.000000
# 6 0.000000 0.000000 0.000000 0.000000 0.000000 0.058979
#
#
# Mechanical properties :
#
#
# Convention : Reuss Voigt Hill
#
# Bulk Modulus (GPa) = 25.44927 51.60475 38.52701
# Shear Modulus (GPa) = 22.54738 27.91580 25.23159
#
# Velocity S-wave (km/s) = 3.23391 3.59836 3.42099
# Velocity P-wave (km/s) = 5.07429 6.41874 5.78570
#
# Compressibility (1/GPa) = 0.03929386
#
# Stress axis : x y z
#
# Youngs Moduli (GPa) = 89.71127 29.08158 108.46103
#
# Poissons Ratio (x) = 0.04748 0.55012
# Poissons Ratio (y) = 0.14647 0.11114
# Poissons Ratio (z) = 0.45502 0.02980
#
# Static dielectric constant tensor:
#      x y z
#    x 1.758610 0.000000 0.000000 
#    y 0.000000 2.475680 0.000000 
#    z 0.000000 0.000000 1.812720 
# 
# From -- ./inp_files/66809.got.cif
#   From: 2010.05.17/outbox.cif.g08.bks.cpg/sg65_34_cif.got.tgz:66809.got - 2010.06.03 17:01:31.
