data_PCOD9489446
_publ_section_title
;
Structure prediction by ZEFSAII (Michael W. Deem and Ramdas Pophale) SiO2 
 PCOD9489446
Probable space group: C M M M
;
_chemical_formula_sum "Si O2"
_cell_formula_units_Z 64
_cell_length_a 25.268564
_cell_length_b 7.371861
_cell_length_c 15.568385
_cell_angle_alpha 90.000000
_cell_angle_beta 90.000000
_cell_angle_gamma 90.000000
_cell_volume 2900.021801
_symmetry_space_group_name_H-M "C M M M"
_symmetry_group_IT_number 65
_symmetry_cell_setting 'orthorhombic'
loop_
_space_group_symop_operation_xyz
x,y,z
-x,-y,z
x,-y,-z
-x,y,-z
-x,-y,-z
x,y,-z
-x,y,z
x,-y,z
1/2+x,1/2+y,z
1/2-x,1/2-y,z
1/2+x,1/2-y,-z
1/2-x,1/2+y,-z
1/2-x,1/2-y,-z
1/2+x,1/2+y,-z
1/2-x,1/2+y,z
1/2+x,1/2-y,z
loop_
_atom_site_type_symbol
_atom_site_label
_atom_site_fract_x
_atom_site_fract_y
_atom_site_fract_z
Si Si1 0.080345 0.500000 0.000000
Si Si2 0.312808 0.283158 0.500000
Si Si3 0.307685 0.715577 0.189090
Si Si4 0.500000 0.000000 0.847230
Si Si5 0.169061 0.781405 0.000000
Si Si6 0.000000 0.218507 0.302866
Si Si7 0.617952 0.279034 0.338853
O O1 0.112803 0.685993 0.000000
O O2 0.048445 0.500000 0.087845
O O3 0.318516 0.500000 0.500000
O O4 0.250000 0.250000 0.500000
O O5 0.344233 0.216907 0.584050
O O6 0.314457 0.500000 0.183653
O O7 0.250000 0.750000 0.228993
O O8 0.306943 0.783544 0.090815
O O9 0.354938 0.783322 0.249607
O O10 0.500000 0.824348 0.786826
O O11 0.168138 0.000000 0.000000
O O12 0.056032 0.269583 0.346825
O O13 0.000000 0.000000 0.292019
O O14 0.619215 0.500000 0.338311
#
# Coordination Sequence:
#
# PCOD9489446 Si02
#       7
#     4   8  16   4   8   8  16
#     4  11  24  38  60  84 122 160 202 249 312 348
#     4  10  20  37  59  90 124 155 199 243 293 367
#     4  10  20  34  53  82 114 153 200 243 301 365
#     4  11  24  40  58  95 118 154 214 253 284 379
#     4  10  22  38  57  83 119 156 200 249 300 361
#     4  10  21  42  65  86 121 157 197 256 305 344
#     4   9  19  36  60  85 115 157 200 243 300 363
#
# _framework density 22.068798999999999
#
# number of rings (size 3 to 8) (size 9 to 14) (size 15 to 20)
#    0.000    2.125    0.000    2.625    1.750    3.500 
#    4.500    3.750    0.000    0.750    0.000    0.000 
#    0.000    0.000    0.000    0.000    0.000    0.000 
#
# Total GULP energy -178582.521474 kJ/mol
# GULP energy per Si atom -5580.703796 kJ/mol
# Density = 2.201857 g / cm^3
# Si number density = 22.068799 Si / 1000 Ang^3
#
#
#
# Elastic Constant Matrix: (Units=GPa)
#
#
# Indices 1 2 3 4 5 6 
#
# 1 203.3170 5.7771 89.0188 0.0000 0.0000 0.0000
# 2 5.7771 76.2020 9.7676 0.0000 0.0000 0.0000
# 3 89.0188 9.7676 132.5929 0.0000 0.0000 0.0000
# 4 0.0000 0.0000 0.0000 35.7346 0.0000 0.0000
# 5 0.0000 0.0000 0.0000 0.0000 65.5701 0.0000
# 6 0.0000 0.0000 0.0000 0.0000 0.0000 22.6328
#
#
#
# Elastic Compliance Matrix: (Units=1/GPa)
#
#
# Indices 1 2 3 4 5 6 
#
# 1 0.006966 0.000072 -0.004682 0.000000 0.000000 0.000000
# 2 0.000072 0.013249 -0.001024 0.000000 0.000000 0.000000
# 3 -0.004682 -0.001024 0.010761 0.000000 0.000000 0.000000
# 4 0.000000 0.000000 0.000000 0.027984 0.000000 0.000000
# 5 0.000000 0.000000 0.000000 0.000000 0.015251 0.000000
# 6 0.000000 0.000000 0.000000 0.000000 0.000000 0.044184
#
#
# Mechanical properties :
#
#
# Convention : Reuss Voigt Hill
#
# Bulk Modulus (GPa) = 50.74369 69.02654 59.88512
# Shear Modulus (GPa) = 36.70177 45.29072 40.99624
#
# Velocity S-wave (km/s) = 4.08249 4.53509 4.31473
# Velocity P-wave (km/s) = 6.72797 7.66606 7.21229
#
# Compressibility (1/GPa) = 0.01970688
#
# Stress axis : x y z
#
# Youngs Moduli (GPa) = 143.54434 75.47820 92.92847
#
# Poissons Ratio (x) = -0.00544 0.43513
# Poissons Ratio (y) = -0.01034 0.09519
# Poissons Ratio (z) = 0.67213 0.07732
#
# Static dielectric constant tensor:
#      x y z
#    x 1.809870 0.000000 0.000000 
#    y 0.000000 1.855480 0.000000 
#    z 0.000000 0.000000 1.802400 
# 
# From -- ./inp_files/45175.got.cif
#   From: 2010.05.17/outbox.cif.g08.bks.cpg/sg65_23_cif.got.tgz:45175.got - 2010.06.03 17:01:31.
