data_PCOD9489297
_publ_section_title
;
Structure prediction by ZEFSAII (Michael W. Deem and Ramdas Pophale) SiO2 
 PCOD9489297
Probable space group: C M M M
;
_chemical_formula_sum "Si O2"
_cell_formula_units_Z 96
_cell_length_a 7.714806
_cell_length_b 19.753134
_cell_length_c 31.189730
_cell_angle_alpha 90.000000
_cell_angle_beta 90.000000
_cell_angle_gamma 90.000000
_cell_volume 4753.052755
_symmetry_space_group_name_H-M "C M M M"
_symmetry_group_IT_number 65
_symmetry_cell_setting 'orthorhombic'
loop_
_space_group_symop_operation_xyz
x,y,z
-x,-y,z
x,-y,-z
-x,y,-z
-x,-y,-z
x,y,-z
-x,y,z
x,-y,z
1/2+x,1/2+y,z
1/2-x,1/2-y,z
1/2+x,1/2-y,-z
1/2-x,1/2+y,-z
1/2-x,1/2-y,-z
1/2+x,1/2+y,-z
1/2-x,1/2+y,z
1/2+x,1/2-y,z
loop_
_atom_site_type_symbol
_atom_site_label
_atom_site_fract_x
_atom_site_fract_y
_atom_site_fract_z
Si Si1 0.708737 0.327202 0.048637
Si Si2 0.208365 0.672848 0.548563
Si Si3 0.287365 0.922074 0.374521
Si Si4 0.793726 0.673201 0.799282
Si Si5 0.791635 0.673105 0.297829
Si Si6 0.793586 0.076224 0.123411
O O1 0.500000 0.332745 0.047444
O O2 0.750000 0.250000 0.061066
O O3 0.776722 0.380016 0.083547
O O4 0.773298 0.338284 0.000000
O O5 0.274552 0.662231 0.500000
O O6 0.250000 0.750000 0.561290
O O7 0.270694 0.619236 0.583509
O O8 0.000000 0.667203 0.547078
O O9 0.500000 0.921588 0.374526
O O10 0.229335 0.881062 0.332429
O O11 0.232617 0.000000 0.374612
O O12 0.750000 0.750000 0.812745
O O13 0.724736 0.663427 0.750760
O O14 0.731546 0.618557 0.833267
O O15 0.000000 0.668013 0.797472
O O16 0.750000 0.750000 0.311140
O O17 0.000000 0.667511 0.296255
O O18 0.000000 0.071113 0.116835
O O19 0.723208 0.000000 0.125889
#
# Coordination Sequence:
#
# PCOD9489297 Si02
#       6
#    16  16  16  16  16  16
#     4   9  18  33  53  75  98 127 164 203 241 284
#     4   9  17  29  47  70  93 120 155 194 235 278
#     4   9  17  29  46  69  96 124 155 193 235 279
#     4  10  20  34  53  75  98 127 165 206 246 290
#     4   9  18  32  51  72  93 122 159 198 238 281
#     4  10  21  35  51  74 104 135 165 200 244 291
#
# _framework density 20.197544000000001
#
# number of rings (size 3 to 8) (size 9 to 14) (size 15 to 20)
#    0.000    2.667    0.000    1.500    0.000    4.333 
#    0.000    5.000    0.000    2.000    0.000    5.833 
#    0.000    0.000    0.000    0.000    0.000    0.000 
#
# Total GULP energy -267912.315281 kJ/mol
# GULP energy per Si atom -5581.506568 kJ/mol
# Density = 2.015157 g / cm^3
# Si number density = 20.197544 Si / 1000 Ang^3
#
#
#
# Elastic Constant Matrix: (Units=GPa)
#
#
# Indices 1 2 3 4 5 6 
#
# 1 32.7595 1.6783 4.1904 0.0000 0.0000 0.0000
# 2 1.6783 216.0528 143.6035 0.0000 0.0000 0.0000
# 3 4.1904 143.6035 140.7245 0.0000 0.0000 0.0000
# 4 0.0000 0.0000 0.0000 -8.8850 0.0000 0.0000
# 5 0.0000 0.0000 0.0000 0.0000 13.9699 0.0000
# 6 0.0000 0.0000 0.0000 0.0000 0.0000 21.1807
#
#
#
# Elastic Compliance Matrix: (Units=1/GPa)
#
#
# Indices 1 2 3 4 5 6 
#
# 1 0.030734 0.001149 -0.002087 0.000000 0.000000 0.000000
# 2 0.001149 0.014429 -0.014758 0.000000 0.000000 0.000000
# 3 -0.002087 -0.014758 0.022229 0.000000 0.000000 0.000000
# 4 0.000000 0.000000 0.000000 -0.112549 0.000000 0.000000
# 5 0.000000 0.000000 0.000000 0.000000 0.071582 0.000000
# 6 0.000000 0.000000 0.000000 0.000000 0.000000 0.047213
#
#
# Mechanical properties :
#
#
# Convention : Reuss Voigt Hill
#
# Bulk Modulus (GPa) = 27.78004 76.49793 52.13898
# Shear Modulus (GPa) = 42.72389 21.25743 31.99066
#
# Velocity S-wave (km/s) = 4.60423 3.24771 3.98413
# Velocity P-wave (km/s) = 6.48454 7.21253 6.85820
#
# Compressibility (1/GPa) = 0.03599707
#
# Stress axis : x y z
#
# Youngs Moduli (GPa) = 32.53767 69.30454 44.98700
#
# Poissons Ratio (x) = -0.07960 0.09390
# Poissons Ratio (y) = -0.03737 0.66394
# Poissons Ratio (z) = 0.06791 1.02283
#
# Static dielectric constant tensor:
#      x y z
#    x 1.757200 0.000000 0.000000 
#    y 0.000000 1.668550 0.000000 
#    z 0.000000 0.000000 1.728020 
# 
# From -- ./inp_files/73183.got.cif
#   From: 2010.05.17/outbox.cif.g08.bks.cpg/sg65_37_cif.got.tgz:73183.got - 2010.06.03 17:01:31.
