data_PCOD9489074
_publ_section_title
;
Structure prediction by ZEFSAII (Michael W. Deem and Ramdas Pophale) SiO2 
 PCOD9489074
Probable space group: C M M M
;
_chemical_formula_sum "Si O2"
_cell_formula_units_Z 80
_cell_length_a 29.453937
_cell_length_b 8.234872
_cell_length_c 22.738145
_cell_angle_alpha 90.000000
_cell_angle_beta 90.000000
_cell_angle_gamma 90.000000
_cell_volume 5515.123452
_symmetry_space_group_name_H-M "C M M M"
_symmetry_group_IT_number 65
_symmetry_cell_setting 'orthorhombic'
loop_
_space_group_symop_operation_xyz
x,y,z
-x,-y,z
x,-y,-z
-x,y,-z
-x,-y,-z
x,y,-z
-x,y,z
x,-y,z
1/2+x,1/2+y,z
1/2-x,1/2-y,z
1/2+x,1/2-y,-z
1/2-x,1/2+y,-z
1/2-x,1/2-y,-z
1/2+x,1/2+y,-z
1/2-x,1/2+y,z
1/2+x,1/2-y,z
loop_
_atom_site_type_symbol
_atom_site_label
_atom_site_fract_x
_atom_site_fract_y
_atom_site_fract_z
Si Si1 0.700216 0.693997 0.067748
Si Si2 0.446691 0.803847 0.769835
Si Si3 0.944650 0.500000 0.431752
Si Si4 0.948335 0.194002 0.000000
Si Si5 0.555122 0.682278 0.359394
Si Si6 0.606411 0.806410 0.885363
O O1 0.699129 0.500000 0.066495
O O2 0.750000 0.750000 0.087436
O O3 0.658372 0.754746 0.106098
O O4 0.694056 0.753538 0.000000
O O5 0.500000 0.770036 0.781438
O O6 0.433657 0.720907 0.708469
O O7 0.416799 0.748773 0.825028
O O8 0.442684 0.000000 0.762726
O O9 0.931484 0.500000 0.500000
O O10 0.929565 0.665431 0.399084
O O11 0.000000 0.500000 0.429314
O O12 0.921670 0.247114 0.058150
O O13 0.000000 0.257717 0.000000
O O14 0.949822 0.000000 0.000000
O O15 0.500000 0.681963 0.362661
O O16 0.570395 0.500000 0.376065
O O17 0.604044 0.000000 0.884833
#
# Coordination Sequence:
#
# PCOD9489074 Si02
#       6
#    16  16   8   8  16  16
#     4  10  20  34  51  67  86 108 136 178 227 275
#     4   9  17  30  45  61  85 117 151 187 223 265
#     4   9  16  26  40  58  84 113 145 189 227 258
#     4  11  23  35  44  59  88 117 143 185 233 269
#     4   9  16  26  41  59  81 112 149 187 224 262
#     4  11  21  32  49  68  86 111 146 184 227 279
#
# _framework density 14.505568
#
# number of rings (size 3 to 8) (size 9 to 14) (size 15 to 20)
#    0.000    2.200    2.000    2.100    0.000    4.400 
#    0.000    4.000    0.000    0.000    0.000    0.000 
#    0.000    0.000    0.000    0.000    0.000    1.000 
#
# Total GULP energy -223030.240443 kJ/mol
# GULP energy per Si atom -5575.756011 kJ/mol
# Density = 1.447255 g / cm^3
# Si number density = 14.505568 Si / 1000 Ang^3
#
#
#
# Elastic Constant Matrix: (Units=GPa)
#
#
# Indices 1 2 3 4 5 6 
#
# 1 65.2315 24.7264 39.8957 0.0000 0.0000 0.0000
# 2 24.7264 79.2949 54.6528 0.0000 0.0000 0.0000
# 3 39.8957 54.6528 106.1778 0.0000 0.0000 0.0000
# 4 0.0000 0.0000 0.0000 5.1539 0.0000 0.0000
# 5 0.0000 0.0000 0.0000 0.0000 1.7913 0.0000
# 6 0.0000 0.0000 0.0000 0.0000 0.0000 18.1435
#
#
#
# Elastic Compliance Matrix: (Units=1/GPa)
#
#
# Indices 1 2 3 4 5 6 
#
# 1 0.020041 -0.001642 -0.006685 0.000000 0.000000 0.000000
# 2 -0.001642 0.019680 -0.009513 0.000000 0.000000 0.000000
# 3 -0.006685 -0.009513 0.016827 0.000000 0.000000 0.000000
# 4 0.000000 0.000000 0.000000 0.194026 0.000000 0.000000
# 5 0.000000 0.000000 0.000000 0.000000 0.558257 0.000000
# 6 0.000000 0.000000 0.000000 0.000000 0.000000 0.055116
#
#
# Mechanical properties :
#
#
# Convention : Reuss Voigt Hill
#
# Bulk Modulus (GPa) = 47.92074 54.36154 51.14114
# Shear Modulus (GPa) = 5.51522 13.77971 9.64746
#
# Velocity S-wave (km/s) = 1.95202 3.08549 2.58173
# Velocity P-wave (km/s) = 6.17967 7.08882 6.64980
#
# Compressibility (1/GPa) = 0.02086779
#
# Stress axis : x y z
#
# Youngs Moduli (GPa) = 49.89759 50.81397 59.42944
#
# Poissons Ratio (x) = 0.08342 0.39731
# Poissons Ratio (y) = 0.08191 0.56534
# Poissons Ratio (z) = 0.33358 0.48339
#
# Static dielectric constant tensor:
#      x y z
#    x 1.457930 0.000000 0.000000 
#    y 0.000000 1.510300 0.000000 
#    z 0.000000 0.000000 1.473730 
# 
# From -- ./inp_files/66162.got.cif
#   From: 2010.05.17/outbox.cif.g08.bks.cpg/sg65_34_cif.got.tgz:66162.got - 2010.06.03 17:01:31.
