data_PCOD9489919
_publ_section_title
;
Structure prediction by ZEFSAII (Michael W. Deem and Ramdas Pophale) SiO2 
 PCOD9489919
Probable space group: C M M M
;
_chemical_formula_sum "Si O2"
_cell_formula_units_Z 88
_cell_length_a 10.358359
_cell_length_b 18.594275
_cell_length_c 25.881001
_cell_angle_alpha 90.000000
_cell_angle_beta 90.000000
_cell_angle_gamma 90.000000
_cell_volume 4984.840628
_symmetry_space_group_name_H-M "C M M M"
_symmetry_group_IT_number 65
_symmetry_cell_setting 'orthorhombic'
loop_
_space_group_symop_operation_xyz
x,y,z
-x,-y,z
x,-y,-z
-x,y,-z
-x,-y,-z
x,y,-z
-x,y,z
x,-y,z
1/2+x,1/2+y,z
1/2-x,1/2-y,z
1/2+x,1/2-y,-z
1/2-x,1/2+y,-z
1/2-x,1/2-y,-z
1/2+x,1/2+y,-z
1/2-x,1/2+y,z
1/2+x,1/2-y,z
loop_
_atom_site_type_symbol
_atom_site_label
_atom_site_fract_x
_atom_site_fract_y
_atom_site_fract_z
Si Si1 0.500000 0.840111 0.228233
Si Si2 0.500000 0.086629 0.340944
Si Si3 0.254234 0.163382 0.841312
Si Si4 0.500000 0.418330 0.324544
Si Si5 0.737988 0.584515 0.402049
Si Si6 0.500000 0.667396 0.220760
Si Si7 0.846561 0.585921 0.941223
Si Si8 0.656992 0.319846 0.500000
O O1 0.500000 0.873932 0.285435
O O2 0.373751 0.859708 0.195011
O O3 0.500000 0.753353 0.229242
O O4 0.373145 0.104429 0.374783
O O5 0.500000 0.000000 0.332212
O O6 0.250000 0.250000 0.847177
O O7 0.124443 0.144295 0.811474
O O8 0.271217 0.127301 0.896823
O O9 0.500000 0.500000 0.305042
O O10 0.374284 0.408646 0.359702
O O11 0.500000 0.366248 0.276793
O O12 0.745471 0.500000 0.417476
O O13 0.696822 0.633298 0.450018
O O14 0.830051 0.500000 0.935842
O O15 0.000000 0.600885 0.935370
O O16 0.809872 0.605689 0.000000
O O17 0.500000 0.306276 0.500000
O O18 0.750000 0.250000 0.500000
#
# Coordination Sequence:
#
# PCOD9489919 Si02
#       8
#     8   8  16   8  16   8  16   8
#     4  10  20  36  56  78 116 157 191 227 278 335
#     4  10  22  37  59  93 120 146 192 246 288 331
#     4  10  20  35  54  80 113 151 189 229 278 343
#     4  10  20  37  59  83 110 150 196 230 272 339
#     4  10  22  41  65  88 117 155 194 236 286 341
#     4  10  22  34  52  82 116 151 187 229 286 337
#     4   9  18  34  57  82 106 139 188 240 286 336
#     4  12  27  43  64  92 120 153 196 241 287 347
#
# _framework density 17.653523
#
# number of rings (size 3 to 8) (size 9 to 14) (size 15 to 20)
#    0.000    2.000    1.818    1.909    1.273    3.636 
#    0.000    1.818    0.000    1.091    0.000    0.000 
#    0.000    0.000    0.000    0.000    0.000    0.000 
#
# Total GULP energy -245543.842326 kJ/mol
# GULP energy per Si atom -5580.541871 kJ/mol
# Density = 1.761334 g / cm^3
# Si number density = 17.653523 Si / 1000 Ang^3
#
#
#
# Elastic Constant Matrix: (Units=GPa)
#
#
# Indices 1 2 3 4 5 6 
#
# 1 143.9802 42.5882 51.5736 0.0000 0.0000 0.0000
# 2 42.5882 44.6889 57.3915 0.0000 0.0000 0.0000
# 3 51.5736 57.3915 106.2381 0.0000 0.0000 0.0000
# 4 0.0000 0.0000 0.0000 45.9869 0.0000 0.0000
# 5 0.0000 0.0000 0.0000 0.0000 -0.4446 0.0000
# 6 0.0000 0.0000 0.0000 0.0000 0.0000 0.6915
#
#
#
# Elastic Compliance Matrix: (Units=1/GPa)
#
#
# Indices 1 2 3 4 5 6 
#
# 1 0.009700 -0.010439 0.000930 0.000000 0.000000 0.000000
# 2 -0.010439 0.084306 -0.040476 0.000000 0.000000 0.000000
# 3 0.000930 -0.040476 0.030827 0.000000 0.000000 0.000000
# 4 0.000000 0.000000 0.000000 0.021745 0.000000 0.000000
# 5 0.000000 0.000000 0.000000 0.000000 -2.249170 0.000000
# 6 0.000000 0.000000 0.000000 0.000000 0.000000 1.446135
#
#
# Mechanical properties :
#
#
# Convention : Reuss Voigt Hill
#
# Bulk Modulus (GPa) = 40.21851 66.44596 53.33223
# Shear Modulus (GPa) = -9.12074 18.80369 4.84148
#
# Velocity S-wave (km/s) = -2.27547 3.26721 1.65785
# Velocity P-wave (km/s) = 3.99098 7.20788 5.82587
#
# Compressibility (1/GPa) = 0.02486418
#
# Stress axis : x y z
#
# Youngs Moduli (GPa) = 103.09473 11.86159 32.43920
#
# Poissons Ratio (x) = 0.12382 -0.03018
# Poissons Ratio (y) = 1.07616 1.31300
# Poissons Ratio (z) = -0.09591 0.48011
#
# Static dielectric constant tensor:
#      x y z
#    x 1.574280 0.000000 0.000000 
#    y 0.000000 1.595210 0.000000 
#    z 0.000000 0.000000 1.560830 
# 
# From -- ./inp_files/67731.got.cif
#   From: 2010.05.17/outbox.cif.g08.bks.cpg/sg65_34_cif.got.tgz:67731.got - 2010.06.03 17:01:31.
