data_PCOD9489480
_publ_section_title
;
Structure prediction by ZEFSAII (Michael W. Deem and Ramdas Pophale) SiO2 
 PCOD9489480
Probable space group: C M M M
;
_chemical_formula_sum "Si O2"
_cell_formula_units_Z 88
_cell_length_a 18.545370
_cell_length_b 8.330817
_cell_length_c 29.243585
_cell_angle_alpha 90.000000
_cell_angle_beta 90.000000
_cell_angle_gamma 90.000000
_cell_volume 4518.077842
_symmetry_space_group_name_H-M "C M M M"
_symmetry_group_IT_number 65
_symmetry_cell_setting 'orthorhombic'
loop_
_space_group_symop_operation_xyz
x,y,z
-x,-y,z
x,-y,-z
-x,y,-z
-x,-y,-z
x,y,-z
-x,y,z
x,-y,z
1/2+x,1/2+y,z
1/2-x,1/2-y,z
1/2+x,1/2-y,-z
1/2-x,1/2+y,-z
1/2-x,1/2-y,-z
1/2+x,1/2+y,-z
1/2-x,1/2+y,z
1/2+x,1/2-y,z
loop_
_atom_site_type_symbol
_atom_site_label
_atom_site_fract_x
_atom_site_fract_y
_atom_site_fract_z
Si Si1 0.582775 0.303681 0.859691
Si Si2 0.583044 0.692464 0.500000
Si Si3 0.667900 0.694067 0.230573
Si Si4 0.916970 0.805786 0.321150
Si Si5 0.331923 0.694014 0.948838
Si Si6 0.667703 0.809194 0.410565
O O1 0.500000 0.252790 0.855364
O O2 0.583172 0.500000 0.859721
O O3 0.629875 0.251370 0.816273
O O4 0.617986 0.250216 0.907406
O O5 0.500000 0.749981 0.500000
O O6 0.624880 0.749292 0.455028
O O7 0.917992 0.000000 0.500000
O O8 0.667096 0.500000 0.230526
O O9 0.750000 0.750000 0.233124
O O10 0.622741 0.748302 0.274827
O O11 0.872757 0.751397 0.365286
O O12 0.000000 0.750731 0.322884
O O13 0.917830 0.000000 0.320743
O O14 0.332715 0.500000 0.948607
O O15 0.250000 0.750000 0.941304
O O16 0.354021 0.747039 0.000000
O O17 0.750000 0.750000 0.411439
O O18 0.668008 0.000000 0.410558
#
# Coordination Sequence:
#
# PCOD9489480 Si02
#       6
#    16   8  16  16  16  16
#     4   9  17  30  49  73 100 131 171 218 265 314
#     4  11  24  43  66  91 121 155 190 231 280 329
#     4  10  20  34  54  78 104 138 178 220 267 320
#     4  10  21  38  59  83 112 145 182 225 275 329
#     4   9  17  29  47  71  98 130 168 211 260 314
#     4  12  25  41  62  88 119 153 191 232 275 325
#
# _framework density 19.477309999999999
#
# number of rings (size 3 to 8) (size 9 to 14) (size 15 to 20)
#    0.000    1.909    0.000    4.364    0.000    8.000 
#    0.000    1.818    0.000    3.273    0.000    2.545 
#    0.000    0.000    0.000    0.000    0.000    0.000 
#
# Total GULP energy -245859.360318 kJ/mol
# GULP energy per Si atom -5587.712734 kJ/mol
# Density = 1.943298 g / cm^3
# Si number density = 19.477310 Si / 1000 Ang^3
#
#
#
# Elastic Constant Matrix: (Units=GPa)
#
#
# Indices 1 2 3 4 5 6 
#
# 1 207.8734 24.4565 134.0113 0.0000 0.0000 0.0000
# 2 24.4565 20.6335 25.1420 0.0000 0.0000 0.0000
# 3 134.0113 25.1420 207.4449 0.0000 0.0000 0.0000
# 4 0.0000 0.0000 0.0000 -6.1941 0.0000 0.0000
# 5 0.0000 0.0000 0.0000 0.0000 205.4597 0.0000
# 6 0.0000 0.0000 0.0000 0.0000 0.0000 29.2721
#
#
#
# Elastic Compliance Matrix: (Units=1/GPa)
#
#
# Indices 1 2 3 4 5 6 
#
# 1 0.008513 -0.003976 -0.005018 0.000000 0.000000 0.000000
# 2 -0.003976 0.058720 -0.004548 0.000000 0.000000 0.000000
# 3 -0.005018 -0.004548 0.008613 0.000000 0.000000 0.000000
# 4 0.000000 0.000000 0.000000 -0.161445 0.000000 0.000000
# 5 0.000000 0.000000 0.000000 0.000000 0.004867 0.000000
# 6 0.000000 0.000000 0.000000 0.000000 0.000000 0.034162
#
#
# Mechanical properties :
#
#
# Convention : Reuss Voigt Hill
#
# Bulk Modulus (GPa) = 20.50777 89.24127 54.87452
# Shear Modulus (GPa) = -1547.57528 62.53035 -742.52246
#
# Velocity S-wave (km/s) = -28.21839 5.67220 -19.54615
# Velocity P-wave (km/s) = 32.42147 9.42423 21.93554
#
# Compressibility (1/GPa) = 0.04876201
#
# Stress axis : x y z
#
# Youngs Moduli (GPa) = 117.46387 17.03007 116.10041
#
# Poissons Ratio (x) = 0.06772 0.58256
# Poissons Ratio (y) = 0.46709 0.52801
# Poissons Ratio (z) = 0.58940 0.07745
#
# Static dielectric constant tensor:
#      x y z
#    x 1.656440 0.000000 0.000000 
#    y 0.000000 1.679620 0.000000 
#    z 0.000000 0.000000 1.708170 
# 
# From -- ./inp_files/77801.got.cif
#   From: 2010.05.17/outbox.cif.g08.bks.cpg/sg65_39_cif.got.tgz:77801.got - 2010.06.03 17:01:31.
