data_PCOD9489374
_publ_section_title
;
Structure prediction by ZEFSAII (Michael W. Deem and Ramdas Pophale) SiO2 
 PCOD9489374
Probable space group: C M M M
;
_chemical_formula_sum "Si O2"
_cell_formula_units_Z 96
_cell_length_a 29.413649
_cell_length_b 20.387562
_cell_length_c 9.459073
_cell_angle_alpha 90.000000
_cell_angle_beta 90.000000
_cell_angle_gamma 90.000000
_cell_volume 5672.346830
_symmetry_space_group_name_H-M "C M M M"
_symmetry_group_IT_number 65
_symmetry_cell_setting 'orthorhombic'
loop_
_space_group_symop_operation_xyz
x,y,z
-x,-y,z
x,-y,-z
-x,y,-z
-x,-y,-z
x,y,-z
-x,y,z
x,-y,z
1/2+x,1/2+y,z
1/2-x,1/2-y,z
1/2+x,1/2-y,-z
1/2-x,1/2+y,-z
1/2-x,1/2-y,-z
1/2+x,1/2+y,-z
1/2-x,1/2+y,z
1/2+x,1/2-y,z
loop_
_atom_site_type_symbol
_atom_site_label
_atom_site_fract_x
_atom_site_fract_y
_atom_site_fract_z
Si Si1 0.052202 0.327770 0.171815
Si Si2 0.212643 0.652216 0.664971
Si Si3 0.554480 0.573819 0.659730
Si Si4 0.865838 0.422926 0.170328
Si Si5 0.811195 0.193183 0.334881
Si Si6 0.096468 0.188575 0.168715
O O1 0.088639 0.383221 0.214716
O O2 0.072393 0.256854 0.213831
O O3 0.000000 0.336655 0.220728
O O4 0.050869 0.328709 0.000000
O O5 0.209237 0.632799 0.500000
O O6 0.178040 0.610000 0.757381
O O7 0.199310 0.729045 0.673359
O O8 0.265913 0.652799 0.706023
O O9 0.569925 0.591160 0.500000
O O10 0.500000 0.571785 0.656563
O O11 0.570827 0.500000 0.691595
O O12 0.569087 0.627233 0.771697
O O13 0.869126 0.500000 0.204129
O O14 0.861919 0.416461 0.000000
O O15 0.820953 0.178751 0.500000
O O16 0.853881 0.182205 0.235992
O O17 0.098629 0.188792 0.000000
#
# Coordination Sequence:
#
# PCOD9489374 Si02
#       6
#    16  16  16  16  16  16
#     4   9  18  32  49  74 108 141 177 219 262 310
#     4   9  18  34  55  77 101 132 172 217 262 313
#     4   9  19  36  55  74 101 140 180 215 258 316
#     4  10  20  34  53  77 107 143 182 223 267 316
#     4   9  18  33  54  78 103 133 171 213 260 318
#     4  11  20  31  52  82 111 140 171 218 271 312
#
# _framework density 16.924212000000001
#
# number of rings (size 3 to 8) (size 9 to 14) (size 15 to 20)
#    0.000    2.500    1.667    2.500    0.000    2.667 
#    0.000    5.000    0.000    2.500    0.000    1.167 
#    0.000    0.000    0.000    0.000    0.000    0.000 
#
# Total GULP energy -267473.316822 kJ/mol
# GULP energy per Si atom -5572.360767 kJ/mol
# Density = 1.688569 g / cm^3
# Si number density = 16.924212 Si / 1000 Ang^3
#
#
#
# Elastic Constant Matrix: (Units=GPa)
#
#
# Indices 1 2 3 4 5 6 
#
# 1 136.2919 75.0301 51.6336 0.0000 0.0000 0.0000
# 2 75.0301 103.5152 47.4100 0.0000 0.0000 0.0000
# 3 51.6336 47.4100 44.8700 0.0000 0.0000 0.0000
# 4 0.0000 0.0000 0.0000 26.2049 0.0000 0.0000
# 5 0.0000 0.0000 0.0000 0.0000 23.0537 0.0000
# 6 0.0000 0.0000 0.0000 0.0000 0.0000 23.8103
#
#
#
# Elastic Compliance Matrix: (Units=1/GPa)
#
#
# Indices 1 2 3 4 5 6 
#
# 1 0.014487 -0.005552 -0.010804 0.000000 0.000000 0.000000
# 2 -0.005552 0.020847 -0.015638 0.000000 0.000000 0.000000
# 3 -0.010804 -0.015638 0.051243 0.000000 0.000000 0.000000
# 4 0.000000 0.000000 0.000000 0.038161 0.000000 0.000000
# 5 0.000000 0.000000 0.000000 0.000000 0.043377 0.000000
# 6 0.000000 0.000000 0.000000 0.000000 0.000000 0.041999
#
#
# Mechanical properties :
#
#
# Convention : Reuss Voigt Hill
#
# Bulk Modulus (GPa) = 44.27164 70.31384 57.29274
# Shear Modulus (GPa) = 17.75377 21.98734 19.87055
#
# Velocity S-wave (km/s) = 3.24236 3.60830 3.43022
# Velocity P-wave (km/s) = 6.34293 7.68090 7.04376
#
# Compressibility (1/GPa) = 0.02258783
#
# Stress axis : x y z
#
# Youngs Moduli (GPa) = 69.02871 47.96877 19.51499
#
# Poissons Ratio (x) = 0.26632 0.21084
# Poissons Ratio (y) = 0.38325 0.30518
# Poissons Ratio (z) = 0.74579 0.75014
#
# Static dielectric constant tensor:
#      x y z
#    x 1.591360 0.000000 0.000000 
#    y 0.000000 1.566790 0.000000 
#    z 0.000000 0.000000 1.559820 
# 
# From -- ./inp_files/12265.got.cif
#   From: 2010.05.17/outbox.cif.g08.bks.cpg/sg65_7_cif.got.tgz:12265.got - 2010.06.03 17:01:31.
