data_PCOD9489261
_publ_section_title
;
Structure prediction by ZEFSAII (Michael W. Deem and Ramdas Pophale) SiO2 
 PCOD9489261
Probable space group: C M M M
;
_chemical_formula_sum "Si O2"
_cell_formula_units_Z 80
_cell_length_a 11.908258
_cell_length_b 30.373848
_cell_length_c 12.948417
_cell_angle_alpha 90.000000
_cell_angle_beta 90.000000
_cell_angle_gamma 90.000000
_cell_volume 4683.437488
_symmetry_space_group_name_H-M "C M M M"
_symmetry_group_IT_number 65
_symmetry_cell_setting 'orthorhombic'
loop_
_space_group_symop_operation_xyz
x,y,z
-x,-y,z
x,-y,-z
-x,y,-z
-x,-y,-z
x,y,-z
-x,y,z
x,-y,z
1/2+x,1/2+y,z
1/2-x,1/2-y,z
1/2+x,1/2-y,-z
1/2-x,1/2+y,-z
1/2-x,1/2-y,-z
1/2+x,1/2+y,-z
1/2-x,1/2+y,z
1/2+x,1/2-y,z
loop_
_atom_site_type_symbol
_atom_site_label
_atom_site_fract_x
_atom_site_fract_y
_atom_site_fract_z
Si Si1 0.500000 0.052618 0.124297
Si Si2 0.210023 0.398180 0.769029
Si Si3 0.632623 0.177440 0.383613
Si Si4 0.250000 0.750000 0.245449
Si Si5 0.628869 0.447145 0.383718
Si Si6 0.369455 0.672565 0.123188
O O1 0.610793 0.076307 0.171373
O O2 0.500000 0.000000 0.147854
O O3 0.500000 0.057469 0.000000
O O4 0.158908 0.365850 0.682510
O O5 0.290925 0.430469 0.705693
O O6 0.287806 0.366981 0.840681
O O7 0.679970 0.175443 0.500000
O O8 0.500000 0.181895 0.390764
O O9 0.679275 0.218310 0.319327
O O10 0.325747 0.717483 0.176166
O O11 0.663338 0.432873 0.500000
O O12 0.500000 0.432276 0.367714
O O13 0.628605 0.500000 0.383768
O O14 0.500000 0.664382 0.152029
O O15 0.363398 0.676924 0.000000
#
# Coordination Sequence:
#
# PCOD9489261 Si02
#       6
#     8  16  16   8  16  16
#     4  11  24  40  57  79 109 145 192 242 289 345
#     4  11  20  36  56  79 106 146 182 225 283 331
#     4  10  20  34  52  77 108 139 175 217 262 319
#     4  10  20  34  56  76 108 144 180 216 276 326
#     4   9  18  33  54  81 111 141 176 220 271 333
#     4  10  21  36  55  80 108 140 185 235 277 326
#
# _framework density 17.081472000000002
#
# number of rings (size 3 to 8) (size 9 to 14) (size 15 to 20)
#    0.000    1.900    1.000    4.200    0.000    0.000 
#    0.000    0.000    0.000   12.000    0.000    8.400 
#    0.000    0.000    0.000    0.000    0.000    0.000 
#
# Total GULP energy -223093.225969 kJ/mol
# GULP energy per Si atom -5577.330649 kJ/mol
# Density = 1.704259 g / cm^3
# Si number density = 17.081472 Si / 1000 Ang^3
#
#
#
# Elastic Constant Matrix: (Units=GPa)
#
#
# Indices 1 2 3 4 5 6 
#
# 1 121.4765 63.7383 73.7492 0.0000 0.0000 0.0000
# 2 63.7383 106.9869 64.4347 0.0000 0.0000 0.0000
# 3 73.7492 64.4347 129.1758 0.0000 0.0000 0.0000
# 4 0.0000 0.0000 0.0000 18.3040 0.0000 0.0000
# 5 0.0000 0.0000 0.0000 0.0000 23.3934 0.0000
# 6 0.0000 0.0000 0.0000 0.0000 0.0000 20.0136
#
#
#
# Elastic Compliance Matrix: (Units=1/GPa)
#
#
# Indices 1 2 3 4 5 6 
#
# 1 0.014354 -0.005169 -0.005617 0.000000 0.000000 0.000000
# 2 -0.005169 0.015222 -0.004642 0.000000 0.000000 0.000000
# 3 -0.005617 -0.004642 0.013264 0.000000 0.000000 0.000000
# 4 0.000000 0.000000 0.000000 0.054633 0.000000 0.000000
# 5 0.000000 0.000000 0.000000 0.000000 0.042747 0.000000
# 6 0.000000 0.000000 0.000000 0.000000 0.000000 0.049966
#
#
# Mechanical properties :
#
#
# Convention : Reuss Voigt Hill
#
# Bulk Modulus (GPa) = 83.44034 84.60928 84.02481
# Shear Modulus (GPa) = 22.21871 22.72334 22.47102
#
# Velocity S-wave (km/s) = 3.61050 3.65127 3.63095
# Velocity P-wave (km/s) = 8.14466 8.21073 8.17776
#
# Compressibility (1/GPa) = 0.01198461
#
# Stress axis : x y z
#
# Youngs Moduli (GPa) = 69.66680 65.69448 75.39415
#
# Poissons Ratio (x) = 0.33956 0.42347
# Poissons Ratio (y) = 0.36009 0.34998
# Poissons Ratio (z) = 0.39130 0.30495
#
# Static dielectric constant tensor:
#      x y z
#    x 1.569140 0.000000 0.000000 
#    y 0.000000 1.574010 0.000000 
#    z 0.000000 0.000000 1.567030 
# 
# From -- ./inp_files/22889.got.cif
#   From: 2010.05.17/outbox.cif.g08.bks.cpg/sg65_12_cif.got.tgz:22889.got - 2010.06.03 17:01:31.
