data_PCOD9489837
_publ_section_title
;
Structure prediction by ZEFSAII (Michael W. Deem and Ramdas Pophale) SiO2 
 PCOD9489837
Probable space group: C M M M
;
_chemical_formula_sum "Si O2"
_cell_formula_units_Z 88
_cell_length_a 18.005652
_cell_length_b 33.491329
_cell_length_c 7.380443
_cell_angle_alpha 90.000000
_cell_angle_beta 90.000000
_cell_angle_gamma 90.000000
_cell_volume 4450.652270
_symmetry_space_group_name_H-M "C M M M"
_symmetry_group_IT_number 65
_symmetry_cell_setting 'orthorhombic'
loop_
_space_group_symop_operation_xyz
x,y,z
-x,-y,z
x,-y,-z
-x,y,-z
-x,-y,-z
x,y,-z
-x,y,z
x,-y,z
1/2+x,1/2+y,z
1/2-x,1/2-y,z
1/2+x,1/2-y,-z
1/2-x,1/2+y,-z
1/2-x,1/2-y,-z
1/2+x,1/2+y,-z
1/2-x,1/2+y,z
1/2+x,1/2-y,z
loop_
_atom_site_type_symbol
_atom_site_label
_atom_site_fract_x
_atom_site_fract_y
_atom_site_fract_z
Si Si1 0.500000 0.454792 0.780735
Si Si2 0.584474 0.091264 0.778848
Si Si3 0.590430 0.180327 0.794357
Si Si4 0.909575 0.835472 0.500000
Si Si5 0.909473 0.256845 0.500000
Si Si6 0.726382 0.955165 0.220564
Si Si7 0.638474 0.399206 0.781759
O O1 0.500000 0.500000 0.712982
O O2 0.572472 0.429795 0.731443
O O3 0.500000 0.456894 0.000000
O O4 0.500000 0.083909 0.719319
O O5 0.609104 0.135985 0.724447
O O6 0.644671 0.058900 0.722757
O O7 0.583105 0.092012 0.000000
O O8 0.500000 0.180504 0.797315
O O9 0.614935 0.216954 0.671754
O O10 0.616867 0.184328 0.000000
O O11 0.887279 0.789114 0.500000
O O12 0.877902 0.858900 0.326161
O O13 0.000000 0.838011 0.500000
O O14 0.000000 0.256855 0.500000
O O15 0.785989 0.921668 0.271377
O O16 0.744633 0.000000 0.281517
O O17 0.727558 0.956058 0.000000
O O18 0.637622 0.393214 0.000000
#
# Coordination Sequence:
#
# PCOD9489837 Si02
#       7
#     8  16  16   8   8  16  16
#     4   9  16  29  51  73  94 129 175 218 257 303
#     4   8  14  26  48  78 110 142 177 217 258 306
#     4   8  14  27  47  73 103 134 170 211 257 306
#     4  11  22  36  53  78 106 132 174 224 273 327
#     4   9  18  30  49  76 102 128 167 219 263 313
#     4   9  17  30  50  76 107 145 182 215 259 311
#     4  10  20  35  53  74 106 143 176 217 266 315
#
# _framework density 19.772382
#
# number of rings (size 3 to 8) (size 9 to 14) (size 15 to 20)
#    0.000    3.000    0.909    1.636    0.000    3.273 
#    0.000    6.818    0.000    2.182    0.000    5.091 
#    0.000    5.091    0.000    0.545    0.000    0.000 
#
# Total GULP energy -245454.047091 kJ/mol
# GULP energy per Si atom -5578.501070 kJ/mol
# Density = 1.972738 g / cm^3
# Si number density = 19.772382 Si / 1000 Ang^3
#
#
#
# Elastic Constant Matrix: (Units=GPa)
#
#
# Indices 1 2 3 4 5 6 
#
# 1 67.3021 15.6628 5.2762 0.0000 0.0000 0.0000
# 2 15.6628 61.0326 16.8524 0.0000 0.0000 0.0000
# 3 5.2762 16.8524 77.0700 0.0000 0.0000 0.0000
# 4 0.0000 0.0000 0.0000 36.7489 0.0000 0.0000
# 5 0.0000 0.0000 0.0000 0.0000 -4.0981 0.0000
# 6 0.0000 0.0000 0.0000 0.0000 0.0000 162.3472
#
#
#
# Elastic Compliance Matrix: (Units=1/GPa)
#
#
# Indices 1 2 3 4 5 6 
#
# 1 0.015805 -0.003999 -0.000208 0.000000 0.000000 0.000000
# 2 -0.003999 0.018449 -0.003760 0.000000 0.000000 0.000000
# 3 -0.000208 -0.003760 0.013812 0.000000 0.000000 0.000000
# 4 0.000000 0.000000 0.000000 0.027212 0.000000 0.000000
# 5 0.000000 0.000000 0.000000 0.000000 -0.244017 0.000000
# 6 0.000000 0.000000 0.000000 0.000000 0.000000 0.006160
#
#
# Mechanical properties :
#
#
# Convention : Reuss Voigt Hill
#
# Bulk Modulus (GPa) = 31.12113 31.22085 31.17099
# Shear Modulus (GPa) = -36.78224 50.17383 6.69579
#
# Velocity S-wave (km/s) = -4.31778 5.04290 1.84222
# Velocity P-wave (km/s) = 3.01393 7.05210 4.50824
#
# Compressibility (1/GPa) = 0.03213251
#
# Stress axis : x y z
#
# Youngs Moduli (GPa) = 63.27005 54.20283 72.40237
#
# Poissons Ratio (x) = 0.21675 0.01503
# Poissons Ratio (y) = 0.25300 0.27226
# Poissons Ratio (z) = 0.01314 0.20383
#
# Static dielectric constant tensor:
#      x y z
#    x 1.686410 0.000000 0.000000 
#    y 0.000000 1.660800 0.000000 
#    z 0.000000 0.000000 1.749860 
# 
# From -- ./inp_files/10218.got.cif
#   From: 2010.05.17/outbox.cif.g08.bks.cpg/sg65_6_cif.got.tgz:10218.got - 2010.06.03 17:01:31.
