data_PCOD9489054
_publ_section_title
;
Structure prediction by ZEFSAII (Michael W. Deem and Ramdas Pophale) SiO2 
 PCOD9489054
Probable space group: C M M M
;
_chemical_formula_sum "Si O2"
_cell_formula_units_Z 104
_cell_length_a 9.183646
_cell_length_b 27.923183
_cell_length_c 27.600593
_cell_angle_alpha 90.000000
_cell_angle_beta 90.000000
_cell_angle_gamma 90.000000
_cell_volume 7077.802996
_symmetry_space_group_name_H-M "C M M M"
_symmetry_group_IT_number 65
_symmetry_cell_setting 'orthorhombic'
loop_
_space_group_symop_operation_xyz
x,y,z
-x,-y,z
x,-y,-z
-x,y,-z
-x,-y,-z
x,y,-z
-x,y,z
x,-y,z
1/2+x,1/2+y,z
1/2-x,1/2-y,z
1/2+x,1/2-y,-z
1/2-x,1/2+y,-z
1/2-x,1/2-y,-z
1/2+x,1/2+y,-z
1/2-x,1/2+y,z
1/2+x,1/2-y,z
loop_
_atom_site_type_symbol
_atom_site_label
_atom_site_fract_x
_atom_site_fract_y
_atom_site_fract_z
Si Si1 0.173613 0.945142 0.897560
Si Si2 0.825163 0.300676 0.849162
Si Si3 0.322449 0.555234 0.296586
Si Si4 0.825744 0.888631 0.200862
Si Si5 0.332729 0.058377 0.500000
Si Si6 0.331839 0.441705 0.403454
Si Si7 0.174653 0.643234 0.945774
O O1 0.197824 0.926871 0.842514
O O2 0.253623 0.907336 0.931790
O O3 0.000000 0.942828 0.906289
O O4 0.220978 0.000000 0.903596
O O5 0.750000 0.250000 0.840317
O O6 0.761513 0.341244 0.813632
O O7 0.786448 0.319463 0.903412
O O8 0.000000 0.297546 0.845363
O O9 0.500000 0.554478 0.297812
O O10 0.276045 0.500000 0.289077
O O11 0.280075 0.588321 0.251795
O O12 0.275233 0.572151 0.350109
O O13 0.000000 0.878834 0.202181
O O14 0.500000 0.072543 0.500000
O O15 0.255594 0.074356 0.450527
O O16 0.326064 0.000000 0.500000
O O17 0.500000 0.426955 0.408249
O O18 0.330438 0.500000 0.402983
O O19 0.000000 0.637977 0.944479
O O20 0.217907 0.657978 0.000000
#
# Coordination Sequence:
#
# PCOD9489054 Si02
#       7
#    16  16  16  16   8  16  16
#     4   9  17  28  43  64  88 113 140 168 197 232
#     4  10  20  34  50  66  83 103 130 164 204 250
#     4   8  13  22  39  62  84 108 141 176 205 237
#     4   9  16  28  46  65  85 109 136 167 204 244
#     4   9  15  21  29  43  67 101 140 179 214 243
#     4   8  13  21  33  49  70 100 139 177 207 235
#     4   9  19  34  48  63  84 108 134 165 201 242
#
# _framework density 14.693825
#
# number of rings (size 3 to 8) (size 9 to 14) (size 15 to 20)
#    0.000    3.154    0.000    2.077    0.000    4.615 
#    0.000    2.308    0.000    2.308    0.000    0.000 
#    0.000    0.000    0.000    0.692    0.000    7.769 
#
# Total GULP energy -289505.326205 kJ/mol
# GULP energy per Si atom -5567.410119 kJ/mol
# Density = 1.466038 g / cm^3
# Si number density = 14.693825 Si / 1000 Ang^3
#
#
#
# Elastic Constant Matrix: (Units=GPa)
#
#
# Indices 1 2 3 4 5 6 
#
# 1 29.6533 22.7756 36.5053 0.0000 0.0000 0.0000
# 2 22.7756 66.2561 34.3714 0.0000 0.0000 0.0000
# 3 36.5053 34.3714 129.3179 0.0000 0.0000 0.0000
# 4 0.0000 0.0000 0.0000 8.9879 0.0000 0.0000
# 5 0.0000 0.0000 0.0000 0.0000 12.1194 0.0000
# 6 0.0000 0.0000 0.0000 0.0000 0.0000 17.8447
#
#
#
# Elastic Compliance Matrix: (Units=1/GPa)
#
#
# Indices 1 2 3 4 5 6 
#
# 1 0.061139 -0.013992 -0.013540 0.000000 0.000000 0.000000
# 2 -0.013992 0.020709 -0.001554 0.000000 0.000000 0.000000
# 3 -0.013540 -0.001554 0.011968 0.000000 0.000000 0.000000
# 4 0.000000 0.000000 0.000000 0.111261 0.000000 0.000000
# 5 0.000000 0.000000 0.000000 0.000000 0.082512 0.000000
# 6 0.000000 0.000000 0.000000 0.000000 0.000000 0.056039
#
#
# Mechanical properties :
#
#
# Convention : Reuss Voigt Hill
#
# Bulk Modulus (GPa) = 28.05620 45.83688 36.94654
# Shear Modulus (GPa) = 12.08658 16.56208 14.32433
#
# Velocity S-wave (km/s) = 2.87115 3.36094 3.12565
# Velocity P-wave (km/s) = 5.48877 6.80615 6.18265
#
# Compressibility (1/GPa) = 0.03564274
#
# Stress axis : x y z
#
# Youngs Moduli (GPa) = 16.35628 48.28771 83.55480
#
# Poissons Ratio (x) = 0.67566 1.13132
# Poissons Ratio (y) = 0.22886 0.12987
# Poissons Ratio (z) = 0.22146 0.07506
#
# Static dielectric constant tensor:
#      x y z
#    x 1.488390 0.000000 0.000000 
#    y 0.000000 1.450680 0.000000 
#    z 0.000000 0.000000 1.505530 
# 
# From -- ./inp_files/73742.got.cif
#   From: 2010.05.17/outbox.cif.g08.bks.cpg/sg65_37_cif.got.tgz:73742.got - 2010.06.03 17:01:31.
