data_PCOD9489376
_publ_section_title
;
Structure prediction by ZEFSAII (Michael W. Deem and Ramdas Pophale) SiO2 
 PCOD9489376
Probable space group: C M M M
;
_chemical_formula_sum "Si O2"
_cell_formula_units_Z 104
_cell_length_a 32.232791
_cell_length_b 8.682816
_cell_length_c 19.866744
_cell_angle_alpha 90.000000
_cell_angle_beta 90.000000
_cell_angle_gamma 90.000000
_cell_volume 5560.133326
_symmetry_space_group_name_H-M "C M M M"
_symmetry_group_IT_number 65
_symmetry_cell_setting 'orthorhombic'
loop_
_space_group_symop_operation_xyz
x,y,z
-x,-y,z
x,-y,-z
-x,y,-z
-x,-y,-z
x,y,-z
-x,y,z
x,-y,z
1/2+x,1/2+y,z
1/2-x,1/2-y,z
1/2+x,1/2-y,-z
1/2-x,1/2+y,-z
1/2-x,1/2-y,-z
1/2+x,1/2+y,-z
1/2-x,1/2+y,z
1/2+x,1/2-y,z
loop_
_atom_site_type_symbol
_atom_site_label
_atom_site_fract_x
_atom_site_fract_y
_atom_site_fract_z
Si Si1 0.293783 0.183067 0.790044
Si Si2 0.454930 0.314438 0.211976
Si Si3 0.576536 0.815378 0.923984
Si Si4 0.830103 0.184339 0.076227
Si Si5 0.371749 0.686569 0.290036
Si Si6 0.912057 0.185248 0.576412
Si Si7 0.500000 0.175775 0.418037
O O1 0.250000 0.250000 0.766186
O O2 0.302463 0.244256 0.865441
O O3 0.331895 0.241616 0.744831
O O4 0.292560 0.000000 0.790455
O O5 0.500000 0.262113 0.238427
O O6 0.454535 0.500000 0.213914
O O7 0.449753 0.258643 0.135446
O O8 0.413925 0.263269 0.251763
O O9 0.623515 0.752504 0.917074
O O10 0.576779 0.000000 0.917125
O O11 0.562405 0.777362 0.000000
O O12 0.832213 0.000000 0.084669
O O13 0.815738 0.217948 0.000000
O O14 0.368949 0.500000 0.285157
O O15 0.378474 0.730535 0.367942
O O16 0.904701 0.241027 0.500000
O O17 0.957411 0.240380 0.600308
O O18 0.913183 0.000000 0.574743
O O19 0.500000 0.175752 0.500000
O O20 0.500000 0.000000 0.394761
#
# Coordination Sequence:
#
# PCOD9489376 Si02
#       7
#    16  16  16  16  16  16   8
#     4  12  25  41  63  88 116 148 188 233 286 345
#     4  10  21  35  53  78 110 152 197 236 281 338
#     4  10  20  34  53  77 107 146 192 242 290 333
#     4  10  20  36  59  85 114 148 186 231 284 341
#     4  10  21  38  60  84 116 151 189 236 285 338
#     4   9  18  33  56  84 114 153 196 235 280 338
#     4   9  17  29  47  77 117 155 192 235 278 325
#
# _framework density 18.704587
#
# number of rings (size 3 to 8) (size 9 to 14) (size 15 to 20)
#    0.000    1.923    1.538    2.538    1.077    4.308 
#    0.000    1.538    0.000    0.462    0.000    0.000 
#    0.000    0.000    0.000    0.000    0.000    0.000 
#
# Total GULP energy -290401.811542 kJ/mol
# GULP energy per Si atom -5584.650222 kJ/mol
# Density = 1.866201 g / cm^3
# Si number density = 18.704587 Si / 1000 Ang^3
#
#
#
# Elastic Constant Matrix: (Units=GPa)
#
#
# Indices 1 2 3 4 5 6 
#
# 1 129.2365 29.9343 65.5691 0.0000 0.0000 0.0000
# 2 29.9343 23.8713 23.6889 0.0000 0.0000 0.0000
# 3 65.5691 23.6889 101.3078 0.0000 0.0000 0.0000
# 4 0.0000 0.0000 0.0000 14.2654 0.0000 0.0000
# 5 0.0000 0.0000 0.0000 0.0000 16.2746 0.0000
# 6 0.0000 0.0000 0.0000 0.0000 0.0000 22.7234
#
#
#
# Elastic Compliance Matrix: (Units=1/GPa)
#
#
# Indices 1 2 3 4 5 6 
#
# 1 0.013304 -0.010597 -0.006133 0.000000 0.000000 0.000000
# 2 -0.010597 0.062990 -0.007870 0.000000 0.000000 0.000000
# 3 -0.006133 -0.007870 0.015680 0.000000 0.000000 0.000000
# 4 0.000000 0.000000 0.000000 0.070100 0.000000 0.000000
# 5 0.000000 0.000000 0.000000 0.000000 0.061445 0.000000
# 6 0.000000 0.000000 0.000000 0.000000 0.000000 0.044007
#
#
# Mechanical properties :
#
#
# Convention : Reuss Voigt Hill
#
# Bulk Modulus (GPa) = 23.37851 54.75560 39.06705
# Shear Modulus (GPa) = 15.10643 19.66756 17.38699
#
# Velocity S-wave (km/s) = 2.84497 3.24618 3.05217
# Velocity P-wave (km/s) = 4.82885 6.58693 5.77518
#
# Compressibility (1/GPa) = 0.04277432
#
# Stress axis : x y z
#
# Youngs Moduli (GPa) = 75.16711 15.87550 63.77366
#
# Poissons Ratio (x) = 0.16823 0.39110
# Poissons Ratio (y) = 0.79654 0.50193
# Poissons Ratio (z) = 0.46097 0.12495
#
# Static dielectric constant tensor:
#      x y z
#    x 1.638260 0.000000 0.000000 
#    y 0.000000 1.630520 0.000000 
#    z 0.000000 0.000000 1.676000 
# 
# From -- ./inp_files/66319.got.cif
#   From: 2010.05.17/outbox.cif.g08.bks.cpg/sg65_34_cif.got.tgz:66319.got - 2010.06.03 17:01:31.
