data_PCOD9489025
_publ_section_title
;
Structure prediction by ZEFSAII (Michael W. Deem and Ramdas Pophale) SiO2 
 PCOD9489025
Probable space group: C M M M
;
_chemical_formula_sum "Si O2"
_cell_formula_units_Z 104
_cell_length_a 29.132998
_cell_length_b 27.586555
_cell_length_c 8.015792
_cell_angle_alpha 90.000000
_cell_angle_beta 90.000000
_cell_angle_gamma 90.000000
_cell_volume 6442.124113
_symmetry_space_group_name_H-M "C M M M"
_symmetry_group_IT_number 65
_symmetry_cell_setting 'orthorhombic'
loop_
_space_group_symop_operation_xyz
x,y,z
-x,-y,z
x,-y,-z
-x,y,-z
-x,-y,-z
x,y,-z
-x,y,z
x,-y,z
1/2+x,1/2+y,z
1/2-x,1/2-y,z
1/2+x,1/2-y,-z
1/2-x,1/2+y,-z
1/2-x,1/2-y,-z
1/2+x,1/2+y,-z
1/2-x,1/2+y,z
1/2+x,1/2-y,z
loop_
_atom_site_type_symbol
_atom_site_label
_atom_site_fract_x
_atom_site_fract_y
_atom_site_fract_z
Si Si1 0.052181 0.813590 0.299639
Si Si2 0.889906 0.093878 0.801592
Si Si3 0.555256 0.863619 0.000000
Si Si4 0.055730 0.704925 0.691795
Si Si5 0.052075 0.000000 0.699104
Si Si6 0.692318 0.058892 0.314886
Si Si7 0.293016 0.442771 0.201667
Si Si8 0.130063 0.441570 0.000000
O O1 0.049241 0.812909 0.500000
O O2 0.085596 0.856768 0.250881
O O3 0.068501 0.759591 0.252963
O O4 0.000000 0.821679 0.235126
O O5 0.838042 0.085565 0.738277
O O6 0.920768 0.047987 0.751240
O O7 0.886714 0.093398 0.000000
O O8 0.568546 0.833456 0.833535
O O9 0.582005 0.914042 0.000000
O O10 0.500000 0.869236 0.000000
O O11 0.071274 0.695611 0.500000
O O12 0.000000 0.705430 0.685851
O O13 0.049575 0.000000 0.500000
O O14 0.000000 0.000000 0.766220
O O15 0.677877 0.074698 0.500000
O O16 0.744847 0.073539 0.278838
O O17 0.659114 0.073015 0.164037
O O18 0.692786 0.000000 0.313095
O O19 0.299859 0.500000 0.239617
O O20 0.288942 0.439200 0.000000
O O21 0.125130 0.500000 0.000000
#
# Coordination Sequence:
#
# PCOD9489025 Si02
#       8
#    16  16   8  16   8  16  16   8
#     4   9  18  32  47  65  93 127 165 214 265 303
#     4  11  21  30  44  67  91 124 165 214 267 315
#     4  10  20  33  56  83 107 140 171 187 226 284
#     4   8  16  32  52  74 100 129 169 219 253 279
#     4  11  23  35  41  51  87 137 177 211 255 320
#     4   9  17  30  51  74  97 134 172 205 248 285
#     4   9  16  30  46  63  94 125 161 215 264 300
#     4  10  20  35  52  79 117 141 158 196 223 273
#
# _framework density 16.143743000000001
#
# number of rings (size 3 to 8) (size 9 to 14) (size 15 to 20)
#    0.000    2.538    1.538    2.077    1.077    4.769 
#    0.000    0.000    0.000    0.000    0.000    6.462 
#    0.000    3.692    0.000    0.000    0.000    0.000 
#
# Total GULP energy -289760.064746 kJ/mol
# GULP energy per Si atom -5572.308937 kJ/mol
# Density = 1.610700 g / cm^3
# Si number density = 16.143743 Si / 1000 Ang^3
#
#
#
# Elastic Constant Matrix: (Units=GPa)
#
#
# Indices 1 2 3 4 5 6 
#
# 1 71.0179 41.6113 37.0731 0.0000 0.0000 0.0000
# 2 41.6113 63.6947 35.9813 0.0000 0.0000 0.0000
# 3 37.0731 35.9813 71.1808 0.0000 0.0000 0.0000
# 4 0.0000 0.0000 0.0000 33.0651 0.0000 0.0000
# 5 0.0000 0.0000 0.0000 0.0000 -14.5844 0.0000
# 6 0.0000 0.0000 0.0000 0.0000 0.0000 3.4720
#
#
#
# Elastic Compliance Matrix: (Units=1/GPa)
#
#
# Indices 1 2 3 4 5 6 
#
# 1 0.024867 -0.012498 -0.006634 0.000000 0.000000 0.000000
# 2 -0.012498 0.028256 -0.007774 0.000000 0.000000 0.000000
# 3 -0.006634 -0.007774 0.021434 0.000000 0.000000 0.000000
# 4 0.000000 0.000000 0.000000 0.030243 0.000000 0.000000
# 5 0.000000 0.000000 0.000000 0.000000 -0.068566 0.000000
# 6 0.000000 0.000000 0.000000 0.000000 0.000000 0.288020
#
#
# Mechanical properties :
#
#
# Convention : Reuss Voigt Hill
#
# Bulk Modulus (GPa) = 48.20398 48.35828 48.28113
# Shear Modulus (GPa) = 12.98768 10.47239 11.73003
#
# Velocity S-wave (km/s) = 2.83945 2.54971 2.69848
# Velocity P-wave (km/s) = 6.37762 6.21996 6.29928
#
# Compressibility (1/GPa) = 0.02074517
#
# Stress axis : x y z
#
# Youngs Moduli (GPa) = 40.21426 35.39044 46.65593
#
# Poissons Ratio (x) = 0.44230 0.30951
# Poissons Ratio (y) = 0.50259 0.36270
# Poissons Ratio (z) = 0.26677 0.27513
#
# Static dielectric constant tensor:
#      x y z
#    x 1.547380 0.000000 0.000000 
#    y 0.000000 1.508880 0.000000 
#    z 0.000000 0.000000 1.574930 
# 
# From -- ./inp_files/16865.got.cif
#   From: 2010.05.17/outbox.cif.g08.bks.cpg/sg65_9_cif.got.tgz:16865.got - 2010.06.03 17:01:31.
