data_PCOD9489590
_publ_section_title
;
Structure prediction by ZEFSAII (Michael W. Deem and Ramdas Pophale) SiO2 
 PCOD9489590
Probable space group: C M M M
;
_chemical_formula_sum "Si O2"
_cell_formula_units_Z 104
_cell_length_a 29.917135
_cell_length_b 8.348379
_cell_length_c 20.752820
_cell_angle_alpha 90.000000
_cell_angle_beta 90.000000
_cell_angle_gamma 90.000000
_cell_volume 5183.215640
_symmetry_space_group_name_H-M "C M M M"
_symmetry_group_IT_number 65
_symmetry_cell_setting 'orthorhombic'
loop_
_space_group_symop_operation_xyz
x,y,z
-x,-y,z
x,-y,-z
-x,y,-z
-x,-y,-z
x,y,-z
-x,y,z
x,-y,z
1/2+x,1/2+y,z
1/2-x,1/2-y,z
1/2+x,1/2-y,-z
1/2-x,1/2+y,-z
1/2-x,1/2-y,-z
1/2+x,1/2+y,-z
1/2-x,1/2+y,z
1/2+x,1/2-y,z
loop_
_atom_site_type_symbol
_atom_site_label
_atom_site_fract_x
_atom_site_fract_y
_atom_site_fract_z
Si Si1 0.700235 0.806323 0.311746
Si Si2 0.448600 0.811871 0.244211
Si Si3 0.107786 0.191612 0.875395
Si Si4 0.700210 0.808011 0.835862
Si Si5 0.642210 0.809122 0.430561
Si Si6 0.449860 0.688566 0.387165
Si Si7 0.551606 0.695603 0.000000
O O1 0.750000 0.750000 0.327969
O O2 0.691195 0.752750 0.238330
O O3 0.666994 0.745390 0.366957
O O4 0.698516 0.000000 0.310634
O O5 0.500000 0.786601 0.222185
O O6 0.414730 0.761316 0.188946
O O7 0.442933 0.717485 0.310775
O O8 0.442648 0.000000 0.258828
O O9 0.159392 0.243559 0.878041
O O10 0.105532 0.000000 0.872453
O O11 0.078645 0.246541 0.936545
O O12 0.750000 0.750000 0.853355
O O13 0.699718 0.000000 0.836995
O O14 0.658080 0.745267 0.500000
O O15 0.589888 0.775513 0.423260
O O16 0.649304 0.000000 0.430729
O O17 0.500000 0.746532 0.402527
O O18 0.447705 0.500000 0.400924
O O19 0.551000 0.500000 0.000000
O O20 0.500000 0.749089 0.000000
#
# Coordination Sequence:
#
# PCOD9489590 Si02
#       7
#    16  16  16  16  16  16   8
#     4   9  19  35  55  79 107 138 174 220 271 324
#     4  10  20  34  54  81 111 142 179 226 280 335
#     4  11  21  35  58  85 114 150 190 229 274 327
#     4  10  20  36  58  84 113 144 184 234 285 333
#     4  10  21  36  53  75 106 144 182 219 268 333
#     4  10  21  36  54  77 104 136 179 231 282 330
#     4   9  20  38  58  83 118 157 192 227 270 323
#
# _framework density 20.064764
#
# number of rings (size 3 to 8) (size 9 to 14) (size 15 to 20)
#    0.000    2.077    0.000    3.231    0.000    5.846 
#    0.000    3.462    0.000    2.769    0.000    0.000 
#    0.000    0.000    0.000    0.000    0.000    0.000 
#
# Total GULP energy -290412.125815 kJ/mol
# GULP energy per Si atom -5584.848573 kJ/mol
# Density = 2.001910 g / cm^3
# Si number density = 20.064764 Si / 1000 Ang^3
#
#
#
# Elastic Constant Matrix: (Units=GPa)
#
#
# Indices 1 2 3 4 5 6 
#
# 1 118.3806 2.1905 51.7731 0.0000 0.0000 0.0000
# 2 2.1905 11.5699 -3.9557 0.0000 0.0000 0.0000
# 3 51.7731 -3.9557 44.6400 0.0000 0.0000 0.0000
# 4 0.0000 0.0000 0.0000 11.1759 0.0000 0.0000
# 5 0.0000 0.0000 0.0000 0.0000 8.9563 0.0000
# 6 0.0000 0.0000 0.0000 0.0000 0.0000 32.8225
#
#
#
# Elastic Compliance Matrix: (Units=1/GPa)
#
#
# Indices 1 2 3 4 5 6 
#
# 1 0.018437 -0.011139 -0.022370 0.000000 0.000000 0.000000
# 2 -0.011139 0.095861 0.021413 0.000000 0.000000 0.000000
# 3 -0.022370 0.021413 0.050243 0.000000 0.000000 0.000000
# 4 0.000000 0.000000 0.000000 0.089478 0.000000 0.000000
# 5 0.000000 0.000000 0.000000 0.000000 0.111654 0.000000
# 6 0.000000 0.000000 0.000000 0.000000 0.000000 0.030467
#
#
# Mechanical properties :
#
#
# Convention : Reuss Voigt Hill
#
# Bulk Modulus (GPa) = 7.12503 30.51183 18.81843
# Shear Modulus (GPa) = 10.70402 18.89644 14.80023
#
# Velocity S-wave (km/s) = 2.31221 3.07216 2.71887
# Velocity P-wave (km/s) = 3.26912 5.27484 4.38811
#
# Compressibility (1/GPa) = 0.14035034
#
# Stress axis : x y z
#
# Youngs Moduli (GPa) = 54.23938 10.43176 19.90312
#
# Poissons Ratio (x) = 0.11620 0.44523
# Poissons Ratio (y) = 0.60416 -0.42619
# Poissons Ratio (z) = 1.21333 -0.22338
#
# Static dielectric constant tensor:
#      x y z
#    x 1.700770 0.000000 0.000000 
#    y 0.000000 1.695120 0.000000 
#    z 0.000000 0.000000 1.720580 
# 
# From -- ./inp_files/66313.got.cif
#   From: 2010.05.17/outbox.cif.g08.bks.cpg/sg65_34_cif.got.tgz:66313.got - 2010.06.03 17:01:31.
