data_PCOD9489425
_publ_section_title
;
Structure prediction by ZEFSAII (Michael W. Deem and Ramdas Pophale) SiO2 
 PCOD9489425
Probable space group: C M M M
;
_chemical_formula_sum "Si O2"
_cell_formula_units_Z 56
_cell_length_a 24.553009
_cell_length_b 8.602055
_cell_length_c 13.656283
_cell_angle_alpha 90.000000
_cell_angle_beta 90.000000
_cell_angle_gamma 90.000000
_cell_volume 2884.293466
_symmetry_space_group_name_H-M "C M M M"
_symmetry_group_IT_number 65
_symmetry_cell_setting 'orthorhombic'
loop_
_space_group_symop_operation_xyz
x,y,z
-x,-y,z
x,-y,-z
-x,y,-z
-x,-y,-z
x,y,-z
-x,y,z
x,-y,z
1/2+x,1/2+y,z
1/2-x,1/2-y,z
1/2+x,1/2-y,-z
1/2-x,1/2+y,-z
1/2-x,1/2-y,-z
1/2+x,1/2+y,-z
1/2-x,1/2+y,z
1/2+x,1/2-y,z
loop_
_atom_site_type_symbol
_atom_site_label
_atom_site_fract_x
_atom_site_fract_y
_atom_site_fract_z
Si Si1 0.105377 0.820428 0.274186
Si Si2 0.804823 0.675114 0.384582
Si Si3 0.311363 0.813296 0.887334
Si Si4 0.000000 0.313854 0.616828
O O1 0.147805 0.793983 0.361808
O O2 0.140653 0.748138 0.184133
O O3 0.051608 0.740432 0.318215
O O4 0.094284 0.000000 0.253545
O O5 0.799078 0.660447 0.500000
O O6 0.815161 0.500000 0.346255
O O7 0.750000 0.750000 0.344519
O O8 0.250000 0.750000 0.867105
O O9 0.309442 0.000000 0.881751
O O10 0.323728 0.768446 0.000000
O O11 0.000000 0.500000 0.611756
O O12 0.000000 0.260442 0.500000
#
# Coordination Sequence:
#
# PCOD9489425 Si02
#       4
#    16  16  16   8
#     4  12  24  38  59  86 118 155 196 244 297 356
#     4  10  20  34  53  79 112 149 190 238 292 351
#     4  10  21  39  64  93 125 160 199 246 300 358
#     4  11  25  45  66  87 116 157 205 254 300 351
#
# _framework density 19.415500000000002
#
# number of rings (size 3 to 8) (size 9 to 14) (size 15 to 20)
#    0.000    1.286    0.000    6.429    0.000    8.000 
#    0.000    0.714    0.000    4.286    0.000    0.000 
#    0.000    0.000    0.000    0.000    0.000    0.000 
#
# Total GULP energy -156068.040356 kJ/mol
# GULP energy per Si atom -5573.858584 kJ/mol
# Density = 1.937131 g / cm^3
# Si number density = 19.415500 Si / 1000 Ang^3
#
#
#
# Elastic Constant Matrix: (Units=GPa)
#
#
# Indices 1 2 3 4 5 6 
#
# 1 164.8533 43.8642 59.0254 0.0000 0.0000 0.0000
# 2 43.8642 96.6736 49.3092 0.0000 0.0000 0.0000
# 3 59.0254 49.3092 149.0964 0.0000 0.0000 0.0000
# 4 0.0000 0.0000 0.0000 46.4237 0.0000 0.0000
# 5 0.0000 0.0000 0.0000 0.0000 -93.5910 0.0000
# 6 0.0000 0.0000 0.0000 0.0000 0.0000 32.3544
#
#
#
# Elastic Compliance Matrix: (Units=1/GPa)
#
#
# Indices 1 2 3 4 5 6 
#
# 1 0.007456 -0.002259 -0.002205 0.000000 0.000000 0.000000
# 2 -0.002259 0.013127 -0.003447 0.000000 0.000000 0.000000
# 3 -0.002205 -0.003447 0.008720 0.000000 0.000000 0.000000
# 4 0.000000 0.000000 0.000000 0.021541 0.000000 0.000000
# 5 0.000000 0.000000 0.000000 0.000000 -0.010685 0.000000
# 6 0.000000 0.000000 0.000000 0.000000 0.000000 0.030908
#
#
# Mechanical properties :
#
#
# Convention : Reuss Voigt Hill
#
# Bulk Modulus (GPa) = 74.17263 79.44678 76.80970
# Shear Modulus (GPa) = 54.71474 14.26571 34.49022
#
# Velocity S-wave (km/s) = 5.31433 2.71358 4.21934
# Velocity P-wave (km/s) = 8.71447 7.12925 7.96141
#
# Compressibility (1/GPa) = 0.01348206
#
# Stress axis : x y z
#
# Youngs Moduli (GPa) = 134.11217 76.17765 114.67798
#
# Poissons Ratio (x) = 0.17205 0.25286
# Poissons Ratio (y) = 0.30290 0.39533
# Poissons Ratio (z) = 0.29571 0.26261
#
# Static dielectric constant tensor:
#      x y z
#    x 1.687880 0.000000 0.000000 
#    y 0.000000 1.721460 0.000000 
#    z 0.000000 0.000000 1.733810 
# 
# From -- ./inp_files/35794.got.cif
#   From: 2010.05.17/outbox.cif.g08.bks.cpg/sg65_18_cif.got.tgz:35794.got - 2010.06.03 17:01:31.
