data_PCOD9489340
_publ_section_title
;
Structure prediction by ZEFSAII (Michael W. Deem and Ramdas Pophale) SiO2 
 PCOD9489340
Probable space group: C M M M
;
_chemical_formula_sum "Si O2"
_cell_formula_units_Z 88
_cell_length_a 7.712705
_cell_length_b 19.290773
_cell_length_c 28.986800
_cell_angle_alpha 90.000000
_cell_angle_beta 90.000000
_cell_angle_gamma 90.000000
_cell_volume 4312.773250
_symmetry_space_group_name_H-M "C M M M"
_symmetry_group_IT_number 65
_symmetry_cell_setting 'orthorhombic'
loop_
_space_group_symop_operation_xyz
x,y,z
-x,-y,z
x,-y,-z
-x,y,-z
-x,-y,-z
x,y,-z
-x,y,z
x,-y,z
1/2+x,1/2+y,z
1/2-x,1/2-y,z
1/2+x,1/2-y,-z
1/2-x,1/2+y,-z
1/2-x,1/2-y,-z
1/2+x,1/2+y,-z
1/2-x,1/2+y,z
1/2+x,1/2-y,z
loop_
_atom_site_type_symbol
_atom_site_label
_atom_site_fract_x
_atom_site_fract_y
_atom_site_fract_z
Si Si1 0.206052 0.421510 0.414084
Si Si2 0.290900 0.168758 0.500000
Si Si3 0.293479 0.329441 0.327661
Si Si4 0.791522 0.169892 0.948250
Si Si5 0.712701 0.420316 0.137979
Si Si6 0.708403 0.329320 0.223568
O O1 0.276724 0.500000 0.415023
O O2 0.274762 0.371882 0.454726
O O3 0.230762 0.383652 0.365376
O O4 0.000000 0.426910 0.421721
O O5 0.500000 0.164827 0.500000
O O6 0.250000 0.250000 0.500000
O O7 0.500000 0.334789 0.326088
O O8 0.250000 0.250000 0.340630
O O9 0.224979 0.341678 0.275629
O O10 0.750000 0.250000 0.938130
O O11 0.728055 0.120556 0.907554
O O12 0.000000 0.163420 0.949502
O O13 0.725951 0.154069 0.000000
O O14 0.500000 0.418846 0.137999
O O15 0.766030 0.500000 0.137481
O O16 0.771710 0.380819 0.184079
O O17 0.500000 0.335798 0.225271
O O18 0.750000 0.250000 0.211161
#
# Coordination Sequence:
#
# PCOD9489340 Si02
#       6
#    16   8  16  16  16  16
#     4  10  21  37  56  78 106 138 169 204 249 298
#     4  10  21  37  57  79 103 134 171 208 246 292
#     4  10  20  34  53  77 103 132 169 210 250 295
#     4   9  17  29  47  70  93 120 156 197 239 284
#     4   9  17  29  46  69  96 125 158 197 241 287
#     4   9  18  32  51  72  95 127 164 202 242 286
#
# _framework density 20.404503999999999
#
# number of rings (size 3 to 8) (size 9 to 14) (size 15 to 20)
#    0.000    2.545    0.000    1.909    0.000    5.455 
#    0.000    3.636    0.000    3.818    0.000    2.545 
#    0.000    0.000    0.000    0.000    0.000    0.000 
#
# Total GULP energy -245627.613703 kJ/mol
# GULP energy per Si atom -5582.445766 kJ/mol
# Density = 2.035806 g / cm^3
# Si number density = 20.404504 Si / 1000 Ang^3
#
#
#
# Elastic Constant Matrix: (Units=GPa)
#
#
# Indices 1 2 3 4 5 6 
#
# 1 33.5516 2.4634 4.5454 0.0000 0.0000 0.0000
# 2 2.4634 200.4934 148.8269 0.0000 0.0000 0.0000
# 3 4.5454 148.8269 163.6748 0.0000 0.0000 0.0000
# 4 0.0000 0.0000 0.0000 -6.6497 0.0000 0.0000
# 5 0.0000 0.0000 0.0000 0.0000 11.5985 0.0000
# 6 0.0000 0.0000 0.0000 0.0000 0.0000 21.4879
#
#
#
# Elastic Compliance Matrix: (Units=1/GPa)
#
#
# Indices 1 2 3 4 5 6 
#
# 1 0.029956 0.000767 -0.001530 0.000000 0.000000 0.000000
# 2 0.000767 0.015365 -0.013992 0.000000 0.000000 0.000000
# 3 -0.001530 -0.013992 0.018875 0.000000 0.000000 0.000000
# 4 0.000000 0.000000 0.000000 -0.150382 0.000000 0.000000
# 5 0.000000 0.000000 0.000000 0.000000 0.086218 0.000000
# 6 0.000000 0.000000 0.000000 0.000000 0.000000 0.046538
#
#
# Mechanical properties :
#
#
# Convention : Reuss Voigt Hill
#
# Bulk Modulus (GPa) = 28.82962 78.82125 53.82544
# Shear Modulus (GPa) = 57.05150 21.41295 39.23222
#
# Velocity S-wave (km/s) = 5.29348 3.24299 4.38964
# Velocity P-wave (km/s) = 7.17781 7.26195 7.22000
#
# Compressibility (1/GPa) = 0.03468655
#
# Stress axis : x y z
#
# Youngs Moduli (GPa) = 33.38258 65.08400 52.97988
#
# Poissons Ratio (x) = -0.04995 0.08105
# Poissons Ratio (y) = -0.02562 0.74131
# Poissons Ratio (z) = 0.05107 0.91067
#
# Static dielectric constant tensor:
#      x y z
#    x 1.759980 0.000000 0.000000 
#    y 0.000000 1.672880 0.000000 
#    z 0.000000 0.000000 1.734950 
# 
# From -- ./inp_files/76507.got.cif
#   From: 2010.05.17/outbox.cif.g08.bks.cpg/sg65_39_cif.got.tgz:76507.got - 2010.06.03 17:01:31.
