data_PCOD9489839
_publ_section_title
;
Structure prediction by ZEFSAII (Michael W. Deem and Ramdas Pophale) SiO2 
 PCOD9489839
Probable space group: C M M M
;
_chemical_formula_sum "Si O2"
_cell_formula_units_Z 88
_cell_length_a 8.235198
_cell_length_b 25.006324
_cell_length_c 23.720816
_cell_angle_alpha 90.000000
_cell_angle_beta 90.000000
_cell_angle_gamma 90.000000
_cell_volume 4884.875778
_symmetry_space_group_name_H-M "C M M M"
_symmetry_group_IT_number 65
_symmetry_cell_setting 'orthorhombic'
loop_
_space_group_symop_operation_xyz
x,y,z
-x,-y,z
x,-y,-z
-x,y,-z
-x,-y,-z
x,y,-z
-x,y,z
x,-y,z
1/2+x,1/2+y,z
1/2-x,1/2-y,z
1/2+x,1/2-y,-z
1/2-x,1/2+y,-z
1/2-x,1/2-y,-z
1/2+x,1/2+y,-z
1/2-x,1/2+y,z
1/2+x,1/2-y,z
loop_
_atom_site_type_symbol
_atom_site_label
_atom_site_fract_x
_atom_site_fract_y
_atom_site_fract_z
Si Si1 0.800192 0.616088 0.064534
Si Si2 0.306031 0.000000 0.565078
Si Si3 0.683500 0.000000 0.068015
Si Si4 0.695702 0.189726 0.833713
Si Si5 0.303669 0.688334 0.500000
Si Si6 0.694028 0.615830 0.395041
Si Si7 0.694685 0.188842 0.293272
O O1 0.740294 0.556803 0.080995
O O2 0.745968 0.655488 0.113373
O O3 0.000000 0.614409 0.063900
O O4 0.751918 0.628914 0.000000
O O5 0.253362 0.055212 0.595024
O O6 0.500000 0.000000 0.562978
O O7 0.243445 0.000000 0.500000
O O8 0.500000 0.000000 0.091798
O O9 0.669444 0.000000 0.000000
O O10 0.500000 0.186647 0.833514
O O11 0.750000 0.250000 0.842560
O O12 0.750826 0.174899 0.770459
O O13 0.500000 0.688461 0.500000
O O14 0.250000 0.750000 0.500000
O O15 0.247049 0.654766 0.554410
O O16 0.500000 0.614299 0.397735
O O17 0.744843 0.645338 0.337743
O O18 0.500000 0.189156 0.294208
O O19 0.750000 0.250000 0.306106
#
# Coordination Sequence:
#
# PCOD9489839 Si02
#       7
#    16   8   8  16   8  16  16
#     4   8  13  23  41  66  95 127 165 210 260 310
#     4  11  23  39  60  85 112 146 178 211 256 309
#     4   7  10  18  35  60  88 116 149 192 243 294
#     4   9  18  31  47  69  99 133 168 209 256 309
#     4  10  22  35  52  79 107 132 164 210 259 304
#     4  11  22  38  58  80 107 141 177 216 261 310
#     4  10  20  35  53  75 103 137 178 221 269 322
#
# _framework density 18.014787999999999
#
# number of rings (size 3 to 8) (size 9 to 14) (size 15 to 20)
#    0.000    2.545    0.909    3.000    0.000    4.364 
#    0.000    0.909    0.000    3.273    0.000    0.636 
#    0.000    2.182    0.000    0.000    0.000    0.000 
#
# Total GULP energy -245169.580459 kJ/mol
# GULP energy per Si atom -5572.035920 kJ/mol
# Density = 1.797379 g / cm^3
# Si number density = 18.014788 Si / 1000 Ang^3
#
#
#
# Elastic Constant Matrix: (Units=GPa)
#
#
# Indices 1 2 3 4 5 6 
#
# 1 22.8538 21.6631 18.7988 0.0000 0.0000 0.0000
# 2 21.6631 167.8158 126.7765 0.0000 0.0000 0.0000
# 3 18.7988 126.7765 159.0649 0.0000 0.0000 0.0000
# 4 0.0000 0.0000 0.0000 6.6738 0.0000 0.0000
# 5 0.0000 0.0000 0.0000 0.0000 -0.2961 0.0000
# 6 0.0000 0.0000 0.0000 0.0000 0.0000 25.1364
#
#
#
# Elastic Compliance Matrix: (Units=1/GPa)
#
#
# Indices 1 2 3 4 5 6 
#
# 1 0.050091 -0.005011 -0.001926 0.000000 0.000000 0.000000
# 2 -0.005011 0.015477 -0.011743 0.000000 0.000000 0.000000
# 3 -0.001926 -0.011743 0.015874 0.000000 0.000000 0.000000
# 4 0.000000 0.000000 0.000000 0.149840 0.000000 0.000000
# 5 0.000000 0.000000 0.000000 0.000000 -3.376797 0.000000
# 6 0.000000 0.000000 0.000000 0.000000 0.000000 0.039783
#
#
# Mechanical properties :
#
#
# Convention : Reuss Voigt Hill
#
# Bulk Modulus (GPa) = 22.68545 76.02347 49.35446
# Shear Modulus (GPa) = -1.63737 18.46922 8.41592
#
# Velocity S-wave (km/s) = -0.95440 3.20539 2.16375
# Velocity P-wave (km/s) = 3.37721 7.48275 5.80504
#
# Compressibility (1/GPa) = 0.04408112
#
# Stress axis : x y z
#
# Youngs Moduli (GPa) = 19.96374 64.61063 62.99633
#
# Poissons Ratio (x) = 0.32378 0.12132
# Poissons Ratio (y) = 0.10004 0.73979
# Poissons Ratio (z) = 0.03845 0.75875
#
# Static dielectric constant tensor:
#      x y z
#    x 1.637520 0.000000 0.000000 
#    y 0.000000 1.609490 0.000000 
#    z 0.000000 0.000000 1.628360 
# 
# From -- ./inp_files/67670.got.cif
#   From: 2010.05.17/outbox.cif.g08.bks.cpg/sg65_34_cif.got.tgz:67670.got - 2010.06.03 17:01:31.
