data_PCOD9489322
_publ_section_title
;
Structure prediction by ZEFSAII (Michael W. Deem and Ramdas Pophale) SiO2 
 PCOD9489322
Probable space group: C M M M
;
_chemical_formula_sum "Si O2"
_cell_formula_units_Z 120
_cell_length_a 8.729210
_cell_length_b 29.281182
_cell_length_c 27.362785
_cell_angle_alpha 90.000000
_cell_angle_beta 90.000000
_cell_angle_gamma 90.000000
_cell_volume 6993.971263
_symmetry_space_group_name_H-M "C M M M"
_symmetry_group_IT_number 65
_symmetry_cell_setting 'orthorhombic'
loop_
_space_group_symop_operation_xyz
x,y,z
-x,-y,z
x,-y,-z
-x,y,-z
-x,-y,-z
x,y,-z
-x,y,z
x,-y,z
1/2+x,1/2+y,z
1/2-x,1/2-y,z
1/2+x,1/2-y,-z
1/2-x,1/2+y,-z
1/2-x,1/2-y,-z
1/2+x,1/2+y,-z
1/2-x,1/2+y,z
1/2+x,1/2-y,z
loop_
_atom_site_type_symbol
_atom_site_label
_atom_site_fract_x
_atom_site_fract_y
_atom_site_fract_z
Si Si1 0.316698 0.890470 0.095373
Si Si2 0.828976 0.447136 0.441740
Si Si3 0.186565 0.552408 0.000000
Si Si4 0.186551 0.947872 0.296379
Si Si5 0.176915 0.878184 0.622192
Si Si6 0.683106 0.298857 0.057034
Si Si7 0.316687 0.199122 0.444263
Si Si8 0.315773 0.447544 0.817047
O O1 0.500000 0.888229 0.094170
O O2 0.264719 0.921009 0.048820
O O3 0.248507 0.840370 0.088017
O O4 0.261675 0.913920 0.144940
O O5 0.825260 0.444533 0.500000
O O6 0.814478 0.500000 0.427975
O O7 0.697869 0.417018 0.418808
O O8 0.000000 0.430877 0.426251
O O9 0.238945 0.500000 0.000000
O O10 0.000000 0.551965 0.000000
O O11 0.239514 0.906026 0.330541
O O12 0.226846 0.940210 0.239675
O O13 0.000000 0.948380 0.299718
O O14 0.236509 0.000000 0.309829
O O15 0.258727 0.834591 0.598172
O O16 0.000000 0.866632 0.630891
O O17 0.500000 0.297877 0.059482
O O18 0.750000 0.250000 0.072005
O O19 0.728344 0.306211 0.000000
O O20 0.272882 0.183538 0.500000
O O21 0.500000 0.200881 0.442881
O O22 0.250000 0.250000 0.438168
O O23 0.500000 0.443296 0.820279
O O24 0.275523 0.500000 0.829497
#
# Coordination Sequence:
#
# PCOD9489322 Si02
#       8
#    16  16   8  16  16  16  16  16
#     4  11  20  32  51  75 106 139 173 211 260 313
#     4   9  18  31  44  62  95 136 169 198 240 292
#     4   9  18  30  44  67 102 139 168 199 246 303
#     4   8  16  32  52  74 102 136 173 213 257 303
#     4  11  20  30  50  77 101 128 166 209 254 303
#     4  10  20  34  53  76 104 135 172 211 251 299
#     4  10  21  37  55  75 102 135 170 209 255 308
#     4   9  18  34  54  74 100 137 178 218 260 305
#
# _framework density 17.157634999999999
#
# number of rings (size 3 to 8) (size 9 to 14) (size 15 to 20)
#    0.000    2.333    0.667    4.000    0.000    4.800 
#    0.000    2.000    0.000    4.000    0.000    3.733 
#    0.000    0.000    0.000    0.000    0.000    0.000 
#
# Total GULP energy -334546.317657 kJ/mol
# GULP energy per Si atom -5575.771961 kJ/mol
# Density = 1.711858 g / cm^3
# Si number density = 17.157635 Si / 1000 Ang^3
#
#
#
# Elastic Constant Matrix: (Units=GPa)
#
#
# Indices 1 2 3 4 5 6 
#
# 1 32.5587 38.1981 28.8035 0.0000 0.0000 0.0000
# 2 38.1981 132.0957 75.7177 0.0000 0.0000 0.0000
# 3 28.8035 75.7177 100.3555 0.0000 0.0000 0.0000
# 4 0.0000 0.0000 0.0000 32.6756 0.0000 0.0000
# 5 0.0000 0.0000 0.0000 0.0000 18.4778 0.0000
# 6 0.0000 0.0000 0.0000 0.0000 0.0000 26.4490
#
#
#
# Elastic Compliance Matrix: (Units=1/GPa)
#
#
# Indices 1 2 3 4 5 6 
#
# 1 0.048368 -0.010624 -0.005867 0.000000 0.000000 0.000000
# 2 -0.010624 0.015673 -0.008776 0.000000 0.000000 0.000000
# 3 -0.005867 -0.008776 0.018270 0.000000 0.000000 0.000000
# 4 0.000000 0.000000 0.000000 0.030604 0.000000 0.000000
# 5 0.000000 0.000000 0.000000 0.000000 0.054119 0.000000
# 6 0.000000 0.000000 0.000000 0.000000 0.000000 0.037809
#
#
# Mechanical properties :
#
#
# Convention : Reuss Voigt Hill
#
# Bulk Modulus (GPa) = 31.46864 61.16094 46.31479
# Shear Modulus (GPa) = 18.79938 23.67318 21.23628
#
# Velocity S-wave (km/s) = 3.31371 3.71852 3.52194
# Velocity P-wave (km/s) = 5.74644 7.35938 6.60235
#
# Compressibility (1/GPa) = 0.03177767
#
# Stress axis : x y z
#
# Youngs Moduli (GPa) = 20.67498 63.80556 54.73550
#
# Poissons Ratio (x) = 0.67785 0.32112
# Poissons Ratio (y) = 0.21964 0.48035
# Poissons Ratio (z) = 0.12129 0.55994
#
# Static dielectric constant tensor:
#      x y z
#    x 1.595240 0.000000 0.000000 
#    y 0.000000 1.572450 0.000000 
#    z 0.000000 0.000000 1.582910 
# 
# From -- ./inp_files/73881.got.cif
#   From: 2010.05.17/outbox.cif.g08.bks.cpg/sg65_37_cif.got.tgz:73881.got - 2010.06.03 17:01:31.
