data_PCOD9489884
_publ_section_title
;
Structure prediction by ZEFSAII (Michael W. Deem and Ramdas Pophale) SiO2 
 PCOD9489884
Probable space group: C M M M
;
_chemical_formula_sum "Si O2"
_cell_formula_units_Z 88
_cell_length_a 24.061303
_cell_length_b 7.705195
_cell_length_c 24.385894
_cell_angle_alpha 90.000000
_cell_angle_beta 90.000000
_cell_angle_gamma 90.000000
_cell_volume 4521.072360
_symmetry_space_group_name_H-M "C M M M"
_symmetry_group_IT_number 65
_symmetry_cell_setting 'orthorhombic'
loop_
_space_group_symop_operation_xyz
x,y,z
-x,-y,z
x,-y,-z
-x,y,-z
-x,-y,-z
x,y,-z
-x,y,z
x,-y,z
1/2+x,1/2+y,z
1/2-x,1/2-y,z
1/2+x,1/2-y,-z
1/2-x,1/2+y,-z
1/2-x,1/2-y,-z
1/2+x,1/2+y,-z
1/2-x,1/2+y,z
1/2+x,1/2-y,z
loop_
_atom_site_type_symbol
_atom_site_label
_atom_site_fract_x
_atom_site_fract_y
_atom_site_fract_z
Si Si1 0.315582 0.208324 0.000000
Si Si2 0.500000 0.293126 0.263395
Si Si3 0.185297 0.709006 0.665563
Si Si4 0.815468 0.709401 0.119549
Si Si5 0.621530 0.207272 0.773278
Si Si6 0.000000 0.791767 0.610565
Si Si7 0.381127 0.206687 0.561005
O O1 0.250000 0.250000 0.000000
O O2 0.335302 0.273865 0.059458
O O3 0.322779 0.000000 0.000000
O O4 0.500000 0.500000 0.266615
O O5 0.443769 0.238256 0.233312
O O6 0.500000 0.226133 0.326417
O O7 0.178974 0.500000 0.665155
O O8 0.250000 0.750000 0.669239
O O9 0.152361 0.776003 0.718840
O O10 0.157934 0.777064 0.609431
O O11 0.819946 0.500000 0.118443
O O12 0.750000 0.750000 0.126495
O O13 0.850738 0.775946 0.171007
O O14 0.630325 0.000000 0.773813
O O15 0.055465 0.733140 0.579806
O O16 0.000000 0.000000 0.611711
O O17 0.371925 0.278795 0.500000
O O18 0.371432 0.000000 0.558172
#
# Coordination Sequence:
#
# PCOD9489884 Si02
#       7
#     8   8  16  16  16   8  16
#     4   8  14  26  44  71 106 137 169 206 242 288
#     4  11  23  36  54  78 101 128 164 211 260 302
#     4  10  21  35  52  74 101 132 166 204 245 294
#     4   9  17  29  49  77 107 139 171 205 248 295
#     4  10  20  35  54  75 100 134 171 206 250 301
#     4  11  22  36  55  80 103 125 161 211 262 301
#     4  10  21  37  56  76 100 134 170 202 245 302
#
# _framework density 19.464407999999999
#
# number of rings (size 3 to 8) (size 9 to 14) (size 15 to 20)
#    0.000    2.182    1.818    1.364    0.000    4.727 
#    0.000    0.000    0.000    0.545    0.000    3.818 
#    0.000    0.000    0.000    0.000    0.000    0.000 
#
# Total GULP energy -245542.824406 kJ/mol
# GULP energy per Si atom -5580.518737 kJ/mol
# Density = 1.942011 g / cm^3
# Si number density = 19.464408 Si / 1000 Ang^3
#
#
#
# Elastic Constant Matrix: (Units=GPa)
#
#
# Indices 1 2 3 4 5 6 
#
# 1 128.1941 -12.4693 100.1845 0.0000 0.0000 0.0000
# 2 -12.4693 31.5748 13.5806 0.0000 0.0000 0.0000
# 3 100.1845 13.5806 233.1273 0.0000 0.0000 0.0000
# 4 0.0000 0.0000 0.0000 3.8356 0.0000 0.0000
# 5 0.0000 0.0000 0.0000 0.0000 -91.3110 0.0000
# 6 0.0000 0.0000 0.0000 0.0000 0.0000 22.4061
#
#
#
# Elastic Compliance Matrix: (Units=1/GPa)
#
#
# Indices 1 2 3 4 5 6 
#
# 1 0.013467 0.008008 -0.006254 0.000000 0.000000 0.000000
# 2 0.008008 0.037247 -0.005611 0.000000 0.000000 0.000000
# 3 -0.006254 -0.005611 0.007304 0.000000 0.000000 0.000000
# 4 0.000000 0.000000 0.000000 0.260713 0.000000 0.000000
# 5 0.000000 0.000000 0.000000 0.000000 -0.010952 0.000000
# 6 0.000000 0.000000 0.000000 0.000000 0.000000 0.044631
#
#
# Mechanical properties :
#
#
# Convention : Reuss Voigt Hill
#
# Bulk Modulus (GPa) = 19.87921 66.16531 43.02226
# Shear Modulus (GPa) = 13.26640 6.42618 9.84629
#
# Velocity S-wave (km/s) = 2.61353 1.81898 2.25158
# Velocity P-wave (km/s) = 4.39803 6.20309 5.37685
#
# Compressibility (1/GPa) = 0.05030380
#
# Stress axis : x y z
#
# Youngs Moduli (GPa) = 74.25545 26.84802 136.91300
#
# Poissons Ratio (x) = -0.21500 0.85623
# Poissons Ratio (y) = -0.59465 0.76824
# Poissons Ratio (z) = 0.46438 0.15065
#
# Static dielectric constant tensor:
#      x y z
#    x 1.632400 0.000000 0.000000 
#    y 0.000000 1.609070 0.000000 
#    z 0.000000 0.000000 1.735950 
# 
# From -- ./inp_files/65245.got.cif
#   From: 2010.05.17/outbox.cif.g08.bks.cpg/sg65_33_cif.got.tgz:65245.got - 2010.06.03 17:01:31.
