data_PCOD9489496
_publ_section_title
;
Structure prediction by ZEFSAII (Michael W. Deem and Ramdas Pophale) SiO2 
 PCOD9489496
Probable space group: C M M M
;
_chemical_formula_sum "Si O2"
_cell_formula_units_Z 104
_cell_length_a 24.697507
_cell_length_b 29.020486
_cell_length_c 9.003098
_cell_angle_alpha 90.000000
_cell_angle_beta 90.000000
_cell_angle_gamma 90.000000
_cell_volume 6452.823346
_symmetry_space_group_name_H-M "C M M M"
_symmetry_group_IT_number 65
_symmetry_cell_setting 'orthorhombic'
loop_
_space_group_symop_operation_xyz
x,y,z
-x,-y,z
x,-y,-z
-x,y,-z
-x,-y,-z
x,y,-z
-x,y,z
x,-y,z
1/2+x,1/2+y,z
1/2-x,1/2-y,z
1/2+x,1/2-y,-z
1/2-x,1/2+y,-z
1/2-x,1/2-y,-z
1/2+x,1/2+y,-z
1/2-x,1/2+y,z
1/2+x,1/2-y,z
loop_
_atom_site_type_symbol
_atom_site_label
_atom_site_fract_x
_atom_site_fract_y
_atom_site_fract_z
Si Si1 0.562395 0.500000 0.681360
Si Si2 0.642235 0.053769 0.177351
Si Si3 0.436050 0.127676 0.677197
Si Si4 0.063690 0.181302 0.321131
Si Si5 0.434261 0.776871 0.170766
Si Si6 0.128019 0.090547 0.681065
Si Si7 0.742851 0.554606 0.323540
O O1 0.500000 0.500000 0.728224
O O2 0.562915 0.500000 0.500000
O O3 0.593361 0.546125 0.729273
O O4 0.598794 0.087107 0.251697
O O5 0.702254 0.065131 0.236890
O O6 0.632041 0.000000 0.215643
O O7 0.640337 0.058315 0.000000
O O8 0.430152 0.127841 0.500000
O O9 0.500000 0.121821 0.711890
O O10 0.417977 0.177032 0.742654
O O11 0.067055 0.185380 0.500000
O O12 0.081967 0.229186 0.248243
O O13 0.099449 0.137795 0.272437
O O14 0.000000 0.173389 0.285283
O O15 0.500000 0.776610 0.172793
O O16 0.416549 0.778700 0.000000
O O17 0.127576 0.090120 0.500000
O O18 0.190251 0.083096 0.725606
O O19 0.751532 0.561938 0.500000
O O20 0.730533 0.500000 0.304584
#
# Coordination Sequence:
#
# PCOD9489496 Si02
#       7
#     8  16  16  16  16  16  16
#     4   9  14  20  34  62  99 131 160 201 254 301
#     4  10  21  35  51  73 101 131 162 194 230 277
#     4  10  20  34  54  79 103 126 153 187 232 284
#     4   9  16  26  42  67  98 129 163 204 248 292
#     4   9  17  30  48  69  95 128 163 196 233 283
#     4   9  15  24  40  65  95 128 165 207 251 291
#     4   9  16  29  48  67  91 126 170 211 244 282
#
# _framework density 16.116976000000001
#
# number of rings (size 3 to 8) (size 9 to 14) (size 15 to 20)
#    0.000    2.692    0.769    1.846    0.000    5.846 
#    0.000    2.308    0.000    0.923    0.000    6.462 
#    0.000    3.692    0.000    0.000    0.000    0.000 
#
# Total GULP energy -289833.590458 kJ/mol
# GULP energy per Si atom -5573.722893 kJ/mol
# Density = 1.608029 g / cm^3
# Si number density = 16.116976 Si / 1000 Ang^3
#
#
#
# Elastic Constant Matrix: (Units=GPa)
#
#
# Indices 1 2 3 4 5 6 
#
# 1 93.9449 90.8899 46.7121 0.0000 0.0000 0.0000
# 2 90.8899 152.4859 56.8625 0.0000 0.0000 0.0000
# 3 46.7121 56.8625 42.1740 0.0000 0.0000 0.0000
# 4 0.0000 0.0000 0.0000 15.3843 0.0000 0.0000
# 5 0.0000 0.0000 0.0000 0.0000 10.5003 0.0000
# 6 0.0000 0.0000 0.0000 0.0000 0.0000 9.4335
#
#
#
# Elastic Compliance Matrix: (Units=1/GPa)
#
#
# Indices 1 2 3 4 5 6 
#
# 1 0.031315 -0.011527 -0.019143 0.000000 0.000000 0.000000
# 2 -0.011527 0.017432 -0.010736 0.000000 0.000000 0.000000
# 3 -0.019143 -0.010736 0.059390 0.000000 0.000000 0.000000
# 4 0.000000 0.000000 0.000000 0.065001 0.000000 0.000000
# 5 0.000000 0.000000 0.000000 0.000000 0.095235 0.000000
# 6 0.000000 0.000000 0.000000 0.000000 0.000000 0.106005
#
#
# Mechanical properties :
#
#
# Convention : Reuss Voigt Hill
#
# Bulk Modulus (GPa) = 39.48754 75.28155 57.38455
# Shear Modulus (GPa) = 10.73804 13.33964 12.03884
#
# Velocity S-wave (km/s) = 2.58400 2.88006 2.73603
# Velocity P-wave (km/s) = 5.78416 7.60727 6.75748
#
# Compressibility (1/GPa) = 0.02532444
#
# Stress axis : x y z
#
# Youngs Moduli (GPa) = 31.93329 57.36467 16.83784
#
# Poissons Ratio (x) = 0.66124 0.32233
# Poissons Ratio (y) = 0.36810 0.18078
# Poissons Ratio (z) = 0.61131 0.61589
#
# Static dielectric constant tensor:
#      x y z
#    x 1.524030 0.000000 0.000000 
#    y 0.000000 1.527170 0.000000 
#    z 0.000000 0.000000 1.537570 
# 
# From -- ./inp_files/14706.got.cif
#   From: 2010.05.17/outbox.cif.g08.bks.cpg/sg65_8_cif.got.tgz:14706.got - 2010.06.03 17:01:31.
