data_PCOD9489365
_publ_section_title
;
Structure prediction by ZEFSAII (Michael W. Deem and Ramdas Pophale) SiO2 
 PCOD9489365
Probable space group: C M M M
;
_chemical_formula_sum "Si O2"
_cell_formula_units_Z 96
_cell_length_a 28.535108
_cell_length_b 21.581653
_cell_length_c 8.932515
_cell_angle_alpha 90.000000
_cell_angle_beta 90.000000
_cell_angle_gamma 90.000000
_cell_volume 5500.953581
_symmetry_space_group_name_H-M "C M M M"
_symmetry_group_IT_number 65
_symmetry_cell_setting 'orthorhombic'
loop_
_space_group_symop_operation_xyz
x,y,z
-x,-y,z
x,-y,-z
-x,y,-z
-x,-y,-z
x,y,-z
-x,y,z
x,-y,z
1/2+x,1/2+y,z
1/2-x,1/2-y,z
1/2+x,1/2-y,-z
1/2-x,1/2+y,-z
1/2-x,1/2-y,-z
1/2+x,1/2+y,-z
1/2-x,1/2+y,z
1/2+x,1/2-y,z
loop_
_atom_site_type_symbol
_atom_site_label
_atom_site_fract_x
_atom_site_fract_y
_atom_site_fract_z
Si Si1 0.444912 0.862423 0.681946
Si Si2 0.862558 0.716472 0.821806
Si Si3 0.000000 0.075600 0.672225
Si Si4 0.056781 0.500000 0.671780
Si Si5 0.095298 0.074327 0.170761
Si Si6 0.729738 0.820502 0.327115
Si Si7 0.330128 0.654044 0.321195
O O1 0.441742 0.861373 0.500000
O O2 0.500000 0.851847 0.718988
O O3 0.409123 0.813395 0.751276
O O4 0.431035 0.932361 0.735361
O O5 0.816711 0.677165 0.771108
O O6 0.851501 0.784557 0.755460
O O7 0.865995 0.719134 0.000000
O O8 0.953560 0.096157 0.757961
O O9 0.000000 0.095901 0.500000
O O10 0.000000 0.000000 0.672045
O O11 0.073820 0.500000 0.500000
O O12 0.000000 0.500000 0.666536
O O13 0.137323 0.098292 0.271357
O O14 0.094272 0.000000 0.169127
O O15 0.100172 0.096277 0.000000
O O16 0.717975 0.835068 0.500000
O O17 0.750000 0.750000 0.324904
O O18 0.775957 0.857142 0.276535
O O19 0.330316 0.663414 0.500000
#
# Coordination Sequence:
#
# PCOD9489365 Si02
#       7
#    16  16   8   8  16  16  16
#     4   9  17  32  54  77 103 135 172 211 251 299
#     4  11  21  32  50  77 108 138 167 207 259 311
#     4   9  17  31  51  73  97 131 175 212 243 294
#     4   7  12  26  51  77  95 123 169 211 243 284
#     4  10  20  34  53  77 106 137 169 212 265 314
#     4   8  16  32  53  74  96 126 168 212 249 296
#     4  10  20  35  55  77 100 131 175 219 256 303
#
# _framework density 17.451519000000001
#
# number of rings (size 3 to 8) (size 9 to 14) (size 15 to 20)
#    0.000    2.667    0.000    4.750    0.000    6.000 
#    1.500    0.417    1.833    1.500    0.000    0.000 
#    0.000    0.000    0.000    0.000    0.000    0.000 
#
# Total GULP energy -267379.122560 kJ/mol
# GULP energy per Si atom -5570.398387 kJ/mol
# Density = 1.741180 g / cm^3
# Si number density = 17.451519 Si / 1000 Ang^3
#
#
#
# Elastic Constant Matrix: (Units=GPa)
#
#
# Indices 1 2 3 4 5 6 
#
# 1 103.3532 19.8661 45.8192 0.0000 0.0000 0.0000
# 2 19.8661 21.2594 21.1055 0.0000 0.0000 0.0000
# 3 45.8192 21.1055 75.2407 0.0000 0.0000 0.0000
# 4 0.0000 0.0000 0.0000 16.8371 0.0000 0.0000
# 5 0.0000 0.0000 0.0000 0.0000 0.8214 0.0000
# 6 0.0000 0.0000 0.0000 0.0000 0.0000 13.6585
#
#
#
# Elastic Compliance Matrix: (Units=1/GPa)
#
#
# Indices 1 2 3 4 5 6 
#
# 1 0.013842 -0.006329 -0.006654 0.000000 0.000000 0.000000
# 2 -0.006329 0.068086 -0.015244 0.000000 0.000000 0.000000
# 3 -0.006654 -0.015244 0.021619 0.000000 0.000000 0.000000
# 4 0.000000 0.000000 0.000000 0.059393 0.000000 0.000000
# 5 0.000000 0.000000 0.000000 0.000000 1.217399 0.000000
# 6 0.000000 0.000000 0.000000 0.000000 0.000000 0.073215
#
#
# Mechanical properties :
#
#
# Convention : Reuss Voigt Hill
#
# Bulk Modulus (GPa) = 21.23491 41.49276 31.36383
# Shear Modulus (GPa) = 3.27717 13.80090 8.53904
#
# Velocity S-wave (km/s) = 1.37184 2.81519 2.21441
# Velocity P-wave (km/s) = 3.83453 5.86470 4.95471
#
# Compressibility (1/GPa) = 0.04709227
#
# Stress axis : x y z
#
# Youngs Moduli (GPa) = 72.24392 14.68726 46.25572
#
# Poissons Ratio (x) = 0.09295 0.30779
# Poissons Ratio (y) = 0.45723 0.70514
# Poissons Ratio (z) = 0.48071 0.22390
#
# Static dielectric constant tensor:
#      x y z
#    x 1.601480 0.000000 0.000000 
#    y 0.000000 1.624010 0.000000 
#    z 0.000000 0.000000 1.586520 
# 
# From -- ./inp_files/14382.got.cif
#   From: 2010.05.17/outbox.cif.g08.bks.cpg/sg65_8_cif.got.tgz:14382.got - 2010.06.03 17:01:31.
