data_PCOD9489111
_publ_section_title
;
Structure prediction by ZEFSAII (Michael W. Deem and Ramdas Pophale) SiO2 
 PCOD9489111
Probable space group: C M M M
;
_chemical_formula_sum "Si O2"
_cell_formula_units_Z 96
_cell_length_a 26.606709
_cell_length_b 8.055677
_cell_length_c 19.289410
_cell_angle_alpha 90.000000
_cell_angle_beta 90.000000
_cell_angle_gamma 90.000000
_cell_volume 4134.396729
_symmetry_space_group_name_H-M "C M M M"
_symmetry_group_IT_number 65
_symmetry_cell_setting 'orthorhombic'
loop_
_space_group_symop_operation_xyz
x,y,z
-x,-y,z
x,-y,-z
-x,y,-z
-x,-y,-z
x,y,-z
-x,y,z
x,-y,z
1/2+x,1/2+y,z
1/2-x,1/2-y,z
1/2+x,1/2-y,-z
1/2-x,1/2+y,-z
1/2-x,1/2-y,-z
1/2+x,1/2+y,-z
1/2-x,1/2+y,z
1/2+x,1/2-y,z
loop_
_atom_site_type_symbol
_atom_site_label
_atom_site_fract_x
_atom_site_fract_y
_atom_site_fract_z
Si Si1 0.946267 0.699274 0.375684
Si Si2 0.412139 0.297442 0.774498
Si Si3 0.837965 0.701219 0.575579
Si Si4 0.695476 0.694414 0.275982
Si Si5 0.586650 0.692251 0.922817
Si Si6 0.696283 0.184830 0.917176
O O1 0.946300 0.500000 0.382797
O O2 0.940790 0.741759 0.294331
O O3 0.895892 0.757425 0.413679
O O4 0.000000 0.762991 0.401410
O O5 0.412721 0.500000 0.776038
O O6 0.354591 0.236261 0.760850
O O7 0.432590 0.238169 0.849310
O O8 0.819547 0.754966 0.500000
O O9 0.836646 0.500000 0.577982
O O10 0.809467 0.766306 0.642521
O O11 0.692775 0.500000 0.265419
O O12 0.750000 0.750000 0.252903
O O13 0.571196 0.500000 0.926508
O O14 0.647108 0.701589 0.910671
O O15 0.576454 0.765949 0.000000
O O16 0.750000 0.250000 0.892213
O O17 0.686067 0.000000 0.889890
O O18 0.701938 0.170322 0.000000
#
# Coordination Sequence:
#
# PCOD9489111 Si02
#       6
#    16  16  16  16  16  16
#     4   9  18  33  54  79 104 131 163 199 243 295
#     4   9  19  34  51  73  99 129 167 209 252 299
#     4   9  18  33  53  78 107 135 164 201 244 290
#     4  10  20  34  51  71  99 136 176 212 245 286
#     4   9  17  30  47  66  90 120 156 202 255 304
#     4   9  16  25  37  55  81 113 149 188 232 284
#
# _framework density 23.219833000000001
#
# number of rings (size 3 to 8) (size 9 to 14) (size 15 to 20)
#    0.000    2.833    0.000    1.000    0.000    5.333 
#    0.000    3.333    0.000    0.500    0.000    8.167 
#    0.000    0.000    0.000    0.000    0.000    0.000 
#
# Total GULP energy -267716.690883 kJ/mol
# GULP energy per Si atom -5577.431060 kJ/mol
# Density = 2.316698 g / cm^3
# Si number density = 23.219833 Si / 1000 Ang^3
#
#
#
# Elastic Constant Matrix: (Units=GPa)
#
#
# Indices 1 2 3 4 5 6 
#
# 1 59.3964 1.6066 -3.7295 0.0000 0.0000 0.0000
# 2 1.6066 22.5830 -7.1243 0.0000 0.0000 0.0000
# 3 -3.7295 -7.1243 114.5115 0.0000 0.0000 0.0000
# 4 0.0000 0.0000 0.0000 15.5037 0.0000 0.0000
# 5 0.0000 0.0000 0.0000 0.0000 -12.7057 0.0000
# 6 0.0000 0.0000 0.0000 0.0000 0.0000 8.5180
#
#
#
# Elastic Compliance Matrix: (Units=1/GPa)
#
#
# Indices 1 2 3 4 5 6 
#
# 1 0.016895 -0.001049 0.000485 0.000000 0.000000 0.000000
# 2 -0.001049 0.045233 0.002780 0.000000 0.000000 0.000000
# 3 0.000485 0.002780 0.008922 0.000000 0.000000 0.000000
# 4 0.000000 0.000000 0.000000 0.064501 0.000000 0.000000
# 5 0.000000 0.000000 0.000000 0.000000 -0.078705 0.000000
# 6 0.000000 0.000000 0.000000 0.000000 0.000000 0.117399
#
#
# Mechanical properties :
#
#
# Convention : Reuss Voigt Hill
#
# Bulk Modulus (GPa) = 13.24835 19.77739 16.51287
# Shear Modulus (GPa) = 25.64465 15.97905 20.81185
#
# Velocity S-wave (km/s) = 3.32690 2.62613 2.99707
# Velocity P-wave (km/s) = 4.52501 4.21087 4.37076
#
# Compressibility (1/GPa) = 0.07548110
#
# Stress axis : x y z
#
# Youngs Moduli (GPa) = 59.18958 22.10789 112.08877
#
# Poissons Ratio (x) = 0.02319 -0.05436
# Poissons Ratio (y) = 0.06209 -0.31161
# Poissons Ratio (z) = -0.02871 -0.06146
#
# Static dielectric constant tensor:
#      x y z
#    x 1.896020 0.000000 0.000000 
#    y 0.000000 1.848530 0.000000 
#    z 0.000000 0.000000 1.908190 
# 
# From -- ./inp_files/60145.got.cif
#   From: 2010.05.17/outbox.cif.g08.bks.cpg/sg65_31_cif.got.tgz:60145.got - 2010.06.03 17:01:31.
