data_PCOD9489953
_publ_section_title
;
Structure prediction by ZEFSAII (Michael W. Deem and Ramdas Pophale) SiO2 
 PCOD9489953
Probable space group: C M M M
;
_chemical_formula_sum "Si O2"
_cell_formula_units_Z 88
_cell_length_a 15.509103
_cell_length_b 7.572566
_cell_length_c 34.025121
_cell_angle_alpha 90.000000
_cell_angle_beta 90.000000
_cell_angle_gamma 90.000000
_cell_volume 3996.036310
_symmetry_space_group_name_H-M "C M M M"
_symmetry_group_IT_number 65
_symmetry_cell_setting 'orthorhombic'
loop_
_space_group_symop_operation_xyz
x,y,z
-x,-y,z
x,-y,-z
-x,y,-z
-x,-y,-z
x,y,-z
-x,y,z
x,-y,z
1/2+x,1/2+y,z
1/2-x,1/2-y,z
1/2+x,1/2-y,-z
1/2-x,1/2+y,-z
1/2-x,1/2-y,-z
1/2+x,1/2+y,-z
1/2-x,1/2+y,z
1/2+x,1/2-y,z
loop_
_atom_site_type_symbol
_atom_site_label
_atom_site_fract_x
_atom_site_fract_y
_atom_site_fract_z
Si Si1 0.500000 0.783268 0.234260
Si Si2 0.500000 0.783589 0.855836
Si Si3 0.399423 0.711563 0.542020
Si Si4 0.844978 0.288965 0.288830
Si Si5 0.098839 0.710842 0.372959
Si Si6 0.648361 0.787780 0.085924
Si Si7 0.147712 0.288685 0.000000
O O1 0.500000 0.725246 0.189242
O O2 0.417412 0.723771 0.259158
O O3 0.500000 0.000000 0.233769
O O4 0.415203 0.725859 0.879894
O O5 0.500000 0.000000 0.855406
O O6 0.362732 0.775564 0.500000
O O7 0.500000 0.772757 0.543187
O O8 0.400841 0.500000 0.540525
O O9 0.360484 0.756168 0.584290
O O10 0.855428 0.500000 0.290790
O O11 0.750000 0.250000 0.274375
O O12 0.856525 0.220077 0.333513
O O13 0.094212 0.500000 0.369561
O O14 0.000000 0.779307 0.373221
O O15 0.750000 0.750000 0.091720
O O16 0.641059 0.000000 0.084682
O O17 0.618600 0.721356 0.042650
O O18 0.250000 0.250000 0.000000
O O19 0.133208 0.500000 0.000000
#
# Coordination Sequence:
#
# PCOD9489953 Si02
#       7
#     8   8  16  16  16  16   8
#     4   9  18  36  56  73 101 135 164 201 255 312
#     4   9  18  31  51  76  98 129 171 208 249 306
#     4   8  14  24  39  64  98 131 160 192 235 284
#     4  10  20  35  55  77 100 129 164 204 251 301
#     4   9  16  28  47  69  94 126 162 198 237 285
#     4   9  17  30  48  72 101 134 172 210 251 297
#     4   8  14  25  43  67  98 132 166 209 251 289
#
# _framework density 22.021823000000001
#
# number of rings (size 3 to 8) (size 9 to 14) (size 15 to 20)
#    0.000    3.091    0.909    0.545    0.000    2.182 
#    0.000    4.545    0.000    1.636    0.000    6.364 
#    0.000    0.000    0.000    0.000    0.000    0.000 
#
# Total GULP energy -245314.502535 kJ/mol
# GULP energy per Si atom -5575.329603 kJ/mol
# Density = 2.197170 g / cm^3
# Si number density = 22.021823 Si / 1000 Ang^3
#
#
#
# Elastic Constant Matrix: (Units=GPa)
#
#
# Indices 1 2 3 4 5 6 
#
# 1 119.4337 -2.3153 101.1099 0.0000 0.0000 0.0000
# 2 -2.3153 49.2098 11.9340 0.0000 0.0000 0.0000
# 3 101.1099 11.9340 246.3204 0.0000 0.0000 0.0000
# 4 0.0000 0.0000 0.0000 -32.9939 0.0000 0.0000
# 5 0.0000 0.0000 0.0000 0.0000 73.0051 0.0000
# 6 0.0000 0.0000 0.0000 0.0000 0.0000 11.0954
#
#
#
# Elastic Compliance Matrix: (Units=1/GPa)
#
#
# Indices 1 2 3 4 5 6 
#
# 1 0.013011 0.001930 -0.005434 0.000000 0.000000 0.000000
# 2 0.001930 0.020849 -0.001802 0.000000 0.000000 0.000000
# 3 -0.005434 -0.001802 0.006378 0.000000 0.000000 0.000000
# 4 0.000000 0.000000 0.000000 -0.030309 0.000000 0.000000
# 5 0.000000 0.000000 0.000000 0.000000 0.013698 0.000000
# 6 0.000000 0.000000 0.000000 0.000000 0.000000 0.090128
#
#
# Mechanical properties :
#
#
# Convention : Reuss Voigt Hill
#
# Bulk Modulus (GPa) = 33.75590 70.71344 52.23467
# Shear Modulus (GPa) = 37.24618 30.50366 33.87492
#
# Velocity S-wave (km/s) = 4.11704 3.72581 3.92630
# Velocity P-wave (km/s) = 6.16131 7.11963 6.65773
#
# Compressibility (1/GPa) = 0.02962445
#
# Stress axis : x y z
#
# Youngs Moduli (GPa) = 76.85993 47.96381 156.79662
#
# Poissons Ratio (x) = -0.09257 0.85206
# Poissons Ratio (y) = -0.14834 0.28260
# Poissons Ratio (z) = 0.41767 0.08645
#
# Static dielectric constant tensor:
#      x y z
#    x 1.797560 0.000000 0.000000 
#    y 0.000000 1.842100 0.000000 
#    z 0.000000 0.000000 1.840450 
# 
# From -- ./inp_files/74784.got.cif
#   From: 2010.05.17/outbox.cif.g08.bks.cpg/sg65_38_cif.got.tgz:74784.got - 2010.06.03 17:01:31.
