data_PCOD9489109
_publ_section_title
;
Structure prediction by ZEFSAII (Michael W. Deem and Ramdas Pophale) SiO2 
 PCOD9489109
Probable space group: C M M M
;
_chemical_formula_sum "Si O2"
_cell_formula_units_Z 88
_cell_length_a 28.923658
_cell_length_b 19.788563
_cell_length_c 7.675653
_cell_angle_alpha 90.000000
_cell_angle_beta 90.000000
_cell_angle_gamma 90.000000
_cell_volume 4393.218548
_symmetry_space_group_name_H-M "C M M M"
_symmetry_group_IT_number 65
_symmetry_cell_setting 'orthorhombic'
loop_
_space_group_symop_operation_xyz
x,y,z
-x,-y,z
x,-y,-z
-x,y,-z
-x,-y,-z
x,y,-z
-x,y,z
x,-y,z
1/2+x,1/2+y,z
1/2-x,1/2-y,z
1/2+x,1/2-y,-z
1/2-x,1/2+y,-z
1/2-x,1/2-y,-z
1/2+x,1/2+y,-z
1/2-x,1/2+y,z
1/2+x,1/2-y,z
loop_
_atom_site_type_symbol
_atom_site_label
_atom_site_fract_x
_atom_site_fract_y
_atom_site_fract_z
Si Si1 0.089763 0.662898 0.286596
Si Si2 0.175406 0.423208 0.705084
Si Si3 0.000000 0.577223 0.712323
Si Si4 0.552692 0.694415 0.290961
Si Si5 0.777350 0.918138 0.202722
Si Si6 0.377485 0.422958 0.209936
O O1 0.090874 0.664476 0.500000
O O2 0.136865 0.627654 0.224244
O O3 0.046011 0.617004 0.235372
O O4 0.079661 0.739029 0.226791
O O5 0.165749 0.429449 0.500000
O O6 0.172515 0.500000 0.779017
O O7 0.228082 0.397809 0.720818
O O8 0.000000 0.500000 0.772129
O O9 0.000000 0.576356 0.500000
O O10 0.549807 0.700591 0.500000
O O11 0.500000 0.692703 0.224313
O O12 0.581431 0.627354 0.252453
O O13 0.827276 0.896705 0.275724
O O14 0.778855 0.000000 0.215568
O O15 0.775438 0.899615 0.000000
O O16 0.385189 0.500000 0.271873
O O17 0.373440 0.426254 0.000000
#
# Coordination Sequence:
#
# PCOD9489109 Si02
#       6
#    16  16   8  16  16  16
#     4   9  16  28  43  66 101 134 162 196 239 282
#     4   9  16  26  45  74 102 127 161 203 239 275
#     4   9  14  22  42  68  94 129 170 204 233 271
#     4  10  20  34  51  71  99 133 162 194 242 294
#     4   8  15  30  50  70  94 124 156 194 244 294
#     4   9  19  36  56  75  94 120 159 204 245 291
#
# _framework density 20.030874000000001
#
# number of rings (size 3 to 8) (size 9 to 14) (size 15 to 20)
#    0.000    3.000    0.909    1.636    0.000    4.000 
#    0.000    5.455    0.000    5.455    0.000    0.000 
#    0.000    4.364    0.000    0.000    0.000    0.000 
#
# Total GULP energy -245224.083181 kJ/mol
# GULP energy per Si atom -5573.274618 kJ/mol
# Density = 1.998528 g / cm^3
# Si number density = 20.030874 Si / 1000 Ang^3
#
#
#
# Elastic Constant Matrix: (Units=GPa)
#
#
# Indices 1 2 3 4 5 6 
#
# 1 168.8899 90.8884 7.2156 0.0000 0.0000 0.0000
# 2 90.8884 116.4640 2.5838 0.0000 0.0000 0.0000
# 3 7.2156 2.5838 29.8327 0.0000 0.0000 0.0000
# 4 0.0000 0.0000 0.0000 -9.5336 0.0000 0.0000
# 5 0.0000 0.0000 0.0000 0.0000 32.3677 0.0000
# 6 0.0000 0.0000 0.0000 0.0000 0.0000 -48.9438
#
#
#
# Elastic Compliance Matrix: (Units=1/GPa)
#
#
# Indices 1 2 3 4 5 6 
#
# 1 0.010304 -0.008001 -0.001799 0.000000 0.000000 0.000000
# 2 -0.008001 0.014816 0.000652 0.000000 0.000000 0.000000
# 3 -0.001799 0.000652 0.033899 0.000000 0.000000 0.000000
# 4 0.000000 0.000000 0.000000 -0.104893 0.000000 0.000000
# 5 0.000000 0.000000 0.000000 0.000000 0.030895 0.000000
# 6 0.000000 0.000000 0.000000 0.000000 0.000000 -0.020432
#
#
# Mechanical properties :
#
#
# Convention : Reuss Voigt Hill
#
# Bulk Modulus (GPa) = 24.55668 57.39579 40.97624
# Shear Modulus (GPa) = -1412.40701 9.07797 -701.66452
#
# Velocity S-wave (km/s) = -26.58281 2.13116 -18.73638
# Velocity P-wave (km/s) = 30.49440 5.89675 21.15581
#
# Compressibility (1/GPa) = 0.04072211
#
# Stress axis : x y z
#
# Youngs Moduli (GPa) = 97.05279 67.49504 29.49941
#
# Poissons Ratio (x) = 0.54003 0.05307
# Poissons Ratio (y) = 0.77653 -0.01923
# Poissons Ratio (z) = 0.17461 -0.04401
#
# Static dielectric constant tensor:
#      x y z
#    x 1.716510 0.000000 0.000000 
#    y 0.000000 1.688240 0.000000 
#    z 0.000000 0.000000 1.778240 
# 
# From -- ./inp_files/18303.got.cif
#   From: 2010.05.17/outbox.cif.g08.bks.cpg/sg65_10_cif.got.tgz:18303.got - 2010.06.03 17:01:31.
