data_PCOD9489920
_publ_section_title
;
Structure prediction by ZEFSAII (Michael W. Deem and Ramdas Pophale) SiO2 
 PCOD9489920
Probable space group: C M M M
;
_chemical_formula_sum "Si O2"
_cell_formula_units_Z 116
_cell_length_a 31.864102
_cell_length_b 9.172363
_cell_length_c 21.809463
_cell_angle_alpha 90.000000
_cell_angle_beta 90.000000
_cell_angle_gamma 90.000000
_cell_volume 6374.232345
_symmetry_space_group_name_H-M "C M M M"
_symmetry_group_IT_number 65
_symmetry_cell_setting 'orthorhombic'
loop_
_space_group_symop_operation_xyz
x,y,z
-x,-y,z
x,-y,-z
-x,y,-z
-x,-y,-z
x,y,-z
-x,y,z
x,-y,z
1/2+x,1/2+y,z
1/2-x,1/2-y,z
1/2+x,1/2-y,-z
1/2-x,1/2+y,-z
1/2-x,1/2-y,-z
1/2+x,1/2+y,-z
1/2-x,1/2+y,z
1/2+x,1/2-y,z
loop_
_atom_site_type_symbol
_atom_site_label
_atom_site_fract_x
_atom_site_fract_y
_atom_site_fract_z
Si Si1 0.204697 0.326714 0.068065
Si Si2 0.127689 0.338059 0.373233
Si Si3 0.131496 0.500000 0.500000
Si Si4 0.171872 0.167708 0.183696
Si Si5 0.206646 0.175306 0.314889
Si Si6 0.952806 0.824028 0.677751
Si Si7 0.050652 0.330174 0.933096
Si Si8 0.074279 0.167980 0.810142
O O1 0.209675 0.500000 0.072796
O O2 0.250000 0.250000 0.071796
O O3 0.178413 0.266933 0.124712
O O4 0.187006 0.293862 0.000000
O O5 0.128358 0.500000 0.342419
O O6 0.131050 0.375337 0.445062
O O7 0.167013 0.244231 0.349901
O O8 0.084290 0.257252 0.357556
O O9 0.199642 0.207022 0.242470
O O10 0.123655 0.173616 0.204671
O O11 0.181351 0.000000 0.166460
O O12 0.250000 0.250000 0.335026
O O13 0.207765 0.000000 0.322222
O O14 0.949374 0.779610 0.749436
O O15 0.000000 0.792587 0.655336
O O16 0.946390 0.000000 0.675547
O O17 0.062773 0.500000 0.930587
O O18 0.066652 0.251335 0.872937
O O19 0.000000 0.323387 0.932052
O O20 0.064446 0.271560 0.000000
O O21 0.062040 0.000000 0.820179
#
# Coordination Sequence:
#
# PCOD9489920 Si02
#       8
#    16  16   4  16  16  16  16  16
#     4  10  21  36  53  74 106 148 197 250 306 366
#     4  10  21  42  66  92 128 165 203 245 297 354
#     4   8  24  44  69  94 134 168 200 252 289 350
#     4  10  21  36  55  82 115 150 198 250 305 362
#     4  11  22  39  65  95 127 164 206 257 307 362
#     4  10  20  37  63  94 128 165 207 257 309 365
#     4   9  19  35  51  70 104 149 198 252 309 369
#     4  10  20  35  54  81 114 151 196 254 306 360
#
# _framework density 18.198270000000001
#
# number of rings (size 3 to 8) (size 9 to 14) (size 15 to 20)
#    0.414    1.655    1.379    2.483    0.000    6.069 
#    0.000    5.862    0.000    0.828    0.000    0.000 
#    0.000    0.000    0.000    0.000    0.000    0.000 
#
# Total GULP energy -322904.168343 kJ/mol
# GULP energy per Si atom -5567.313247 kJ/mol
# Density = 1.815685 g / cm^3
# Si number density = 18.198270 Si / 1000 Ang^3
#
#
#
# Elastic Constant Matrix: (Units=GPa)
#
#
# Indices 1 2 3 4 5 6 
#
# 1 97.8879 48.3745 44.1118 0.0000 0.0000 0.0000
# 2 48.3745 68.9383 53.0405 0.0000 0.0000 0.0000
# 3 44.1118 53.0405 106.4731 0.0000 0.0000 0.0000
# 4 0.0000 0.0000 0.0000 34.3014 0.0000 0.0000
# 5 0.0000 0.0000 0.0000 0.0000 0.7153 0.0000
# 6 0.0000 0.0000 0.0000 0.0000 0.0000 27.1839
#
#
#
# Elastic Compliance Matrix: (Units=1/GPa)
#
#
# Indices 1 2 3 4 5 6 
#
# 1 0.015818 -0.009822 -0.001660 0.000000 0.000000 0.000000
# 2 -0.009822 0.029620 -0.010686 0.000000 0.000000 0.000000
# 3 -0.001660 -0.010686 0.015403 0.000000 0.000000 0.000000
# 4 0.000000 0.000000 0.000000 0.029153 0.000000 0.000000
# 5 0.000000 0.000000 0.000000 0.000000 1.397993 0.000000
# 6 0.000000 0.000000 0.000000 0.000000 0.000000 0.036787
#
#
# Mechanical properties :
#
#
# Convention : Reuss Voigt Hill
#
# Bulk Modulus (GPa) = 60.59174 62.70587 61.64880
# Shear Modulus (GPa) = 3.17538 20.95829 12.06684
#
# Velocity S-wave (km/s) = 1.32237 3.39730 2.57782
# Velocity P-wave (km/s) = 5.97488 7.06546 6.54293
#
# Compressibility (1/GPa) = 0.01650390
#
# Stress axis : x y z
#
# Youngs Moduli (GPa) = 63.21962 33.76139 64.92118
#
# Poissons Ratio (x) = 0.33160 0.10780
# Poissons Ratio (y) = 0.62094 0.69375
# Poissons Ratio (z) = 0.10497 0.36078
#
# Static dielectric constant tensor:
#      x y z
#    x 1.643830 0.000000 0.000000 
#    y 0.000000 1.623270 0.000000 
#    z 0.000000 0.000000 1.623710 
# 
# From -- ./inp_files/72255.got.cif
#   From: 2010.05.17/outbox.cif.g08.bks.cpg/sg65_37_cif.got.tgz:72255.got - 2010.06.03 17:01:31.
