data_PCOD9489170
_publ_section_title
;
Structure prediction by ZEFSAII (Michael W. Deem and Ramdas Pophale) SiO2 
 PCOD9489170
Probable space group: C M M M
;
_chemical_formula_sum "Si O2"
_cell_formula_units_Z 48
_cell_length_a 9.426388
_cell_length_b 36.341582
_cell_length_c 7.466772
_cell_angle_alpha 90.000000
_cell_angle_beta 90.000000
_cell_angle_gamma 90.000000
_cell_volume 2557.890982
_symmetry_space_group_name_H-M "C M M M"
_symmetry_group_IT_number 65
_symmetry_cell_setting 'orthorhombic'
loop_
_space_group_symop_operation_xyz
x,y,z
-x,-y,z
x,-y,-z
-x,y,-z
-x,-y,-z
x,y,-z
-x,y,z
x,-y,z
1/2+x,1/2+y,z
1/2-x,1/2-y,z
1/2+x,1/2-y,-z
1/2-x,1/2+y,-z
1/2-x,1/2-y,-z
1/2+x,1/2+y,-z
1/2-x,1/2+y,z
1/2+x,1/2-y,z
loop_
_atom_site_type_symbol
_atom_site_label
_atom_site_fract_x
_atom_site_fract_y
_atom_site_fract_z
Si Si1 0.837352 0.500000 0.781015
Si Si2 0.163486 0.928725 0.781349
Si Si3 0.172529 0.152427 0.204448
Si Si4 0.328428 0.711303 0.500000
O O1 0.756747 0.463104 0.723174
O O2 0.000000 0.500000 0.724808
O O3 0.834512 0.500000 0.000000
O O4 0.216429 0.888122 0.728054
O O5 0.000000 0.933514 0.724819
O O6 0.162807 0.928152 0.000000
O O7 0.211866 0.186160 0.329801
O O8 0.000000 0.150787 0.203079
O O9 0.220282 0.157446 0.000000
O O10 0.500000 0.716111 0.500000
O O11 0.250000 0.750000 0.500000
#
# Coordination Sequence:
#
# PCOD9489170 Si02
#       4
#     8  16  16   8
#     4   9  15  21  33  60  95 122 147 185 228 267
#     4   8  13  23  40  60  83 116 156 190 220 260
#     4   8  15  29  49  71  94 122 157 195 232 271
#     4  10  20  34  52  73  96 121 151 190 237 286
#
# _framework density 18.765460000000001
#
# number of rings (size 3 to 8) (size 9 to 14) (size 15 to 20)
#    0.000    3.500    0.000    2.500    0.000    2.667 
#    0.000    1.667    0.000    3.000    0.000    7.000 
#    0.000    0.000    0.000    0.000    0.000    0.000 
#
# Total GULP energy -133782.707460 kJ/mol
# GULP energy per Si atom -5574.279478 kJ/mol
# Density = 1.872275 g / cm^3
# Si number density = 18.765460 Si / 1000 Ang^3
#
#
#
# Elastic Constant Matrix: (Units=GPa)
#
#
# Indices 1 2 3 4 5 6 
#
# 1 60.2808 80.4688 23.1076 0.0000 0.0000 0.0000
# 2 80.4688 240.8917 68.0268 0.0000 0.0000 0.0000
# 3 23.1076 68.0268 79.2070 0.0000 0.0000 0.0000
# 4 0.0000 0.0000 0.0000 50.3959 0.0000 0.0000
# 5 0.0000 0.0000 0.0000 0.0000 2.9910 0.0000
# 6 0.0000 0.0000 0.0000 0.0000 0.0000 31.3920
#
#
#
# Elastic Compliance Matrix: (Units=1/GPa)
#
#
# Indices 1 2 3 4 5 6 
#
# 1 0.029942 -0.009948 -0.000191 0.000000 0.000000 0.000000
# 2 -0.009948 0.008786 -0.004643 0.000000 0.000000 0.000000
# 3 -0.000191 -0.004643 0.016669 0.000000 0.000000 0.000000
# 4 0.000000 0.000000 0.000000 0.019843 0.000000 0.000000
# 5 0.000000 0.000000 0.000000 0.000000 0.334340 0.000000
# 6 0.000000 0.000000 0.000000 0.000000 0.000000 0.031855
#
#
# Mechanical properties :
#
#
# Convention : Reuss Voigt Hill
#
# Bulk Modulus (GPa) = 38.71308 80.39842 59.55575
# Shear Modulus (GPa) = 10.42514 30.87418 20.64966
#
# Velocity S-wave (km/s) = 2.35957 4.06059 3.32084
# Velocity P-wave (km/s) = 5.30077 8.05738 6.81981
#
# Compressibility (1/GPa) = 0.02583106
#
# Stress axis : x y z
#
# Youngs Moduli (GPa) = 33.39810 113.82363 59.99209
#
# Poissons Ratio (x) = 1.13230 0.01149
# Poissons Ratio (y) = 0.33224 0.27856
# Poissons Ratio (z) = 0.00639 0.52851
#
# Static dielectric constant tensor:
#      x y z
#    x 1.620020 0.000000 0.000000 
#    y 0.000000 1.634480 0.000000 
#    z 0.000000 0.000000 1.716780 
# 
# From -- ./inp_files/3054.got.cif
#   From: 2010.05.17/outbox.cif.g08.bks.cpg/sg65_2_cif.got.tgz:3054.got - 2010.06.03 17:01:31.
