data_PCOD9489621
_publ_section_title
;
Structure prediction by ZEFSAII (Michael W. Deem and Ramdas Pophale) SiO2 
 PCOD9489621
Probable space group: C M M M
;
_chemical_formula_sum "Si O2"
_cell_formula_units_Z 84
_cell_length_a 14.663712
_cell_length_b 15.716302
_cell_length_c 15.741910
_cell_angle_alpha 90.000000
_cell_angle_beta 90.000000
_cell_angle_gamma 90.000000
_cell_volume 3627.869972
_symmetry_space_group_name_H-M "C M M M"
_symmetry_group_IT_number 65
_symmetry_cell_setting 'orthorhombic'
loop_
_space_group_symop_operation_xyz
x,y,z
-x,-y,z
x,-y,-z
-x,y,-z
-x,-y,-z
x,y,-z
-x,y,z
x,-y,z
1/2+x,1/2+y,z
1/2-x,1/2-y,z
1/2+x,1/2-y,-z
1/2-x,1/2+y,-z
1/2-x,1/2-y,-z
1/2+x,1/2+y,-z
1/2-x,1/2+y,z
1/2+x,1/2-y,z
loop_
_atom_site_type_symbol
_atom_site_label
_atom_site_fract_x
_atom_site_fract_y
_atom_site_fract_z
Si Si1 0.178516 0.000000 0.500000
Si Si2 0.348256 0.905901 0.778171
Si Si3 0.895192 0.142690 0.620115
Si Si4 0.633126 0.595280 0.813214
Si Si5 0.889727 0.339866 0.406201
Si Si6 0.860673 0.260393 0.095163
O O1 0.166665 0.074496 0.426614
O O2 0.242989 0.907994 0.806507
O O3 0.353646 0.885076 0.678049
O O4 0.388851 0.829515 0.834316
O O5 0.387419 0.000000 0.792914
O O6 0.895238 0.126199 0.720074
O O7 0.867494 0.239583 0.600908
O O8 0.000000 0.130302 0.591106
O O9 0.601520 0.500000 0.830815
O O10 0.605332 0.667112 0.879454
O O11 0.861464 0.372775 0.500000
O O12 0.000000 0.346442 0.402892
O O13 0.750000 0.250000 0.097185
O O14 0.886392 0.285768 0.000000
#
# Coordination Sequence:
#
# PCOD9489621 Si02
#       6
#     4  16  16  16  16  16
#     4  12  21  32  52  82 112 142 193 230 255 320
#     4  10  21  37  55  80 111 140 183 230 272 320
#     4  11  20  32  52  78 108 144 181 221 265 316
#     4  10  20  34  54  82 113 141 175 218 273 329
#     4  10  21  37  56  78 106 144 188 226 269 324
#     4   9  18  34  57  81 110 144 178 221 275 329
#
# _framework density 23.154083
#
# number of rings (size 3 to 8) (size 9 to 14) (size 15 to 20)
#    0.000    1.905    3.810    0.857    0.000    1.524 
#    1.714    5.714    0.000    2.286    0.000    2.667 
#    0.000    0.000    0.000    0.000    0.000    0.000 
#
# Total GULP energy -234399.616495 kJ/mol
# GULP energy per Si atom -5580.943250 kJ/mol
# Density = 2.310138 g / cm^3
# Si number density = 23.154083 Si / 1000 Ang^3
#
#
#
# Elastic Constant Matrix: (Units=GPa)
#
#
# Indices 1 2 3 4 5 6 
#
# 1 73.9795 10.5056 -3.1248 0.0000 0.0000 0.0000
# 2 10.5056 122.4681 73.8899 0.0000 0.0000 0.0000
# 3 -3.1248 73.8899 139.7343 0.0000 0.0000 0.0000
# 4 0.0000 0.0000 0.0000 22.9302 0.0000 0.0000
# 5 0.0000 0.0000 0.0000 0.0000 -182.4827 0.0000
# 6 0.0000 0.0000 0.0000 0.0000 0.0000 -18.8666
#
#
#
# Elastic Compliance Matrix: (Units=1/GPa)
#
#
# Indices 1 2 3 4 5 6 
#
# 1 0.013862 -0.002021 0.001379 0.000000 0.000000 0.000000
# 2 -0.002021 0.012286 -0.006542 0.000000 0.000000 0.000000
# 3 0.001379 -0.006542 0.010646 0.000000 0.000000 0.000000
# 4 0.000000 0.000000 0.000000 0.043611 0.000000 0.000000
# 5 0.000000 0.000000 0.000000 0.000000 -0.005480 0.000000
# 6 0.000000 0.000000 0.000000 0.000000 0.000000 -0.053004
#
#
# Mechanical properties :
#
#
# Convention : Reuss Voigt Hill
#
# Bulk Modulus (GPa) = 44.58998 55.41370 50.00184
# Shear Modulus (GPa) = 114.24651 -18.68974 47.77838
#
# Velocity S-wave (km/s) = 7.03200 -2.84419 4.54750
# Velocity P-wave (km/s) = 9.23210 3.63299 7.01535
#
# Compressibility (1/GPa) = 0.02242656
#
# Stress axis : x y z
#
# Youngs Moduli (GPa) = 72.13714 81.39599 93.92812
#
# Poissons Ratio (x) = 0.16450 -0.12949
# Poissons Ratio (y) = 0.14579 0.61445
# Poissons Ratio (z) = -0.09945 0.53247
#
# Static dielectric constant tensor:
#      x y z
#    x 1.963990 0.000000 0.000000 
#    y 0.000000 1.833440 0.000000 
#    z 0.000000 0.000000 1.812210 
# 
# From -- ./inp_files/43987.got.cif
#   From: 2010.05.17/outbox.cif.g08.bks.cpg/sg65_22_cif.got.tgz:43987.got - 2010.06.03 17:01:31.
