data_PCOD9489713
_publ_section_title
;
Structure prediction by ZEFSAII (Michael W. Deem and Ramdas Pophale) SiO2 
 PCOD9489713
Probable space group: C M M M
;
_chemical_formula_sum "Si O2"
_cell_formula_units_Z 66
_cell_length_a 14.231991
_cell_length_b 28.525781
_cell_length_c 9.458629
_cell_angle_alpha 90.000000
_cell_angle_beta 90.000000
_cell_angle_gamma 90.000000
_cell_volume 3840.001512
_symmetry_space_group_name_H-M "C M M M"
_symmetry_group_IT_number 65
_symmetry_cell_setting 'orthorhombic'
loop_
_space_group_symop_operation_xyz
x,y,z
-x,-y,z
x,-y,-z
-x,y,-z
-x,-y,-z
x,y,-z
-x,y,z
x,-y,z
1/2+x,1/2+y,z
1/2-x,1/2-y,z
1/2+x,1/2-y,-z
1/2-x,1/2+y,-z
1/2-x,1/2-y,-z
1/2+x,1/2+y,-z
1/2-x,1/2+y,z
1/2+x,1/2-y,z
loop_
_atom_site_type_symbol
_atom_site_label
_atom_site_fract_x
_atom_site_fract_y
_atom_site_fract_z
Si Si1 0.886496 0.944148 0.000000
Si Si2 0.811954 0.297508 0.330226
Si Si3 0.500000 0.232887 0.171272
Si Si4 0.300934 0.550577 0.500000
Si Si5 0.815935 0.881827 0.259704
Si Si6 0.500000 0.500000 0.500000
Si Si7 0.500000 0.326128 0.342434
O O1 0.848768 0.913805 0.869689
O O2 0.000000 0.943475 0.000000
O O3 0.860352 0.000000 0.000000
O O4 0.823091 0.307658 0.500000
O O5 0.750000 0.250000 0.322479
O O6 0.756593 0.339081 0.250194
O O7 0.908586 0.288617 0.247717
O O8 0.500000 0.287364 0.219980
O O9 0.500000 0.228462 0.000000
O O10 0.255347 0.500000 0.500000
O O11 0.274570 0.580757 0.633109
O O12 0.414336 0.539751 0.500000
O O13 0.908380 0.857732 0.325498
O O14 0.500000 0.303926 0.500000
#
# Coordination Sequence:
#
# PCOD9489713 Si02
#       7
#     8  16   8   8  16   2   8
#     4  11  26  38  55  89 137 173 205 252 309 373
#     4  11  23  42  64  91 123 162 211 258 302 361
#     4  12  28  41  61  91 127 166 205 254 307 369
#     4  10  20  34  55  86 117 158 213 245 295 360
#     4  12  22  37  60  87 123 174 208 246 308 362
#     4   8  20  28  56  82 132 146 196 266 280 356
#     4  12  21  36  58  90 127 165 210 249 296 356
#
# _framework density 17.187493
#
# number of rings (size 3 to 8) (size 9 to 14) (size 15 to 20)
#    0.364    0.364    6.061    2.545    3.394    0.485 
#    0.000    0.000    0.000    0.000    0.000    5.091 
#    0.000    0.000    0.000    0.000    0.000    0.000 
#
# Total GULP energy -183722.954334 kJ/mol
# GULP energy per Si atom -5567.362253 kJ/mol
# Density = 1.714837 g / cm^3
# Si number density = 17.187493 Si / 1000 Ang^3
#
#
#
# Elastic Constant Matrix: (Units=GPa)
#
#
# Indices 1 2 3 4 5 6 
#
# 1 90.2073 44.2262 38.2810 0.0000 0.0000 0.0000
# 2 44.2262 135.8326 46.4822 0.0000 0.0000 0.0000
# 3 38.2810 46.4822 116.1308 0.0000 0.0000 0.0000
# 4 0.0000 0.0000 0.0000 36.7274 0.0000 0.0000
# 5 0.0000 0.0000 0.0000 0.0000 19.0523 0.0000
# 6 0.0000 0.0000 0.0000 0.0000 0.0000 29.5538
#
#
#
# Elastic Compliance Matrix: (Units=1/GPa)
#
#
# Indices 1 2 3 4 5 6 
#
# 1 0.014192 -0.003499 -0.003278 0.000000 0.000000 0.000000
# 2 -0.003499 0.009393 -0.002606 0.000000 0.000000 0.000000
# 3 -0.003278 -0.002606 0.010735 0.000000 0.000000 0.000000
# 4 0.000000 0.000000 0.000000 0.027228 0.000000 0.000000
# 5 0.000000 0.000000 0.000000 0.000000 0.052487 0.000000
# 6 0.000000 0.000000 0.000000 0.000000 0.000000 0.033837
#
#
# Mechanical properties :
#
#
# Convention : Reuss Voigt Hill
#
# Bulk Modulus (GPa) = 64.29356 66.68328 65.48842
# Shear Modulus (GPa) = 29.09989 31.27878 30.18933
#
# Velocity S-wave (km/s) = 4.11918 4.27061 4.19557
# Velocity P-wave (km/s) = 7.75318 7.94979 7.85210
#
# Compressibility (1/GPa) = 0.01555366
#
# Stress axis : x y z
#
# Youngs Moduli (GPa) = 70.46183 106.46020 93.15703
#
# Poissons Ratio (x) = 0.37253 0.30533
# Poissons Ratio (y) = 0.24656 0.24279
# Poissons Ratio (z) = 0.23095 0.27746
#
# Static dielectric constant tensor:
#      x y z
#    x 1.566120 0.000000 0.000000 
#    y 0.000000 1.586000 0.000000 
#    z 0.000000 0.000000 1.435890 
# 
# From -- ./inp_files/7172.got.cif
#   From: 2010.05.17/outbox.cif.g08.bks.cpg/sg65_4_cif.got.tgz:7172.got - 2010.06.03 17:01:31.
