data_PCOD9489186
_publ_section_title
;
Structure prediction by ZEFSAII (Michael W. Deem and Ramdas Pophale) SiO2 
 PCOD9489186
Probable space group: C M M M
;
_chemical_formula_sum "Si O2"
_cell_formula_units_Z 80
_cell_length_a 9.304590
_cell_length_b 26.859682
_cell_length_c 14.947713
_cell_angle_alpha 90.000000
_cell_angle_beta 90.000000
_cell_angle_gamma 90.000000
_cell_volume 3735.707448
_symmetry_space_group_name_H-M "C M M M"
_symmetry_group_IT_number 65
_symmetry_cell_setting 'orthorhombic'
loop_
_space_group_symop_operation_xyz
x,y,z
-x,-y,z
x,-y,-z
-x,y,-z
-x,-y,-z
x,y,-z
-x,y,z
x,-y,z
1/2+x,1/2+y,z
1/2-x,1/2-y,z
1/2+x,1/2-y,-z
1/2-x,1/2+y,-z
1/2-x,1/2-y,-z
1/2+x,1/2+y,-z
1/2-x,1/2+y,z
1/2+x,1/2-y,z
loop_
_atom_site_type_symbol
_atom_site_label
_atom_site_fract_x
_atom_site_fract_y
_atom_site_fract_z
Si Si1 0.662498 0.107028 0.393979
Si Si2 0.835962 0.500000 0.143154
Si Si3 0.833888 0.699799 0.890456
Si Si4 0.337149 0.701339 0.609708
Si Si5 0.663481 0.000000 0.644517
Si Si6 0.836632 0.101499 0.106677
O O1 0.649003 0.115216 0.500000
O O2 0.500000 0.106966 0.355464
O O3 0.757541 0.151758 0.358764
O O4 0.729716 0.052472 0.382353
O O5 0.846114 0.500000 0.249745
O O6 0.749902 0.449912 0.119148
O O7 0.000000 0.500000 0.107383
O O8 0.750000 0.750000 0.863769
O O9 0.751630 0.649696 0.860577
O O10 0.000000 0.700176 0.860963
O O11 0.835577 0.699417 0.000000
O O12 0.339854 0.700772 0.500000
O O13 0.500000 0.703495 0.640925
O O14 0.250000 0.750000 0.636389
O O15 0.500000 0.000000 0.605751
O O16 0.000000 0.098677 0.143020
O O17 0.848791 0.108269 0.000000
#
# Coordination Sequence:
#
# PCOD9489186 Si02
#       6
#    16   8  16  16   8  16
#     4   9  16  29  51  75  98 127 163 200 238 284
#     4  11  22  35  51  71  98 131 166 206 252 299
#     4   9  16  27  46  74 105 133 161 196 241 291
#     4   9  16  26  42  68 100 129 158 195 240 287
#     4   9  19  34  51  72  98 129 164 202 244 291
#     4  10  20  34  52  74 100 130 166 207 247 290
#
# _framework density 21.414952
#
# number of rings (size 3 to 8) (size 9 to 14) (size 15 to 20)
#    0.000    2.600    0.000    2.700    0.000    8.400 
#    0.000    2.500    0.000    3.600    0.000    5.600 
#    0.000    0.000    0.000    0.000    0.000    0.000 
#
# Total GULP energy -223302.988913 kJ/mol
# GULP energy per Si atom -5582.574723 kJ/mol
# Density = 2.136621 g / cm^3
# Si number density = 21.414952 Si / 1000 Ang^3
#
#
#
# Elastic Constant Matrix: (Units=GPa)
#
#
# Indices 1 2 3 4 5 6 
#
# 1 194.6708 142.0116 6.8795 0.0000 0.0000 0.0000
# 2 142.0116 257.7160 -4.3124 0.0000 0.0000 0.0000
# 3 6.8795 -4.3124 36.7566 0.0000 0.0000 0.0000
# 4 0.0000 0.0000 0.0000 -91.6118 0.0000 0.0000
# 5 0.0000 0.0000 0.0000 0.0000 4.4301 0.0000
# 6 0.0000 0.0000 0.0000 0.0000 0.0000 38.5543
#
#
#
# Elastic Compliance Matrix: (Units=1/GPa)
#
#
# Indices 1 2 3 4 5 6 
#
# 1 0.008766 -0.004867 -0.002212 0.000000 0.000000 0.000000
# 2 -0.004867 0.006590 0.001684 0.000000 0.000000 0.000000
# 3 -0.002212 0.001684 0.027818 0.000000 0.000000 0.000000
# 4 0.000000 0.000000 0.000000 -0.010916 0.000000 0.000000
# 5 0.000000 0.000000 0.000000 0.000000 0.225730 0.000000
# 6 0.000000 0.000000 0.000000 0.000000 0.000000 0.025937
#
#
# Mechanical properties :
#
#
# Convention : Reuss Voigt Hill
#
# Bulk Modulus (GPa) = 30.87920 86.47786 58.67853
# Shear Modulus (GPa) = 16.36608 13.24549 14.80578
#
# Velocity S-wave (km/s) = 2.76748 2.48970 2.63226
# Velocity P-wave (km/s) = 4.96616 6.98101 6.05793
#
# Compressibility (1/GPa) = 0.03238426
#
# Stress axis : x y z
#
# Youngs Moduli (GPa) = 114.08150 151.73452 35.94854
#
# Poissons Ratio (x) = 0.73853 0.07951
# Poissons Ratio (y) = 0.55526 -0.06054
# Poissons Ratio (z) = 0.25231 -0.25555
#
# Static dielectric constant tensor:
#      x y z
#    x 1.766150 0.000000 0.000000 
#    y 0.000000 1.760410 0.000000 
#    z 0.000000 0.000000 1.789780 
# 
# From -- ./inp_files/59690.got.cif
#   From: 2010.05.17/outbox.cif.g08.bks.cpg/sg65_30_cif.got.tgz:59690.got - 2010.06.03 17:01:31.
