data_PCOD9489869
_publ_section_title
;
Structure prediction by ZEFSAII (Michael W. Deem and Ramdas Pophale) SiO2 
 PCOD9489869
Probable space group: C M M M
;
_chemical_formula_sum "Si O2"
_cell_formula_units_Z 104
_cell_length_a 24.543960
_cell_length_b 29.057365
_cell_length_c 8.964555
_cell_angle_alpha 90.000000
_cell_angle_beta 90.000000
_cell_angle_gamma 90.000000
_cell_volume 6393.366474
_symmetry_space_group_name_H-M "C M M M"
_symmetry_group_IT_number 65
_symmetry_cell_setting 'orthorhombic'
loop_
_space_group_symop_operation_xyz
x,y,z
-x,-y,z
x,-y,-z
-x,y,-z
-x,-y,-z
x,y,-z
-x,y,z
x,-y,z
1/2+x,1/2+y,z
1/2-x,1/2-y,z
1/2+x,1/2-y,-z
1/2-x,1/2+y,-z
1/2-x,1/2-y,-z
1/2+x,1/2+y,-z
1/2-x,1/2+y,z
1/2+x,1/2-y,z
loop_
_atom_site_type_symbol
_atom_site_label
_atom_site_fract_x
_atom_site_fract_y
_atom_site_fract_z
Si Si1 0.852451 0.446048 0.821829
Si Si2 0.934791 0.000000 0.323643
Si Si3 0.566150 0.772961 0.327796
Si Si4 0.063956 0.624613 0.680558
Si Si5 0.235792 0.054934 0.676647
Si Si6 0.563027 0.321356 0.179082
Si Si7 0.626118 0.413388 0.820303
O O1 0.863488 0.500000 0.789278
O O2 0.898947 0.413836 0.754512
O O3 0.794340 0.434449 0.747770
O O4 0.849125 0.440775 0.000000
O O5 0.909174 0.044959 0.247454
O O6 0.921300 0.000000 0.500000
O O7 0.000000 0.000000 0.307227
O O8 0.582821 0.768370 0.500000
O O9 0.500000 0.773726 0.324584
O O10 0.582297 0.823755 0.272927
O O11 0.583280 0.727714 0.239330
O O12 0.067921 0.622638 0.500000
O O13 0.000000 0.618822 0.718462
O O14 0.236067 0.064086 0.500000
O O15 0.186803 0.081038 0.757221
O O16 0.226314 0.000000 0.697471
O O17 0.500000 0.327897 0.228724
O O18 0.598965 0.364953 0.224473
O O19 0.562718 0.319693 0.000000
O O20 0.626183 0.416712 0.000000
#
# Coordination Sequence:
#
# PCOD9489869 Si02
#       7
#    16   8  16  16  16  16  16
#     4  10  21  35  52  76 105 135 169 206 247 296
#     4  11  23  35  47  69 101 135 172 213 258 307
#     4   8  15  29  49  72  98 130 167 205 244 292
#     4   9  18  33  53  78 107 137 168 201 245 299
#     4  10  20  35  54  73  96 128 172 215 252 300
#     4   9  18  31  47  71 101 132 167 205 250 304
#     4  11  21  33  51  72  99 133 169 212 259 306
#
# _framework density 16.266862
#
# number of rings (size 3 to 8) (size 9 to 14) (size 15 to 20)
#    0.000    2.385    0.769    3.000    0.000    5.231 
#    0.000    4.615    0.000    0.923    0.000    6.462 
#    0.000    0.000    0.000    0.000    0.000    0.000 
#
# Total GULP energy -289994.951450 kJ/mol
# GULP energy per Si atom -5576.825989 kJ/mol
# Density = 1.622984 g / cm^3
# Si number density = 16.266862 Si / 1000 Ang^3
#
#
#
# Elastic Constant Matrix: (Units=GPa)
#
#
# Indices 1 2 3 4 5 6 
#
# 1 98.9390 84.9769 50.5989 0.0000 0.0000 0.0000
# 2 84.9769 139.1284 59.3487 0.0000 0.0000 0.0000
# 3 50.5989 59.3487 55.8203 0.0000 0.0000 0.0000
# 4 0.0000 0.0000 0.0000 30.0583 0.0000 0.0000
# 5 0.0000 0.0000 0.0000 0.0000 28.1076 0.0000
# 6 0.0000 0.0000 0.0000 0.0000 0.0000 5.5562
#
#
#
# Elastic Compliance Matrix: (Units=1/GPa)
#
#
# Indices 1 2 3 4 5 6 
#
# 1 0.024822 -0.010180 -0.011677 0.000000 0.000000 0.000000
# 2 -0.010180 0.017328 -0.009195 0.000000 0.000000 0.000000
# 3 -0.011677 -0.009195 0.038276 0.000000 0.000000 0.000000
# 4 0.000000 0.000000 0.000000 0.033269 0.000000 0.000000
# 5 0.000000 0.000000 0.000000 0.000000 0.035578 0.000000
# 6 0.000000 0.000000 0.000000 0.000000 0.000000 0.179979
#
#
# Mechanical properties :
#
#
# Convention : Reuss Voigt Hill
#
# Bulk Modulus (GPa) = 54.58092 75.97075 65.27584
# Shear Modulus (GPa) = 12.57975 19.34196 15.96085
#
# Velocity S-wave (km/s) = 2.78391 3.45199 3.13579
# Velocity P-wave (km/s) = 6.63022 7.91786 7.30247
#
# Compressibility (1/GPa) = 0.01832142
#
# Stress axis : x y z
#
# Youngs Moduli (GPa) = 40.28613 57.71063 26.12584
#
# Poissons Ratio (x) = 0.58749 0.30508
# Poissons Ratio (y) = 0.41011 0.24024
# Poissons Ratio (z) = 0.47043 0.53068
#
# Static dielectric constant tensor:
#      x y z
#    x 1.525060 0.000000 0.000000 
#    y 0.000000 1.539930 0.000000 
#    z 0.000000 0.000000 1.544620 
# 
# From -- ./inp_files/14803.got.cif
#   From: 2010.05.17/outbox.cif.g08.bks.cpg/sg65_8_cif.got.tgz:14803.got - 2010.06.03 17:01:31.
