data_PCOD9489709
_publ_section_title
;
Structure prediction by ZEFSAII (Michael W. Deem and Ramdas Pophale) SiO2 
 PCOD9489709
Probable space group: C M M M
;
_chemical_formula_sum "Si O2"
_cell_formula_units_Z 92
_cell_length_a 22.187999
_cell_length_b 18.376746
_cell_length_c 12.037186
_cell_angle_alpha 90.000000
_cell_angle_beta 90.000000
_cell_angle_gamma 90.000000
_cell_volume 4908.081002
_symmetry_space_group_name_H-M "C M M M"
_symmetry_group_IT_number 65
_symmetry_cell_setting 'orthorhombic'
loop_
_space_group_symop_operation_xyz
x,y,z
-x,-y,z
x,-y,-z
-x,y,-z
-x,-y,-z
x,y,-z
-x,y,z
x,-y,z
1/2+x,1/2+y,z
1/2-x,1/2-y,z
1/2+x,1/2-y,-z
1/2-x,1/2+y,-z
1/2-x,1/2-y,-z
1/2+x,1/2+y,-z
1/2-x,1/2+y,z
1/2+x,1/2-y,z
loop_
_atom_site_type_symbol
_atom_site_label
_atom_site_fract_x
_atom_site_fract_y
_atom_site_fract_z
Si Si1 0.500000 0.687190 0.000000
Si Si2 0.317589 0.413772 0.760133
Si Si3 0.000000 0.739752 0.756931
Si Si4 0.207829 0.690126 0.753410
Si Si5 0.381292 0.292820 0.369387
Si Si6 0.500000 0.078159 0.805444
Si Si7 0.378765 0.413030 0.000000
Si Si8 0.866935 0.421551 0.875904
O O1 0.500000 0.735992 0.112844
O O2 0.439484 0.636316 0.000000
O O3 0.316250 0.500000 0.744756
O O4 0.253496 0.376354 0.732533
O O5 0.362426 0.371209 0.678623
O O6 0.339802 0.399333 0.887547
O O7 0.059651 0.769469 0.697774
O O8 0.000000 0.652833 0.739421
O O9 0.250000 0.750000 0.813296
O O10 0.173959 0.736843 0.658771
O O11 0.155357 0.651378 0.820194
O O12 0.391874 0.293830 0.500000
O O13 0.561030 0.079250 0.875139
O O14 0.500000 0.000000 0.743317
O O15 0.394026 0.500000 0.000000
O O16 0.849071 0.500000 0.823801
O O17 0.842681 0.421883 0.000000
#
# Coordination Sequence:
#
# PCOD9489709 Si02
#       8
#     4  16   8  16  16   8   8  16
#     4  12  23  38  69  98 128 168 218 250 333 402
#     4  10  22  41  64  94 129 166 208 259 316 382
#     4  12  23  41  66  98 126 162 204 270 321 391
#     4  10  22  38  58  88 119 162 208 254 300 368
#     4  11  24  44  65  90 124 168 216 266 318 367
#     4  10  21  37  58  83 117 155 198 248 302 362
#     4  10  21  40  64  94 136 171 206 261 328 396
#     4  10  20  34  55  84 120 158 194 242 304 366
#
# _framework density 18.744598
#
# number of rings (size 3 to 8) (size 9 to 14) (size 15 to 20)
#    0.000    1.565    3.478    1.174    2.435    4.870 
#    4.696    0.435    0.000    5.739    0.000    0.000 
#    0.000    0.000    0.000    0.000    0.000    0.000 
#
# Total GULP energy -256209.930146 kJ/mol
# GULP energy per Si atom -5569.781090 kJ/mol
# Density = 1.870193 g / cm^3
# Si number density = 18.744598 Si / 1000 Ang^3
#
#
#
# Elastic Constant Matrix: (Units=GPa)
#
#
# Indices 1 2 3 4 5 6 
#
# 1 96.7980 54.7734 35.3873 0.0000 0.0000 0.0000
# 2 54.7734 140.9044 52.7242 0.0000 0.0000 0.0000
# 3 35.3873 52.7242 103.6103 0.0000 0.0000 0.0000
# 4 0.0000 0.0000 0.0000 30.6156 0.0000 0.0000
# 5 0.0000 0.0000 0.0000 0.0000 31.2691 0.0000
# 6 0.0000 0.0000 0.0000 0.0000 0.0000 37.1860
#
#
#
# Elastic Compliance Matrix: (Units=1/GPa)
#
#
# Indices 1 2 3 4 5 6 
#
# 1 0.013725 -0.004423 -0.002437 0.000000 0.000000 0.000000
# 2 -0.004423 0.010192 -0.003676 0.000000 0.000000 0.000000
# 3 -0.002437 -0.003676 0.012354 0.000000 0.000000 0.000000
# 4 0.000000 0.000000 0.000000 0.032663 0.000000 0.000000
# 5 0.000000 0.000000 0.000000 0.000000 0.031980 0.000000
# 6 0.000000 0.000000 0.000000 0.000000 0.000000 0.026892
#
#
# Mechanical properties :
#
#
# Convention : Reuss Voigt Hill
#
# Bulk Modulus (GPa) = 65.79176 69.67583 67.73379
# Shear Modulus (GPa) = 32.47949 33.04268 32.76108
#
# Velocity S-wave (km/s) = 4.16713 4.20311 4.18516
# Velocity P-wave (km/s) = 7.63732 7.79786 7.71801
#
# Compressibility (1/GPa) = 0.01519947
#
# Stress axis : x y z
#
# Youngs Moduli (GPa) = 72.86227 98.11788 80.94466
#
# Poissons Ratio (x) = 0.43401 0.19723
# Poissons Ratio (y) = 0.32230 0.29752
# Poissons Ratio (z) = 0.17754 0.36064
#
# Static dielectric constant tensor:
#      x y z
#    x 1.697750 0.000000 0.000000 
#    y 0.000000 1.678980 0.000000 
#    z 0.000000 0.000000 1.620510 
# 
# From -- ./inp_files/30887.got.cif
#   From: 2010.05.17/outbox.cif.g08.bks.cpg/sg65_16_cif.got.tgz:30887.got - 2010.06.03 17:01:31.
