data_PCOD9489949
_publ_section_title
;
Structure prediction by ZEFSAII (Michael W. Deem and Ramdas Pophale) SiO2 
 PCOD9489949
Probable space group: C M M M
;
_chemical_formula_sum "Si O2"
_cell_formula_units_Z 88
_cell_length_a 14.885561
_cell_length_b 8.743763
_cell_length_c 30.773347
_cell_angle_alpha 90.000000
_cell_angle_beta 90.000000
_cell_angle_gamma 90.000000
_cell_volume 4005.330136
_symmetry_space_group_name_H-M "C M M M"
_symmetry_group_IT_number 65
_symmetry_cell_setting 'orthorhombic'
loop_
_space_group_symop_operation_xyz
x,y,z
-x,-y,z
x,-y,-z
-x,y,-z
-x,-y,-z
x,y,-z
-x,y,z
x,-y,z
1/2+x,1/2+y,z
1/2-x,1/2-y,z
1/2+x,1/2-y,-z
1/2-x,1/2+y,-z
1/2-x,1/2-y,-z
1/2+x,1/2+y,-z
1/2-x,1/2+y,z
1/2+x,1/2-y,z
loop_
_atom_site_type_symbol
_atom_site_label
_atom_site_fract_x
_atom_site_fract_y
_atom_site_fract_z
Si Si1 0.351961 0.316077 0.765370
Si Si2 0.105844 0.168988 0.588146
Si Si3 0.648214 0.314614 0.046833
Si Si4 0.648506 0.684954 0.859550
Si Si5 0.150280 0.319042 0.677770
Si Si6 0.610447 0.175068 0.500000
O O1 0.349464 0.500000 0.762180
O O2 0.250000 0.250000 0.766547
O O3 0.391871 0.272318 0.812596
O O4 0.393926 0.250770 0.721239
O O5 0.113114 0.269287 0.631295
O O6 0.141622 0.243306 0.544058
O O7 0.000000 0.152267 0.580375
O O8 0.145386 0.000000 0.596045
O O9 0.650662 0.500000 0.046818
O O10 0.750000 0.250000 0.046824
O O11 0.607993 0.268242 0.093686
O O12 0.608090 0.267772 0.000000
O O13 0.652134 0.500000 0.859409
O O14 0.750000 0.750000 0.859727
O O15 0.151517 0.500000 0.681870
O O16 0.250000 0.250000 0.677304
O O17 0.500000 0.175127 0.500000
O O18 0.639325 0.000000 0.500000
#
# Coordination Sequence:
#
# PCOD9489949 Si02
#       6
#    16  16  16  16  16   8
#     4   9  15  24  37  53  75 103 138 177 218 263
#     4  10  20  35  55  77 100 126 156 188 224 267
#     4   8  12  17  24  35  53  78 111 153 200 246
#     4   8  13  19  28  42  60  86 121 162 205 250
#     4  11  21  33  49  69  95 124 156 193 234 275
#     4   9  17  31  52  77 102 127 156 187 219 259
#
# _framework density 21.970721999999999
#
# number of rings (size 3 to 8) (size 9 to 14) (size 15 to 20)
#    0.000    2.818    0.000    4.091    0.000    2.909 
#    0.000    0.455    0.000    0.000    0.000    0.000 
#    0.000    0.000    0.000    0.000    0.000    0.909 
#
# Total GULP energy -245107.674810 kJ/mol
# GULP energy per Si atom -5570.628973 kJ/mol
# Density = 2.192072 g / cm^3
# Si number density = 21.970722 Si / 1000 Ang^3
#
#
#
# Elastic Constant Matrix: (Units=GPa)
#
#
# Indices 1 2 3 4 5 6 
#
# 1 50.7652 5.4081 15.7426 0.0000 0.0000 0.0000
# 2 5.4081 100.1765 71.9522 0.0000 0.0000 0.0000
# 3 15.7426 71.9522 277.3767 0.0000 0.0000 0.0000
# 4 0.0000 0.0000 0.0000 1.4695 0.0000 0.0000
# 5 0.0000 0.0000 0.0000 0.0000 5.6221 0.0000
# 6 0.0000 0.0000 0.0000 0.0000 0.0000 1.5758
#
#
#
# Elastic Compliance Matrix: (Units=1/GPa)
#
#
# Indices 1 2 3 4 5 6 
#
# 1 0.020060 -0.000326 -0.001054 0.000000 0.000000 0.000000
# 2 -0.000326 0.012273 -0.003165 0.000000 0.000000 0.000000
# 3 -0.001054 -0.003165 0.004486 0.000000 0.000000 0.000000
# 4 0.000000 0.000000 0.000000 0.680492 0.000000 0.000000
# 5 0.000000 0.000000 0.000000 0.000000 0.177869 0.000000
# 6 0.000000 0.000000 0.000000 0.000000 0.000000 0.634605
#
#
# Mechanical properties :
#
#
# Convention : Reuss Voigt Hill
#
# Bulk Modulus (GPa) = 36.06297 68.28047 52.17172
# Shear Modulus (GPa) = 3.22973 24.08119 13.65546
#
# Velocity S-wave (km/s) = 1.21376 3.31427 2.49575
# Velocity P-wave (km/s) = 4.29115 6.76692 5.66592
#
# Compressibility (1/GPa) = 0.02772928
#
# Stress axis : x y z
#
# Youngs Moduli (GPa) = 49.85024 81.47681 222.91087
#
# Poissons Ratio (x) = 0.02656 0.23494
# Poissons Ratio (y) = 0.01625 0.70557
# Poissons Ratio (z) = 0.05254 0.25790
#
# Static dielectric constant tensor:
#      x y z
#    x 1.976580 0.000000 0.000000 
#    y 0.000000 1.754500 0.000000 
#    z 0.000000 0.000000 1.909050 
# 
# From -- ./inp_files/78109.got.cif
#   From: 2010.05.17/outbox.cif.g08.bks.cpg/sg65_40_cif.got.tgz:78109.got - 2010.06.03 17:01:31.
