data_PCOD9489672
_publ_section_title
;
Structure prediction by ZEFSAII (Michael W. Deem and Ramdas Pophale) SiO2 
 PCOD9489672
Probable space group: C M M M
;
_chemical_formula_sum "Si O2"
_cell_formula_units_Z 72
_cell_length_a 27.714278
_cell_length_b 7.776007
_cell_length_c 16.229864
_cell_angle_alpha 90.000000
_cell_angle_beta 90.000000
_cell_angle_gamma 90.000000
_cell_volume 3497.639883
_symmetry_space_group_name_H-M "C M M M"
_symmetry_group_IT_number 65
_symmetry_cell_setting 'orthorhombic'
loop_
_space_group_symop_operation_xyz
x,y,z
-x,-y,z
x,-y,-z
-x,y,-z
-x,-y,-z
x,y,-z
-x,y,z
x,-y,z
1/2+x,1/2+y,z
1/2-x,1/2-y,z
1/2+x,1/2-y,-z
1/2-x,1/2+y,-z
1/2-x,1/2-y,-z
1/2+x,1/2+y,-z
1/2-x,1/2+y,z
1/2+x,1/2-y,z
loop_
_atom_site_type_symbol
_atom_site_label
_atom_site_fract_x
_atom_site_fract_y
_atom_site_fract_z
Si Si1 0.624190 0.802034 0.858369
Si Si2 0.802012 0.207057 0.405801
Si Si3 0.399506 0.701311 0.676222
Si Si4 0.194129 0.292934 0.000000
Si Si5 0.000000 0.210510 0.402914
Si Si6 0.556629 0.297272 0.000000
O O1 0.609175 0.714195 0.773741
O O2 0.579369 0.789164 0.920182
O O3 0.635437 0.000000 0.838514
O O4 0.667395 0.730271 0.916491
O O5 0.801241 0.270293 0.500000
O O6 0.750000 0.250000 0.366838
O O7 0.850599 0.274950 0.363898
O O8 0.804529 0.000000 0.406774
O O9 0.400683 0.500000 0.653484
O O10 0.450713 0.770751 0.642579
O O11 0.250000 0.250000 0.000000
O O12 0.187441 0.500000 0.000000
O O13 0.000000 0.257295 0.500000
O O14 0.000000 0.000000 0.399421
O O15 0.569619 0.500000 0.000000
O O16 0.500000 0.282498 0.000000
#
# Coordination Sequence:
#
# PCOD9489672 Si02
#       6
#    16  16  16   8   8   8
#     4  10  22  38  54  80 114 145 178 218 273 331
#     4   9  18  33  53  77 106 142 184 231 284 337
#     4  10  20  34  55  82 111 143 187 236 279 330
#     4   9  20  38  58  78 105 144 184 222 269 328
#     4   9  18  34  57  82 109 144 187 237 286 329
#     4  10  21  37  59  81 104 136 178 222 262 309
#
# _framework density 20.585311000000001
#
# number of rings (size 3 to 8) (size 9 to 14) (size 15 to 20)
#    0.000    2.444    0.000    2.333    1.556    8.000 
#    0.000    4.444    0.000    2.667    0.000    0.000 
#    0.000    0.000    0.000    0.000    0.000    0.000 
#
# Total GULP energy -200699.828232 kJ/mol
# GULP energy per Si atom -5574.995229 kJ/mol
# Density = 2.053846 g / cm^3
# Si number density = 20.585311 Si / 1000 Ang^3
#
#
#
# Elastic Constant Matrix: (Units=GPa)
#
#
# Indices 1 2 3 4 5 6 
#
# 1 201.4713 15.5144 89.0897 0.0000 0.0000 0.0000
# 2 15.5144 24.2387 -5.5377 0.0000 0.0000 0.0000
# 3 89.0897 -5.5377 112.9766 0.0000 0.0000 0.0000
# 4 0.0000 0.0000 0.0000 7.2524 0.0000 0.0000
# 5 0.0000 0.0000 0.0000 0.0000 1.0671 0.0000
# 6 0.0000 0.0000 0.0000 0.0000 0.0000 23.0081
#
#
#
# Elastic Compliance Matrix: (Units=1/GPa)
#
#
# Indices 1 2 3 4 5 6 
#
# 1 0.008716 -0.007230 -0.007228 0.000000 0.000000 0.000000
# 2 -0.007230 0.047721 0.008041 0.000000 0.000000 0.000000
# 3 -0.007228 0.008041 0.014945 0.000000 0.000000 0.000000
# 4 0.000000 0.000000 0.000000 0.137886 0.000000 0.000000
# 5 0.000000 0.000000 0.000000 0.000000 0.937132 0.000000
# 6 0.000000 0.000000 0.000000 0.000000 0.000000 0.043463
#
#
# Mechanical properties :
#
#
# Convention : Reuss Voigt Hill
#
# Bulk Modulus (GPa) = 17.08004 59.64659 38.36332
# Shear Modulus (GPa) = 4.09093 22.24019 13.16556
#
# Velocity S-wave (km/s) = 1.41125 3.29050 2.53170
# Velocity P-wave (km/s) = 3.31221 6.59354 5.21754
#
# Compressibility (1/GPa) = 0.05854787
#
# Stress axis : x y z
#
# Youngs Moduli (GPa) = 114.72614 20.95502 66.91109
#
# Poissons Ratio (x) = 0.15151 0.48363
# Poissons Ratio (y) = 0.82952 -0.53802
# Poissons Ratio (z) = 0.82923 -0.16850
#
# Static dielectric constant tensor:
#      x y z
#    x 1.745270 0.000000 0.000000 
#    y 0.000000 1.794790 0.000000 
#    z 0.000000 0.000000 1.739660 
# 
# From -- ./inp_files/46542.got.cif
#   From: 2010.05.17/outbox.cif.g08.bks.cpg/sg65_24_cif.got.tgz:46542.got - 2010.06.03 17:01:31.
