data_PCOD9489754
_publ_section_title
;
Structure prediction by ZEFSAII (Michael W. Deem and Ramdas Pophale) SiO2 
 PCOD9489754
Probable space group: C M M M
;
_chemical_formula_sum "Si O2"
_cell_formula_units_Z 104
_cell_length_a 11.471738
_cell_length_b 28.437406
_cell_length_c 18.023904
_cell_angle_alpha 90.000000
_cell_angle_beta 90.000000
_cell_angle_gamma 90.000000
_cell_volume 5879.874596
_symmetry_space_group_name_H-M "C M M M"
_symmetry_group_IT_number 65
_symmetry_cell_setting 'orthorhombic'
loop_
_space_group_symop_operation_xyz
x,y,z
-x,-y,z
x,-y,-z
-x,y,-z
-x,-y,-z
x,y,-z
-x,y,z
x,-y,z
1/2+x,1/2+y,z
1/2-x,1/2-y,z
1/2+x,1/2-y,-z
1/2-x,1/2+y,-z
1/2-x,1/2-y,-z
1/2+x,1/2+y,-z
1/2-x,1/2+y,z
1/2+x,1/2-y,z
loop_
_atom_site_type_symbol
_atom_site_label
_atom_site_fract_x
_atom_site_fract_y
_atom_site_fract_z
Si Si1 0.360467 0.624660 0.416437
Si Si2 0.366306 0.282985 0.318872
Si Si3 0.807137 0.198285 0.844910
Si Si4 0.876591 0.775376 0.000000
Si Si5 0.763314 0.596669 0.143271
Si Si6 0.639078 0.555091 0.000000
Si Si7 0.360037 0.444476 0.288265
Si Si8 0.500000 0.943948 0.914139
O O1 0.312481 0.623322 0.500000
O O2 0.500000 0.618227 0.421929
O O3 0.344926 0.674737 0.376356
O O4 0.319121 0.583968 0.360870
O O5 0.500000 0.263785 0.332226
O O6 0.250000 0.250000 0.323171
O O7 0.369106 0.303441 0.234786
O O8 0.750000 0.250000 0.844685
O O9 0.875820 0.196632 0.922646
O O10 0.725297 0.152877 0.849082
O O11 0.750000 0.750000 0.000000
O O12 0.000000 0.747163 0.000000
O O13 0.686332 0.581245 0.072578
O O14 0.702566 0.576322 0.216312
O O15 0.887233 0.574157 0.127755
O O16 0.679213 0.500000 0.000000
O O17 0.500000 0.554955 0.000000
O O18 0.500000 0.437717 0.280110
O O19 0.338563 0.500000 0.294717
O O20 0.500000 0.000000 0.915935
O O21 0.500000 0.927099 0.000000
#
# Coordination Sequence:
#
# PCOD9489754 Si02
#       8
#    16  16  16   8  16   8  16   8
#     4   9  18  34  57  85 118 153 188 233 297 364
#     4  10  20  37  59  86 120 158 199 247 297 352
#     4  10  22  39  54  82 112 153 195 249 289 347
#     4  10  21  37  53  78 107 151 199 245 290 345
#     4  12  22  39  60  84 115 157 201 244 301 351
#     4  11  23  36  57  87 116 148 193 243 294 349
#     4  10  20  34  56  86 117 147 188 241 295 357
#     4  11  24  42  62  84 119 159 203 257 304 358
#
# _framework density 17.687450999999999
#
# number of rings (size 3 to 8) (size 9 to 14) (size 15 to 20)
#    0.000    1.692    2.308    2.769    0.000    4.308 
#   11.077    1.538    0.000    0.000    0.000    0.000 
#    0.000    1.846    0.000    0.000    0.000    0.000 
#
# Total GULP energy -289634.816796 kJ/mol
# GULP energy per Si atom -5569.900323 kJ/mol
# Density = 1.764719 g / cm^3
# Si number density = 17.687451 Si / 1000 Ang^3
#
#
#
# Elastic Constant Matrix: (Units=GPa)
#
#
# Indices 1 2 3 4 5 6 
#
# 1 90.6098 47.2320 37.5330 0.0000 0.0000 0.0000
# 2 47.2320 108.1005 57.2804 0.0000 0.0000 0.0000
# 3 37.5330 57.2804 174.2531 0.0000 0.0000 0.0000
# 4 0.0000 0.0000 0.0000 15.6752 0.0000 0.0000
# 5 0.0000 0.0000 0.0000 0.0000 13.3577 0.0000
# 6 0.0000 0.0000 0.0000 0.0000 0.0000 17.1556
#
#
#
# Elastic Compliance Matrix: (Units=1/GPa)
#
#
# Indices 1 2 3 4 5 6 
#
# 1 0.014517 -0.005674 -0.001262 0.000000 0.000000 0.000000
# 2 -0.005674 0.013420 -0.003189 0.000000 0.000000 0.000000
# 3 -0.001262 -0.003189 0.007059 0.000000 0.000000 0.000000
# 4 0.000000 0.000000 0.000000 0.063795 0.000000 0.000000
# 5 0.000000 0.000000 0.000000 0.000000 0.074863 0.000000
# 6 0.000000 0.000000 0.000000 0.000000 0.000000 0.058290
#
#
# Mechanical properties :
#
#
# Convention : Reuss Voigt Hill
#
# Bulk Modulus (GPa) = 67.81784 73.00603 70.41194
# Shear Modulus (GPa) = 19.44705 24.63224 22.03964
#
# Velocity S-wave (km/s) = 3.31944 3.73586 3.53379
# Velocity P-wave (km/s) = 7.28815 7.74429 7.51968
#
# Compressibility (1/GPa) = 0.01474538
#
# Stress axis : x y z
#
# Youngs Moduli (GPa) = 68.88608 74.51701 141.66625
#
# Poissons Ratio (x) = 0.42283 0.17872
# Poissons Ratio (y) = 0.39088 0.45179
# Poissons Ratio (z) = 0.08690 0.23764
#
# Static dielectric constant tensor:
#      x y z
#    x 1.610930 0.000000 0.000000 
#    y 0.000000 1.637700 0.000000 
#    z 0.000000 0.000000 1.612940 
# 
# From -- ./inp_files/51986.got.cif
#   From: 2010.05.17/outbox.cif.g08.bks.cpg/sg65_26_cif.got.tgz:51986.got - 2010.06.03 17:01:31.
