data_PCOD9489751
_publ_section_title
;
Structure prediction by ZEFSAII (Michael W. Deem and Ramdas Pophale) SiO2 
 PCOD9489751
Probable space group: C M M M
;
_chemical_formula_sum "Si O2"
_cell_formula_units_Z 72
_cell_length_a 15.291375
_cell_length_b 25.466168
_cell_length_c 9.273313
_cell_angle_alpha 90.000000
_cell_angle_beta 90.000000
_cell_angle_gamma 90.000000
_cell_volume 3611.146082
_symmetry_space_group_name_H-M "C M M M"
_symmetry_group_IT_number 65
_symmetry_cell_setting 'orthorhombic'
loop_
_space_group_symop_operation_xyz
x,y,z
-x,-y,z
x,-y,-z
-x,y,-z
-x,-y,-z
x,y,-z
-x,y,z
x,-y,z
1/2+x,1/2+y,z
1/2-x,1/2-y,z
1/2+x,1/2-y,-z
1/2-x,1/2+y,-z
1/2-x,1/2-y,-z
1/2+x,1/2+y,-z
1/2-x,1/2+y,z
1/2+x,1/2-y,z
loop_
_atom_site_type_symbol
_atom_site_label
_atom_site_fract_x
_atom_site_fract_y
_atom_site_fract_z
Si Si1 0.104222 0.941164 0.156259
Si Si2 0.372401 0.143629 0.329438
Si Si3 0.337106 0.349479 0.664461
Si Si4 0.357040 0.248815 0.166354
Si Si5 0.500000 0.063359 0.825407
O O1 0.125975 0.904806 0.288166
O O2 0.000000 0.944378 0.148111
O O3 0.139368 0.000000 0.171692
O O4 0.135868 0.919764 0.000000
O O5 0.394400 0.142339 0.500000
O O6 0.267234 0.143546 0.317068
O O7 0.394026 0.199652 0.255664
O O8 0.418475 0.095464 0.245642
O O9 0.353635 0.335059 0.500000
O O10 0.378727 0.304627 0.763964
O O11 0.250000 0.250000 0.172972
O O12 0.382635 0.244612 0.000000
O O13 0.500000 0.000000 0.794748
O O14 0.500000 0.069204 0.000000
#
# Coordination Sequence:
#
# PCOD9489751 Si02
#       5
#    16  16  16  16   8
#     4   9  19  36  55  76 107 146 186 230 278 327
#     4  10  21  38  59  83 114 149 185 232 288 341
#     4  10  20  34  56  86 116 147 186 231 283 343
#     4   9  17  32  56  83 111 143 180 225 276 331
#     4  11  25  43  61  83 113 151 198 247 290 339
#
# _framework density 19.938268999999998
#
# number of rings (size 3 to 8) (size 9 to 14) (size 15 to 20)
#    0.000    2.333    0.000    3.000    0.000    8.000 
#    2.000    5.556    0.000    0.000    0.000    0.000 
#    0.000    0.000    0.000    0.000    0.000    0.000 
#
# Total GULP energy -200734.396209 kJ/mol
# GULP energy per Si atom -5575.955450 kJ/mol
# Density = 1.989289 g / cm^3
# Si number density = 19.938269 Si / 1000 Ang^3
#
#
#
# Elastic Constant Matrix: (Units=GPa)
#
#
# Indices 1 2 3 4 5 6 
#
# 1 30.8649 28.0382 35.4650 0.0000 0.0000 0.0000
# 2 28.0382 130.7975 76.4970 0.0000 0.0000 0.0000
# 3 35.4650 76.4970 117.0871 0.0000 0.0000 0.0000
# 4 0.0000 0.0000 0.0000 25.0043 0.0000 0.0000
# 5 0.0000 0.0000 0.0000 0.0000 21.8743 0.0000
# 6 0.0000 0.0000 0.0000 0.0000 0.0000 23.6899
#
#
#
# Elastic Compliance Matrix: (Units=1/GPa)
#
#
# Indices 1 2 3 4 5 6 
#
# 1 0.050430 -0.003037 -0.013290 0.000000 0.000000 0.000000
# 2 -0.003037 0.012556 -0.007283 0.000000 0.000000 0.000000
# 3 -0.013290 -0.007283 0.017325 0.000000 0.000000 0.000000
# 4 0.000000 0.000000 0.000000 0.039993 0.000000 0.000000
# 5 0.000000 0.000000 0.000000 0.000000 0.045716 0.000000
# 6 0.000000 0.000000 0.000000 0.000000 0.000000 0.042212
#
#
# Mechanical properties :
#
#
# Convention : Reuss Voigt Hill
#
# Bulk Modulus (GPa) = 30.22220 62.08333 46.15277
# Shear Modulus (GPa) = 18.76289 23.36366 21.06327
#
# Velocity S-wave (km/s) = 3.07098 3.42687 3.25379
# Velocity P-wave (km/s) = 5.26928 6.84568 6.10854
#
# Compressibility (1/GPa) = 0.03308826
#
# Stress axis : x y z
#
# Youngs Moduli (GPa) = 19.82956 79.64189 57.72098
#
# Poissons Ratio (x) = 0.24190 0.76714
# Poissons Ratio (y) = 0.06023 0.42040
# Poissons Ratio (z) = 0.26354 0.58006
#
# Static dielectric constant tensor:
#      x y z
#    x 1.794300 0.000000 0.000000 
#    y 0.000000 1.691980 0.000000 
#    z 0.000000 0.000000 1.694520 
# 
# From -- ./inp_files/9470.got.cif
#   From: 2010.05.17/outbox.cif.g08.bks.cpg/sg65_5_cif.got.tgz:9470.got - 2010.06.03 17:01:31.
