data_PCOD9489991
_publ_section_title
;
Structure prediction by ZEFSAII (Michael W. Deem and Ramdas Pophale) SiO2 
 PCOD9489991
Probable space group: C M M M
;
_chemical_formula_sum "Si O2"
_cell_formula_units_Z 116
_cell_length_a 24.669546
_cell_length_b 29.033708
_cell_length_c 9.420348
_cell_angle_alpha 90.000000
_cell_angle_beta 90.000000
_cell_angle_gamma 90.000000
_cell_volume 6747.309136
_symmetry_space_group_name_H-M "C M M M"
_symmetry_group_IT_number 65
_symmetry_cell_setting 'orthorhombic'
loop_
_space_group_symop_operation_xyz
x,y,z
-x,-y,z
x,-y,-z
-x,y,-z
-x,-y,-z
x,y,-z
-x,y,z
x,-y,z
1/2+x,1/2+y,z
1/2-x,1/2-y,z
1/2+x,1/2-y,-z
1/2-x,1/2+y,-z
1/2-x,1/2-y,-z
1/2+x,1/2+y,-z
1/2-x,1/2+y,z
1/2+x,1/2-y,z
loop_
_atom_site_type_symbol
_atom_site_label
_atom_site_fract_x
_atom_site_fract_y
_atom_site_fract_z
Si Si1 0.435118 0.696552 0.166517
Si Si2 0.313951 0.950080 0.208354
Si Si3 0.189071 0.500000 0.500000
Si Si4 0.744167 0.304495 0.833417
Si Si5 0.651545 0.359925 0.330123
Si Si6 0.564644 0.210227 0.335103
Si Si7 0.639414 0.852637 0.161146
Si Si8 0.812619 0.946094 0.160252
O O1 0.500000 0.690391 0.176465
O O2 0.402770 0.658934 0.256247
O O3 0.421575 0.745674 0.238077
O O4 0.420005 0.695955 0.000000
O O5 0.310960 0.960384 0.375339
O O6 0.351052 0.907127 0.172992
O O7 0.252520 0.940216 0.160237
O O8 0.331317 0.000000 0.149362
O O9 0.750000 0.250000 0.807046
O O10 0.699875 0.328290 0.733667
O O11 0.802341 0.328595 0.813689
O O12 0.728638 0.310800 0.000000
O O13 0.649524 0.357509 0.500000
O O14 0.662983 0.411358 0.273700
O O15 0.578260 0.219036 0.500000
O O16 0.500000 0.203036 0.326023
O O17 0.597080 0.167336 0.272511
O O18 0.622377 0.841102 0.000000
O O19 0.822743 0.000000 0.191700
O O20 0.832110 0.935874 0.000000
#
# Coordination Sequence:
#
# PCOD9489991 Si02
#       8
#    16  16   4  16  16  16  16  16
#     4  10  21  40  63  82 106 144 189 233 274 324
#     4   9  19  32  53  77 111 144 186 226 275 328
#     4   8  20  32  50  80 111 146 179 236 276 330
#     4  10  21  36  52  75 111 149 185 223 269 326
#     4  12  24  34  55  84 115 147 180 225 278 332
#     4  10  22  38  58  83 112 144 184 232 280 329
#     4  11  21  33  55  82 110 149 187 228 275 325
#     4  10  20  35  55  78 111 148 187 228 269 323
#
# _framework density 17.192038
#
# number of rings (size 3 to 8) (size 9 to 14) (size 15 to 20)
#    0.414    1.379    1.379    3.310    1.931    4.690 
#    0.000    0.000    0.000    0.828    0.000    5.310 
#    0.000    0.000    0.000    0.000    0.000    0.000 
#
# Total GULP energy -323102.080735 kJ/mol
# GULP energy per Si atom -5570.725530 kJ/mol
# Density = 1.715291 g / cm^3
# Si number density = 17.192038 Si / 1000 Ang^3
#
#
#
# Elastic Constant Matrix: (Units=GPa)
#
#
# Indices 1 2 3 4 5 6 
#
# 1 31.6899 34.0674 40.9365 0.0000 0.0000 0.0000
# 2 34.0674 108.3563 56.6241 0.0000 0.0000 0.0000
# 3 40.9365 56.6241 159.3344 0.0000 0.0000 0.0000
# 4 0.0000 0.0000 0.0000 31.0596 0.0000 0.0000
# 5 0.0000 0.0000 0.0000 0.0000 17.8465 0.0000
# 6 0.0000 0.0000 0.0000 0.0000 0.0000 20.5944
#
#
#
# Elastic Compliance Matrix: (Units=1/GPa)
#
#
# Indices 1 2 3 4 5 6 
#
# 1 0.059332 -0.013126 -0.010579 0.000000 0.000000 0.000000
# 2 -0.013126 0.014237 -0.001687 0.000000 0.000000 0.000000
# 3 -0.010579 -0.001687 0.009594 0.000000 0.000000 0.000000
# 4 0.000000 0.000000 0.000000 0.032196 0.000000 0.000000
# 5 0.000000 0.000000 0.000000 0.000000 0.056033 0.000000
# 6 0.000000 0.000000 0.000000 0.000000 0.000000 0.048557
#
#
# Mechanical properties :
#
#
# Convention : Reuss Voigt Hill
#
# Bulk Modulus (GPa) = 30.88441 62.51517 46.69979
# Shear Modulus (GPa) = 17.76027 25.08360 21.42194
#
# Velocity S-wave (km/s) = 3.21760 3.82386 3.53376
# Velocity P-wave (km/s) = 5.63980 7.47915 6.62363
#
# Compressibility (1/GPa) = 0.03237879
#
# Stress axis : x y z
#
# Youngs Moduli (GPa) = 16.85426 70.23779 104.23437
#
# Poissons Ratio (x) = 0.92193 1.10271
# Poissons Ratio (y) = 0.22123 0.17588
# Poissons Ratio (z) = 0.17830 0.11852
#
# Static dielectric constant tensor:
#      x y z
#    x 1.566370 0.000000 0.000000 
#    y 0.000000 1.592460 0.000000 
#    z 0.000000 0.000000 1.585420 
# 
# From -- ./inp_files/15114.got.cif
#   From: 2010.05.17/outbox.cif.g08.bks.cpg/sg65_8_cif.got.tgz:15114.got - 2010.06.03 17:01:31.
