data_PCOD9489094
_publ_section_title
;
Structure prediction by ZEFSAII (Michael W. Deem and Ramdas Pophale) SiO2 
 PCOD9489094
Probable space group: C M M M
;
_chemical_formula_sum "Si O2"
_cell_formula_units_Z 104
_cell_length_a 20.746613
_cell_length_b 33.133027
_cell_length_c 8.875716
_cell_angle_alpha 90.000000
_cell_angle_beta 90.000000
_cell_angle_gamma 90.000000
_cell_volume 6101.150214
_symmetry_space_group_name_H-M "C M M M"
_symmetry_group_IT_number 65
_symmetry_cell_setting 'orthorhombic'
loop_
_space_group_symop_operation_xyz
x,y,z
-x,-y,z
x,-y,-z
-x,y,-z
-x,-y,-z
x,y,-z
-x,y,z
x,-y,z
1/2+x,1/2+y,z
1/2-x,1/2-y,z
1/2+x,1/2-y,-z
1/2-x,1/2+y,-z
1/2-x,1/2-y,-z
1/2+x,1/2+y,-z
1/2-x,1/2+y,z
1/2+x,1/2-y,z
loop_
_atom_site_type_symbol
_atom_site_label
_atom_site_fract_x
_atom_site_fract_y
_atom_site_fract_z
Si Si1 0.807296 0.629089 0.681530
Si Si2 0.500000 0.452151 0.329463
Si Si3 0.926122 0.227913 0.819478
Si Si4 0.170158 0.163503 0.679984
Si Si5 0.872651 0.919611 0.178805
Si Si6 0.733935 0.954860 0.180215
Si Si7 0.573220 0.816462 0.318972
O O1 0.805967 0.625846 0.500000
O O2 0.745163 0.656554 0.725381
O O3 0.799949 0.584131 0.747476
O O4 0.872591 0.651610 0.727501
O O5 0.500000 0.500000 0.339884
O O6 0.500000 0.435284 0.500000
O O7 0.437107 0.439046 0.239714
O O8 0.870638 0.199474 0.752821
O O9 0.917186 0.273320 0.759361
O O10 0.000000 0.215373 0.776065
O O11 0.922835 0.227145 0.000000
O O12 0.167988 0.167688 0.500000
O O13 0.137731 0.122071 0.733987
O O14 0.810148 0.947422 0.207462
O O15 0.875921 0.912080 0.000000
O O16 0.715713 0.000000 0.233248
O O17 0.724100 0.953409 0.000000
O O18 0.578586 0.810809 0.500000
O O19 0.500000 0.829997 0.286442
#
# Coordination Sequence:
#
# PCOD9489094 Si02
#       7
#    16   8  16  16  16  16  16
#     4   9  19  34  53  79 105 131 167 210 255 305
#     4  11  23  35  47  67  95 129 171 215 261 311
#     4  10  21  35  51  73 102 136 177 216 252 299
#     4  10  20  34  51  73 103 135 170 211 258 306
#     4  10  20  34  51  70  96 130 170 215 259 301
#     4   9  18  33  53  76 101 131 167 206 251 304
#     4   9  18  35  57  78 102 133 168 206 254 308
#
# _framework density 17.045966
#
# number of rings (size 3 to 8) (size 9 to 14) (size 15 to 20)
#    0.000    2.385    0.000    2.077    1.077    4.923 
#    0.000    3.077    0.000    0.462    0.000    3.231 
#    0.000    0.000    0.000    0.000    0.000    0.000 
#
# Total GULP energy -289974.085257 kJ/mol
# GULP energy per Si atom -5576.424716 kJ/mol
# Density = 1.700717 g / cm^3
# Si number density = 17.045966 Si / 1000 Ang^3
#
#
#
# Elastic Constant Matrix: (Units=GPa)
#
#
# Indices 1 2 3 4 5 6 
#
# 1 127.6691 94.9040 41.4650 0.0000 0.0000 0.0000
# 2 94.9040 115.2924 36.9973 0.0000 0.0000 0.0000
# 3 41.4650 36.9973 32.3878 0.0000 0.0000 0.0000
# 4 0.0000 0.0000 0.0000 20.3904 0.0000 0.0000
# 5 0.0000 0.0000 0.0000 0.0000 19.2036 0.0000
# 6 0.0000 0.0000 0.0000 0.0000 0.0000 17.5408
#
#
#
# Elastic Compliance Matrix: (Units=1/GPa)
#
#
# Indices 1 2 3 4 5 6 
#
# 1 0.022915 -0.014916 -0.012298 0.000000 0.000000 0.000000
# 2 -0.014916 0.023403 -0.007636 0.000000 0.000000 0.000000
# 3 -0.012298 -0.007636 0.055344 0.000000 0.000000 0.000000
# 4 0.000000 0.000000 0.000000 0.049043 0.000000 0.000000
# 5 0.000000 0.000000 0.000000 0.000000 0.052073 0.000000
# 6 0.000000 0.000000 0.000000 0.000000 0.000000 0.057010
#
#
# Mechanical properties :
#
#
# Convention : Reuss Voigt Hill
#
# Bulk Modulus (GPa) = 31.28927 69.12021 50.20474
# Shear Modulus (GPa) = 14.69965 18.22583 16.46274
#
# Velocity S-wave (km/s) = 2.93977 3.27344 3.11108
# Velocity P-wave (km/s) = 5.46980 7.41111 6.51319
#
# Compressibility (1/GPa) = 0.03195984
#
# Stress axis : x y z
#
# Youngs Moduli (GPa) = 43.63879 42.73007 18.06874
#
# Poissons Ratio (x) = 0.63738 0.22222
# Poissons Ratio (y) = 0.65094 0.13798
# Poissons Ratio (z) = 0.53669 0.32630
#
# Static dielectric constant tensor:
#      x y z
#    x 1.580900 0.000000 0.000000 
#    y 0.000000 1.554660 0.000000 
#    z 0.000000 0.000000 1.578570 
# 
# From -- ./inp_files/12800.got.cif
#   From: 2010.05.17/outbox.cif.g08.bks.cpg/sg65_7_cif.got.tgz:12800.got - 2010.06.03 17:01:31.
