data_PCOD9489189
_publ_section_title
;
Structure prediction by ZEFSAII (Michael W. Deem and Ramdas Pophale) SiO2 
 PCOD9489189
Probable space group: C M M M
;
_chemical_formula_sum "Si O2"
_cell_formula_units_Z 72
_cell_length_a 32.780138
_cell_length_b 14.837808
_cell_length_c 7.411596
_cell_angle_alpha 90.000000
_cell_angle_beta 90.000000
_cell_angle_gamma 90.000000
_cell_volume 3604.892040
_symmetry_space_group_name_H-M "C M M M"
_symmetry_group_IT_number 65
_symmetry_cell_setting 'orthorhombic'
loop_
_space_group_symop_operation_xyz
x,y,z
-x,-y,z
x,-y,-z
-x,y,-z
-x,-y,-z
x,y,-z
-x,y,z
x,-y,z
1/2+x,1/2+y,z
1/2-x,1/2-y,z
1/2+x,1/2-y,-z
1/2-x,1/2+y,-z
1/2-x,1/2-y,-z
1/2+x,1/2+y,-z
1/2-x,1/2+y,z
1/2+x,1/2-y,z
loop_
_atom_site_type_symbol
_atom_site_label
_atom_site_fract_x
_atom_site_fract_y
_atom_site_fract_z
Si Si1 0.161413 0.393116 0.286268
Si Si2 0.819277 0.897969 0.000000
Si Si3 0.882648 0.105883 0.713743
Si Si4 0.000000 0.395189 0.279002
Si Si5 0.229358 0.652917 0.000000
Si Si6 0.579787 0.213052 0.281425
O O1 0.167847 0.377773 0.500000
O O2 0.154685 0.500000 0.259501
O O3 0.200527 0.364418 0.170744
O O4 0.121149 0.338793 0.228135
O O5 0.841906 0.863024 0.821354
O O6 0.771087 0.901832 0.000000
O O7 0.833015 0.000000 0.000000
O O8 0.875162 0.113395 0.500000
O O9 0.916006 0.181244 0.766700
O O10 0.893408 0.000000 0.745866
O O11 0.040146 0.340932 0.219106
O O12 0.000000 0.500000 0.223458
O O13 0.000000 0.395825 0.500000
O O14 0.250000 0.750000 0.000000
O O15 0.578576 0.209755 0.500000
#
# Coordination Sequence:
#
# PCOD9489189 Si02
#       6
#    16   8  16   8   8  16
#     4  10  21  37  56  78 108 145 182 223 272 325
#     4  10  20  34  52  74 100 134 178 220 260 310
#     4   9  18  33  53  77 107 142 178 218 264 315
#     4   9  16  28  51  82 111 138 174 220 263 311
#     4  12  24  36  54  80 109 142 182 228 275 324
#     4   9  17  31  52  79 108 140 179 218 264 321
#
# _framework density 19.972859
#
# number of rings (size 3 to 8) (size 9 to 14) (size 15 to 20)
#    0.000    2.333    0.000    3.000    0.000    4.000 
#    0.000    2.778    0.000    6.000    0.000    7.000 
#    0.000    0.000    0.000    0.000    0.000    0.000 
#
# Total GULP energy -200621.561141 kJ/mol
# GULP energy per Si atom -5572.821143 kJ/mol
# Density = 1.992740 g / cm^3
# Si number density = 19.972859 Si / 1000 Ang^3
#
#
#
# Elastic Constant Matrix: (Units=GPa)
#
#
# Indices 1 2 3 4 5 6 
#
# 1 156.5168 97.0153 43.0574 0.0000 0.0000 0.0000
# 2 97.0153 156.9101 50.4459 0.0000 0.0000 0.0000
# 3 43.0574 50.4459 70.7379 0.0000 0.0000 0.0000
# 4 0.0000 0.0000 0.0000 6.1692 0.0000 0.0000
# 5 0.0000 0.0000 0.0000 0.0000 48.0814 0.0000
# 6 0.0000 0.0000 0.0000 0.0000 0.0000 35.4701
#
#
#
# Elastic Compliance Matrix: (Units=1/GPa)
#
#
# Indices 1 2 3 4 5 6 
#
# 1 0.010644 -0.005836 -0.002317 0.000000 0.000000 0.000000
# 2 -0.005836 0.011469 -0.004627 0.000000 0.000000 0.000000
# 3 -0.002317 -0.004627 0.018846 0.000000 0.000000 0.000000
# 4 0.000000 0.000000 0.000000 0.162095 0.000000 0.000000
# 5 0.000000 0.000000 0.000000 0.000000 0.020798 0.000000
# 6 0.000000 0.000000 0.000000 0.000000 0.000000 0.028193
#
#
# Mechanical properties :
#
#
# Convention : Reuss Voigt Hill
#
# Bulk Modulus (GPa) = 64.93477 85.02245 74.97861
# Shear Modulus (GPa) = 17.68425 30.85390 24.26907
#
# Velocity S-wave (km/s) = 2.97882 3.93465 3.48961
# Velocity P-wave (km/s) = 6.66433 7.95634 7.33882
#
# Compressibility (1/GPa) = 0.01540007
#
# Stress axis : x y z
#
# Youngs Moduli (GPa) = 93.95045 87.19258 53.06080
#
# Poissons Ratio (x) = 0.50887 0.12294
# Poissons Ratio (y) = 0.54831 0.24549
# Poissons Ratio (z) = 0.21767 0.40340
#
# Static dielectric constant tensor:
#      x y z
#    x 1.715520 0.000000 0.000000 
#    y 0.000000 1.683930 0.000000 
#    z 0.000000 0.000000 1.764120 
# 
# From -- ./inp_files/7752.got.cif
#   From: 2010.05.17/outbox.cif.g08.bks.cpg/sg65_4_cif.got.tgz:7752.got - 2010.06.03 17:01:31.
