data_PCOD9489867
_publ_section_title
;
Structure prediction by ZEFSAII (Michael W. Deem and Ramdas Pophale) SiO2 
 PCOD9489867
Probable space group: C M M M
;
_chemical_formula_sum "Si O2"
_cell_formula_units_Z 72
_cell_length_a 7.548011
_cell_length_b 26.642980
_cell_length_c 16.557912
_cell_angle_alpha 90.000000
_cell_angle_beta 90.000000
_cell_angle_gamma 90.000000
_cell_volume 3329.821041
_symmetry_space_group_name_H-M "C M M M"
_symmetry_group_IT_number 65
_symmetry_cell_setting 'orthorhombic'
loop_
_space_group_symop_operation_xyz
x,y,z
-x,-y,z
x,-y,-z
-x,y,-z
-x,-y,-z
x,y,-z
-x,y,z
x,-y,z
1/2+x,1/2+y,z
1/2-x,1/2-y,z
1/2+x,1/2-y,-z
1/2-x,1/2+y,-z
1/2-x,1/2-y,-z
1/2+x,1/2+y,-z
1/2-x,1/2+y,z
1/2+x,1/2-y,z
loop_
_atom_site_type_symbol
_atom_site_label
_atom_site_fract_x
_atom_site_fract_y
_atom_site_fract_z
Si Si1 0.707760 0.663030 0.412853
Si Si2 0.211068 0.805676 0.760435
Si Si3 0.795957 0.410079 0.171800
Si Si4 0.792950 0.440156 0.000000
Si Si5 0.784875 0.555728 0.346570
O O1 0.785862 0.676545 0.500000
O O2 0.500000 0.675774 0.415082
O O3 0.781799 0.688014 0.331580
O O4 0.723124 0.603082 0.398525
O O5 0.250000 0.750000 0.789756
O O6 0.290355 0.850702 0.812228
O O7 0.000000 0.813695 0.759045
O O8 0.714108 0.422420 0.085233
O O9 0.722519 0.434641 0.254057
O O10 0.000000 0.427975 0.168303
O O11 0.790693 0.500000 0.000000
O O12 0.000000 0.422796 0.000000
O O13 0.731570 0.500000 0.373251
O O14 0.000000 0.557702 0.346761
#
# Coordination Sequence:
#
# PCOD9489867 Si02
#       5
#    16  16  16   8  16
#     4   9  19  34  49  68  95 125 159 200 244 291
#     4  10  20  35  54  73  95 125 161 201 246 293
#     4   9  17  31  51  75 102 130 162 199 239 284
#     4   9  16  28  52  83 108 131 162 199 236 277
#     4   9  17  29  46  69  98 131 164 198 237 282
#
# _framework density 21.622782000000001
#
# number of rings (size 3 to 8) (size 9 to 14) (size 15 to 20)
#    0.000    2.778    0.000    1.333    0.000    5.333 
#    0.000    3.333    0.000    2.667    0.000    0.000 
#    0.000    0.000    0.000    0.000    0.000    0.000 
#
# Total GULP energy -200867.088792 kJ/mol
# GULP energy per Si atom -5579.641355 kJ/mol
# Density = 2.157357 g / cm^3
# Si number density = 21.622782 Si / 1000 Ang^3
#
#
#
# Elastic Constant Matrix: (Units=GPa)
#
#
# Indices 1 2 3 4 5 6 
#
# 1 60.8512 -17.0436 3.4774 0.0000 0.0000 0.0000
# 2 -17.0436 58.5733 -13.3697 0.0000 0.0000 0.0000
# 3 3.4774 -13.3697 96.3706 0.0000 0.0000 0.0000
# 4 0.0000 0.0000 0.0000 -0.2405 0.0000 0.0000
# 5 0.0000 0.0000 0.0000 0.0000 0.4423 0.0000
# 6 0.0000 0.0000 0.0000 0.0000 0.0000 14.6609
#
#
#
# Elastic Compliance Matrix: (Units=1/GPa)
#
#
# Indices 1 2 3 4 5 6 
#
# 1 0.017892 0.005224 0.000079 0.000000 0.000000 0.000000
# 2 0.005224 0.019156 0.002469 0.000000 0.000000 0.000000
# 3 0.000079 0.002469 0.010716 0.000000 0.000000 0.000000
# 4 0.000000 0.000000 0.000000 -4.158039 0.000000 0.000000
# 5 0.000000 0.000000 0.000000 0.000000 2.260898 0.000000
# 6 0.000000 0.000000 0.000000 0.000000 0.000000 0.068209
#
#
# Mechanical properties :
#
#
# Convention : Reuss Voigt Hill
#
# Bulk Modulus (GPa) = 15.79524 17.99147 16.89336
# Shear Modulus (GPa) = -2.81594 19.15462 8.16934
#
# Velocity S-wave (km/s) = -1.14242 2.97956 1.94585
# Velocity P-wave (km/s) = 2.36233 4.49174 3.58861
#
# Compressibility (1/GPa) = 0.06331021
#
# Stress axis : x y z
#
# Youngs Moduli (GPa) = 55.89001 52.20192 93.31585
#
# Poissons Ratio (x) = -0.27272 -0.00739
# Poissons Ratio (y) = -0.29199 -0.23041
# Poissons Ratio (z) = -0.00442 -0.12889
#
# Static dielectric constant tensor:
#      x y z
#    x 1.853600 0.000000 0.000000 
#    y 0.000000 1.747200 0.000000 
#    z 0.000000 0.000000 1.819760 
# 
# From -- ./inp_files/36537.got.cif
#   From: 2010.05.17/outbox.cif.g08.bks.cpg/sg65_19_cif.got.tgz:36537.got - 2010.06.03 17:01:31.
