data_PCOD9489242
_publ_section_title
;
Structure prediction by ZEFSAII (Michael W. Deem and Ramdas Pophale) SiO2 
 PCOD9489242
Probable space group: C M M M
;
_chemical_formula_sum "Si O2"
_cell_formula_units_Z 48
_cell_length_a 15.431477
_cell_length_b 9.133947
_cell_length_c 16.308543
_cell_angle_alpha 90.000000
_cell_angle_beta 90.000000
_cell_angle_gamma 90.000000
_cell_volume 2298.693915
_symmetry_space_group_name_H-M "C M M M"
_symmetry_group_IT_number 65
_symmetry_cell_setting 'orthorhombic'
loop_
_space_group_symop_operation_xyz
x,y,z
-x,-y,z
x,-y,-z
-x,y,-z
-x,-y,-z
x,y,-z
-x,y,z
x,-y,z
1/2+x,1/2+y,z
1/2-x,1/2-y,z
1/2+x,1/2-y,-z
1/2-x,1/2+y,-z
1/2-x,1/2-y,-z
1/2+x,1/2+y,-z
1/2-x,1/2+y,z
1/2+x,1/2-y,z
loop_
_atom_site_type_symbol
_atom_site_label
_atom_site_fract_x
_atom_site_fract_y
_atom_site_fract_z
Si Si1 0.101084 0.821729 0.000000
Si Si2 0.842770 0.174217 0.500000
Si Si3 0.606489 0.329541 0.821692
Si Si4 0.897140 0.663389 0.661500
O O1 0.137074 0.775978 0.911516
O O2 0.000000 0.777222 0.000000
O O3 0.102423 0.000000 0.000000
O O4 0.750000 0.250000 0.500000
O O5 0.885414 0.234265 0.417017
O O6 0.839852 0.000000 0.500000
O O7 0.500000 0.326172 0.823325
O O8 0.630091 0.500000 0.810794
O O9 0.637531 0.235012 0.744948
O O10 0.861209 0.500000 0.646498
O O11 0.000000 0.649897 0.673382
#
# Coordination Sequence:
#
# PCOD9489242 Si02
#       4
#     8   8  16  16
#     4   7  10  18  35  61  94 129 164 203 242 281
#     4  12  25  40  57  75  97 127 165 208 255 306
#     4   8  13  23  41  66  96 131 169 205 243 287
#     4  10  20  34  52  76 106 136 167 206 249 293
#
# _framework density 20.881423000000002
#
# number of rings (size 3 to 8) (size 9 to 14) (size 15 to 20)
#    0.000    2.833    0.000    5.000    0.000    4.000 
#    0.000    0.833    0.000    5.000    0.000    1.167 
#    0.000    0.000    0.000    0.000    0.000    0.000 
#
# Total GULP energy -133801.029158 kJ/mol
# GULP energy per Si atom -5575.042882 kJ/mol
# Density = 2.083390 g / cm^3
# Si number density = 20.881423 Si / 1000 Ang^3
#
#
#
# Elastic Constant Matrix: (Units=GPa)
#
#
# Indices 1 2 3 4 5 6 
#
# 1 20.9471 6.2608 5.6185 0.0000 0.0000 0.0000
# 2 6.2608 146.0375 102.3578 0.0000 0.0000 0.0000
# 3 5.6185 102.3578 221.6738 0.0000 0.0000 0.0000
# 4 0.0000 0.0000 0.0000 87.5726 0.0000 0.0000
# 5 0.0000 0.0000 0.0000 0.0000 -45.2604 0.0000
# 6 0.0000 0.0000 0.0000 0.0000 0.0000 11.7941
#
#
#
# Elastic Compliance Matrix: (Units=1/GPa)
#
#
# Indices 1 2 3 4 5 6 
#
# 1 0.048383 -0.001796 -0.000397 0.000000 0.000000 0.000000
# 2 -0.001796 0.010191 -0.004660 0.000000 0.000000 0.000000
# 3 -0.000397 -0.004660 0.006673 0.000000 0.000000 0.000000
# 4 0.000000 0.000000 0.000000 0.011419 0.000000 0.000000
# 5 0.000000 0.000000 0.000000 0.000000 -0.022094 0.000000
# 6 0.000000 0.000000 0.000000 0.000000 0.000000 0.084788
#
#
# Mechanical properties :
#
#
# Convention : Reuss Voigt Hill
#
# Bulk Modulus (GPa) = 19.40230 68.57028 43.98629
# Shear Modulus (GPa) = 29.36935 29.11600 29.24268
#
# Velocity S-wave (km/s) = 3.75438 3.73815 3.74627
# Velocity P-wave (km/s) = 5.30147 7.17920 6.31057
#
# Compressibility (1/GPa) = 0.05154029
#
# Stress axis : x y z
#
# Youngs Moduli (GPa) = 20.66859 98.12759 149.85785
#
# Poissons Ratio (x) = 0.17623 0.05949
# Poissons Ratio (y) = 0.03712 0.69835
# Poissons Ratio (z) = 0.00821 0.45728
#
# Static dielectric constant tensor:
#      x y z
#    x 1.863110 0.000000 0.000000 
#    y 0.000000 1.726200 0.000000 
#    z 0.000000 0.000000 1.841610 
# 
# From -- ./inp_files/35112.got.cif
#   From: 2010.05.17/outbox.cif.g08.bks.cpg/sg65_18_cif.got.tgz:35112.got - 2010.06.03 17:01:31.
