data_PCOD9489123
_publ_section_title
;
Structure prediction by ZEFSAII (Michael W. Deem and Ramdas Pophale) SiO2 
 PCOD9489123
Probable space group: C M M M
;
_chemical_formula_sum "Si O2"
_cell_formula_units_Z 128
_cell_length_a 18.445929
_cell_length_b 19.502572
_cell_length_c 20.891276
_cell_angle_alpha 90.000000
_cell_angle_beta 90.000000
_cell_angle_gamma 90.000000
_cell_volume 7515.491523
_symmetry_space_group_name_H-M "C M M M"
_symmetry_group_IT_number 65
_symmetry_cell_setting 'orthorhombic'
loop_
_space_group_symop_operation_xyz
x,y,z
-x,-y,z
x,-y,-z
-x,y,-z
-x,-y,-z
x,y,-z
-x,y,z
x,-y,z
1/2+x,1/2+y,z
1/2-x,1/2-y,z
1/2+x,1/2-y,-z
1/2-x,1/2+y,-z
1/2-x,1/2-y,-z
1/2+x,1/2+y,-z
1/2-x,1/2+y,z
1/2+x,1/2-y,z
loop_
_atom_site_type_symbol
_atom_site_label
_atom_site_fract_x
_atom_site_fract_y
_atom_site_fract_z
Si Si1 0.181349 0.200933 0.074825
Si Si2 0.650501 0.079088 0.183808
Si Si3 0.088226 0.839224 0.571924
Si Si4 0.411765 0.819622 0.571411
Si Si5 0.414837 0.418043 0.300856
Si Si6 0.587367 0.078849 0.318649
Si Si7 0.321457 0.579669 0.175791
Si Si8 0.914193 0.329089 0.926795
O O1 0.250000 0.250000 0.092728
O O2 0.171721 0.134554 0.118789
O O3 0.112600 0.251152 0.080596
O O4 0.191501 0.182171 0.000000
O O5 0.612648 0.102702 0.249010
O O6 0.736552 0.080835 0.193314
O O7 0.626887 0.124241 0.124003
O O8 0.628480 0.000000 0.172628
O O9 0.111788 0.860929 0.500000
O O10 0.109095 0.759595 0.580974
O O11 0.111447 0.882547 0.633548
O O12 0.000000 0.842213 0.571135
O O13 0.389306 0.840927 0.500000
O O14 0.500000 0.820674 0.572549
O O15 0.385864 0.870862 0.625947
O O16 0.500000 0.400326 0.291485
O O17 0.410133 0.500000 0.308911
O O18 0.369205 0.400322 0.237560
O O19 0.500000 0.078581 0.320093
O O20 0.611881 0.000000 0.327668
O O21 0.339562 0.500000 0.158575
O O22 0.000000 0.335010 0.917823
O O23 0.896120 0.349376 0.000000
#
# Coordination Sequence:
#
# PCOD9489123 Si02
#       8
#    16  16  16  16  16  16  16  16
#     4  10  20  37  57  77 104 136 174 217 257 307
#     4  10  20  34  51  73 104 139 174 211 254 313
#     4   8  14  26  45  70  99 129 163 208 264 319
#     4   8  14  25  41  63  91 121 158 205 251 297
#     4   9  18  32  50  75 105 134 170 218 264 309
#     4   9  17  28  43  65  93 125 161 203 250 297
#     4  10  21  36  55  78 105 139 176 213 260 314
#     4  10  21  36  55  80 107 136 170 213 265 312
#
# _framework density 17.031486999999998
#
# number of rings (size 3 to 8) (size 9 to 14) (size 15 to 20)
#    0.000    2.750    1.250    1.125    0.000    3.250 
#    0.000    5.625    0.000    0.750    0.000    8.750 
#    0.000    0.000    0.000    0.000    0.000    0.000 
#
# Total GULP energy -356501.883782 kJ/mol
# GULP energy per Si atom -5570.341934 kJ/mol
# Density = 1.699272 g / cm^3
# Si number density = 17.031487 Si / 1000 Ang^3
#
#
#
# Elastic Constant Matrix: (Units=GPa)
#
#
# Indices 1 2 3 4 5 6 
#
# 1 32.6384 23.7859 40.7384 0.0000 0.0000 0.0000
# 2 23.7859 71.8751 89.1341 0.0000 0.0000 0.0000
# 3 40.7384 89.1341 154.0782 0.0000 0.0000 0.0000
# 4 0.0000 0.0000 0.0000 39.6319 0.0000 0.0000
# 5 0.0000 0.0000 0.0000 0.0000 5.1999 0.0000
# 6 0.0000 0.0000 0.0000 0.0000 0.0000 16.1634
#
#
#
# Elastic Compliance Matrix: (Units=1/GPa)
#
#
# Indices 1 2 3 4 5 6 
#
# 1 0.045736 -0.000492 -0.011808 0.000000 0.000000 0.000000
# 2 -0.000492 0.049239 -0.028355 0.000000 0.000000 0.000000
# 3 -0.011808 -0.028355 0.026015 0.000000 0.000000 0.000000
# 4 0.000000 0.000000 0.000000 0.025232 0.000000 0.000000
# 5 0.000000 0.000000 0.000000 0.000000 0.192310 0.000000
# 6 0.000000 0.000000 0.000000 0.000000 0.000000 0.061868
#
#
# Mechanical properties :
#
#
# Convention : Reuss Voigt Hill
#
# Bulk Modulus (GPa) = 25.20116 62.87873 44.03995
# Shear Modulus (GPa) = 10.10228 19.19459 14.64844
#
# Velocity S-wave (km/s) = 2.43812 3.36073 2.93589
# Velocity P-wave (km/s) = 4.77020 7.21517 6.11610
#
# Compressibility (1/GPa) = 0.03968071
#
# Stress axis : x y z
#
# Youngs Moduli (GPa) = 21.86476 20.30891 38.43878
#
# Poissons Ratio (x) = 0.01000 0.45387
# Poissons Ratio (y) = 0.01077 1.08992
# Poissons Ratio (z) = 0.25817 0.57585
#
# Static dielectric constant tensor:
#      x y z
#    x 1.579340 0.000000 0.000000 
#    y 0.000000 1.571780 0.000000 
#    z 0.000000 0.000000 1.569010 
# 
# From -- ./inp_files/64872.got.cif
#   From: 2010.05.17/outbox.cif.g08.bks.cpg/sg65_33_cif.got.tgz:64872.got - 2010.06.03 17:01:31.
