data_PCOD9489957
_publ_section_title
;
Structure prediction by ZEFSAII (Michael W. Deem and Ramdas Pophale) SiO2 
 PCOD9489957
Probable space group: C M M M
;
_chemical_formula_sum "Si O2"
_cell_formula_units_Z 56
_cell_length_a 15.216287
_cell_length_b 8.891791
_cell_length_c 19.078532
_cell_angle_alpha 90.000000
_cell_angle_beta 90.000000
_cell_angle_gamma 90.000000
_cell_volume 2581.326215
_symmetry_space_group_name_H-M "C M M M"
_symmetry_group_IT_number 65
_symmetry_cell_setting 'orthorhombic'
loop_
_space_group_symop_operation_xyz
x,y,z
-x,-y,z
x,-y,-z
-x,y,-z
-x,-y,-z
x,y,-z
-x,y,z
x,-y,z
1/2+x,1/2+y,z
1/2-x,1/2-y,z
1/2+x,1/2-y,-z
1/2-x,1/2+y,-z
1/2-x,1/2-y,-z
1/2+x,1/2+y,-z
1/2-x,1/2+y,z
1/2+x,1/2-y,z
loop_
_atom_site_type_symbol
_atom_site_label
_atom_site_fract_x
_atom_site_fract_y
_atom_site_fract_z
Si Si1 0.103926 0.667697 0.858960
Si Si2 0.652810 0.321000 0.283542
Si Si3 0.891930 0.827077 0.000000
Si Si4 0.151470 0.680269 0.422997
O O1 0.141537 0.500000 0.847601
O O2 0.113762 0.767615 0.789891
O O3 0.000000 0.652274 0.870425
O O4 0.138702 0.744333 0.929496
O O5 0.655183 0.500000 0.288699
O O6 0.750000 0.250000 0.282364
O O7 0.609301 0.252353 0.353811
O O8 0.000000 0.826744 0.000000
O O9 0.864226 0.000000 0.000000
O O10 0.111570 0.710798 0.500000
O O11 0.156869 0.500000 0.414527
O O12 0.250000 0.750000 0.425841
#
# Coordination Sequence:
#
# PCOD9489957 Si02
#       4
#    16  16   8  16
#     4  10  20  35  55  77 102 133 169 207 249 298
#     4  11  21  33  51  75 105 136 168 208 253 299
#     4   9  17  31  52  77 102 129 166 207 245 291
#     4   9  16  27  45  69  97 129 166 206 247 293
#
# _framework density 21.694274
#
# number of rings (size 3 to 8) (size 9 to 14) (size 15 to 20)
#    0.000    2.143    0.000    6.429    0.000    5.143 
#    0.000    0.714    0.000    0.857    0.000    6.000 
#    0.000    0.000    0.000    0.000    0.000    0.000 
#
# Total GULP energy -156281.464695 kJ/mol
# GULP energy per Si atom -5581.480882 kJ/mol
# Density = 2.164490 g / cm^3
# Si number density = 21.694274 Si / 1000 Ang^3
#
#
#
# Elastic Constant Matrix: (Units=GPa)
#
#
# Indices 1 2 3 4 5 6 
#
# 1 30.3363 9.3173 10.2069 0.0000 0.0000 0.0000
# 2 9.3173 197.3578 110.0786 0.0000 0.0000 0.0000
# 3 10.2069 110.0786 238.3247 0.0000 0.0000 0.0000
# 4 0.0000 0.0000 0.0000 -108.1633 0.0000 0.0000
# 5 0.0000 0.0000 0.0000 0.0000 6.1196 0.0000
# 6 0.0000 0.0000 0.0000 0.0000 0.0000 12.2810
#
#
#
# Elastic Compliance Matrix: (Units=1/GPa)
#
#
# Indices 1 2 3 4 5 6 
#
# 1 0.033608 -0.001056 -0.000952 0.000000 0.000000 0.000000
# 2 -0.001056 0.006858 -0.003123 0.000000 0.000000 0.000000
# 3 -0.000952 -0.003123 0.005679 0.000000 0.000000 0.000000
# 4 0.000000 0.000000 0.000000 -0.009245 0.000000 0.000000
# 5 0.000000 0.000000 0.000000 0.000000 0.163410 0.000000
# 6 0.000000 0.000000 0.000000 0.000000 0.000000 0.081426
#
#
# Mechanical properties :
#
#
# Convention : Reuss Voigt Hill
#
# Bulk Modulus (GPa) = 27.86644 80.58049 54.22347
# Shear Modulus (GPa) = 16.44959 4.47521 10.46240
#
# Velocity S-wave (km/s) = 2.75661 1.43782 2.19844
# Velocity P-wave (km/s) = 4.79634 6.32303 5.61184
#
# Compressibility (1/GPa) = 0.03588546
#
# Stress axis : x y z
#
# Youngs Moduli (GPa) = 29.75460 145.80563 176.08756
#
# Poissons Ratio (x) = 0.15395 0.16758
# Poissons Ratio (y) = 0.03142 0.54985
# Poissons Ratio (z) = 0.02832 0.45529
#
# Static dielectric constant tensor:
#      x y z
#    x 1.830740 0.000000 0.000000 
#    y 0.000000 1.751870 0.000000 
#    z 0.000000 0.000000 1.842550 
# 
# From -- ./inp_files/35489.got.cif
#   From: 2010.05.17/outbox.cif.g08.bks.cpg/sg65_18_cif.got.tgz:35489.got - 2010.06.03 17:01:31.
