data_PCOD9489789
_publ_section_title
;
Structure prediction by ZEFSAII (Michael W. Deem and Ramdas Pophale) SiO2 
 PCOD9489789
Probable space group: C M M M
;
_chemical_formula_sum "Si O2"
_cell_formula_units_Z 88
_cell_length_a 8.335581
_cell_length_b 29.511667
_cell_length_c 18.826808
_cell_angle_alpha 90.000000
_cell_angle_beta 90.000000
_cell_angle_gamma 90.000000
_cell_volume 4631.336230
_symmetry_space_group_name_H-M "C M M M"
_symmetry_group_IT_number 65
_symmetry_cell_setting 'orthorhombic'
loop_
_space_group_symop_operation_xyz
x,y,z
-x,-y,z
x,-y,-z
-x,y,-z
-x,-y,-z
x,y,-z
-x,y,z
x,-y,z
1/2+x,1/2+y,z
1/2-x,1/2-y,z
1/2+x,1/2-y,-z
1/2-x,1/2+y,-z
1/2-x,1/2-y,-z
1/2+x,1/2+y,-z
1/2-x,1/2+y,z
1/2+x,1/2-y,z
loop_
_atom_site_type_symbol
_atom_site_label
_atom_site_fract_x
_atom_site_fract_y
_atom_site_fract_z
Si Si1 0.679273 0.824626 0.349123
Si Si2 0.807585 0.000000 0.582448
Si Si3 0.681752 0.928889 0.694725
Si Si4 0.687162 0.298539 0.798479
Si Si5 0.808924 0.901342 0.159030
Si Si6 0.000000 0.446858 0.085101
Si Si7 0.811128 0.199098 0.500000
O O1 0.500000 0.805012 0.348948
O O2 0.672854 0.877137 0.329500
O O3 0.775417 0.801426 0.285575
O O4 0.749006 0.821702 0.427204
O O5 0.746872 0.957847 0.629259
O O6 0.751662 0.000000 0.500000
O O7 0.000000 0.000000 0.581218
O O8 0.500000 0.943707 0.713348
O O9 0.790769 0.927067 0.764988
O O10 0.500000 0.297591 0.809424
O O11 0.750000 0.250000 0.825841
O O12 0.738179 0.347778 0.830028
O O13 0.665638 0.923353 0.112515
O O14 0.000000 0.903914 0.137525
O O15 0.000000 0.500000 0.106649
O O16 0.000000 0.444656 0.000000
O O17 0.750000 0.250000 0.500000
O O18 0.000000 0.197408 0.500000
#
# Coordination Sequence:
#
# PCOD9489789 Si02
#       7
#    16   8  16  16  16   8   8
#     4  10  21  36  53  75 108 145 195 252 309 368
#     4  11  25  39  53  81 119 160 211 269 329 387
#     4  10  21  38  61  84 114 157 208 258 313 375
#     4  10  20  34  59  93 124 163 208 258 311 371
#     4  10  22  41  67 100 135 172 216 266 320 381
#     4  11  26  46  72 104 136 174 214 258 323 387
#     4  12  24  36  50  67  98 143 188 242 303 366
#
# _framework density 19.000996000000001
#
# number of rings (size 3 to 8) (size 9 to 14) (size 15 to 20)
#    0.000    1.636    0.909    3.273    5.091    3.636 
#    0.000    0.909    0.000    0.545    0.000    0.000 
#    0.000    0.000    0.000    0.000    0.000    0.000 
#
# Total GULP energy -245291.866789 kJ/mol
# GULP energy per Si atom -5574.815154 kJ/mol
# Density = 1.895775 g / cm^3
# Si number density = 19.000996 Si / 1000 Ang^3
#
#
#
# Elastic Constant Matrix: (Units=GPa)
#
#
# Indices 1 2 3 4 5 6 
#
# 1 82.3782 51.6731 40.5059 0.0000 0.0000 0.0000
# 2 51.6731 113.9856 40.4689 0.0000 0.0000 0.0000
# 3 40.5059 40.4689 73.0613 0.0000 0.0000 0.0000
# 4 0.0000 0.0000 0.0000 17.1648 0.0000 0.0000
# 5 0.0000 0.0000 0.0000 0.0000 23.2146 0.0000
# 6 0.0000 0.0000 0.0000 0.0000 0.0000 33.5246
#
#
#
# Elastic Compliance Matrix: (Units=1/GPa)
#
#
# Indices 1 2 3 4 5 6 
#
# 1 0.019768 -0.006312 -0.007464 0.000000 0.000000 0.000000
# 2 -0.006312 0.012936 -0.003666 0.000000 0.000000 0.000000
# 3 -0.007464 -0.003666 0.019856 0.000000 0.000000 0.000000
# 4 0.000000 0.000000 0.000000 0.058259 0.000000 0.000000
# 5 0.000000 0.000000 0.000000 0.000000 0.043076 0.000000
# 6 0.000000 0.000000 0.000000 0.000000 0.000000 0.029829
#
#
# Mechanical properties :
#
#
# Convention : Reuss Voigt Hill
#
# Bulk Modulus (GPa) = 56.57018 59.41344 57.99181
# Shear Modulus (GPa) = 22.27188 23.89928 23.08558
#
# Velocity S-wave (km/s) = 3.42737 3.55038 3.48942
# Velocity P-wave (km/s) = 6.74532 6.93855 6.84262
#
# Compressibility (1/GPa) = 0.01767716
#
# Stress axis : x y z
#
# Youngs Moduli (GPa) = 50.58649 77.30463 50.36360
#
# Poissons Ratio (x) = 0.48792 0.37589
# Poissons Ratio (y) = 0.31928 0.18463
# Poissons Ratio (z) = 0.37756 0.28340
#
# Static dielectric constant tensor:
#      x y z
#    x 1.675530 0.000000 0.000000 
#    y 0.000000 1.715530 0.000000 
#    z 0.000000 0.000000 1.561810 
# 
# From -- ./inp_files/50531.got.cif
#   From: 2010.05.17/outbox.cif.g08.bks.cpg/sg65_26_cif.got.tgz:50531.got - 2010.06.03 17:01:31.
