data_PCOD9489198
_publ_section_title
;
Structure prediction by ZEFSAII (Michael W. Deem and Ramdas Pophale) SiO2 
 PCOD9489198
Probable space group: C M M M
;
_chemical_formula_sum "Si O2"
_cell_formula_units_Z 104
_cell_length_a 32.807221
_cell_length_b 21.126984
_cell_length_c 8.347403
_cell_angle_alpha 90.000000
_cell_angle_beta 90.000000
_cell_angle_gamma 90.000000
_cell_volume 5785.732210
_symmetry_space_group_name_H-M "C M M M"
_symmetry_group_IT_number 65
_symmetry_cell_setting 'orthorhombic'
loop_
_space_group_symop_operation_xyz
x,y,z
-x,-y,z
x,-y,-z
-x,y,-z
-x,-y,-z
x,y,-z
-x,y,z
x,-y,z
1/2+x,1/2+y,z
1/2-x,1/2-y,z
1/2+x,1/2-y,-z
1/2-x,1/2+y,-z
1/2-x,1/2-y,-z
1/2+x,1/2+y,-z
1/2-x,1/2+y,z
1/2+x,1/2-y,z
loop_
_atom_site_type_symbol
_atom_site_label
_atom_site_fract_x
_atom_site_fract_y
_atom_site_fract_z
Si Si1 0.817819 0.571437 0.808608
Si Si2 0.226039 0.071594 0.306946
Si Si3 0.665511 0.321215 0.688910
Si Si4 0.427257 0.364838 0.310884
Si Si5 0.048578 0.000000 0.685560
Si Si6 0.044940 0.267664 0.189846
Si Si7 0.132184 0.310415 0.308394
O O1 0.830276 0.500000 0.760822
O O2 0.773130 0.583027 0.735020
O O3 0.849050 0.624906 0.754598
O O4 0.814032 0.572991 0.000000
O O5 0.221547 0.070532 0.500000
O O6 0.198096 0.128976 0.243408
O O7 0.215331 0.000000 0.249531
O O8 0.675645 0.313394 0.500000
O O9 0.620913 0.352568 0.698251
O O10 0.658299 0.250342 0.755076
O O11 0.439007 0.362965 0.500000
O O12 0.437133 0.433779 0.243041
O O13 0.449540 0.306919 0.225987
O O14 0.063879 0.000000 0.500000
O O15 0.000000 0.000000 0.682357
O O16 0.084870 0.300202 0.263975
O O17 0.000000 0.287643 0.249564
O O18 0.046262 0.277836 0.000000
O O19 0.134940 0.309085 0.500000
#
# Coordination Sequence:
#
# PCOD9489198 Si02
#       7
#    16  16  16  16   8  16  16
#     4  10  21  37  55  76 104 135 167 204 251 307
#     4   9  17  30  50  73 100 137 179 216 253 299
#     4   8  16  29  46  73 101 130 170 218 262 296
#     4   9  17  29  46  68  97 133 175 221 266 307
#     4   9  16  24  39  65  93 125 171 225 271 307
#     4  10  20  34  52  74 102 135 169 206 252 307
#     4  10  20  35  56  80 105 132 168 212 256 305
#
# _framework density 17.975252999999999
#
# number of rings (size 3 to 8) (size 9 to 14) (size 15 to 20)
#    0.000    2.692    0.000    2.769    1.077    3.385 
#    0.000    7.308    0.000    1.846    0.000    3.231 
#    0.000    0.000    0.000    0.000    0.000    0.000 
#
# Total GULP energy -289775.823310 kJ/mol
# GULP energy per Si atom -5572.611987 kJ/mol
# Density = 1.793434 g / cm^3
# Si number density = 17.975253 Si / 1000 Ang^3
#
#
#
# Elastic Constant Matrix: (Units=GPa)
#
#
# Indices 1 2 3 4 5 6 
#
# 1 78.4013 73.4523 6.5321 0.0000 0.0000 0.0000
# 2 73.4523 126.0039 12.1513 0.0000 0.0000 0.0000
# 3 6.5321 12.1513 14.4622 0.0000 0.0000 0.0000
# 4 0.0000 0.0000 0.0000 10.6768 0.0000 0.0000
# 5 0.0000 0.0000 0.0000 0.0000 57.8221 0.0000
# 6 0.0000 0.0000 0.0000 0.0000 0.0000 13.3344
#
#
#
# Elastic Compliance Matrix: (Units=1/GPa)
#
#
# Indices 1 2 3 4 5 6 
#
# 1 0.028121 -0.016505 0.001167 0.000000 0.000000 0.000000
# 2 -0.016505 0.018324 -0.007941 0.000000 0.000000 0.000000
# 3 0.001167 -0.007941 0.075291 0.000000 0.000000 0.000000
# 4 0.000000 0.000000 0.000000 0.093661 0.000000 0.000000
# 5 0.000000 0.000000 0.000000 0.000000 0.017294 0.000000
# 6 0.000000 0.000000 0.000000 0.000000 0.000000 0.074994
#
#
# Mechanical properties :
#
#
# Convention : Reuss Voigt Hill
#
# Bulk Modulus (GPa) = 13.30200 44.79316 29.04758
# Shear Modulus (GPa) = 13.18208 24.81545 18.99876
#
# Velocity S-wave (km/s) = 2.71097 3.71958 3.25459
# Velocity P-wave (km/s) = 4.14915 6.58943 5.50618
#
# Compressibility (1/GPa) = 0.07517667
#
# Stress axis : x y z
#
# Youngs Moduli (GPa) = 35.56042 54.57443 13.28181
#
# Poissons Ratio (x) = 0.90077 -0.01549
# Poissons Ratio (y) = 0.58694 0.10547
# Poissons Ratio (z) = -0.04149 0.43336
#
# Static dielectric constant tensor:
#      x y z
#    x 1.603270 0.000000 0.000000 
#    y 0.000000 1.634640 0.000000 
#    z 0.000000 0.000000 1.631850 
# 
# From -- ./inp_files/18704.got.cif
#   From: 2010.05.17/outbox.cif.g08.bks.cpg/sg65_10_cif.got.tgz:18704.got - 2010.06.03 17:01:31.
