data_PCOD9489574
_publ_section_title
;
Structure prediction by ZEFSAII (Michael W. Deem and Ramdas Pophale) SiO2 
 PCOD9489574
Probable space group: C M M M
;
_chemical_formula_sum "Si O2"
_cell_formula_units_Z 104
_cell_length_a 21.800638
_cell_length_b 9.340320
_cell_length_c 27.227150
_cell_angle_alpha 90.000000
_cell_angle_beta 90.000000
_cell_angle_gamma 90.000000
_cell_volume 5544.126652
_symmetry_space_group_name_H-M "C M M M"
_symmetry_group_IT_number 65
_symmetry_cell_setting 'orthorhombic'
loop_
_space_group_symop_operation_xyz
x,y,z
-x,-y,z
x,-y,-z
-x,y,-z
-x,-y,-z
x,y,-z
-x,y,z
x,-y,z
1/2+x,1/2+y,z
1/2-x,1/2-y,z
1/2+x,1/2-y,-z
1/2-x,1/2+y,-z
1/2-x,1/2-y,-z
1/2+x,1/2+y,-z
1/2-x,1/2+y,z
1/2+x,1/2-y,z
loop_
_atom_site_type_symbol
_atom_site_label
_atom_site_fract_x
_atom_site_fract_y
_atom_site_fract_z
Si Si1 0.311426 0.167750 0.739578
Si Si2 0.879599 0.668825 0.359140
Si Si3 0.631958 0.667605 0.824707
Si Si4 0.000000 0.834492 0.805814
Si Si5 0.186154 0.172779 0.927724
Si Si6 0.000000 0.328215 0.297261
Si Si7 0.685575 0.668826 0.557421
Si Si8 0.926170 0.826999 0.000000
O O1 0.250000 0.250000 0.751216
O O2 0.328141 0.187962 0.682732
O O3 0.359314 0.237617 0.776579
O O4 0.306900 0.000000 0.748858
O O5 0.882610 0.500000 0.371970
O O6 0.941197 0.708965 0.330193
O O7 0.863528 0.762106 0.406139
O O8 0.642739 0.500000 0.813021
O O9 0.560680 0.685757 0.837696
O O10 0.674418 0.706272 0.870345
O O11 0.000000 0.743100 0.756017
O O12 0.000000 0.000000 0.789184
O O13 0.250000 0.250000 0.943056
O O14 0.121691 0.211495 0.955290
O O15 0.193380 0.000000 0.933488
O O16 0.000000 0.500000 0.290226
O O17 0.669200 0.687291 0.500000
O O18 0.693201 0.500000 0.566962
O O19 0.750000 0.750000 0.565469
O O20 0.000000 0.778984 0.000000
O O21 0.930503 0.000000 0.000000
#
# Coordination Sequence:
#
# PCOD9489574 Si02
#       8
#    16  16  16   8  16   8  16   8
#     4  11  22  35  53  78 110 145 183 227 275 331
#     4  10  21  36  56  80 107 142 181 224 270 325
#     4  10  21  35  54  82 114 147 187 231 280 335
#     4  10  20  34  54  80 111 148 188 233 279 326
#     4  10  21  37  59  86 116 152 192 239 290 345
#     4  10  20  38  57  79 109 144 185 224 267 324
#     4  10  21  37  58  83 110 140 177 223 274 327
#     4   9  19  36  61  89 114 147 194 244 292 341
#
# _framework density 18.758590000000002
#
# number of rings (size 3 to 8) (size 9 to 14) (size 15 to 20)
#    0.000    1.923    1.538    2.077    1.077    5.846 
#    0.000    0.385    0.000    3.231    0.000    0.000 
#    0.000    0.000    0.000    0.000    0.000    0.000 
#
# Total GULP energy -289817.984151 kJ/mol
# GULP energy per Si atom -5573.422772 kJ/mol
# Density = 1.871589 g / cm^3
# Si number density = 18.758590 Si / 1000 Ang^3
#
#
#
# Elastic Constant Matrix: (Units=GPa)
#
#
# Indices 1 2 3 4 5 6 
#
# 1 109.9167 31.1550 30.0349 0.0000 0.0000 0.0000
# 2 31.1550 43.8289 47.0119 0.0000 0.0000 0.0000
# 3 30.0349 47.0119 81.9353 0.0000 0.0000 0.0000
# 4 0.0000 0.0000 0.0000 13.8660 0.0000 0.0000
# 5 0.0000 0.0000 0.0000 0.0000 29.5742 0.0000
# 6 0.0000 0.0000 0.0000 0.0000 0.0000 24.5634
#
#
#
# Elastic Compliance Matrix: (Units=1/GPa)
#
#
# Indices 1 2 3 4 5 6 
#
# 1 0.011441 -0.009450 0.001228 0.000000 0.000000 0.000000
# 2 -0.009450 0.067135 -0.035056 0.000000 0.000000 0.000000
# 3 0.001228 -0.035056 0.031869 0.000000 0.000000 0.000000
# 4 0.000000 0.000000 0.000000 0.072119 0.000000 0.000000
# 5 0.000000 0.000000 0.000000 0.000000 0.033813 0.000000
# 6 0.000000 0.000000 0.000000 0.000000 0.000000 0.040711
#
#
# Mechanical properties :
#
#
# Convention : Reuss Voigt Hill
#
# Bulk Modulus (GPa) = 41.86005 50.23160 46.04582
# Shear Modulus (GPa) = 14.22048 22.09933 18.15991
#
# Velocity S-wave (km/s) = 2.75631 3.43606 3.11478
# Velocity P-wave (km/s) = 5.70028 6.52518 6.12663
#
# Compressibility (1/GPa) = 0.02388913
#
# Stress axis : x y z
#
# Youngs Moduli (GPa) = 87.40759 14.89536 31.37892
#
# Poissons Ratio (x) = 0.14076 -0.03854
# Poissons Ratio (y) = 0.82598 1.10002
# Poissons Ratio (z) = -0.10735 0.52217
#
# Static dielectric constant tensor:
#      x y z
#    x 1.700280 0.000000 0.000000 
#    y 0.000000 1.626430 0.000000 
#    z 0.000000 0.000000 1.634090 
# 
# From -- ./inp_files/75578.got.cif
#   From: 2010.05.17/outbox.cif.g08.bks.cpg/sg65_38_cif.got.tgz:75578.got - 2010.06.03 17:01:31.
