data_PCOD9489063
_publ_section_title
;
Structure prediction by ZEFSAII (Michael W. Deem and Ramdas Pophale) SiO2 
 PCOD9489063
Probable space group: C M M M
;
_chemical_formula_sum "Si O2"
_cell_formula_units_Z 80
_cell_length_a 8.723152
_cell_length_b 26.938111
_cell_length_c 19.563481
_cell_angle_alpha 90.000000
_cell_angle_beta 90.000000
_cell_angle_gamma 90.000000
_cell_volume 4597.129216
_symmetry_space_group_name_H-M "C M M M"
_symmetry_group_IT_number 65
_symmetry_cell_setting 'orthorhombic'
loop_
_space_group_symop_operation_xyz
x,y,z
-x,-y,z
x,-y,-z
-x,y,-z
-x,-y,-z
x,y,-z
-x,y,z
x,-y,z
1/2+x,1/2+y,z
1/2-x,1/2-y,z
1/2+x,1/2-y,-z
1/2-x,1/2+y,-z
1/2-x,1/2-y,-z
1/2+x,1/2+y,-z
1/2-x,1/2+y,z
1/2+x,1/2-y,z
loop_
_atom_site_type_symbol
_atom_site_label
_atom_site_fract_x
_atom_site_fract_y
_atom_site_fract_z
Si Si1 0.315327 0.197105 0.176223
Si Si2 0.683714 0.196617 0.664643
Si Si3 0.183110 0.895047 0.419505
Si Si4 0.176704 0.500000 0.083140
Si Si5 0.177950 0.500000 0.417019
Si Si6 0.187825 0.608051 0.920909
O O1 0.500000 0.199021 0.173409
O O2 0.250000 0.250000 0.153432
O O3 0.271519 0.189769 0.255588
O O4 0.262811 0.152091 0.128483
O O5 0.500000 0.198119 0.660448
O O6 0.750000 0.250000 0.642213
O O7 0.746225 0.150846 0.621173
O O8 0.223634 0.890488 0.500000
O O9 0.244160 0.948628 0.394595
O O10 0.000000 0.894218 0.413881
O O11 0.244119 0.446583 0.102168
O O12 0.000000 0.500000 0.107167
O O13 0.172663 0.500000 0.000000
O O14 0.187944 0.500000 0.500000
O O15 0.000000 0.500000 0.397625
O O16 0.000000 0.606276 0.920026
O O17 0.231808 0.616387 0.000000
#
# Coordination Sequence:
#
# PCOD9489063 Si02
#       6
#    16  16  16   8   8  16
#     4   9  18  31  46  66  92 123 157 192 233 281
#     4  10  20  34  50  68  94 128 164 202 247 297
#     4  10  20  34  53  76 100 127 161 200 241 287
#     4   7  10  18  35  60  88 116 144 179 226 270
#     4   9  17  31  52  77 104 132 160 193 236 283
#     4   8  13  23  41  65  92 120 152 191 232 275
#
# _framework density 17.402165
#
# number of rings (size 3 to 8) (size 9 to 14) (size 15 to 20)
#    0.000    3.000    0.000    2.700    0.000    4.000 
#    0.000    1.000    0.000    3.600    0.000    0.700 
#    0.000    2.400    0.000    0.000    0.000    0.000 
#
# Total GULP energy -222830.976689 kJ/mol
# GULP energy per Si atom -5570.774417 kJ/mol
# Density = 1.736256 g / cm^3
# Si number density = 17.402165 Si / 1000 Ang^3
#
#
#
# Elastic Constant Matrix: (Units=GPa)
#
#
# Indices 1 2 3 4 5 6 
#
# 1 21.4513 46.9144 23.9791 0.0000 0.0000 0.0000
# 2 46.9144 225.3623 84.5125 0.0000 0.0000 0.0000
# 3 23.9791 84.5125 50.4139 0.0000 0.0000 0.0000
# 4 0.0000 0.0000 0.0000 -48.0004 0.0000 0.0000
# 5 0.0000 0.0000 0.0000 0.0000 9.0122 0.0000
# 6 0.0000 0.0000 0.0000 0.0000 0.0000 31.5732
#
#
#
# Elastic Compliance Matrix: (Units=1/GPa)
#
#
# Indices 1 2 3 4 5 6 
#
# 1 0.105188 -0.008442 -0.035880 0.000000 0.000000 0.000000
# 2 -0.008442 0.012627 -0.017152 0.000000 0.000000 0.000000
# 3 -0.035880 -0.017152 0.065655 0.000000 0.000000 0.000000
# 4 0.000000 0.000000 0.000000 -0.020833 0.000000 0.000000
# 5 0.000000 0.000000 0.000000 0.000000 0.110961 0.000000
# 6 0.000000 0.000000 0.000000 0.000000 0.000000 0.031672
#
#
# Mechanical properties :
#
#
# Convention : Reuss Voigt Hill
#
# Bulk Modulus (GPa) = 16.52294 67.55995 42.04144
# Shear Modulus (GPa) = 11.15096 7.97176 9.56136
#
# Velocity S-wave (km/s) = 2.53411 2.14263 2.34655
# Velocity P-wave (km/s) = 4.25178 6.71030 5.61720
#
# Compressibility (1/GPa) = 0.06052191
#
# Stress axis : x y z
#
# Youngs Moduli (GPa) = 9.50674 79.19716 15.23122
#
# Poissons Ratio (x) = 0.66859 0.54650
# Poissons Ratio (y) = 0.08026 0.26124
# Poissons Ratio (z) = 0.34110 1.35836
#
# Static dielectric constant tensor:
#      x y z
#    x 1.587950 0.000000 0.000000 
#    y 0.000000 1.596060 0.000000 
#    z 0.000000 0.000000 1.579580 
# 
# From -- ./inp_files/59674.got.cif
#   From: 2010.05.17/outbox.cif.g08.bks.cpg/sg65_30_cif.got.tgz:59674.got - 2010.06.03 17:01:31.
