data_PCOD9489945
_publ_section_title
;
Structure prediction by ZEFSAII (Michael W. Deem and Ramdas Pophale) SiO2 
 PCOD9489945
Probable space group: C M M M
;
_chemical_formula_sum "Si O2"
_cell_formula_units_Z 120
_cell_length_a 8.621399
_cell_length_b 26.771889
_cell_length_c 27.889893
_cell_angle_alpha 90.000000
_cell_angle_beta 90.000000
_cell_angle_gamma 90.000000
_cell_volume 6437.297916
_symmetry_space_group_name_H-M "C M M M"
_symmetry_group_IT_number 65
_symmetry_cell_setting 'orthorhombic'
loop_
_space_group_symop_operation_xyz
x,y,z
-x,-y,z
x,-y,-z
-x,y,-z
-x,-y,-z
x,y,-z
-x,y,z
x,-y,z
1/2+x,1/2+y,z
1/2-x,1/2-y,z
1/2+x,1/2-y,-z
1/2-x,1/2+y,-z
1/2-x,1/2-y,-z
1/2+x,1/2+y,-z
1/2-x,1/2+y,z
1/2+x,1/2-y,z
loop_
_atom_site_type_symbol
_atom_site_label
_atom_site_fract_x
_atom_site_fract_y
_atom_site_fract_z
Si Si1 0.814185 0.899718 0.611139
Si Si2 0.812378 0.838147 0.052709
Si Si3 0.186700 0.054176 0.911694
Si Si4 0.685767 0.804238 0.444163
Si Si5 0.187192 0.409410 0.812063
Si Si6 0.688910 0.500000 0.444665
Si Si7 0.815581 0.301362 0.151899
Si Si8 0.687301 0.942694 0.705856
O O1 0.748441 0.849854 0.587148
O O2 0.758901 0.907571 0.665499
O O3 0.000000 0.898149 0.609201
O O4 0.760762 0.949379 0.582064
O O5 0.763249 0.896168 0.060166
O O6 0.745533 0.808800 0.097757
O O7 0.000000 0.836096 0.055032
O O8 0.763265 0.820734 0.000000
O O9 0.239321 0.061583 0.856760
O O10 0.000000 0.054116 0.913535
O O11 0.241659 0.000000 0.929425
O O12 0.732648 0.811875 0.500000
O O13 0.500000 0.803251 0.441948
O O14 0.750000 0.750000 0.429235
O O15 0.229952 0.351290 0.819487
O O16 0.233941 0.428824 0.759984
O O17 0.000000 0.413889 0.815849
O O18 0.500000 0.500000 0.444083
O O19 0.738944 0.500000 0.500000
O O20 0.750000 0.250000 0.172094
O O21 0.000000 0.298909 0.150788
O O22 0.500000 0.939590 0.703524
O O23 0.733241 0.000000 0.695898
#
# Coordination Sequence:
#
# PCOD9489945 Si02
#       8
#    16  16  16  16  16   8  16  16
#     4  11  21  35  55  82 116 151 188 230 277 328
#     4   9  18  32  49  71 101 135 169 204 248 305
#     4   9  17  29  47  73 102 131 166 210 255 303
#     4  10  21  38  60  85 112 146 189 234 278 326
#     4   9  19  35  54  75  98 133 175 216 263 315
#     4   9  18  32  51  77 111 149 185 223 270 323
#     4  10  20  35  55  76  99 127 166 214 263 314
#     4  10  20  35  55  78 109 145 179 218 267 322
#
# _framework density 18.641362000000001
#
# number of rings (size 3 to 8) (size 9 to 14) (size 15 to 20)
#    0.000    2.333    0.667    2.000    0.000    4.000 
#    0.000    2.000    0.000    3.200    0.000    3.733 
#    0.000    0.000    0.000    0.000    0.000    0.000 
#
# Total GULP energy -334870.673563 kJ/mol
# GULP energy per Si atom -5581.177893 kJ/mol
# Density = 1.859893 g / cm^3
# Si number density = 18.641362 Si / 1000 Ang^3
#
#
#
# Elastic Constant Matrix: (Units=GPa)
#
#
# Indices 1 2 3 4 5 6 
#
# 1 17.1264 21.2871 10.7438 0.0000 0.0000 0.0000
# 2 21.2871 107.1428 17.6987 0.0000 0.0000 0.0000
# 3 10.7438 17.6987 69.6353 0.0000 0.0000 0.0000
# 4 0.0000 0.0000 0.0000 1.9459 0.0000 0.0000
# 5 0.0000 0.0000 0.0000 0.0000 21.6942 0.0000
# 6 0.0000 0.0000 0.0000 0.0000 0.0000 23.5181
#
#
#
# Elastic Compliance Matrix: (Units=1/GPa)
#
#
# Indices 1 2 3 4 5 6 
#
# 1 0.082549 -0.014923 -0.008943 0.000000 0.000000 0.000000
# 2 -0.014923 0.012440 -0.000859 0.000000 0.000000 0.000000
# 3 -0.008943 -0.000859 0.015959 0.000000 0.000000 0.000000
# 4 0.000000 0.000000 0.000000 0.513903 0.000000 0.000000
# 5 0.000000 0.000000 0.000000 0.000000 0.046095 0.000000
# 6 0.000000 0.000000 0.000000 0.000000 0.000000 0.042520
#
#
# Mechanical properties :
#
#
# Convention : Reuss Voigt Hill
#
# Bulk Modulus (GPa) = 16.26129 32.59594 24.42862
# Shear Modulus (GPa) = 6.38230 19.04331 12.71280
#
# Velocity S-wave (km/s) = 1.85234 3.19966 2.61428
# Velocity P-wave (km/s) = 3.64925 5.58338 4.71653
#
# Compressibility (1/GPa) = 0.06149574
#
# Stress axis : x y z
#
# Youngs Moduli (GPa) = 12.11409 80.38420 62.66151
#
# Poissons Ratio (x) = 1.19960 0.56039
# Poissons Ratio (y) = 0.18078 0.05385
# Poissons Ratio (z) = 0.10834 0.06908
#
# Static dielectric constant tensor:
#      x y z
#    x 1.628150 0.000000 0.000000 
#    y 0.000000 1.656090 0.000000 
#    z 0.000000 0.000000 1.619910 
# 
# From -- ./inp_files/74014.got.cif
#   From: 2010.05.17/outbox.cif.g08.bks.cpg/sg65_38_cif.got.tgz:74014.got - 2010.06.03 17:01:31.
