data_PCOD9489529
_publ_section_title
;
Structure prediction by ZEFSAII (Michael W. Deem and Ramdas Pophale) SiO2 
 PCOD9489529
Probable space group: C M M M
;
_chemical_formula_sum "Si O2"
_cell_formula_units_Z 120
_cell_length_a 20.926175
_cell_length_b 14.552011
_cell_length_c 21.490994
_cell_angle_alpha 90.000000
_cell_angle_beta 90.000000
_cell_angle_gamma 90.000000
_cell_volume 6544.392980
_symmetry_space_group_name_H-M "C M M M"
_symmetry_group_IT_number 65
_symmetry_cell_setting 'orthorhombic'
loop_
_space_group_symop_operation_xyz
x,y,z
-x,-y,z
x,-y,-z
-x,y,-z
-x,-y,-z
x,y,-z
-x,y,z
x,-y,z
1/2+x,1/2+y,z
1/2-x,1/2-y,z
1/2+x,1/2-y,-z
1/2-x,1/2+y,-z
1/2-x,1/2-y,-z
1/2+x,1/2+y,-z
1/2-x,1/2+y,z
1/2+x,1/2-y,z
loop_
_atom_site_type_symbol
_atom_site_label
_atom_site_fract_x
_atom_site_fract_y
_atom_site_fract_z
Si Si1 0.430132 0.754923 0.827316
Si Si2 0.631822 0.895129 0.736079
Si Si3 0.175120 0.768201 0.350728
Si Si4 0.747636 0.143073 0.825710
Si Si5 0.133446 0.101335 0.758636
Si Si6 0.569549 0.000000 0.074099
Si Si7 0.656748 0.824791 0.073086
Si Si8 0.925642 0.891954 0.425059
O O1 0.500000 0.761387 0.855677
O O2 0.417173 0.839861 0.780468
O O3 0.422306 0.665539 0.784203
O O4 0.376365 0.751496 0.881194
O O5 0.648012 0.827798 0.678022
O O6 0.694313 0.898710 0.780441
O O7 0.613744 0.000000 0.720302
O O8 0.250000 0.750000 0.368733
O O9 0.170637 0.842533 0.294797
O O10 0.125875 0.818164 0.398749
O O11 0.750000 0.250000 0.806742
O O12 0.814239 0.096924 0.813027
O O13 0.723627 0.145679 0.896636
O O14 0.113776 0.000000 0.739296
O O15 0.610156 0.910410 0.086406
O O16 0.500000 0.000000 0.104195
O O17 0.561843 0.000000 0.000000
O O18 0.659302 0.804520 0.000000
O O19 0.924630 0.886838 0.500000
O O20 0.000000 0.873912 0.404982
O O21 0.911058 0.000000 0.409091
#
# Coordination Sequence:
#
# PCOD9489529 Si02
#       8
#    16  16  16  16  16   8  16  16
#     4  10  22  37  52  76 105 137 181 229 282 342
#     4  10  20  34  54  79 111 149 180 217 275 336
#     4  11  20  34  57  92 123 153 193 238 286 335
#     4  11  18  36  53  76 106 137 176 220 276 331
#     4  11  21  36  57  80 109 145 182 225 280 332
#     4   9  18  32  48  72 100 126 163 209 262 321
#     4  10  21  34  52  75  99 133 174 223 275 335
#     4   9  20  40  64  90 122 161 202 244 289 330
#
# _framework density 18.336307999999999
#
# number of rings (size 3 to 8) (size 9 to 14) (size 15 to 20)
#    0.000    1.800    5.333    1.600    4.667    4.533 
#    0.000    0.000    0.000    1.600    0.000    1.867 
#    0.000    0.000    0.000    0.000    0.000    0.000 
#
# Total GULP energy -334045.686334 kJ/mol
# GULP energy per Si atom -5567.428106 kJ/mol
# Density = 1.829457 g / cm^3
# Si number density = 18.336308 Si / 1000 Ang^3
#
#
#
# Elastic Constant Matrix: (Units=GPa)
#
#
# Indices 1 2 3 4 5 6 
#
# 1 72.3332 19.4402 37.1836 0.0000 0.0000 0.0000
# 2 19.4402 134.4105 33.2686 0.0000 0.0000 0.0000
# 3 37.1836 33.2686 73.6009 0.0000 0.0000 0.0000
# 4 0.0000 0.0000 0.0000 11.6631 0.0000 0.0000
# 5 0.0000 0.0000 0.0000 0.0000 24.0435 0.0000
# 6 0.0000 0.0000 0.0000 0.0000 0.0000 19.9316
#
#
#
# Elastic Compliance Matrix: (Units=1/GPa)
#
#
# Indices 1 2 3 4 5 6 
#
# 1 0.018695 -0.000412 -0.009259 0.000000 0.000000 0.000000
# 2 -0.000412 0.008386 -0.003582 0.000000 0.000000 0.000000
# 3 -0.009259 -0.003582 0.019884 0.000000 0.000000 0.000000
# 4 0.000000 0.000000 0.000000 0.085740 0.000000 0.000000
# 5 0.000000 0.000000 0.000000 0.000000 0.041591 0.000000
# 6 0.000000 0.000000 0.000000 0.000000 0.000000 0.050172
#
#
# Mechanical properties :
#
#
# Convention : Reuss Voigt Hill
#
# Bulk Modulus (GPa) = 48.87952 51.12548 50.00250
# Shear Modulus (GPa) = 19.39534 23.82446 21.60990
#
# Velocity S-wave (km/s) = 3.25584 3.60850 3.43670
# Velocity P-wave (km/s) = 6.39133 6.73085 6.56329
#
# Compressibility (1/GPa) = 0.02045847
#
# Stress axis : x y z
#
# Youngs Moduli (GPa) = 53.48979 119.24321 50.29291
#
# Poissons Ratio (x) = 0.04917 0.46564
# Poissons Ratio (y) = 0.02205 0.18017
# Poissons Ratio (z) = 0.49524 0.42717
#
# Static dielectric constant tensor:
#      x y z
#    x 1.681880 0.000000 0.000000 
#    y 0.000000 1.687920 0.000000 
#    z 0.000000 0.000000 1.643990 
# 
# From -- ./inp_files/64769.got.cif
#   From: 2010.05.17/outbox.cif.g08.bks.cpg/sg65_33_cif.got.tgz:64769.got - 2010.06.03 17:01:31.
