data_PCOD9489705
_publ_section_title
;
Structure prediction by ZEFSAII (Michael W. Deem and Ramdas Pophale) SiO2 
 PCOD9489705
Probable space group: C M M M
;
_chemical_formula_sum "Si O2"
_cell_formula_units_Z 104
_cell_length_a 20.822388
_cell_length_b 8.907169
_cell_length_c 30.451010
_cell_angle_alpha 90.000000
_cell_angle_beta 90.000000
_cell_angle_gamma 90.000000
_cell_volume 5647.704028
_symmetry_space_group_name_H-M "C M M M"
_symmetry_group_IT_number 65
_symmetry_cell_setting 'orthorhombic'
loop_
_space_group_symop_operation_xyz
x,y,z
-x,-y,z
x,-y,-z
-x,y,-z
-x,-y,-z
x,y,-z
-x,y,z
x,-y,z
1/2+x,1/2+y,z
1/2-x,1/2-y,z
1/2+x,1/2-y,-z
1/2-x,1/2+y,-z
1/2-x,1/2-y,-z
1/2+x,1/2+y,-z
1/2-x,1/2+y,z
1/2+x,1/2-y,z
loop_
_atom_site_type_symbol
_atom_site_label
_atom_site_fract_x
_atom_site_fract_y
_atom_site_fract_z
Si Si1 0.181182 0.678786 0.552167
Si Si2 0.000000 0.167650 0.052876
Si Si3 0.075615 0.180026 0.384917
Si Si4 0.865917 0.680293 0.950403
Si Si5 0.575342 0.679603 0.799995
Si Si6 0.815179 0.679715 0.858880
Si Si7 0.422326 0.171711 0.292453
O O1 0.172645 0.705598 0.500000
O O2 0.182731 0.500000 0.559540
O O3 0.250000 0.750000 0.564807
O O4 0.122864 0.751559 0.578924
O O5 0.064439 0.256570 0.062734
O O6 0.000000 0.000000 0.072172
O O7 0.000000 0.154494 0.000000
O O8 0.095615 0.246067 0.337495
O O9 0.000000 0.218783 0.392423
O O10 0.080252 0.000000 0.384397
O O11 0.869109 0.500000 0.951973
O O12 0.820622 0.723378 0.910349
O O13 0.849614 0.733596 0.000000
O O14 0.500000 0.718381 0.807590
O O15 0.580960 0.500000 0.802110
O O16 0.622688 0.756659 0.834321
O O17 0.594387 0.738425 0.751557
O O18 0.813840 0.500000 0.855568
O O19 0.750000 0.750000 0.840401
O O20 0.500000 0.166589 0.292810
O O21 0.398655 0.000000 0.291059
#
# Coordination Sequence:
#
# PCOD9489705 Si02
#       7
#    16   8  16  16  16  16  16
#     4  10  21  37  56  78 109 151 197 243 290 341
#     4   9  17  29  49  79 109 135 169 217 265 307
#     4  10  20  34  55  84 117 151 188 233 284 337
#     4   9  19  36  56  78 107 144 182 221 269 325
#     4  10  21  38  61  87 114 146 184 227 274 330
#     4  11  24  40  58  81 112 148 185 227 276 330
#     4   9  17  32  56  85 115 146 183 228 277 332
#
# _framework density 18.414563000000001
#
# number of rings (size 3 to 8) (size 9 to 14) (size 15 to 20)
#    0.000    2.231    0.000    2.538    1.077    7.385 
#    0.000    2.308    0.000    0.000    0.000    0.000 
#    0.000    0.000    0.000    0.000    0.000    0.000 
#
# Total GULP energy -290125.515228 kJ/mol
# GULP energy per Si atom -5579.336831 kJ/mol
# Density = 1.837265 g / cm^3
# Si number density = 18.414563 Si / 1000 Ang^3
#
#
#
# Elastic Constant Matrix: (Units=GPa)
#
#
# Indices 1 2 3 4 5 6 
#
# 1 107.5139 52.1934 68.8779 0.0000 0.0000 0.0000
# 2 52.1934 63.0947 55.4476 0.0000 0.0000 0.0000
# 3 68.8779 55.4476 105.4583 0.0000 0.0000 0.0000
# 4 0.0000 0.0000 0.0000 24.5909 0.0000 0.0000
# 5 0.0000 0.0000 0.0000 0.0000 -5.9089 0.0000
# 6 0.0000 0.0000 0.0000 0.0000 0.0000 25.5536
#
#
#
# Elastic Compliance Matrix: (Units=1/GPa)
#
#
# Indices 1 2 3 4 5 6 
#
# 1 0.018180 -0.008559 -0.007374 0.000000 0.000000 0.000000
# 2 -0.008559 0.033492 -0.012019 0.000000 0.000000 0.000000
# 3 -0.007374 -0.012019 0.020618 0.000000 0.000000 0.000000
# 4 0.000000 0.000000 0.000000 0.040665 0.000000 0.000000
# 5 0.000000 0.000000 0.000000 0.000000 -0.169235 0.000000
# 6 0.000000 0.000000 0.000000 0.000000 0.000000 0.039133
#
#
# Mechanical properties :
#
#
# Convention : Reuss Voigt Hill
#
# Bulk Modulus (GPa) = 61.02792 69.90054 65.46423
# Shear Modulus (GPa) = 113.07228 15.48365 64.27796
#
# Velocity S-wave (km/s) = 7.84455 2.90287 5.91454
# Velocity P-wave (km/s) = 10.73603 7.01978 9.07027
#
# Compressibility (1/GPa) = 0.01638594
#
# Stress axis : x y z
#
# Youngs Moduli (GPa) = 55.00519 29.85810 48.50133
#
# Poissons Ratio (x) = 0.25555 0.35765
# Poissons Ratio (y) = 0.47078 0.58295
# Poissons Ratio (z) = 0.40560 0.35887
#
# Static dielectric constant tensor:
#      x y z
#    x 1.610950 0.000000 0.000000 
#    y 0.000000 1.619990 0.000000 
#    z 0.000000 0.000000 1.640960 
# 
# From -- ./inp_files/75479.got.cif
#   From: 2010.05.17/outbox.cif.g08.bks.cpg/sg65_38_cif.got.tgz:75479.got - 2010.06.03 17:01:31.
