data_PCOD9489075
_publ_section_title
;
Structure prediction by ZEFSAII (Michael W. Deem and Ramdas Pophale) SiO2 
 PCOD9489075
Probable space group: C M M M
;
_chemical_formula_sum "Si O2"
_cell_formula_units_Z 104
_cell_length_a 31.032700
_cell_length_b 8.735523
_cell_length_c 24.028673
_cell_angle_alpha 90.000000
_cell_angle_beta 90.000000
_cell_angle_gamma 90.000000
_cell_volume 6513.857624
_symmetry_space_group_name_H-M "C M M M"
_symmetry_group_IT_number 65
_symmetry_cell_setting 'orthorhombic'
loop_
_space_group_symop_operation_xyz
x,y,z
-x,-y,z
x,-y,-z
-x,y,-z
-x,-y,-z
x,y,-z
-x,y,z
x,-y,z
1/2+x,1/2+y,z
1/2-x,1/2-y,z
1/2+x,1/2-y,-z
1/2-x,1/2+y,-z
1/2-x,1/2-y,-z
1/2+x,1/2+y,-z
1/2-x,1/2+y,z
1/2+x,1/2-y,z
loop_
_atom_site_type_symbol
_atom_site_label
_atom_site_fract_x
_atom_site_fract_y
_atom_site_fract_z
Si Si1 0.678697 0.817803 0.061913
Si Si2 0.949716 0.685579 0.682487
Si Si3 0.913898 0.679896 0.890057
Si Si4 0.000000 0.173156 0.065920
Si Si5 0.886256 0.818189 0.225240
Si Si6 0.052145 0.680191 0.440234
Si Si7 0.295033 0.316902 0.819747
O O1 0.627205 0.797486 0.069848
O O2 0.698470 0.738431 0.116276
O O3 0.687693 0.000000 0.065272
O O4 0.691685 0.763699 0.000000
O O5 0.949843 0.500000 0.681638
O O6 0.915694 0.741964 0.727767
O O7 0.936017 0.742049 0.620554
O O8 0.000000 0.731687 0.693299
O O9 0.915538 0.500000 0.876193
O O10 0.906313 0.775419 0.834275
O O11 0.957782 0.736127 0.916358
O O12 0.000000 0.000000 0.089368
O O13 0.000000 0.161884 0.000000
O O14 0.836361 0.766863 0.217029
O O15 0.886462 0.000000 0.233664
O O16 0.066757 0.746856 0.500000
O O17 0.063940 0.500000 0.440639
O O18 0.000000 0.685497 0.440363
O O19 0.293928 0.500000 0.819814
O O20 0.250000 0.250000 0.799230
#
# Coordination Sequence:
#
# PCOD9489075 Si02
#       7
#    16  16  16   8  16  16  16
#     4   9  18  33  52  72  92 113 140 178 226 279
#     4   9  17  28  45  70  98 130 168 200 227 266
#     4  10  20  34  51  67  86 116 154 194 230 269
#     4  11  23  35  47  65  89 117 150 189 234 281
#     4  10  21  35  49  68  95 124 154 191 237 283
#     4   7  10  19  37  62  92 125 161 200 233 258
#     4  10  21  36  53  71  90 116 149 186 233 285
#
# _framework density 15.965961999999999
#
# number of rings (size 3 to 8) (size 9 to 14) (size 15 to 20)
#    0.000    2.692    0.000    3.462    1.077    4.615 
#    0.000    0.000    0.000    0.462    0.000    2.154 
#    0.000    0.615    0.000    1.385    0.000    2.154 
#
# Total GULP energy -289605.314440 kJ/mol
# GULP energy per Si atom -5569.332970 kJ/mol
# Density = 1.592962 g / cm^3
# Si number density = 15.965962 Si / 1000 Ang^3
#
#
#
# Elastic Constant Matrix: (Units=GPa)
#
#
# Indices 1 2 3 4 5 6 
#
# 1 96.6737 21.3903 42.6057 0.0000 0.0000 0.0000
# 2 21.3903 16.5861 12.8143 0.0000 0.0000 0.0000
# 3 42.6057 12.8143 104.8555 0.0000 0.0000 0.0000
# 4 0.0000 0.0000 0.0000 2.0299 0.0000 0.0000
# 5 0.0000 0.0000 0.0000 0.0000 0.1924 0.0000
# 6 0.0000 0.0000 0.0000 0.0000 0.0000 20.6190
#
#
#
# Elastic Compliance Matrix: (Units=1/GPa)
#
#
# Indices 1 2 3 4 5 6 
#
# 1 0.016149 -0.017399 -0.004435 0.000000 0.000000 0.000000
# 2 -0.017399 0.085325 -0.003358 0.000000 0.000000 0.000000
# 3 -0.004435 -0.003358 0.011749 0.000000 0.000000 0.000000
# 4 0.000000 0.000000 0.000000 0.492641 0.000000 0.000000
# 5 0.000000 0.000000 0.000000 0.000000 5.196310 0.000000
# 6 0.000000 0.000000 0.000000 0.000000 0.000000 0.048499
#
#
# Mechanical properties :
#
#
# Convention : Reuss Voigt Hill
#
# Bulk Modulus (GPa) = 15.91392 41.30400 28.60896
# Shear Modulus (GPa) = 0.84431 13.98860 7.41645
#
# Velocity S-wave (km/s) = 0.72799 2.96320 2.15760
# Velocity P-wave (km/s) = 3.27042 6.13462 4.91575
#
# Compressibility (1/GPa) = 0.06283809
#
# Stress axis : x y z
#
# Youngs Moduli (GPa) = 61.92491 11.71995 85.11048
#
# Poissons Ratio (x) = 0.20392 0.37749
# Poissons Ratio (y) = 1.07745 0.28577
# Poissons Ratio (z) = 0.27465 0.03935
#
# Static dielectric constant tensor:
#      x y z
#    x 1.533180 0.000000 0.000000 
#    y 0.000000 1.545180 0.000000 
#    z 0.000000 0.000000 1.550460 
# 
# From -- ./inp_files/68522.got.cif
#   From: 2010.05.17/outbox.cif.g08.bks.cpg/sg65_35_cif.got.tgz:68522.got - 2010.06.03 17:01:31.
