data_PCOD9489744
_publ_section_title
;
Structure prediction by ZEFSAII (Michael W. Deem and Ramdas Pophale) SiO2 
 PCOD9489744
Probable space group: C M M M
;
_chemical_formula_sum "Si O2"
_cell_formula_units_Z 88
_cell_length_a 18.122599
_cell_length_b 16.059116
_cell_length_c 14.674705
_cell_angle_alpha 90.000000
_cell_angle_beta 90.000000
_cell_angle_gamma 90.000000
_cell_volume 4270.822240
_symmetry_space_group_name_H-M "C M M M"
_symmetry_group_IT_number 65
_symmetry_cell_setting 'orthorhombic'
loop_
_space_group_symop_operation_xyz
x,y,z
-x,-y,z
x,-y,-z
-x,y,-z
-x,-y,-z
x,y,-z
-x,y,z
x,-y,z
1/2+x,1/2+y,z
1/2-x,1/2-y,z
1/2+x,1/2-y,-z
1/2-x,1/2+y,-z
1/2-x,1/2-y,-z
1/2+x,1/2+y,-z
1/2-x,1/2+y,z
1/2+x,1/2-y,z
loop_
_atom_site_type_symbol
_atom_site_label
_atom_site_fract_x
_atom_site_fract_y
_atom_site_fract_z
Si Si1 0.361455 0.903415 0.275176
Si Si2 0.130207 0.903974 0.900128
Si Si3 0.000000 0.398107 0.395007
Si Si4 0.289160 0.160781 0.102904
Si Si5 0.582730 0.601186 0.295893
Si Si6 0.728331 0.653040 0.395123
O O1 0.427636 0.871947 0.339024
O O2 0.347644 0.855353 0.181326
O O3 0.286215 0.895526 0.332520
O O4 0.375802 0.000000 0.253764
O O5 0.218852 0.900609 0.888184
O O6 0.094793 0.868909 0.808540
O O7 0.106484 0.000000 0.904451
O O8 0.114183 0.865453 0.000000
O O9 0.000000 0.500000 0.397878
O O10 0.000000 0.369596 0.500000
O O11 0.250000 0.250000 0.114153
O O12 0.318264 0.154284 0.000000
O O13 0.500000 0.621334 0.325945
O O14 0.590695 0.500000 0.296427
O O15 0.646631 0.638714 0.357518
O O16 0.734154 0.626449 0.500000
O O17 0.750000 0.750000 0.388848
#
# Coordination Sequence:
#
# PCOD9489744 Si02
#       6
#    16  16   8  16  16  16
#     4  11  21  37  62  87 113 151 200 252 304 359
#     4   9  17  31  53  82 115 151 191 233 280 344
#     4   9  20  38  59  87 117 147 195 258 314 356
#     4  10  20  34  56  85 118 153 192 240 297 362
#     4  10  21  37  59  90 124 157 197 247 304 361
#     4  11  24  41  59  83 115 154 201 246 298 368
#
# _framework density 20.60493
#
# number of rings (size 3 to 8) (size 9 to 14) (size 15 to 20)
#    0.000    1.909    1.818    2.182    0.000    4.000 
#    1.636    3.182    0.000    1.636    0.000    0.000 
#    0.000    0.000    0.000    0.000    0.000    0.000 
#
# Total GULP energy -245757.482078 kJ/mol
# GULP energy per Si atom -5585.397320 kJ/mol
# Density = 2.055803 g / cm^3
# Si number density = 20.604930 Si / 1000 Ang^3
#
#
#
# Elastic Constant Matrix: (Units=GPa)
#
#
# Indices 1 2 3 4 5 6 
#
# 1 124.0394 16.7946 73.6108 0.0000 0.0000 0.0000
# 2 16.7946 31.9184 30.9270 0.0000 0.0000 0.0000
# 3 73.6108 30.9270 170.3853 0.0000 0.0000 0.0000
# 4 0.0000 0.0000 0.0000 25.8831 0.0000 0.0000
# 5 0.0000 0.0000 0.0000 0.0000 -1.9277 0.0000
# 6 0.0000 0.0000 0.0000 0.0000 0.0000 11.5126
#
#
#
# Elastic Compliance Matrix: (Units=1/GPa)
#
#
# Indices 1 2 3 4 5 6 
#
# 1 0.010894 -0.001422 -0.004449 0.000000 0.000000 0.000000
# 2 -0.001422 0.038202 -0.006320 0.000000 0.000000 0.000000
# 3 -0.004449 -0.006320 0.008938 0.000000 0.000000 0.000000
# 4 0.000000 0.000000 0.000000 0.038635 0.000000 0.000000
# 5 0.000000 0.000000 0.000000 0.000000 -0.518741 0.000000
# 6 0.000000 0.000000 0.000000 0.000000 0.000000 0.086861
#
#
# Mechanical properties :
#
#
# Convention : Reuss Voigt Hill
#
# Bulk Modulus (GPa) = 29.71454 63.22308 46.46881
# Shear Modulus (GPa) = -16.68827 20.76098 2.03636
#
# Velocity S-wave (km/s) = -2.84899 3.17767 0.99520
# Velocity P-wave (km/s) = 1.90527 6.64933 4.89099
#
# Compressibility (1/GPa) = 0.03365356
#
# Stress axis : x y z
#
# Youngs Moduli (GPa) = 91.78960 26.17694 111.88104
#
# Poissons Ratio (x) = 0.03722 0.49771
# Poissons Ratio (y) = 0.13052 0.70706
# Poissons Ratio (z) = 0.40833 0.16543
#
# Static dielectric constant tensor:
#      x y z
#    x 1.713620 0.000000 0.000000 
#    y 0.000000 1.769700 0.000000 
#    z 0.000000 0.000000 1.742260 
# 
# From -- ./inp_files/42486.got.cif
#   From: 2010.05.17/outbox.cif.g08.bks.cpg/sg65_22_cif.got.tgz:42486.got - 2010.06.03 17:01:31.
