data_PCOD9489685
_publ_section_title
;
Structure prediction by ZEFSAII (Michael W. Deem and Ramdas Pophale) SiO2 
 PCOD9489685
Probable space group: C M M M
;
_chemical_formula_sum "Si O2"
_cell_formula_units_Z 100
_cell_length_a 19.756082
_cell_length_b 14.362455
_cell_length_c 19.515970
_cell_angle_alpha 90.000000
_cell_angle_beta 90.000000
_cell_angle_gamma 90.000000
_cell_volume 5537.575276
_symmetry_space_group_name_H-M "C M M M"
_symmetry_group_IT_number 65
_symmetry_cell_setting 'orthorhombic'
loop_
_space_group_symop_operation_xyz
x,y,z
-x,-y,z
x,-y,-z
-x,y,-z
-x,-y,-z
x,y,-z
-x,y,z
x,-y,z
1/2+x,1/2+y,z
1/2-x,1/2-y,z
1/2+x,1/2-y,-z
1/2-x,1/2+y,-z
1/2-x,1/2-y,-z
1/2+x,1/2+y,-z
1/2-x,1/2+y,z
1/2+x,1/2-y,z
loop_
_atom_site_type_symbol
_atom_site_label
_atom_site_fract_x
_atom_site_fract_y
_atom_site_fract_z
Si Si1 0.922713 0.886974 0.578103
Si Si2 0.802578 0.611090 0.224720
Si Si3 0.000000 0.000000 0.093643
Si Si4 0.340856 0.388454 0.290990
Si Si5 0.076224 0.740569 0.782581
Si Si6 0.403179 0.679963 0.923015
Si Si7 0.250375 0.611840 0.075225
O O1 0.909804 0.856163 0.500000
O O2 0.866399 0.859356 0.633433
O O3 0.000000 0.859017 0.597357
O O4 0.922905 0.000000 0.577441
O O5 0.811526 0.500000 0.230941
O O6 0.735014 0.636926 0.267487
O O7 0.869610 0.666546 0.244737
O O8 0.788788 0.634288 0.144788
O O9 0.941953 0.082648 0.089786
O O10 0.345695 0.500000 0.285443
O O11 0.394593 0.340268 0.241018
O O12 0.077000 0.747341 0.864716
O O13 0.000000 0.725402 0.758526
O O14 0.323398 0.658985 0.919537
O O15 0.419483 0.710407 0.000000
O O16 0.259703 0.500000 0.076134
O O17 0.220664 0.635869 0.000000
#
# Coordination Sequence:
#
# PCOD9489685 Si02
#       7
#    16  16   4  16  16  16  16
#     4   8  14  27  49  80 118 152 173 194 241 316
#     4  10  22  40  56  71  99 138 182 232 272 305
#     4  12  21  32  48  76 118 146 159 208 285 356
#     4  10  20  34  55  83 113 140 169 210 260 311
#     4  12  25  35  52  77 104 139 179 222 270 325
#     4  11  21  31  48  74 106 139 169 208 267 334
#     4   9  17  31  52  73  92 126 175 216 261 313
#
# _framework density 18.058444999999999
#
# number of rings (size 3 to 8) (size 9 to 14) (size 15 to 20)
#    0.000    1.920    3.200    2.160    1.120    1.920 
#    0.000    1.600    0.000    1.920    0.000    3.360 
#    0.000    0.000    0.000    9.600    0.000    0.160 
#
# Total GULP energy -278423.396967 kJ/mol
# GULP energy per Si atom -5568.467939 kJ/mol
# Density = 1.801734 g / cm^3
# Si number density = 18.058445 Si / 1000 Ang^3
#
#
#
# Elastic Constant Matrix: (Units=GPa)
#
#
# Indices 1 2 3 4 5 6 
#
# 1 139.0630 40.3166 50.2117 0.0000 0.0000 0.0000
# 2 40.3166 41.5843 22.0479 0.0000 0.0000 0.0000
# 3 50.2117 22.0479 87.2675 0.0000 0.0000 0.0000
# 4 0.0000 0.0000 0.0000 3.6676 0.0000 0.0000
# 5 0.0000 0.0000 0.0000 0.0000 -11.6890 0.0000
# 6 0.0000 0.0000 0.0000 0.0000 0.0000 10.9770
#
#
#
# Elastic Compliance Matrix: (Units=1/GPa)
#
#
# Indices 1 2 3 4 5 6 
#
# 1 0.011239 -0.008623 -0.004288 0.000000 0.000000 0.000000
# 2 -0.008623 0.034383 -0.003725 0.000000 0.000000 0.000000
# 3 -0.004288 -0.003725 0.014868 0.000000 0.000000 0.000000
# 4 0.000000 0.000000 0.000000 0.272655 0.000000 0.000000
# 5 0.000000 0.000000 0.000000 0.000000 -0.085551 0.000000
# 6 0.000000 0.000000 0.000000 0.000000 0.000000 0.091099
#
#
# Mechanical properties :
#
#
# Convention : Reuss Voigt Hill
#
# Bulk Modulus (GPa) = 36.74224 54.78523 45.76374
# Shear Modulus (GPa) = 13.12202 10.94704 12.03453
#
# Velocity S-wave (km/s) = 2.69855 2.46478 2.58431
# Velocity P-wave (km/s) = 5.48635 6.20514 5.85679
#
# Compressibility (1/GPa) = 0.02721663
#
# Stress axis : x y z
#
# Youngs Moduli (GPa) = 88.97352 29.08426 67.26056
#
# Poissons Ratio (x) = 0.25080 0.28843
# Poissons Ratio (y) = 0.76722 0.25056
# Poissons Ratio (z) = 0.38154 0.10835
#
# Static dielectric constant tensor:
#      x y z
#    x 1.638160 0.000000 0.000000 
#    y 0.000000 1.617150 0.000000 
#    z 0.000000 0.000000 1.668480 
# 
# From -- ./inp_files/63810.got.cif
#   From: 2010.05.17/outbox.cif.g08.bks.cpg/sg65_32_cif.got.tgz:63810.got - 2010.06.03 17:01:31.
