data_PCOD9489036
_publ_section_title
;
Structure prediction by ZEFSAII (Michael W. Deem and Ramdas Pophale) SiO2 
 PCOD9489036
Probable space group: C M M M
;
_chemical_formula_sum "Si O2"
_cell_formula_units_Z 104
_cell_length_a 28.086018
_cell_length_b 7.839359
_cell_length_c 30.630439
_cell_angle_alpha 90.000000
_cell_angle_beta 90.000000
_cell_angle_gamma 90.000000
_cell_volume 6744.099115
_symmetry_space_group_name_H-M "C M M M"
_symmetry_group_IT_number 65
_symmetry_cell_setting 'orthorhombic'
loop_
_space_group_symop_operation_xyz
x,y,z
-x,-y,z
x,-y,-z
-x,y,-z
-x,-y,-z
x,y,-z
-x,y,z
x,-y,z
1/2+x,1/2+y,z
1/2-x,1/2-y,z
1/2+x,1/2-y,-z
1/2-x,1/2+y,-z
1/2-x,1/2-y,-z
1/2+x,1/2+y,-z
1/2-x,1/2+y,z
1/2+x,1/2-y,z
loop_
_atom_site_type_symbol
_atom_site_label
_atom_site_fract_x
_atom_site_fract_y
_atom_site_fract_z
Si Si1 0.556552 0.308778 0.274065
Si Si2 0.602976 0.199464 0.637153
Si Si3 0.441804 0.000000 0.887980
Si Si4 0.443547 0.206744 0.547640
Si Si5 0.693946 0.295190 0.500000
Si Si6 0.805403 0.204464 0.404684
Si Si7 0.442127 0.694617 0.049820
Si Si8 0.057865 0.500000 0.212132
O O1 0.500000 0.283786 0.282198
O O2 0.563244 0.500000 0.256992
O O3 0.583095 0.287738 0.319949
O O4 0.572252 0.166380 0.239574
O O5 0.580544 0.270221 0.591978
O O6 0.659392 0.219538 0.630918
O O7 0.590104 0.000000 0.640576
O O8 0.426473 0.166848 0.914992
O O9 0.500000 0.000000 0.887641
O O10 0.425761 0.000000 0.837866
O O11 0.425816 0.269778 0.500000
O O12 0.500000 0.242691 0.549706
O O13 0.438412 0.000000 0.547313
O O14 0.688845 0.500000 0.500000
O O15 0.750000 0.250000 0.500000
O O16 0.677435 0.230249 0.452814
O O17 0.750000 0.250000 0.399370
O O18 0.809404 0.000000 0.404196
O O19 0.500000 0.695715 0.050176
O O20 0.427304 0.500000 0.059164
O O21 0.428048 0.738422 0.000000
O O22 0.000000 0.500000 0.210772
#
# Coordination Sequence:
#
# PCOD9489036 Si02
#       8
#    16  16   8  16   8  16  16   8
#     4  10  20  34  50  66  85 110 142 181 224 269
#     4  11  20  30  49  69  86 112 138 167 208 259
#     4   9  15  22  35  52  72 101 136 175 223 269
#     4   8  15  27  42  63  88 110 134 164 197 240
#     4   8  16  30  46  60  81 108 129 156 188 227
#     4  10  20  34  48  66  88 111 137 166 201 246
#     4   8  13  20  30  47  73 104 138 175 215 261
#     4   9  18  31  44  61  83 106 139 186 231 273
#
# _framework density 15.420888
#
# number of rings (size 3 to 8) (size 9 to 14) (size 15 to 20)
#    0.000    2.769    0.769    2.538    1.077    2.769 
#    0.000    3.077    0.000    0.000    0.000    3.231 
#    0.000    0.000    0.000    0.000    0.000    0.000 
#
# Total GULP energy -289812.629212 kJ/mol
# GULP energy per Si atom -5573.319793 kJ/mol
# Density = 1.538579 g / cm^3
# Si number density = 15.420888 Si / 1000 Ang^3
#
#
#
# Elastic Constant Matrix: (Units=GPa)
#
#
# Indices 1 2 3 4 5 6 
#
# 1 26.7998 13.8019 26.6459 0.0000 0.0000 0.0000
# 2 13.8019 74.6236 58.7993 0.0000 0.0000 0.0000
# 3 26.6459 58.7993 125.6802 0.0000 0.0000 0.0000
# 4 0.0000 0.0000 0.0000 5.9385 0.0000 0.0000
# 5 0.0000 0.0000 0.0000 0.0000 5.2135 0.0000
# 6 0.0000 0.0000 0.0000 0.0000 0.0000 9.6886
#
#
#
# Elastic Compliance Matrix: (Units=1/GPa)
#
#
# Indices 1 2 3 4 5 6 
#
# 1 0.047365 -0.001343 -0.009414 0.000000 0.000000 0.000000
# 2 -0.001343 0.021263 -0.009663 0.000000 0.000000 0.000000
# 3 -0.009414 -0.009663 0.014473 0.000000 0.000000 0.000000
# 4 0.000000 0.000000 0.000000 0.168393 0.000000 0.000000
# 5 0.000000 0.000000 0.000000 0.000000 0.191811 0.000000
# 6 0.000000 0.000000 0.000000 0.000000 0.000000 0.103214
#
#
# Mechanical properties :
#
#
# Convention : Reuss Voigt Hill
#
# Bulk Modulus (GPa) = 23.66194 47.28864 35.47529
# Shear Modulus (GPa) = 8.31329 12.69187 10.50258
#
# Velocity S-wave (km/s) = 2.32436 2.87196 2.61255
# Velocity P-wave (km/s) = 4.75194 6.45983 5.67055
#
# Compressibility (1/GPa) = 0.04226196
#
# Stress axis : x y z
#
# Youngs Moduli (GPa) = 21.11261 47.03011 69.09204
#
# Poissons Ratio (x) = 0.06315 0.65042
# Poissons Ratio (y) = 0.02835 0.66765
# Poissons Ratio (z) = 0.19875 0.45446
#
# Static dielectric constant tensor:
#      x y z
#    x 1.497400 0.000000 0.000000 
#    y 0.000000 1.550720 0.000000 
#    z 0.000000 0.000000 1.509940 
# 
# From -- ./inp_files/72229.got.cif
#   From: 2010.05.17/outbox.cif.g08.bks.cpg/sg65_37_cif.got.tgz:72229.got - 2010.06.03 17:01:31.
