data_PCOD9489973
_publ_section_title
;
Structure prediction by ZEFSAII (Michael W. Deem and Ramdas Pophale) SiO2 
 PCOD9489973
Probable space group: C M M M
;
_chemical_formula_sum "Si O2"
_cell_formula_units_Z 64
_cell_length_a 14.593994
_cell_length_b 9.181345
_cell_length_c 21.310364
_cell_angle_alpha 90.000000
_cell_angle_beta 90.000000
_cell_angle_gamma 90.000000
_cell_volume 2855.428817
_symmetry_space_group_name_H-M "C M M M"
_symmetry_group_IT_number 65
_symmetry_cell_setting 'orthorhombic'
loop_
_space_group_symop_operation_xyz
x,y,z
-x,-y,z
x,-y,-z
-x,y,-z
-x,-y,-z
x,y,-z
-x,y,z
x,-y,z
1/2+x,1/2+y,z
1/2-x,1/2-y,z
1/2+x,1/2-y,-z
1/2-x,1/2+y,-z
1/2-x,1/2-y,-z
1/2+x,1/2+y,-z
1/2-x,1/2+y,z
1/2+x,1/2-y,z
loop_
_atom_site_type_symbol
_atom_site_label
_atom_site_fract_x
_atom_site_fract_y
_atom_site_fract_z
Si Si1 0.151934 0.174450 0.500000
Si Si2 0.392950 0.837296 0.625760
Si Si3 0.387663 0.666806 0.252279
Si Si4 0.887952 0.833201 0.000000
Si Si5 0.111958 0.333333 0.874011
O O1 0.250000 0.250000 0.500000
O O2 0.110601 0.238268 0.436039
O O3 0.151852 0.000000 0.500000
O O4 0.500000 0.856509 0.639242
O O5 0.355627 0.754788 0.686543
O O6 0.352914 0.000000 0.615259
O O7 0.500000 0.663584 0.253051
O O8 0.356317 0.500000 0.253749
O O9 0.360692 0.747370 0.188427
O O10 0.859965 0.749134 0.937191
O O11 0.000000 0.835757 0.000000
O O12 0.856452 0.000000 0.000000
O O13 0.143782 0.500000 0.873076
O O14 0.000000 0.336283 0.874177
#
# Coordination Sequence:
#
# PCOD9489973 Si02
#       5
#     8  16  16   8  16
#     4  12  25  40  57  77 103 133 165 202 247 298
#     4  10  20  35  55  78 103 131 165 205 248 295
#     4   9  16  26  41  62  87 116 153 196 239 283
#     4   9  15  21  29  43  67 103 146 189 232 281
#     4   9  15  22  32  48  73 107 147 190 235 282
#
# _framework density 22.413447000000001
#
# number of rings (size 3 to 8) (size 9 to 14) (size 15 to 20)
#    0.000    2.375    0.000    4.125    0.000   10.500 
#    0.000    0.000    0.000    0.000    0.000    0.000 
#    0.000    0.000    0.000    1.125    0.000   17.000 
#
# Total GULP energy -178869.369380 kJ/mol
# GULP energy per Si atom -5589.667793 kJ/mol
# Density = 2.236243 g / cm^3
# Si number density = 22.413447 Si / 1000 Ang^3
#
#
#
# Elastic Constant Matrix: (Units=GPa)
#
#
# Indices 1 2 3 4 5 6 
#
# 1 51.1530 11.0861 2.4179 0.0000 0.0000 0.0000
# 2 11.0861 281.0980 156.9875 0.0000 0.0000 0.0000
# 3 2.4179 156.9875 250.1385 0.0000 0.0000 0.0000
# 4 0.0000 0.0000 0.0000 47.7162 0.0000 0.0000
# 5 0.0000 0.0000 0.0000 0.0000 -523.5409 0.0000
# 6 0.0000 0.0000 0.0000 0.0000 0.0000 6.1925
#
#
#
# Elastic Compliance Matrix: (Units=1/GPa)
#
#
# Indices 1 2 3 4 5 6 
#
# 1 0.019752 -0.001035 0.000459 0.000000 0.000000 0.000000
# 2 -0.001035 0.005532 -0.003462 0.000000 0.000000 0.000000
# 3 0.000459 -0.003462 0.006166 0.000000 0.000000 0.000000
# 4 0.000000 0.000000 0.000000 0.020957 0.000000 0.000000
# 5 0.000000 0.000000 0.000000 0.000000 -0.001910 0.000000
# 6 0.000000 0.000000 0.000000 0.000000 0.000000 0.161485
#
#
# Mechanical properties :
#
#
# Convention : Reuss Voigt Hill
#
# Bulk Modulus (GPa) = 42.78403 102.59694 72.69049
# Shear Modulus (GPa) = 21.94443 -66.46656 -22.26107
#
# Velocity S-wave (km/s) = 3.13241 -5.45153 -3.15493
# Velocity P-wave (km/s) = 5.67562 2.49971 4.38527
#
# Compressibility (1/GPa) = 0.02337320
#
# Stress axis : x y z
#
# Youngs Moduli (GPa) = 50.62812 180.78162 162.18343
#
# Poissons Ratio (x) = 0.18714 -0.07440
# Poissons Ratio (y) = 0.05241 0.56141
# Poissons Ratio (z) = -0.02323 0.62579
#
# Static dielectric constant tensor:
#      x y z
#    x 2.444000 0.000000 0.000000 
#    y 0.000000 1.783010 0.000000 
#    z 0.000000 0.000000 1.836790 
# 
# From -- ./inp_files/63244.got.cif
#   From: 2010.05.17/outbox.cif.g08.bks.cpg/sg65_32_cif.got.tgz:63244.got - 2010.06.03 17:01:31.
