data_PCOD9489351
_publ_section_title
;
Structure prediction by ZEFSAII (Michael W. Deem and Ramdas Pophale) SiO2 
 PCOD9489351
Probable space group: C M M M
;
_chemical_formula_sum "Si O2"
_cell_formula_units_Z 104
_cell_length_a 33.027047
_cell_length_b 21.208832
_cell_length_c 7.879527
_cell_angle_alpha 90.000000
_cell_angle_beta 90.000000
_cell_angle_gamma 90.000000
_cell_volume 5519.333599
_symmetry_space_group_name_H-M "C M M M"
_symmetry_group_IT_number 65
_symmetry_cell_setting 'orthorhombic'
loop_
_space_group_symop_operation_xyz
x,y,z
-x,-y,z
x,-y,-z
-x,y,-z
-x,-y,-z
x,y,-z
-x,y,z
x,-y,z
1/2+x,1/2+y,z
1/2-x,1/2-y,z
1/2+x,1/2-y,-z
1/2-x,1/2+y,-z
1/2-x,1/2-y,-z
1/2+x,1/2+y,-z
1/2-x,1/2+y,z
1/2+x,1/2-y,z
loop_
_atom_site_type_symbol
_atom_site_label
_atom_site_fract_x
_atom_site_fract_y
_atom_site_fract_z
Si Si1 0.546107 0.000000 0.207255
Si Si2 0.132227 0.192266 0.298357
Si Si3 0.955450 0.760374 0.203778
Si Si4 0.180830 0.070134 0.798053
Si Si5 0.084478 0.369015 0.793797
Si Si6 0.170423 0.319491 0.302718
Si Si7 0.726841 0.070855 0.299151
O O1 0.568138 0.936420 0.259842
O O2 0.500000 0.000000 0.264979
O O3 0.545684 0.000000 0.000000
O O4 0.134724 0.197375 0.500000
O O5 0.085087 0.202107 0.253280
O O6 0.150187 0.125574 0.245583
O O7 0.159807 0.250372 0.227273
O O8 0.945931 0.687777 0.250985
O O9 0.000000 0.779747 0.268794
O O10 0.957098 0.762923 0.000000
O O11 0.225257 0.081202 0.720842
O O12 0.167259 0.000000 0.742983
O O13 0.186032 0.069200 0.000000
O O14 0.127286 0.354027 0.710475
O O15 0.089194 0.368180 0.000000
O O16 0.182162 0.309604 0.500000
O O17 0.202528 0.369102 0.226654
O O18 0.717302 0.068486 0.500000
O O19 0.717597 0.000000 0.229695
#
# Coordination Sequence:
#
# PCOD9489351 Si02
#       7
#     8  16  16  16  16  16  16
#     4   9  16  26  41  63  91 125 169 217 261 301
#     4  10  20  34  53  77 105 134 166 205 249 301
#     4   9  17  31  51  73  99 132 169 208 250 297
#     4  10  21  37  56  78 102 128 161 203 250 301
#     4   9  17  28  44  67  94 129 171 214 256 297
#     4   9  19  33  48  71 101 134 171 210 252 294
#     4   9  18  33  52  72  98 137 178 210 246 294
#
# _framework density 18.842853999999999
#
# number of rings (size 3 to 8) (size 9 to 14) (size 15 to 20)
#    0.000    2.692    0.000    1.385    1.077    4.923 
#    0.000    3.077    0.000    2.308    0.000    3.231 
#    0.000    0.000    0.000    0.000    0.000    0.000 
#
# Total GULP energy -289792.732940 kJ/mol
# GULP energy per Si atom -5572.937172 kJ/mol
# Density = 1.879997 g / cm^3
# Si number density = 18.842854 Si / 1000 Ang^3
#
#
#
# Elastic Constant Matrix: (Units=GPa)
#
#
# Indices 1 2 3 4 5 6 
#
# 1 78.8891 84.9791 4.4768 0.0000 0.0000 0.0000
# 2 84.9791 152.5443 6.3287 0.0000 0.0000 0.0000
# 3 4.4768 6.3287 20.6069 0.0000 0.0000 0.0000
# 4 0.0000 0.0000 0.0000 9.4907 0.0000 0.0000
# 5 0.0000 0.0000 0.0000 0.0000 21.9087 0.0000
# 6 0.0000 0.0000 0.0000 0.0000 0.0000 16.9605
#
#
#
# Elastic Compliance Matrix: (Units=1/GPa)
#
#
# Indices 1 2 3 4 5 6 
#
# 1 0.031741 -0.017621 -0.001484 0.000000 0.000000 0.000000
# 2 -0.017621 0.016422 -0.001215 0.000000 0.000000 0.000000
# 3 -0.001484 -0.001215 0.049223 0.000000 0.000000 0.000000
# 4 0.000000 0.000000 0.000000 0.105366 0.000000 0.000000
# 5 0.000000 0.000000 0.000000 0.000000 0.045644 0.000000
# 6 0.000000 0.000000 0.000000 0.000000 0.000000 0.058961
#
#
# Mechanical properties :
#
#
# Convention : Reuss Voigt Hill
#
# Bulk Modulus (GPa) = 17.62239 49.28994 33.45617
# Shear Modulus (GPa) = 13.62720 20.08904 16.85812
#
# Velocity S-wave (km/s) = 2.69216 3.26872 2.99435
# Velocity P-wave (km/s) = 4.36305 6.36091 5.45424
#
# Compressibility (1/GPa) = 0.05674598
#
# Stress axis : x y z
#
# Youngs Moduli (GPa) = 31.50455 60.89348 20.31564
#
# Poissons Ratio (x) = 1.07300 0.03015
# Poissons Ratio (y) = 0.55514 0.02469
# Poissons Ratio (z) = 0.04676 0.07401
#
# Static dielectric constant tensor:
#      x y z
#    x 1.666620 0.000000 0.000000 
#    y 0.000000 1.679720 0.000000 
#    z 0.000000 0.000000 1.696020 
# 
# From -- ./inp_files/14697.got.cif
#   From: 2010.05.17/outbox.cif.g08.bks.cpg/sg65_8_cif.got.tgz:14697.got - 2010.06.03 17:01:31.
