data_PCOD9489248
_publ_section_title
;
Structure prediction by ZEFSAII (Michael W. Deem and Ramdas Pophale) SiO2 
 PCOD9489248
Probable space group: C M M M
;
_chemical_formula_sum "Si O2"
_cell_formula_units_Z 88
_cell_length_a 19.188107
_cell_length_b 28.734039
_cell_length_c 7.892035
_cell_angle_alpha 90.000000
_cell_angle_beta 90.000000
_cell_angle_gamma 90.000000
_cell_volume 4351.287820
_symmetry_space_group_name_H-M "C M M M"
_symmetry_group_IT_number 65
_symmetry_cell_setting 'orthorhombic'
loop_
_space_group_symop_operation_xyz
x,y,z
-x,-y,z
x,-y,-z
-x,y,-z
-x,-y,-z
x,y,-z
-x,y,z
x,-y,z
1/2+x,1/2+y,z
1/2-x,1/2-y,z
1/2+x,1/2-y,-z
1/2-x,1/2+y,-z
1/2-x,1/2-y,-z
1/2+x,1/2+y,-z
1/2-x,1/2+y,z
1/2+x,1/2-y,z
loop_
_atom_site_type_symbol
_atom_site_label
_atom_site_fract_x
_atom_site_fract_y
_atom_site_fract_z
Si Si1 0.421603 0.212656 0.795952
Si Si2 0.577002 0.445500 0.706621
Si Si3 0.211398 0.891106 0.699617
Si Si4 0.687941 0.714429 0.795235
Si Si5 0.000000 0.552614 0.798310
Si Si6 0.135259 0.387463 0.701902
O O1 0.500000 0.209131 0.729311
O O2 0.381540 0.258733 0.738099
O O3 0.380662 0.165518 0.754521
O O4 0.424354 0.215087 0.000000
O O5 0.576602 0.442444 0.500000
O O6 0.500000 0.429109 0.763631
O O7 0.583436 0.500000 0.749055
O O8 0.643980 0.417545 0.771406
O O9 0.213581 0.902871 0.500000
O O10 0.199475 0.836030 0.718814
O O11 0.288571 0.902074 0.770838
O O12 0.750000 0.750000 0.753091
O O13 0.687083 0.709289 0.000000
O O14 0.069772 0.580650 0.750467
O O15 0.000000 0.500000 0.727733
O O16 0.000000 0.549813 0.000000
O O17 0.139627 0.388087 0.500000
#
# Coordination Sequence:
#
# PCOD9489248 Si02
#       6
#    16  16  16  16   8  16
#     4  10  20  35  55  76 103 146 195 233 270 326
#     4   8  15  31  55  80 108 144 183 220 267 330
#     4  10  21  34  54  86 117 144 180 232 285 330
#     4  10  20  34  52  76 106 146 189 225 268 323
#     4  11  25  43  61  81 109 147 191 235 280 339
#     4  11  22  35  55  83 112 143 182 231 287 337
#
# _framework density 20.223897000000001
#
# number of rings (size 3 to 8) (size 9 to 14) (size 15 to 20)
#    0.000    2.091    2.727    1.364    0.000    4.000 
#    0.000    1.818    0.000    0.545    0.000    1.273 
#    0.000    0.000    0.000    0.000    0.000    0.000 
#
# Total GULP energy -245546.287130 kJ/mol
# GULP energy per Si atom -5580.597435 kJ/mol
# Density = 2.017787 g / cm^3
# Si number density = 20.223897 Si / 1000 Ang^3
#
#
#
# Elastic Constant Matrix: (Units=GPa)
#
#
# Indices 1 2 3 4 5 6 
#
# 1 214.0640 70.0546 8.6815 0.0000 0.0000 0.0000
# 2 70.0546 69.1358 -9.4905 0.0000 0.0000 0.0000
# 3 8.6815 -9.4905 16.8584 0.0000 0.0000 0.0000
# 4 0.0000 0.0000 0.0000 4.0222 0.0000 0.0000
# 5 0.0000 0.0000 0.0000 0.0000 10.9772 0.0000
# 6 0.0000 0.0000 0.0000 0.0000 0.0000 40.9624
#
#
#
# Elastic Compliance Matrix: (Units=1/GPa)
#
#
# Indices 1 2 3 4 5 6 
#
# 1 0.008227 -0.009665 -0.009677 0.000000 0.000000 0.000000
# 2 -0.009665 0.027029 0.020193 0.000000 0.000000 0.000000
# 3 -0.009677 0.020193 0.075669 0.000000 0.000000 0.000000
# 4 0.000000 0.000000 0.000000 0.248620 0.000000 0.000000
# 5 0.000000 0.000000 0.000000 0.000000 0.091098 0.000000
# 6 0.000000 0.000000 0.000000 0.000000 0.000000 0.024413
#
#
# Mechanical properties :
#
#
# Convention : Reuss Voigt Hill
#
# Bulk Modulus (GPa) = 8.87881 48.72771 28.80326
# Shear Modulus (GPa) = 9.78673 26.57985 18.18329
#
# Velocity S-wave (km/s) = 2.20220 3.62923 3.00175
# Velocity P-wave (km/s) = 3.29637 6.45819 5.12710
#
# Compressibility (1/GPa) = 0.11262764
#
# Stress axis : x y z
#
# Youngs Moduli (GPa) = 121.55409 36.99693 13.21548
#
# Poissons Ratio (x) = 0.35756 0.12789
# Poissons Ratio (y) = 1.17477 -0.26686
# Poissons Ratio (z) = 1.17630 -0.74708
#
# Static dielectric constant tensor:
#      x y z
#    x 1.760850 0.000000 0.000000 
#    y 0.000000 1.679180 0.000000 
#    z 0.000000 0.000000 1.736210 
# 
# From -- ./inp_files/10093.got.cif
#   From: 2010.05.17/outbox.cif.g08.bks.cpg/sg65_6_cif.got.tgz:10093.got - 2010.06.03 17:01:31.
