data_PCOD9489012
_publ_section_title
;
Structure prediction by ZEFSAII (Michael W. Deem and Ramdas Pophale) SiO2 
 PCOD9489012
Probable space group: C M M M
;
_chemical_formula_sum "Si O2"
_cell_formula_units_Z 104
_cell_length_a 20.813291
_cell_length_b 16.522554
_cell_length_c 17.211142
_cell_angle_alpha 90.000000
_cell_angle_beta 90.000000
_cell_angle_gamma 90.000000
_cell_volume 5918.717669
_symmetry_space_group_name_H-M "C M M M"
_symmetry_group_IT_number 65
_symmetry_cell_setting 'orthorhombic'
loop_
_space_group_symop_operation_xyz
x,y,z
-x,-y,z
x,-y,-z
-x,y,-z
-x,-y,-z
x,y,-z
-x,y,z
x,-y,z
1/2+x,1/2+y,z
1/2-x,1/2-y,z
1/2+x,1/2-y,-z
1/2-x,1/2+y,-z
1/2-x,1/2-y,-z
1/2+x,1/2+y,-z
1/2-x,1/2+y,z
1/2+x,1/2-y,z
loop_
_atom_site_type_symbol
_atom_site_label
_atom_site_fract_x
_atom_site_fract_y
_atom_site_fract_z
Si Si1 0.072160 0.211545 0.909212
Si Si2 0.741603 0.592360 0.262940
Si Si3 0.900829 0.091569 0.789447
Si Si4 0.428344 0.259169 0.676617
Si Si5 0.129722 0.655286 0.190782
Si Si6 0.077734 0.500000 0.094014
Si Si7 0.194065 0.816221 0.586438
O O1 0.076282 0.122993 0.872408
O O2 0.122831 0.268743 0.866709
O O3 0.000000 0.244317 0.892735
O O4 0.081727 0.211348 0.000000
O O5 0.764152 0.500000 0.268097
O O6 0.676480 0.595552 0.213196
O O7 0.798970 0.642334 0.224319
O O8 0.718256 0.622582 0.347277
O O9 0.925947 0.159019 0.729258
O O10 0.919970 0.000000 0.770823
O O11 0.500000 0.249978 0.644539
O O12 0.411859 0.184455 0.734337
O O13 0.371498 0.273511 0.615262
O O14 0.104814 0.578089 0.141374
O O15 0.000000 0.500000 0.097915
O O16 0.094078 0.500000 0.000000
O O17 0.185528 0.851277 0.500000
O O18 0.250000 0.750000 0.583166
#
# Coordination Sequence:
#
# PCOD9489012 Si02
#       7
#    16  16  16  16  16   8  16
#     4  10  21  35  51  73 103 138 178 227 279 331
#     4  10  20  36  56  80 106 142 182 226 266 325
#     4   9  19  34  54  76 104 139 183 227 274 327
#     4  10  20  33  55  85 113 143 182 229 274 325
#     4  11  19  34  54  77 107 144 184 226 278 324
#     4  11  22  34  52  78 109 147 190 237 285 331
#     4  10  20  36  58  82 109 145 181 218 270 330
#
# _framework density 17.571373999999999
#
# number of rings (size 3 to 8) (size 9 to 14) (size 15 to 20)
#    0.000    1.923    2.308    3.231    0.000    3.385 
#    0.000    3.077    0.000    0.000    0.000    4.308 
#    0.000    4.923    0.000    0.000    0.000    0.000 
#
# Total GULP energy -289764.514853 kJ/mol
# GULP energy per Si atom -5572.394516 kJ/mol
# Density = 1.753138 g / cm^3
# Si number density = 17.571374 Si / 1000 Ang^3
#
#
#
# Elastic Constant Matrix: (Units=GPa)
#
#
# Indices 1 2 3 4 5 6 
#
# 1 118.6101 21.9031 53.5002 0.0000 0.0000 0.0000
# 2 21.9031 68.6653 26.4213 0.0000 0.0000 0.0000
# 3 53.5002 26.4213 102.1983 0.0000 0.0000 0.0000
# 4 0.0000 0.0000 0.0000 14.8885 0.0000 0.0000
# 5 0.0000 0.0000 0.0000 0.0000 48.5909 0.0000
# 6 0.0000 0.0000 0.0000 0.0000 0.0000 15.4538
#
#
#
# Elastic Compliance Matrix: (Units=1/GPa)
#
#
# Indices 1 2 3 4 5 6 
#
# 1 0.011167 -0.001458 -0.005469 0.000000 0.000000 0.000000
# 2 -0.001458 0.016362 -0.003467 0.000000 0.000000 0.000000
# 3 -0.005469 -0.003467 0.013544 0.000000 0.000000 0.000000
# 4 0.000000 0.000000 0.000000 0.067166 0.000000 0.000000
# 5 0.000000 0.000000 0.000000 0.000000 0.020580 0.000000
# 6 0.000000 0.000000 0.000000 0.000000 0.000000 0.064709
#
#
# Mechanical properties :
#
#
# Convention : Reuss Voigt Hill
#
# Bulk Modulus (GPa) = 49.29482 54.79145 52.04313
# Shear Modulus (GPa) = 22.61642 28.29659 25.45650
#
# Velocity S-wave (km/s) = 3.59153 4.01731 3.81037
# Velocity P-wave (km/s) = 6.73155 7.26418 7.00293
#
# Compressibility (1/GPa) = 0.02028611
#
# Stress axis : x y z
#
# Youngs Moduli (GPa) = 89.54949 61.11553 73.83221
#
# Poissons Ratio (x) = 0.08909 0.40379
# Poissons Ratio (y) = 0.13054 0.25598
# Poissons Ratio (z) = 0.48975 0.21189
#
# Static dielectric constant tensor:
#      x y z
#    x 1.606920 0.000000 0.000000 
#    y 0.000000 1.613290 0.000000 
#    z 0.000000 0.000000 1.600580 
# 
# From -- ./inp_files/55843.got.cif
#   From: 2010.05.17/outbox.cif.g08.bks.cpg/sg65_28_cif.got.tgz:55843.got - 2010.06.03 17:01:31.
