data_PCOD9489263
_publ_section_title
;
Structure prediction by ZEFSAII (Michael W. Deem and Ramdas Pophale) SiO2 
 PCOD9489263
Probable space group: C M M M
;
_chemical_formula_sum "Si O2"
_cell_formula_units_Z 72
_cell_length_a 27.830254
_cell_length_b 12.774313
_cell_length_c 11.743807
_cell_angle_alpha 90.000000
_cell_angle_beta 90.000000
_cell_angle_gamma 90.000000
_cell_volume 4175.068724
_symmetry_space_group_name_H-M "C M M M"
_symmetry_group_IT_number 65
_symmetry_cell_setting 'orthorhombic'
loop_
_space_group_symop_operation_xyz
x,y,z
-x,-y,z
x,-y,-z
-x,y,-z
-x,-y,-z
x,y,-z
-x,y,z
x,-y,z
1/2+x,1/2+y,z
1/2-x,1/2-y,z
1/2+x,1/2-y,-z
1/2-x,1/2+y,-z
1/2-x,1/2-y,-z
1/2+x,1/2+y,-z
1/2-x,1/2+y,z
1/2+x,1/2-y,z
loop_
_atom_site_type_symbol
_atom_site_label
_atom_site_fract_x
_atom_site_fract_y
_atom_site_fract_z
Si Si1 0.250000 0.750000 0.288684
Si Si2 0.944200 0.374969 0.500000
Si Si3 0.183376 0.376904 0.872104
Si Si4 0.500000 0.873934 0.862798
Si Si5 0.157697 0.122629 0.632739
Si Si6 0.593424 0.209333 0.262035
O O1 0.225241 0.666916 0.206004
O O2 0.206937 0.809613 0.354213
O O3 0.944868 0.500000 0.500000
O O4 0.917763 0.336875 0.386640
O O5 0.000000 0.338297 0.500000
O O6 0.188084 0.500000 0.880841
O O7 0.134451 0.350717 0.807099
O O8 0.183517 0.331449 0.000000
O O9 0.545640 0.813169 0.810538
O O10 0.500000 0.000000 0.830401
O O11 0.500000 0.870600 0.000000
O O12 0.143060 0.128158 0.500000
O O13 0.116888 0.176889 0.711393
O O14 0.165392 0.000000 0.660909
#
# Coordination Sequence:
#
# PCOD9489263 Si02
#       6
#     8   8  16   8  16  16
#     4  10  20  34  58  80 106 139 189 232 282 322
#     4  11  20  32  53  80 113 144 178 231 284 328
#     4  10  20  34  52  77 109 143 180 223 272 331
#     4  11  22  37  60  87 116 151 187 230 280 328
#     4  10  21  38  57  80 113 149 187 230 282 341
#     4  11  21  35  55  81 112 146 185 224 281 333
#
# _framework density 17.245225000000001
#
# number of rings (size 3 to 8) (size 9 to 14) (size 15 to 20)
#    0.000    1.556    2.222    4.000    0.000    1.778 
#    0.000    0.556    0.000   16.000    0.000    0.000 
#    0.000    0.000    0.000    0.000    0.000    0.000 
#
# Total GULP energy -200632.559059 kJ/mol
# GULP energy per Si atom -5573.126641 kJ/mol
# Density = 1.720597 g / cm^3
# Si number density = 17.245225 Si / 1000 Ang^3
#
#
#
# Elastic Constant Matrix: (Units=GPa)
#
#
# Indices 1 2 3 4 5 6 
#
# 1 83.4517 33.2634 23.8333 0.0000 0.0000 0.0000
# 2 33.2634 104.4819 29.0298 0.0000 0.0000 0.0000
# 3 23.8333 29.0298 87.4572 0.0000 0.0000 0.0000
# 4 0.0000 0.0000 0.0000 29.2165 0.0000 0.0000
# 5 0.0000 0.0000 0.0000 0.0000 29.5135 0.0000
# 6 0.0000 0.0000 0.0000 0.0000 0.0000 16.1079
#
#
#
# Elastic Compliance Matrix: (Units=1/GPa)
#
#
# Indices 1 2 3 4 5 6 
#
# 1 0.014249 -0.003809 -0.002619 0.000000 0.000000 0.000000
# 2 -0.003809 0.011561 -0.002800 0.000000 0.000000 0.000000
# 3 -0.002619 -0.002800 0.013077 0.000000 0.000000 0.000000
# 4 0.000000 0.000000 0.000000 0.034227 0.000000 0.000000
# 5 0.000000 0.000000 0.000000 0.000000 0.033883 0.000000
# 6 0.000000 0.000000 0.000000 0.000000 0.000000 0.062081
#
#
# Mechanical properties :
#
#
# Convention : Reuss Voigt Hill
#
# Bulk Modulus (GPa) = 48.94011 49.73821 49.33916
# Shear Modulus (GPa) = 25.72747 27.58519 26.65633
#
# Velocity S-wave (km/s) = 3.86665 4.00382 3.93583
# Velocity P-wave (km/s) = 6.95523 7.09073 7.02331
#
# Compressibility (1/GPa) = 0.02043314
#
# Stress axis : x y z
#
# Youngs Moduli (GPa) = 70.18009 86.49404 76.46945
#
# Poissons Ratio (x) = 0.32944 0.20026
# Poissons Ratio (y) = 0.26730 0.21409
# Poissons Ratio (z) = 0.18379 0.24215
#
# Static dielectric constant tensor:
#      x y z
#    x 1.592750 0.000000 0.000000 
#    y 0.000000 1.583030 0.000000 
#    z 0.000000 0.000000 1.576960 
# 
# From -- ./inp_files/32006.got.cif
#   From: 2010.05.17/outbox.cif.g08.bks.cpg/sg65_17_cif.got.tgz:32006.got - 2010.06.03 17:01:31.
