data_PCOD9489630
_publ_section_title
;
Structure prediction by ZEFSAII (Michael W. Deem and Ramdas Pophale) SiO2 
 PCOD9489630
Probable space group: C M M M
;
_chemical_formula_sum "Si O2"
_cell_formula_units_Z 56
_cell_length_a 8.964090
_cell_length_b 17.611783
_cell_length_c 18.607874
_cell_angle_alpha 90.000000
_cell_angle_beta 90.000000
_cell_angle_gamma 90.000000
_cell_volume 2937.692203
_symmetry_space_group_name_H-M "C M M M"
_symmetry_group_IT_number 65
_symmetry_cell_setting 'orthorhombic'
loop_
_space_group_symop_operation_xyz
x,y,z
-x,-y,z
x,-y,-z
-x,y,-z
-x,-y,-z
x,y,-z
-x,y,z
x,-y,z
1/2+x,1/2+y,z
1/2-x,1/2-y,z
1/2+x,1/2-y,-z
1/2-x,1/2+y,-z
1/2-x,1/2-y,-z
1/2+x,1/2+y,-z
1/2-x,1/2+y,z
1/2+x,1/2-y,z
loop_
_atom_site_type_symbol
_atom_site_label
_atom_site_fract_x
_atom_site_fract_y
_atom_site_fract_z
Si Si1 0.177778 0.666961 0.638201
Si Si2 0.825978 0.592342 0.920269
Si Si3 0.672365 0.408177 0.225897
Si Si4 0.173822 0.909098 0.500000
O O1 0.250000 0.750000 0.637890
O O2 0.226972 0.625740 0.711420
O O3 0.245276 0.622096 0.570581
O O4 0.000000 0.671304 0.632790
O O5 0.820429 0.500000 0.920785
O O6 0.729189 0.617435 0.852539
O O7 0.000000 0.612969 0.910621
O O8 0.777026 0.617698 0.000000
O O9 0.500000 0.386493 0.237200
O O10 0.681134 0.500000 0.228356
O O11 0.000000 0.885040 0.500000
O O12 0.178283 0.000000 0.500000
#
# Coordination Sequence:
#
# PCOD9489630 Si02
#       4
#    16  16  16   8
#     4  12  25  41  61  84 114 150 189 230 276 332
#     4   8  14  26  46  74 108 145 186 232 280 329
#     4  10  20  34  54  82 115 149 188 234 282 332
#     4  11  24  43  66  91 119 147 180 225 274 325
#
# _framework density 19.062581999999999
#
# number of rings (size 3 to 8) (size 9 to 14) (size 15 to 20)
#    0.000    1.857    0.000    6.000    0.000    6.857 
#    0.000    2.857    0.000    0.857    0.000    0.000 
#    0.000    0.000    0.000    0.000    0.000    0.000 
#
# Total GULP energy -156411.153013 kJ/mol
# GULP energy per Si atom -5586.112608 kJ/mol
# Density = 1.901919 g / cm^3
# Si number density = 19.062582 Si / 1000 Ang^3
#
#
#
# Elastic Constant Matrix: (Units=GPa)
#
#
# Indices 1 2 3 4 5 6 
#
# 1 172.4479 41.8043 86.3401 0.0000 0.0000 0.0000
# 2 41.8043 33.0211 33.8014 0.0000 0.0000 0.0000
# 3 86.3401 33.8014 158.6131 0.0000 0.0000 0.0000
# 4 0.0000 0.0000 0.0000 -36.8870 0.0000 0.0000
# 5 0.0000 0.0000 0.0000 0.0000 39.0629 0.0000
# 6 0.0000 0.0000 0.0000 0.0000 0.0000 24.6371
#
#
#
# Elastic Compliance Matrix: (Units=1/GPa)
#
#
# Indices 1 2 3 4 5 6 
#
# 1 0.009594 -0.008697 -0.003369 0.000000 0.000000 0.000000
# 2 -0.008697 0.046617 -0.005200 0.000000 0.000000 0.000000
# 3 -0.003369 -0.005200 0.009247 0.000000 0.000000 0.000000
# 4 0.000000 0.000000 0.000000 -0.027110 0.000000 0.000000
# 5 0.000000 0.000000 0.000000 0.000000 0.025600 0.000000
# 6 0.000000 0.000000 0.000000 0.000000 0.000000 0.040589
#
#
# Mechanical properties :
#
#
# Convention : Reuss Voigt Hill
#
# Bulk Modulus (GPa) = 32.33600 76.44153 54.38877
# Shear Modulus (GPa) = 33.47201 18.83835 26.15518
#
# Velocity S-wave (km/s) = 4.19489 3.14703 3.70816
# Velocity P-wave (km/s) = 6.36103 7.30701 6.85037
#
# Compressibility (1/GPa) = 0.03092529
#
# Stress axis : x y z
#
# Youngs Moduli (GPa) = 104.23190 21.45121 108.14653
#
# Poissons Ratio (x) = 0.18657 0.36434
# Poissons Ratio (y) = 0.90654 0.56238
# Poissons Ratio (z) = 0.35116 0.11155
#
# Static dielectric constant tensor:
#      x y z
#    x 1.640110 0.000000 0.000000 
#    y 0.000000 1.651950 0.000000 
#    z 0.000000 0.000000 1.652510 
# 
# From -- ./inp_files/48743.got.cif
#   From: 2010.05.17/outbox.cif.g08.bks.cpg/sg65_25_cif.got.tgz:48743.got - 2010.06.03 17:01:31.
