data_PCOD9489159
_publ_section_title
;
Structure prediction by ZEFSAII (Michael W. Deem and Ramdas Pophale) SiO2 
 PCOD9489159
Probable space group: C M M M
;
_chemical_formula_sum "Si O2"
_cell_formula_units_Z 104
_cell_length_a 7.425090
_cell_length_b 31.703273
_cell_length_c 19.929346
_cell_angle_alpha 90.000000
_cell_angle_beta 90.000000
_cell_angle_gamma 90.000000
_cell_volume 4691.361179
_symmetry_space_group_name_H-M "C M M M"
_symmetry_group_IT_number 65
_symmetry_cell_setting 'orthorhombic'
loop_
_space_group_symop_operation_xyz
x,y,z
-x,-y,z
x,-y,-z
-x,y,-z
-x,-y,-z
x,y,-z
-x,y,z
x,-y,z
1/2+x,1/2+y,z
1/2-x,1/2-y,z
1/2+x,1/2-y,-z
1/2-x,1/2+y,-z
1/2-x,1/2-y,-z
1/2+x,1/2+y,-z
1/2-x,1/2+y,z
1/2+x,1/2-y,z
loop_
_atom_site_type_symbol
_atom_site_label
_atom_site_fract_x
_atom_site_fract_y
_atom_site_fract_z
Si Si1 0.212425 0.455063 0.419470
Si Si2 0.714641 0.295487 0.856778
Si Si3 0.215668 0.300155 0.500000
Si Si4 0.219867 0.952140 0.853759
Si Si5 0.280317 0.680691 0.000000
Si Si6 0.711836 0.136163 0.614068
Si Si7 0.218918 0.917936 0.000000
Si Si8 0.217741 0.872466 0.767921
O O1 0.221487 0.455683 0.500000
O O2 0.287799 0.500000 0.394574
O O3 0.292082 0.410388 0.398656
O O4 0.000000 0.455015 0.400924
O O5 0.500000 0.300495 0.860013
O O6 0.750000 0.250000 0.825705
O O7 0.785550 0.297667 0.932435
O O8 0.782988 0.335508 0.816645
O O9 0.250000 0.250000 0.500000
O O10 0.281249 0.326526 0.434313
O O11 0.000000 0.302391 0.500000
O O12 0.277862 0.917359 0.798811
O O13 0.000000 0.951515 0.854141
O O14 0.276457 0.000000 0.839121
O O15 0.276152 0.938932 0.929584
O O16 0.500000 0.681997 0.000000
O O17 0.231250 0.631317 0.000000
O O18 0.500000 0.132981 0.596926
O O19 0.728197 0.140931 0.693405
O O20 0.000000 0.919805 0.000000
O O21 0.000000 0.873581 0.768743
#
# Coordination Sequence:
#
# PCOD9489159 Si02
#       8
#    16  16   8  16   8  16   8  16
#     4   8  13  25  50  80 103 124 156 200 246 289
#     4  10  20  34  52  73 100 132 169 212 258 305
#     4  10  22  40  61  83 105 131 170 220 265 306
#     4   9  16  27  46  74 107 142 179 217 257 303
#     4   9  15  28  50  72  96 129 168 213 260 302
#     4  10  20  36  57  80 105 133 170 213 253 301
#     4   9  13  23  46  73 100 134 179 224 260 296
#     4  10  21  35  50  74 109 143 169 204 258 311
#
# _framework density 22.168405
#
# number of rings (size 3 to 8) (size 9 to 14) (size 15 to 20)
#    0.000    2.615    2.308    0.923    0.000    3.385 
#    0.000    3.077    0.000    0.000    0.000    1.615 
#    0.000    1.231    0.000    0.000    0.000    0.000 
#
# Total GULP energy -290088.459045 kJ/mol
# GULP energy per Si atom -5578.624212 kJ/mol
# Density = 2.211795 g / cm^3
# Si number density = 22.168405 Si / 1000 Ang^3
#
#
#
# Elastic Constant Matrix: (Units=GPa)
#
#
# Indices 1 2 3 4 5 6 
#
# 1 72.0904 6.3344 0.4560 0.0000 0.0000 0.0000
# 2 6.3344 213.7839 88.1093 0.0000 0.0000 0.0000
# 3 0.4560 88.1093 122.5619 0.0000 0.0000 0.0000
# 4 0.0000 0.0000 0.0000 0.6233 0.0000 0.0000
# 5 0.0000 0.0000 0.0000 0.0000 0.2731 0.0000
# 6 0.0000 0.0000 0.0000 0.0000 0.0000 6.2611
#
#
#
# Elastic Compliance Matrix: (Units=1/GPa)
#
#
# Indices 1 2 3 4 5 6 
#
# 1 0.013918 -0.000556 0.000348 0.000000 0.000000 0.000000
# 2 -0.000556 0.006669 -0.004792 0.000000 0.000000 0.000000
# 3 0.000348 -0.004792 0.011603 0.000000 0.000000 0.000000
# 4 0.000000 0.000000 0.000000 1.604342 0.000000 0.000000
# 5 0.000000 0.000000 0.000000 0.000000 3.661658 0.000000
# 6 0.000000 0.000000 0.000000 0.000000 0.000000 0.159716
#
#
# Mechanical properties :
#
#
# Convention : Reuss Voigt Hill
#
# Bulk Modulus (GPa) = 45.06612 66.47062 55.76837
# Shear Modulus (GPa) = 0.91319 22.33394 11.62356
#
# Velocity S-wave (km/s) = 0.64252 3.17751 2.29231
# Velocity P-wave (km/s) = 4.57423 6.59633 5.67605
#
# Compressibility (1/GPa) = 0.02218962
#
# Stress axis : x y z
#
# Youngs Moduli (GPa) = 71.84884 149.94192 86.18378
#
# Poissons Ratio (x) = 0.08332 -0.02997
# Poissons Ratio (y) = 0.03993 0.41303
# Poissons Ratio (z) = -0.02498 0.71859
#
# Static dielectric constant tensor:
#      x y z
#    x 1.918030 0.000000 0.000000 
#    y 0.000000 1.812920 0.000000 
#    z 0.000000 0.000000 2.125500 
# 
# From -- ./inp_files/51966.got.cif
#   From: 2010.05.17/outbox.cif.g08.bks.cpg/sg65_26_cif.got.tgz:51966.got - 2010.06.03 17:01:31.
