data_PCOD9489015
_publ_section_title
;
Structure prediction by ZEFSAII (Michael W. Deem and Ramdas Pophale) SiO2 
 PCOD9489015
Probable space group: C M M M
;
_chemical_formula_sum "Si O2"
_cell_formula_units_Z 88
_cell_length_a 24.259885
_cell_length_b 8.715785
_cell_length_c 23.228269
_cell_angle_alpha 90.000000
_cell_angle_beta 90.000000
_cell_angle_gamma 90.000000
_cell_volume 4911.476758
_symmetry_space_group_name_H-M "C M M M"
_symmetry_group_IT_number 65
_symmetry_cell_setting 'orthorhombic'
loop_
_space_group_symop_operation_xyz
x,y,z
-x,-y,z
x,-y,-z
-x,y,-z
-x,-y,-z
x,y,-z
-x,y,z
x,-y,z
1/2+x,1/2+y,z
1/2-x,1/2-y,z
1/2+x,1/2-y,-z
1/2-x,1/2+y,-z
1/2-x,1/2-y,-z
1/2+x,1/2+y,-z
1/2-x,1/2+y,z
1/2+x,1/2-y,z
loop_
_atom_site_type_symbol
_atom_site_label
_atom_site_fract_x
_atom_site_fract_y
_atom_site_fract_z
Si Si1 0.878365 0.685952 0.171273
Si Si2 0.435191 0.816130 0.500000
Si Si3 0.500000 0.326462 0.691448
Si Si4 0.389184 0.679350 0.383061
Si Si5 0.500000 0.820332 0.190007
Si Si6 0.188356 0.684381 0.713296
Si Si7 0.311496 0.683609 0.935369
O O1 0.878718 0.500000 0.171138
O O2 0.941424 0.743853 0.169798
O O3 0.847496 0.732646 0.230459
O O4 0.846828 0.746023 0.115729
O O5 0.500000 0.763631 0.500000
O O6 0.403435 0.756569 0.443717
O O7 0.435999 0.000000 0.500000
O O8 0.500000 0.500000 0.716308
O O9 0.445777 0.309938 0.653235
O O10 0.500000 0.202736 0.741491
O O11 0.376176 0.500000 0.391450
O O12 0.342197 0.756593 0.344086
O O13 0.500000 0.000000 0.175472
O O14 0.190423 0.500000 0.712582
O O15 0.250000 0.750000 0.717675
O O16 0.309546 0.500000 0.929956
O O17 0.250000 0.750000 0.930880
O O18 0.332145 0.721338 0.000000
#
# Coordination Sequence:
#
# PCOD9489015 Si02
#       7
#    16   8   8  16   8  16  16
#     4  10  21  36  58  86 116 150 188 232 281 336
#     4  11  23  37  58  87 118 153 191 232 282 338
#     4  10  20  33  55  85 116 150 185 229 285 334
#     4  11  22  38  59  86 118 151 190 235 284 337
#     4  10  20  36  56  84 118 151 186 228 281 336
#     4  11  23  39  59  85 116 151 191 236 285 338
#     4  10  21  37  58  83 112 148 191 238 285 334
#
# _framework density 17.917217999999998
#
# number of rings (size 3 to 8) (size 9 to 14) (size 15 to 20)
#    0.000    1.545    2.727    2.455    0.000    5.818 
#    0.000    0.909    0.000    2.727    0.000    0.000 
#    0.000    0.000    0.000    0.000    0.000    0.000 
#
# Total GULP energy -245653.027716 kJ/mol
# GULP energy per Si atom -5583.023357 kJ/mol
# Density = 1.787644 g / cm^3
# Si number density = 17.917218 Si / 1000 Ang^3
#
#
#
# Elastic Constant Matrix: (Units=GPa)
#
#
# Indices 1 2 3 4 5 6 
#
# 1 139.4240 40.5258 79.5849 0.0000 0.0000 0.0000
# 2 40.5258 39.6749 37.9589 0.0000 0.0000 0.0000
# 3 79.5849 37.9589 144.6171 0.0000 0.0000 0.0000
# 4 0.0000 0.0000 0.0000 32.5091 0.0000 0.0000
# 5 0.0000 0.0000 0.0000 0.0000 -185.9666 0.0000
# 6 0.0000 0.0000 0.0000 0.0000 0.0000 24.2474
#
#
#
# Elastic Compliance Matrix: (Units=1/GPa)
#
#
# Indices 1 2 3 4 5 6 
#
# 1 0.012099 -0.007996 -0.004560 0.000000 0.000000 0.000000
# 2 -0.007996 0.038942 -0.005821 0.000000 0.000000 0.000000
# 3 -0.004560 -0.005821 0.010952 0.000000 0.000000 0.000000
# 4 0.000000 0.000000 0.000000 0.030761 0.000000 0.000000
# 5 0.000000 0.000000 0.000000 0.000000 -0.005377 0.000000
# 6 0.000000 0.000000 0.000000 0.000000 0.000000 0.041241
#
#
# Mechanical properties :
#
#
# Convention : Reuss Voigt Hill
#
# Bulk Modulus (GPa) = 39.62067 71.09504 55.35786
# Shear Modulus (GPa) = 28.77126 -14.79891 6.98617
#
# Velocity S-wave (km/s) = 4.01158 -2.87707 1.97677
# Velocity P-wave (km/s) = 6.60441 5.35996 6.01446
#
# Compressibility (1/GPa) = 0.02523935
#
# Stress axis : x y z
#
# Youngs Moduli (GPa) = 82.64941 25.67929 91.30897
#
# Poissons Ratio (x) = 0.20534 0.41633
# Poissons Ratio (y) = 0.66090 0.53149
# Poissons Ratio (z) = 0.37684 0.14947
#
# Static dielectric constant tensor:
#      x y z
#    x 1.607780 0.000000 0.000000 
#    y 0.000000 1.615400 0.000000 
#    z 0.000000 0.000000 1.586150 
# 
# From -- ./inp_files/71055.got.cif
#   From: 2010.05.17/outbox.cif.g08.bks.cpg/sg65_36_cif.got.tgz:71055.got - 2010.06.03 17:01:31.
