data_PCOD9489530
_publ_section_title
;
Structure prediction by ZEFSAII (Michael W. Deem and Ramdas Pophale) SiO2 
 PCOD9489530
Probable space group: C M M M
;
_chemical_formula_sum "Si O2"
_cell_formula_units_Z 88
_cell_length_a 26.020641
_cell_length_b 20.105611
_cell_length_c 8.237588
_cell_angle_alpha 90.000000
_cell_angle_beta 90.000000
_cell_angle_gamma 90.000000
_cell_volume 4309.583836
_symmetry_space_group_name_H-M "C M M M"
_symmetry_group_IT_number 65
_symmetry_cell_setting 'orthorhombic'
loop_
_space_group_symop_operation_xyz
x,y,z
-x,-y,z
x,-y,-z
-x,y,-z
-x,-y,-z
x,y,-z
-x,y,z
x,-y,z
1/2+x,1/2+y,z
1/2-x,1/2-y,z
1/2+x,1/2-y,-z
1/2-x,1/2+y,-z
1/2-x,1/2-y,-z
1/2+x,1/2+y,-z
1/2-x,1/2+y,z
1/2+x,1/2-y,z
loop_
_atom_site_type_symbol
_atom_site_label
_atom_site_fract_x
_atom_site_fract_y
_atom_site_fract_z
Si Si1 0.056202 0.316524 0.693034
Si Si2 0.637744 0.925808 0.305906
Si Si3 0.588713 0.678258 0.812076
Si Si4 0.500000 0.578298 0.199136
Si Si5 0.247832 0.075457 0.187491
Si Si6 0.703577 0.704666 0.316525
O O1 0.062859 0.302983 0.500000
O O2 0.099826 0.367658 0.744510
O O3 0.059073 0.247137 0.784764
O O4 0.000000 0.347121 0.714652
O O5 0.647946 0.919196 0.500000
O O6 0.691090 0.921676 0.211829
O O7 0.615987 0.000000 0.281173
O O8 0.551409 0.619189 0.745680
O O9 0.645783 0.696849 0.749024
O O10 0.595548 0.662375 0.000000
O O11 0.500000 0.500000 0.245321
O O12 0.500000 0.580569 0.000000
O O13 0.224336 0.129974 0.303908
O O14 0.231274 0.000000 0.223124
O O15 0.234671 0.090640 0.000000
O O16 0.697996 0.729947 0.500000
O O17 0.750000 0.750000 0.240426
#
# Coordination Sequence:
#
# PCOD9489530 Si02
#       6
#    16  16  16   8  16  16
#     4  10  20  34  54  79 111 149 187 232 282 334
#     4   9  18  33  53  78 110 150 192 232 277 329
#     4  11  22  38  61  87 115 149 193 243 297 358
#     4   9  20  40  63  87 116 151 192 242 301 359
#     4  10  21  37  57  82 112 147 188 233 284 343
#     4  11  24  40  59  86 120 156 196 243 297 357
#
# _framework density 20.419605000000001
#
# number of rings (size 3 to 8) (size 9 to 14) (size 15 to 20)
#    0.000    1.909    0.909    2.727    0.000    8.727 
#    0.000    3.636    0.000    3.818    0.000    3.818 
#    0.000    0.000    0.000    0.000    0.000    0.000 
#
# Total GULP energy -245278.502697 kJ/mol
# GULP energy per Si atom -5574.511425 kJ/mol
# Density = 2.037313 g / cm^3
# Si number density = 20.419605 Si / 1000 Ang^3
#
#
#
# Elastic Constant Matrix: (Units=GPa)
#
#
# Indices 1 2 3 4 5 6 
#
# 1 120.8520 45.3665 17.2019 0.0000 0.0000 0.0000
# 2 45.3665 79.0644 6.5237 0.0000 0.0000 0.0000
# 3 17.2019 6.5237 12.1395 0.0000 0.0000 0.0000
# 4 0.0000 0.0000 0.0000 21.2180 0.0000 0.0000
# 5 0.0000 0.0000 0.0000 0.0000 27.8552 0.0000
# 6 0.0000 0.0000 0.0000 0.0000 0.0000 38.7109
#
#
#
# Elastic Compliance Matrix: (Units=1/GPa)
#
#
# Indices 1 2 3 4 5 6 
#
# 1 0.012625 -0.006036 -0.014646 0.000000 0.000000 0.000000
# 2 -0.006036 0.016120 -0.000110 0.000000 0.000000 0.000000
# 3 -0.014646 -0.000110 0.103189 0.000000 0.000000 0.000000
# 4 0.000000 0.000000 0.000000 0.047130 0.000000 0.000000
# 5 0.000000 0.000000 0.000000 0.000000 0.035900 0.000000
# 6 0.000000 0.000000 0.000000 0.000000 0.000000 0.025832
#
#
# Mechanical properties :
#
#
# Convention : Reuss Voigt Hill
#
# Bulk Modulus (GPa) = 11.06814 38.91559 24.99186
# Shear Modulus (GPa) = 16.00013 27.08774 21.54394
#
# Velocity S-wave (km/s) = 2.80226 3.64614 3.25169
# Velocity P-wave (km/s) = 3.98778 6.06837 5.13456
#
# Compressibility (1/GPa) = 0.09034943
#
# Stress axis : x y z
#
# Youngs Moduli (GPa) = 79.20765 62.03384 9.69098
#
# Poissons Ratio (x) = 0.37442 0.14194
# Poissons Ratio (y) = 0.47807 0.00107
# Poissons Ratio (z) = 1.16010 0.00684
#
# Static dielectric constant tensor:
#      x y z
#    x 1.765030 0.000000 0.000000 
#    y 0.000000 1.716680 0.000000 
#    z 0.000000 0.000000 1.762660 
# 
# From -- ./inp_files/13962.got.cif
#   From: 2010.05.17/outbox.cif.g08.bks.cpg/sg65_7_cif.got.tgz:13962.got - 2010.06.03 17:01:31.
