data_PCOD9489013
_publ_section_title
;
Structure prediction by ZEFSAII (Michael W. Deem and Ramdas Pophale) SiO2 
 PCOD9489013
Probable space group: C M M M
;
_chemical_formula_sum "Si O2"
_cell_formula_units_Z 72
_cell_length_a 22.757061
_cell_length_b 18.325776
_cell_length_c 7.607317
_cell_angle_alpha 90.000000
_cell_angle_beta 90.000000
_cell_angle_gamma 90.000000
_cell_volume 3172.561585
_symmetry_space_group_name_H-M "C M M M"
_symmetry_group_IT_number 65
_symmetry_cell_setting 'orthorhombic'
loop_
_space_group_symop_operation_xyz
x,y,z
-x,-y,z
x,-y,-z
-x,y,-z
-x,-y,-z
x,y,-z
-x,y,z
x,-y,z
1/2+x,1/2+y,z
1/2-x,1/2-y,z
1/2+x,1/2-y,-z
1/2-x,1/2+y,-z
1/2-x,1/2-y,-z
1/2+x,1/2+y,-z
1/2-x,1/2+y,z
1/2+x,1/2-y,z
loop_
_atom_site_type_symbol
_atom_site_label
_atom_site_fract_x
_atom_site_fract_y
_atom_site_fract_z
Si Si1 0.626186 0.855135 0.787149
Si Si2 0.000000 0.414872 0.785292
Si Si3 0.933102 0.918097 0.214720
Si Si4 0.745585 0.921038 0.705973
Si Si5 0.661279 0.695791 0.208059
O O1 0.560516 0.875911 0.727979
O O2 0.676201 0.912261 0.734628
O O3 0.650025 0.776619 0.721085
O O4 0.624764 0.854436 0.000000
O O5 0.000000 0.500000 0.733197
O O6 0.000000 0.413291 0.000000
O O7 0.887663 0.859110 0.280622
O O8 0.000000 0.902042 0.265259
O O9 0.918223 0.000000 0.271649
O O10 0.931434 0.918027 0.000000
O O11 0.757851 0.922269 0.500000
O O12 0.778048 0.848506 0.774452
O O13 0.765259 0.000000 0.781619
O O14 0.651587 0.702855 0.000000
#
# Coordination Sequence:
#
# PCOD9489013 Si02
#       5
#    16   8  16  16  16
#     4  10  21  36  58  87 116 146 183 228 280 335
#     4   9  18  34  57  85 116 149 182 222 275 329
#     4   8  14  25  44  73 108 143 177 216 265 319
#     4  11  24  40  57  78 108 149 193 235 280 330
#     4  10  20  33  55  85 115 144 181 227 279 333
#
# _framework density 22.694593000000001
#
# number of rings (size 3 to 8) (size 9 to 14) (size 15 to 20)
#    0.000    2.333    0.000    3.333    1.556    7.111 
#    0.000    0.556    0.000    2.667    0.000    3.111 
#    0.000    0.000    0.000    0.000    0.000    0.000 
#
# Total GULP energy -201020.813819 kJ/mol
# GULP energy per Si atom -5583.911495 kJ/mol
# Density = 2.264294 g / cm^3
# Si number density = 22.694593 Si / 1000 Ang^3
#
#
#
# Elastic Constant Matrix: (Units=GPa)
#
#
# Indices 1 2 3 4 5 6 
#
# 1 116.6860 76.9049 -13.0713 0.0000 0.0000 0.0000
# 2 76.9049 134.3312 3.0514 0.0000 0.0000 0.0000
# 3 -13.0713 3.0514 48.4544 0.0000 0.0000 0.0000
# 4 0.0000 0.0000 0.0000 -4.6516 0.0000 0.0000
# 5 0.0000 0.0000 0.0000 0.0000 -91.4534 0.0000
# 6 0.0000 0.0000 0.0000 0.0000 0.0000 43.5233
#
#
#
# Elastic Compliance Matrix: (Units=1/GPa)
#
#
# Indices 1 2 3 4 5 6 
#
# 1 0.014680 -0.008506 0.004496 0.000000 0.000000 0.000000
# 2 -0.008506 0.012384 -0.003075 0.000000 0.000000 0.000000
# 3 0.004496 -0.003075 0.022044 0.000000 0.000000 0.000000
# 4 0.000000 0.000000 0.000000 -0.214979 0.000000 0.000000
# 5 0.000000 0.000000 0.000000 0.000000 -0.010935 0.000000
# 6 0.000000 0.000000 0.000000 0.000000 0.000000 0.022976
#
#
# Mechanical properties :
#
#
# Convention : Reuss Voigt Hill
#
# Bulk Modulus (GPa) = 28.62207 48.13794 38.38000
# Shear Modulus (GPa) = -39.05873 4.98944 -17.03465
#
# Velocity S-wave (km/s) = -4.15307 1.48435 -2.74269
# Velocity P-wave (km/s) = 3.21839 4.91884 2.63030
#
# Compressibility (1/GPa) = 0.03493808
#
# Stress axis : x y z
#
# Youngs Moduli (GPa) = 68.11958 80.74857 45.36293
#
# Poissons Ratio (x) = 0.68689 -0.20395
# Poissons Ratio (y) = 0.57946 0.13948
# Poissons Ratio (z) = -0.30626 0.24827
#
# Static dielectric constant tensor:
#      x y z
#    x 1.824380 0.000000 0.000000 
#    y 0.000000 1.861900 0.000000 
#    z 0.000000 0.000000 1.857060 
# 
# From -- ./inp_files/9241.got.cif
#   From: 2010.05.17/outbox.cif.g08.bks.cpg/sg65_5_cif.got.tgz:9241.got - 2010.06.03 17:01:31.
