data_PCOD9489607
_publ_section_title
;
Structure prediction by ZEFSAII (Michael W. Deem and Ramdas Pophale) SiO2 
 PCOD9489607
Probable space group: C M M M
;
_chemical_formula_sum "Si O2"
_cell_formula_units_Z 112
_cell_length_a 25.571995
_cell_length_b 14.715189
_cell_length_c 15.890810
_cell_angle_alpha 90.000000
_cell_angle_beta 90.000000
_cell_angle_gamma 90.000000
_cell_volume 5979.659992
_symmetry_space_group_name_H-M "C M M M"
_symmetry_group_IT_number 65
_symmetry_cell_setting 'orthorhombic'
loop_
_space_group_symop_operation_xyz
x,y,z
-x,-y,z
x,-y,-z
-x,y,-z
-x,-y,-z
x,y,-z
-x,y,z
x,-y,z
1/2+x,1/2+y,z
1/2-x,1/2-y,z
1/2+x,1/2-y,-z
1/2-x,1/2+y,-z
1/2-x,1/2-y,-z
1/2+x,1/2+y,-z
1/2-x,1/2+y,z
1/2+x,1/2-y,z
loop_
_atom_site_type_symbol
_atom_site_label
_atom_site_fract_x
_atom_site_fract_y
_atom_site_fract_z
Si Si1 0.937725 0.603084 0.256342
Si Si2 0.939508 0.256206 0.402235
Si Si3 0.130412 0.271612 0.851562
Si Si4 0.725897 0.893052 0.093889
Si Si5 0.146132 0.898500 0.596249
Si Si6 0.440575 0.398507 0.899705
Si Si7 0.210919 0.826256 0.258867
O O1 0.918940 0.500000 0.264274
O O2 0.927213 0.661199 0.340083
O O3 0.910286 0.653566 0.179501
O O4 0.000000 0.602411 0.244043
O O5 0.935630 0.283827 0.500000
O O6 0.899686 0.173918 0.388549
O O7 0.000000 0.228783 0.386592
O O8 0.176072 0.325273 0.901543
O O9 0.098670 0.184827 0.885526
O O10 0.161111 0.229044 0.773394
O O11 0.762702 0.869588 0.174353
O O12 0.711297 0.000000 0.100455
O O13 0.750427 0.880781 0.000000
O O14 0.165355 0.884706 0.500000
O O15 0.191170 0.888851 0.666078
O O16 0.124211 0.000000 0.601493
O O17 0.500000 0.380491 0.867412
O O18 0.423923 0.500000 0.868419
O O19 0.444414 0.405820 0.000000
O O20 0.250000 0.750000 0.292674
#
# Coordination Sequence:
#
# PCOD9489607 Si02
#       7
#    16  16  16  16  16  16  16
#     4  10  20  34  54  81 113 149 187 229 280 334
#     4   9  18  34  56  84 117 150 188 231 275 330
#     4  11  20  35  56  81 110 146 188 232 281 340
#     4  10  22  39  59  84 114 146 187 241 295 345
#     4  10  20  36  59  86 117 152 189 230 280 343
#     4   9  19  35  54  79 112 148 185 228 278 332
#     4  10  22  37  57  81 109 148 188 240 293 339
#
# _framework density 18.730160999999999
#
# number of rings (size 3 to 8) (size 9 to 14) (size 15 to 20)
#    0.000    2.143    1.429    2.143    0.000    5.143 
#    0.000    4.286    0.000    0.000    0.000    6.000 
#    0.000    0.000    0.000    0.000    0.000    0.000 
#
# Total GULP energy -311930.699534 kJ/mol
# GULP energy per Si atom -5570.191063 kJ/mol
# Density = 1.868753 g / cm^3
# Si number density = 18.730161 Si / 1000 Ang^3
#
#
#
# Elastic Constant Matrix: (Units=GPa)
#
#
# Indices 1 2 3 4 5 6 
#
# 1 53.9396 47.4320 33.5894 0.0000 0.0000 0.0000
# 2 47.4320 127.2309 42.5627 0.0000 0.0000 0.0000
# 3 33.5894 42.5627 73.4090 0.0000 0.0000 0.0000
# 4 0.0000 0.0000 0.0000 74.9924 0.0000 0.0000
# 5 0.0000 0.0000 0.0000 0.0000 -331.5244 0.0000
# 6 0.0000 0.0000 0.0000 0.0000 0.0000 17.2296
#
#
#
# Elastic Compliance Matrix: (Units=1/GPa)
#
#
# Indices 1 2 3 4 5 6 
#
# 1 0.032311 -0.008808 -0.009677 0.000000 0.000000 0.000000
# 2 -0.008808 0.012152 -0.003016 0.000000 0.000000 0.000000
# 3 -0.009677 -0.003016 0.019799 0.000000 0.000000 0.000000
# 4 0.000000 0.000000 0.000000 0.013335 0.000000 0.000000
# 5 0.000000 0.000000 0.000000 0.000000 -0.003016 0.000000
# 6 0.000000 0.000000 0.000000 0.000000 0.000000 0.058040
#
#
# Mechanical properties :
#
#
# Convention : Reuss Voigt Hill
#
# Bulk Modulus (GPa) = 47.03725 55.74973 51.39349
# Shear Modulus (GPa) = 27.36587 -39.12746 -5.88079
#
# Velocity S-wave (km/s) = 3.82653 -4.57553 -1.77385
# Velocity P-wave (km/s) = 6.68511 1.38398 4.82732
#
# Compressibility (1/GPa) = 0.02125975
#
# Stress axis : x y z
#
# Youngs Moduli (GPa) = 30.94906 82.28916 50.50820
#
# Poissons Ratio (x) = 0.72483 0.48879
# Poissons Ratio (y) = 0.27261 0.15231
# Poissons Ratio (z) = 0.29951 0.24815
#
# Static dielectric constant tensor:
#      x y z
#    x 1.703140 0.000000 0.000000 
#    y 0.000000 1.668490 0.000000 
#    z 0.000000 0.000000 1.669650 
# 
# From -- ./inp_files/40805.got.cif
#   From: 2010.05.17/outbox.cif.g08.bks.cpg/sg65_21_cif.got.tgz:40805.got - 2010.06.03 17:01:31.
