data_PCOD9489448
_publ_section_title
;
Structure prediction by ZEFSAII (Michael W. Deem and Ramdas Pophale) SiO2 
 PCOD9489448
Probable space group: C M M M
;
_chemical_formula_sum "Si O2"
_cell_formula_units_Z 76
_cell_length_a 27.019083
_cell_length_b 7.479825
_cell_length_c 18.352585
_cell_angle_alpha 90.000000
_cell_angle_beta 90.000000
_cell_angle_gamma 90.000000
_cell_volume 3709.020953
_symmetry_space_group_name_H-M "C M M M"
_symmetry_group_IT_number 65
_symmetry_cell_setting 'orthorhombic'
loop_
_space_group_symop_operation_xyz
x,y,z
-x,-y,z
x,-y,-z
-x,y,-z
-x,-y,-z
x,y,-z
-x,y,z
x,-y,z
1/2+x,1/2+y,z
1/2-x,1/2-y,z
1/2+x,1/2-y,-z
1/2-x,1/2+y,-z
1/2-x,1/2-y,-z
1/2+x,1/2+y,-z
1/2-x,1/2+y,z
1/2+x,1/2-y,z
loop_
_atom_site_type_symbol
_atom_site_label
_atom_site_fract_x
_atom_site_fract_y
_atom_site_fract_z
Si Si1 0.093539 0.707313 0.881069
Si Si2 0.432588 0.500000 0.000000
Si Si3 0.657414 0.208467 0.345292
Si Si4 0.191968 0.285903 0.500000
Si Si5 0.693896 0.213300 0.190553
Si Si6 0.945001 0.784933 0.278250
O O1 0.094084 0.500000 0.905485
O O2 0.069252 0.842961 0.936842
O O3 0.150170 0.771391 0.863723
O O4 0.066872 0.716084 0.802778
O O5 0.670880 0.286397 0.423662
O O6 0.683539 0.285506 0.272408
O O7 0.599178 0.220965 0.329581
O O8 0.672288 0.000000 0.347512
O O9 0.182500 0.500000 0.500000
O O10 0.250000 0.250000 0.500000
O O11 0.750000 0.250000 0.168040
O O12 0.687387 0.000000 0.194471
O O13 0.000000 0.730096 0.300658
O O14 0.942959 0.000000 0.275742
#
# Coordination Sequence:
#
# PCOD9489448 Si02
#       6
#    16   4  16   8  16  16
#     4  10  22  39  59  85 115 151 192 237 291 354
#     4  12  22  40  63  84 118 156 180 238 305 352
#     4   9  19  34  52  81 114 153 194 240 290 346
#     4  10  20  34  53  82 123 159 198 239 289 348
#     4   9  18  31  53  78 106 144 197 240 280 339
#     4  10  20  37  61  87 110 143 195 242 288 350
#
# _framework density 20.490582
#
# number of rings (size 3 to 8) (size 9 to 14) (size 15 to 20)
#    0.000    2.316    1.053    2.842    1.474    3.368 
#    0.000    2.105    0.000    4.421    0.000    0.000 
#    0.000    0.000    0.000    0.000    0.000    0.000 
#
# Total GULP energy -211571.559195 kJ/mol
# GULP energy per Si atom -5567.672610 kJ/mol
# Density = 2.044394 g / cm^3
# Si number density = 20.490582 Si / 1000 Ang^3
#
#
#
# Elastic Constant Matrix: (Units=GPa)
#
#
# Indices 1 2 3 4 5 6 
#
# 1 61.5539 -21.6055 10.6273 0.0000 0.0000 0.0000
# 2 -21.6055 89.4659 17.0782 0.0000 0.0000 0.0000
# 3 10.6273 17.0782 90.9623 0.0000 0.0000 0.0000
# 4 0.0000 0.0000 0.0000 -5.8101 0.0000 0.0000
# 5 0.0000 0.0000 0.0000 0.0000 16.7036 0.0000
# 6 0.0000 0.0000 0.0000 0.0000 0.0000 19.0267
#
#
#
# Elastic Compliance Matrix: (Units=1/GPa)
#
#
# Indices 1 2 3 4 5 6 
#
# 1 0.018568 0.005080 -0.003123 0.000000 0.000000 0.000000
# 2 0.005080 0.012983 -0.003031 0.000000 0.000000 0.000000
# 3 -0.003123 -0.003031 0.011928 0.000000 0.000000 0.000000
# 4 0.000000 0.000000 0.000000 -0.172115 0.000000 0.000000
# 5 0.000000 0.000000 0.000000 0.000000 0.059867 0.000000
# 6 0.000000 0.000000 0.000000 0.000000 0.000000 0.052558
#
#
# Mechanical properties :
#
#
# Convention : Reuss Voigt Hill
#
# Bulk Modulus (GPa) = 24.19499 28.24245 26.21872
# Shear Modulus (GPa) = -17466.01826 21.70953 -8722.15437
#
# Velocity S-wave (km/s) = -92.42527 3.25851 -65.31390
# Velocity P-wave (km/s) = 106.66805 5.28869 75.33294
#
# Compressibility (1/GPa) = 0.04133088
#
# Stress axis : x y z
#
# Youngs Moduli (GPa) = 53.85514 77.02432 83.83963
#
# Poissons Ratio (x) = -0.39131 0.26185
# Poissons Ratio (y) = -0.27360 0.25412
# Poissons Ratio (z) = 0.16820 0.23347
#
# Static dielectric constant tensor:
#      x y z
#    x 1.748770 0.000000 0.000000 
#    y 0.000000 1.766310 0.000000 
#    z 0.000000 0.000000 1.710000 
# 
# From -- ./inp_files/57263.got.cif
#   From: 2010.05.17/outbox.cif.g08.bks.cpg/sg65_29_cif.got.tgz:57263.got - 2010.06.03 17:01:31.
