data_PCOD9489721
_publ_section_title
;
Structure prediction by ZEFSAII (Michael W. Deem and Ramdas Pophale) SiO2 
 PCOD9489721
Probable space group: C M M M
;
_chemical_formula_sum "Si O2"
_cell_formula_units_Z 100
_cell_length_a 19.984476
_cell_length_b 30.111778
_cell_length_c 7.384914
_cell_angle_alpha 90.000000
_cell_angle_beta 90.000000
_cell_angle_gamma 90.000000
_cell_volume 4444.005702
_symmetry_space_group_name_H-M "C M M M"
_symmetry_group_IT_number 65
_symmetry_cell_setting 'orthorhombic'
loop_
_space_group_symop_operation_xyz
x,y,z
-x,-y,z
x,-y,-z
-x,y,-z
-x,-y,-z
x,y,-z
-x,y,z
x,-y,z
1/2+x,1/2+y,z
1/2-x,1/2-y,z
1/2+x,1/2-y,-z
1/2-x,1/2+y,-z
1/2-x,1/2-y,-z
1/2+x,1/2+y,-z
1/2-x,1/2+y,z
1/2+x,1/2-y,z
loop_
_atom_site_type_symbol
_atom_site_label
_atom_site_fract_x
_atom_site_fract_y
_atom_site_fract_z
Si Si1 0.734222 0.500000 0.500000
Si Si2 0.575168 0.801548 0.218359
Si Si3 0.683645 0.271642 0.289924
Si Si4 0.717189 0.068072 0.790509
Si Si5 0.173051 0.130329 0.281635
Si Si6 0.925179 0.403567 0.779705
Si Si7 0.078509 0.949807 0.279441
O O1 0.740342 0.461996 0.657577
O O2 0.500000 0.789217 0.272786
O O3 0.627137 0.765513 0.282998
O O4 0.585972 0.852486 0.277282
O O5 0.577943 0.802197 0.000000
O O6 0.699958 0.281069 0.500000
O O7 0.750000 0.250000 0.206393
O O8 0.660978 0.319511 0.216521
O O9 0.752047 0.116077 0.774622
O O10 0.639989 0.068684 0.726714
O O11 0.719271 0.054362 0.000000
O O12 0.167351 0.129416 0.500000
O O13 0.122637 0.091679 0.214543
O O14 0.000000 0.417573 0.721878
O O15 0.925455 0.404070 0.000000
O O16 0.083813 0.951188 0.500000
O O17 0.000000 0.943563 0.236100
O O18 0.097663 0.000000 0.219581
#
# Coordination Sequence:
#
# PCOD9489721 Si02
#       7
#     4  16  16  16  16  16  16
#     4  12  26  44  61  88 127 150 188 256 302 356
#     4   9  18  34  57  83 113 154 202 249 294 345
#     4  10  21  34  49  78 119 156 193 242 299 353
#     4  11  23  40  64  90 117 157 200 242 303 364
#     4  10  20  34  56  81 115 157 194 248 299 348
#     4   8  16  35  61  86 115 154 200 246 294 354
#     4   8  15  28  49  76 103 138 185 233 291 355
#
# _framework density 22.502220999999999
#
# number of rings (size 3 to 8) (size 9 to 14) (size 15 to 20)
#    0.000    2.560    0.800    2.640    1.120    1.920 
#    1.440    2.800    0.000    2.400    0.000    1.120 
#    0.000    0.000    0.000    0.000    0.000    0.000 
#
# Total GULP energy -278694.352888 kJ/mol
# GULP energy per Si atom -5573.887058 kJ/mol
# Density = 2.245101 g / cm^3
# Si number density = 22.502221 Si / 1000 Ang^3
#
#
#
# Elastic Constant Matrix: (Units=GPa)
#
#
# Indices 1 2 3 4 5 6 
#
# 1 98.9559 26.1807 2.5614 0.0000 0.0000 0.0000
# 2 26.1807 60.0748 16.5414 0.0000 0.0000 0.0000
# 3 2.5614 16.5414 93.6905 0.0000 0.0000 0.0000
# 4 0.0000 0.0000 0.0000 92.1850 0.0000 0.0000
# 5 0.0000 0.0000 0.0000 0.0000 6.6995 0.0000
# 6 0.0000 0.0000 0.0000 0.0000 0.0000 9.6304
#
#
#
# Elastic Compliance Matrix: (Units=1/GPa)
#
#
# Indices 1 2 3 4 5 6 
#
# 1 0.011454 -0.005156 0.000597 0.000000 0.000000 0.000000
# 2 -0.005156 0.019818 -0.003358 0.000000 0.000000 0.000000
# 3 0.000597 -0.003358 0.011250 0.000000 0.000000 0.000000
# 4 0.000000 0.000000 0.000000 0.010848 0.000000 0.000000
# 5 0.000000 0.000000 0.000000 0.000000 0.149264 0.000000
# 6 0.000000 0.000000 0.000000 0.000000 0.000000 0.103838
#
#
# Mechanical properties :
#
#
# Convention : Reuss Voigt Hill
#
# Bulk Modulus (GPa) = 37.47010 38.14315 37.80662
# Shear Modulus (GPa) = 15.09654 35.53215 25.31434
#
# Velocity S-wave (km/s) = 2.59297 3.97804 3.35770
# Velocity P-wave (km/s) = 5.06483 6.17149 5.64535
#
# Compressibility (1/GPa) = 0.02668795
#
# Stress axis : x y z
#
# Youngs Moduli (GPa) = 87.30398 50.46024 88.88915
#
# Poissons Ratio (x) = 0.26018 -0.05308
# Poissons Ratio (y) = 0.45016 0.29848
# Poissons Ratio (z) = -0.05214 0.16944
#
# Static dielectric constant tensor:
#      x y z
#    x 1.859280 0.000000 0.000000 
#    y 0.000000 1.842420 0.000000 
#    z 0.000000 0.000000 1.848390 
# 
# From -- ./inp_files/12428.got.cif
#   From: 2010.05.17/outbox.cif.g08.bks.cpg/sg65_7_cif.got.tgz:12428.got - 2010.06.03 17:01:31.
