data_PCOD9489399
_publ_section_title
;
Structure prediction by ZEFSAII (Michael W. Deem and Ramdas Pophale) SiO2 
 PCOD9489399
Probable space group: C M M M
;
_chemical_formula_sum "Si O2"
_cell_formula_units_Z 104
_cell_length_a 20.839280
_cell_length_b 25.390881
_cell_length_c 9.772327
_cell_angle_alpha 90.000000
_cell_angle_beta 90.000000
_cell_angle_gamma 90.000000
_cell_volume 5170.808700
_symmetry_space_group_name_H-M "C M M M"
_symmetry_group_IT_number 65
_symmetry_cell_setting 'orthorhombic'
loop_
_space_group_symop_operation_xyz
x,y,z
-x,-y,z
x,-y,-z
-x,y,-z
-x,-y,-z
x,y,-z
-x,y,z
x,-y,z
1/2+x,1/2+y,z
1/2-x,1/2-y,z
1/2+x,1/2-y,-z
1/2-x,1/2+y,-z
1/2-x,1/2-y,-z
1/2+x,1/2+y,-z
1/2-x,1/2+y,z
1/2+x,1/2-y,z
loop_
_atom_site_type_symbol
_atom_site_label
_atom_site_fract_x
_atom_site_fract_y
_atom_site_fract_z
Si Si1 0.272897 0.586200 0.651429
Si Si2 0.074862 0.773148 0.836055
Si Si3 0.000000 0.935318 0.343679
Si Si4 0.076117 0.649028 0.152048
Si Si5 0.126350 0.557768 0.342051
Si Si6 0.802144 0.206339 0.340938
Si Si7 0.614357 0.437740 0.153053
O O1 0.300963 0.573176 0.500000
O O2 0.203417 0.560804 0.659234
O O3 0.268545 0.649361 0.659744
O O4 0.317870 0.568436 0.773988
O O5 0.084583 0.710313 0.812309
O O6 0.133293 0.797710 0.749864
O O7 0.000000 0.785923 0.799923
O O8 0.081283 0.782288 0.000000
O O9 0.938770 0.916743 0.257497
O O10 0.000000 0.917122 0.500000
O O11 0.000000 0.000000 0.348104
O O12 0.102952 0.606969 0.256243
O O13 0.000000 0.641067 0.145435
O O14 0.103770 0.640554 0.000000
O O15 0.105616 0.562530 0.500000
O O16 0.105667 0.500000 0.290631
O O17 0.819028 0.218678 0.500000
O O18 0.750000 0.250000 0.294343
O O19 0.601169 0.500000 0.141104
O O20 0.611015 0.415057 0.000000
#
# Coordination Sequence:
#
# PCOD9489399 Si02
#       7
#    16  16   8  16  16  16  16
#     4  10  21  37  55  77 106 143 183 223 273 330
#     4   9  19  37  59  83 112 147 187 229 277 336
#     4   9  17  31  53  77 101 135 175 213 259 313
#     4   9  19  36  57  81 110 145 183 221 268 332
#     4  10  21  36  55  80 110 145 186 231 276 325
#     4  10  21  37  58  84 111 141 183 233 281 333
#     4  10  20  34  53  78 107 138 177 223 266 313
#
# _framework density 20.112907
#
# number of rings (size 3 to 8) (size 9 to 14) (size 15 to 20)
#    0.000    2.385    0.000    3.000    0.000    7.077 
#    1.385    3.077    0.000    0.000    0.000    0.000 
#    0.000    0.000    0.000    0.000    0.000    0.000 
#
# Total GULP energy -290171.495283 kJ/mol
# GULP energy per Si atom -5580.221063 kJ/mol
# Density = 2.006713 g / cm^3
# Si number density = 20.112907 Si / 1000 Ang^3
#
#
#
# Elastic Constant Matrix: (Units=GPa)
#
#
# Indices 1 2 3 4 5 6 
#
# 1 24.7212 13.1473 6.5076 0.0000 0.0000 0.0000
# 2 13.1473 61.7429 16.6645 0.0000 0.0000 0.0000
# 3 6.5076 16.6645 68.4836 0.0000 0.0000 0.0000
# 4 0.0000 0.0000 0.0000 18.6777 0.0000 0.0000
# 5 0.0000 0.0000 0.0000 0.0000 39.4327 0.0000
# 6 0.0000 0.0000 0.0000 0.0000 0.0000 28.7159
#
#
#
# Elastic Compliance Matrix: (Units=1/GPa)
#
#
# Indices 1 2 3 4 5 6 
#
# 1 0.045904 -0.009202 -0.002123 0.000000 0.000000 0.000000
# 2 -0.009202 0.019179 -0.003793 0.000000 0.000000 0.000000
# 3 -0.002123 -0.003793 0.015727 0.000000 0.000000 0.000000
# 4 0.000000 0.000000 0.000000 0.053540 0.000000 0.000000
# 5 0.000000 0.000000 0.000000 0.000000 0.025360 0.000000
# 6 0.000000 0.000000 0.000000 0.000000 0.000000 0.034824
#
#
# Mechanical properties :
#
#
# Convention : Reuss Voigt Hill
#
# Bulk Modulus (GPa) = 19.77251 25.28739 22.52995
# Shear Modulus (GPa) = 20.69322 25.27384 22.98353
#
# Velocity S-wave (km/s) = 3.21105 3.54870 3.38409
# Velocity P-wave (km/s) = 4.85797 5.42135 5.14738
#
# Compressibility (1/GPa) = 0.05057526
#
# Stress axis : x y z
#
# Youngs Moduli (GPa) = 21.78481 52.13995 63.58638
#
# Poissons Ratio (x) = 0.47977 0.13499
# Poissons Ratio (y) = 0.20045 0.24116
# Poissons Ratio (z) = 0.04625 0.19775
#
# Static dielectric constant tensor:
#      x y z
#    x 1.695260 0.000000 0.000000 
#    y 0.000000 1.752150 0.000000 
#    z 0.000000 0.000000 1.721720 
# 
# From -- ./inp_files/12388.got.cif
#   From: 2010.05.17/outbox.cif.g08.bks.cpg/sg65_7_cif.got.tgz:12388.got - 2010.06.03 17:01:31.
