data_PCOD9489478
_publ_section_title
;
Structure prediction by ZEFSAII (Michael W. Deem and Ramdas Pophale) SiO2 
 PCOD9489478
Probable space group: C M M M
;
_chemical_formula_sum "Si O2"
_cell_formula_units_Z 96
_cell_length_a 29.730404
_cell_length_b 8.742347
_cell_length_c 20.878335
_cell_angle_alpha 90.000000
_cell_angle_beta 90.000000
_cell_angle_gamma 90.000000
_cell_volume 5426.561296
_symmetry_space_group_name_H-M "C M M M"
_symmetry_group_IT_number 65
_symmetry_cell_setting 'orthorhombic'
loop_
_space_group_symop_operation_xyz
x,y,z
-x,-y,z
x,-y,-z
-x,y,-z
-x,-y,-z
x,y,-z
-x,y,z
x,-y,z
1/2+x,1/2+y,z
1/2-x,1/2-y,z
1/2+x,1/2-y,-z
1/2-x,1/2+y,-z
1/2-x,1/2-y,-z
1/2+x,1/2+y,-z
1/2-x,1/2+y,z
1/2+x,1/2-y,z
loop_
_atom_site_type_symbol
_atom_site_label
_atom_site_fract_x
_atom_site_fract_y
_atom_site_fract_z
Si Si1 0.549477 0.314621 0.615254
Si Si2 0.700095 0.183511 0.691941
Si Si3 0.449417 0.683854 0.233718
Si Si4 0.798702 0.182920 0.925748
Si Si5 0.853135 0.814825 0.571498
Si Si6 0.641093 0.182658 0.184244
O O1 0.500000 0.259886 0.593354
O O2 0.548422 0.500000 0.610422
O O3 0.554428 0.277304 0.690642
O O4 0.594740 0.264710 0.580162
O O5 0.750000 0.250000 0.697834
O O6 0.676465 0.244170 0.627669
O O7 0.670036 0.230269 0.753166
O O8 0.702099 0.000000 0.690286
O O9 0.500000 0.725956 0.213165
O O10 0.445159 0.500000 0.229138
O O11 0.409582 0.761949 0.195406
O O12 0.750000 0.250000 0.907322
O O13 0.836022 0.246110 0.878073
O O14 0.796849 0.000000 0.921745
O O15 0.807016 0.226107 0.000000
O O16 0.837624 0.774422 0.500000
O O17 0.851988 0.000000 0.577442
O O18 0.642646 0.000000 0.179998
#
# Coordination Sequence:
#
# PCOD9489478 Si02
#       6
#    16  16  16  16  16  16
#     4   8  14  27  49  77 106 135 170 214 264 316
#     4  11  24  39  55  76 102 136 178 224 271 320
#     4   9  17  31  54  81 109 144 182 222 270 320
#     4  10  21  37  58  85 117 151 184 220 266 320
#     4  10  20  34  54  78 104 137 176 221 273 324
#     4  11  22  35  56  85 113 145 182 222 271 319
#
# _framework density 17.690760999999998
#
# number of rings (size 3 to 8) (size 9 to 14) (size 15 to 20)
#    0.000    2.167    1.667    3.000    0.000    5.667 
#    0.000    1.667    0.000    1.000    0.000    4.667 
#    0.000    0.000    0.000    0.000    0.000    0.000 
#
# Total GULP energy -267914.067759 kJ/mol
# GULP energy per Si atom -5581.543078 kJ/mol
# Density = 1.765050 g / cm^3
# Si number density = 17.690761 Si / 1000 Ang^3
#
#
#
# Elastic Constant Matrix: (Units=GPa)
#
#
# Indices 1 2 3 4 5 6 
#
# 1 125.7673 33.0770 58.3582 0.0000 0.0000 0.0000
# 2 33.0770 27.3828 30.8943 0.0000 0.0000 0.0000
# 3 58.3582 30.8943 80.0962 0.0000 0.0000 0.0000
# 4 0.0000 0.0000 0.0000 21.3995 0.0000 0.0000
# 5 0.0000 0.0000 0.0000 0.0000 15.0733 0.0000
# 6 0.0000 0.0000 0.0000 0.0000 0.0000 24.1503
#
#
#
# Elastic Compliance Matrix: (Units=1/GPa)
#
#
# Indices 1 2 3 4 5 6 
#
# 1 0.013153 -0.008987 -0.006117 0.000000 0.000000 0.000000
# 2 -0.008987 0.070797 -0.020759 0.000000 0.000000 0.000000
# 3 -0.006117 -0.020759 0.024949 0.000000 0.000000 0.000000
# 4 0.000000 0.000000 0.000000 0.046730 0.000000 0.000000
# 5 0.000000 0.000000 0.000000 0.000000 0.066343 0.000000
# 6 0.000000 0.000000 0.000000 0.000000 0.000000 0.041407
#
#
# Mechanical properties :
#
#
# Convention : Reuss Voigt Hill
#
# Bulk Modulus (GPa) = 26.90190 53.10059 40.00125
# Shear Modulus (GPa) = 14.38864 19.51907 16.95385
#
# Velocity S-wave (km/s) = 2.85501 3.32527 3.09907
# Velocity P-wave (km/s) = 5.10959 6.69510 5.95535
#
# Compressibility (1/GPa) = 0.03717210
#
# Stress axis : x y z
#
# Youngs Moduli (GPa) = 76.02734 14.12497 40.08155
#
# Poissons Ratio (x) = 0.12694 0.24518
# Poissons Ratio (y) = 0.68325 0.83207
# Poissons Ratio (z) = 0.46506 0.29323
#
# Static dielectric constant tensor:
#      x y z
#    x 1.596730 0.000000 0.000000 
#    y 0.000000 1.595010 0.000000 
#    z 0.000000 0.000000 1.589490 
# 
# From -- ./inp_files/60196.got.cif
#   From: 2010.05.17/outbox.cif.g08.bks.cpg/sg65_31_cif.got.tgz:60196.got - 2010.06.03 17:01:31.
