data_PCOD9489483
_publ_section_title
;
Structure prediction by ZEFSAII (Michael W. Deem and Ramdas Pophale) SiO2 
 PCOD9489483
Probable space group: C M M M
;
_chemical_formula_sum "Si O2"
_cell_formula_units_Z 104
_cell_length_a 7.799865
_cell_length_b 27.726547
_cell_length_c 21.987473
_cell_angle_alpha 90.000000
_cell_angle_beta 90.000000
_cell_angle_gamma 90.000000
_cell_volume 4755.083987
_symmetry_space_group_name_H-M "C M M M"
_symmetry_group_IT_number 65
_symmetry_cell_setting 'orthorhombic'
loop_
_space_group_symop_operation_xyz
x,y,z
-x,-y,z
x,-y,-z
-x,y,-z
-x,-y,-z
x,y,-z
-x,y,z
x,-y,z
1/2+x,1/2+y,z
1/2-x,1/2-y,z
1/2+x,1/2-y,-z
1/2-x,1/2+y,-z
1/2-x,1/2-y,-z
1/2+x,1/2+y,-z
1/2-x,1/2+y,z
1/2+x,1/2-y,z
loop_
_atom_site_type_symbol
_atom_site_label
_atom_site_fract_x
_atom_site_fract_y
_atom_site_fract_z
Si Si1 0.709462 0.447032 0.616579
Si Si2 0.204037 0.557037 0.000000
Si Si3 0.795397 0.195145 0.070135
Si Si4 0.703667 0.403962 0.742188
Si Si5 0.294174 0.696975 0.306212
Si Si6 0.198093 0.598384 0.875723
Si Si7 0.209239 0.843555 0.566639
O O1 0.500000 0.447738 0.614724
O O2 0.767688 0.500000 0.596190
O O3 0.765364 0.436976 0.686479
O O4 0.760041 0.399282 0.579483
O O5 0.279511 0.577174 0.937304
O O6 0.216447 0.500000 0.000000
O O7 0.000000 0.570295 0.000000
O O8 0.750000 0.250000 0.085633
O O9 0.717948 0.155726 0.114916
O O10 0.000000 0.189977 0.071193
O O11 0.735489 0.186640 0.000000
O O12 0.500000 0.402131 0.733870
O O13 0.770201 0.349347 0.731294
O O14 0.733726 0.418717 0.811156
O O15 0.500000 0.694392 0.306572
O O16 0.250000 0.750000 0.283784
O O17 0.233612 0.688016 0.375769
O O18 0.000000 0.584736 0.875638
O O19 0.268055 0.827917 0.500000
O O20 0.000000 0.842679 0.566861
#
# Coordination Sequence:
#
# PCOD9489483 Si02
#       7
#    16   8  16  16  16  16  16
#     4   8  14  26  45  68  95 129 166 206 254 304
#     4   9  20  38  56  75 102 133 164 205 256 307
#     4  10  20  34  54  78 105 133 162 197 243 300
#     4   9  19  34  49  69 100 132 164 207 257 302
#     4   9  18  32  49  69  98 135 169 204 245 288
#     4  11  21  35  56  78 102 133 171 212 257 306
#     4   8  14  25  42  68 101 132 163 202 249 298
#
# _framework density 21.871327999999998
#
# number of rings (size 3 to 8) (size 9 to 14) (size 15 to 20)
#    0.000    2.846    0.769    2.769    0.000    3.077 
#    0.000    3.077    0.000    3.231    0.000    0.000 
#    0.000    0.000    0.000    6.769    0.000    6.769 
#
# Total GULP energy -290050.521912 kJ/mol
# GULP energy per Si atom -5577.894652 kJ/mol
# Density = 2.182155 g / cm^3
# Si number density = 21.871328 Si / 1000 Ang^3
#
#
#
# Elastic Constant Matrix: (Units=GPa)
#
#
# Indices 1 2 3 4 5 6 
#
# 1 25.2698 -5.7013 0.9049 0.0000 0.0000 0.0000
# 2 -5.7013 22.9506 -20.0368 0.0000 0.0000 0.0000
# 3 0.9049 -20.0368 71.0036 0.0000 0.0000 0.0000
# 4 0.0000 0.0000 0.0000 1.7991 0.0000 0.0000
# 5 0.0000 0.0000 0.0000 0.0000 -0.9122 0.0000
# 6 0.0000 0.0000 0.0000 0.0000 0.0000 6.4539
#
#
#
# Elastic Compliance Matrix: (Units=1/GPa)
#
#
# Indices 1 2 3 4 5 6 
#
# 1 0.042474 0.013373 0.003233 0.000000 0.000000 0.000000
# 2 0.013373 0.062027 0.017333 0.000000 0.000000 0.000000
# 3 0.003233 0.017333 0.018934 0.000000 0.000000 0.000000
# 4 0.000000 0.000000 0.000000 0.555819 0.000000 0.000000
# 5 0.000000 0.000000 0.000000 0.000000 -1.096250 0.000000
# 6 0.000000 0.000000 0.000000 0.000000 0.000000 0.154945
#
#
# Mechanical properties :
#
#
# Convention : Reuss Voigt Hill
#
# Bulk Modulus (GPa) = 5.22704 7.72865 6.47784
# Shear Modulus (GPa) = -18.78583 11.07197 -3.85693
#
# Velocity S-wave (km/s) = -2.93392 2.25240 -1.32940
# Velocity P-wave (km/s) = 3.01365 3.21026 0.78220
#
# Compressibility (1/GPa) = 0.19131301
#
# Stress axis : x y z
#
# Youngs Moduli (GPa) = 23.54359 16.12212 52.81545
#
# Poissons Ratio (x) = -0.21561 -0.17073
# Poissons Ratio (y) = -0.31486 -0.91545
# Poissons Ratio (z) = -0.07611 -0.27945
#
# Static dielectric constant tensor:
#      x y z
#    x 1.817070 0.000000 0.000000 
#    y 0.000000 1.788820 0.000000 
#    z 0.000000 0.000000 1.822470 
# 
# From -- ./inp_files/60784.got.cif
#   From: 2010.05.17/outbox.cif.g08.bks.cpg/sg65_31_cif.got.tgz:60784.got - 2010.06.03 17:01:31.
