data_PCOD9489039
_publ_section_title
;
Structure prediction by ZEFSAII (Michael W. Deem and Ramdas Pophale) SiO2 
 PCOD9489039
Probable space group: C M M M
;
_chemical_formula_sum "Si O2"
_cell_formula_units_Z 88
_cell_length_a 20.401306
_cell_length_b 30.863303
_cell_length_c 8.972329
_cell_angle_alpha 90.000000
_cell_angle_beta 90.000000
_cell_angle_gamma 90.000000
_cell_volume 5649.442106
_symmetry_space_group_name_H-M "C M M M"
_symmetry_group_IT_number 65
_symmetry_cell_setting 'orthorhombic'
loop_
_space_group_symop_operation_xyz
x,y,z
-x,-y,z
x,-y,-z
-x,y,-z
-x,-y,-z
x,y,-z
-x,y,z
x,-y,z
1/2+x,1/2+y,z
1/2-x,1/2-y,z
1/2+x,1/2-y,-z
1/2-x,1/2+y,-z
1/2-x,1/2-y,-z
1/2+x,1/2+y,-z
1/2-x,1/2+y,z
1/2+x,1/2-y,z
loop_
_atom_site_type_symbol
_atom_site_label
_atom_site_fract_x
_atom_site_fract_y
_atom_site_fract_z
Si Si1 0.073984 0.671016 0.826782
Si Si2 0.927178 0.224509 0.825483
Si Si3 0.000000 0.552596 0.329690
Si Si4 0.803386 0.629222 0.676636
Si Si5 0.709700 0.706921 0.679674
Si Si6 0.638173 0.050256 0.822041
O O1 0.075201 0.723139 0.818428
O O2 0.128539 0.652566 0.719077
O O3 0.000000 0.656983 0.790380
O O4 0.087604 0.659008 0.000000
O O5 0.864077 0.207733 0.739109
O O6 0.000000 0.211286 0.771327
O O7 0.922300 0.212777 0.000000
O O8 0.067202 0.563469 0.244856
O O9 0.000000 0.500000 0.335627
O O10 0.000000 0.568869 0.500000
O O11 0.798610 0.622839 0.500000
O O12 0.747700 0.663246 0.725524
O O13 0.808149 0.583164 0.758145
O O14 0.709153 0.708260 0.500000
O O15 0.750000 0.750000 0.730450
O O16 0.650091 0.000000 0.780741
O O17 0.635042 0.052970 0.000000
#
# Coordination Sequence:
#
# PCOD9489039 Si02
#       6
#    16  16   8  16  16  16
#     4   9  18  31  45  64  92 125 163 203 241 283
#     4   9  18  32  50  71  94 125 165 204 240 281
#     4   9  17  31  51  71  91 119 157 201 247 289
#     4  11  22  33  48  69  94 126 162 202 244 287
#     4  10  20  34  48  69 100 130 162 198 237 284
#     4  10  21  36  51  67  90 121 159 202 246 290
#
# _framework density 15.57676
#
# number of rings (size 3 to 8) (size 9 to 14) (size 15 to 20)
#    0.000    2.273    1.818    2.455    1.273    4.727 
#    0.000    1.818    0.000    0.000    0.000    0.000 
#    0.000    0.727    0.000    8.000    0.000    5.818 
#
# Total GULP energy -245444.774488 kJ/mol
# GULP energy per Si atom -5578.290329 kJ/mol
# Density = 1.554131 g / cm^3
# Si number density = 15.576760 Si / 1000 Ang^3
#
#
#
# Elastic Constant Matrix: (Units=GPa)
#
#
# Indices 1 2 3 4 5 6 
#
# 1 101.3994 56.3355 26.7525 0.0000 0.0000 0.0000
# 2 56.3355 89.9951 30.1312 0.0000 0.0000 0.0000
# 3 26.7525 30.1312 33.7611 0.0000 0.0000 0.0000
# 4 0.0000 0.0000 0.0000 22.5216 0.0000 0.0000
# 5 0.0000 0.0000 0.0000 0.0000 26.1141 0.0000
# 6 0.0000 0.0000 0.0000 0.0000 0.0000 29.2919
#
#
#
# Elastic Compliance Matrix: (Units=1/GPa)
#
#
# Indices 1 2 3 4 5 6 
#
# 1 0.015747 -0.008100 -0.005249 0.000000 0.000000 0.000000
# 2 -0.008100 0.020013 -0.011443 0.000000 0.000000 0.000000
# 3 -0.005249 -0.011443 0.043992 0.000000 0.000000 0.000000
# 4 0.000000 0.000000 0.000000 0.044402 0.000000 0.000000
# 5 0.000000 0.000000 0.000000 0.000000 0.038294 0.000000
# 6 0.000000 0.000000 0.000000 0.000000 0.000000 0.034139
#
#
# Mechanical properties :
#
#
# Convention : Reuss Voigt Hill
#
# Bulk Modulus (GPa) = 33.14737 50.17710 41.66224
# Shear Modulus (GPa) = 19.51393 23.04796 21.28094
#
# Velocity S-wave (km/s) = 3.54327 3.85078 3.70022
# Velocity P-wave (km/s) = 6.16976 7.21485 6.71267
#
# Compressibility (1/GPa) = 0.03016830
#
# Stress axis : x y z
#
# Youngs Moduli (GPa) = 63.50406 49.96636 22.73140
#
# Poissons Ratio (x) = 0.40473 0.11932
# Poissons Ratio (y) = 0.51438 0.26012
# Poissons Ratio (z) = 0.33333 0.57177
#
# Static dielectric constant tensor:
#      x y z
#    x 1.502960 0.000000 0.000000 
#    y 0.000000 1.552620 0.000000 
#    z 0.000000 0.000000 1.527260 
# 
# From -- ./inp_files/10017.got.cif
#   From: 2010.05.17/outbox.cif.g08.bks.cpg/sg65_6_cif.got.tgz:10017.got - 2010.06.03 17:01:31.
