data_PCOD9489637
_publ_section_title
;
Structure prediction by ZEFSAII (Michael W. Deem and Ramdas Pophale) SiO2 
 PCOD9489637
Probable space group: C M M M
;
_chemical_formula_sum "Si O2"
_cell_formula_units_Z 88
_cell_length_a 28.340837
_cell_length_b 18.760548
_cell_length_c 9.147194
_cell_angle_alpha 90.000000
_cell_angle_beta 90.000000
_cell_angle_gamma 90.000000
_cell_volume 4863.468220
_symmetry_space_group_name_H-M "C M M M"
_symmetry_group_IT_number 65
_symmetry_cell_setting 'orthorhombic'
loop_
_space_group_symop_operation_xyz
x,y,z
-x,-y,z
x,-y,-z
-x,y,-z
-x,-y,-z
x,y,-z
-x,y,z
x,-y,z
1/2+x,1/2+y,z
1/2-x,1/2-y,z
1/2+x,1/2-y,-z
1/2-x,1/2+y,-z
1/2-x,1/2-y,-z
1/2+x,1/2+y,-z
1/2-x,1/2+y,z
1/2+x,1/2-y,z
loop_
_atom_site_type_symbol
_atom_site_label
_atom_site_fract_x
_atom_site_fract_y
_atom_site_fract_z
Si Si1 0.944596 0.314001 0.173126
Si Si2 0.372777 0.084888 0.327310
Si Si3 0.500000 0.414745 0.669508
Si Si4 0.410216 0.653894 0.174012
Si Si5 0.276674 0.086648 0.832028
Si Si6 0.820156 0.085545 0.673719
O O1 0.917126 0.373137 0.263933
O O2 0.920055 0.237611 0.196974
O O3 0.000000 0.308830 0.210638
O O4 0.941349 0.330277 0.000000
O O5 0.367585 0.096724 0.500000
O O6 0.325172 0.109145 0.244772
O O7 0.378173 0.000000 0.303355
O O8 0.500000 0.500000 0.670961
O O9 0.500000 0.390938 0.500000
O O10 0.453879 0.386615 0.751727
O O11 0.362344 0.626651 0.247366
O O12 0.409478 0.640465 0.000000
O O13 0.230084 0.107113 0.742554
O O14 0.277230 0.000000 0.832521
O O15 0.274410 0.110763 0.000000
O O16 0.820730 0.097949 0.500000
O O17 0.826131 0.000000 0.696843
#
# Coordination Sequence:
#
# PCOD9489637 Si02
#       6
#    16  16   8  16  16  16
#     4  10  22  41  60  80 110 148 189 233 284 337
#     4  10  21  37  59  88 117 144 180 228 281 339
#     4  11  23  37  55  81 112 147 190 237 283 332
#     4  11  22  38  57  80 111 149 193 237 280 331
#     4   9  17  32  56  84 113 148 187 227 277 333
#     4  10  20  34  54  83 118 152 188 233 282 332
#
# _framework density 18.094083999999999
#
# number of rings (size 3 to 8) (size 9 to 14) (size 15 to 20)
#    0.000    1.909    0.909    3.000    0.000    9.455 
#    0.000    2.727    0.000    5.455    0.000    0.000 
#    0.000    0.000    0.000    0.000    0.000    0.000 
#
# Total GULP energy -245744.861838 kJ/mol
# GULP energy per Si atom -5585.110496 kJ/mol
# Density = 1.805290 g / cm^3
# Si number density = 18.094084 Si / 1000 Ang^3
#
#
#
# Elastic Constant Matrix: (Units=GPa)
#
#
# Indices 1 2 3 4 5 6 
#
# 1 130.9945 53.3424 85.8737 0.0000 0.0000 0.0000
# 2 53.3424 43.5564 66.5298 0.0000 0.0000 0.0000
# 3 85.8737 66.5298 133.0137 0.0000 0.0000 0.0000
# 4 0.0000 0.0000 0.0000 23.2899 0.0000 0.0000
# 5 0.0000 0.0000 0.0000 0.0000 296.2530 0.0000
# 6 0.0000 0.0000 0.0000 0.0000 0.0000 88.5678
#
#
#
# Elastic Compliance Matrix: (Units=1/GPa)
#
#
# Indices 1 2 3 4 5 6 
#
# 1 0.015372 -0.015538 -0.002153 0.000000 0.000000 0.000000
# 2 -0.015538 0.112981 -0.046479 0.000000 0.000000 0.000000
# 3 -0.002153 -0.046479 0.032155 0.000000 0.000000 0.000000
# 4 0.000000 0.000000 0.000000 0.042937 0.000000 0.000000
# 5 0.000000 0.000000 0.000000 0.000000 0.003375 0.000000
# 6 0.000000 0.000000 0.000000 0.000000 0.000000 0.011291
#
#
# Mechanical properties :
#
#
# Convention : Reuss Voigt Hill
#
# Bulk Modulus (GPa) = 31.08497 79.89515 55.49006
# Shear Modulus (GPa) = 13.99875 88.41005 51.20440
#
# Velocity S-wave (km/s) = 2.78450 6.99767 5.32545
# Velocity P-wave (km/s) = 5.24927 10.46619 8.27937
#
# Compressibility (1/GPa) = 0.03216989
#
# Stress axis : x y z
#
# Youngs Moduli (GPa) = 65.05186 8.85102 31.09905
#
# Poissons Ratio (x) = 0.13753 0.06695
# Poissons Ratio (y) = 1.01077 1.44545
# Poissons Ratio (z) = 0.14004 0.41139
#
# Static dielectric constant tensor:
#      x y z
#    x 1.591080 0.000000 0.000000 
#    y 0.000000 1.606230 0.000000 
#    z 0.000000 0.000000 1.604700 
# 
# From -- ./inp_files/11803.got.cif
#   From: 2010.05.17/outbox.cif.g08.bks.cpg/sg65_6_cif.got.tgz:11803.got - 2010.06.03 17:01:31.
