data_PCOD9489693
_publ_section_title
;
Structure prediction by ZEFSAII (Michael W. Deem and Ramdas Pophale) SiO2 
 PCOD9489693
Probable space group: C M M M
;
_chemical_formula_sum "Si O2"
_cell_formula_units_Z 72
_cell_length_a 27.417319
_cell_length_b 9.172927
_cell_length_c 16.345333
_cell_angle_alpha 90.000000
_cell_angle_beta 90.000000
_cell_angle_gamma 90.000000
_cell_volume 4110.803288
_symmetry_space_group_name_H-M "C M M M"
_symmetry_group_IT_number 65
_symmetry_cell_setting 'orthorhombic'
loop_
_space_group_symop_operation_xyz
x,y,z
-x,-y,z
x,-y,-z
-x,y,-z
-x,-y,-z
x,y,-z
-x,y,z
x,-y,z
1/2+x,1/2+y,z
1/2-x,1/2-y,z
1/2+x,1/2-y,-z
1/2-x,1/2+y,-z
1/2-x,1/2-y,-z
1/2+x,1/2+y,-z
1/2-x,1/2+y,z
1/2+x,1/2-y,z
loop_
_atom_site_type_symbol
_atom_site_label
_atom_site_fract_x
_atom_site_fract_y
_atom_site_fract_z
Si Si1 0.197599 0.675390 0.000000
Si Si2 0.699869 0.826582 0.336490
Si Si3 0.444400 0.673796 0.751552
Si Si4 0.853685 0.324776 0.830364
Si Si5 0.404642 0.825222 0.407121
O O1 0.250000 0.750000 0.000000
O O2 0.168460 0.715122 0.082228
O O3 0.203567 0.500000 0.000000
O O4 0.750000 0.750000 0.359337
O O5 0.683298 0.787232 0.243844
O O6 0.652646 0.791588 0.391591
O O7 0.707016 0.000000 0.339755
O O8 0.500000 0.705166 0.776056
O O9 0.437530 0.500000 0.749374
O O10 0.404406 0.746896 0.810032
O O11 0.434387 0.740550 0.661739
O O12 0.860664 0.500000 0.827173
O O13 0.418436 0.790414 0.500000
O O14 0.410224 0.000000 0.394683
#
# Coordination Sequence:
#
# PCOD9489693 Si02
#       5
#     8  16  16  16  16
#     4  10  20  34  55  84 113 139 170 209 251 296
#     4   9  17  29  46  69  98 132 167 202 242 292
#     4  10  21  36  54  76 101 130 167 213 262 306
#     4   9  19  35  53  75 104 136 171 208 247 300
#     4   9  19  35  52  72 100 133 170 210 252 305
#
# _framework density 17.514825999999999
#
# number of rings (size 3 to 8) (size 9 to 14) (size 15 to 20)
#    0.000    2.667    0.000    2.667    0.000    7.556 
#    0.000    2.778    0.000    3.333    0.000    0.000 
#    0.000    0.000    0.000    0.000    0.000    0.000 
#
# Total GULP energy -200825.041229 kJ/mol
# GULP energy per Si atom -5578.473367 kJ/mol
# Density = 1.747496 g / cm^3
# Si number density = 17.514826 Si / 1000 Ang^3
#
#
#
# Elastic Constant Matrix: (Units=GPa)
#
#
# Indices 1 2 3 4 5 6 
#
# 1 98.8160 40.3292 29.4181 0.0000 0.0000 0.0000
# 2 40.3292 25.3362 24.9317 0.0000 0.0000 0.0000
# 3 29.4181 24.9317 95.2614 0.0000 0.0000 0.0000
# 4 0.0000 0.0000 0.0000 11.8200 0.0000 0.0000
# 5 0.0000 0.0000 0.0000 0.0000 5.0201 0.0000
# 6 0.0000 0.0000 0.0000 0.0000 0.0000 34.8254
#
#
#
# Elastic Compliance Matrix: (Units=1/GPa)
#
#
# Indices 1 2 3 4 5 6 
#
# 1 0.030183 -0.052357 0.004382 0.000000 0.000000 0.000000
# 2 -0.052357 0.143979 -0.021514 0.000000 0.000000 0.000000
# 3 0.004382 -0.021514 0.014775 0.000000 0.000000 0.000000
# 4 0.000000 0.000000 0.000000 0.084602 0.000000 0.000000
# 5 0.000000 0.000000 0.000000 0.000000 0.199199 0.000000
# 6 0.000000 0.000000 0.000000 0.000000 0.000000 0.028715
#
#
# Mechanical properties :
#
#
# Convention : Reuss Voigt Hill
#
# Bulk Modulus (GPa) = 20.01599 45.41908 32.71754
# Shear Modulus (GPa) = 7.60939 18.64874 13.12906
#
# Velocity S-wave (km/s) = 2.08662 3.26658 2.74085
# Velocity P-wave (km/s) = 4.15429 6.34156 5.36067
#
# Compressibility (1/GPa) = 0.04996005
#
# Stress axis : x y z
#
# Youngs Moduli (GPa) = 33.13083 6.94547 67.68267
#
# Poissons Ratio (x) = 0.36364 -0.29656
# Poissons Ratio (y) = 1.73462 1.45610
# Poissons Ratio (z) = -0.14517 0.14942
#
# Static dielectric constant tensor:
#      x y z
#    x 1.576990 0.000000 0.000000 
#    y 0.000000 1.581820 0.000000 
#    z 0.000000 0.000000 1.593900 
# 
# From -- ./inp_files/36570.got.cif
#   From: 2010.05.17/outbox.cif.g08.bks.cpg/sg65_19_cif.got.tgz:36570.got - 2010.06.03 17:01:31.
