data_PCOD9489566
_publ_section_title
;
Structure prediction by ZEFSAII (Michael W. Deem and Ramdas Pophale) SiO2 
 PCOD9489566
Probable space group: C M M M
;
_chemical_formula_sum "Si O2"
_cell_formula_units_Z 112
_cell_length_a 24.619658
_cell_length_b 15.332380
_cell_length_c 13.824317
_cell_angle_alpha 90.000000
_cell_angle_beta 90.000000
_cell_angle_gamma 90.000000
_cell_volume 5218.374868
_symmetry_space_group_name_H-M "C M M M"
_symmetry_group_IT_number 65
_symmetry_cell_setting 'orthorhombic'
loop_
_space_group_symop_operation_xyz
x,y,z
-x,-y,z
x,-y,-z
-x,y,-z
-x,-y,-z
x,y,-z
-x,y,z
x,-y,z
1/2+x,1/2+y,z
1/2-x,1/2-y,z
1/2+x,1/2-y,-z
1/2-x,1/2+y,-z
1/2-x,1/2-y,-z
1/2+x,1/2+y,-z
1/2-x,1/2+y,z
1/2+x,1/2-y,z
loop_
_atom_site_type_symbol
_atom_site_label
_atom_site_fract_x
_atom_site_fract_y
_atom_site_fract_z
Si Si1 0.774221 0.841974 0.385085
Si Si2 0.173736 0.595595 0.286805
Si Si3 0.941536 0.397434 0.297859
Si Si4 0.559927 0.288788 0.787234
Si Si5 0.848848 0.096774 0.883758
Si Si6 0.603649 0.603860 0.615385
Si Si7 0.730388 0.151956 0.107782
O O1 0.777709 0.835869 0.500000
O O2 0.750000 0.750000 0.347538
O O3 0.725615 0.903620 0.354660
O O4 0.834155 0.871312 0.354897
O O5 0.168542 0.500000 0.244004
O O6 0.118133 0.614678 0.344340
O O7 0.185549 0.650980 0.191049
O O8 0.942558 0.500000 0.265570
O O9 0.939512 0.316545 0.222645
O O10 0.000000 0.385883 0.349872
O O11 0.500000 0.313045 0.825656
O O12 0.609736 0.330773 0.845518
O O13 0.566866 0.333584 0.681092
O O14 0.785342 0.104699 0.855425
O O15 0.868390 0.000000 0.855301
O O16 0.847801 0.102730 0.000000
O O17 0.597372 0.619277 0.500000
O O18 0.594809 0.500000 0.631080
O O19 0.750000 0.250000 0.097025
O O20 0.714594 0.119676 0.000000
#
# Coordination Sequence:
#
# PCOD9489566 Si02
#       7
#    16  16  16  16  16  16  16
#     4  10  20  34  54  80 110 144 183 226 270 320
#     4  11  20  31  54  80 104 138 175 216 266 325
#     4   9  20  39  60  83 111 142 180 232 290 337
#     4  11  22  37  60  82 104 145 195 234 274 332
#     4  10  21  36  54  81 119 154 183 225 279 328
#     4  10  21  36  54  81 119 154 183 225 279 328
#     4  10  20  34  54  80 110 144 183 226 270 320
#
# _framework density 21.462620000000001
#
# number of rings (size 3 to 8) (size 9 to 14) (size 15 to 20)
#    0.000    1.857    0.000    4.286    0.000    3.429 
#    0.000    1.429    0.000    5.143    0.000   12.000 
#    0.000    0.000    0.000    0.000    0.000    0.000 
#
# Total GULP energy -311764.078213 kJ/mol
# GULP energy per Si atom -5567.215682 kJ/mol
# Density = 2.141377 g / cm^3
# Si number density = 21.462620 Si / 1000 Ang^3
#
#
#
# Elastic Constant Matrix: (Units=GPa)
#
#
# Indices 1 2 3 4 5 6 
#
# 1 110.4080 8.9425 -3.2713 0.0000 0.0000 0.0000
# 2 8.9425 89.2358 -0.1996 0.0000 0.0000 0.0000
# 3 -3.2713 -0.1996 25.7313 0.0000 0.0000 0.0000
# 4 0.0000 0.0000 0.0000 10.2279 0.0000 0.0000
# 5 0.0000 0.0000 0.0000 0.0000 4.7829 0.0000
# 6 0.0000 0.0000 0.0000 0.0000 0.0000 22.8463
#
#
#
# Elastic Compliance Matrix: (Units=1/GPa)
#
#
# Indices 1 2 3 4 5 6 
#
# 1 0.009166 -0.000916 0.001158 0.000000 0.000000 0.000000
# 2 -0.000916 0.011298 -0.000029 0.000000 0.000000 0.000000
# 3 0.001158 -0.000029 0.039010 0.000000 0.000000 0.000000
# 4 0.000000 0.000000 0.000000 0.097772 0.000000 0.000000
# 5 0.000000 0.000000 0.000000 0.000000 0.209077 0.000000
# 6 0.000000 0.000000 0.000000 0.000000 0.000000 0.043771
#
#
# Mechanical properties :
#
#
# Convention : Reuss Voigt Hill
#
# Bulk Modulus (GPa) = 16.69426 26.25758 21.47592
# Shear Modulus (GPa) = 11.63783 22.23167 16.93475
#
# Velocity S-wave (km/s) = 2.33112 3.22193 2.81202
# Velocity P-wave (km/s) = 3.87823 5.10899 4.53555
#
# Compressibility (1/GPa) = 0.05990083
#
# Stress axis : x y z
#
# Youngs Moduli (GPa) = 109.10104 88.51129 25.63436
#
# Poissons Ratio (x) = 0.08107 -0.02969
# Poissons Ratio (y) = 0.09993 0.00074
# Poissons Ratio (z) = -0.12636 0.00255
#
# Static dielectric constant tensor:
#      x y z
#    x 1.828180 0.000000 0.000000 
#    y 0.000000 1.680210 0.000000 
#    z 0.000000 0.000000 1.780400 
# 
# From -- ./inp_files/45754.got.cif
#   From: 2010.05.17/outbox.cif.g08.bks.cpg/sg65_23_cif.got.tgz:45754.got - 2010.06.03 17:01:31.
