data_PCOD9489936
_publ_section_title
;
Structure prediction by ZEFSAII (Michael W. Deem and Ramdas Pophale) SiO2 
 PCOD9489936
Probable space group: C M M M
;
_chemical_formula_sum "Si O2"
_cell_formula_units_Z 88
_cell_length_a 7.812083
_cell_length_b 20.264958
_cell_length_c 28.829660
_cell_angle_alpha 90.000000
_cell_angle_beta 90.000000
_cell_angle_gamma 90.000000
_cell_volume 4564.067696
_symmetry_space_group_name_H-M "C M M M"
_symmetry_group_IT_number 65
_symmetry_cell_setting 'orthorhombic'
loop_
_space_group_symop_operation_xyz
x,y,z
-x,-y,z
x,-y,-z
-x,y,-z
-x,-y,-z
x,y,-z
-x,y,z
x,-y,z
1/2+x,1/2+y,z
1/2-x,1/2-y,z
1/2+x,1/2-y,-z
1/2-x,1/2+y,-z
1/2-x,1/2-y,-z
1/2+x,1/2+y,-z
1/2-x,1/2+y,z
1/2+x,1/2-y,z
loop_
_atom_site_type_symbol
_atom_site_label
_atom_site_fract_x
_atom_site_fract_y
_atom_site_fract_z
Si Si1 0.296907 0.824396 0.919731
Si Si2 0.790933 0.575925 0.263701
Si Si3 0.202431 0.074606 0.000000
Si Si4 0.706327 0.824702 0.814901
Si Si5 0.706251 0.825793 0.447697
Si Si6 0.290896 0.076042 0.631863
O O1 0.500000 0.825299 0.916525
O O2 0.250000 0.750000 0.935268
O O3 0.247671 0.881328 0.955330
O O4 0.227072 0.834819 0.867480
O O5 0.740230 0.500000 0.255829
O O6 0.729403 0.623833 0.223192
O O7 0.737625 0.595175 0.315897
O O8 0.000000 0.577244 0.263382
O O9 0.000000 0.068086 0.000000
O O10 0.276722 0.000000 0.000000
O O11 0.500000 0.830798 0.816367
O O12 0.750000 0.750000 0.801460
O O13 0.769183 0.840440 0.500000
O O14 0.500000 0.831291 0.448657
O O15 0.750000 0.750000 0.437119
O O16 0.770449 0.875260 0.408246
O O17 0.500000 0.077172 0.631498
O O18 0.240293 0.000000 0.623827
#
# Coordination Sequence:
#
# PCOD9489936 Si02
#       6
#    16  16   8  16  16  16
#     4  10  20  35  55  76 100 130 163 198 236 281
#     4   8  14  26  44  66  92 120 151 188 229 271
#     4  11  24  39  54  75 103 131 160 197 240 283
#     4   9  18  31  49  73  97 122 153 190 229 271
#     4   9  17  28  42  62  88 116 147 185 229 275
#     4   8  14  25  42  64  88 115 150 191 230 267
#
# _framework density 19.281047000000001
#
# number of rings (size 3 to 8) (size 9 to 14) (size 15 to 20)
#    0.000    3.000    0.000    2.182    0.000    3.273 
#    0.000    3.636    0.000    1.091    0.000    5.091 
#    0.000    0.000    0.000    0.000    0.000    0.000 
#
# Total GULP energy -245322.474119 kJ/mol
# GULP energy per Si atom -5575.510775 kJ/mol
# Density = 1.923716 g / cm^3
# Si number density = 19.281047 Si / 1000 Ang^3
#
#
#
# Elastic Constant Matrix: (Units=GPa)
#
#
# Indices 1 2 3 4 5 6 
#
# 1 26.7759 7.3177 9.8470 0.0000 0.0000 0.0000
# 2 7.3177 159.2929 141.1582 0.0000 0.0000 0.0000
# 3 9.8470 141.1582 167.6913 0.0000 0.0000 0.0000
# 4 0.0000 0.0000 0.0000 76.4385 0.0000 0.0000
# 5 0.0000 0.0000 0.0000 0.0000 -3.6434 0.0000
# 6 0.0000 0.0000 0.0000 0.0000 0.0000 19.7447
#
#
#
# Elastic Compliance Matrix: (Units=1/GPa)
#
#
# Indices 1 2 3 4 5 6 
#
# 1 0.038205 0.000917 -0.003015 0.000000 0.000000 0.000000
# 2 0.000917 0.024732 -0.020873 0.000000 0.000000 0.000000
# 3 -0.003015 -0.020873 0.023710 0.000000 0.000000 0.000000
# 4 0.000000 0.000000 0.000000 0.013082 0.000000 0.000000
# 5 0.000000 0.000000 0.000000 0.000000 -0.274468 0.000000
# 6 0.000000 0.000000 0.000000 0.000000 0.000000 0.050647
#
#
# Mechanical properties :
#
#
# Convention : Reuss Voigt Hill
#
# Bulk Modulus (GPa) = 24.56651 74.48956 49.52803
# Shear Modulus (GPa) = -77.42214 31.53710 -22.94252
#
# Velocity S-wave (km/s) = -6.34363 4.04871 -3.45324
# Velocity P-wave (km/s) = 6.39427 7.78290 3.13742
#
# Compressibility (1/GPa) = 0.04070583
#
# Stress axis : x y z
#
# Youngs Moduli (GPa) = 26.17432 40.43353 42.17560
#
# Poissons Ratio (x) = -0.03707 0.12717
# Poissons Ratio (y) = -0.02400 0.88031
# Poissons Ratio (z) = 0.07892 0.84395
#
# Static dielectric constant tensor:
#      x y z
#    x 1.701130 0.000000 0.000000 
#    y 0.000000 1.688530 0.000000 
#    z 0.000000 0.000000 1.706490 
# 
# From -- ./inp_files/76625.got.cif
#   From: 2010.05.17/outbox.cif.g08.bks.cpg/sg65_39_cif.got.tgz:76625.got - 2010.06.03 17:01:31.
