data_PCOD9489981
_publ_section_title
;
Structure prediction by ZEFSAII (Michael W. Deem and Ramdas Pophale) SiO2 
 PCOD9489981
Probable space group: C M M M
;
_chemical_formula_sum "Si O2"
_cell_formula_units_Z 88
_cell_length_a 8.955281
_cell_length_b 15.659994
_cell_length_c 29.735478
_cell_angle_alpha 90.000000
_cell_angle_beta 90.000000
_cell_angle_gamma 90.000000
_cell_volume 4170.092930
_symmetry_space_group_name_H-M "C M M M"
_symmetry_group_IT_number 65
_symmetry_cell_setting 'orthorhombic'
loop_
_space_group_symop_operation_xyz
x,y,z
-x,-y,z
x,-y,-z
-x,y,-z
-x,-y,-z
x,y,-z
-x,y,z
x,-y,z
1/2+x,1/2+y,z
1/2-x,1/2-y,z
1/2+x,1/2-y,-z
1/2-x,1/2+y,-z
1/2-x,1/2-y,-z
1/2+x,1/2+y,-z
1/2-x,1/2+y,z
1/2+x,1/2-y,z
loop_
_atom_site_type_symbol
_atom_site_label
_atom_site_fract_x
_atom_site_fract_y
_atom_site_fract_z
Si Si1 0.172102 0.395086 0.180951
Si Si2 0.832515 0.101536 0.728679
Si Si3 0.678976 0.654647 0.450510
Si Si4 0.332291 0.398407 0.909541
Si Si5 0.177615 0.342753 0.000000
Si Si6 0.178097 0.655710 0.638566
O O1 0.173295 0.500000 0.180971
O O2 0.257608 0.365354 0.225646
O O3 0.252288 0.365451 0.135356
O O4 0.000000 0.368625 0.181842
O O5 0.731622 0.115084 0.685008
O O6 0.000000 0.136897 0.721698
O O7 0.845723 0.000000 0.734710
O O8 0.706948 0.615591 0.500000
O O9 0.500000 0.660640 0.444520
O O10 0.750000 0.750000 0.452471
O O11 0.753052 0.613448 0.406528
O O12 0.500000 0.362761 0.914817
O O13 0.345262 0.500000 0.903367
O O14 0.237962 0.384991 0.954461
O O15 0.250000 0.250000 0.000000
O O16 0.000000 0.340900 0.000000
O O17 0.250000 0.750000 0.639909
O O18 0.000000 0.658993 0.635295
#
# Coordination Sequence:
#
# PCOD9489981 Si02
#       6
#    16  16  16  16   8  16
#     4   9  17  31  53  81 109 137 174 217 258 303
#     4  10  20  35  55  78 106 140 176 214 260 313
#     4   9  16  27  45  69  97 129 167 211 258 307
#     4  10  20  36  59  85 111 140 177 219 261 306
#     4  12  25  40  57  79 111 147 181 218 265 316
#     4  11  21  33  51  75 105 137 172 215 261 310
#
# _framework density 21.102647000000001
#
# number of rings (size 3 to 8) (size 9 to 14) (size 15 to 20)
#    0.000    2.000    0.000    6.000    0.000    6.545 
#    0.000    0.909    0.000    0.545    0.000    3.818 
#    0.000    0.000    0.000    0.000    0.000    0.000 
#
# Total GULP energy -245667.549974 kJ/mol
# GULP energy per Si atom -5583.353409 kJ/mol
# Density = 2.105462 g / cm^3
# Si number density = 21.102647 Si / 1000 Ang^3
#
#
#
# Elastic Constant Matrix: (Units=GPa)
#
#
# Indices 1 2 3 4 5 6 
#
# 1 213.4011 8.8771 111.8527 0.0000 0.0000 0.0000
# 2 8.8771 14.4362 6.5282 0.0000 0.0000 0.0000
# 3 111.8527 6.5282 224.1100 0.0000 0.0000 0.0000
# 4 0.0000 0.0000 0.0000 11.7750 0.0000 0.0000
# 5 0.0000 0.0000 0.0000 0.0000 387.6375 0.0000
# 6 0.0000 0.0000 0.0000 0.0000 0.0000 16.6221
#
#
#
# Elastic Compliance Matrix: (Units=1/GPa)
#
#
# Indices 1 2 3 4 5 6 
#
# 1 0.006437 -0.002539 -0.003139 0.000000 0.000000 0.000000
# 2 -0.002539 0.071196 -0.000807 0.000000 0.000000 0.000000
# 3 -0.003139 -0.000807 0.006052 0.000000 0.000000 0.000000
# 4 0.000000 0.000000 0.000000 0.084926 0.000000 0.000000
# 5 0.000000 0.000000 0.000000 0.000000 0.002580 0.000000
# 6 0.000000 0.000000 0.000000 0.000000 0.000000 0.060161
#
#
# Mechanical properties :
#
#
# Convention : Reuss Voigt Hill
#
# Bulk Modulus (GPa) = 14.14089 78.49592 46.31840
# Shear Modulus (GPa) = 18.66422 104.85287 61.75854
#
# Velocity S-wave (km/s) = 2.97720 7.05655 5.41565
# Velocity P-wave (km/s) = 4.30509 10.18190 7.81681
#
# Compressibility (1/GPa) = 0.07071691
#
# Stress axis : x y z
#
# Youngs Moduli (GPa) = 155.35955 14.04564 165.23325
#
# Poissons Ratio (x) = 0.03566 0.51860
# Poissons Ratio (y) = 0.39442 0.13331
# Poissons Ratio (z) = 0.48761 0.01133
#
# Static dielectric constant tensor:
#      x y z
#    x 1.724320 0.000000 0.000000 
#    y 0.000000 1.799760 0.000000 
#    z 0.000000 0.000000 1.813660 
# 
# From -- ./inp_files/76439.got.cif
#   From: 2010.05.17/outbox.cif.g08.bks.cpg/sg65_39_cif.got.tgz:76439.got - 2010.06.03 17:01:31.
