data_PCOD9489195
_publ_section_title
;
Structure prediction by ZEFSAII (Michael W. Deem and Ramdas Pophale) SiO2 
 PCOD9489195
Probable space group: C M M M
;
_chemical_formula_sum "Si O2"
_cell_formula_units_Z 88
_cell_length_a 18.460469
_cell_length_b 8.291339
_cell_length_c 29.740906
_cell_angle_alpha 90.000000
_cell_angle_beta 90.000000
_cell_angle_gamma 90.000000
_cell_volume 4552.202750
_symmetry_space_group_name_H-M "C M M M"
_symmetry_group_IT_number 65
_symmetry_cell_setting 'orthorhombic'
loop_
_space_group_symop_operation_xyz
x,y,z
-x,-y,z
x,-y,-z
-x,y,-z
-x,-y,-z
x,y,-z
-x,y,z
x,-y,z
1/2+x,1/2+y,z
1/2-x,1/2-y,z
1/2+x,1/2-y,-z
1/2-x,1/2+y,-z
1/2-x,1/2-y,-z
1/2+x,1/2+y,-z
1/2-x,1/2+y,z
1/2+x,1/2-y,z
loop_
_atom_site_type_symbol
_atom_site_label
_atom_site_fract_x
_atom_site_fract_y
_atom_site_fract_z
Si Si1 0.916460 0.193921 0.855591
Si Si2 0.585889 0.806299 0.951398
Si Si3 0.583503 0.302891 0.322353
Si Si4 0.582975 0.806929 0.500000
Si Si5 0.667525 0.695119 0.767191
Si Si6 0.667349 0.693090 0.411675
O O1 0.885137 0.240681 0.904351
O O2 0.870219 0.252372 0.813252
O O3 0.000000 0.252799 0.852312
O O4 0.918900 0.000000 0.853574
O O5 0.500000 0.764405 0.951467
O O6 0.590902 0.000000 0.950435
O O7 0.615592 0.750328 0.000000
O O8 0.500000 0.251055 0.323795
O O9 0.583571 0.500000 0.322430
O O10 0.622846 0.250729 0.276610
O O11 0.627147 0.248959 0.366414
O O12 0.500000 0.746982 0.500000
O O13 0.624665 0.750024 0.455638
O O14 0.581835 0.000000 0.500000
O O15 0.665834 0.500000 0.767498
O O16 0.750000 0.750000 0.764442
O O17 0.666739 0.500000 0.411164
O O18 0.750000 0.750000 0.412743
#
# Coordination Sequence:
#
# PCOD9489195 Si02
#       6
#    16  16  16   8  16  16
#     4   9  17  29  47  71  97 127 164 205 247 293
#     4   8  14  25  42  66  96 127 158 197 248 301
#     4   9  18  34  57  82 106 136 175 217 260 308
#     4  11  24  41  60  83 113 147 184 229 276 317
#     4  10  20  34  52  74 102 134 168 207 252 304
#     4  11  22  37  59  85 114 147 184 223 265 317
#
# _framework density 19.331301
#
# number of rings (size 3 to 8) (size 9 to 14) (size 15 to 20)
#    0.000    2.455    0.000    3.273    0.000    4.727 
#    0.000    2.727    0.000    4.364    0.000    0.000 
#    0.000    0.000    0.000    0.000    0.000    0.000 
#
# Total GULP energy -245507.705280 kJ/mol
# GULP energy per Si atom -5579.720575 kJ/mol
# Density = 1.928730 g / cm^3
# Si number density = 19.331301 Si / 1000 Ang^3
#
#
#
# Elastic Constant Matrix: (Units=GPa)
#
#
# Indices 1 2 3 4 5 6 
#
# 1 149.1518 15.2801 113.9476 0.0000 0.0000 0.0000
# 2 15.2801 13.8218 25.3509 0.0000 0.0000 0.0000
# 3 113.9476 25.3509 241.6284 0.0000 0.0000 0.0000
# 4 0.0000 0.0000 0.0000 -142.4829 0.0000 0.0000
# 5 0.0000 0.0000 0.0000 0.0000 -9.2193 0.0000
# 6 0.0000 0.0000 0.0000 0.0000 0.0000 15.9897
#
#
#
# Elastic Compliance Matrix: (Units=1/GPa)
#
#
# Indices 1 2 3 4 5 6 
#
# 1 0.010590 -0.003155 -0.004663 0.000000 0.000000 0.000000
# 2 -0.003155 0.090529 -0.008010 0.000000 0.000000 0.000000
# 3 -0.004663 -0.008010 0.007178 0.000000 0.000000 0.000000
# 4 0.000000 0.000000 0.000000 -0.007018 0.000000 0.000000
# 5 0.000000 0.000000 0.000000 0.000000 -0.108468 0.000000
# 6 0.000000 0.000000 0.000000 0.000000 0.000000 0.062540
#
#
# Mechanical properties :
#
#
# Convention : Reuss Voigt Hill
#
# Bulk Modulus (GPa) = 13.04783 79.30657 46.17720
# Shear Modulus (GPa) = 44.42274 -10.47426 16.97424
#
# Velocity S-wave (km/s) = 4.79891 -2.33025 2.96644
# Velocity P-wave (km/s) = 6.12130 5.82013 5.97262
#
# Compressibility (1/GPa) = 0.07664112
#
# Stress axis : x y z
#
# Youngs Moduli (GPa) = 94.42568 11.04615 139.31264
#
# Poissons Ratio (x) = 0.03485 0.64965
# Poissons Ratio (y) = 0.29789 1.11594
# Poissons Ratio (z) = 0.44033 0.08848
#
# Static dielectric constant tensor:
#      x y z
#    x 1.642410 0.000000 0.000000 
#    y 0.000000 1.678350 0.000000 
#    z 0.000000 0.000000 1.687450 
# 
# From -- ./inp_files/77925.got.cif
#   From: 2010.05.17/outbox.cif.g08.bks.cpg/sg65_39_cif.got.tgz:77925.got - 2010.06.03 17:01:31.
