data_PCOD9489858
_publ_section_title
;
Structure prediction by ZEFSAII (Michael W. Deem and Ramdas Pophale) SiO2 
 PCOD9489858
Probable space group: C M M M
;
_chemical_formula_sum "Si O2"
_cell_formula_units_Z 96
_cell_length_a 8.619960
_cell_length_b 28.030212
_cell_length_c 25.044085
_cell_angle_alpha 90.000000
_cell_angle_beta 90.000000
_cell_angle_gamma 90.000000
_cell_volume 6051.134443
_symmetry_space_group_name_H-M "C M M M"
_symmetry_group_IT_number 65
_symmetry_cell_setting 'orthorhombic'
loop_
_space_group_symop_operation_xyz
x,y,z
-x,-y,z
x,-y,-z
-x,y,-z
-x,-y,-z
x,y,-z
-x,y,z
x,-y,z
1/2+x,1/2+y,z
1/2-x,1/2-y,z
1/2+x,1/2-y,-z
1/2-x,1/2+y,-z
1/2-x,1/2-y,-z
1/2+x,1/2+y,-z
1/2-x,1/2+y,z
1/2+x,1/2-y,z
loop_
_atom_site_type_symbol
_atom_site_label
_atom_site_fract_x
_atom_site_fract_y
_atom_site_fract_z
Si Si1 0.314580 0.942925 0.058066
Si Si2 0.188438 0.102959 0.278848
Si Si3 0.187570 0.054217 0.389207
Si Si4 0.687012 0.555475 0.170133
Si Si5 0.814368 0.198312 0.335904
Si Si6 0.185620 0.351289 0.439714
O O1 0.500000 0.936926 0.060407
O O2 0.241683 0.924820 0.112948
O O3 0.283643 0.000000 0.057643
O O4 0.260186 0.924324 0.000000
O O5 0.229145 0.068025 0.328042
O O6 0.243828 0.084385 0.221739
O O7 0.238782 0.155850 0.296338
O O8 0.000000 0.103310 0.276846
O O9 0.261623 0.094822 0.425891
O O10 0.000000 0.057651 0.393492
O O11 0.233131 0.000000 0.401481
O O12 0.500000 0.555574 0.170568
O O13 0.737310 0.500000 0.175014
O O14 0.750000 0.250000 0.322226
O O15 0.759600 0.182261 0.394744
O O16 0.000000 0.199337 0.335319
O O17 0.233188 0.339019 0.500000
O O18 0.000000 0.348222 0.435876
#
# Coordination Sequence:
#
# PCOD9489858 Si02
#       6
#    16  16  16  16  16  16
#     4   8  14  24  35  49  77 117 153 181 210 243
#     4   8  15  28  45  65  88 113 141 175 215 258
#     4   9  17  30  48  67  89 120 153 181 213 256
#     4   9  15  23  39  62  86 113 146 180 208 239
#     4  10  20  35  54  71  88 111 139 174 219 269
#     4  10  21  35  49  67  91 116 144 179 217 258
#
# _framework density 15.864794
#
# number of rings (size 3 to 8) (size 9 to 14) (size 15 to 20)
#    0.000    3.000    0.000    3.000    0.000    4.667 
#    0.000    7.500    0.000    4.000    0.000    0.000 
#    0.000    0.667    0.000    1.500    0.000    2.667 
#
# Total GULP energy -267341.264173 kJ/mol
# GULP energy per Si atom -5569.609670 kJ/mol
# Density = 1.582869 g / cm^3
# Si number density = 15.864794 Si / 1000 Ang^3
#
#
#
# Elastic Constant Matrix: (Units=GPa)
#
#
# Indices 1 2 3 4 5 6 
#
# 1 13.3266 10.2450 17.3642 0.0000 0.0000 0.0000
# 2 10.2450 58.4431 22.8103 0.0000 0.0000 0.0000
# 3 17.3642 22.8103 119.0625 0.0000 0.0000 0.0000
# 4 0.0000 0.0000 0.0000 10.6702 0.0000 0.0000
# 5 0.0000 0.0000 0.0000 0.0000 -6.2718 0.0000
# 6 0.0000 0.0000 0.0000 0.0000 0.0000 20.6882
#
#
#
# Elastic Compliance Matrix: (Units=1/GPa)
#
#
# Indices 1 2 3 4 5 6 
#
# 1 0.100918 -0.012912 -0.012244 0.000000 0.000000 0.000000
# 2 -0.012912 0.020145 -0.001976 0.000000 0.000000 0.000000
# 3 -0.012244 -0.001976 0.010563 0.000000 0.000000 0.000000
# 4 0.000000 0.000000 0.000000 0.093719 0.000000 0.000000
# 5 0.000000 0.000000 0.000000 0.000000 -0.159444 0.000000
# 6 0.000000 0.000000 0.000000 0.000000 0.000000 0.048337
#
#
# Mechanical properties :
#
#
# Convention : Reuss Voigt Hill
#
# Bulk Modulus (GPa) = 12.92632 32.40790 22.66711
# Shear Modulus (GPa) = 25.73463 14.37816 20.05639
#
# Velocity S-wave (km/s) = 4.03193 3.01374 3.55943
# Velocity P-wave (km/s) = 5.46267 5.70807 5.58672
#
# Compressibility (1/GPa) = 0.07736153
#
# Stress axis : x y z
#
# Youngs Moduli (GPa) = 9.90905 49.63891 94.66710
#
# Poissons Ratio (x) = 0.64093 1.15913
# Poissons Ratio (y) = 0.12794 0.18710
# Poissons Ratio (z) = 0.12133 0.09811
#
# Static dielectric constant tensor:
#      x y z
#    x 1.541130 0.000000 0.000000 
#    y 0.000000 1.515600 0.000000 
#    z 0.000000 0.000000 1.557150 
# 
# From -- ./inp_files/68024.got.cif
#   From: 2010.05.17/outbox.cif.g08.bks.cpg/sg65_35_cif.got.tgz:68024.got - 2010.06.03 17:01:31.
