data_PCOD9489992
_publ_section_title
;
Structure prediction by ZEFSAII (Michael W. Deem and Ramdas Pophale) SiO2 
 PCOD9489992
Probable space group: C M M M
;
_chemical_formula_sum "Si O2"
_cell_formula_units_Z 72
_cell_length_a 8.626812
_cell_length_b 16.076420
_cell_length_c 25.791528
_cell_angle_alpha 90.000000
_cell_angle_beta 90.000000
_cell_angle_gamma 90.000000
_cell_volume 3576.981960
_symmetry_space_group_name_H-M "C M M M"
_symmetry_group_IT_number 65
_symmetry_cell_setting 'orthorhombic'
loop_
_space_group_symop_operation_xyz
x,y,z
-x,-y,z
x,-y,-z
-x,y,-z
-x,-y,-z
x,y,-z
-x,y,z
x,-y,z
1/2+x,1/2+y,z
1/2-x,1/2-y,z
1/2+x,1/2-y,-z
1/2-x,1/2+y,-z
1/2-x,1/2-y,-z
1/2+x,1/2+y,-z
1/2-x,1/2+y,z
1/2+x,1/2-y,z
loop_
_atom_site_type_symbol
_atom_site_label
_atom_site_fract_x
_atom_site_fract_y
_atom_site_fract_z
Si Si1 0.312290 0.155069 0.555762
Si Si2 0.814835 0.500000 0.060612
Si Si3 0.315292 0.903424 0.779983
Si Si4 0.182807 0.837668 0.117256
Si Si5 0.187482 0.343931 0.667882
O O1 0.263460 0.117628 0.500000
O O2 0.500000 0.156657 0.555666
O O3 0.250000 0.250000 0.555864
O O4 0.264084 0.119022 0.611759
O O5 0.751683 0.416930 0.087573
O O6 0.000000 0.500000 0.065810
O O7 0.773337 0.500000 0.000000
O O8 0.500000 0.886083 0.783428
O O9 0.228117 0.849253 0.822362
O O10 0.264065 0.888321 0.720802
O O11 0.291936 0.000000 0.792964
O O12 0.250000 0.750000 0.098429
O O13 0.000000 0.837468 0.111618
O O14 0.250000 0.250000 0.670174
O O15 0.000000 0.342822 0.668098
#
# Coordination Sequence:
#
# PCOD9489992 Si02
#       5
#    16   8  16  16  16
#     4   8  13  22  37  58  87 122 165 220 281 345
#     4  11  25  47  73 101 135 171 208 253 302 353
#     4  10  20  35  55  78 112 153 195 246 303 363
#     4  12  25  42  67  97 130 169 212 257 306 362
#     4   9  17  28  44  69  97 132 177 229 291 354
#
# _framework density 20.128702000000001
#
# number of rings (size 3 to 8) (size 9 to 14) (size 15 to 20)
#    0.000    2.111    1.111    3.000    0.000    4.000 
#    0.000    0.000    0.000    0.667    0.000    4.667 
#    0.000    0.000    0.000   38.000    0.000   19.111 
#
# Total GULP energy -200815.783118 kJ/mol
# GULP energy per Si atom -5578.216198 kJ/mol
# Density = 2.008289 g / cm^3
# Si number density = 20.128702 Si / 1000 Ang^3
#
#
#
# Elastic Constant Matrix: (Units=GPa)
#
#
# Indices 1 2 3 4 5 6 
#
# 1 21.8386 27.3734 46.4034 0.0000 0.0000 0.0000
# 2 27.3734 85.9861 64.0933 0.0000 0.0000 0.0000
# 3 46.4034 64.0933 145.8272 0.0000 0.0000 0.0000
# 4 0.0000 0.0000 0.0000 22.9432 0.0000 0.0000
# 5 0.0000 0.0000 0.0000 0.0000 13.1356 0.0000
# 6 0.0000 0.0000 0.0000 0.0000 0.0000 18.9484
#
#
#
# Elastic Compliance Matrix: (Units=1/GPa)
#
#
# Indices 1 2 3 4 5 6 
#
# 1 0.160503 -0.019373 -0.042559 0.000000 0.000000 0.000000
# 2 -0.019373 0.019634 -0.002465 0.000000 0.000000 0.000000
# 3 -0.042559 -0.002465 0.021483 0.000000 0.000000 0.000000
# 4 0.000000 0.000000 0.000000 0.043586 0.000000 0.000000
# 5 0.000000 0.000000 0.000000 0.000000 0.076129 0.000000
# 6 0.000000 0.000000 0.000000 0.000000 0.000000 0.052775
#
#
# Mechanical properties :
#
#
# Convention : Reuss Voigt Hill
#
# Bulk Modulus (GPa) = 13.73102 58.82134 36.27618
# Shear Modulus (GPa) = 9.48444 18.72424 14.10434
#
# Velocity S-wave (km/s) = 2.17305 3.05327 2.64996
# Velocity P-wave (km/s) = 3.62389 6.45879 5.23682
#
# Compressibility (1/GPa) = 0.07282779
#
# Stress axis : x y z
#
# Youngs Moduli (GPa) = 6.23042 50.93078 46.54755
#
# Poissons Ratio (x) = 0.98666 1.98100
# Poissons Ratio (y) = 0.12070 0.11475
# Poissons Ratio (z) = 0.26516 0.12555
#
# Static dielectric constant tensor:
#      x y z
#    x 1.683640 0.000000 0.000000 
#    y 0.000000 1.684180 0.000000 
#    z 0.000000 0.000000 1.777000 
# 
# From -- ./inp_files/72475.got.cif
#   From: 2010.05.17/outbox.cif.g08.bks.cpg/sg65_37_cif.got.tgz:72475.got - 2010.06.03 17:01:31.
