data_PCOD9489674
_publ_section_title
;
Structure prediction by ZEFSAII (Michael W. Deem and Ramdas Pophale) SiO2 
 PCOD9489674
Probable space group: C M M M
;
_chemical_formula_sum "Si O2"
_cell_formula_units_Z 64
_cell_length_a 9.987916
_cell_length_b 25.809090
_cell_length_c 15.732073
_cell_angle_alpha 90.000000
_cell_angle_beta 90.000000
_cell_angle_gamma 90.000000
_cell_volume 4055.398407
_symmetry_space_group_name_H-M "C M M M"
_symmetry_group_IT_number 65
_symmetry_cell_setting 'orthorhombic'
loop_
_space_group_symop_operation_xyz
x,y,z
-x,-y,z
x,-y,-z
-x,y,-z
-x,-y,-z
x,y,-z
-x,y,z
x,-y,z
1/2+x,1/2+y,z
1/2-x,1/2-y,z
1/2+x,1/2-y,-z
1/2-x,1/2+y,-z
1/2-x,1/2-y,-z
1/2+x,1/2+y,-z
1/2-x,1/2+y,z
1/2+x,1/2-y,z
loop_
_atom_site_type_symbol
_atom_site_label
_atom_site_fract_x
_atom_site_fract_y
_atom_site_fract_z
Si Si1 0.346406 0.798799 0.000000
Si Si2 0.661634 0.801673 0.500000
Si Si3 0.500000 0.562061 0.603183
Si Si4 0.838560 0.696948 0.188888
Si Si5 0.500000 0.939070 0.401853
Si Si6 0.760709 0.374944 0.342752
O O1 0.250000 0.750000 0.000000
O O2 0.326514 0.824457 0.092031
O O3 0.500000 0.780314 0.000000
O O4 0.500000 0.792692 0.500000
O O5 0.750000 0.750000 0.500000
O O6 0.705430 0.834095 0.582571
O O7 0.500000 0.500000 0.623703
O O8 0.500000 0.565250 0.500000
O O9 0.625379 0.594144 0.639174
O O10 0.750000 0.750000 0.194673
O O11 0.778480 0.656554 0.255915
O O12 0.000000 0.705563 0.205195
O O13 0.500000 0.919290 0.500000
O O14 0.373558 0.918091 0.352671
O O15 0.500000 0.000000 0.406497
#
# Coordination Sequence:
#
# PCOD9489674 Si02
#       6
#     8   8   8  16   8  16
#     4   8  16  32  52  78 109 140 178 220 257 306
#     4  12  24  36  51  76 110 146 177 208 259 322
#     4  11  24  40  58  79 104 139 183 234 279 313
#     4  10  20  34  55  82 113 146 179 216 262 318
#     4  11  20  36  58  75  98 135 179 234 273 309
#     4  12  21  37  53  79 108 139 179 219 269 325
#
# _framework density 15.781434000000001
#
# number of rings (size 3 to 8) (size 9 to 14) (size 15 to 20)
#    0.000    1.250    5.000    1.500    3.500    2.000 
#    0.000    0.000    0.000    0.000    0.000    5.250 
#    0.000    0.000    0.000    0.000    0.000    0.000 
#
# Total GULP energy -178265.562926 kJ/mol
# GULP energy per Si atom -5570.798841 kJ/mol
# Density = 1.574551 g / cm^3
# Si number density = 15.781434 Si / 1000 Ang^3
#
#
#
# Elastic Constant Matrix: (Units=GPa)
#
#
# Indices 1 2 3 4 5 6 
#
# 1 153.2724 67.6811 57.3206 0.0000 0.0000 0.0000
# 2 67.6811 101.6513 61.0217 0.0000 0.0000 0.0000
# 3 57.3206 61.0217 141.1378 0.0000 0.0000 0.0000
# 4 0.0000 0.0000 0.0000 8.9416 0.0000 0.0000
# 5 0.0000 0.0000 0.0000 0.0000 21.4391 0.0000
# 6 0.0000 0.0000 0.0000 0.0000 0.0000 32.1960
#
#
#
# Elastic Compliance Matrix: (Units=1/GPa)
#
#
# Indices 1 2 3 4 5 6 
#
# 1 0.009475 -0.005400 -0.001513 0.000000 0.000000 0.000000
# 2 -0.005400 0.016363 -0.004882 0.000000 0.000000 0.000000
# 3 -0.001513 -0.004882 0.009810 0.000000 0.000000 0.000000
# 4 0.000000 0.000000 0.000000 0.111837 0.000000 0.000000
# 5 0.000000 0.000000 0.000000 0.000000 0.046644 0.000000
# 6 0.000000 0.000000 0.000000 0.000000 0.000000 0.031060
#
#
# Mechanical properties :
#
#
# Convention : Reuss Voigt Hill
#
# Bulk Modulus (GPa) = 82.92756 85.34535 84.13645
# Shear Modulus (GPa) = 19.77855 26.51788 23.14822
#
# Velocity S-wave (km/s) = 3.54401 4.10362 3.83404
# Velocity P-wave (km/s) = 8.33116 8.75499 8.54571
#
# Compressibility (1/GPa) = 0.01205872
#
# Stress axis : x y z
#
# Youngs Moduli (GPa) = 105.54342 61.11166 101.93164
#
# Poissons Ratio (x) = 0.33000 0.15425
# Poissons Ratio (y) = 0.56994 0.49760
# Poissons Ratio (z) = 0.15972 0.29833
#
# Static dielectric constant tensor:
#      x y z
#    x 1.183810 0.000000 0.000000 
#    y 0.000000 1.509250 0.000000 
#    z 0.000000 0.000000 1.556560 
# 
# From -- ./inp_files/36090.got.cif
#   From: 2010.05.17/outbox.cif.g08.bks.cpg/sg65_19_cif.got.tgz:36090.got - 2010.06.03 17:01:31.
