data_PCOD9489456
_publ_section_title
;
Structure prediction by ZEFSAII (Michael W. Deem and Ramdas Pophale) SiO2 
 PCOD9489456
Probable space group: C M M M
;
_chemical_formula_sum "Si O2"
_cell_formula_units_Z 80
_cell_length_a 14.117157
_cell_length_b 17.445314
_cell_length_c 18.942333
_cell_angle_alpha 90.000000
_cell_angle_beta 90.000000
_cell_angle_gamma 90.000000
_cell_volume 4665.084369
_symmetry_space_group_name_H-M "C M M M"
_symmetry_group_IT_number 65
_symmetry_cell_setting 'orthorhombic'
loop_
_space_group_symop_operation_xyz
x,y,z
-x,-y,z
x,-y,-z
-x,y,-z
-x,-y,-z
x,y,-z
-x,y,z
x,-y,z
1/2+x,1/2+y,z
1/2-x,1/2-y,z
1/2+x,1/2-y,-z
1/2-x,1/2+y,-z
1/2-x,1/2-y,-z
1/2+x,1/2+y,-z
1/2-x,1/2+y,z
1/2+x,1/2-y,z
loop_
_atom_site_type_symbol
_atom_site_label
_atom_site_fract_x
_atom_site_fract_y
_atom_site_fract_z
Si Si1 0.727257 0.660013 0.919263
Si Si2 0.109643 0.408431 0.416856
Si Si3 0.109957 0.590837 0.834115
Si Si4 0.609429 0.591244 0.206854
Si Si5 0.273386 0.839424 0.707061
O O1 0.750000 0.750000 0.910821
O O2 0.822556 0.614319 0.898592
O O3 0.649487 0.633543 0.862619
O O4 0.699269 0.645616 0.000000
O O5 0.124329 0.393561 0.500000
O O6 0.119213 0.500000 0.405639
O O7 0.182168 0.364990 0.366767
O O8 0.000000 0.388538 0.399815
O O9 0.119684 0.500000 0.819864
O O10 0.150679 0.637015 0.767249
O O11 0.000000 0.607763 0.846597
O O12 0.500000 0.610412 0.219499
O O13 0.617742 0.500000 0.196085
O O14 0.678111 0.616010 0.270432
O O15 0.250000 0.750000 0.709301
#
# Coordination Sequence:
#
# PCOD9489456 Si02
#       5
#    16  16  16  16  16
#     4  10  21  35  51  73 101 132 165 207 260 312
#     4   9  18  34  57  82 106 134 168 206 249 297
#     4  10  20  34  54  77 100 130 168 211 259 309
#     4  10  21  36  53  72  96 132 177 215 245 287
#     4  11  21  32  52  78 106 136 165 205 253 299
#
# _framework density 17.148672000000001
#
# number of rings (size 3 to 8) (size 9 to 14) (size 15 to 20)
#    0.000    2.000    0.000    7.200    0.000    8.400 
#    0.000    4.000    0.000    0.600    0.000    2.800 
#    0.000    0.000    0.000    0.000    0.000    0.000 
#
# Total GULP energy -223277.682747 kJ/mol
# GULP energy per Si atom -5581.942069 kJ/mol
# Density = 1.710964 g / cm^3
# Si number density = 17.148672 Si / 1000 Ang^3
#
#
#
# Elastic Constant Matrix: (Units=GPa)
#
#
# Indices 1 2 3 4 5 6 
#
# 1 118.4543 39.2857 50.3310 0.0000 0.0000 0.0000
# 2 39.2857 73.5031 43.5888 0.0000 0.0000 0.0000
# 3 50.3310 43.5888 83.9561 0.0000 0.0000 0.0000
# 4 0.0000 0.0000 0.0000 0.3779 0.0000 0.0000
# 5 0.0000 0.0000 0.0000 0.0000 9.7772 0.0000
# 6 0.0000 0.0000 0.0000 0.0000 0.0000 -13.5784
#
#
#
# Elastic Compliance Matrix: (Units=1/GPa)
#
#
# Indices 1 2 3 4 5 6 
#
# 1 0.011781 -0.003046 -0.005481 0.000000 0.000000 0.000000
# 2 -0.003046 0.020445 -0.008788 0.000000 0.000000 0.000000
# 3 -0.005481 -0.008788 0.019760 0.000000 0.000000 0.000000
# 4 0.000000 0.000000 0.000000 2.646180 0.000000 0.000000
# 5 0.000000 0.000000 0.000000 0.000000 0.102279 0.000000
# 6 0.000000 0.000000 0.000000 0.000000 0.000000 -0.073647
#
#
# Mechanical properties :
#
#
# Convention : Reuss Voigt Hill
#
# Bulk Modulus (GPa) = 57.62371 60.25828 58.94100
# Shear Modulus (GPa) = 1.80687 8.82919 5.31803
#
# Velocity S-wave (km/s) = 1.02759 2.27152 1.76291
# Velocity P-wave (km/s) = 5.92312 6.48805 6.21201
#
# Compressibility (1/GPa) = 0.01735397
#
# Stress axis : x y z
#
# Youngs Moduli (GPa) = 84.87968 48.91227 50.60805
#
# Poissons Ratio (x) = 0.14901 0.27739
# Poissons Ratio (y) = 0.25858 0.44476
# Poissons Ratio (z) = 0.46524 0.42986
#
# Static dielectric constant tensor:
#      x y z
#    x 1.571830 0.000000 0.000000 
#    y 0.000000 1.573960 0.000000 
#    z 0.000000 0.000000 1.575100 
# 
# From -- ./inp_files/52888.got.cif
#   From: 2010.05.17/outbox.cif.g08.bks.cpg/sg65_27_cif.got.tgz:52888.got - 2010.06.03 17:01:31.
