data_PCOD9489400
_publ_section_title
;
Structure prediction by ZEFSAII (Michael W. Deem and Ramdas Pophale) SiO2 
 PCOD9489400
Probable space group: C M M M
;
_chemical_formula_sum "Si O2"
_cell_formula_units_Z 88
_cell_length_a 19.649310
_cell_length_b 8.971326
_cell_length_c 28.339990
_cell_angle_alpha 90.000000
_cell_angle_beta 90.000000
_cell_angle_gamma 90.000000
_cell_volume 4995.783801
_symmetry_space_group_name_H-M "C M M M"
_symmetry_group_IT_number 65
_symmetry_cell_setting 'orthorhombic'
loop_
_space_group_symop_operation_xyz
x,y,z
-x,-y,z
x,-y,-z
-x,y,-z
-x,-y,-z
x,y,-z
-x,y,z
x,-y,z
1/2+x,1/2+y,z
1/2-x,1/2-y,z
1/2+x,1/2-y,-z
1/2-x,1/2+y,-z
1/2-x,1/2-y,-z
1/2+x,1/2+y,-z
1/2-x,1/2+y,z
1/2+x,1/2-y,z
loop_
_atom_site_type_symbol
_atom_site_label
_atom_site_fract_x
_atom_site_fract_y
_atom_site_fract_z
Si Si1 0.917302 0.171734 0.000000
Si Si2 0.177587 0.322645 0.555715
Si Si3 0.418795 0.823021 0.098153
Si Si4 0.323579 0.678883 0.824150
Si Si5 0.421035 0.319973 0.369347
Si Si6 0.822775 0.821275 0.284795
O O1 0.896530 0.254899 0.952173
O O2 0.000000 0.172413 0.000000
O O3 0.894801 0.000000 0.000000
O O4 0.166703 0.293513 0.500000
O O5 0.181062 0.500000 0.562719
O O6 0.250000 0.250000 0.569027
O O7 0.118458 0.252346 0.587031
O O8 0.500000 0.797658 0.102988
O O9 0.378504 0.744581 0.140157
O O10 0.406996 0.000000 0.098603
O O11 0.320353 0.500000 0.828236
O O12 0.250000 0.750000 0.834602
O O13 0.339686 0.717295 0.769464
O O14 0.500000 0.276587 0.367575
O O15 0.417795 0.500000 0.373330
O O16 0.380383 0.276442 0.321927
O O17 0.750000 0.750000 0.296797
O O18 0.815680 0.000000 0.287061
#
# Coordination Sequence:
#
# PCOD9489400 Si02
#       6
#     8  16  16  16  16  16
#     4   9  17  31  52  77 104 137 178 217 257 311
#     4  10  21  37  57  80 106 138 178 221 263 312
#     4  10  20  34  53  78 108 140 175 217 263 310
#     4  10  20  35  55  78 106 139 175 216 263 314
#     4  10  21  36  54  79 111 143 175 215 264 314
#     4   9  19  35  55  77 102 136 176 217 260 310
#
# _framework density 17.614854000000001
#
# number of rings (size 3 to 8) (size 9 to 14) (size 15 to 20)
#    0.000    2.273    0.000    2.455    0.000    7.636 
#    0.000    4.091    0.000    0.000    0.000    0.000 
#    0.000    0.000    0.000    0.000    0.000    0.000 
#
# Total GULP energy -245615.336597 kJ/mol
# GULP energy per Si atom -5582.166741 kJ/mol
# Density = 1.757476 g / cm^3
# Si number density = 17.614854 Si / 1000 Ang^3
#
#
#
# Elastic Constant Matrix: (Units=GPa)
#
#
# Indices 1 2 3 4 5 6 
#
# 1 129.9217 63.2255 101.5877 0.0000 0.0000 0.0000
# 2 63.2255 66.5608 63.5853 0.0000 0.0000 0.0000
# 3 101.5877 63.5853 122.8445 0.0000 0.0000 0.0000
# 4 0.0000 0.0000 0.0000 27.2090 0.0000 0.0000
# 5 0.0000 0.0000 0.0000 0.0000 32.6775 0.0000
# 6 0.0000 0.0000 0.0000 0.0000 0.0000 30.5159
#
#
#
# Elastic Compliance Matrix: (Units=1/GPa)
#
#
# Indices 1 2 3 4 5 6 
#
# 1 0.023504 -0.007434 -0.015589 0.000000 0.000000 0.000000
# 2 -0.007434 0.032070 -0.010452 0.000000 0.000000 0.000000
# 3 -0.015589 -0.010452 0.026442 0.000000 0.000000 0.000000
# 4 0.000000 0.000000 0.000000 0.036752 0.000000 0.000000
# 5 0.000000 0.000000 0.000000 0.000000 0.030602 0.000000
# 6 0.000000 0.000000 0.000000 0.000000 0.000000 0.032770
#
#
# Mechanical properties :
#
#
# Convention : Reuss Voigt Hill
#
# Bulk Modulus (GPa) = 66.37517 86.23601 76.30559
# Shear Modulus (GPa) = 19.67632 24.14239 21.90935
#
# Velocity S-wave (km/s) = 3.34583 3.70614 3.53058
# Velocity P-wave (km/s) = 7.25874 8.20833 7.74809
#
# Compressibility (1/GPa) = 0.01506587
#
# Stress axis : x y z
#
# Youngs Moduli (GPa) = 42.54624 31.18144 37.81886
#
# Poissons Ratio (x) = 0.23181 0.58955
# Poissons Ratio (y) = 0.31629 0.39529
# Poissons Ratio (z) = 0.66325 0.32591
#
# Static dielectric constant tensor:
#      x y z
#    x 1.568560 0.000000 0.000000 
#    y 0.000000 1.588060 0.000000 
#    z 0.000000 0.000000 1.594540 
# 
# From -- ./inp_files/75349.got.cif
#   From: 2010.05.17/outbox.cif.g08.bks.cpg/sg65_38_cif.got.tgz:75349.got - 2010.06.03 17:01:31.
