data_PCOD9489146
_publ_section_title
;
Structure prediction by ZEFSAII (Michael W. Deem and Ramdas Pophale) SiO2 
 PCOD9489146
Probable space group: C M M M
;
_chemical_formula_sum "Si O2"
_cell_formula_units_Z 72
_cell_length_a 14.758685
_cell_length_b 33.851754
_cell_length_c 8.923244
_cell_angle_alpha 90.000000
_cell_angle_beta 90.000000
_cell_angle_gamma 90.000000
_cell_volume 4458.118502
_symmetry_space_group_name_H-M "C M M M"
_symmetry_group_IT_number 65
_symmetry_cell_setting 'orthorhombic'
loop_
_space_group_symop_operation_xyz
x,y,z
-x,-y,z
x,-y,-z
-x,y,-z
-x,-y,-z
x,y,-z
-x,y,z
x,-y,z
1/2+x,1/2+y,z
1/2-x,1/2-y,z
1/2+x,1/2-y,-z
1/2-x,1/2+y,-z
1/2-x,1/2-y,-z
1/2+x,1/2+y,-z
1/2-x,1/2+y,z
1/2+x,1/2-y,z
loop_
_atom_site_type_symbol
_atom_site_label
_atom_site_fract_x
_atom_site_fract_y
_atom_site_fract_z
Si Si1 0.647616 0.266545 0.169143
Si Si2 0.400732 0.819019 0.818591
Si Si3 0.211112 0.156191 0.321578
Si Si4 0.390113 0.500000 0.327504
Si Si5 0.107603 0.082703 0.178904
O O1 0.750000 0.250000 0.158964
O O2 0.597500 0.227461 0.224919
O O3 0.653407 0.305499 0.268243
O O4 0.617167 0.276680 0.000000
O O5 0.500000 0.836275 0.783380
O O6 0.312958 0.838315 0.743408
O O7 0.388800 0.819819 0.000000
O O8 0.214166 0.154633 0.500000
O O9 0.164164 0.117565 0.254119
O O10 0.500000 0.500000 0.327759
O O11 0.359631 0.500000 0.500000
O O12 0.363397 0.459865 0.243633
O O13 0.000000 0.087811 0.211250
O O14 0.118829 0.083458 0.000000
#
# Coordination Sequence:
#
# PCOD9489146 Si02
#       5
#    16  16  16   8  16
#     4   8  15  29  46  63  86 119 159 198 236 281
#     4   9  18  33  51  68  90 126 169 207 243 286
#     4  11  21  31  46  71 101 128 158 201 248 288
#     4   9  17  31  51  75 102 125 148 187 239 289
#     4  10  20  34  52  72  96 129 165 195 228 280
#
# _framework density 16.150312
#
# number of rings (size 3 to 8) (size 9 to 14) (size 15 to 20)
#    0.000    2.556    0.000    4.333    0.000    8.000 
#    0.000    2.222    0.000    0.000    0.000    0.778 
#    0.000    6.222    0.000    0.000    0.000    0.000 
#
# Total GULP energy -200612.238015 kJ/mol
# GULP energy per Si atom -5572.562167 kJ/mol
# Density = 1.611355 g / cm^3
# Si number density = 16.150312 Si / 1000 Ang^3
#
#
#
# Elastic Constant Matrix: (Units=GPa)
#
#
# Indices 1 2 3 4 5 6 
#
# 1 80.9318 56.7322 50.0204 0.0000 0.0000 0.0000
# 2 56.7322 140.3020 76.2884 0.0000 0.0000 0.0000
# 3 50.0204 76.2884 100.1624 0.0000 0.0000 0.0000
# 4 0.0000 0.0000 0.0000 265.1112 0.0000 0.0000
# 5 0.0000 0.0000 0.0000 0.0000 13.4013 0.0000
# 6 0.0000 0.0000 0.0000 0.0000 0.0000 23.3872
#
#
#
# Elastic Compliance Matrix: (Units=1/GPa)
#
#
# Indices 1 2 3 4 5 6 
#
# 1 0.019332 -0.004383 -0.006316 0.000000 0.000000 0.000000
# 2 -0.004383 0.013159 -0.007834 0.000000 0.000000 0.000000
# 3 -0.006316 -0.007834 0.019105 0.000000 0.000000 0.000000
# 4 0.000000 0.000000 0.000000 0.003772 0.000000 0.000000
# 5 0.000000 0.000000 0.000000 0.000000 0.074620 0.000000
# 6 0.000000 0.000000 0.000000 0.000000 0.000000 0.042758
#
#
# Mechanical properties :
#
#
# Convention : Reuss Voigt Hill
#
# Bulk Modulus (GPa) = 68.82180 76.38647 72.60413
# Shear Modulus (GPa) = 23.29307 69.60361 46.44834
#
# Velocity S-wave (km/s) = 3.80184 6.57198 5.36866
# Velocity P-wave (km/s) = 7.87260 10.24636 9.13689
#
# Compressibility (1/GPa) = 0.01453028
#
# Stress axis : x y z
#
# Youngs Moduli (GPa) = 51.72749 75.99116 52.34245
#
# Poissons Ratio (x) = 0.33304 0.33061
# Poissons Ratio (y) = 0.22670 0.41006
# Poissons Ratio (z) = 0.32672 0.59533
#
# Static dielectric constant tensor:
#      x y z
#    x 1.574530 0.000000 0.000000 
#    y 0.000000 1.526940 0.000000 
#    z 0.000000 0.000000 1.540340 
# 
# From -- ./inp_files/7683.got.cif
#   From: 2010.05.17/outbox.cif.g08.bks.cpg/sg65_4_cif.got.tgz:7683.got - 2010.06.03 17:01:31.
