data_PCOD9489431
_publ_section_title
;
Structure prediction by ZEFSAII (Michael W. Deem and Ramdas Pophale) SiO2 
 PCOD9489431
Probable space group: C M M M
;
_chemical_formula_sum "Si O2"
_cell_formula_units_Z 96
_cell_length_a 30.656413
_cell_length_b 14.982566
_cell_length_c 11.509160
_cell_angle_alpha 90.000000
_cell_angle_beta 90.000000
_cell_angle_gamma 90.000000
_cell_volume 5286.292203
_symmetry_space_group_name_H-M "C M M M"
_symmetry_group_IT_number 65
_symmetry_cell_setting 'orthorhombic'
loop_
_space_group_symop_operation_xyz
x,y,z
-x,-y,z
x,-y,-z
-x,y,-z
-x,-y,-z
x,y,-z
-x,y,z
x,-y,z
1/2+x,1/2+y,z
1/2-x,1/2-y,z
1/2+x,1/2-y,-z
1/2-x,1/2+y,-z
1/2-x,1/2-y,-z
1/2+x,1/2+y,-z
1/2-x,1/2+y,z
1/2+x,1/2-y,z
loop_
_atom_site_type_symbol
_atom_site_label
_atom_site_fract_x
_atom_site_fract_y
_atom_site_fract_z
Si Si1 0.799718 0.778117 0.500000
Si Si2 0.383824 0.896808 0.760107
Si Si3 0.296794 0.393107 0.729062
Si Si4 0.142957 0.600515 0.500000
Si Si5 0.449770 0.756957 0.859548
Si Si6 0.790685 0.608834 0.134437
Si Si7 0.114174 0.899188 0.139399
O O1 0.750000 0.750000 0.500000
O O2 0.806841 0.837978 0.613711
O O3 0.825734 0.685465 0.500000
O O4 0.383168 0.893703 0.620327
O O5 0.422820 0.840328 0.812220
O O6 0.336559 0.863803 0.807419
O O7 0.387544 0.000000 0.796017
O O8 0.293523 0.500000 0.705309
O O9 0.251429 0.364523 0.790112
O O10 0.337616 0.378933 0.814282
O O11 0.164144 0.500000 0.500000
O O12 0.500000 0.754954 0.821840
O O13 0.422173 0.670543 0.821224
O O14 0.449348 0.759285 0.000000
O O15 0.790224 0.500000 0.133627
O O16 0.788109 0.638434 0.000000
O O17 0.103138 0.000000 0.175992
O O18 0.115517 0.896746 0.000000
#
# Coordination Sequence:
#
# PCOD9489431 Si02
#       7
#     8  16  16   8  16  16  16
#     4  12  23  33  50  74 105 145 186 221 260 310
#     4  10  20  36  57  79 105 138 177 220 268 319
#     4  10  20  34  53  80 112 142 176 218 262 310
#     4  10  22  39  57  75  99 136 180 226 268 310
#     4  10  21  36  55  81 111 140 173 216 264 315
#     4   9  17  30  51  79 111 146 178 209 252 310
#     4   9  18  34  56  80 108 142 177 215 260 311
#
# _framework density 18.160176
#
# number of rings (size 3 to 8) (size 9 to 14) (size 15 to 20)
#    0.000    2.167    0.000    3.250    0.000    5.667 
#    0.000    2.917    0.000    6.500    0.000    0.000 
#    0.000    6.667    0.000    0.000    0.000    0.000 
#
# Total GULP energy -267967.011601 kJ/mol
# GULP energy per Si atom -5582.646075 kJ/mol
# Density = 1.811884 g / cm^3
# Si number density = 18.160176 Si / 1000 Ang^3
#
#
#
# Elastic Constant Matrix: (Units=GPa)
#
#
# Indices 1 2 3 4 5 6 
#
# 1 127.1170 55.2532 18.2221 0.0000 0.0000 0.0000
# 2 55.2532 75.1082 18.4695 0.0000 0.0000 0.0000
# 3 18.2221 18.4695 50.3433 0.0000 0.0000 0.0000
# 4 0.0000 0.0000 0.0000 18.8056 0.0000 0.0000
# 5 0.0000 0.0000 0.0000 0.0000 8.7044 0.0000
# 6 0.0000 0.0000 0.0000 0.0000 0.0000 22.2759
#
#
#
# Elastic Compliance Matrix: (Units=1/GPa)
#
#
# Indices 1 2 3 4 5 6 
#
# 1 0.011628 -0.008265 -0.001177 0.000000 0.000000 0.000000
# 2 -0.008265 0.020509 -0.004533 0.000000 0.000000 0.000000
# 3 -0.001177 -0.004533 0.021952 0.000000 0.000000 0.000000
# 4 0.000000 0.000000 0.000000 0.053176 0.000000 0.000000
# 5 0.000000 0.000000 0.000000 0.000000 0.114885 0.000000
# 6 0.000000 0.000000 0.000000 0.000000 0.000000 0.044891
#
#
# Mechanical properties :
#
#
# Convention : Reuss Voigt Hill
#
# Bulk Modulus (GPa) = 38.25412 48.49534 43.37473
# Shear Modulus (GPa) = 16.46350 20.66542 18.56446
#
# Velocity S-wave (km/s) = 3.01420 3.37702 3.20075
# Velocity P-wave (km/s) = 5.76406 6.47826 6.13157
#
# Compressibility (1/GPa) = 0.02614098
#
# Stress axis : x y z
#
# Youngs Moduli (GPa) = 86.00102 48.76020 45.55309
#
# Poissons Ratio (x) = 0.40298 0.05360
# Poissons Ratio (y) = 0.71076 0.20647
# Poissons Ratio (z) = 0.10120 0.22101
#
# Static dielectric constant tensor:
#      x y z
#    x 1.589150 0.000000 0.000000 
#    y 0.000000 1.026060 0.000000 
#    z 0.000000 0.000000 1.540240 
# 
# From -- ./inp_files/33888.got.cif
#   From: 2010.05.17/outbox.cif.g08.bks.cpg/sg65_17_cif.got.tgz:33888.got - 2010.06.03 17:01:31.
