data_PCOD9489767
_publ_section_title
;
Structure prediction by ZEFSAII (Michael W. Deem and Ramdas Pophale) SiO2 
 PCOD9489767
Probable space group: C M M M
;
_chemical_formula_sum "Si O2"
_cell_formula_units_Z 88
_cell_length_a 14.140489
_cell_length_b 14.498462
_cell_length_c 21.903972
_cell_angle_alpha 90.000000
_cell_angle_beta 90.000000
_cell_angle_gamma 90.000000
_cell_volume 4490.650320
_symmetry_space_group_name_H-M "C M M M"
_symmetry_group_IT_number 65
_symmetry_cell_setting 'orthorhombic'
loop_
_space_group_symop_operation_xyz
x,y,z
-x,-y,z
x,-y,-z
-x,y,-z
-x,-y,-z
x,y,-z
-x,y,z
x,-y,z
1/2+x,1/2+y,z
1/2-x,1/2-y,z
1/2+x,1/2-y,-z
1/2-x,1/2+y,-z
1/2-x,1/2-y,-z
1/2+x,1/2+y,-z
1/2-x,1/2+y,z
1/2+x,1/2-y,z
loop_
_atom_site_type_symbol
_atom_site_label
_atom_site_fract_x
_atom_site_fract_y
_atom_site_fract_z
Si Si1 0.207112 0.105908 0.264061
Si Si2 0.713122 0.389581 0.877767
Si Si3 0.890932 0.716852 0.927534
Si Si4 0.384311 0.606492 0.500000
Si Si5 0.887498 0.204816 0.622601
Si Si6 0.109081 0.398235 0.334712
O O1 0.191828 0.128642 0.193722
O O2 0.157364 0.167716 0.314923
O O3 0.318626 0.110310 0.278963
O O4 0.176232 0.000000 0.274101
O O5 0.705246 0.500000 0.888862
O O6 0.817720 0.351540 0.893996
O O7 0.643511 0.321716 0.914613
O O8 0.000000 0.704873 0.908940
O O9 0.883298 0.699903 0.000000
O O10 0.357608 0.500000 0.500000
O O11 0.500000 0.611641 0.500000
O O12 0.351688 0.654656 0.562186
O O13 0.871411 0.314200 0.620176
O O14 0.000000 0.188770 0.626431
O O15 0.123332 0.500000 0.361879
O O16 0.000000 0.390788 0.315159
#
# Coordination Sequence:
#
# PCOD9489767 Si02
#       6
#    16  16  16   8  16  16
#     4  10  21  36  55  83 115 145 185 235 287 343
#     4  10  22  39  61  89 122 159 201 250 302 359
#     4  10  23  41  61  89 124 160 202 249 295 352
#     4   9  18  34  54  79 112 148 191 238 286 347
#     4  10  20  34  57  83 110 148 188 234 293 347
#     4   9  19  35  53  76 109 147 186 228 278 340
#
# _framework density 19.596271000000002
#
# number of rings (size 3 to 8) (size 9 to 14) (size 15 to 20)
#    0.000    2.273    0.000    2.182    5.091    4.727 
#    0.000    7.727    0.000    4.909    0.000    0.000 
#    0.000    0.000    0.000    0.000    0.000    0.000 
#
# Total GULP energy -245473.769456 kJ/mol
# GULP energy per Si atom -5578.949306 kJ/mol
# Density = 1.955167 g / cm^3
# Si number density = 19.596271 Si / 1000 Ang^3
#
#
#
# Elastic Constant Matrix: (Units=GPa)
#
#
# Indices 1 2 3 4 5 6 
#
# 1 51.8606 3.7725 17.1339 0.0000 0.0000 0.0000
# 2 3.7725 65.7281 33.7036 0.0000 0.0000 0.0000
# 3 17.1339 33.7036 77.2203 0.0000 0.0000 0.0000
# 4 0.0000 0.0000 0.0000 30.6834 0.0000 0.0000
# 5 0.0000 0.0000 0.0000 0.0000 -22.3927 0.0000
# 6 0.0000 0.0000 0.0000 0.0000 0.0000 18.6661
#
#
#
# Elastic Compliance Matrix: (Units=1/GPa)
#
#
# Indices 1 2 3 4 5 6 
#
# 1 0.020925 0.001520 -0.005306 0.000000 0.000000 0.000000
# 2 0.001520 0.019711 -0.008940 0.000000 0.000000 0.000000
# 3 -0.005306 -0.008940 0.018029 0.000000 0.000000 0.000000
# 4 0.000000 0.000000 0.000000 0.032591 0.000000 0.000000
# 5 0.000000 0.000000 0.000000 0.000000 -0.044657 0.000000
# 6 0.000000 0.000000 0.000000 0.000000 0.000000 0.053573
#
#
# Mechanical properties :
#
#
# Convention : Reuss Voigt Hill
#
# Bulk Modulus (GPa) = 30.10941 33.78099 31.94520
# Shear Modulus (GPa) = 36.57730 14.73797 25.65763
#
# Velocity S-wave (km/s) = 4.32504 2.74538 3.62237
# Velocity P-wave (km/s) = 6.35134 5.22737 5.81657
#
# Compressibility (1/GPa) = 0.03321220
#
# Stress axis : x y z
#
# Youngs Moduli (GPa) = 47.78970 50.73212 55.46468
#
# Poissons Ratio (x) = -0.07711 0.29431
# Poissons Ratio (y) = -0.07264 0.49588
# Poissons Ratio (z) = 0.25359 0.45357
#
# Static dielectric constant tensor:
#      x y z
#    x 1.704350 0.000000 0.000000 
#    y 0.000000 1.709820 0.000000 
#    z 0.000000 0.000000 1.658560 
# 
# From -- ./inp_files/62468.got.cif
#   From: 2010.05.17/outbox.cif.g08.bks.cpg/sg65_32_cif.got.tgz:62468.got - 2010.06.03 17:01:31.
