data_PCOD9489964
_publ_section_title
;
Structure prediction by ZEFSAII (Michael W. Deem and Ramdas Pophale) SiO2 
 PCOD9489964
Probable space group: C M M M
;
_chemical_formula_sum "Si O2"
_cell_formula_units_Z 112
_cell_length_a 13.259678
_cell_length_b 21.942386
_cell_length_c 18.320722
_cell_angle_alpha 90.000000
_cell_angle_beta 90.000000
_cell_angle_gamma 90.000000
_cell_volume 5330.395249
_symmetry_space_group_name_H-M "C M M M"
_symmetry_group_IT_number 65
_symmetry_cell_setting 'orthorhombic'
loop_
_space_group_symop_operation_xyz
x,y,z
-x,-y,z
x,-y,-z
-x,y,-z
-x,-y,-z
x,y,-z
-x,y,z
x,-y,z
1/2+x,1/2+y,z
1/2-x,1/2-y,z
1/2+x,1/2-y,-z
1/2-x,1/2+y,-z
1/2-x,1/2-y,-z
1/2+x,1/2+y,-z
1/2-x,1/2+y,z
1/2+x,1/2-y,z
loop_
_atom_site_type_symbol
_atom_site_label
_atom_site_fract_x
_atom_site_fract_y
_atom_site_fract_z
Si Si1 0.174442 0.839333 0.081538
Si Si2 0.619979 0.200908 0.699388
Si Si3 0.117310 0.567928 0.723220
Si Si4 0.119258 0.067799 0.627761
Si Si5 0.117302 0.705795 0.130218
Si Si6 0.621927 0.300880 0.419203
Si Si7 0.676010 0.432406 0.796592
O O1 0.127778 0.773196 0.097116
O O2 0.296200 0.832385 0.089713
O O3 0.140605 0.883535 0.145886
O O4 0.149425 0.859494 0.000000
O O5 0.500000 0.206267 0.700953
O O6 0.639754 0.129971 0.678587
O O7 0.649972 0.208504 0.784113
O O8 0.651144 0.254083 0.644440
O O9 0.127678 0.500000 0.688940
O O10 0.202111 0.569473 0.785838
O O11 0.000000 0.572461 0.747121
O O12 0.158800 0.129690 0.591578
O O13 0.134422 0.076241 0.714730
O O14 0.000000 0.065485 0.612192
O O15 0.159823 0.000000 0.608404
O O16 0.000000 0.685832 0.125417
O O17 0.648486 0.278911 0.500000
O O18 0.500000 0.304205 0.416259
O O19 0.647412 0.500000 0.820317
#
# Coordination Sequence:
#
# PCOD9489964 Si02
#       7
#    16  16  16  16  16  16  16
#     4  11  23  35  51  79 106 136 177 217 269 330
#     4   9  16  29  52  76  99 133 171 212 266 316
#     4   9  17  31  53  79 101 127 174 225 266 313
#     4   9  18  33  53  77 105 142 187 222 254 309
#     4  10  20  36  55  76 103 138 178 222 263 308
#     4   9  17  29  48  78 112 140 170 215 270 321
#     4  10  20  35  55  77 103 139 176 220 268 313
#
# _framework density 21.011575000000001
#
# number of rings (size 3 to 8) (size 9 to 14) (size 15 to 20)
#    0.000    2.429    1.429    1.714    0.000    3.429 
#    0.000    1.429    0.000    2.143    0.000   11.000 
#    0.000    0.000    0.000    0.000    0.000    0.000 
#
# Total GULP energy -312116.485737 kJ/mol
# GULP energy per Si atom -5573.508674 kJ/mol
# Density = 2.096375 g / cm^3
# Si number density = 21.011575 Si / 1000 Ang^3
#
#
#
# Elastic Constant Matrix: (Units=GPa)
#
#
# Indices 1 2 3 4 5 6 
#
# 1 63.8176 -11.3026 -8.6994 0.0000 0.0000 0.0000
# 2 -11.3026 103.5807 26.2094 0.0000 0.0000 0.0000
# 3 -8.6994 26.2094 62.1039 0.0000 0.0000 0.0000
# 4 0.0000 0.0000 0.0000 -356.6486 0.0000 0.0000
# 5 0.0000 0.0000 0.0000 0.0000 -10.9718 0.0000
# 6 0.0000 0.0000 0.0000 0.0000 0.0000 -2.8178
#
#
#
# Elastic Compliance Matrix: (Units=1/GPa)
#
#
# Indices 1 2 3 4 5 6 
#
# 1 0.016137 0.001331 0.001699 0.000000 0.000000 0.000000
# 2 0.001331 0.010918 -0.004421 0.000000 0.000000 0.000000
# 3 0.001699 -0.004421 0.018206 0.000000 0.000000 0.000000
# 4 0.000000 0.000000 0.000000 -0.002804 0.000000 0.000000
# 5 0.000000 0.000000 0.000000 0.000000 -0.091142 0.000000
# 6 0.000000 0.000000 0.000000 0.000000 0.000000 -0.354891
#
#
# Mechanical properties :
#
#
# Convention : Reuss Voigt Hill
#
# Bulk Modulus (GPa) = 23.54163 26.87967 25.21065
# Shear Modulus (GPa) = -12.93213 -59.20131 -36.06672
#
# Velocity S-wave (km/s) = -2.48357 -5.31383 -4.14758
# Velocity P-wave (km/s) = 1.73329 4.98281 3.30334
#
# Compressibility (1/GPa) = 0.04247794
#
# Stress axis : x y z
#
# Youngs Moduli (GPa) = 61.96952 91.58940 54.92720
#
# Poissons Ratio (x) = -0.12191 -0.09331
# Poissons Ratio (y) = -0.08248 0.24285
# Poissons Ratio (z) = -0.10527 0.40495
#
# Static dielectric constant tensor:
#      x y z
#    x 1.786410 0.000000 0.000000 
#    y 0.000000 1.802150 0.000000 
#    z 0.000000 0.000000 1.730190 
# 
# From -- ./inp_files/40874.got.cif
#   From: 2010.05.17/outbox.cif.g08.bks.cpg/sg65_21_cif.got.tgz:40874.got - 2010.06.03 17:01:31.
