data_PCOD9489295
_publ_section_title
;
Structure prediction by ZEFSAII (Michael W. Deem and Ramdas Pophale) SiO2 
 PCOD9489295
Probable space group: C M M M
;
_chemical_formula_sum "Si O2"
_cell_formula_units_Z 104
_cell_length_a 18.485583
_cell_length_b 19.356558
_cell_length_c 17.927056
_cell_angle_alpha 90.000000
_cell_angle_beta 90.000000
_cell_angle_gamma 90.000000
_cell_volume 6414.610049
_symmetry_space_group_name_H-M "C M M M"
_symmetry_group_IT_number 65
_symmetry_cell_setting 'orthorhombic'
loop_
_space_group_symop_operation_xyz
x,y,z
-x,-y,z
x,-y,-z
-x,y,-z
-x,-y,-z
x,y,-z
-x,y,z
x,-y,z
1/2+x,1/2+y,z
1/2-x,1/2-y,z
1/2+x,1/2-y,-z
1/2-x,1/2+y,-z
1/2-x,1/2-y,-z
1/2+x,1/2+y,-z
1/2-x,1/2+y,z
1/2+x,1/2-y,z
loop_
_atom_site_type_symbol
_atom_site_label
_atom_site_fract_x
_atom_site_fract_y
_atom_site_fract_z
Si Si1 0.418997 0.800972 0.188684
Si Si2 0.369149 0.078603 0.087577
Si Si3 0.712697 0.418931 0.159587
Si Si4 0.720945 0.173963 0.288336
Si Si5 0.340240 0.918237 0.589640
Si Si6 0.500000 0.083527 0.414866
Si Si7 0.084516 0.164570 0.088070
O O1 0.500000 0.795065 0.220198
O O2 0.413650 0.866570 0.134257
O O3 0.356249 0.813108 0.248319
O O4 0.404654 0.733477 0.137635
O O5 0.284114 0.087491 0.107538
O O6 0.388581 0.000000 0.107935
O O7 0.380024 0.088112 0.000000
O O8 0.706018 0.500000 0.179742
O O9 0.730417 0.369878 0.230099
O O10 0.641752 0.391411 0.117509
O O11 0.750000 0.250000 0.303865
O O12 0.712280 0.128773 0.362535
O O13 0.336000 0.908963 0.500000
O O14 0.421819 0.898787 0.616464
O O15 0.329439 0.000000 0.604155
O O16 0.500000 0.109277 0.500000
O O17 0.500000 0.000000 0.418354
O O18 0.000000 0.143744 0.096625
O O19 0.096563 0.178436 0.000000
#
# Coordination Sequence:
#
# PCOD9489295 Si02
#       7
#    16  16  16  16  16   8  16
#     4  10  21  35  49  70 102 137 171 210 254 306
#     4   9  18  31  48  70  96 130 170 209 252 303
#     4  10  20  35  51  72 102 133 167 212 263 316
#     4  11  21  35  53  76 102 139 174 205 250 303
#     4   9  18  33  54  80 109 137 167 205 247 295
#     4   7  12  26  48  76 106 132 158 190 235 288
#     4  10  20  34  53  75  97 129 175 225 273 313
#
# _framework density 16.212987999999999
#
# number of rings (size 3 to 8) (size 9 to 14) (size 15 to 20)
#    0.000    2.385    1.538    2.308    1.077    3.385 
#    0.000    3.846    0.000    0.000    0.000    0.000 
#    0.000    0.000    0.000    5.231    0.000    0.000 
#
# Total GULP energy -289779.790559 kJ/mol
# GULP energy per Si atom -5572.688280 kJ/mol
# Density = 1.617609 g / cm^3
# Si number density = 16.212988 Si / 1000 Ang^3
#
#
#
# Elastic Constant Matrix: (Units=GPa)
#
#
# Indices 1 2 3 4 5 6 
#
# 1 61.3042 37.9344 31.8244 0.0000 0.0000 0.0000
# 2 37.9344 85.0281 44.8888 0.0000 0.0000 0.0000
# 3 31.8244 44.8888 58.1787 0.0000 0.0000 0.0000
# 4 0.0000 0.0000 0.0000 27.0329 0.0000 0.0000
# 5 0.0000 0.0000 0.0000 0.0000 13.6818 0.0000
# 6 0.0000 0.0000 0.0000 0.0000 0.0000 26.2277
#
#
#
# Elastic Compliance Matrix: (Units=1/GPa)
#
#
# Indices 1 2 3 4 5 6 
#
# 1 0.024787 -0.006581 -0.008481 0.000000 0.000000 0.000000
# 2 -0.006581 0.021591 -0.013059 0.000000 0.000000 0.000000
# 3 -0.008481 -0.013059 0.031904 0.000000 0.000000 0.000000
# 4 0.000000 0.000000 0.000000 0.036992 0.000000 0.000000
# 5 0.000000 0.000000 0.000000 0.000000 0.073090 0.000000
# 6 0.000000 0.000000 0.000000 0.000000 0.000000 0.038128
#
#
# Mechanical properties :
#
#
# Convention : Reuss Voigt Hill
#
# Bulk Modulus (GPa) = 45.37334 48.20069 46.78701
# Shear Modulus (GPa) = 17.23660 19.37937 18.30799
#
# Velocity S-wave (km/s) = 3.26411 3.46106 3.36403
# Velocity P-wave (km/s) = 6.50019 6.76507 6.63395
#
# Compressibility (1/GPa) = 0.02203938
#
# Stress axis : x y z
#
# Youngs Moduli (GPa) = 40.34353 46.31512 31.34439
#
# Poissons Ratio (x) = 0.30481 0.26583
# Poissons Ratio (y) = 0.26551 0.40933
# Poissons Ratio (z) = 0.34216 0.60484
#
# Static dielectric constant tensor:
#      x y z
#    x 1.559220 0.000000 0.000000 
#    y 0.000000 1.529610 0.000000 
#    z 0.000000 0.000000 1.526820 
# 
# From -- ./inp_files/54574.got.cif
#   From: 2010.05.17/outbox.cif.g08.bks.cpg/sg65_28_cif.got.tgz:54574.got - 2010.06.03 17:01:31.
