data_PCOD9489247
_publ_section_title
;
Structure prediction by ZEFSAII (Michael W. Deem and Ramdas Pophale) SiO2 
 PCOD9489247
Probable space group: C M M M
;
_chemical_formula_sum "Si O2"
_cell_formula_units_Z 116
_cell_length_a 29.061069
_cell_length_b 7.854850
_cell_length_c 28.172473
_cell_angle_alpha 90.000000
_cell_angle_beta 90.000000
_cell_angle_gamma 90.000000
_cell_volume 6430.939929
_symmetry_space_group_name_H-M "C M M M"
_symmetry_group_IT_number 65
_symmetry_cell_setting 'orthorhombic'
loop_
_space_group_symop_operation_xyz
x,y,z
-x,-y,z
x,-y,-z
-x,y,-z
-x,-y,-z
x,y,-z
-x,y,z
x,-y,z
1/2+x,1/2+y,z
1/2-x,1/2-y,z
1/2+x,1/2-y,-z
1/2-x,1/2+y,-z
1/2-x,1/2-y,-z
1/2+x,1/2+y,-z
1/2-x,1/2+y,z
1/2+x,1/2-y,z
loop_
_atom_site_type_symbol
_atom_site_label
_atom_site_fract_x
_atom_site_fract_y
_atom_site_fract_z
Si Si1 0.948018 0.802850 0.698159
Si Si2 0.197324 0.205510 0.053674
Si Si3 0.673162 0.000000 0.500000
Si Si4 0.303423 0.796212 0.232961
Si Si5 0.139188 0.199399 0.141379
Si Si6 0.803629 0.802123 0.425933
Si Si7 0.649786 0.801652 0.669404
Si Si8 0.948816 0.698424 0.804446
O O1 0.905340 0.713640 0.672957
O O2 0.939799 0.793255 0.754939
O O3 0.000000 0.735025 0.689975
O O4 0.947484 0.000000 0.683882
O O5 0.250000 0.250000 0.065687
O O6 0.163061 0.271130 0.094114
O O7 0.194334 0.000000 0.053175
O O8 0.188075 0.267111 0.000000
O O9 0.675470 0.153843 0.540858
O O10 0.250000 0.750000 0.235409
O O11 0.326616 0.722682 0.185845
O O12 0.329145 0.737130 0.280766
O O13 0.308821 0.000000 0.230306
O O14 0.090681 0.274707 0.157440
O O15 0.131709 0.000000 0.133893
O O16 0.750000 0.750000 0.421208
O O17 0.828732 0.793051 0.375257
O O18 0.805701 0.000000 0.443153
O O19 0.662633 0.000000 0.665054
O O20 0.948850 0.500000 0.791279
O O21 0.000000 0.745807 0.821302
#
# Coordination Sequence:
#
# PCOD9489247 Si02
#       8
#    16  16   4  16  16  16  16  16
#     4  10  20  34  55  82 113 149 189 233 278 335
#     4   9  19  35  53  75 103 135 178 230 277 326
#     4  12  24  44  62  90 121 156 203 252 284 346
#     4  11  23  35  51  73 110 152 184 221 266 332
#     4  11  21  33  53  78 103 140 181 225 276 332
#     4  12  24  39  63  89 119 159 197 247 294 339
#     4  11  22  38  55  83 118 153 192 233 285 340
#     4  10  20  34  52  76 106 142 182 227 276 329
#
# _framework density 18.037797000000001
#
# number of rings (size 3 to 8) (size 9 to 14) (size 15 to 20)
#    0.000    1.379    2.759    3.310    0.000    6.621 
#    0.000    0.000    0.000    0.414    0.000    3.862 
#    0.000    2.207    0.000    0.000    0.000    0.000 
#
# Total GULP energy -323252.793427 kJ/mol
# GULP energy per Si atom -5573.324025 kJ/mol
# Density = 1.799674 g / cm^3
# Si number density = 18.037797 Si / 1000 Ang^3
#
#
#
# Elastic Constant Matrix: (Units=GPa)
#
#
# Indices 1 2 3 4 5 6 
#
# 1 51.5012 6.4564 17.6322 0.0000 0.0000 0.0000
# 2 6.4564 75.9770 14.2355 0.0000 0.0000 0.0000
# 3 17.6322 14.2355 71.8737 0.0000 0.0000 0.0000
# 4 0.0000 0.0000 0.0000 14.7560 0.0000 0.0000
# 5 0.0000 0.0000 0.0000 0.0000 94.1092 0.0000
# 6 0.0000 0.0000 0.0000 0.0000 0.0000 25.4023
#
#
#
# Elastic Compliance Matrix: (Units=1/GPa)
#
#
# Indices 1 2 3 4 5 6 
#
# 1 0.021251 -0.000861 -0.005043 0.000000 0.000000 0.000000
# 2 -0.000861 0.013704 -0.002503 0.000000 0.000000 0.000000
# 3 -0.005043 -0.002503 0.015646 0.000000 0.000000 0.000000
# 4 0.000000 0.000000 0.000000 0.067769 0.000000 0.000000
# 5 0.000000 0.000000 0.000000 0.000000 0.010626 0.000000
# 6 0.000000 0.000000 0.000000 0.000000 0.000000 0.039367
#
#
# Mechanical properties :
#
#
# Convention : Reuss Voigt Hill
#
# Bulk Modulus (GPa) = 29.59655 30.66668 30.13162
# Shear Modulus (GPa) = 25.45311 37.58868 31.52090
#
# Velocity S-wave (km/s) = 3.76053 4.56991 4.18484
# Velocity P-wave (km/s) = 5.94131 6.69953 6.33178
#
# Compressibility (1/GPa) = 0.03378772
#
# Stress axis : x y z
#
# Youngs Moduli (GPa) = 47.05554 72.97119 63.91327
#
# Poissons Ratio (x) = 0.06283 0.32231
# Poissons Ratio (y) = 0.04052 0.15998
# Poissons Ratio (z) = 0.23730 0.18265
#
# Static dielectric constant tensor:
#      x y z
#    x 1.609660 0.000000 0.000000 
#    y 0.000000 1.654060 0.000000 
#    z 0.000000 0.000000 1.613700 
# 
# From -- ./inp_files/76312.got.cif
#   From: 2010.05.17/outbox.cif.g08.bks.cpg/sg65_39_cif.got.tgz:76312.got - 2010.06.03 17:01:31.
