data_PCOD9489746
_publ_section_title
;
Structure prediction by ZEFSAII (Michael W. Deem and Ramdas Pophale) SiO2 
 PCOD9489746
Probable space group: C M M M
;
_chemical_formula_sum "Si O2"
_cell_formula_units_Z 90
_cell_length_a 18.404571
_cell_length_b 21.948181
_cell_length_c 11.743464
_cell_angle_alpha 90.000000
_cell_angle_beta 90.000000
_cell_angle_gamma 90.000000
_cell_volume 4743.735356
_symmetry_space_group_name_H-M "C M M M"
_symmetry_group_IT_number 65
_symmetry_cell_setting 'orthorhombic'
loop_
_space_group_symop_operation_xyz
x,y,z
-x,-y,z
x,-y,-z
-x,y,-z
-x,-y,-z
x,y,-z
-x,y,z
x,-y,z
1/2+x,1/2+y,z
1/2-x,1/2-y,z
1/2+x,1/2-y,-z
1/2-x,1/2+y,-z
1/2-x,1/2-y,-z
1/2+x,1/2+y,-z
1/2-x,1/2+y,z
1/2+x,1/2-y,z
loop_
_atom_site_type_symbol
_atom_site_label
_atom_site_fract_x
_atom_site_fract_y
_atom_site_fract_z
Si Si1 0.672611 0.875721 0.743411
Si Si2 0.348295 0.000000 0.123934
Si Si3 0.375823 0.570809 0.500000
Si Si4 0.915526 0.927998 0.249094
Si Si5 0.812723 0.835094 0.867941
Si Si6 0.000000 0.500000 0.000000
Si Si7 0.200696 0.428120 0.500000
Si Si8 0.583384 0.219063 0.131964
O O1 0.672973 0.939668 0.809580
O O2 0.743843 0.839221 0.785355
O O3 0.674375 0.893217 0.611930
O O4 0.605240 0.835526 0.785296
O O5 0.434521 0.000000 0.096853
O O6 0.311436 0.000000 0.000000
O O7 0.400119 0.500000 0.500000
O O8 0.403263 0.595676 0.621000
O O9 0.288667 0.572911 0.500000
O O10 0.864232 0.891490 0.164475
O O11 0.000000 0.921121 0.219575
O O12 0.897231 0.000000 0.248169
O O13 0.861572 0.774978 0.852487
O O14 0.788923 0.837038 0.000000
O O15 0.179535 0.500000 0.500000
O O16 0.500000 0.238544 0.148369
O O17 0.590341 0.197808 0.000000
#
# Coordination Sequence:
#
# PCOD9489746 Si02
#       8
#    16   8   8  16  16   2   8  16
#     4  12  23  40  66  93 127 166 213 263 318 382
#     4  10  22  37  65  99 128 159 202 265 315 380
#     4   9  17  34  56  79 112 158 208 256 298 368
#     4  10  20  34  56  85 120 166 213 260 314 375
#     4  11  23  39  60  93 129 161 209 264 324 384
#     4   8  24  40  60 102 140 156 206 264 328 380
#     4  11  22  41  61  92 132 170 207 259 327 375
#     4  10  23  43  68  90 122 170 213 262 322 388
#
# _framework density 18.972390999999998
#
# number of rings (size 3 to 8) (size 9 to 14) (size 15 to 20)
#    0.267    1.244    2.667    2.933    2.489    3.911 
#    0.000    4.000    0.000    1.067    0.000    0.000 
#    0.000    0.000    0.000    0.000    0.000    0.000 
#
# Total GULP energy -251034.774821 kJ/mol
# GULP energy per Si atom -5578.550552 kJ/mol
# Density = 1.892921 g / cm^3
# Si number density = 18.972391 Si / 1000 Ang^3
#
#
#
# Elastic Constant Matrix: (Units=GPa)
#
#
# Indices 1 2 3 4 5 6 
#
# 1 61.0505 27.8979 33.3265 0.0000 0.0000 0.0000
# 2 27.8979 59.6147 44.3773 0.0000 0.0000 0.0000
# 3 33.3265 44.3773 125.5829 0.0000 0.0000 0.0000
# 4 0.0000 0.0000 0.0000 48.6570 0.0000 0.0000
# 5 0.0000 0.0000 0.0000 0.0000 26.3043 0.0000
# 6 0.0000 0.0000 0.0000 0.0000 0.0000 24.1654
#
#
#
# Elastic Compliance Matrix: (Units=1/GPa)
#
#
# Indices 1 2 3 4 5 6 
#
# 1 0.021603 -0.007927 -0.002932 0.000000 0.000000 0.000000
# 2 -0.007927 0.025671 -0.006968 0.000000 0.000000 0.000000
# 3 -0.002932 -0.006968 0.011203 0.000000 0.000000 0.000000
# 4 0.000000 0.000000 0.000000 0.020552 0.000000 0.000000
# 5 0.000000 0.000000 0.000000 0.000000 0.038017 0.000000
# 6 0.000000 0.000000 0.000000 0.000000 0.000000 0.041381
#
#
# Mechanical properties :
#
#
# Convention : Reuss Voigt Hill
#
# Bulk Modulus (GPa) = 43.81407 50.82795 47.32101
# Shear Modulus (GPa) = 24.79088 29.20176 26.99632
#
# Velocity S-wave (km/s) = 3.61873 3.92748 3.77626
# Velocity P-wave (km/s) = 6.37212 6.88589 6.63398
#
# Compressibility (1/GPa) = 0.02282372
#
# Stress axis : x y z
#
# Youngs Moduli (GPa) = 46.29072 38.95475 89.26185
#
# Poissons Ratio (x) = 0.30880 0.26168
# Poissons Ratio (y) = 0.36695 0.62195
# Poissons Ratio (z) = 0.13570 0.27142
#
# Static dielectric constant tensor:
#      x y z
#    x 1.655840 0.000000 0.000000 
#    y 0.000000 1.652160 0.000000 
#    z 0.000000 0.000000 1.663650 
# 
# From -- ./inp_files/26884.got.cif
#   From: 2010.05.17/outbox.cif.g08.bks.cpg/sg65_14_cif.got.tgz:26884.got - 2010.06.03 17:01:31.
