data_PCOD9489344
_publ_section_title
;
Structure prediction by ZEFSAII (Michael W. Deem and Ramdas Pophale) SiO2 
 PCOD9489344
Probable space group: C M M M
;
_chemical_formula_sum "Si O2"
_cell_formula_units_Z 80
_cell_length_a 8.824265
_cell_length_b 27.782864
_cell_length_c 18.986704
_cell_angle_alpha 90.000000
_cell_angle_beta 90.000000
_cell_angle_gamma 90.000000
_cell_volume 4654.844042
_symmetry_space_group_name_H-M "C M M M"
_symmetry_group_IT_number 65
_symmetry_cell_setting 'orthorhombic'
loop_
_space_group_symop_operation_xyz
x,y,z
-x,-y,z
x,-y,-z
-x,y,-z
-x,-y,-z
x,y,-z
-x,y,z
x,-y,z
1/2+x,1/2+y,z
1/2-x,1/2-y,z
1/2+x,1/2-y,-z
1/2-x,1/2+y,-z
1/2-x,1/2-y,-z
1/2+x,1/2+y,-z
1/2-x,1/2+y,z
1/2+x,1/2-y,z
loop_
_atom_site_type_symbol
_atom_site_label
_atom_site_fract_x
_atom_site_fract_y
_atom_site_fract_z
Si Si1 0.818607 0.555075 0.283272
Si Si2 0.683000 0.303323 0.500000
Si Si3 0.683027 0.354305 0.644928
Si Si4 0.818554 0.443145 0.000000
Si Si5 0.817775 0.099210 0.142435
Si Si6 0.681483 0.698487 0.788217
O O1 0.781389 0.500000 0.301577
O O2 0.754557 0.594079 0.337894
O O3 0.746637 0.568445 0.207702
O O4 0.000000 0.559622 0.278351
O O5 0.500000 0.299997 0.500000
O O6 0.750000 0.250000 0.500000
O O7 0.728520 0.331716 0.570596
O O8 0.500000 0.358879 0.646704
O O9 0.727145 0.319281 0.709801
O O10 0.750036 0.419144 0.069680
O O11 0.782320 0.500000 0.000000
O O12 0.000000 0.438079 0.000000
O O13 0.776563 0.154707 0.159873
O O14 0.000000 0.095541 0.141906
O O15 0.500000 0.702406 0.788722
O O16 0.750000 0.750000 0.805305
#
# Coordination Sequence:
#
# PCOD9489344 Si02
#       6
#    16   8  16   8  16  16
#     4  10  20  34  53  77 103 133 172 216 259 304
#     4  10  20  34  53  78 107 137 172 215 261 310
#     4   9  19  34  51  75 105 136 173 213 254 307
#     4  11  23  37  54  79 108 135 168 211 256 303
#     4  10  21  36  54  78 106 136 172 210 252 307
#     4   9  18  32  51  75 101 131 169 210 250 297
#
# _framework density 17.186396999999999
#
# number of rings (size 3 to 8) (size 9 to 14) (size 15 to 20)
#    0.000    2.300    0.000    3.900    0.000    9.600 
#    0.000    1.000    0.000    3.000    0.000    0.000 
#    0.000    0.000    0.000    0.000    0.000    0.000 
#
# Total GULP energy -223244.599261 kJ/mol
# GULP energy per Si atom -5581.114982 kJ/mol
# Density = 1.714728 g / cm^3
# Si number density = 17.186397 Si / 1000 Ang^3
#
#
#
# Elastic Constant Matrix: (Units=GPa)
#
#
# Indices 1 2 3 4 5 6 
#
# 1 37.4758 56.3755 45.3105 0.0000 0.0000 0.0000
# 2 56.3755 172.7823 96.1261 0.0000 0.0000 0.0000
# 3 45.3105 96.1261 149.8390 0.0000 0.0000 0.0000
# 4 0.0000 0.0000 0.0000 14.5938 0.0000 0.0000
# 5 0.0000 0.0000 0.0000 0.0000 16.0718 0.0000
# 6 0.0000 0.0000 0.0000 0.0000 0.0000 35.2549
#
#
#
# Elastic Compliance Matrix: (Units=1/GPa)
#
#
# Indices 1 2 3 4 5 6 
#
# 1 0.058606 -0.014403 -0.008482 0.000000 0.000000 0.000000
# 2 -0.014403 0.012539 -0.003689 0.000000 0.000000 0.000000
# 3 -0.008482 -0.003689 0.011605 0.000000 0.000000 0.000000
# 4 0.000000 0.000000 0.000000 0.068522 0.000000 0.000000
# 5 0.000000 0.000000 0.000000 0.000000 0.062221 0.000000
# 6 0.000000 0.000000 0.000000 0.000000 0.000000 0.028365
#
#
# Mechanical properties :
#
#
# Convention : Reuss Voigt Hill
#
# Bulk Modulus (GPa) = 33.78096 83.96905 58.87500
# Shear Modulus (GPa) = 16.40016 24.00308 20.20162
#
# Velocity S-wave (km/s) = 3.09245 3.74121 3.43219
# Velocity P-wave (km/s) = 5.69643 8.22351 7.07373
#
# Compressibility (1/GPa) = 0.02960248
#
# Stress axis : x y z
#
# Youngs Moduli (GPa) = 17.06304 79.74858 86.16670
#
# Poissons Ratio (x) = 1.14862 0.73089
# Poissons Ratio (y) = 0.24576 0.31787
# Poissons Ratio (z) = 0.14473 0.29419
#
# Static dielectric constant tensor:
#      x y z
#    x 1.578200 0.000000 0.000000 
#    y 0.000000 1.568290 0.000000 
#    z 0.000000 0.000000 1.561360 
# 
# From -- ./inp_files/49993.got.cif
#   From: 2010.05.17/outbox.cif.g08.bks.cpg/sg65_25_cif.got.tgz:49993.got - 2010.06.03 17:01:31.
