data_PCOD9489717
_publ_section_title
;
Structure prediction by ZEFSAII (Michael W. Deem and Ramdas Pophale) SiO2 
 PCOD9489717
Probable space group: C M M M
;
_chemical_formula_sum "Si O2"
_cell_formula_units_Z 112
_cell_length_a 22.801671
_cell_length_b 17.117994
_cell_length_c 15.214682
_cell_angle_alpha 90.000000
_cell_angle_beta 90.000000
_cell_angle_gamma 90.000000
_cell_volume 5938.577446
_symmetry_space_group_name_H-M "C M M M"
_symmetry_group_IT_number 65
_symmetry_cell_setting 'orthorhombic'
loop_
_space_group_symop_operation_xyz
x,y,z
-x,-y,z
x,-y,-z
-x,y,-z
-x,-y,-z
x,y,-z
-x,y,z
x,-y,z
1/2+x,1/2+y,z
1/2-x,1/2-y,z
1/2+x,1/2-y,-z
1/2-x,1/2+y,-z
1/2-x,1/2-y,-z
1/2+x,1/2+y,-z
1/2-x,1/2+y,z
1/2+x,1/2-y,z
loop_
_atom_site_type_symbol
_atom_site_label
_atom_site_fract_x
_atom_site_fract_y
_atom_site_fract_z
Si Si1 0.771078 0.907779 0.095529
Si Si2 0.801053 0.906195 0.397489
Si Si3 0.822319 0.353099 0.683841
Si Si4 0.569816 0.243629 0.102195
Si Si5 0.639200 0.086599 0.863949
Si Si6 0.158295 0.185725 0.238928
Si Si7 0.563953 0.909771 0.395249
O O1 0.701359 0.897134 0.090647
O O2 0.797022 0.857514 0.173682
O O3 0.781642 0.000000 0.111414
O O4 0.796385 0.886779 0.000000
O O5 0.810832 0.884631 0.500000
O O6 0.735744 0.878526 0.367607
O O7 0.845065 0.866930 0.326920
O O8 0.803377 0.000000 0.390665
O O9 0.839958 0.410462 0.762878
O O10 0.817303 0.268323 0.727169
O O11 0.881276 0.356059 0.626714
O O12 0.500000 0.246494 0.113310
O O13 0.594103 0.155539 0.116637
O O14 0.602522 0.295100 0.176791
O O15 0.583128 0.265400 0.000000
O O16 0.617863 0.000000 0.886815
O O17 0.560167 0.912387 0.500000
O O18 0.500000 0.884132 0.359976
O O19 0.573306 0.000000 0.366413
#
# Coordination Sequence:
#
# PCOD9489717 Si02
#       7
#    16  16  16  16  16  16  16
#     4  10  20  36  61  90 118 152 194 242 294 346
#     4  11  23  39  60  85 116 154 195 244 302 360
#     4  11  21  32  52  83 122 161 196 236 291 348
#     4  10  23  41  60  85 119 160 203 244 292 350
#     4  10  20  34  55  86 124 160 195 236 279 339
#     4  11  23  38  59  87 121 154 194 246 297 350
#     4   9  18  33  53  77 108 153 208 253 284 327
#
# _framework density 18.859736000000002
#
# number of rings (size 3 to 8) (size 9 to 14) (size 15 to 20)
#    0.000    1.714    1.429    3.857    2.000    6.286 
#    0.000    2.857    0.000    2.143    0.000    6.000 
#    0.000    0.000    0.000    0.000    0.000    0.000 
#
# Total GULP energy -312338.283791 kJ/mol
# GULP energy per Si atom -5577.469353 kJ/mol
# Density = 1.881681 g / cm^3
# Si number density = 18.859736 Si / 1000 Ang^3
#
#
#
# Elastic Constant Matrix: (Units=GPa)
#
#
# Indices 1 2 3 4 5 6 
#
# 1 95.5831 46.5125 54.4049 0.0000 0.0000 0.0000
# 2 46.5125 81.0775 59.3488 0.0000 0.0000 0.0000
# 3 54.4049 59.3488 145.3738 0.0000 0.0000 0.0000
# 4 0.0000 0.0000 0.0000 19.5968 0.0000 0.0000
# 5 0.0000 0.0000 0.0000 0.0000 17.9536 0.0000
# 6 0.0000 0.0000 0.0000 0.0000 0.0000 16.1253
#
#
#
# Elastic Compliance Matrix: (Units=1/GPa)
#
#
# Indices 1 2 3 4 5 6 
#
# 1 0.015424 -0.006594 -0.003081 0.000000 0.000000 0.000000
# 2 -0.006594 0.020409 -0.005865 0.000000 0.000000 0.000000
# 3 -0.003081 -0.005865 0.010426 0.000000 0.000000 0.000000
# 4 0.000000 0.000000 0.000000 0.051029 0.000000 0.000000
# 5 0.000000 0.000000 0.000000 0.000000 0.055699 0.000000
# 6 0.000000 0.000000 0.000000 0.000000 0.000000 0.062014
#
#
# Mechanical properties :
#
#
# Convention : Reuss Voigt Hill
#
# Bulk Modulus (GPa) = 65.86708 71.39629 68.63169
# Shear Modulus (GPa) = 19.90928 21.51969 20.71448
#
# Velocity S-wave (km/s) = 3.25260 3.38159 3.31772
# Velocity P-wave (km/s) = 7.00760 7.29284 7.15164
#
# Compressibility (1/GPa) = 0.01518209
#
# Stress axis : x y z
#
# Youngs Moduli (GPa) = 64.83400 48.99733 95.91534
#
# Poissons Ratio (x) = 0.32306 0.29547
# Poissons Ratio (y) = 0.42748 0.56250
# Poissons Ratio (z) = 0.19972 0.28735
#
# Static dielectric constant tensor:
#      x y z
#    x 1.653830 0.000000 0.000000 
#    y 0.000000 1.665150 0.000000 
#    z 0.000000 0.000000 1.761060 
# 
# From -- ./inp_files/45787.got.cif
#   From: 2010.05.17/outbox.cif.g08.bks.cpg/sg65_23_cif.got.tgz:45787.got - 2010.06.03 17:01:31.
