data_PCOD9489203
_publ_section_title
;
Structure prediction by ZEFSAII (Michael W. Deem and Ramdas Pophale) SiO2 
 PCOD9489203
Probable space group: C M M M
;
_chemical_formula_sum "Si O2"
_cell_formula_units_Z 96
_cell_length_a 8.358936
_cell_length_b 30.536223
_cell_length_c 19.288550
_cell_angle_alpha 90.000000
_cell_angle_beta 90.000000
_cell_angle_gamma 90.000000
_cell_volume 4923.408825
_symmetry_space_group_name_H-M "C M M M"
_symmetry_group_IT_number 65
_symmetry_cell_setting 'orthorhombic'
loop_
_space_group_symop_operation_xyz
x,y,z
-x,-y,z
x,-y,-z
-x,y,-z
-x,-y,-z
x,y,-z
-x,y,z
x,-y,z
1/2+x,1/2+y,z
1/2-x,1/2-y,z
1/2+x,1/2-y,-z
1/2-x,1/2+y,-z
1/2-x,1/2-y,-z
1/2+x,1/2+y,-z
1/2-x,1/2+y,z
1/2+x,1/2-y,z
loop_
_atom_site_type_symbol
_atom_site_label
_atom_site_fract_x
_atom_site_fract_y
_atom_site_fract_z
Si Si1 0.193174 0.799047 0.580198
Si Si2 0.185705 0.183954 0.078188
Si Si3 0.306554 0.084975 0.077037
Si Si4 0.181973 0.704404 0.783225
Si Si5 0.314247 0.368447 0.692951
Si Si6 0.692351 0.048610 0.773258
O O1 0.239572 0.806296 0.500000
O O2 0.250000 0.750000 0.599189
O O3 0.251690 0.838762 0.629243
O O4 0.000000 0.798690 0.584704
O O5 0.221646 0.132010 0.079009
O O6 0.302764 0.204463 0.134170
O O7 0.000000 0.192023 0.096462
O O8 0.214053 0.198967 0.000000
O O9 0.500000 0.091372 0.080673
O O10 0.258256 0.059910 0.147246
O O11 0.273973 0.065336 0.000000
O O12 0.250000 0.750000 0.756543
O O13 0.289359 0.664764 0.756799
O O14 0.000000 0.697531 0.761625
O O15 0.500000 0.376288 0.679201
O O16 0.240715 0.413930 0.718786
O O17 0.500000 0.047917 0.774330
O O18 0.751128 0.000000 0.754920
#
# Coordination Sequence:
#
# PCOD9489203 Si02
#       6
#    16  16  16  16  16  16
#     4   9  19  36  59  89 121 150 182 220 265 324
#     4  10  20  34  52  74 102 137 179 228 279 331
#     4   9  17  31  52  76 103 139 182 231 288 342
#     4  12  24  37  54  77 107 143 184 226 272 329
#     4  11  22  37  58  83 113 148 183 224 277 329
#     4  10  21  36  55  81 112 148 190 236 285 338
#
# _framework density 19.498685999999999
#
# number of rings (size 3 to 8) (size 9 to 14) (size 15 to 20)
#    0.000    1.833    1.667    3.000    0.000    4.667 
#    0.000    1.667    0.000    0.500    0.000    7.000 
#    0.000    0.000    0.000    0.000    0.000    0.000 
#
# Total GULP energy -267826.782866 kJ/mol
# GULP energy per Si atom -5579.724643 kJ/mol
# Density = 1.945431 g / cm^3
# Si number density = 19.498686 Si / 1000 Ang^3
#
#
#
# Elastic Constant Matrix: (Units=GPa)
#
#
# Indices 1 2 3 4 5 6 
#
# 1 16.9108 14.5164 22.7056 0.0000 0.0000 0.0000
# 2 14.5164 146.4914 58.7297 0.0000 0.0000 0.0000
# 3 22.7056 58.7297 119.8909 0.0000 0.0000 0.0000
# 4 0.0000 0.0000 0.0000 34.3927 0.0000 0.0000
# 5 0.0000 0.0000 0.0000 0.0000 15.2285 0.0000
# 6 0.0000 0.0000 0.0000 0.0000 0.0000 23.9397
#
#
#
# Elastic Compliance Matrix: (Units=1/GPa)
#
#
# Indices 1 2 3 4 5 6 
#
# 1 0.079918 -0.002304 -0.014007 0.000000 0.000000 0.000000
# 2 -0.002304 0.008561 -0.003757 0.000000 0.000000 0.000000
# 3 -0.014007 -0.003757 0.012834 0.000000 0.000000 0.000000
# 4 0.000000 0.000000 0.000000 0.029076 0.000000 0.000000
# 5 0.000000 0.000000 0.000000 0.000000 0.065666 0.000000
# 6 0.000000 0.000000 0.000000 0.000000 0.000000 0.041772
#
#
# Mechanical properties :
#
#
# Convention : Reuss Voigt Hill
#
# Bulk Modulus (GPa) = 16.34599 52.79958 34.57279
# Shear Modulus (GPa) = 16.75855 27.20160 21.98007
#
# Velocity S-wave (km/s) = 2.93485 3.73909 3.36111
# Velocity P-wave (km/s) = 4.45935 6.76597 5.72993
#
# Compressibility (1/GPa) = 0.06117708
#
# Stress axis : x y z
#
# Youngs Moduli (GPa) = 12.51285 116.80877 77.91710
#
# Poissons Ratio (x) = 0.26912 1.09136
# Poissons Ratio (y) = 0.02883 0.29276
# Poissons Ratio (z) = 0.17526 0.43889
#
# Static dielectric constant tensor:
#      x y z
#    x 1.670290 0.000000 0.000000 
#    y 0.000000 1.677540 0.000000 
#    z 0.000000 0.000000 1.730810 
# 
# From -- ./inp_files/60314.got.cif
#   From: 2010.05.17/outbox.cif.g08.bks.cpg/sg65_31_cif.got.tgz:60314.got - 2010.06.03 17:01:31.
