data_PCOD9489916
_publ_section_title
;
Structure prediction by ZEFSAII (Michael W. Deem and Ramdas Pophale) SiO2 
 PCOD9489916
Probable space group: C M M M
;
_chemical_formula_sum "Si O2"
_cell_formula_units_Z 88
_cell_length_a 8.287571
_cell_length_b 24.261634
_cell_length_c 25.073370
_cell_angle_alpha 90.000000
_cell_angle_beta 90.000000
_cell_angle_gamma 90.000000
_cell_volume 5041.502866
_symmetry_space_group_name_H-M "C M M M"
_symmetry_group_IT_number 65
_symmetry_cell_setting 'orthorhombic'
loop_
_space_group_symop_operation_xyz
x,y,z
-x,-y,z
x,-y,-z
-x,y,-z
-x,-y,-z
x,y,-z
-x,y,z
x,-y,z
1/2+x,1/2+y,z
1/2-x,1/2-y,z
1/2+x,1/2-y,-z
1/2-x,1/2+y,-z
1/2-x,1/2-y,-z
1/2+x,1/2+y,-z
1/2-x,1/2+y,z
1/2+x,1/2-y,z
loop_
_atom_site_type_symbol
_atom_site_label
_atom_site_fract_x
_atom_site_fract_y
_atom_site_fract_z
Si Si1 0.187543 0.433617 0.868624
Si Si2 0.500000 0.566668 0.060802
Si Si3 0.191710 0.121430 0.442050
Si Si4 0.807671 0.603975 0.249366
Si Si5 0.191463 0.687672 0.338402
Si Si6 0.315405 0.000000 0.421753
Si Si7 0.819069 0.000000 0.690648
O O1 0.199935 0.500000 0.857240
O O2 0.333137 0.418909 0.908701
O O3 0.212865 0.399539 0.814073
O O4 0.000000 0.424903 0.886621
O O5 0.500000 0.500000 0.058978
O O6 0.500000 0.587230 0.000000
O O7 0.252157 0.142311 0.500000
O O8 0.257729 0.152265 0.390090
O O9 0.000000 0.127801 0.440905
O O10 0.233324 0.056702 0.439166
O O11 0.756575 0.657202 0.283590
O O12 0.710789 0.553366 0.274165
O O13 0.000000 0.595084 0.258725
O O14 0.250000 0.750000 0.342046
O O15 0.000000 0.688659 0.337786
O O16 0.304264 0.000000 0.357840
O O17 0.500000 0.000000 0.438989
O O18 0.000000 0.000000 0.668131
#
# Coordination Sequence:
#
# PCOD9489916 Si02
#       7
#    16   8  16  16  16   8   8
#     4   9  17  29  48  74 107 145 185 225 268 317
#     4   9  18  30  44  70 112 154 193 223 253 310
#     4  11  24  41  60  82 107 136 178 227 272 328
#     4  10  20  35  54  78 109 142 177 225 275 328
#     4  11  24  41  60  79 106 141 178 223 278 334
#     4  12  23  37  56  83 114 140 173 215 275 334
#     4  12  22  29  53  84 108 140 175 216 272 331
#
# _framework density 17.455113000000001
#
# number of rings (size 3 to 8) (size 9 to 14) (size 15 to 20)
#    0.000    1.545    2.727    3.000    1.273    4.000 
#    0.000    1.818    0.000    0.000    0.000    0.000 
#    0.000    0.727    0.364    0.000    0.000    0.000 
#
# Total GULP energy -245444.030027 kJ/mol
# GULP energy per Si atom -5578.273410 kJ/mol
# Density = 1.741538 g / cm^3
# Si number density = 17.455113 Si / 1000 Ang^3
#
#
#
# Elastic Constant Matrix: (Units=GPa)
#
#
# Indices 1 2 3 4 5 6 
#
# 1 73.6047 28.3190 65.7758 0.0000 0.0000 0.0000
# 2 28.3190 89.6987 45.9512 0.0000 0.0000 0.0000
# 3 65.7758 45.9512 131.0119 0.0000 0.0000 0.0000
# 4 0.0000 0.0000 0.0000 2.4721 0.0000 0.0000
# 5 0.0000 0.0000 0.0000 0.0000 18.5302 0.0000
# 6 0.0000 0.0000 0.0000 0.0000 0.0000 5.6095
#
#
#
# Elastic Compliance Matrix: (Units=1/GPa)
#
#
# Indices 1 2 3 4 5 6 
#
# 1 0.024871 -0.001774 -0.011865 0.000000 0.000000 0.000000
# 2 -0.001774 0.013717 -0.003920 0.000000 0.000000 0.000000
# 3 -0.011865 -0.003920 0.014965 0.000000 0.000000 0.000000
# 4 0.000000 0.000000 0.000000 0.404522 0.000000 0.000000
# 5 0.000000 0.000000 0.000000 0.000000 0.053966 0.000000
# 6 0.000000 0.000000 0.000000 0.000000 0.000000 0.178268
#
#
# Mechanical properties :
#
#
# Convention : Reuss Voigt Hill
#
# Bulk Modulus (GPa) = 54.24565 63.82304 59.03435
# Shear Modulus (GPa) = 6.83460 15.60698 11.22079
#
# Velocity S-wave (km/s) = 1.98092 2.99343 2.53817
# Velocity P-wave (km/s) = 6.03131 6.97072 6.51796
#
# Compressibility (1/GPa) = 0.01843466
#
# Stress axis : x y z
#
# Youngs Moduli (GPa) = 40.20687 72.90290 66.82396
#
# Poissons Ratio (x) = 0.12934 0.79284
# Poissons Ratio (y) = 0.07133 0.26197
# Poissons Ratio (z) = 0.47704 0.28580
#
# Static dielectric constant tensor:
#      x y z
#    x 1.597910 0.000000 0.000000 
#    y 0.000000 1.133410 0.000000 
#    z 0.000000 0.000000 1.618120 
# 
# From -- ./inp_files/67620.got.cif
#   From: 2010.05.17/outbox.cif.g08.bks.cpg/sg65_34_cif.got.tgz:67620.got - 2010.06.03 17:01:31.
