data_PCOD9489538
_publ_section_title
;
Structure prediction by ZEFSAII (Michael W. Deem and Ramdas Pophale) SiO2 
 PCOD9489538
Probable space group: C M M M
;
_chemical_formula_sum "Si O2"
_cell_formula_units_Z 96
_cell_length_a 15.504736
_cell_length_b 8.981008
_cell_length_c 32.546459
_cell_angle_alpha 90.000000
_cell_angle_beta 90.000000
_cell_angle_gamma 90.000000
_cell_volume 4532.034467
_symmetry_space_group_name_H-M "C M M M"
_symmetry_group_IT_number 65
_symmetry_cell_setting 'orthorhombic'
loop_
_space_group_symop_operation_xyz
x,y,z
-x,-y,z
x,-y,-z
-x,y,-z
-x,-y,-z
x,y,-z
-x,y,z
x,-y,z
1/2+x,1/2+y,z
1/2-x,1/2-y,z
1/2+x,1/2-y,-z
1/2-x,1/2+y,-z
1/2-x,1/2-y,-z
1/2+x,1/2+y,-z
1/2-x,1/2+y,z
1/2+x,1/2-y,z
loop_
_atom_site_type_symbol
_atom_site_label
_atom_site_fract_x
_atom_site_fract_y
_atom_site_fract_z
Si Si1 0.346136 0.178455 0.545250
Si Si2 0.893962 0.171059 0.790600
Si Si3 0.397630 0.166470 0.708594
Si Si4 0.655328 0.678097 0.955060
Si Si5 0.898001 0.333616 0.872556
Si Si6 0.154970 0.177600 0.373627
O O1 0.385581 0.205513 0.500000
O O2 0.250000 0.250000 0.543367
O O3 0.387895 0.252950 0.585320
O O4 0.339896 0.000000 0.550893
O O5 0.863930 0.260486 0.750468
O O6 0.863872 0.246549 0.832880
O O7 0.000000 0.171401 0.790510
O O8 0.866788 0.000000 0.788479
O O9 0.500000 0.152461 0.714401
O O10 0.385214 0.269274 0.669016
O O11 0.361630 0.000000 0.701499
O O12 0.660186 0.500000 0.951536
O O13 0.750000 0.750000 0.955592
O O14 0.612156 0.746098 0.914974
O O15 0.615153 0.712432 0.000000
O O16 0.860488 0.500000 0.875949
O O17 0.000000 0.347733 0.865406
O O18 0.250000 0.250000 0.372537
O O19 0.158170 0.000000 0.376758
#
# Coordination Sequence:
#
# PCOD9489538 Si02
#       6
#    16  16  16  16  16  16
#     4   9  16  27  45  69  97 129 166 207 252 302
#     4   9  17  31  52  77 104 134 170 210 252 300
#     4  10  20  35  55  77 103 136 173 210 252 306
#     4  10  21  37  56  77 104 139 176 213 256 307
#     4  10  20  34  54  80 108 137 171 212 256 300
#     4  11  21  33  51  75 105 136 169 211 257 303
#
# _framework density 21.182539999999999
#
# number of rings (size 3 to 8) (size 9 to 14) (size 15 to 20)
#    0.000    2.167    0.000    5.000    0.000    6.333 
#    0.000    2.500    0.000    0.500    0.000    3.500 
#    0.000    0.000    0.000    0.000    0.000    0.000 
#
# Total GULP energy -267877.082618 kJ/mol
# GULP energy per Si atom -5580.772555 kJ/mol
# Density = 2.113433 g / cm^3
# Si number density = 21.182540 Si / 1000 Ang^3
#
#
#
# Elastic Constant Matrix: (Units=GPa)
#
#
# Indices 1 2 3 4 5 6 
#
# 1 17.0303 7.2694 7.6577 0.0000 0.0000 0.0000
# 2 7.2694 183.6194 104.3250 0.0000 0.0000 0.0000
# 3 7.6577 104.3250 213.3632 0.0000 0.0000 0.0000
# 4 0.0000 0.0000 0.0000 127.6968 0.0000 0.0000
# 5 0.0000 0.0000 0.0000 0.0000 28.0780 0.0000
# 6 0.0000 0.0000 0.0000 0.0000 0.0000 17.1790
#
#
#
# Elastic Compliance Matrix: (Units=1/GPa)
#
#
# Indices 1 2 3 4 5 6 
#
# 1 0.060018 -0.001595 -0.001374 0.000000 0.000000 0.000000
# 2 -0.001595 0.007583 -0.003651 0.000000 0.000000 0.000000
# 3 -0.001374 -0.003651 0.006521 0.000000 0.000000 0.000000
# 4 0.000000 0.000000 0.000000 0.007831 0.000000 0.000000
# 5 0.000000 0.000000 0.000000 0.000000 0.035615 0.000000
# 6 0.000000 0.000000 0.000000 0.000000 0.000000 0.058210
#
#
# Mechanical properties :
#
#
# Convention : Reuss Voigt Hill
#
# Bulk Modulus (GPa) = 16.42520 72.50189 44.46354
# Shear Modulus (GPa) = 23.88768 54.24148 39.06458
#
# Velocity S-wave (km/s) = 3.36178 5.06580 4.29906
# Velocity P-wave (km/s) = 4.77909 8.27755 6.75861
#
# Compressibility (1/GPa) = 0.06088208
#
# Stress axis : x y z
#
# Youngs Moduli (GPa) = 16.66176 131.86758 153.34679
#
# Poissons Ratio (x) = 0.21038 0.21070
# Poissons Ratio (y) = 0.02658 0.55982
# Poissons Ratio (z) = 0.02289 0.48140
#
# Static dielectric constant tensor:
#      x y z
#    x 1.805890 0.000000 0.000000 
#    y 0.000000 1.737260 0.000000 
#    z 0.000000 0.000000 1.796080 
# 
# From -- ./inp_files/75332.got.cif
#   From: 2010.05.17/outbox.cif.g08.bks.cpg/sg65_38_cif.got.tgz:75332.got - 2010.06.03 17:01:31.
