data_PCOD9489143
_publ_section_title
;
Structure prediction by ZEFSAII (Michael W. Deem and Ramdas Pophale) SiO2 
 PCOD9489143
Probable space group: C M M M
;
_chemical_formula_sum "Si O2"
_cell_formula_units_Z 104
_cell_length_a 8.344167
_cell_length_b 29.610973
_cell_length_c 24.246281
_cell_angle_alpha 90.000000
_cell_angle_beta 90.000000
_cell_angle_gamma 90.000000
_cell_volume 5990.744529
_symmetry_space_group_name_H-M "C M M M"
_symmetry_group_IT_number 65
_symmetry_cell_setting 'orthorhombic'
loop_
_space_group_symop_operation_xyz
x,y,z
-x,-y,z
x,-y,-z
-x,y,-z
-x,-y,-z
x,y,-z
-x,y,z
x,-y,z
1/2+x,1/2+y,z
1/2-x,1/2-y,z
1/2+x,1/2-y,-z
1/2-x,1/2+y,-z
1/2-x,1/2-y,-z
1/2+x,1/2+y,-z
1/2-x,1/2+y,z
1/2+x,1/2-y,z
loop_
_atom_site_type_symbol
_atom_site_label
_atom_site_fract_x
_atom_site_fract_y
_atom_site_fract_z
Si Si1 0.808504 0.892420 0.724755
Si Si2 0.684958 0.945140 0.500000
Si Si3 0.193030 0.893105 0.939399
Si Si4 0.194016 0.552046 0.620341
Si Si5 0.308570 0.200959 0.232526
Si Si6 0.695944 0.447903 0.167584
Si Si7 0.691934 0.200873 0.895595
O O1 0.746283 0.915974 0.669618
O O2 0.754986 0.840955 0.732740
O O3 0.750564 0.920440 0.778480
O O4 0.000000 0.894257 0.724546
O O5 0.500000 0.929363 0.500000
O O6 0.755297 0.932869 0.440362
O O7 0.681219 0.000000 0.500000
O O8 0.251480 0.923132 0.888149
O O9 0.240506 0.841342 0.928777
O O10 0.000000 0.895970 0.939146
O O11 0.250173 0.907666 0.000000
O O12 0.245958 0.500000 0.630378
O O13 0.000000 0.551449 0.617595
O O14 0.500000 0.200275 0.232583
O O15 0.250000 0.250000 0.251644
O O16 0.253877 0.195717 0.168510
O O17 0.500000 0.447287 0.167413
O O18 0.746049 0.500000 0.169782
O O19 0.500000 0.199743 0.897096
O O20 0.750000 0.250000 0.914928
#
# Coordination Sequence:
#
# PCOD9489143 Si02
#       7
#    16   8  16  16  16  16  16
#     4  11  20  31  50  75 106 137 166 205 253 302
#     4   7  12  26  47  69  98 139 180 215 251 289
#     4  10  20  34  52  72  95 126 166 207 248 298
#     4   9  17  30  49  74 105 141 180 217 251 292
#     4  10  20  34  53  76 100 128 163 202 251 305
#     4   9  18  32  49  70  97 128 163 205 249 291
#     4  10  20  34  54  75  98 124 155 197 249 305
#
# _framework density 17.360112999999998
#
# number of rings (size 3 to 8) (size 9 to 14) (size 15 to 20)
#    0.000    2.385    1.538    2.769    0.000    3.077 
#    0.000    1.923    0.000    2.769    0.000    1.615 
#    0.000    0.000    0.000    0.000    0.000    0.000 
#
# Total GULP energy -290059.401897 kJ/mol
# GULP energy per Si atom -5578.065421 kJ/mol
# Density = 1.732060 g / cm^3
# Si number density = 17.360113 Si / 1000 Ang^3
#
#
#
# Elastic Constant Matrix: (Units=GPa)
#
#
# Indices 1 2 3 4 5 6 
#
# 1 12.8753 9.2003 19.2789 0.0000 0.0000 0.0000
# 2 9.2003 113.7489 77.9363 0.0000 0.0000 0.0000
# 3 19.2789 77.9363 151.2464 0.0000 0.0000 0.0000
# 4 0.0000 0.0000 0.0000 26.4144 0.0000 0.0000
# 5 0.0000 0.0000 0.0000 0.0000 15.4513 0.0000
# 6 0.0000 0.0000 0.0000 0.0000 0.0000 16.0796
#
#
#
# Elastic Compliance Matrix: (Units=1/GPa)
#
#
# Indices 1 2 3 4 5 6 
#
# 1 0.096057 0.000958 -0.012738 0.000000 0.000000 0.000000
# 2 0.000958 0.013599 -0.007129 0.000000 0.000000 0.000000
# 3 -0.012738 -0.007129 0.011909 0.000000 0.000000 0.000000
# 4 0.000000 0.000000 0.000000 0.037858 0.000000 0.000000
# 5 0.000000 0.000000 0.000000 0.000000 0.064720 0.000000
# 6 0.000000 0.000000 0.000000 0.000000 0.000000 0.062190
#
#
# Mechanical properties :
#
#
# Convention : Reuss Voigt Hill
#
# Bulk Modulus (GPa) = 11.94083 54.52239 33.23161
# Shear Modulus (GPa) = 14.20189 23.01942 18.61065
#
# Velocity S-wave (km/s) = 2.86331 3.64537 3.27775
# Velocity P-wave (km/s) = 4.22192 7.01379 5.78869
#
# Compressibility (1/GPa) = 0.08374626
#
# Stress axis : x y z
#
# Youngs Moduli (GPa) = 10.41053 73.53718 83.96963
#
# Poissons Ratio (x) = -0.07045 1.06958
# Poissons Ratio (y) = -0.00997 0.59865
# Poissons Ratio (z) = 0.13261 0.52427
#
# Static dielectric constant tensor:
#      x y z
#    x 1.597170 0.000000 0.000000 
#    y 0.000000 1.565240 0.000000 
#    z 0.000000 0.000000 1.611970 
# 
# From -- ./inp_files/60805.got.cif
#   From: 2010.05.17/outbox.cif.g08.bks.cpg/sg65_31_cif.got.tgz:60805.got - 2010.06.03 17:01:31.
