data_PCOD9489085
_publ_section_title
;
Structure prediction by ZEFSAII (Michael W. Deem and Ramdas Pophale) SiO2 
 PCOD9489085
Probable space group: C M M M
;
_chemical_formula_sum "Si O2"
_cell_formula_units_Z 88
_cell_length_a 8.974730
_cell_length_b 14.718447
_cell_length_c 30.128860
_cell_angle_alpha 90.000000
_cell_angle_beta 90.000000
_cell_angle_gamma 90.000000
_cell_volume 3979.844279
_symmetry_space_group_name_H-M "C M M M"
_symmetry_group_IT_number 65
_symmetry_cell_setting 'orthorhombic'
loop_
_space_group_symop_operation_xyz
x,y,z
-x,-y,z
x,-y,-z
-x,y,-z
-x,-y,-z
x,y,-z
-x,y,z
x,-y,z
1/2+x,1/2+y,z
1/2-x,1/2-y,z
1/2+x,1/2-y,-z
1/2-x,1/2+y,-z
1/2-x,1/2-y,-z
1/2+x,1/2+y,-z
1/2-x,1/2+y,z
1/2+x,1/2-y,z
loop_
_atom_site_type_symbol
_atom_site_label
_atom_site_fract_x
_atom_site_fract_y
_atom_site_fract_z
Si Si1 0.169693 0.888502 0.361260
Si Si2 0.822647 0.849608 0.815649
Si Si3 0.820288 0.351746 0.096455
Si Si4 0.326894 0.889260 0.451116
Si Si5 0.678770 0.149812 0.000000
Si Si6 0.335590 0.893136 0.726003
O O1 0.234617 0.859189 0.408584
O O2 0.266263 0.856610 0.319401
O O3 0.000000 0.859292 0.355888
O O4 0.170931 0.000000 0.361204
O O5 0.750000 0.750000 0.815408
O O6 0.751206 0.894678 0.859581
O O7 0.771242 0.886610 0.768302
O O8 0.000000 0.847859 0.819641
O O9 0.750000 0.250000 0.094398
O O10 0.000000 0.347706 0.101448
O O11 0.784207 0.392857 0.047899
O O12 0.271551 0.861117 0.500000
O O13 0.500000 0.862629 0.446730
O O14 0.324458 0.000000 0.450786
O O15 0.750000 0.250000 0.000000
O O16 0.500000 0.159858 0.000000
O O17 0.500000 0.853753 0.735851
O O18 0.353079 0.000000 0.718138
#
# Coordination Sequence:
#
# PCOD9489085 Si02
#       6
#    16  16  16  16   8  16
#     4   9  16  25  38  58  84 113 146 185 228 273
#     4  11  21  33  49  70  97 126 157 193 234 277
#     4   9  15  25  40  61  89 119 151 185 226 271
#     4   8  13  21  33  50  75 109 146 181 220 268
#     4   8  14  22  36  58  85 116 147 182 221 267
#     4  10  20  34  51  69  91 122 159 196 235 280
#
# _framework density 22.111416999999999
#
# number of rings (size 3 to 8) (size 9 to 14) (size 15 to 20)
#    0.000    2.727    0.000    4.909    0.000    4.364 
#    0.000    1.818    0.000    0.000    0.000    0.636 
#    0.000    5.818    0.000    2.727    0.000    6.364 
#
# Total GULP energy -245426.789151 kJ/mol
# GULP energy per Si atom -5577.881572 kJ/mol
# Density = 2.206109 g / cm^3
# Si number density = 22.111417 Si / 1000 Ang^3
#
#
#
# Elastic Constant Matrix: (Units=GPa)
#
#
# Indices 1 2 3 4 5 6 
#
# 1 143.8471 9.6976 92.6850 0.0000 0.0000 0.0000
# 2 9.6976 53.7393 8.9005 0.0000 0.0000 0.0000
# 3 92.6850 8.9005 220.2181 0.0000 0.0000 0.0000
# 4 0.0000 0.0000 0.0000 -2.5603 0.0000 0.0000
# 5 0.0000 0.0000 0.0000 0.0000 -17.0971 0.0000
# 6 0.0000 0.0000 0.0000 0.0000 0.0000 4.4501
#
#
#
# Elastic Compliance Matrix: (Units=1/GPa)
#
#
# Indices 1 2 3 4 5 6 
#
# 1 0.009599 -0.001070 -0.003997 0.000000 0.000000 0.000000
# 2 -0.001070 0.018853 -0.000312 0.000000 0.000000 0.000000
# 3 -0.003997 -0.000312 0.006236 0.000000 0.000000 0.000000
# 4 0.000000 0.000000 0.000000 -0.390572 0.000000 0.000000
# 5 0.000000 0.000000 0.000000 0.000000 -0.058489 0.000000
# 6 0.000000 0.000000 0.000000 0.000000 0.000000 0.224713
#
#
# Mechanical properties :
#
#
# Convention : Reuss Voigt Hill
#
# Bulk Modulus (GPa) = 41.78724 71.15231 56.46977
# Shear Modulus (GPa) = -29.25244 17.39329 -5.92958
#
# Velocity S-wave (km/s) = -3.64119 2.80772 -1.63936
# Velocity P-wave (km/s) = 1.12330 6.53910 4.69157
#
# Compressibility (1/GPa) = 0.02393075
#
# Stress axis : x y z
#
# Youngs Moduli (GPa) = 104.17440 53.04174 160.36582
#
# Poissons Ratio (x) = 0.05677 0.64096
# Poissons Ratio (y) = 0.11150 0.04996
# Poissons Ratio (z) = 0.41637 0.01652
#
# Static dielectric constant tensor:
#      x y z
#    x 1.766890 0.000000 0.000000 
#    y 0.000000 1.895520 0.000000 
#    z 0.000000 0.000000 1.860000 
# 
# From -- ./inp_files/76617.got.cif
#   From: 2010.05.17/outbox.cif.g08.bks.cpg/sg65_39_cif.got.tgz:76617.got - 2010.06.03 17:01:31.
