data_PCOD9489887
_publ_section_title
;
Structure prediction by ZEFSAII (Michael W. Deem and Ramdas Pophale) SiO2 
 PCOD9489887
Probable space group: C M M M
;
_chemical_formula_sum "Si O2"
_cell_formula_units_Z 72
_cell_length_a 19.726531
_cell_length_b 8.805116
_cell_length_c 23.711613
_cell_angle_alpha 90.000000
_cell_angle_beta 90.000000
_cell_angle_gamma 90.000000
_cell_volume 4118.574244
_symmetry_space_group_name_H-M "C M M M"
_symmetry_group_IT_number 65
_symmetry_cell_setting 'orthorhombic'
loop_
_space_group_symop_operation_xyz
x,y,z
-x,-y,z
x,-y,-z
-x,y,-z
-x,-y,-z
x,y,-z
-x,y,z
x,-y,z
1/2+x,1/2+y,z
1/2-x,1/2-y,z
1/2+x,1/2-y,-z
1/2-x,1/2+y,-z
1/2-x,1/2-y,-z
1/2+x,1/2+y,-z
1/2-x,1/2+y,z
1/2+x,1/2-y,z
loop_
_atom_site_type_symbol
_atom_site_label
_atom_site_fract_x
_atom_site_fract_y
_atom_site_fract_z
Si Si1 0.675145 0.683088 0.720922
Si Si2 0.417726 0.824178 0.500000
Si Si3 0.079979 0.181491 0.934867
Si Si4 0.324572 0.180939 0.840948
Si Si5 0.421555 0.682701 0.617829
O O1 0.678543 0.500000 0.724154
O O2 0.750000 0.750000 0.710622
O O3 0.652138 0.748718 0.781199
O O4 0.624861 0.727205 0.670464
O O5 0.500000 0.812786 0.500000
O O6 0.395710 0.746736 0.558195
O O7 0.398804 0.000000 0.500000
O O8 0.125424 0.270331 0.890650
O O9 0.000000 0.211649 0.926488
O O10 0.090156 0.000000 0.927736
O O11 0.096501 0.218954 0.000000
O O12 0.250000 0.250000 0.851785
O O13 0.319653 0.000000 0.836188
O O14 0.500000 0.731580 0.625891
O O15 0.421359 0.500000 0.614435
#
# Coordination Sequence:
#
# PCOD9489887 Si02
#       5
#    16   8  16  16  16
#     4  10  20  35  54  75 102 136 172 212 259 307
#     4   9  17  29  48  75 104 131 161 205 256 299
#     4   9  19  37  59  81 107 139 173 212 260 311
#     4  11  22  36  55  78 106 140 177 217 260 308
#     4   9  18  33  53  75  99 131 170 208 249 302
#
# _framework density 17.481777000000001
#
# number of rings (size 3 to 8) (size 9 to 14) (size 15 to 20)
#    0.000    2.333    0.000    5.000    0.000    5.333 
#    0.000    3.889    0.000    0.000    0.000    0.000 
#    0.000    0.000    0.000    0.000    0.000    0.000 
#
# Total GULP energy -200873.881149 kJ/mol
# GULP energy per Si atom -5579.830032 kJ/mol
# Density = 1.744199 g / cm^3
# Si number density = 17.481777 Si / 1000 Ang^3
#
#
#
# Elastic Constant Matrix: (Units=GPa)
#
#
# Indices 1 2 3 4 5 6 
#
# 1 56.3044 42.0038 85.5150 0.0000 0.0000 0.0000
# 2 42.0038 74.7946 72.3717 0.0000 0.0000 0.0000
# 3 85.5150 72.3717 171.3547 0.0000 0.0000 0.0000
# 4 0.0000 0.0000 0.0000 30.8992 0.0000 0.0000
# 5 0.0000 0.0000 0.0000 0.0000 79.8370 0.0000
# 6 0.0000 0.0000 0.0000 0.0000 0.0000 25.9483
#
#
#
# Elastic Compliance Matrix: (Units=1/GPa)
#
#
# Indices 1 2 3 4 5 6 
#
# 1 0.077854 -0.010362 -0.034477 0.000000 0.000000 0.000000
# 2 -0.010362 0.023989 -0.004961 0.000000 0.000000 0.000000
# 3 -0.034477 -0.004961 0.025137 0.000000 0.000000 0.000000
# 4 0.000000 0.000000 0.000000 0.032363 0.000000 0.000000
# 5 0.000000 0.000000 0.000000 0.000000 0.012526 0.000000
# 6 0.000000 0.000000 0.000000 0.000000 0.000000 0.038538
#
#
# Mechanical properties :
#
#
# Convention : Reuss Voigt Hill
#
# Bulk Modulus (GPa) = 36.52163 78.02607 57.27385
# Shear Modulus (GPa) = 15.66744 34.17444 24.92094
#
# Velocity S-wave (km/s) = 2.99693 4.42618 3.77973
# Velocity P-wave (km/s) = 5.73691 8.41731 7.20289
#
# Compressibility (1/GPa) = 0.02738104
#
# Stress axis : x y z
#
# Youngs Moduli (GPa) = 12.84451 41.68576 39.78225
#
# Poissons Ratio (x) = 0.43194 1.37157
# Poissons Ratio (y) = 0.13309 0.19735
# Poissons Ratio (z) = 0.44284 0.20679
#
# Static dielectric constant tensor:
#      x y z
#    x 1.577590 0.000000 0.000000 
#    y 0.000000 1.587270 0.000000 
#    z 0.000000 0.000000 1.582880 
# 
# From -- ./inp_files/59220.got.cif
#   From: 2010.05.17/outbox.cif.g08.bks.cpg/sg65_30_cif.got.tgz:59220.got - 2010.06.03 17:01:31.
