data_PCOD9489343
_publ_section_title
;
Structure prediction by ZEFSAII (Michael W. Deem and Ramdas Pophale) SiO2 
 PCOD9489343
Probable space group: C M M M
;
_chemical_formula_sum "Si O2"
_cell_formula_units_Z 88
_cell_length_a 23.333278
_cell_length_b 23.455050
_cell_length_c 7.665869
_cell_angle_alpha 90.000000
_cell_angle_beta 90.000000
_cell_angle_gamma 90.000000
_cell_volume 4195.401334
_symmetry_space_group_name_H-M "C M M M"
_symmetry_group_IT_number 65
_symmetry_cell_setting 'orthorhombic'
loop_
_space_group_symop_operation_xyz
x,y,z
-x,-y,z
x,-y,-z
-x,y,-z
-x,-y,-z
x,y,-z
-x,y,z
x,-y,z
1/2+x,1/2+y,z
1/2-x,1/2-y,z
1/2+x,1/2-y,-z
1/2-x,1/2+y,-z
1/2-x,1/2-y,-z
1/2+x,1/2+y,-z
1/2-x,1/2+y,z
1/2+x,1/2-y,z
loop_
_atom_site_type_symbol
_atom_site_label
_atom_site_fract_x
_atom_site_fract_y
_atom_site_fract_z
Si Si1 0.216402 0.937774 0.289449
Si Si2 0.373805 0.215388 0.792788
Si Si3 0.000000 0.857918 0.696727
Si Si4 0.655938 0.095634 0.207911
Si Si5 0.375082 0.652176 0.291972
Si Si6 0.000000 0.730543 0.793593
Si Si7 0.433139 0.000000 0.214055
O O1 0.215296 0.935991 0.500000
O O2 0.282292 0.931718 0.236406
O O3 0.176480 0.886536 0.223908
O O4 0.194727 0.000000 0.233657
O O5 0.341152 0.160458 0.720884
O O6 0.364905 0.280167 0.731831
O O7 0.440590 0.199957 0.759864
O O8 0.364250 0.218868 0.000000
O O9 0.937447 0.867805 0.779808
O O10 0.000000 0.789004 0.688598
O O11 0.000000 0.882141 0.500000
O O12 0.604356 0.055084 0.271659
O O13 0.646521 0.100545 0.000000
O O14 0.379122 0.643784 0.500000
O O15 0.000000 0.745835 0.000000
O O16 0.500000 0.000000 0.267881
O O17 0.433182 0.000000 0.000000
#
# Coordination Sequence:
#
# PCOD9489343 Si02
#       7
#    16  16   8  16  16   8   8
#     4  10  21  37  54  71  97 134 171 206 250 301
#     4   9  18  30  48  76 104 130 162 206 251 295
#     4   8  14  28  49  72  97 123 157 200 243 292
#     4  10  20  34  53  77 103 133 171 209 248 293
#     4   9  18  33  53  75 100 131 165 203 250 303
#     4   8  14  26  44  68 101 132 157 189 242 298
#     4   9  18  32  53  79 105 134 171 214 250 285
#
# _framework density 20.975348
#
# number of rings (size 3 to 8) (size 9 to 14) (size 15 to 20)
#    0.000    2.818    0.909    0.000    1.273    2.182 
#    0.000    4.091    0.000    3.818    0.000    0.000 
#    0.000    8.727    0.000    0.000    0.000    0.000 
#
# Total GULP energy -245029.649546 kJ/mol
# GULP energy per Si atom -5568.855671 kJ/mol
# Density = 2.092761 g / cm^3
# Si number density = 20.975348 Si / 1000 Ang^3
#
#
#
# Elastic Constant Matrix: (Units=GPa)
#
#
# Indices 1 2 3 4 5 6 
#
# 1 116.5359 73.2511 4.8599 0.0000 0.0000 0.0000
# 2 73.2511 127.3243 5.1383 0.0000 0.0000 0.0000
# 3 4.8599 5.1383 29.9983 0.0000 0.0000 0.0000
# 4 0.0000 0.0000 0.0000 11.6843 0.0000 0.0000
# 5 0.0000 0.0000 0.0000 0.0000 12.0603 0.0000
# 6 0.0000 0.0000 0.0000 0.0000 0.0000 -148.4475
#
#
#
# Elastic Compliance Matrix: (Units=1/GPa)
#
#
# Indices 1 2 3 4 5 6 
#
# 1 0.013464 -0.007711 -0.000860 0.000000 0.000000 0.000000
# 2 -0.007711 0.012325 -0.000862 0.000000 0.000000 0.000000
# 3 -0.000860 -0.000862 0.033622 0.000000 0.000000 0.000000
# 4 0.000000 0.000000 0.000000 0.085585 0.000000 0.000000
# 5 0.000000 0.000000 0.000000 0.000000 0.082917 0.000000
# 6 0.000000 0.000000 0.000000 0.000000 0.000000 -0.006736
#
#
# Mechanical properties :
#
#
# Convention : Reuss Voigt Hill
#
# Bulk Modulus (GPa) = 24.66437 48.92857 36.79647
# Shear Modulus (GPa) = 19.71932 -12.23330 3.74301
#
# Velocity S-wave (km/s) = 3.06946 -2.41762 1.33729
# Velocity P-wave (km/s) = 4.93421 3.94768 4.46825
#
# Compressibility (1/GPa) = 0.04054431
#
# Stress axis : x y z
#
# Youngs Moduli (GPa) = 74.27205 81.13505 29.74219
#
# Poissons Ratio (x) = 0.62565 0.02559
# Poissons Ratio (y) = 0.57273 0.02563
# Poissons Ratio (z) = 0.06390 0.06993
#
# Static dielectric constant tensor:
#      x y z
#    x 1.777330 0.000000 0.000000 
#    y 0.000000 1.753710 0.000000 
#    z 0.000000 0.000000 1.808930 
# 
# From -- ./inp_files/11903.got.cif
#   From: 2010.05.17/outbox.cif.g08.bks.cpg/sg65_6_cif.got.tgz:11903.got - 2010.06.03 17:01:31.
