data_PCOD9489635
_publ_section_title
;
Structure prediction by ZEFSAII (Michael W. Deem and Ramdas Pophale) SiO2 
 PCOD9489635
Probable space group: C M M M
;
_chemical_formula_sum "Si O2"
_cell_formula_units_Z 104
_cell_length_a 18.718769
_cell_length_b 13.707912
_cell_length_c 20.536844
_cell_angle_alpha 90.000000
_cell_angle_beta 90.000000
_cell_angle_gamma 90.000000
_cell_volume 5269.656378
_symmetry_space_group_name_H-M "C M M M"
_symmetry_group_IT_number 65
_symmetry_cell_setting 'orthorhombic'
loop_
_space_group_symop_operation_xyz
x,y,z
-x,-y,z
x,-y,-z
-x,y,-z
-x,-y,-z
x,y,-z
-x,y,z
x,-y,z
1/2+x,1/2+y,z
1/2-x,1/2-y,z
1/2+x,1/2-y,-z
1/2-x,1/2+y,-z
1/2-x,1/2-y,-z
1/2+x,1/2+y,-z
1/2-x,1/2+y,z
1/2+x,1/2-y,z
loop_
_atom_site_type_symbol
_atom_site_label
_atom_site_fract_x
_atom_site_fract_y
_atom_site_fract_z
Si Si1 0.159246 0.114068 0.823498
Si Si2 0.718789 0.885470 0.929044
Si Si3 0.081895 0.500000 0.578650
Si Si4 0.671041 0.720076 0.690210
Si Si5 0.586324 0.219086 0.424120
Si Si6 0.920639 0.711485 0.113242
Si Si7 0.919574 0.388773 0.247266
O O1 0.229424 0.134864 0.867983
O O2 0.171930 0.139751 0.747554
O O3 0.098581 0.185892 0.851866
O O4 0.142357 0.000000 0.831080
O O5 0.647739 0.820818 0.927560
O O6 0.699537 0.000000 0.924613
O O7 0.754947 0.871861 0.000000
O O8 0.079834 0.500000 0.500000
O O9 0.110811 0.392254 0.594788
O O10 0.000000 0.500000 0.601733
O O11 0.750000 0.750000 0.669863
O O12 0.622671 0.706740 0.626165
O O13 0.636077 0.812977 0.725641
O O14 0.604778 0.235461 0.500000
O O15 0.500000 0.221695 0.419820
O O16 0.921817 0.630308 0.170330
O O17 0.000000 0.715287 0.083749
O O18 0.902107 0.500000 0.262395
O O19 0.000000 0.366864 0.271434
#
# Coordination Sequence:
#
# PCOD9489635 Si02
#       7
#    16  16   8  16  16  16  16
#     4  10  22  41  59  77 111 159 208 247 279 330
#     4  10  21  38  62  88 114 149 189 229 283 355
#     4   7  12  26  50  80 112 146 178 210 262 333
#     4  11  22  33  51  83 117 152 190 239 293 342
#     4   9  18  34  56  82 115 154 191 227 277 348
#     4  10  20  34  54  83 116 146 183 236 297 346
#     4   9  18  33  54  79 109 146 185 229 285 349
#
# _framework density 19.735633
#
# number of rings (size 3 to 8) (size 9 to 14) (size 15 to 20)
#    0.000    2.385    0.000    4.154    1.077    5.538 
#    0.000    0.769    0.000    0.462    0.000    4.308 
#    0.000    0.000    0.000    0.000    0.000    0.000 
#
# Total GULP energy -289925.734360 kJ/mol
# GULP energy per Si atom -5575.494892 kJ/mol
# Density = 1.969071 g / cm^3
# Si number density = 19.735633 Si / 1000 Ang^3
#
#
#
# Elastic Constant Matrix: (Units=GPa)
#
#
# Indices 1 2 3 4 5 6 
#
# 1 66.1080 26.7989 26.0701 0.0000 0.0000 0.0000
# 2 26.7989 75.7850 19.7896 0.0000 0.0000 0.0000
# 3 26.0701 19.7896 118.6207 0.0000 0.0000 0.0000
# 4 0.0000 0.0000 0.0000 28.4701 0.0000 0.0000
# 5 0.0000 0.0000 0.0000 0.0000 30.3910 0.0000
# 6 0.0000 0.0000 0.0000 0.0000 0.0000 16.7796
#
#
#
# Elastic Compliance Matrix: (Units=1/GPa)
#
#
# Indices 1 2 3 4 5 6 
#
# 1 0.018718 -0.005797 -0.003147 0.000000 0.000000 0.000000
# 2 -0.005797 0.015592 -0.001327 0.000000 0.000000 0.000000
# 3 -0.003147 -0.001327 0.009343 0.000000 0.000000 0.000000
# 4 0.000000 0.000000 0.000000 0.035125 0.000000 0.000000
# 5 0.000000 0.000000 0.000000 0.000000 0.032905 0.000000
# 6 0.000000 0.000000 0.000000 0.000000 0.000000 0.059596
#
#
# Mechanical properties :
#
#
# Convention : Reuss Voigt Hill
#
# Bulk Modulus (GPa) = 43.26969 45.09232 44.18100
# Shear Modulus (GPa) = 25.05974 27.65182 26.35578
#
# Velocity S-wave (km/s) = 3.56725 3.74720 3.65833
# Velocity P-wave (km/s) = 6.24013 6.45134 6.34662
#
# Compressibility (1/GPa) = 0.02311087
#
# Stress axis : x y z
#
# Youngs Moduli (GPa) = 53.42528 64.13641 107.03004
#
# Poissons Ratio (x) = 0.37181 0.33678
# Poissons Ratio (y) = 0.30972 0.14204
# Poissons Ratio (z) = 0.16811 0.08511
#
# Static dielectric constant tensor:
#      x y z
#    x 1.709770 0.000000 0.000000 
#    y 0.000000 1.693730 0.000000 
#    z 0.000000 0.000000 1.762320 
# 
# From -- ./inp_files/63793.got.cif
#   From: 2010.05.17/outbox.cif.g08.bks.cpg/sg65_32_cif.got.tgz:63793.got - 2010.06.03 17:01:31.
