data_PCOD9489681
_publ_section_title
;
Structure prediction by ZEFSAII (Michael W. Deem and Ramdas Pophale) SiO2 
 PCOD9489681
Probable space group: C M M M
;
_chemical_formula_sum "Si O2"
_cell_formula_units_Z 88
_cell_length_a 18.241101
_cell_length_b 27.643000
_cell_length_c 9.318050
_cell_angle_alpha 90.000000
_cell_angle_beta 90.000000
_cell_angle_gamma 90.000000
_cell_volume 4698.521930
_symmetry_space_group_name_H-M "C M M M"
_symmetry_group_IT_number 65
_symmetry_cell_setting 'orthorhombic'
loop_
_space_group_symop_operation_xyz
x,y,z
-x,-y,z
x,-y,-z
-x,y,-z
-x,-y,-z
x,y,-z
-x,y,z
x,-y,z
1/2+x,1/2+y,z
1/2-x,1/2-y,z
1/2+x,1/2-y,-z
1/2-x,1/2+y,-z
1/2-x,1/2-y,-z
1/2+x,1/2+y,-z
1/2-x,1/2+y,z
1/2+x,1/2-y,z
loop_
_atom_site_type_symbol
_atom_site_label
_atom_site_fract_x
_atom_site_fract_y
_atom_site_fract_z
Si Si1 0.327777 0.927049 0.840220
Si Si2 0.346463 0.445078 0.168625
Si Si3 0.649647 0.652519 0.669447
Si Si4 0.701975 0.183097 0.167066
Si Si5 0.581568 0.000000 0.669327
Si Si6 0.417283 0.753556 0.669836
O O1 0.242207 0.940828 0.823237
O O2 0.334934 0.869712 0.830994
O O3 0.374932 0.953779 0.723888
O O4 0.349800 0.942657 0.000000
O O5 0.367382 0.500000 0.213490
O O6 0.372510 0.398583 0.258786
O O7 0.365857 0.439499 0.000000
O O8 0.664088 0.645199 0.500000
O O9 0.722670 0.673804 0.746641
O O10 0.591521 0.695694 0.685489
O O11 0.646729 0.220410 0.241014
O O12 0.716956 0.195249 0.000000
O O13 0.500000 0.000000 0.729590
O O14 0.578710 0.000000 0.500000
O O15 0.407157 0.764377 0.500000
O O16 0.500000 0.768182 0.711615
#
# Coordination Sequence:
#
# PCOD9489681 Si02
#       6
#    16  16  16  16   8  16
#     4   9  18  34  51  69  96 130 167 208 256 307
#     4   9  17  32  54  79 107 134 166 214 269 315
#     4  10  20  34  55  83 110 140 180 221 268 323
#     4  10  21  36  56  81 107 137 178 225 270 318
#     4  11  23  33  43  65  97 133 172 213 254 299
#     4  10  22  39  56  76 108 146 180 221 272 323
#
# _framework density 18.729295
#
# number of rings (size 3 to 8) (size 9 to 14) (size 15 to 20)
#    0.000    2.273    0.909    3.000    0.000    9.455 
#    0.000    3.636    0.000    0.545    0.000    3.818 
#    0.000    0.000    0.000    0.000    0.000    0.000 
#
# Total GULP energy -245363.339126 kJ/mol
# GULP energy per Si atom -5576.439526 kJ/mol
# Density = 1.868667 g / cm^3
# Si number density = 18.729295 Si / 1000 Ang^3
#
#
#
# Elastic Constant Matrix: (Units=GPa)
#
#
# Indices 1 2 3 4 5 6 
#
# 1 14.5779 8.4990 12.9604 0.0000 0.0000 0.0000
# 2 8.4990 118.9549 34.4597 0.0000 0.0000 0.0000
# 3 12.9604 34.4597 66.8729 0.0000 0.0000 0.0000
# 4 0.0000 0.0000 0.0000 38.5190 0.0000 0.0000
# 5 0.0000 0.0000 0.0000 0.0000 161.4272 0.0000
# 6 0.0000 0.0000 0.0000 0.0000 0.0000 -1.9296
#
#
#
# Elastic Compliance Matrix: (Units=1/GPa)
#
#
# Indices 1 2 3 4 5 6 
#
# 1 0.083102 -0.001495 -0.015335 0.000000 0.000000 0.000000
# 2 -0.001495 0.009909 -0.004816 0.000000 0.000000 0.000000
# 3 -0.015335 -0.004816 0.020408 0.000000 0.000000 0.000000
# 4 0.000000 0.000000 0.000000 0.025961 0.000000 0.000000
# 5 0.000000 0.000000 0.000000 0.000000 0.006195 0.000000
# 6 0.000000 0.000000 0.000000 0.000000 0.000000 -0.518241
#
#
# Mechanical properties :
#
#
# Convention : Reuss Voigt Hill
#
# Bulk Modulus (GPa) = 14.26017 34.69377 24.47697
# Shear Modulus (GPa) = -16.33998 49.23576 16.44789
#
# Velocity S-wave (km/s) = -2.95690 5.13275 2.96664
# Velocity P-wave (km/s) = 2.00681 7.32741 4.98315
#
# Compressibility (1/GPa) = 0.07012541
#
# Stress axis : x y z
#
# Youngs Moduli (GPa) = 12.03336 100.92317 49.00135
#
# Poissons Ratio (x) = 0.15087 0.75146
# Poissons Ratio (y) = 0.01799 0.23600
# Poissons Ratio (z) = 0.18454 0.48606
#
# Static dielectric constant tensor:
#      x y z
#    x 1.616910 0.000000 0.000000 
#    y 0.000000 1.665030 0.000000 
#    z 0.000000 0.000000 1.639810 
# 
# From -- ./inp_files/10162.got.cif
#   From: 2010.05.17/outbox.cif.g08.bks.cpg/sg65_6_cif.got.tgz:10162.got - 2010.06.03 17:01:31.
