data_PCOD9489412
_publ_section_title
;
Structure prediction by ZEFSAII (Michael W. Deem and Ramdas Pophale) SiO2 
 PCOD9489412
Probable space group: C M M M
;
_chemical_formula_sum "Si O2"
_cell_formula_units_Z 112
_cell_length_a 14.372911
_cell_length_b 30.374020
_cell_length_c 14.444646
_cell_angle_alpha 90.000000
_cell_angle_beta 90.000000
_cell_angle_gamma 90.000000
_cell_volume 6305.999236
_symmetry_space_group_name_H-M "C M M M"
_symmetry_group_IT_number 65
_symmetry_cell_setting 'orthorhombic'
loop_
_space_group_symop_operation_xyz
x,y,z
-x,-y,z
x,-y,-z
-x,y,-z
-x,-y,-z
x,y,-z
-x,y,z
x,-y,z
1/2+x,1/2+y,z
1/2-x,1/2-y,z
1/2+x,1/2-y,-z
1/2-x,1/2+y,-z
1/2-x,1/2-y,-z
1/2+x,1/2+y,-z
1/2-x,1/2+y,z
1/2+x,1/2-y,z
loop_
_atom_site_type_symbol
_atom_site_label
_atom_site_fract_x
_atom_site_fract_y
_atom_site_fract_z
Si Si1 0.108131 0.550251 0.718022
Si Si2 0.268801 0.644852 0.890912
Si Si3 0.303682 0.870449 0.608741
Si Si4 0.888779 0.318407 0.227053
Si Si5 0.739744 0.951166 0.107840
Si Si6 0.104051 0.834799 0.606029
Si Si7 0.607847 0.282749 0.787974
O O1 0.114507 0.500000 0.683576
O O2 0.159238 0.584091 0.650668
O O3 0.156383 0.550730 0.818551
O O4 0.000000 0.562529 0.725119
O O5 0.167399 0.651634 0.845299
O O6 0.297336 0.593758 0.875032
O O7 0.333758 0.680962 0.842757
O O8 0.266147 0.652813 0.000000
O O9 0.324897 0.866030 0.500000
O O10 0.351294 0.832935 0.672205
O O11 0.192113 0.866370 0.620900
O O12 0.863525 0.267928 0.203613
O O13 0.000000 0.323175 0.222987
O O14 0.784052 0.000000 0.119484
O O15 0.709489 0.948539 0.000000
O O16 0.109770 0.819143 0.500000
O O17 0.113206 0.796089 0.680168
O O18 0.000000 0.854269 0.618956
O O19 0.500000 0.285840 0.816873
#
# Coordination Sequence:
#
# PCOD9489412 Si02
#       7
#    16  16  16  16  16  16  16
#     4  10  20  34  53  78 111 150 192 237 283 339
#     4  11  22  37  58  81 110 149 188 230 283 338
#     4  11  22  36  56  80 111 150 188 234 290 342
#     4  11  23  37  53  79 113 149 192 234 275 328
#     4   9  18  33  55  82 109 142 187 235 282 332
#     4   9  18  34  57  82 105 136 182 231 280 332
#     4  10  21  37  57  80 111 146 185 235 282 331
#
# _framework density 17.760866
#
# number of rings (size 3 to 8) (size 9 to 14) (size 15 to 20)
#    0.000    1.857    2.857    0.857    0.000    4.000 
#    0.000    7.857    0.000    0.857    0.000    8.000 
#    0.000    0.000    0.000    0.000    0.000    0.429 
#
# Total GULP energy -312046.974143 kJ/mol
# GULP energy per Si atom -5572.267395 kJ/mol
# Density = 1.772044 g / cm^3
# Si number density = 17.760866 Si / 1000 Ang^3
#
#
#
# Elastic Constant Matrix: (Units=GPa)
#
#
# Indices 1 2 3 4 5 6 
#
# 1 53.1270 44.1652 19.7233 0.0000 0.0000 0.0000
# 2 44.1652 141.4725 45.5286 0.0000 0.0000 0.0000
# 3 19.7233 45.5286 74.5384 0.0000 0.0000 0.0000
# 4 0.0000 0.0000 0.0000 14.6336 0.0000 0.0000
# 5 0.0000 0.0000 0.0000 0.0000 8.2214 0.0000
# 6 0.0000 0.0000 0.0000 0.0000 0.0000 20.5839
#
#
#
# Elastic Compliance Matrix: (Units=1/GPa)
#
#
# Indices 1 2 3 4 5 6 
#
# 1 0.025752 -0.007277 -0.002369 0.000000 0.000000 0.000000
# 2 -0.007277 0.010854 -0.004704 0.000000 0.000000 0.000000
# 3 -0.002369 -0.004704 0.016916 0.000000 0.000000 0.000000
# 4 0.000000 0.000000 0.000000 0.068336 0.000000 0.000000
# 5 0.000000 0.000000 0.000000 0.000000 0.121634 0.000000
# 6 0.000000 0.000000 0.000000 0.000000 0.000000 0.048582
#
#
# Mechanical properties :
#
#
# Convention : Reuss Voigt Hill
#
# Bulk Modulus (GPa) = 40.28801 54.21910 47.25356
# Shear Modulus (GPa) = 15.19532 19.33582 17.26557
#
# Velocity S-wave (km/s) = 2.92815 3.30309 3.12126
# Velocity P-wave (km/s) = 5.84508 6.71869 6.29705
#
# Compressibility (1/GPa) = 0.02482128
#
# Stress axis : x y z
#
# Youngs Moduli (GPa) = 38.83242 92.13105 59.11463
#
# Poissons Ratio (x) = 0.67041 0.14007
# Poissons Ratio (y) = 0.28257 0.27809
# Poissons Ratio (z) = 0.09201 0.43341
#
# Static dielectric constant tensor:
#      x y z
#    x 1.611390 0.000000 0.000000 
#    y 0.000000 1.633420 0.000000 
#    z 0.000000 0.000000 1.597510 
# 
# From -- ./inp_files/41165.got.cif
#   From: 2010.05.17/outbox.cif.g08.bks.cpg/sg65_21_cif.got.tgz:41165.got - 2010.06.03 17:01:31.
