data_PCOD9489770
_publ_section_title
;
Structure prediction by ZEFSAII (Michael W. Deem and Ramdas Pophale) SiO2 
 PCOD9489770
Probable space group: C M M M
;
_chemical_formula_sum "Si O2"
_cell_formula_units_Z 116
_cell_length_a 31.837358
_cell_length_b 7.624607
_cell_length_c 23.726443
_cell_angle_alpha 90.000000
_cell_angle_beta 90.000000
_cell_angle_gamma 90.000000
_cell_volume 5759.530989
_symmetry_space_group_name_H-M "C M M M"
_symmetry_group_IT_number 65
_symmetry_cell_setting 'orthorhombic'
loop_
_space_group_symop_operation_xyz
x,y,z
-x,-y,z
x,-y,-z
-x,y,-z
-x,-y,-z
x,y,-z
-x,y,z
x,-y,z
1/2+x,1/2+y,z
1/2-x,1/2-y,z
1/2+x,1/2-y,-z
1/2-x,1/2+y,-z
1/2-x,1/2-y,-z
1/2+x,1/2+y,-z
1/2-x,1/2+y,z
1/2+x,1/2-y,z
loop_
_atom_site_type_symbol
_atom_site_label
_atom_site_fract_x
_atom_site_fract_y
_atom_site_fract_z
Si Si1 0.500000 0.500000 0.101035
Si Si2 0.565513 0.799081 0.933269
Si Si3 0.297864 0.289153 0.644584
Si Si4 0.046771 0.206931 0.766208
Si Si5 0.547141 0.790275 0.363633
Si Si6 0.123645 0.786934 0.842748
Si Si7 0.702448 0.710332 0.227161
Si Si8 0.628365 0.290360 0.436337
O O1 0.536136 0.345341 0.095610
O O2 0.610866 0.777771 0.904325
O O3 0.551413 0.000000 0.925210
O O4 0.565251 0.763111 0.000000
O O5 0.301904 0.500000 0.646672
O O6 0.250000 0.250000 0.627036
O O7 0.303705 0.222470 0.708694
O O8 0.333558 0.221526 0.602415
O O9 0.055562 0.223516 0.699699
O O10 0.085481 0.275634 0.802125
O O11 0.000000 0.282322 0.776606
O O12 0.043462 0.000000 0.779729
O O13 0.500000 0.729501 0.379824
O O14 0.583958 0.739152 0.405800
O O15 0.546290 0.000000 0.360621
O O16 0.167059 0.725221 0.815537
O O17 0.124222 0.000000 0.842800
O O18 0.698191 0.500000 0.230154
O O19 0.750000 0.750000 0.210102
O O20 0.628719 0.220174 0.500000
O O21 0.634046 0.500000 0.439824
#
# Coordination Sequence:
#
# PCOD9489770 Si02
#       8
#     4  16  16  16  16  16  16  16
#     4  12  23  42  64  82 122 172 210 250 289 342
#     4  11  24  39  59  88 120 162 210 250 293 344
#     4   9  18  34  55  80 109 139 172 215 269 333
#     4   9  18  32  53  79 107 141 179 220 274 337
#     4  10  21  36  52  72 102 137 174 222 276 325
#     4  10  20  34  57  84 114 153 191 236 291 342
#     4   9  18  33  54  81 110 143 183 228 283 344
#     4  10  21  36  54  75 100 134 178 223 266 324
#
# _framework density 20.140528
#
# number of rings (size 3 to 8) (size 9 to 14) (size 15 to 20)
#    0.000    2.207    0.690    2.069    0.966    6.069 
#    0.000    4.138    0.000    0.414    0.000    0.000 
#    0.000    0.000    0.000    0.000    0.000    0.000 
#
# Total GULP energy -323369.278217 kJ/mol
# GULP energy per Si atom -5575.332383 kJ/mol
# Density = 2.009469 g / cm^3
# Si number density = 20.140528 Si / 1000 Ang^3
#
#
#
# Elastic Constant Matrix: (Units=GPa)
#
#
# Indices 1 2 3 4 5 6 
#
# 1 127.7075 14.9273 69.1844 0.0000 0.0000 0.0000
# 2 14.9273 62.3634 14.2053 0.0000 0.0000 0.0000
# 3 69.1844 14.2053 75.2612 0.0000 0.0000 0.0000
# 4 0.0000 0.0000 0.0000 -48.7923 0.0000 0.0000
# 5 0.0000 0.0000 0.0000 0.0000 7.5875 0.0000
# 6 0.0000 0.0000 0.0000 0.0000 0.0000 24.3005
#
#
#
# Elastic Compliance Matrix: (Units=1/GPa)
#
#
# Indices 1 2 3 4 5 6 
#
# 1 0.015613 -0.000489 -0.014260 0.000000 0.000000 0.000000
# 2 -0.000489 0.016771 -0.002716 0.000000 0.000000 0.000000
# 3 -0.014260 -0.002716 0.026908 0.000000 0.000000 0.000000
# 4 0.000000 0.000000 0.000000 -0.020495 0.000000 0.000000
# 5 0.000000 0.000000 0.000000 0.000000 0.131795 0.000000
# 6 0.000000 0.000000 0.000000 0.000000 0.000000 0.041151
#
#
# Mechanical properties :
#
#
# Convention : Reuss Voigt Hill
#
# Bulk Modulus (GPa) = 41.04728 51.32956 46.18842
# Shear Modulus (GPa) = 19.62380 7.75350 13.68865
#
# Velocity S-wave (km/s) = 3.12483 1.96419 2.60985
# Velocity P-wave (km/s) = 5.78309 5.53941 5.66256
#
# Compressibility (1/GPa) = 0.02436215
#
# Stress axis : x y z
#
# Youngs Moduli (GPa) = 64.05076 59.62771 37.16364
#
# Poissons Ratio (x) = 0.02915 0.52994
# Poissons Ratio (y) = 0.03132 0.10094
# Poissons Ratio (z) = 0.91335 0.16195
#
# Static dielectric constant tensor:
#      x y z
#    x 1.651360 0.000000 0.000000 
#    y 0.000000 1.764560 0.000000 
#    z 0.000000 0.000000 1.735020 
# 
# From -- ./inp_files/72232.got.cif
#   From: 2010.05.17/outbox.cif.g08.bks.cpg/sg65_37_cif.got.tgz:72232.got - 2010.06.03 17:01:31.
