data_PCOD9489522
_publ_section_title
;
Structure prediction by ZEFSAII (Michael W. Deem and Ramdas Pophale) SiO2 
 PCOD9489522
Probable space group: C M M M
;
_chemical_formula_sum "Si O2"
_cell_formula_units_Z 104
_cell_length_a 27.880913
_cell_length_b 8.962006
_cell_length_c 21.773918
_cell_angle_alpha 90.000000
_cell_angle_beta 90.000000
_cell_angle_gamma 90.000000
_cell_volume 5440.625148
_symmetry_space_group_name_H-M "C M M M"
_symmetry_group_IT_number 65
_symmetry_cell_setting 'orthorhombic'
loop_
_space_group_symop_operation_xyz
x,y,z
-x,-y,z
x,-y,-z
-x,y,-z
-x,-y,-z
x,y,-z
-x,y,z
x,-y,z
1/2+x,1/2+y,z
1/2-x,1/2-y,z
1/2+x,1/2-y,-z
1/2-x,1/2+y,-z
1/2-x,1/2-y,-z
1/2+x,1/2+y,-z
1/2-x,1/2+y,z
1/2+x,1/2-y,z
loop_
_atom_site_type_symbol
_atom_site_label
_atom_site_fract_x
_atom_site_fract_y
_atom_site_fract_z
Si Si1 0.445628 0.820551 0.878814
Si Si2 0.699160 0.324168 0.426381
Si Si3 0.895233 0.321352 0.752472
Si Si4 0.603399 0.822182 0.616197
Si Si5 0.148805 0.820539 0.068017
Si Si6 0.943085 0.832103 0.500000
Si Si7 0.801018 0.178901 0.806241
O O1 0.500000 0.772346 0.892563
O O2 0.431399 0.786281 0.808035
O O3 0.403679 0.746857 0.918603
O O4 0.443430 0.000000 0.886238
O O5 0.691077 0.306428 0.500000
O O6 0.699505 0.500000 0.412754
O O7 0.750000 0.250000 0.411982
O O8 0.656973 0.240467 0.391513
O O9 0.886596 0.500000 0.754261
O O10 0.914039 0.284128 0.684730
O O11 0.845097 0.239163 0.765692
O O12 0.573893 0.750191 0.561147
O O13 0.603308 0.000000 0.609244
O O14 0.183729 0.776797 0.123879
O O15 0.145100 0.000000 0.069887
O O16 0.165252 0.775382 0.000000
O O17 0.000000 0.839094 0.500000
O O18 0.922543 0.000000 0.500000
O O19 0.750000 0.250000 0.790244
O O20 0.798391 0.000000 0.802277
#
# Coordination Sequence:
#
# PCOD9489522 Si02
#       7
#    16  16  16  16  16   8  16
#     4   9  18  34  55  78 106 139 177 223 272 321
#     4  10  20  34  54  79 109 142 174 212 261 318
#     4   9  20  37  56  80 108 141 180 224 271 320
#     4  11  22  37  60  85 110 141 181 227 276 328
#     4   9  19  35  53  77 110 145 182 223 267 318
#     4  11  25  43  60  81 112 147 181 221 273 331
#     4  10  20  35  56  80 109 147 186 225 268 316
#
# _framework density 19.115451
#
# number of rings (size 3 to 8) (size 9 to 14) (size 15 to 20)
#    0.000    2.231    0.769    1.615    0.000    5.538 
#    0.000    3.077    0.000    0.000    0.000    0.000 
#    0.000    0.000    0.000    0.000    0.000    0.000 
#
# Total GULP energy -290311.847992 kJ/mol
# GULP energy per Si atom -5582.920154 kJ/mol
# Density = 1.907194 g / cm^3
# Si number density = 19.115451 Si / 1000 Ang^3
#
#
#
# Elastic Constant Matrix: (Units=GPa)
#
#
# Indices 1 2 3 4 5 6 
#
# 1 35.3490 -1.5101 -13.9120 0.0000 0.0000 0.0000
# 2 -1.5101 35.5755 21.8809 0.0000 0.0000 0.0000
# 3 -13.9120 21.8809 79.3951 0.0000 0.0000 0.0000
# 4 0.0000 0.0000 0.0000 21.4394 0.0000 0.0000
# 5 0.0000 0.0000 0.0000 0.0000 7.8979 0.0000
# 6 0.0000 0.0000 0.0000 0.0000 0.0000 27.3522
#
#
#
# Elastic Compliance Matrix: (Units=1/GPa)
#
#
# Indices 1 2 3 4 5 6 
#
# 1 0.030554 -0.002403 0.006016 0.000000 0.000000 0.000000
# 2 -0.002403 0.034035 -0.009801 0.000000 0.000000 0.000000
# 3 0.006016 -0.009801 0.016351 0.000000 0.000000 0.000000
# 4 0.000000 0.000000 0.000000 0.046643 0.000000 0.000000
# 5 0.000000 0.000000 0.000000 0.000000 0.126616 0.000000
# 6 0.000000 0.000000 0.000000 0.000000 0.000000 0.036560
#
#
# Mechanical properties :
#
#
# Convention : Reuss Voigt Hill
#
# Bulk Modulus (GPa) = 14.58491 18.13746 16.36119
# Shear Modulus (GPa) = 15.33787 20.92862 18.13324
#
# Velocity S-wave (km/s) = 2.83571 3.31245 3.08330
# Velocity P-wave (km/s) = 4.28580 4.91312 4.61014
#
# Compressibility (1/GPa) = 0.06856402
#
# Stress axis : x y z
#
# Youngs Moduli (GPa) = 32.72850 29.38113 61.16000
#
# Poissons Ratio (x) = 0.07061 -0.36795
# Poissons Ratio (y) = 0.07866 0.59944
# Poissons Ratio (z) = -0.19690 0.28797
#
# Static dielectric constant tensor:
#      x y z
#    x 1.630580 0.000000 0.000000 
#    y 0.000000 1.638400 0.000000 
#    z 0.000000 0.000000 1.699520 
# 
# From -- ./inp_files/65847.got.cif
#   From: 2010.05.17/outbox.cif.g08.bks.cpg/sg65_33_cif.got.tgz:65847.got - 2010.06.03 17:01:31.
