data_PCOD9489019
_publ_section_title
;
Structure prediction by ZEFSAII (Michael W. Deem and Ramdas Pophale) SiO2 
 PCOD9489019
Probable space group: C M M M
;
_chemical_formula_sum "Si O2"
_cell_formula_units_Z 96
_cell_length_a 24.343167
_cell_length_b 8.987596
_cell_length_c 23.242565
_cell_angle_alpha 90.000000
_cell_angle_beta 90.000000
_cell_angle_gamma 90.000000
_cell_volume 5085.160618
_symmetry_space_group_name_H-M "C M M M"
_symmetry_group_IT_number 65
_symmetry_cell_setting 'orthorhombic'
loop_
_space_group_symop_operation_xyz
x,y,z
-x,-y,z
x,-y,-z
-x,y,-z
-x,-y,-z
x,y,-z
-x,y,z
x,-y,z
1/2+x,1/2+y,z
1/2-x,1/2-y,z
1/2+x,1/2-y,-z
1/2-x,1/2+y,-z
1/2-x,1/2-y,-z
1/2+x,1/2+y,-z
1/2-x,1/2+y,z
1/2+x,1/2-y,z
loop_
_atom_site_type_symbol
_atom_site_label
_atom_site_fract_x
_atom_site_fract_y
_atom_site_fract_z
Si Si1 0.500000 0.236538 0.754437
Si Si2 0.396837 0.676239 0.432558
Si Si3 0.000000 0.833921 0.119200
Si Si4 0.500000 0.178183 0.627429
Si Si5 0.190186 0.176879 0.335334
Si Si6 0.309400 0.321086 0.000000
Si Si7 0.373582 0.168077 0.768529
Si Si8 0.879504 0.819278 0.111382
O O1 0.500000 0.341319 0.810832
O O2 0.500000 0.273586 0.686790
O O3 0.439958 0.162683 0.761479
O O4 0.388320 0.704166 0.500000
O O5 0.410842 0.500000 0.425693
O O6 0.446356 0.775162 0.408100
O O7 0.342992 0.705036 0.394367
O O8 0.057763 0.764527 0.101771
O O9 0.000000 0.000000 0.094752
O O10 0.500000 0.000000 0.640495
O O11 0.250000 0.250000 0.335521
O O12 0.153306 0.243979 0.284077
O O13 0.195171 0.000000 0.327616
O O14 0.250000 0.250000 0.000000
O O15 0.342342 0.278601 0.057470
O O16 0.305165 0.500000 0.000000
O O17 0.360850 0.249865 0.828425
O O18 0.352565 0.000000 0.769186
O O19 0.880924 0.000000 0.116822
#
# Coordination Sequence:
#
# PCOD9489019 Si02
#       8
#     8  16   8   8  16   8  16  16
#     4  10  20  33  55  87 123 154 185 228 284 341
#     4  10  23  42  61  84 116 153 192 236 289 349
#     4   8  16  31  55  85 115 145 185 230 283 341
#     4  12  22  35  58  90 123 154 189 234 285 343
#     4  11  24  41  61  84 111 148 194 243 292 346
#     4  10  22  39  59  81 113 152 195 238 280 332
#     4  11  21  37  60  88 121 155 189 235 288 342
#     4   9  19  36  57  85 116 150 190 236 284 338
#
# _framework density 18.87846
#
# number of rings (size 3 to 8) (size 9 to 14) (size 15 to 20)
#    0.000    1.833    1.667    2.250    0.000    5.333 
#    0.000    3.333    0.000    0.000    0.000    4.083 
#    0.000    0.000    0.000    0.000    0.000    0.000 
#
# Total GULP energy -267676.669295 kJ/mol
# GULP energy per Si atom -5576.597277 kJ/mol
# Density = 1.883549 g / cm^3
# Si number density = 18.878460 Si / 1000 Ang^3
#
#
#
# Elastic Constant Matrix: (Units=GPa)
#
#
# Indices 1 2 3 4 5 6 
#
# 1 132.9753 54.0287 79.2001 0.0000 0.0000 0.0000
# 2 54.0287 56.3011 41.6035 0.0000 0.0000 0.0000
# 3 79.2001 41.6035 155.1457 0.0000 0.0000 0.0000
# 4 0.0000 0.0000 0.0000 11.9578 0.0000 0.0000
# 5 0.0000 0.0000 0.0000 0.0000 -1.1795 0.0000
# 6 0.0000 0.0000 0.0000 0.0000 0.0000 18.5271
#
#
#
# Elastic Compliance Matrix: (Units=1/GPa)
#
#
# Indices 1 2 3 4 5 6 
#
# 1 0.014550 -0.010568 -0.004594 0.000000 0.000000 0.000000
# 2 -0.010568 0.029827 -0.002603 0.000000 0.000000 0.000000
# 3 -0.004594 -0.002603 0.009489 0.000000 0.000000 0.000000
# 4 0.000000 0.000000 0.000000 0.083628 0.000000 0.000000
# 5 0.000000 0.000000 0.000000 0.000000 -0.847847 0.000000
# 6 0.000000 0.000000 0.000000 0.000000 0.000000 0.053975
#
#
# Mechanical properties :
#
#
# Convention : Reuss Voigt Hill
#
# Bulk Modulus (GPa) = 54.53993 77.12075 65.83034
# Shear Modulus (GPa) = -8.13357 17.16708 4.51675
#
# Velocity S-wave (km/s) = -2.07792 3.01881 1.54846
# Velocity P-wave (km/s) = 4.81620 7.28635 6.17603
#
# Compressibility (1/GPa) = 0.01833519
#
# Stress axis : x y z
#
# Youngs Moduli (GPa) = 68.72742 33.52637 105.38856
#
# Poissons Ratio (x) = 0.35432 0.48412
# Poissons Ratio (y) = 0.72634 0.27436
# Poissons Ratio (z) = 0.31571 0.08728
#
# Static dielectric constant tensor:
#      x y z
#    x 1.642940 0.000000 0.000000 
#    y 0.000000 1.655700 0.000000 
#    z 0.000000 0.000000 1.630770 
# 
# From -- ./inp_files/71491.got.cif
#   From: 2010.05.17/outbox.cif.g08.bks.cpg/sg65_36_cif.got.tgz:71491.got - 2010.06.03 17:01:31.
