data_PCOD9489211
_publ_section_title
;
Structure prediction by ZEFSAII (Michael W. Deem and Ramdas Pophale) SiO2 
 PCOD9489211
Probable space group: C M M M
;
_chemical_formula_sum "Si O2"
_cell_formula_units_Z 80
_cell_length_a 14.717066
_cell_length_b 15.133506
_cell_length_c 15.917248
_cell_angle_alpha 90.000000
_cell_angle_beta 90.000000
_cell_angle_gamma 90.000000
_cell_volume 3545.102314
_symmetry_space_group_name_H-M "C M M M"
_symmetry_group_IT_number 65
_symmetry_cell_setting 'orthorhombic'
loop_
_space_group_symop_operation_xyz
x,y,z
-x,-y,z
x,-y,-z
-x,y,-z
-x,-y,-z
x,y,-z
-x,y,z
x,-y,z
1/2+x,1/2+y,z
1/2-x,1/2-y,z
1/2+x,1/2-y,-z
1/2-x,1/2+y,-z
1/2-x,1/2-y,-z
1/2+x,1/2+y,-z
1/2-x,1/2+y,z
1/2+x,1/2-y,z
loop_
_atom_site_type_symbol
_atom_site_label
_atom_site_fract_x
_atom_site_fract_y
_atom_site_fract_z
Si Si1 0.845216 0.601099 0.237868
Si Si2 0.602827 0.403109 0.379240
Si Si3 0.359890 0.767658 0.094761
Si Si4 0.366807 0.595178 0.814260
Si Si5 0.110689 0.293799 0.593226
O O1 0.878091 0.500000 0.244263
O O2 0.887692 0.659904 0.163638
O O3 0.740547 0.598217 0.207903
O O4 0.854147 0.651008 0.327032
O O5 0.500000 0.404849 0.412236
O O6 0.645501 0.500000 0.398905
O O7 0.594634 0.398309 0.278943
O O8 0.644111 0.308676 0.404196
O O9 0.250000 0.750000 0.095199
O O10 0.395586 0.674160 0.126977
O O11 0.385406 0.790816 0.000000
O O12 0.387765 0.500000 0.851565
O O13 0.131970 0.329801 0.500000
O O14 0.000000 0.291498 0.601106
#
# Coordination Sequence:
#
# PCOD9489211 Si02
#       5
#    16  16  16  16  16
#     4  10  20  34  52  74 105 139 175 220 261 300
#     4   9  17  31  53  78 104 134 167 207 257 312
#     4   9  17  30  51  78 107 137 171 211 257 308
#     4   9  17  31  53  78 106 136 169 209 259 313
#     4  10  21  36  55  78 102 135 178 217 261 316
#
# _framework density 22.566345999999999
#
# number of rings (size 3 to 8) (size 9 to 14) (size 15 to 20)
#    0.000    2.600    2.000    0.000    0.000    2.000 
#    0.000    9.000    0.000    6.000    0.000    4.200 
#    0.000    0.000    0.000    0.000    0.000    0.000 
#
# Total GULP energy -223155.376999 kJ/mol
# GULP energy per Si atom -5578.884425 kJ/mol
# Density = 2.251498 g / cm^3
# Si number density = 22.566346 Si / 1000 Ang^3
#
#
#
# Elastic Constant Matrix: (Units=GPa)
#
#
# Indices 1 2 3 4 5 6 
#
# 1 50.6314 10.3213 1.0337 0.0000 0.0000 0.0000
# 2 10.3213 206.6563 113.0149 0.0000 0.0000 0.0000
# 3 1.0337 113.0149 180.0956 0.0000 0.0000 0.0000
# 4 0.0000 0.0000 0.0000 -2.5116 0.0000 0.0000
# 5 0.0000 0.0000 0.0000 0.0000 -23.0764 0.0000
# 6 0.0000 0.0000 0.0000 0.0000 0.0000 -4.4765
#
#
#
# Elastic Compliance Matrix: (Units=1/GPa)
#
#
# Indices 1 2 3 4 5 6 
#
# 1 0.020026 -0.001427 0.000781 0.000000 0.000000 0.000000
# 2 -0.001427 0.007469 -0.004679 0.000000 0.000000 0.000000
# 3 0.000781 -0.004679 0.008484 0.000000 0.000000 0.000000
# 4 0.000000 0.000000 0.000000 -0.398149 0.000000 0.000000
# 5 0.000000 0.000000 0.000000 0.000000 -0.043334 0.000000
# 6 0.000000 0.000000 0.000000 0.000000 0.000000 -0.223388
#
#
# Mechanical properties :
#
#
# Convention : Reuss Voigt Hill
#
# Bulk Modulus (GPa) = 39.48166 76.23587 57.85877
# Shear Modulus (GPa) = -8.19941 14.85465 3.32762
#
# Velocity S-wave (km/s) = -1.90823 2.56845 1.21565
# Velocity P-wave (km/s) = 3.56071 6.53087 5.25980
#
# Compressibility (1/GPa) = 0.02532822
#
# Stress axis : x y z
#
# Youngs Moduli (GPa) = 49.93614 133.88825 117.86649
#
# Poissons Ratio (x) = 0.19106 -0.09200
# Poissons Ratio (y) = 0.07126 0.55147
# Poissons Ratio (z) = -0.03898 0.62643
#
# Static dielectric constant tensor:
#      x y z
#    x 1.952080 0.000000 0.000000 
#    y 0.000000 1.850370 0.000000 
#    z 0.000000 0.000000 1.784600 
# 
# From -- ./inp_files/40493.got.cif
#   From: 2010.05.17/outbox.cif.g08.bks.cpg/sg65_21_cif.got.tgz:40493.got - 2010.06.03 17:01:31.
