data_PCOD9489163
_publ_section_title
;
Structure prediction by ZEFSAII (Michael W. Deem and Ramdas Pophale) SiO2 
 PCOD9489163
Probable space group: C M M M
;
_chemical_formula_sum "Si O2"
_cell_formula_units_Z 80
_cell_length_a 9.109170
_cell_length_b 17.347298
_cell_length_c 27.078405
_cell_angle_alpha 90.000000
_cell_angle_beta 90.000000
_cell_angle_gamma 90.000000
_cell_volume 4278.915654
_symmetry_space_group_name_H-M "C M M M"
_symmetry_group_IT_number 65
_symmetry_cell_setting 'orthorhombic'
loop_
_space_group_symop_operation_xyz
x,y,z
-x,-y,z
x,-y,-z
-x,y,-z
-x,-y,-z
x,y,-z
-x,y,z
x,-y,z
1/2+x,1/2+y,z
1/2-x,1/2-y,z
1/2+x,1/2-y,-z
1/2-x,1/2+y,-z
1/2-x,1/2-y,-z
1/2+x,1/2+y,-z
1/2-x,1/2+y,z
1/2+x,1/2-y,z
loop_
_atom_site_type_symbol
_atom_site_label
_atom_site_fract_x
_atom_site_fract_y
_atom_site_fract_z
Si Si1 0.667644 0.592980 0.759522
Si Si2 0.825781 0.667296 0.148383
Si Si3 0.171388 0.594246 0.339481
Si Si4 0.670651 0.407154 0.943768
Si Si5 0.178138 0.408667 0.446911
O O1 0.500000 0.619749 0.765847
O O2 0.666540 0.500000 0.758663
O O3 0.765766 0.619612 0.805054
O O4 0.734491 0.619784 0.707309
O O5 0.750000 0.750000 0.150969
O O6 0.773179 0.628117 0.097640
O O7 0.000000 0.673330 0.150080
O O8 0.175378 0.500000 0.340737
O O9 0.226650 0.621782 0.393426
O O10 0.000000 0.615313 0.333177
O O11 0.500000 0.385773 0.934230
O O12 0.678373 0.500000 0.941629
O O13 0.707155 0.383714 0.000000
O O14 0.228394 0.375827 0.500000
O O15 0.214067 0.500000 0.447670
O O16 0.000000 0.404224 0.446088
#
# Coordination Sequence:
#
# PCOD9489163 Si02
#       5
#    16  16  16  16  16
#     4  10  20  34  52  73 100 134 171 212 258 307
#     4  12  25  39  56  78 106 138 173 214 258 304
#     4   8  13  22  38  61  88 120 162 207 248 295
#     4   9  19  38  63  88 114 143 173 206 246 293
#     4   7   9  14  27  50  81 116 153 195 243 292
#
# _framework density 18.696325000000002
#
# number of rings (size 3 to 8) (size 9 to 14) (size 15 to 20)
#    0.000    2.800    0.000    5.400    0.000    4.800 
#    0.000    1.000    0.000    0.600    0.000    4.200 
#    0.000    0.800    0.000    2.200    0.000    5.600 
#
# Total GULP energy -222909.383506 kJ/mol
# GULP energy per Si atom -5572.734588 kJ/mol
# Density = 1.865377 g / cm^3
# Si number density = 18.696325 Si / 1000 Ang^3
#
#
#
# Elastic Constant Matrix: (Units=GPa)
#
#
# Indices 1 2 3 4 5 6 
#
# 1 116.0226 19.7313 91.6016 0.0000 0.0000 0.0000
# 2 19.7313 9.6055 23.7933 0.0000 0.0000 0.0000
# 3 91.6016 23.7933 176.0612 0.0000 0.0000 0.0000
# 4 0.0000 0.0000 0.0000 -14.0281 0.0000 0.0000
# 5 0.0000 0.0000 0.0000 0.0000 8.9477 0.0000
# 6 0.0000 0.0000 0.0000 0.0000 0.0000 10.5886
#
#
#
# Elastic Compliance Matrix: (Units=1/GPa)
#
#
# Indices 1 2 3 4 5 6 
#
# 1 0.016693 -0.019206 -0.006090 0.000000 0.000000 0.000000
# 2 -0.019206 0.178593 -0.014143 0.000000 0.000000 0.000000
# 3 -0.006090 -0.014143 0.010759 0.000000 0.000000 0.000000
# 4 0.000000 0.000000 0.000000 -0.071286 0.000000 0.000000
# 5 0.000000 0.000000 0.000000 0.000000 0.111761 0.000000
# 6 0.000000 0.000000 0.000000 0.000000 0.000000 0.094441
#
#
# Mechanical properties :
#
#
# Convention : Reuss Voigt Hill
#
# Bulk Modulus (GPa) = 7.86361 63.54907 35.70634
# Shear Modulus (GPa) = 10.81718 12.20586 11.51152
#
# Velocity S-wave (km/s) = 2.40796 2.55786 2.48404
# Velocity P-wave (km/s) = 3.45632 6.54121 5.23133
#
# Compressibility (1/GPa) = 0.12716798
#
# Stress axis : x y z
#
# Youngs Moduli (GPa) = 59.90486 5.59933 92.94203
#
# Poissons Ratio (x) = 0.10754 0.56597
# Poissons Ratio (y) = 1.15056 1.31444
# Poissons Ratio (z) = 0.36479 0.07919
#
# Static dielectric constant tensor:
#      x y z
#    x 1.625870 0.000000 0.000000 
#    y 0.000000 1.653120 0.000000 
#    z 0.000000 0.000000 1.687220 
# 
# From -- ./inp_files/72852.got.cif
#   From: 2010.05.17/outbox.cif.g08.bks.cpg/sg65_37_cif.got.tgz:72852.got - 2010.06.03 17:01:31.
