data_PCOD9489068
_publ_section_title
;
Structure prediction by ZEFSAII (Michael W. Deem and Ramdas Pophale) SiO2 
 PCOD9489068
Probable space group: C M M M
;
_chemical_formula_sum "Si O2"
_cell_formula_units_Z 100
_cell_length_a 19.670493
_cell_length_b 17.532396
_cell_length_c 15.614764
_cell_angle_alpha 90.000000
_cell_angle_beta 90.000000
_cell_angle_gamma 90.000000
_cell_volume 5385.077289
_symmetry_space_group_name_H-M "C M M M"
_symmetry_group_IT_number 65
_symmetry_cell_setting 'orthorhombic'
loop_
_space_group_symop_operation_xyz
x,y,z
-x,-y,z
x,-y,-z
-x,y,-z
-x,-y,-z
x,y,-z
-x,y,z
x,-y,z
1/2+x,1/2+y,z
1/2-x,1/2-y,z
1/2+x,1/2-y,-z
1/2-x,1/2+y,-z
1/2-x,1/2-y,-z
1/2+x,1/2+y,-z
1/2-x,1/2+y,z
1/2+x,1/2-y,z
loop_
_atom_site_type_symbol
_atom_site_label
_atom_site_fract_x
_atom_site_fract_y
_atom_site_fract_z
Si Si1 0.189398 0.300418 0.184288
Si Si2 0.500000 0.000000 0.326290
Si Si3 0.578094 0.087907 0.896799
Si Si4 0.738978 0.087400 0.668403
Si Si5 0.097584 0.378679 0.403014
Si Si6 0.925880 0.769080 0.297153
Si Si7 0.110134 0.911904 0.400635
O O1 0.250000 0.250000 0.142194
O O2 0.138342 0.356428 0.132849
O O3 0.226964 0.353495 0.254621
O O4 0.136198 0.245329 0.233090
O O5 0.558509 0.933504 0.337809
O O6 0.500000 0.107163 0.868953
O O7 0.589242 0.000000 0.867451
O O8 0.577502 0.087662 0.000000
O O9 0.676620 0.102765 0.605079
O O10 0.809656 0.096756 0.619349
O O11 0.735847 0.000000 0.699702
O O12 0.074876 0.393657 0.500000
O O13 0.084136 0.292837 0.372915
O O14 0.924023 0.852039 0.338233
O O15 0.000000 0.755685 0.257296
O O16 0.096245 0.895015 0.500000
O O17 0.091579 0.000000 0.384793
#
# Coordination Sequence:
#
# PCOD9489068 Si02
#       7
#    16   4  16  16  16  16  16
#     4  11  21  36  55  84 114 149 183 219 271 328
#     4  12  21  32  44  72 102 134 171 216 281 356
#     4   9  19  38  64  93 123 153 183 216 262 328
#     4  10  20  34  50  71 101 139 180 228 274 326
#     4  11  21  31  47  69 100 135 174 223 281 348
#     4  11  23  37  51  74 105 140 182 235 291 337
#     4  10  21  37  55  72  93 133 194 251 298 335
#
# _framework density 18.569835999999999
#
# number of rings (size 3 to 8) (size 9 to 14) (size 15 to 20)
#    0.000    1.600    3.200    3.120    0.000    2.240 
#    0.000    3.200    0.000    0.000    0.000    0.000 
#    0.000    0.000    0.000   10.560    0.000    0.000 
#
# Total GULP energy -278546.618432 kJ/mol
# GULP energy per Si atom -5570.932369 kJ/mol
# Density = 1.852757 g / cm^3
# Si number density = 18.569836 Si / 1000 Ang^3
#
#
#
# Elastic Constant Matrix: (Units=GPa)
#
#
# Indices 1 2 3 4 5 6 
#
# 1 121.5672 51.0576 18.1133 0.0000 0.0000 0.0000
# 2 51.0576 83.0895 25.5523 0.0000 0.0000 0.0000
# 3 18.1133 25.5523 37.4655 0.0000 0.0000 0.0000
# 4 0.0000 0.0000 0.0000 18.8902 0.0000 0.0000
# 5 0.0000 0.0000 0.0000 0.0000 -1.1197 0.0000
# 6 0.0000 0.0000 0.0000 0.0000 0.0000 28.9470
#
#
#
# Elastic Compliance Matrix: (Units=1/GPa)
#
#
# Indices 1 2 3 4 5 6 
#
# 1 0.011112 -0.006550 -0.000905 0.000000 0.000000 0.000000
# 2 -0.006550 0.019090 -0.009853 0.000000 0.000000 0.000000
# 3 -0.000905 -0.009853 0.033849 0.000000 0.000000 0.000000
# 4 0.000000 0.000000 0.000000 0.052938 0.000000 0.000000
# 5 0.000000 0.000000 0.000000 0.000000 -0.893079 0.000000
# 6 0.000000 0.000000 0.000000 0.000000 0.000000 0.034546
#
#
# Mechanical properties :
#
#
# Convention : Reuss Voigt Hill
#
# Bulk Modulus (GPa) = 33.97366 47.95207 40.96286
# Shear Modulus (GPa) = -7.17239 19.17009 5.99885
#
# Velocity S-wave (km/s) = -1.96743 3.21647 1.79929
# Velocity P-wave (km/s) = 3.62957 6.29864 5.14036
#
# Compressibility (1/GPa) = 0.02943457
#
# Stress axis : x y z
#
# Youngs Moduli (GPa) = 89.99635 52.38331 29.54298
#
# Poissons Ratio (x) = 0.34309 0.02674
# Poissons Ratio (y) = 0.58944 0.29110
# Poissons Ratio (z) = 0.08145 0.51615
#
# Static dielectric constant tensor:
#      x y z
#    x 1.673120 0.000000 0.000000 
#    y 0.000000 1.655440 0.000000 
#    z 0.000000 0.000000 1.647840 
# 
# From -- ./inp_files/55889.got.cif
#   From: 2010.05.17/outbox.cif.g08.bks.cpg/sg65_28_cif.got.tgz:55889.got - 2010.06.03 17:01:31.
