data_PCOD9489691
_publ_section_title
;
Structure prediction by ZEFSAII (Michael W. Deem and Ramdas Pophale) SiO2 
 PCOD9489691
Probable space group: C M M M
;
_chemical_formula_sum "Si O2"
_cell_formula_units_Z 104
_cell_length_a 31.904997
_cell_length_b 19.550833
_cell_length_c 8.829534
_cell_angle_alpha 90.000000
_cell_angle_beta 90.000000
_cell_angle_gamma 90.000000
_cell_volume 5507.591962
_symmetry_space_group_name_H-M "C M M M"
_symmetry_group_IT_number 65
_symmetry_cell_setting 'orthorhombic'
loop_
_space_group_symop_operation_xyz
x,y,z
-x,-y,z
x,-y,-z
-x,y,-z
-x,-y,-z
x,y,-z
-x,y,z
x,-y,z
1/2+x,1/2+y,z
1/2-x,1/2-y,z
1/2+x,1/2-y,-z
1/2-x,1/2+y,-z
1/2-x,1/2-y,-z
1/2+x,1/2+y,-z
1/2-x,1/2+y,z
1/2+x,1/2-y,z
loop_
_atom_site_type_symbol
_atom_site_label
_atom_site_fract_x
_atom_site_fract_y
_atom_site_fract_z
Si Si1 0.706530 0.712587 0.818789
Si Si2 0.588788 0.080366 0.819571
Si Si3 0.500000 0.917025 0.328256
Si Si4 0.628527 0.794462 0.681762
Si Si5 0.954224 0.788581 0.317679
Si Si6 0.825896 0.078248 0.680904
Si Si7 0.081015 0.922129 0.181090
O O1 0.750000 0.750000 0.781358
O O2 0.668064 0.755838 0.751130
O O3 0.703206 0.636594 0.750421
O O4 0.702469 0.708951 0.000000
O O5 0.542952 0.100585 0.755648
O O6 0.622746 0.128797 0.741706
O O7 0.595086 0.000000 0.785397
O O8 0.589436 0.088937 0.000000
O O9 0.500000 0.889503 0.500000
O O10 0.500000 0.000000 0.336114
O O11 0.630938 0.793221 0.500000
O O12 0.585962 0.755188 0.730802
O O13 0.953145 0.791253 0.500000
O O14 0.947865 0.864364 0.252660
O O15 0.000000 0.761359 0.271657
O O16 0.828895 0.086941 0.500000
O O17 0.872258 0.086984 0.751517
O O18 0.812538 0.000000 0.712575
O O19 0.067702 0.000000 0.215777
O O20 0.082639 0.914405 0.000000
#
# Coordination Sequence:
#
# PCOD9489691 Si02
#       7
#    16  16   8  16  16  16  16
#     4  11  24  42  65  93 123 156 195 242 300 360
#     4  10  21  37  57  83 117 156 199 247 299 356
#     4   9  17  31  53  81 113 151 198 247 292 347
#     4  11  23  39  62  88 117 155 197 246 298 354
#     4  10  22  38  55  81 118 158 200 244 294 349
#     4  10  20  36  61  91 121 155 197 244 294 349
#     4  10  20  34  55  83 116 156 201 247 293 344
#
# _framework density 18.883023999999999
#
# number of rings (size 3 to 8) (size 9 to 14) (size 15 to 20)
#    0.000    1.769    1.538    2.538    1.077    6.154 
#    0.000    2.308    0.000    0.923    0.000    0.000 
#    0.000    0.000    0.000    0.000    0.000    0.000 
#
# Total GULP energy -290551.185062 kJ/mol
# GULP energy per Si atom -5587.522790 kJ/mol
# Density = 1.884005 g / cm^3
# Si number density = 18.883024 Si / 1000 Ang^3
#
#
#
# Elastic Constant Matrix: (Units=GPa)
#
#
# Indices 1 2 3 4 5 6 
#
# 1 111.6326 66.6492 44.2904 0.0000 0.0000 0.0000
# 2 66.6492 107.1948 38.5734 0.0000 0.0000 0.0000
# 3 44.2904 38.5734 39.4857 0.0000 0.0000 0.0000
# 4 0.0000 0.0000 0.0000 31.9860 0.0000 0.0000
# 5 0.0000 0.0000 0.0000 0.0000 27.1454 0.0000
# 6 0.0000 0.0000 0.0000 0.0000 0.0000 28.0639
#
#
#
# Elastic Compliance Matrix: (Units=1/GPa)
#
#
# Indices 1 2 3 4 5 6 
#
# 1 0.018488 -0.006219 -0.014663 0.000000 0.000000 0.000000
# 2 -0.006219 0.016478 -0.009121 0.000000 0.000000 0.000000
# 3 -0.014663 -0.009121 0.050683 0.000000 0.000000 0.000000
# 4 0.000000 0.000000 0.000000 0.031264 0.000000 0.000000
# 5 0.000000 0.000000 0.000000 0.000000 0.036839 0.000000
# 6 0.000000 0.000000 0.000000 0.000000 0.000000 0.035633
#
#
# Mechanical properties :
#
#
# Convention : Reuss Voigt Hill
#
# Bulk Modulus (GPa) = 38.99675 61.92656 50.46166
# Shear Modulus (GPa) = 19.38442 24.69239 22.03841
#
# Velocity S-wave (km/s) = 3.20746 3.62007 3.41999
# Velocity P-wave (km/s) = 5.86632 7.09501 6.50972
#
# Compressibility (1/GPa) = 0.02564316
#
# Stress axis : x y z
#
# Youngs Moduli (GPa) = 54.08776 60.68785 19.73035
#
# Poissons Ratio (x) = 0.37742 0.28930
# Poissons Ratio (y) = 0.33637 0.17997
# Poissons Ratio (z) = 0.79308 0.55355
#
# Static dielectric constant tensor:
#      x y z
#    x 1.630880 0.000000 0.000000 
#    y 0.000000 1.679100 0.000000 
#    z 0.000000 0.000000 1.628670 
# 
# From -- ./inp_files/16424.got.cif
#   From: 2010.05.17/outbox.cif.g08.bks.cpg/sg65_9_cif.got.tgz:16424.got - 2010.06.03 17:01:31.
