data_PCOD9489904
_publ_section_title
;
Structure prediction by ZEFSAII (Michael W. Deem and Ramdas Pophale) SiO2 
 PCOD9489904
Probable space group: C M M M
;
_chemical_formula_sum "Si O2"
_cell_formula_units_Z 72
_cell_length_a 35.430975
_cell_length_b 13.314698
_cell_length_c 9.188640
_cell_angle_alpha 90.000000
_cell_angle_beta 90.000000
_cell_angle_gamma 90.000000
_cell_volume 4334.766023
_symmetry_space_group_name_H-M "C M M M"
_symmetry_group_IT_number 65
_symmetry_cell_setting 'orthorhombic'
loop_
_space_group_symop_operation_xyz
x,y,z
-x,-y,z
x,-y,-z
-x,y,-z
-x,-y,-z
x,y,-z
-x,y,z
x,-y,z
1/2+x,1/2+y,z
1/2-x,1/2-y,z
1/2+x,1/2-y,-z
1/2-x,1/2+y,-z
1/2-x,1/2-y,-z
1/2+x,1/2+y,-z
1/2-x,1/2+y,z
1/2+x,1/2-y,z
loop_
_atom_site_type_symbol
_atom_site_label
_atom_site_fract_x
_atom_site_fract_y
_atom_site_fract_z
Si Si1 0.753198 0.500000 0.326554
Si Si2 0.285938 0.678902 0.836688
Si Si3 0.577481 0.382735 0.674563
Si Si4 0.143436 0.276113 0.675818
Si Si5 0.158772 0.500000 0.675901
Si Si6 0.500000 0.621353 0.834589
O O1 0.754158 0.500000 0.500000
O O2 0.729703 0.592526 0.266012
O O3 0.797094 0.500000 0.275110
O O4 0.250000 0.750000 0.851077
O O5 0.320041 0.735649 0.759209
O O6 0.296608 0.644348 0.000000
O O7 0.572530 0.381902 0.500000
O O8 0.586827 0.500000 0.714436
O O9 0.609512 0.300899 0.710466
O O10 0.538323 0.352616 0.750574
O O11 0.149100 0.272124 0.500000
O O12 0.139383 0.394134 0.717399
O O13 0.159624 0.500000 0.500000
O O14 0.500000 0.500000 0.839705
O O15 0.500000 0.659265 0.000000
#
# Coordination Sequence:
#
# PCOD9489904 Si02
#       6
#     8  16  16  16   8   8
#     4  11  21  35  55  73  96 135 182 226 267 314
#     4  11  23  36  50  73 105 138 175 222 273 317
#     4   9  18  32  52  79 107 132 164 209 258 308
#     4  10  20  35  54  77 103 137 180 220 262 310
#     4   9  18  33  53  74  98 133 181 227 257 301
#     4   9  17  31  53  78 105 136 164 195 248 317
#
# _framework density 16.609893
#
# number of rings (size 3 to 8) (size 9 to 14) (size 15 to 20)
#    0.000    2.111    2.222    1.333    1.556    3.111 
#    0.000    0.556    0.000    0.667    0.000    4.667 
#    0.000    0.000    0.000    0.000    0.000    0.000 
#
# Total GULP energy -200530.200866 kJ/mol
# GULP energy per Si atom -5570.283357 kJ/mol
# Density = 1.657209 g / cm^3
# Si number density = 16.609893 Si / 1000 Ang^3
#
#
#
# Elastic Constant Matrix: (Units=GPa)
#
#
# Indices 1 2 3 4 5 6 
#
# 1 127.6979 72.4054 45.6631 0.0000 0.0000 0.0000
# 2 72.4054 126.9202 40.5041 0.0000 0.0000 0.0000
# 3 45.6631 40.5041 48.5411 0.0000 0.0000 0.0000
# 4 0.0000 0.0000 0.0000 8.0966 0.0000 0.0000
# 5 0.0000 0.0000 0.0000 0.0000 34.1481 0.0000
# 6 0.0000 0.0000 0.0000 0.0000 0.0000 25.2442
#
#
#
# Elastic Compliance Matrix: (Units=1/GPa)
#
#
# Indices 1 2 3 4 5 6 
#
# 1 0.013868 -0.005109 -0.008783 0.000000 0.000000 0.000000
# 2 -0.005109 0.012620 -0.005725 0.000000 0.000000 0.000000
# 3 -0.008783 -0.005725 0.033641 0.000000 0.000000 0.000000
# 4 0.000000 0.000000 0.000000 0.123509 0.000000 0.000000
# 5 0.000000 0.000000 0.000000 0.000000 0.029284 0.000000
# 6 0.000000 0.000000 0.000000 0.000000 0.000000 0.039613
#
#
# Mechanical properties :
#
#
# Convention : Reuss Voigt Hill
#
# Bulk Modulus (GPa) = 47.85710 68.92269 58.38989
# Shear Modulus (GPa) = 16.73724 23.13688 19.93706
#
# Velocity S-wave (km/s) = 3.17782 3.73628 3.46831
# Velocity P-wave (km/s) = 6.50689 7.75875 7.16023
#
# Compressibility (1/GPa) = 0.02089554
#
# Stress axis : x y z
#
# Youngs Moduli (GPa) = 72.10628 79.23699 29.72567
#
# Poissons Ratio (x) = 0.40479 0.26109
# Poissons Ratio (y) = 0.36836 0.17018
# Poissons Ratio (z) = 0.63334 0.45364
#
# Static dielectric constant tensor:
#      x y z
#    x 1.531050 0.000000 0.000000 
#    y 0.000000 1.578280 0.000000 
#    z 0.000000 0.000000 1.560550 
# 
# From -- ./inp_files/18039.got.cif
#   From: 2010.05.17/outbox.cif.g08.bks.cpg/sg65_10_cif.got.tgz:18039.got - 2010.06.03 17:01:31.
