data_PCOD9489901
_publ_section_title
;
Structure prediction by ZEFSAII (Michael W. Deem and Ramdas Pophale) SiO2 
 PCOD9489901
Probable space group: C M M M
;
_chemical_formula_sum "Si O2"
_cell_formula_units_Z 104
_cell_length_a 28.818766
_cell_length_b 21.937231
_cell_length_c 7.608272
_cell_angle_alpha 90.000000
_cell_angle_beta 90.000000
_cell_angle_gamma 90.000000
_cell_volume 4809.979435
_symmetry_space_group_name_H-M "C M M M"
_symmetry_group_IT_number 65
_symmetry_cell_setting 'orthorhombic'
loop_
_space_group_symop_operation_xyz
x,y,z
-x,-y,z
x,-y,-z
-x,y,-z
-x,-y,-z
x,y,-z
-x,y,z
x,-y,z
1/2+x,1/2+y,z
1/2-x,1/2-y,z
1/2+x,1/2-y,-z
1/2-x,1/2+y,-z
1/2-x,1/2-y,-z
1/2+x,1/2+y,-z
1/2-x,1/2+y,z
1/2+x,1/2-y,z
loop_
_atom_site_type_symbol
_atom_site_label
_atom_site_fract_x
_atom_site_fract_y
_atom_site_fract_z
Si Si1 0.809732 0.430925 0.212395
Si Si2 0.127906 0.839419 0.697162
Si Si3 0.599791 0.872427 0.203471
Si Si4 0.202165 0.930695 0.290369
Si Si5 0.054121 0.500000 0.710942
Si Si6 0.052241 0.748447 0.704307
Si Si7 0.948907 0.928258 0.789532
O O1 0.820948 0.500000 0.273724
O O2 0.848157 0.383019 0.275887
O O3 0.756655 0.419345 0.261956
O O4 0.812616 0.431444 0.000000
O O5 0.141400 0.818562 0.500000
O O6 0.171873 0.874174 0.781177
O O7 0.095664 0.786843 0.781936
O O8 0.091118 0.894248 0.690874
O O9 0.567836 0.821743 0.290938
O O10 0.577035 0.938861 0.216856
O O11 0.602964 0.854349 0.000000
O O12 0.193398 0.932383 0.500000
O O13 0.191679 0.000000 0.222744
O O14 0.059058 0.500000 0.500000
O O15 0.000000 0.500000 0.755074
O O16 0.049719 0.767635 0.500000
O O17 0.000000 0.755892 0.779262
O O18 0.000000 0.905391 0.739530
O O19 0.947250 0.000000 0.756623
O O20 0.943620 0.919519 0.000000
#
# Coordination Sequence:
#
# PCOD9489901 Si02
#       7
#    16  16  16  16   8  16  16
#     4   9  18  35  56  80 110 141 175 220 274 331
#     4  10  20  35  54  76 106 144 186 232 276 323
#     4  11  22  38  59  84 112 144 184 229 274 325
#     4   9  18  32  53  83 112 139 180 231 278 328
#     4  11  23  37  57  87 119 147 177 219 274 335
#     4  10  22  39  56  77 109 149 190 229 275 332
#     4   9  18  31  47  71 103 136 175 226 280 334
#
# _framework density 21.621714999999998
#
# number of rings (size 3 to 8) (size 9 to 14) (size 15 to 20)
#    0.000    2.231    0.769    2.538    0.000    7.077 
#    0.000    3.077    0.000    4.615    0.000    0.000 
#    0.000    0.000    0.000    0.000    0.000    0.000 
#
# Total GULP energy -290080.635115 kJ/mol
# GULP energy per Si atom -5578.473752 kJ/mol
# Density = 2.157250 g / cm^3
# Si number density = 21.621715 Si / 1000 Ang^3
#
#
#
# Elastic Constant Matrix: (Units=GPa)
#
#
# Indices 1 2 3 4 5 6 
#
# 1 112.5164 51.7552 1.5097 0.0000 0.0000 0.0000
# 2 51.7552 94.3376 1.3748 0.0000 0.0000 0.0000
# 3 1.5097 1.3748 43.8506 0.0000 0.0000 0.0000
# 4 0.0000 0.0000 0.0000 88.7195 0.0000 0.0000
# 5 0.0000 0.0000 0.0000 0.0000 19.6628 0.0000
# 6 0.0000 0.0000 0.0000 0.0000 0.0000 51.1314
#
#
#
# Elastic Compliance Matrix: (Units=1/GPa)
#
#
# Indices 1 2 3 4 5 6 
#
# 1 0.011889 -0.006520 -0.000205 0.000000 0.000000 0.000000
# 2 -0.006520 0.014180 -0.000220 0.000000 0.000000 0.000000
# 3 -0.000205 -0.000220 0.022819 0.000000 0.000000 0.000000
# 4 0.000000 0.000000 0.000000 0.011271 0.000000 0.000000
# 5 0.000000 0.000000 0.000000 0.000000 0.050857 0.000000
# 6 0.000000 0.000000 0.000000 0.000000 0.000000 0.019557
#
#
# Mechanical properties :
#
#
# Convention : Reuss Voigt Hill
#
# Bulk Modulus (GPa) = 28.57248 39.99823 34.28535
# Shear Modulus (GPa) = 32.02458 44.97375 38.49916
#
# Velocity S-wave (km/s) = 3.85272 4.56568 4.22427
# Velocity P-wave (km/s) = 5.74758 6.80685 6.29952
#
# Compressibility (1/GPa) = 0.03499872
#
# Stress axis : x y z
#
# Youngs Moduli (GPa) = 84.10964 70.52081 43.82380
#
# Poissons Ratio (x) = 0.45977 0.00898
# Poissons Ratio (y) = 0.54836 0.00965
# Poissons Ratio (z) = 0.01724 0.01552
#
# Static dielectric constant tensor:
#      x y z
#    x 1.810250 0.000000 0.000000 
#    y 0.000000 1.792430 0.000000 
#    z 0.000000 0.000000 1.816730 
# 
# From -- ./inp_files/12766.got.cif
#   From: 2010.05.17/outbox.cif.g08.bks.cpg/sg65_7_cif.got.tgz:12766.got - 2010.06.03 17:01:31.
