data_PCOD9489331
_publ_section_title
;
Structure prediction by ZEFSAII (Michael W. Deem and Ramdas Pophale) SiO2 
 PCOD9489331
Probable space group: C M M M
;
_chemical_formula_sum "Si O2"
_cell_formula_units_Z 104
_cell_length_a 19.321825
_cell_length_b 8.292159
_cell_length_c 35.217024
_cell_angle_alpha 90.000000
_cell_angle_beta 90.000000
_cell_angle_gamma 90.000000
_cell_volume 5642.459086
_symmetry_space_group_name_H-M "C M M M"
_symmetry_group_IT_number 65
_symmetry_cell_setting 'orthorhombic'
loop_
_space_group_symop_operation_xyz
x,y,z
-x,-y,z
x,-y,-z
-x,y,-z
-x,-y,-z
x,y,-z
-x,y,z
x,-y,z
1/2+x,1/2+y,z
1/2-x,1/2-y,z
1/2+x,1/2-y,-z
1/2-x,1/2+y,-z
1/2-x,1/2-y,-z
1/2+x,1/2+y,-z
1/2-x,1/2+y,z
1/2+x,1/2-y,z
loop_
_atom_site_type_symbol
_atom_site_label
_atom_site_fract_x
_atom_site_fract_y
_atom_site_fract_z
Si Si1 0.915982 0.686727 0.804213
Si Si2 0.328871 0.805112 0.957756
Si Si3 0.080079 0.697500 0.887060
Si Si4 0.584132 0.186342 0.500000
Si Si5 0.171510 0.691456 0.346470
Si Si6 0.079348 0.190588 0.277504
Si Si7 0.419661 0.197919 0.417019
O O1 0.895024 0.500000 0.800530
O O2 0.893091 0.750352 0.845462
O O3 0.896669 0.775521 0.765596
O O4 0.000000 0.690495 0.806207
O O5 0.250000 0.750000 0.953038
O O6 0.375251 0.747499 0.922778
O O7 0.330690 0.000000 0.957338
O O8 0.352300 0.752537 0.000000
O O9 0.080916 0.500000 0.886093
O O10 0.000000 0.745737 0.891500
O O11 0.500000 0.183793 0.500000
O O12 0.603386 0.256338 0.541040
O O13 0.607734 0.000000 0.500000
O O14 0.172676 0.500000 0.349793
O O15 0.250000 0.750000 0.345226
O O16 0.129430 0.735496 0.308671
O O17 0.129207 0.754536 0.383105
O O18 0.000000 0.253763 0.281363
O O19 0.077397 0.000000 0.283372
O O20 0.500000 0.243761 0.410514
O O21 0.418977 0.000000 0.418071
#
# Coordination Sequence:
#
# PCOD9489331 Si02
#       7
#    16  16  16   8  16  16  16
#     4   8  14  27  48  71  94 121 153 191 236 284
#     4   9  17  29  45  65  91 123 156 190 229 274
#     4   8  14  26  46  71  94 117 152 196 235 271
#     4   7  10  20  41  70  99 121 150 197 242 277
#     4  11  22  35  50  70 100 134 168 204 244 289
#     4  10  20  34  53  76  99 124 159 201 243 290
#     4   8  14  26  47  73  97 124 160 200 240 284
#
# _framework density 18.431678999999999
#
# number of rings (size 3 to 8) (size 9 to 14) (size 15 to 20)
#    0.000    3.154    0.000    3.231    0.000    1.846 
#    0.000    3.462    0.000    3.231    0.000    3.769 
#    0.000    8.615    0.000    0.000    0.000    0.000 
#
# Total GULP energy -289607.592877 kJ/mol
# GULP energy per Si atom -5569.376786 kJ/mol
# Density = 1.838973 g / cm^3
# Si number density = 18.431679 Si / 1000 Ang^3
#
#
#
# Elastic Constant Matrix: (Units=GPa)
#
#
# Indices 1 2 3 4 5 6 
#
# 1 79.4886 11.7079 91.4706 0.0000 0.0000 0.0000
# 2 11.7079 11.5577 17.5392 0.0000 0.0000 0.0000
# 3 91.4706 17.5392 199.1846 0.0000 0.0000 0.0000
# 4 0.0000 0.0000 0.0000 2.9842 0.0000 0.0000
# 5 0.0000 0.0000 0.0000 0.0000 -9.6398 0.0000
# 6 0.0000 0.0000 0.0000 0.0000 0.0000 12.2345
#
#
#
# Elastic Compliance Matrix: (Units=1/GPa)
#
#
# Indices 1 2 3 4 5 6 
#
# 1 0.027662 -0.010093 -0.011815 0.000000 0.000000 0.000000
# 2 -0.010093 0.103550 -0.004483 0.000000 0.000000 0.000000
# 3 -0.011815 -0.004483 0.010841 0.000000 0.000000 0.000000
# 4 0.000000 0.000000 0.000000 0.335101 0.000000 0.000000
# 5 0.000000 0.000000 0.000000 0.000000 -0.103737 0.000000
# 6 0.000000 0.000000 0.000000 0.000000 0.000000 0.081736
#
#
# Mechanical properties :
#
#
# Convention : Reuss Voigt Hill
#
# Bulk Modulus (GPa) = 11.20172 59.07402 35.13787
# Shear Modulus (GPa) = 9.29900 12.41666 10.85783
#
# Velocity S-wave (km/s) = 2.24857 2.59831 2.42974
# Velocity P-wave (km/s) = 3.58218 6.41260 5.19392
#
# Compressibility (1/GPa) = 0.08927202
#
# Stress axis : x y z
#
# Youngs Moduli (GPa) = 36.15003 9.65715 92.24426
#
# Poissons Ratio (x) = 0.09747 1.08983
# Poissons Ratio (y) = 0.36486 0.41355
# Poissons Ratio (z) = 0.42710 0.04329
#
# Static dielectric constant tensor:
#      x y z
#    x 1.607900 0.000000 0.000000 
#    y 0.000000 1.640900 0.000000 
#    z 0.000000 0.000000 1.673740 
# 
# From -- ./inp_files/78172.got.cif
#   From: 2010.05.17/outbox.cif.g08.bks.cpg/sg65_40_cif.got.tgz:78172.got - 2010.06.03 17:01:31.
