data_PCOD9489330
_publ_section_title
;
Structure prediction by ZEFSAII (Michael W. Deem and Ramdas Pophale) SiO2 
 PCOD9489330
Probable space group: C M M M
;
_chemical_formula_sum "Si O2"
_cell_formula_units_Z 88
_cell_length_a 19.417289
_cell_length_b 7.698871
_cell_length_c 29.551009
_cell_angle_alpha 90.000000
_cell_angle_beta 90.000000
_cell_angle_gamma 90.000000
_cell_volume 4417.615891
_symmetry_space_group_name_H-M "C M M M"
_symmetry_group_IT_number 65
_symmetry_cell_setting 'orthorhombic'
loop_
_space_group_symop_operation_xyz
x,y,z
-x,-y,z
x,-y,-z
-x,y,-z
-x,-y,-z
x,y,-z
-x,y,z
x,-y,z
1/2+x,1/2+y,z
1/2-x,1/2-y,z
1/2+x,1/2-y,-z
1/2-x,1/2+y,-z
1/2-x,1/2-y,-z
1/2+x,1/2+y,-z
1/2-x,1/2+y,z
1/2+x,1/2-y,z
loop_
_atom_site_type_symbol
_atom_site_label
_atom_site_fract_x
_atom_site_fract_y
_atom_site_fract_z
Si Si1 0.168434 0.291179 0.451417
Si Si2 0.079154 0.213080 0.000000
Si Si3 0.671140 0.293305 0.814662
Si Si4 0.671111 0.291219 0.083318
Si Si5 0.577659 0.206737 0.269612
Si Si6 0.669043 0.790407 0.352513
O O1 0.140607 0.225810 0.500000
O O2 0.160250 0.500000 0.451576
O O3 0.250000 0.250000 0.451597
O O4 0.144519 0.226848 0.402221
O O5 0.119506 0.272086 0.044813
O O6 0.000000 0.266938 0.000000
O O7 0.080399 0.000000 0.000000
O O8 0.665657 0.500000 0.816507
O O9 0.750000 0.250000 0.802080
O O10 0.658735 0.224209 0.865632
O O11 0.618101 0.231348 0.777149
O O12 0.664709 0.500000 0.084907
O O13 0.750000 0.250000 0.071179
O O14 0.500000 0.277303 0.268195
O O15 0.623471 0.277126 0.311099
O O16 0.572661 0.000000 0.276753
O O17 0.750000 0.750000 0.346537
O O18 0.664250 0.000000 0.353108
#
# Coordination Sequence:
#
# PCOD9489330 Si02
#       6
#    16   8  16  16  16  16
#     4   8  13  22  38  61  87 112 141 182 230 275
#     4   9  17  30  49  73 100 129 160 192 228 271
#     4  10  20  34  53  76  99 124 159 201 242 285
#     4   9  18  32  52  75  97 124 156 193 234 277
#     4  10  21  35  49  67  95 130 163 197 240 286
#     4   9  17  29  46  67  90 118 153 192 233 279
#
# _framework density 19.920245999999999
#
# number of rings (size 3 to 8) (size 9 to 14) (size 15 to 20)
#    0.000    2.818    0.000    1.364    0.000    4.000 
#    0.000    1.818    0.000    1.636    0.000    3.818 
#    0.000    0.000    0.000   31.091    0.000   15.636 
#
# Total GULP energy -245273.600367 kJ/mol
# GULP energy per Si atom -5574.400008 kJ/mol
# Density = 1.987491 g / cm^3
# Si number density = 19.920246 Si / 1000 Ang^3
#
#
#
# Elastic Constant Matrix: (Units=GPa)
#
#
# Indices 1 2 3 4 5 6 
#
# 1 132.4389 1.4633 128.7181 0.0000 0.0000 0.0000
# 2 1.4633 35.4904 4.9897 0.0000 0.0000 0.0000
# 3 128.7181 4.9897 185.7992 0.0000 0.0000 0.0000
# 4 0.0000 0.0000 0.0000 1.9646 0.0000 0.0000
# 5 0.0000 0.0000 0.0000 0.0000 -5.2809 0.0000
# 6 0.0000 0.0000 0.0000 0.0000 0.0000 14.7224
#
#
#
# Elastic Compliance Matrix: (Units=1/GPa)
#
#
# Indices 1 2 3 4 5 6 
#
# 1 0.023173 0.001307 -0.016089 0.000000 0.000000 0.000000
# 2 0.001307 0.028357 -0.001667 0.000000 0.000000 0.000000
# 3 -0.016089 -0.001667 0.016573 0.000000 0.000000 0.000000
# 4 0.000000 0.000000 0.000000 0.509012 0.000000 0.000000
# 5 0.000000 0.000000 0.000000 0.000000 -0.189363 0.000000
# 6 0.000000 0.000000 0.000000 0.000000 0.000000 0.067924
#
#
# Mechanical properties :
#
#
# Convention : Reuss Voigt Hill
#
# Bulk Modulus (GPa) = 28.40500 69.34120 48.87310
# Shear Modulus (GPa) = 9.99382 16.85171 13.42276
#
# Velocity S-wave (km/s) = 2.24228 2.91169 2.59863
# Velocity P-wave (km/s) = 4.58193 6.79624 5.79582
#
# Compressibility (1/GPa) = 0.03520507
#
# Stress axis : x y z
#
# Youngs Moduli (GPa) = 43.15308 35.26451 60.33856
#
# Poissons Ratio (x) = -0.04608 0.97079
# Poissons Ratio (y) = -0.05638 0.10057
# Poissons Ratio (z) = 0.69430 0.05878
#
# Static dielectric constant tensor:
#      x y z
#    x 1.660330 0.000000 0.000000 
#    y 0.000000 1.746040 0.000000 
#    z 0.000000 0.000000 1.755040 
# 
# From -- ./inp_files/76555.got.cif
#   From: 2010.05.17/outbox.cif.g08.bks.cpg/sg65_39_cif.got.tgz:76555.got - 2010.06.03 17:01:31.
