data_PCOD9489600
_publ_section_title
;
Structure prediction by ZEFSAII (Michael W. Deem and Ramdas Pophale) SiO2 
 PCOD9489600
Probable space group: C M M M
;
_chemical_formula_sum "Si O2"
_cell_formula_units_Z 96
_cell_length_a 29.325269
_cell_length_b 8.874602
_cell_length_c 21.045535
_cell_angle_alpha 90.000000
_cell_angle_beta 90.000000
_cell_angle_gamma 90.000000
_cell_volume 5477.102397
_symmetry_space_group_name_H-M "C M M M"
_symmetry_group_IT_number 65
_symmetry_cell_setting 'orthorhombic'
loop_
_space_group_symop_operation_xyz
x,y,z
-x,-y,z
x,-y,-z
-x,y,-z
-x,-y,-z
x,y,-z
-x,y,z
x,-y,z
1/2+x,1/2+y,z
1/2-x,1/2-y,z
1/2+x,1/2-y,-z
1/2-x,1/2+y,-z
1/2-x,1/2-y,-z
1/2+x,1/2+y,-z
1/2-x,1/2+y,z
1/2+x,1/2-y,z
loop_
_atom_site_type_symbol
_atom_site_label
_atom_site_fract_x
_atom_site_fract_y
_atom_site_fract_z
Si Si1 0.201732 0.677703 0.738064
Si Si2 0.392957 0.320584 0.928341
Si Si3 0.052416 0.183344 0.571712
Si Si4 0.108795 0.181119 0.693725
Si Si5 0.701606 0.178035 0.109098
Si Si6 0.554118 0.178898 0.810981
O O1 0.201885 0.500000 0.725498
O O2 0.250000 0.750000 0.719965
O O3 0.159281 0.755629 0.704182
O O4 0.196581 0.697754 0.814452
O O5 0.392915 0.500000 0.917712
O O6 0.341539 0.259065 0.921662
O O7 0.423504 0.241339 0.875261
O O8 0.409334 0.290575 0.000000
O O9 0.064490 0.231817 0.500000
O O10 0.086004 0.231942 0.627491
O O11 0.000000 0.229402 0.584674
O O12 0.052629 0.000000 0.571687
O O13 0.078010 0.240906 0.751565
O O14 0.109726 0.000000 0.695402
O O15 0.750000 0.250000 0.090431
O O16 0.701290 0.000000 0.095295
O O17 0.500000 0.205444 0.810357
O O18 0.562661 0.000000 0.806786
#
# Coordination Sequence:
#
# PCOD9489600 Si02
#       6
#    16  16  16  16  16  16
#     4  10  20  34  54  81 112 144 180 223 272 324
#     4  11  24  40  58  80 107 140 180 227 277 329
#     4   8  15  29  50  80 117 152 186 223 265 317
#     4  11  20  32  57  87 114 145 182 226 274 321
#     4  10  20  35  57  81 109 143 178 220 272 327
#     4  11  24  40  57  79 108 143 183 227 274 325
#
# _framework density 17.527515999999999
#
# number of rings (size 3 to 8) (size 9 to 14) (size 15 to 20)
#    0.000    1.833    1.667    3.500    0.000    5.333 
#    0.000    1.667    0.000    2.500    0.000    5.833 
#    0.000    0.000    0.000    0.000    0.000    0.000 
#
# Total GULP energy -268127.126554 kJ/mol
# GULP energy per Si atom -5585.981803 kJ/mol
# Density = 1.748762 g / cm^3
# Si number density = 17.527516 Si / 1000 Ang^3
#
#
#
# Elastic Constant Matrix: (Units=GPa)
#
#
# Indices 1 2 3 4 5 6 
#
# 1 112.4289 59.1920 75.8800 0.0000 0.0000 0.0000
# 2 59.1920 65.7739 53.8574 0.0000 0.0000 0.0000
# 3 75.8800 53.8574 109.7824 0.0000 0.0000 0.0000
# 4 0.0000 0.0000 0.0000 5.9137 0.0000 0.0000
# 5 0.0000 0.0000 0.0000 0.0000 -70.7465 0.0000
# 6 0.0000 0.0000 0.0000 0.0000 0.0000 30.8662
#
#
#
# Elastic Compliance Matrix: (Units=1/GPa)
#
#
# Indices 1 2 3 4 5 6 
#
# 1 0.020956 -0.011697 -0.008746 0.000000 0.000000 0.000000
# 2 -0.011697 0.031941 -0.007585 0.000000 0.000000 0.000000
# 3 -0.008746 -0.007585 0.018875 0.000000 0.000000 0.000000
# 4 0.000000 0.000000 0.000000 0.169098 0.000000 0.000000
# 5 0.000000 0.000000 0.000000 0.000000 -0.014135 0.000000
# 6 0.000000 0.000000 0.000000 0.000000 0.000000 0.032398
#
#
# Mechanical properties :
#
#
# Convention : Reuss Voigt Hill
#
# Bulk Modulus (GPa) = 63.62993 73.98264 68.80629
# Shear Modulus (GPa) = 15.60425 -0.18958 7.70734
#
# Velocity S-wave (km/s) = 2.98698 -0.32924 2.09924
# Velocity P-wave (km/s) = 6.94822 6.49281 6.72437
#
# Compressibility (1/GPa) = 0.01571587
#
# Stress axis : x y z
#
# Youngs Moduli (GPa) = 47.72000 31.30777 52.98116
#
# Poissons Ratio (x) = 0.36622 0.46335
# Poissons Ratio (y) = 0.55820 0.40184
# Poissons Ratio (z) = 0.41734 0.23746
#
# Static dielectric constant tensor:
#      x y z
#    x 1.573490 0.000000 0.000000 
#    y 0.000000 1.584540 0.000000 
#    z 0.000000 0.000000 1.592500 
# 
# From -- ./inp_files/60192.got.cif
#   From: 2010.05.17/outbox.cif.g08.bks.cpg/sg65_31_cif.got.tgz:60192.got - 2010.06.03 17:01:31.
