data_PCOD9489564
_publ_section_title
;
Structure prediction by ZEFSAII (Michael W. Deem and Ramdas Pophale) SiO2 
 PCOD9489564
Probable space group: C M M M
;
_chemical_formula_sum "Si O2"
_cell_formula_units_Z 64
_cell_length_a 9.140093
_cell_length_b 18.027016
_cell_length_c 21.062819
_cell_angle_alpha 90.000000
_cell_angle_beta 90.000000
_cell_angle_gamma 90.000000
_cell_volume 3470.491257
_symmetry_space_group_name_H-M "C M M M"
_symmetry_group_IT_number 65
_symmetry_cell_setting 'orthorhombic'
loop_
_space_group_symop_operation_xyz
x,y,z
-x,-y,z
x,-y,-z
-x,y,-z
-x,-y,-z
x,y,-z
-x,y,z
x,-y,z
1/2+x,1/2+y,z
1/2-x,1/2-y,z
1/2+x,1/2-y,-z
1/2-x,1/2+y,-z
1/2-x,1/2-y,-z
1/2+x,1/2+y,-z
1/2-x,1/2+y,z
1/2+x,1/2-y,z
loop_
_atom_site_type_symbol
_atom_site_label
_atom_site_fract_x
_atom_site_fract_y
_atom_site_fract_z
Si Si1 0.671057 0.911155 0.073678
Si Si2 0.673974 0.670288 0.187130
Si Si3 0.330725 0.910334 0.302125
Si Si4 0.329957 0.590210 0.570823
O O1 0.500000 0.893665 0.087010
O O2 0.773381 0.869513 0.122737
O O3 0.687189 0.000000 0.080502
O O4 0.700237 0.892510 0.000000
O O5 0.500000 0.676772 0.189200
O O6 0.750000 0.750000 0.190162
O O7 0.733312 0.622787 0.246300
O O8 0.500000 0.888679 0.293953
O O9 0.269460 0.885548 0.370651
O O10 0.323374 0.000000 0.299710
O O11 0.284543 0.614694 0.500000
O O12 0.500000 0.611055 0.580696
O O13 0.325909 0.500000 0.570393
#
# Coordination Sequence:
#
# PCOD9489564 Si02
#       4
#    16  16  16  16
#     4   9  19  38  63  88 114 143 175 215 264 317
#     4  12  25  39  56  78 108 145 184 226 270 319
#     4  10  20  34  54  80 110 143 180 223 270 322
#     4   8  14  26  46  74 107 140 176 220 267 314
#
# _framework density 18.441192999999998
#
# number of rings (size 3 to 8) (size 9 to 14) (size 15 to 20)
#    0.000    2.250    0.000    5.250    0.000    6.500 
#    0.000    3.750    0.000    0.750    0.000    0.000 
#    0.000    0.000    0.000    0.000    0.000    0.000 
#
# Total GULP energy -178634.707616 kJ/mol
# GULP energy per Si atom -5582.334613 kJ/mol
# Density = 1.839922 g / cm^3
# Si number density = 18.441193 Si / 1000 Ang^3
#
#
#
# Elastic Constant Matrix: (Units=GPa)
#
#
# Indices 1 2 3 4 5 6 
#
# 1 159.6861 45.0587 101.1982 0.0000 0.0000 0.0000
# 2 45.0587 25.3039 39.5407 0.0000 0.0000 0.0000
# 3 101.1982 39.5407 125.7655 0.0000 0.0000 0.0000
# 4 0.0000 0.0000 0.0000 -16.2761 0.0000 0.0000
# 5 0.0000 0.0000 0.0000 0.0000 38.5811 0.0000
# 6 0.0000 0.0000 0.0000 0.0000 0.0000 21.6815
#
#
#
# Elastic Compliance Matrix: (Units=1/GPa)
#
#
# Indices 1 2 3 4 5 6 
#
# 1 0.015472 -0.015916 -0.007445 0.000000 0.000000 0.000000
# 2 -0.015916 0.094059 -0.016765 0.000000 0.000000 0.000000
# 3 -0.007445 -0.016765 0.019213 0.000000 0.000000 0.000000
# 4 0.000000 0.000000 0.000000 -0.061440 0.000000 0.000000
# 5 0.000000 0.000000 0.000000 0.000000 0.025919 0.000000
# 6 0.000000 0.000000 0.000000 0.000000 0.000000 0.046122
#
#
# Mechanical properties :
#
#
# Convention : Reuss Voigt Hill
#
# Bulk Modulus (GPa) = 20.62251 75.81675 48.21963
# Shear Modulus (GPa) = 21.20774 17.12785 19.16779
#
# Velocity S-wave (km/s) = 3.39487 3.05090 3.22747
# Velocity P-wave (km/s) = 5.15500 7.32206 6.33193
#
# Compressibility (1/GPa) = 0.04849071
#
# Stress axis : x y z
#
# Youngs Moduli (GPa) = 64.63406 10.63161 52.04708
#
# Poissons Ratio (x) = 0.16921 0.38751
# Poissons Ratio (y) = 1.02871 0.87259
# Poissons Ratio (z) = 0.48123 0.17824
#
# Static dielectric constant tensor:
#      x y z
#    x 1.613320 0.000000 0.000000 
#    y 0.000000 1.625870 0.000000 
#    z 0.000000 0.000000 1.632470 
# 
# From -- ./inp_files/55264.got.cif
#   From: 2010.05.17/outbox.cif.g08.bks.cpg/sg65_28_cif.got.tgz:55264.got - 2010.06.03 17:01:31.
