data_PCOD9489980
_publ_section_title
;
Structure prediction by ZEFSAII (Michael W. Deem and Ramdas Pophale) SiO2 
 PCOD9489980
Probable space group: C M M M
;
_chemical_formula_sum "Si O2"
_cell_formula_units_Z 72
_cell_length_a 26.065737
_cell_length_b 7.993609
_cell_length_c 17.238268
_cell_angle_alpha 90.000000
_cell_angle_beta 90.000000
_cell_angle_gamma 90.000000
_cell_volume 3591.753624
_symmetry_space_group_name_H-M "C M M M"
_symmetry_group_IT_number 65
_symmetry_cell_setting 'orthorhombic'
loop_
_space_group_symop_operation_xyz
x,y,z
-x,-y,z
x,-y,-z
-x,y,-z
-x,-y,-z
x,y,-z
-x,y,z
x,-y,z
1/2+x,1/2+y,z
1/2-x,1/2-y,z
1/2+x,1/2-y,-z
1/2-x,1/2+y,-z
1/2-x,1/2-y,-z
1/2+x,1/2+y,-z
1/2-x,1/2+y,z
1/2+x,1/2-y,z
loop_
_atom_site_type_symbol
_atom_site_label
_atom_site_fract_x
_atom_site_fract_y
_atom_site_fract_z
Si Si1 0.805231 0.300097 0.245827
Si Si2 0.416448 0.305463 0.210111
Si Si3 0.000000 0.299477 0.088533
Si Si4 0.055284 0.304582 0.621758
Si Si5 0.332416 0.204774 0.416936
O O1 0.809527 0.500000 0.246311
O O2 0.750000 0.250000 0.213353
O O3 0.855861 0.231041 0.203958
O O4 0.808037 0.238706 0.335905
O O5 0.423953 0.500000 0.227484
O O6 0.450071 0.259112 0.135965
O O7 0.437071 0.207088 0.285386
O O8 0.000000 0.500000 0.088114
O O9 0.000000 0.238729 0.000000
O O10 0.053824 0.500000 0.600042
O O11 0.108170 0.237817 0.587368
O O12 0.000000 0.229624 0.601007
O O13 0.310646 0.259559 0.500000
O O14 0.331651 0.000000 0.415664
#
# Coordination Sequence:
#
# PCOD9489980 Si02
#       5
#    16  16   8  16  16
#     4  10  20  35  55  78 105 142 188 235 278 326
#     4  11  21  34  55  82 112 145 180 221 264 317
#     4  11  23  39  61  89 120 149 174 207 257 314
#     4   9  16  27  46  69  99 140 182 224 271 324
#     4   8  15  27  43  68 101 137 180 230 281 329
#
# _framework density 20.045919000000001
#
# number of rings (size 3 to 8) (size 9 to 14) (size 15 to 20)
#    0.000    2.333    1.111    4.333    0.000    1.778 
#    0.000    2.222    0.000   16.667    0.000    6.222 
#    0.000    0.000    0.000    0.000    0.000    0.000 
#
# Total GULP energy -200863.699926 kJ/mol
# GULP energy per Si atom -5579.547220 kJ/mol
# Density = 2.000029 g / cm^3
# Si number density = 20.045919 Si / 1000 Ang^3
#
#
#
# Elastic Constant Matrix: (Units=GPa)
#
#
# Indices 1 2 3 4 5 6 
#
# 1 156.8274 2.9371 40.7959 0.0000 0.0000 0.0000
# 2 2.9371 39.3057 1.8213 0.0000 0.0000 0.0000
# 3 40.7959 1.8213 102.0794 0.0000 0.0000 0.0000
# 4 0.0000 0.0000 0.0000 -22.5694 0.0000 0.0000
# 5 0.0000 0.0000 0.0000 0.0000 -47.6751 0.0000
# 6 0.0000 0.0000 0.0000 0.0000 0.0000 20.5327
#
#
#
# Elastic Compliance Matrix: (Units=1/GPa)
#
#
# Indices 1 2 3 4 5 6 
#
# 1 0.007123 -0.000401 -0.002839 0.000000 0.000000 0.000000
# 2 -0.000401 0.025485 -0.000295 0.000000 0.000000 0.000000
# 3 -0.002839 -0.000295 0.010936 0.000000 0.000000 0.000000
# 4 0.000000 0.000000 0.000000 -0.044308 0.000000 0.000000
# 5 0.000000 0.000000 0.000000 0.000000 -0.020975 0.000000
# 6 0.000000 0.000000 0.000000 0.000000 0.000000 0.048703
#
#
# Mechanical properties :
#
#
# Convention : Reuss Voigt Hill
#
# Bulk Modulus (GPa) = 27.41619 43.25791 35.33705
# Shear Modulus (GPa) = 108.24526 6.90151 57.57338
#
# Velocity S-wave (km/s) = 7.35635 1.85750 5.36499
# Velocity P-wave (km/s) = 9.26611 5.12120 7.48624
#
# Compressibility (1/GPa) = 0.03647480
#
# Stress axis : x y z
#
# Youngs Moduli (GPa) = 140.39907 39.23851 91.43857
#
# Poissons Ratio (x) = 0.01572 0.25963
# Poissons Ratio (y) = 0.05625 0.02694
# Poissons Ratio (z) = 0.39865 0.01156
#
# Static dielectric constant tensor:
#      x y z
#    x 1.746760 0.000000 0.000000 
#    y 0.000000 1.721190 0.000000 
#    z 0.000000 0.000000 1.695750 
# 
# From -- ./inp_files/46507.got.cif
#   From: 2010.05.17/outbox.cif.g08.bks.cpg/sg65_24_cif.got.tgz:46507.got - 2010.06.03 17:01:31.
