data_PCOD9489634
_publ_section_title
;
Structure prediction by ZEFSAII (Michael W. Deem and Ramdas Pophale) SiO2 
 PCOD9489634
Probable space group: C M M M
;
_chemical_formula_sum "Si O2"
_cell_formula_units_Z 88
_cell_length_a 15.395905
_cell_length_b 13.900751
_cell_length_c 19.610830
_cell_angle_alpha 90.000000
_cell_angle_beta 90.000000
_cell_angle_gamma 90.000000
_cell_volume 4197.004758
_symmetry_space_group_name_H-M "C M M M"
_symmetry_group_IT_number 65
_symmetry_cell_setting 'orthorhombic'
loop_
_space_group_symop_operation_xyz
x,y,z
-x,-y,z
x,-y,-z
-x,y,-z
-x,-y,-z
x,y,-z
-x,y,z
x,-y,z
1/2+x,1/2+y,z
1/2-x,1/2-y,z
1/2+x,1/2-y,-z
1/2-x,1/2+y,-z
1/2-x,1/2-y,-z
1/2+x,1/2+y,-z
1/2-x,1/2+y,z
1/2+x,1/2-y,z
loop_
_atom_site_type_symbol
_atom_site_label
_atom_site_fract_x
_atom_site_fract_y
_atom_site_fract_z
Si Si1 0.601445 0.102145 0.855335
Si Si2 0.105546 0.107305 0.212453
Si Si3 0.394856 0.196213 0.719397
Si Si4 0.500000 0.391722 0.580971
Si Si5 0.152464 0.789914 0.075450
Si Si6 0.853077 0.266676 0.422768
O O1 0.500000 0.090584 0.842098
O O2 0.639960 0.132259 0.781962
O O3 0.604483 0.191007 0.906236
O O4 0.637755 0.000000 0.880089
O O5 0.134531 0.195203 0.260717
O O6 0.134714 0.135795 0.136015
O O7 0.000000 0.108592 0.213182
O O8 0.134329 0.000000 0.231114
O O9 0.500000 0.196269 0.721088
O O10 0.368921 0.167506 0.643268
O O11 0.500000 0.500000 0.612264
O O12 0.500000 0.404330 0.500000
O O13 0.414413 0.326493 0.593809
O O14 0.250000 0.750000 0.076991
O O15 0.131327 0.826257 0.000000
O O16 0.878389 0.298036 0.500000
O O17 0.750000 0.250000 0.424552
#
# Coordination Sequence:
#
# PCOD9489634 Si02
#       6
#    16  16  16   8  16  16
#     4   9  19  36  57  78 101 134 180 228 270 317
#     4   9  19  35  55  80 107 138 178 222 270 328
#     4   9  17  32  53  79 109 144 181 228 284 343
#     4   9  18  34  56  82 113 149 188 237 295 349
#     4  10  21  35  51  75 108 142 176 217 267 324
#     4  10  20  34  54  83 115 151 194 238 289 352
#
# _framework density 20.967334999999999
#
# number of rings (size 3 to 8) (size 9 to 14) (size 15 to 20)
#    0.000    2.636    0.909    1.636    0.000    6.545 
#    0.000    4.545    0.000    1.636    0.000    2.545 
#    0.000    0.000    0.000    0.000    0.000    0.000 
#
# Total GULP energy -244994.361272 kJ/mol
# GULP energy per Si atom -5568.053665 kJ/mol
# Density = 2.091961 g / cm^3
# Si number density = 20.967335 Si / 1000 Ang^3
#
#
#
# Elastic Constant Matrix: (Units=GPa)
#
#
# Indices 1 2 3 4 5 6 
#
# 1 52.2616 18.1973 3.5185 0.0000 0.0000 0.0000
# 2 18.1973 39.6485 -20.3634 0.0000 0.0000 0.0000
# 3 3.5185 -20.3634 83.5255 0.0000 0.0000 0.0000
# 4 0.0000 0.0000 0.0000 10.0439 0.0000 0.0000
# 5 0.0000 0.0000 0.0000 0.0000 30.0470 0.0000
# 6 0.0000 0.0000 0.0000 0.0000 0.0000 2.4196
#
#
#
# Elastic Compliance Matrix: (Units=1/GPa)
#
#
# Indices 1 2 3 4 5 6 
#
# 1 0.024013 -0.013192 -0.004228 0.000000 0.000000 0.000000
# 2 -0.013192 0.036080 0.009352 0.000000 0.000000 0.000000
# 3 -0.004228 0.009352 0.014430 0.000000 0.000000 0.000000
# 4 0.000000 0.000000 0.000000 0.099563 0.000000 0.000000
# 5 0.000000 0.000000 0.000000 0.000000 0.033281 0.000000
# 6 0.000000 0.000000 0.000000 0.000000 0.000000 0.413284
#
#
# Mechanical properties :
#
#
# Convention : Reuss Voigt Hill
#
# Bulk Modulus (GPa) = 17.12734 19.79335 18.46034
# Shear Modulus (GPa) = 7.61905 20.10765 13.86335
#
# Velocity S-wave (km/s) = 1.90831 3.10013 2.57415
# Velocity P-wave (km/s) = 3.61135 4.71964 4.20219
#
# Compressibility (1/GPa) = 0.05838619
#
# Stress axis : x y z
#
# Youngs Moduli (GPa) = 41.64461 27.71645 69.29777
#
# Poissons Ratio (x) = 0.36565 0.29298
# Poissons Ratio (y) = 0.54939 -0.64807
# Poissons Ratio (z) = 0.17607 -0.25920
#
# Static dielectric constant tensor:
#      x y z
#    x 1.703200 0.000000 0.000000 
#    y 0.000000 1.751600 0.000000 
#    z 0.000000 0.000000 1.773140 
# 
# From -- ./inp_files/62457.got.cif
#   From: 2010.05.17/outbox.cif.g08.bks.cpg/sg65_32_cif.got.tgz:62457.got - 2010.06.03 17:01:31.
