data_PCOD9489229
_publ_section_title
;
Structure prediction by ZEFSAII (Michael W. Deem and Ramdas Pophale) SiO2 
 PCOD9489229
Probable space group: C M M M
;
_chemical_formula_sum "Si O2"
_cell_formula_units_Z 116
_cell_length_a 29.809973
_cell_length_b 25.086504
_cell_length_c 7.942818
_cell_angle_alpha 90.000000
_cell_angle_beta 90.000000
_cell_angle_gamma 90.000000
_cell_volume 5939.861754
_symmetry_space_group_name_H-M "C M M M"
_symmetry_group_IT_number 65
_symmetry_cell_setting 'orthorhombic'
loop_
_space_group_symop_operation_xyz
x,y,z
-x,-y,z
x,-y,-z
-x,y,-z
-x,-y,-z
x,y,-z
-x,y,z
x,-y,z
1/2+x,1/2+y,z
1/2-x,1/2-y,z
1/2+x,1/2-y,-z
1/2-x,1/2+y,-z
1/2-x,1/2-y,-z
1/2+x,1/2+y,-z
1/2-x,1/2+y,z
1/2+x,1/2-y,z
loop_
_atom_site_type_symbol
_atom_site_label
_atom_site_fract_x
_atom_site_fract_y
_atom_site_fract_z
Si Si1 0.049829 0.331487 0.296954
Si Si2 0.815183 0.163553 0.803396
Si Si3 0.093011 0.440936 0.200713
Si Si4 0.642528 0.556508 0.687505
Si Si5 0.281581 0.826673 0.193644
Si Si6 0.133312 0.736814 0.304023
Si Si7 0.893870 0.000000 0.000000
Si Si8 0.304314 0.059590 0.696779
O O1 0.050189 0.327928 0.500000
O O2 0.062040 0.392076 0.251478
O O3 0.089691 0.293333 0.233938
O O4 0.000000 0.317780 0.236314
O O5 0.828576 0.108888 0.714663
O O6 0.767820 0.187197 0.739846
O O7 0.852876 0.208218 0.782197
O O8 0.808446 0.151879 0.000000
O O9 0.075064 0.500000 0.242288
O O10 0.141720 0.435651 0.285973
O O11 0.100390 0.438619 0.000000
O O12 0.621680 0.559673 0.500000
O O13 0.669707 0.500000 0.690236
O O14 0.610381 0.545961 0.847859
O O15 0.324052 0.802493 0.287794
O O16 0.284031 0.890796 0.204943
O O17 0.285786 0.808585 0.000000
O O18 0.125790 0.748475 0.500000
O O19 0.292306 0.064208 0.500000
O O20 0.292386 0.000000 0.756993
#
# Coordination Sequence:
#
# PCOD9489229 Si02
#       8
#    16  16  16  16  16  16   4  16
#     4  10  22  40  60  81 107 140 177 225 287 345
#     4  11  22  37  54  77 111 149 186 229 277 330
#     4  10  20  34  55  80 107 136 176 226 282 338
#     4   9  17  31  53  78 108 146 184 226 271 318
#     4  11  23  36  53  75 105 143 182 225 278 329
#     4  11  23  38  56  78 104 138 184 231 273 332
#     4   8  14  32  52  74 114 144 179 230 271 316
#     4  10  20  34  52  75 105 142 183 228 276 327
#
# _framework density 19.529074999999999
#
# number of rings (size 3 to 8) (size 9 to 14) (size 15 to 20)
#    0.414    1.379    2.069    2.483    0.000    7.172 
#    0.000    4.138    0.000    0.000    0.000    0.000 
#    0.000    0.552    0.000    7.379    0.000    4.690 
#
# Total GULP energy -322973.290673 kJ/mol
# GULP energy per Si atom -5568.505012 kJ/mol
# Density = 1.948463 g / cm^3
# Si number density = 19.529075 Si / 1000 Ang^3
#
#
#
# Elastic Constant Matrix: (Units=GPa)
#
#
# Indices 1 2 3 4 5 6 
#
# 1 81.7048 46.0816 6.6393 0.0000 0.0000 0.0000
# 2 46.0816 106.2115 8.4556 0.0000 0.0000 0.0000
# 3 6.6393 8.4556 71.9076 0.0000 0.0000 0.0000
# 4 0.0000 0.0000 0.0000 31.6886 0.0000 0.0000
# 5 0.0000 0.0000 0.0000 0.0000 17.4316 0.0000
# 6 0.0000 0.0000 0.0000 0.0000 0.0000 10.0720
#
#
#
# Elastic Compliance Matrix: (Units=1/GPa)
#
#
# Indices 1 2 3 4 5 6 
#
# 1 0.016237 -0.006991 -0.000677 0.000000 0.000000 0.000000
# 2 -0.006991 0.012514 -0.000826 0.000000 0.000000 0.000000
# 3 -0.000677 -0.000826 0.014066 0.000000 0.000000 0.000000
# 4 0.000000 0.000000 0.000000 0.031557 0.000000 0.000000
# 5 0.000000 0.000000 0.000000 0.000000 0.057367 0.000000
# 6 0.000000 0.000000 0.000000 0.000000 0.000000 0.099285
#
#
# Mechanical properties :
#
#
# Convention : Reuss Voigt Hill
#
# Bulk Modulus (GPa) = 38.71549 42.46412 40.58980
# Shear Modulus (GPa) = 19.48375 25.08160 22.28268
#
# Velocity S-wave (km/s) = 3.16203 3.58763 3.38153
# Velocity P-wave (km/s) = 5.76184 6.24121 6.00631
#
# Compressibility (1/GPa) = 0.02582946
#
# Stress axis : x y z
#
# Youngs Moduli (GPa) = 61.58765 79.91041 71.09140
#
# Poissons Ratio (x) = 0.55864 0.04814
# Poissons Ratio (y) = 0.43055 0.05873
# Poissons Ratio (z) = 0.04170 0.06601
#
# Static dielectric constant tensor:
#      x y z
#    x 1.679870 0.000000 0.000000 
#    y 0.000000 1.706720 0.000000 
#    z 0.000000 0.000000 1.710460 
# 
# From -- ./inp_files/16894.got.cif
#   From: 2010.05.17/outbox.cif.g08.bks.cpg/sg65_9_cif.got.tgz:16894.got - 2010.06.03 17:01:31.
