data_PCOD9489398
_publ_section_title
;
Structure prediction by ZEFSAII (Michael W. Deem and Ramdas Pophale) SiO2 
 PCOD9489398
Probable space group: C M M M
;
_chemical_formula_sum "Si O2"
_cell_formula_units_Z 104
_cell_length_a 20.122310
_cell_length_b 8.901446
_cell_length_c 33.719555
_cell_angle_alpha 90.000000
_cell_angle_beta 90.000000
_cell_angle_gamma 90.000000
_cell_volume 6039.767648
_symmetry_space_group_name_H-M "C M M M"
_symmetry_group_IT_number 65
_symmetry_cell_setting 'orthorhombic'
loop_
_space_group_symop_operation_xyz
x,y,z
-x,-y,z
x,-y,-z
-x,y,-z
-x,-y,-z
x,y,-z
-x,y,z
x,-y,z
1/2+x,1/2+y,z
1/2-x,1/2-y,z
1/2+x,1/2-y,-z
1/2-x,1/2+y,-z
1/2-x,1/2-y,-z
1/2+x,1/2+y,-z
1/2-x,1/2+y,z
1/2+x,1/2-y,z
loop_
_atom_site_type_symbol
_atom_site_label
_atom_site_fract_x
_atom_site_fract_y
_atom_site_fract_z
Si Si1 0.322496 0.680494 0.353310
Si Si2 0.321999 0.679498 0.046204
Si Si3 0.321593 0.680600 0.738107
Si Si4 0.921415 0.679594 0.583192
Si Si5 0.419387 0.327328 0.500000
Si Si6 0.077295 0.819163 0.806492
Si Si7 0.921962 0.679437 0.108805
O O1 0.319656 0.500000 0.356688
O O2 0.250000 0.750000 0.362009
O O3 0.338603 0.720104 0.307422
O O4 0.377100 0.746251 0.382846
O O5 0.318836 0.500000 0.050596
O O6 0.250000 0.750000 0.055156
O O7 0.376742 0.747143 0.075250
O O8 0.337139 0.713827 0.000000
O O9 0.316545 0.500000 0.739734
O O10 0.250000 0.750000 0.747386
O O11 0.376238 0.728126 0.770115
O O12 0.914292 0.500000 0.583675
O O13 0.899869 0.743521 0.540314
O O14 0.000000 0.714818 0.588526
O O15 0.396639 0.500000 0.500000
O O16 0.500000 0.328024 0.500000
O O17 0.096658 0.742717 0.847882
O O18 0.000000 0.782901 0.798597
O O19 0.082233 0.000000 0.810904
O O20 0.914646 0.500000 0.108211
O O21 0.000000 0.715906 0.102597
#
# Coordination Sequence:
#
# PCOD9489398 Si02
#       7
#    16  16  16  16   8  16  16
#     4  10  20  35  54  76 105 139 175 215 260 310
#     4  10  21  37  57  80 106 137 174 216 261 309
#     4   9  19  34  53  76 101 133 171 212 258 308
#     4  10  20  34  53  78 107 138 173 213 258 308
#     4   9  17  31  52  77 104 135 172 213 257 305
#     4   9  18  34  54  75 102 136 174 216 260 305
#     4  10  21  36  54  78 108 141 176 214 258 308
#
# _framework density 17.219206
#
# number of rings (size 3 to 8) (size 9 to 14) (size 15 to 20)
#    0.000    2.385    0.000    2.077    0.000    6.462 
#    0.000    5.000    0.000    1.846    0.000    0.000 
#    0.000    0.000    0.000    0.000    0.000    0.000 
#
# Total GULP energy -290164.597327 kJ/mol
# GULP energy per Si atom -5580.088410 kJ/mol
# Density = 1.718001 g / cm^3
# Si number density = 17.219206 Si / 1000 Ang^3
#
#
#
# Elastic Constant Matrix: (Units=GPa)
#
#
# Indices 1 2 3 4 5 6 
#
# 1 100.1955 56.7528 110.5703 0.0000 0.0000 0.0000
# 2 56.7528 61.7472 66.7286 0.0000 0.0000 0.0000
# 3 110.5703 66.7286 155.1423 0.0000 0.0000 0.0000
# 4 0.0000 0.0000 0.0000 25.2773 0.0000 0.0000
# 5 0.0000 0.0000 0.0000 0.0000 81.6291 0.0000
# 6 0.0000 0.0000 0.0000 0.0000 0.0000 30.8566
#
#
#
# Elastic Compliance Matrix: (Units=1/GPa)
#
#
# Indices 1 2 3 4 5 6 
#
# 1 0.053098 -0.014774 -0.031488 0.000000 0.000000 0.000000
# 2 -0.014774 0.034371 -0.004254 0.000000 0.000000 0.000000
# 3 -0.031488 -0.004254 0.030717 0.000000 0.000000 0.000000
# 4 0.000000 0.000000 0.000000 0.039561 0.000000 0.000000
# 5 0.000000 0.000000 0.000000 0.000000 0.012251 0.000000
# 6 0.000000 0.000000 0.000000 0.000000 0.000000 0.032408
#
#
# Mechanical properties :
#
#
# Convention : Reuss Voigt Hill
#
# Bulk Modulus (GPa) = 58.29783 87.24315 72.77049
# Shear Modulus (GPa) = 16.17305 33.08815 24.63060
#
# Velocity S-wave (km/s) = 3.06803 4.38834 3.78619
# Velocity P-wave (km/s) = 6.81764 8.74374 7.84006
#
# Compressibility (1/GPa) = 0.01715330
#
# Stress axis : x y z
#
# Youngs Moduli (GPa) = 18.83323 29.09391 32.55530
#
# Poissons Ratio (x) = 0.42985 1.02511
# Poissons Ratio (y) = 0.27825 0.13848
# Poissons Ratio (z) = 0.59302 0.12376
#
# Static dielectric constant tensor:
#      x y z
#    x 1.557280 0.000000 0.000000 
#    y 0.000000 1.573850 0.000000 
#    z 0.000000 0.000000 1.566770 
# 
# From -- ./inp_files/75534.got.cif
#   From: 2010.05.17/outbox.cif.g08.bks.cpg/sg65_38_cif.got.tgz:75534.got - 2010.06.03 17:01:31.
