data_PCOD9489900
_publ_section_title
;
Structure prediction by ZEFSAII (Michael W. Deem and Ramdas Pophale) SiO2 
 PCOD9489900
Probable space group: C M M M
;
_chemical_formula_sum "Si O2"
_cell_formula_units_Z 72
_cell_length_a 19.525972
_cell_length_b 7.358054
_cell_length_c 20.346871
_cell_angle_alpha 90.000000
_cell_angle_beta 90.000000
_cell_angle_gamma 90.000000
_cell_volume 2923.299179
_symmetry_space_group_name_H-M "C M M M"
_symmetry_group_IT_number 65
_symmetry_cell_setting 'orthorhombic'
loop_
_space_group_symop_operation_xyz
x,y,z
-x,-y,z
x,-y,-z
-x,y,-z
-x,-y,-z
x,y,-z
-x,y,z
x,-y,z
1/2+x,1/2+y,z
1/2-x,1/2-y,z
1/2+x,1/2-y,-z
1/2-x,1/2+y,-z
1/2-x,1/2-y,-z
1/2+x,1/2+y,-z
1/2-x,1/2+y,z
1/2+x,1/2-y,z
loop_
_atom_site_type_symbol
_atom_site_label
_atom_site_fract_x
_atom_site_fract_y
_atom_site_fract_z
Si Si1 0.847578 0.277519 0.426435
Si Si2 0.079201 0.221352 0.075022
Si Si3 0.147896 0.207668 0.798508
Si Si4 0.000000 0.709808 0.249093
Si Si5 0.500000 0.209871 0.594910
Si Si6 0.750000 0.750000 0.689516
O O1 0.822291 0.239122 0.500000
O O2 0.844950 0.500000 0.415974
O O3 0.926554 0.216794 0.425391
O O4 0.805345 0.191082 0.366667
O O5 0.135920 0.281339 0.127898
O O6 0.000000 0.275735 0.090325
O O7 0.079491 0.000000 0.077526
O O8 0.093091 0.275429 0.000000
O O9 0.193501 0.309054 0.744549
O O10 0.069777 0.202386 0.774313
O O11 0.174450 0.000000 0.800067
O O12 0.000000 0.500000 0.227833
O O13 0.000000 0.713210 0.327038
O O14 0.500000 0.000000 0.572599
#
# Coordination Sequence:
#
# PCOD9489900 Si02
#       6
#    16  16  16   8   8   8
#     4  10  20  35  54  76 105 144 191 235 279 337
#     4   8  14  28  54  84 109 140 189 240 280 330
#     4  11  22  37  59  86 117 153 194 236 284 343
#     4  11  21  36  60  86 116 148 189 245 293 339
#     4   9  17  33  56  79  99 131 181 238 281 322
#     4  12  23  34  51  82 118 156 184 230 285 340
#
# _framework density 24.629708000000001
#
# number of rings (size 3 to 8) (size 9 to 14) (size 15 to 20)
#    0.000    2.000    3.333    2.333    0.000    2.222 
#    0.000    0.556    0.000    1.333    0.000    1.556 
#    0.000    0.000    0.000    0.000    0.000    0.000 
#
# Total GULP energy -200501.436676 kJ/mol
# GULP energy per Si atom -5569.484352 kJ/mol
# Density = 2.457365 g / cm^3
# Si number density = 24.629708 Si / 1000 Ang^3
#
#
#
# Elastic Constant Matrix: (Units=GPa)
#
#
# Indices 1 2 3 4 5 6 
#
# 1 187.8068 11.4500 83.4964 0.0000 0.0000 0.0000
# 2 11.4500 107.0166 32.2747 0.0000 0.0000 0.0000
# 3 83.4964 32.2747 240.5963 0.0000 0.0000 0.0000
# 4 0.0000 0.0000 0.0000 -0.1687 0.0000 0.0000
# 5 0.0000 0.0000 0.0000 0.0000 242.5603 0.0000
# 6 0.0000 0.0000 0.0000 0.0000 0.0000 -31.4608
#
#
#
# Elastic Compliance Matrix: (Units=1/GPa)
#
#
# Indices 1 2 3 4 5 6 
#
# 1 0.006296 -0.000015 -0.002183 0.000000 0.000000 0.000000
# 2 -0.000015 0.009738 -0.001301 0.000000 0.000000 0.000000
# 3 -0.002183 -0.001301 0.005088 0.000000 0.000000 0.000000
# 4 0.000000 0.000000 0.000000 -5.927205 0.000000 0.000000
# 5 0.000000 0.000000 0.000000 0.000000 0.004123 0.000000
# 6 0.000000 0.000000 0.000000 0.000000 0.000000 -0.031786
#
#
# Mechanical properties :
#
#
# Convention : Reuss Voigt Hill
#
# Bulk Modulus (GPa) = 70.79987 87.76243 79.28115
# Shear Modulus (GPa) = -0.84430 69.39940 34.27755
#
# Velocity S-wave (km/s) = -0.58613 5.31397 3.73462
# Velocity P-wave (km/s) = 5.32448 8.56511 7.13131
#
# Compressibility (1/GPa) = 0.01412432
#
# Stress axis : x y z
#
# Youngs Moduli (GPa) = 158.82962 102.68672 196.52425
#
# Poissons Ratio (x) = 0.00157 0.42900
# Poissons Ratio (y) = 0.00243 0.25569
# Poissons Ratio (z) = 0.34671 0.13360
#
# Static dielectric constant tensor:
#      x y z
#    x 1.900780 0.000000 0.000000 
#    y 0.000000 1.993780 0.000000 
#    z 0.000000 0.000000 1.956460 
# 
# From -- ./inp_files/64428.got.cif
#   From: 2010.05.17/outbox.cif.g08.bks.cpg/sg65_33_cif.got.tgz:64428.got - 2010.06.03 17:01:31.
