data_PCOD9489593
_publ_section_title
;
Structure prediction by ZEFSAII (Michael W. Deem and Ramdas Pophale) SiO2 
 PCOD9489593
Probable space group: C M M M
;
_chemical_formula_sum "Si O2"
_cell_formula_units_Z 88
_cell_length_a 23.601660
_cell_length_b 13.864671
_cell_length_c 14.585177
_cell_angle_alpha 90.000000
_cell_angle_beta 90.000000
_cell_angle_gamma 90.000000
_cell_volume 4772.696545
_symmetry_space_group_name_H-M "C M M M"
_symmetry_group_IT_number 65
_symmetry_cell_setting 'orthorhombic'
loop_
_space_group_symop_operation_xyz
x,y,z
-x,-y,z
x,-y,-z
-x,y,-z
-x,-y,-z
x,y,-z
-x,y,z
x,-y,z
1/2+x,1/2+y,z
1/2-x,1/2-y,z
1/2+x,1/2-y,-z
1/2-x,1/2+y,-z
1/2-x,1/2-y,-z
1/2+x,1/2+y,-z
1/2-x,1/2+y,z
1/2+x,1/2-y,z
loop_
_atom_site_type_symbol
_atom_site_label
_atom_site_fract_x
_atom_site_fract_y
_atom_site_fract_z
Si Si1 0.784964 0.116011 0.894768
Si Si2 0.107779 0.203591 0.208700
Si Si3 0.636395 0.383900 0.604932
Si Si4 0.000000 0.885625 0.109276
Si Si5 0.769471 0.616567 0.399842
Si Si6 0.670296 0.114841 0.212116
O O1 0.834042 0.158179 0.831281
O O2 0.722218 0.137228 0.856795
O O3 0.790587 0.000000 0.891556
O O4 0.791551 0.147423 0.000000
O O5 0.104271 0.171543 0.314756
O O6 0.055494 0.161515 0.153167
O O7 0.116661 0.317715 0.195615
O O8 0.618546 0.364084 0.500000
O O9 0.631879 0.500000 0.619414
O O10 0.703400 0.358659 0.611728
O O11 0.000000 0.000000 0.128358
O O12 0.000000 0.872767 0.000000
O O13 0.789167 0.650967 0.500000
O O14 0.770713 0.500000 0.401617
O O15 0.806076 0.643643 0.312547
O O16 0.659815 0.000000 0.208992
#
# Coordination Sequence:
#
# PCOD9489593 Si02
#       6
#    16  16  16   8  16  16
#     4  10  20  34  54  81 112 142 175 224 286 343
#     4  12  22  36  59  82 108 149 192 230 276 333
#     4   9  17  30  52  84 119 151 184 226 278 336
#     4  11  26  46  66  86 106 135 184 242 288 332
#     4   8  14  27  48  77 117 156 184 216 263 323
#     4  10  21  35  52  82 119 149 182 226 276 331
#
# _framework density 18.438213000000001
#
# number of rings (size 3 to 8) (size 9 to 14) (size 15 to 20)
#    0.000    2.091    1.818    3.818    0.000    4.364 
#    0.000    2.727    0.000    2.182    0.000    0.000 
#    0.000    4.364    0.000    0.000    0.000    0.000 
#
# Total GULP energy -245763.590954 kJ/mol
# GULP energy per Si atom -5585.536158 kJ/mol
# Density = 1.839625 g / cm^3
# Si number density = 18.438213 Si / 1000 Ang^3
#
#
#
# Elastic Constant Matrix: (Units=GPa)
#
#
# Indices 1 2 3 4 5 6 
#
# 1 59.3568 46.3161 33.6520 0.0000 0.0000 0.0000
# 2 46.3161 92.8738 41.4812 0.0000 0.0000 0.0000
# 3 33.6520 41.4812 107.5323 0.0000 0.0000 0.0000
# 4 0.0000 0.0000 0.0000 11.7656 0.0000 0.0000
# 5 0.0000 0.0000 0.0000 0.0000 14.0433 0.0000
# 6 0.0000 0.0000 0.0000 0.0000 0.0000 26.7439
#
#
#
# Elastic Compliance Matrix: (Units=1/GPa)
#
#
# Indices 1 2 3 4 5 6 
#
# 1 0.029095 -0.012617 -0.004238 0.000000 0.000000 0.000000
# 2 -0.012617 0.018480 -0.003180 0.000000 0.000000 0.000000
# 3 -0.004238 -0.003180 0.011853 0.000000 0.000000 0.000000
# 4 0.000000 0.000000 0.000000 0.084993 0.000000 0.000000
# 5 0.000000 0.000000 0.000000 0.000000 0.071209 0.000000
# 6 0.000000 0.000000 0.000000 0.000000 0.000000 0.037392
#
#
# Mechanical properties :
#
#
# Convention : Reuss Voigt Hill
#
# Bulk Modulus (GPa) = 51.66115 55.85128 53.75622
# Shear Modulus (GPa) = 16.69207 19.73146 18.21176
#
# Velocity S-wave (km/s) = 3.01208 3.27485 3.14621
# Velocity P-wave (km/s) = 6.33847 6.68254 6.51278
#
# Compressibility (1/GPa) = 0.01935690
#
# Stress axis : x y z
#
# Youngs Moduli (GPa) = 34.37036 54.11361 84.36893
#
# Poissons Ratio (x) = 0.68273 0.35758
# Poissons Ratio (y) = 0.43364 0.26832
# Poissons Ratio (z) = 0.14567 0.17210
#
# Static dielectric constant tensor:
#      x y z
#    x 1.585970 0.000000 0.000000 
#    y 0.000000 1.694140 0.000000 
#    z 0.000000 0.000000 1.662590 
# 
# From -- ./inp_files/40192.got.cif
#   From: 2010.05.17/outbox.cif.g08.bks.cpg/sg65_21_cif.got.tgz:40192.got - 2010.06.03 17:01:31.
