data_PCOD9489875
_publ_section_title
;
Structure prediction by ZEFSAII (Michael W. Deem and Ramdas Pophale) SiO2 
 PCOD9489875
Probable space group: C M M M
;
_chemical_formula_sum "Si O2"
_cell_formula_units_Z 64
_cell_length_a 11.917867
_cell_length_b 13.695126
_cell_length_c 16.318171
_cell_angle_alpha 90.000000
_cell_angle_beta 90.000000
_cell_angle_gamma 90.000000
_cell_volume 2663.397861
_symmetry_space_group_name_H-M "C M M M"
_symmetry_group_IT_number 65
_symmetry_cell_setting 'orthorhombic'
loop_
_space_group_symop_operation_xyz
x,y,z
-x,-y,z
x,-y,-z
-x,y,-z
-x,-y,-z
x,y,-z
-x,y,z
x,-y,z
1/2+x,1/2+y,z
1/2-x,1/2-y,z
1/2+x,1/2-y,-z
1/2-x,1/2+y,-z
1/2-x,1/2-y,-z
1/2+x,1/2+y,-z
1/2-x,1/2+y,z
1/2+x,1/2-y,z
loop_
_atom_site_type_symbol
_atom_site_label
_atom_site_fract_x
_atom_site_fract_y
_atom_site_fract_z
Si Si1 0.881145 0.174319 0.347884
Si Si2 0.653678 0.890937 0.594750
Si Si3 0.874328 0.634690 0.096775
Si Si4 0.127767 0.142505 0.845893
O O1 0.786289 0.122782 0.399338
O O2 0.881203 0.292478 0.357984
O O3 0.865977 0.151667 0.252264
O O4 0.000000 0.137379 0.375636
O O5 0.619588 0.883559 0.500000
O O6 0.623857 0.000000 0.625009
O O7 0.873791 0.750258 0.114446
O O8 0.750982 0.601289 0.128936
O O9 0.000000 0.603198 0.128191
O O10 0.874220 0.616053 0.000000
O O11 0.000000 0.103233 0.864576
#
# Coordination Sequence:
#
# PCOD9489875 Si02
#       4
#    16  16  16  16
#     4  10  20  35  54  74 102 140 178 218 267 324
#     4  10  21  35  52  77 105 133 172 221 271 325
#     4   9  15  22  36  62  97 133 168 211 261 310
#     4   9  16  26  42  64  94 135 176 213 259 316
#
# _framework density 24.029454999999999
#
# number of rings (size 3 to 8) (size 9 to 14) (size 15 to 20)
#    0.000    2.500    0.000    6.000    0.000    4.500 
#    0.000    2.500    0.000    0.000    0.000    0.000 
#    0.000   64.000    0.000  312.000    0.000   36.000 
#
# Total GULP energy -178204.661907 kJ/mol
# GULP energy per Si atom -5568.895685 kJ/mol
# Density = 2.397476 g / cm^3
# Si number density = 24.029455 Si / 1000 Ang^3
#
#
#
# Elastic Constant Matrix: (Units=GPa)
#
#
# Indices 1 2 3 4 5 6 
#
# 1 313.6250 40.7695 54.4814 0.0000 0.0000 0.0000
# 2 40.7695 135.5222 7.6950 0.0000 0.0000 0.0000
# 3 54.4814 7.6950 44.5652 0.0000 0.0000 0.0000
# 4 0.0000 0.0000 0.0000 -144.4954 0.0000 0.0000
# 5 0.0000 0.0000 0.0000 0.0000 65.2756 0.0000
# 6 0.0000 0.0000 0.0000 0.0000 0.0000 -66.4469
#
#
#
# Elastic Compliance Matrix: (Units=1/GPa)
#
#
# Indices 1 2 3 4 5 6 
#
# 1 0.004172 -0.000975 -0.004932 0.000000 0.000000 0.000000
# 2 -0.000975 0.007680 -0.000134 0.000000 0.000000 0.000000
# 3 -0.004932 -0.000134 0.028492 0.000000 0.000000 0.000000
# 4 0.000000 0.000000 0.000000 -0.006921 0.000000 0.000000
# 5 0.000000 0.000000 0.000000 0.000000 0.015320 0.000000
# 6 0.000000 0.000000 0.000000 0.000000 0.000000 -0.015050
#
#
# Mechanical properties :
#
#
# Convention : Reuss Voigt Hill
#
# Bulk Modulus (GPa) = 35.38415 77.73383 56.55899
# Shear Modulus (GPa) = 90.58709 -3.08225 43.75242
#
# Velocity S-wave (km/s) = 6.14656 -1.13379 4.27169
# Velocity P-wave (km/s) = 8.07037 5.54127 6.92230
#
# Compressibility (1/GPa) = 0.02826124
#
# Stress axis : x y z
#
# Youngs Moduli (GPa) = 239.69119 130.21165 35.09804
#
# Poissons Ratio (x) = 0.12696 0.17310
# Poissons Ratio (y) = 0.23371 0.00471
# Poissons Ratio (z) = 1.18216 0.01746
#
# Static dielectric constant tensor:
#      x y z
#    x 2.032050 0.000000 0.000000 
#    y 0.000000 1.908070 0.000000 
#    z 0.000000 0.000000 1.855890 
# 
# From -- ./inp_files/50883.got.cif
#   From: 2010.05.17/outbox.cif.g08.bks.cpg/sg65_26_cif.got.tgz:50883.got - 2010.06.03 17:01:31.
