data_PCOD9489008
_publ_section_title
;
Structure prediction by ZEFSAII (Michael W. Deem and Ramdas Pophale) SiO2 
 PCOD9489008
Probable space group: C M M M
;
_chemical_formula_sum "Si O2"
_cell_formula_units_Z 80
_cell_length_a 12.758012
_cell_length_b 28.358969
_cell_length_c 12.407211
_cell_angle_alpha 90.000000
_cell_angle_beta 90.000000
_cell_angle_gamma 90.000000
_cell_volume 4488.979398
_symmetry_space_group_name_H-M "C M M M"
_symmetry_group_IT_number 65
_symmetry_cell_setting 'orthorhombic'
loop_
_space_group_symop_operation_xyz
x,y,z
-x,-y,z
x,-y,-z
-x,y,-z
-x,-y,-z
x,y,-z
-x,y,z
x,-y,z
1/2+x,1/2+y,z
1/2-x,1/2-y,z
1/2+x,1/2-y,-z
1/2-x,1/2+y,-z
1/2-x,1/2-y,-z
1/2+x,1/2+y,-z
1/2-x,1/2+y,z
1/2+x,1/2-y,z
loop_
_atom_site_type_symbol
_atom_site_label
_atom_site_fract_x
_atom_site_fract_y
_atom_site_fract_z
Si Si1 0.123379 0.621661 0.626701
Si Si2 0.382687 0.057154 0.000000
Si Si3 0.244832 0.443875 0.784631
Si Si4 0.704242 0.800823 0.214453
Si Si5 0.882499 0.870064 0.128715
Si Si6 0.879332 0.732397 0.000000
O O1 0.145729 0.625257 0.500000
O O2 0.189663 0.580134 0.682964
O O3 0.153336 0.669413 0.689734
O O4 0.000000 0.612080 0.640830
O O5 0.323767 0.070004 0.109511
O O6 0.500000 0.076164 0.000000
O O7 0.386873 0.000000 0.000000
O O8 0.250581 0.500000 0.776824
O O9 0.354073 0.418564 0.810979
O O10 0.750000 0.750000 0.247463
O O11 0.801067 0.831403 0.169136
O O12 0.625835 0.794273 0.113562
O O13 0.000000 0.855191 0.153115
O O14 0.872742 0.875963 0.000000
O O15 0.750000 0.750000 0.000000
O O16 0.000000 0.756011 0.000000
#
# Coordination Sequence:
#
# PCOD9489008 Si02
#       6
#    16   8  16  16  16   8
#     4  10  22  38  56  80 109 145 192 243 292 343
#     4   9  16  27  47  76 105 134 169 211 268 338
#     4  10  20  35  54  79 110 144 181 227 284 346
#     4  10  21  37  57  84 115 152 192 234 290 350
#     4  10  20  34  53  82 118 150 185 229 279 342
#     4  10  20  33  54  87 120 153 189 234 292 358
#
# _framework density 17.821421999999998
#
# number of rings (size 3 to 8) (size 9 to 14) (size 15 to 20)
#    0.000    2.100    2.000    1.200    0.000    6.400 
#    0.000    5.000    0.000    9.600    0.000    5.600 
#    0.000    0.000    0.000    0.000    0.000    0.000 
#
# Total GULP energy -222851.337194 kJ/mol
# GULP energy per Si atom -5571.283430 kJ/mol
# Density = 1.778086 g / cm^3
# Si number density = 17.821422 Si / 1000 Ang^3
#
#
#
# Elastic Constant Matrix: (Units=GPa)
#
#
# Indices 1 2 3 4 5 6 
#
# 1 90.9535 17.8018 31.8180 0.0000 0.0000 0.0000
# 2 17.8018 93.0889 27.3704 0.0000 0.0000 0.0000
# 3 31.8180 27.3704 94.8765 0.0000 0.0000 0.0000
# 4 0.0000 0.0000 0.0000 19.4902 0.0000 0.0000
# 5 0.0000 0.0000 0.0000 0.0000 17.5610 0.0000
# 6 0.0000 0.0000 0.0000 0.0000 0.0000 11.9407
#
#
#
# Elastic Compliance Matrix: (Units=1/GPa)
#
#
# Indices 1 2 3 4 5 6 
#
# 1 0.012593 -0.001275 -0.003855 0.000000 0.000000 0.000000
# 2 -0.001275 0.011867 -0.002996 0.000000 0.000000 0.000000
# 3 -0.003855 -0.002996 0.012697 0.000000 0.000000 0.000000
# 4 0.000000 0.000000 0.000000 0.051308 0.000000 0.000000
# 5 0.000000 0.000000 0.000000 0.000000 0.056945 0.000000
# 6 0.000000 0.000000 0.000000 0.000000 0.000000 0.083747
#
#
# Mechanical properties :
#
#
# Convention : Reuss Voigt Hill
#
# Bulk Modulus (GPa) = 47.83529 48.09993 47.96761
# Shear Modulus (GPa) = 19.81162 23.26028 21.53595
#
# Velocity S-wave (km/s) = 3.33780 3.61666 3.48002
# Velocity P-wave (km/s) = 6.46175 6.66999 6.56670
#
# Compressibility (1/GPa) = 0.02090507
#
# Stress axis : x y z
#
# Youngs Moduli (GPa) = 79.41016 84.26682 78.75688
#
# Poissons Ratio (x) = 0.10741 0.30364
# Poissons Ratio (y) = 0.10122 0.23596
# Poissons Ratio (z) = 0.30616 0.25247
#
# Static dielectric constant tensor:
#      x y z
#    x 1.664330 0.000000 0.000000 
#    y 0.000000 1.648480 0.000000 
#    z 0.000000 0.000000 1.583840 
# 
# From -- ./inp_files/22893.got.cif
#   From: 2010.05.17/outbox.cif.g08.bks.cpg/sg65_12_cif.got.tgz:22893.got - 2010.06.03 17:01:31.
