data_PCOD9489771
_publ_section_title
;
Structure prediction by ZEFSAII (Michael W. Deem and Ramdas Pophale) SiO2 
 PCOD9489771
Probable space group: C M M M
;
_chemical_formula_sum "Si O2"
_cell_formula_units_Z 56
_cell_length_a 35.007391
_cell_length_b 9.971882
_cell_length_c 7.285084
_cell_angle_alpha 90.000000
_cell_angle_beta 90.000000
_cell_angle_gamma 90.000000
_cell_volume 2543.146857
_symmetry_space_group_name_H-M "C M M M"
_symmetry_group_IT_number 65
_symmetry_cell_setting 'orthorhombic'
loop_
_space_group_symop_operation_xyz
x,y,z
-x,-y,z
x,-y,-z
-x,y,-z
-x,-y,-z
x,y,-z
-x,y,z
x,-y,z
1/2+x,1/2+y,z
1/2-x,1/2-y,z
1/2+x,1/2-y,-z
1/2-x,1/2+y,-z
1/2-x,1/2-y,-z
1/2+x,1/2+y,-z
1/2-x,1/2+y,z
1/2+x,1/2-y,z
loop_
_atom_site_type_symbol
_atom_site_label
_atom_site_fract_x
_atom_site_fract_y
_atom_site_fract_z
Si Si1 0.420669 0.219360 0.209073
Si Si2 0.664456 0.844957 0.221653
Si Si3 0.953874 0.000000 0.278996
Si Si4 0.000000 0.346320 0.204066
Si Si5 0.289558 0.334061 0.500000
O O1 0.379824 0.174907 0.279506
O O2 0.428663 0.376469 0.209925
O O3 0.460255 0.178591 0.301635
O O4 0.421846 0.165749 0.000000
O O5 0.688046 0.729304 0.324760
O O6 0.676005 0.000000 0.265053
O O7 0.666879 0.829728 0.000000
O O8 0.954082 0.000000 0.500000
O O9 0.000000 0.000000 0.227655
O O10 0.000000 0.500000 0.171536
O O11 0.000000 0.276273 0.000000
O O12 0.286976 0.500000 0.500000
O O13 0.250000 0.250000 0.500000
#
# Coordination Sequence:
#
# PCOD9489771 Si02
#       5
#    16  16   8   8   8
#     4  10  20  34  57  85 119 166 219 273 330 386
#     4  10  23  44  71 105 143 181 226 282 342 408
#     4  11  23  35  49  77 125 177 229 285 339 393
#     4   9  16  29  51  78 110 155 212 265 314 372
#     4  12  28  50  78 107 138 177 220 270 339 416
#
# _framework density 22.019964000000002
#
# number of rings (size 3 to 8) (size 9 to 14) (size 15 to 20)
#    0.000    1.714    1.429    2.571    4.000    5.143 
#    0.000    0.000    0.000    0.857    0.000    0.000 
#    0.000    0.000    0.000    0.000    0.000    0.000 
#
# Total GULP energy -155880.552044 kJ/mol
# GULP energy per Si atom -5567.162573 kJ/mol
# Density = 2.196985 g / cm^3
# Si number density = 22.019964 Si / 1000 Ang^3
#
#
#
# Elastic Constant Matrix: (Units=GPa)
#
#
# Indices 1 2 3 4 5 6 
#
# 1 142.9560 48.0363 34.2696 0.0000 0.0000 0.0000
# 2 48.0363 182.9197 32.5127 0.0000 0.0000 0.0000
# 3 34.2696 32.5127 127.5643 0.0000 0.0000 0.0000
# 4 0.0000 0.0000 0.0000 -258.1978 0.0000 0.0000
# 5 0.0000 0.0000 0.0000 0.0000 41.7273 0.0000
# 6 0.0000 0.0000 0.0000 0.0000 0.0000 34.5045
#
#
#
# Elastic Compliance Matrix: (Units=1/GPa)
#
#
# Indices 1 2 3 4 5 6 
#
# 1 0.008006 -0.001802 -0.001692 0.000000 0.000000 0.000000
# 2 -0.001802 0.006132 -0.001079 0.000000 0.000000 0.000000
# 3 -0.001692 -0.001079 0.008569 0.000000 0.000000 0.000000
# 4 0.000000 0.000000 0.000000 -0.003873 0.000000 0.000000
# 5 0.000000 0.000000 0.000000 0.000000 0.023965 0.000000
# 6 0.000000 0.000000 0.000000 0.000000 0.000000 0.028982
#
#
# Mechanical properties :
#
#
# Convention : Reuss Voigt Hill
#
# Bulk Modulus (GPa) = 73.73464 75.89748 74.81606
# Shear Modulus (GPa) = 58.51694 -13.81843 22.34926
#
# Velocity S-wave (km/s) = 5.16064 -2.50779 3.18929
# Velocity P-wave (km/s) = 8.31069 5.11439 6.90017
#
# Compressibility (1/GPa) = 0.01356215
#
# Stress axis : x y z
#
# Youngs Moduli (GPa) = 124.90453 163.08433 116.70558
#
# Poissons Ratio (x) = 0.29385 0.19742
# Poissons Ratio (y) = 0.22505 0.12590
# Poissons Ratio (z) = 0.21129 0.17593
#
# Static dielectric constant tensor:
#      x y z
#    x 1.972320 0.000000 0.000000 
#    y 0.000000 3.232150 0.000000 
#    z 0.000000 0.000000 1.878260 
# 
# From -- ./inp_files/17732.got.cif
#   From: 2010.05.17/outbox.cif.g08.bks.cpg/sg65_9_cif.got.tgz:17732.got - 2010.06.03 17:01:31.
