data_PCOD9489941
_publ_section_title
;
Structure prediction by ZEFSAII (Michael W. Deem and Ramdas Pophale) SiO2 
 PCOD9489941
Probable space group: C M M M
;
_chemical_formula_sum "Si O2"
_cell_formula_units_Z 80
_cell_length_a 16.613066
_cell_length_b 9.225839
_cell_length_c 26.590776
_cell_angle_alpha 90.000000
_cell_angle_beta 90.000000
_cell_angle_gamma 90.000000
_cell_volume 4075.554203
_symmetry_space_group_name_H-M "C M M M"
_symmetry_group_IT_number 65
_symmetry_cell_setting 'orthorhombic'
loop_
_space_group_symop_operation_xyz
x,y,z
-x,-y,z
x,-y,-z
-x,y,-z
-x,-y,-z
x,y,-z
-x,y,z
x,-y,z
1/2+x,1/2+y,z
1/2-x,1/2-y,z
1/2+x,1/2-y,-z
1/2-x,1/2+y,-z
1/2-x,1/2-y,-z
1/2+x,1/2+y,-z
1/2-x,1/2+y,z
1/2+x,1/2-y,z
loop_
_atom_site_type_symbol
_atom_site_label
_atom_site_fract_x
_atom_site_fract_y
_atom_site_fract_z
Si Si1 0.901912 0.831307 0.555993
Si Si2 0.664563 0.827540 0.151807
Si Si3 0.598633 0.833392 0.344560
Si Si4 0.096273 0.163928 0.245977
Si Si5 0.097029 0.833729 0.057235
O O1 0.875746 0.784782 0.500000
O O2 0.874437 0.734774 0.602557
O O3 0.000000 0.826701 0.556023
O O4 0.879897 0.000000 0.563230
O O5 0.750000 0.750000 0.156126
O O6 0.614191 0.762855 0.198068
O O7 0.628273 0.775626 0.098780
O O8 0.669743 0.000000 0.154487
O O9 0.500000 0.830885 0.344506
O O10 0.626401 0.738288 0.297188
O O11 0.623345 0.000000 0.339355
O O12 0.000000 0.153822 0.250676
O O13 0.127963 0.000000 0.239371
O O14 0.000000 0.832129 0.057838
O O15 0.122196 0.000000 0.069211
O O16 0.123009 0.800996 0.000000
#
# Coordination Sequence:
#
# PCOD9489941 Si02
#       5
#    16  16  16  16  16
#     4   8  13  21  33  51  80 120 162 202 249 306
#     4  12  25  39  56  79 109 142 177 218 263 311
#     4   9  16  25  39  62  91 123 163 209 255 305
#     4  10  20  35  55  76 101 135 174 216 263 315
#     4   9  19  38  63  88 114 144 177 213 255 305
#
# _framework density 19.629231999999998
#
# number of rings (size 3 to 8) (size 9 to 14) (size 15 to 20)
#    0.000    2.400    0.000    4.800    0.000    7.600 
#    0.000    3.000    0.000    0.000    0.000    0.000 
#    0.000    0.800    0.000    3.000    0.000    7.000 
#
# Total GULP energy -223237.799067 kJ/mol
# GULP energy per Si atom -5580.944977 kJ/mol
# Density = 1.958456 g / cm^3
# Si number density = 19.629232 Si / 1000 Ang^3
#
#
#
# Elastic Constant Matrix: (Units=GPa)
#
#
# Indices 1 2 3 4 5 6 
#
# 1 5.2065 15.2144 9.4014 0.0000 0.0000 0.0000
# 2 15.2144 180.4310 106.4554 0.0000 0.0000 0.0000
# 3 9.4014 106.4554 146.4412 0.0000 0.0000 0.0000
# 4 0.0000 0.0000 0.0000 -5.5873 0.0000 0.0000
# 5 0.0000 0.0000 0.0000 0.0000 -23.3836 0.0000
# 6 0.0000 0.0000 0.0000 0.0000 0.0000 81.8789
#
#
#
# Elastic Compliance Matrix: (Units=1/GPa)
#
#
# Indices 1 2 3 4 5 6 
#
# 1 0.255011 -0.020739 -0.001295 0.000000 0.000000 0.000000
# 2 -0.020739 0.011391 -0.006949 0.000000 0.000000 0.000000
# 3 -0.001295 -0.006949 0.011964 0.000000 0.000000 0.000000
# 4 0.000000 0.000000 0.000000 -0.178976 0.000000 0.000000
# 5 0.000000 0.000000 0.000000 0.000000 -0.042765 0.000000
# 6 0.000000 0.000000 0.000000 0.000000 0.000000 0.012213
#
#
# Mechanical properties :
#
#
# Convention : Reuss Voigt Hill
#
# Bulk Modulus (GPa) = 4.53723 66.02456 35.28090
# Shear Modulus (GPa) = 24.96605 23.98208 24.47407
#
# Velocity S-wave (km/s) = 3.57021 3.49915 3.53486
# Velocity P-wave (km/s) = 4.39451 7.07349 5.88838
#
# Compressibility (1/GPa) = 0.22039864
#
# Stress axis : x y z
#
# Youngs Moduli (GPa) = 3.92140 87.78644 83.58595
#
# Poissons Ratio (x) = 1.82061 0.10826
# Poissons Ratio (y) = 0.08133 0.58088
# Poissons Ratio (z) = 0.00508 0.61007
#
# Static dielectric constant tensor:
#      x y z
#    x 1.726120 0.000000 0.000000 
#    y 0.000000 1.665360 0.000000 
#    z 0.000000 0.000000 1.694950 
# 
# From -- ./inp_files/72844.got.cif
#   From: 2010.05.17/outbox.cif.g08.bks.cpg/sg65_37_cif.got.tgz:72844.got - 2010.06.03 17:01:31.
