data_PCOD9489210
_publ_section_title
;
Structure prediction by ZEFSAII (Michael W. Deem and Ramdas Pophale) SiO2 
 PCOD9489210
Probable space group: C M M M
;
_chemical_formula_sum "Si O2"
_cell_formula_units_Z 72
_cell_length_a 26.233223
_cell_length_b 18.528820
_cell_length_c 7.759650
_cell_angle_alpha 90.000000
_cell_angle_beta 90.000000
_cell_angle_gamma 90.000000
_cell_volume 3771.738251
_symmetry_space_group_name_H-M "C M M M"
_symmetry_group_IT_number 65
_symmetry_cell_setting 'orthorhombic'
loop_
_space_group_symop_operation_xyz
x,y,z
-x,-y,z
x,-y,-z
-x,y,-z
-x,-y,-z
x,y,-z
-x,y,z
x,-y,z
1/2+x,1/2+y,z
1/2-x,1/2-y,z
1/2+x,1/2-y,-z
1/2-x,1/2+y,-z
1/2-x,1/2-y,-z
1/2+x,1/2+y,-z
1/2-x,1/2+y,z
1/2+x,1/2-y,z
loop_
_atom_site_type_symbol
_atom_site_label
_atom_site_fract_x
_atom_site_fract_y
_atom_site_fract_z
Si Si1 0.163538 0.918541 0.294107
Si Si2 0.635588 0.914713 0.801972
Si Si3 0.558360 0.087510 0.500000
Si Si4 0.238325 0.667935 0.709491
Si Si5 0.945396 0.084164 0.207155
O O1 0.168573 0.922818 0.500000
O O2 0.212940 0.877617 0.229437
O O3 0.108484 0.883084 0.260498
O O4 0.162629 0.000000 0.222990
O O5 0.591621 0.892559 0.667833
O O6 0.686090 0.867082 0.774936
O O7 0.647822 0.000000 0.769058
O O8 0.618604 0.908776 0.000000
O O9 0.500000 0.114247 0.500000
O O10 0.555693 0.000000 0.500000
O O11 0.235841 0.665411 0.500000
O O12 0.250000 0.750000 0.759561
O O13 0.000000 0.115031 0.266149
O O14 0.944510 0.000000 0.265993
O O15 0.945966 0.083491 0.000000
#
# Coordination Sequence:
#
# PCOD9489210 Si02
#       5
#    16  16   8  16  16
#     4   9  17  28  45  70  97 126 163 211 260 306
#     4  10  20  34  56  85 114 146 183 224 276 336
#     4   9  18  34  57  84 114 144 175 224 282 331
#     4  10  20  34  52  74 104 143 184 224 270 323
#     4   8  14  25  41  62  89 120 154 194 240 290
#
# _framework density 19.089341000000001
#
# number of rings (size 3 to 8) (size 9 to 14) (size 15 to 20)
#    0.000    2.778    1.111    1.333    0.000    3.111 
#    0.000    6.667    0.000    1.333    0.000    0.000 
#    0.000    0.000    0.000    0.000    0.000    0.000 
#
# Total GULP energy -200569.668697 kJ/mol
# GULP energy per Si atom -5571.379686 kJ/mol
# Density = 1.904589 g / cm^3
# Si number density = 19.089341 Si / 1000 Ang^3
#
#
#
# Elastic Constant Matrix: (Units=GPa)
#
#
# Indices 1 2 3 4 5 6 
#
# 1 206.8581 53.9243 53.6066 0.0000 0.0000 0.0000
# 2 53.9243 46.6210 25.7824 0.0000 0.0000 0.0000
# 3 53.6066 25.7824 70.7703 0.0000 0.0000 0.0000
# 4 0.0000 0.0000 0.0000 9.7812 0.0000 0.0000
# 5 0.0000 0.0000 0.0000 0.0000 53.3775 0.0000
# 6 0.0000 0.0000 0.0000 0.0000 0.0000 -2.7892
#
#
#
# Elastic Compliance Matrix: (Units=1/GPa)
#
#
# Indices 1 2 3 4 5 6 
#
# 1 0.007436 -0.006870 -0.003130 0.000000 0.000000 0.000000
# 2 -0.006870 0.033209 -0.006894 0.000000 0.000000 0.000000
# 3 -0.003130 -0.006894 0.019013 0.000000 0.000000 0.000000
# 4 0.000000 0.000000 0.000000 0.102237 0.000000 0.000000
# 5 0.000000 0.000000 0.000000 0.000000 0.018734 0.000000
# 6 0.000000 0.000000 0.000000 0.000000 0.000000 -0.358528
#
#
# Mechanical properties :
#
#
# Convention : Reuss Voigt Hill
#
# Bulk Modulus (GPa) = 38.65647 65.65290 52.15469
# Shear Modulus (GPa) = -36.90392 24.80298 -6.05047
#
# Velocity S-wave (km/s) = -4.40161 3.60851 -1.78226
# Velocity P-wave (km/s) = 2.35329 7.19923 4.81097
#
# Compressibility (1/GPa) = 0.02586889
#
# Stress axis : x y z
#
# Youngs Moduli (GPa) = 134.47549 30.11250 52.59652
#
# Poissons Ratio (x) = 0.20688 0.16462
# Poissons Ratio (y) = 0.92389 0.36261
# Poissons Ratio (z) = 0.42089 0.20760
#
# Static dielectric constant tensor:
#      x y z
#    x 1.685130 0.000000 0.000000 
#    y 0.000000 1.641730 0.000000 
#    z 0.000000 0.000000 1.687130 
# 
# From -- ./inp_files/13760.got.cif
#   From: 2010.05.17/outbox.cif.g08.bks.cpg/sg65_7_cif.got.tgz:13760.got - 2010.06.03 17:01:31.
