data_PCOD9489286
_publ_section_title
;
Structure prediction by ZEFSAII (Michael W. Deem and Ramdas Pophale) SiO2 
 PCOD9489286
Probable space group: C M M M
;
_chemical_formula_sum "Si O2"
_cell_formula_units_Z 80
_cell_length_a 26.479212
_cell_length_b 18.974872
_cell_length_c 7.488909
_cell_angle_alpha 90.000000
_cell_angle_beta 90.000000
_cell_angle_gamma 90.000000
_cell_volume 3762.724879
_symmetry_space_group_name_H-M "C M M M"
_symmetry_group_IT_number 65
_symmetry_cell_setting 'orthorhombic'
loop_
_space_group_symop_operation_xyz
x,y,z
-x,-y,z
x,-y,-z
-x,y,-z
-x,-y,-z
x,y,-z
-x,y,z
x,-y,z
1/2+x,1/2+y,z
1/2-x,1/2-y,z
1/2+x,1/2-y,-z
1/2-x,1/2+y,-z
1/2-x,1/2-y,-z
1/2+x,1/2+y,-z
1/2-x,1/2+y,z
1/2+x,1/2-y,z
loop_
_atom_site_type_symbol
_atom_site_label
_atom_site_fract_x
_atom_site_fract_y
_atom_site_fract_z
Si Si1 0.653631 0.919826 0.284444
Si Si2 0.556688 0.328147 0.785760
Si Si3 0.752955 0.829338 0.787898
Si Si4 0.848617 0.081095 0.781068
Si Si5 0.556741 0.835569 0.286466
O O1 0.651108 0.921829 0.500000
O O2 0.701117 0.871337 0.237815
O O3 0.601588 0.884785 0.218267
O O4 0.660075 0.000000 0.220846
O O5 0.500000 0.342429 0.717286
O O6 0.600415 0.379761 0.721437
O O7 0.568789 0.246511 0.746990
O O8 0.555025 0.335218 0.000000
O O9 0.750000 0.750000 0.714576
O O10 0.800005 0.874884 0.719136
O O11 0.761579 0.822764 0.000000
O O12 0.846346 0.000000 0.724812
O O13 0.848524 0.081119 0.000000
O O14 0.554690 0.845132 0.500000
O O15 0.500000 0.849299 0.216539
#
# Coordination Sequence:
#
# PCOD9489286 Si02
#       5
#    16  16  16  16  16
#     4  10  21  35  51  74 102 129 161 203 247 290
#     4   9  17  30  50  74  97 123 159 202 241 279
#     4  10  20  34  53  74  97 130 169 204 242 292
#     4   9  17  29  46  70  99 128 159 196 239 288
#     4   9  18  33  52  72  96 128 162 196 239 291
#
# _framework density 21.261185999999999
#
# number of rings (size 3 to 8) (size 9 to 14) (size 15 to 20)
#    0.000    2.600    0.000    1.800    0.000    4.800 
#    0.000    5.000    0.000    1.800    0.000    7.000 
#    0.000    0.000    0.000    0.000    0.000    0.000 
#
# Total GULP energy -223415.114663 kJ/mol
# GULP energy per Si atom -5585.377867 kJ/mol
# Density = 2.121279 g / cm^3
# Si number density = 21.261186 Si / 1000 Ang^3
#
#
#
# Elastic Constant Matrix: (Units=GPa)
#
#
# Indices 1 2 3 4 5 6 
#
# 1 168.6678 140.4051 -4.2241 0.0000 0.0000 0.0000
# 2 140.4051 206.4302 -3.5328 0.0000 0.0000 0.0000
# 3 -4.2241 -3.5328 56.5036 0.0000 0.0000 0.0000
# 4 0.0000 0.0000 0.0000 13.7650 0.0000 0.0000
# 5 0.0000 0.0000 0.0000 0.0000 12.2397 0.0000
# 6 0.0000 0.0000 0.0000 0.0000 0.0000 1020.5631
#
#
#
# Elastic Compliance Matrix: (Units=1/GPa)
#
#
# Indices 1 2 3 4 5 6 
#
# 1 0.013678 -0.009295 0.000441 0.000000 0.000000 0.000000
# 2 -0.009295 0.011167 0.000003 0.000000 0.000000 0.000000
# 3 0.000441 0.000003 0.017731 0.000000 0.000000 0.000000
# 4 0.000000 0.000000 0.000000 0.072648 0.000000 0.000000
# 5 0.000000 0.000000 0.000000 0.000000 0.081702 0.000000
# 6 0.000000 0.000000 0.000000 0.000000 0.000000 0.000980
#
#
# Mechanical properties :
#
#
# Convention : Reuss Voigt Hill
#
# Bulk Modulus (GPa) = 40.20278 77.43311 58.81794
# Shear Modulus (GPa) = 22.33157 229.24379 125.78768
#
# Velocity S-wave (km/s) = 3.24442 10.39503 7.70010
# Velocity P-wave (km/s) = 5.74326 13.43781 10.33343
#
# Compressibility (1/GPa) = 0.02487390
#
# Stress axis : x y z
#
# Youngs Moduli (GPa) = 73.11143 89.55197 56.39780
#
# Poissons Ratio (x) = 0.83243 -0.02489
# Poissons Ratio (y) = 0.67961 -0.00018
# Poissons Ratio (z) = -0.03227 -0.00029
#
# Static dielectric constant tensor:
#      x y z
#    x 1.744410 0.000000 0.000000 
#    y 0.000000 1.718650 0.000000 
#    z 0.000000 0.000000 1.845800 
# 
# From -- ./inp_files/9598.got.cif
#   From: 2010.05.17/outbox.cif.g08.bks.cpg/sg65_5_cif.got.tgz:9598.got - 2010.06.03 17:01:31.
