data_PCOD9489254
_publ_section_title
;
Structure prediction by ZEFSAII (Michael W. Deem and Ramdas Pophale) SiO2 
 PCOD9489254
Probable space group: C M M M
;
_chemical_formula_sum "Si O2"
_cell_formula_units_Z 96
_cell_length_a 28.638326
_cell_length_b 13.505801
_cell_length_c 14.814672
_cell_angle_alpha 90.000000
_cell_angle_beta 90.000000
_cell_angle_gamma 90.000000
_cell_volume 5730.071161
_symmetry_space_group_name_H-M "C M M M"
_symmetry_group_IT_number 65
_symmetry_cell_setting 'orthorhombic'
loop_
_space_group_symop_operation_xyz
x,y,z
-x,-y,z
x,-y,-z
-x,y,-z
-x,-y,-z
x,y,-z
-x,y,z
x,-y,z
1/2+x,1/2+y,z
1/2-x,1/2-y,z
1/2+x,1/2-y,-z
1/2-x,1/2+y,-z
1/2-x,1/2-y,-z
1/2+x,1/2+y,-z
1/2-x,1/2+y,z
1/2+x,1/2-y,z
loop_
_atom_site_type_symbol
_atom_site_label
_atom_site_fract_x
_atom_site_fract_y
_atom_site_fract_z
Si Si1 0.250008 0.500000 0.391200
Si Si2 0.137895 0.500000 0.607621
Si Si3 0.050709 0.115585 0.858894
Si Si4 0.126824 0.717767 0.604500
Si Si5 0.706713 0.680761 0.278546
Si Si6 0.347021 0.619335 0.098354
Si Si7 0.946129 0.111537 0.359087
O O1 0.257148 0.500000 0.500000
O O2 0.193886 0.500000 0.374944
O O3 0.273766 0.406711 0.342089
O O4 0.131415 0.500000 0.500000
O O5 0.116762 0.605524 0.637972
O O6 0.099546 0.157948 0.893251
O O7 0.053768 0.115539 0.750010
O O8 0.000000 0.158972 0.884596
O O9 0.049585 0.000000 0.886767
O O10 0.142073 0.710840 0.500000
O O11 0.168343 0.760646 0.664110
O O12 0.085114 0.797453 0.608890
O O13 0.750000 0.750000 0.256237
O O14 0.682554 0.647278 0.185757
O O15 0.349721 0.500000 0.099523
O O16 0.328053 0.649639 0.000000
O O17 0.000000 0.119915 0.388603
O O18 0.929169 0.000000 0.384264
#
# Coordination Sequence:
#
# PCOD9489254 Si02
#       7
#     8   8  16  16  16  16  16
#     4  11  22  36  53  78 110 137 177 232 279 325
#     4   9  20  38  53  73 104 138 184 232 271 313
#     4   8  14  27  48  74 105 137 167 205 258 317
#     4  11  22  35  54  79 107 143 182 224 271 326
#     4  12  23  36  55  77 105 143 181 224 279 323
#     4  10  20  34  52  76 108 142 177 218 268 328
#     4   9  18  33  53  79 112 144 175 217 269 328
#
# _framework density 16.753719
#
# number of rings (size 3 to 8) (size 9 to 14) (size 15 to 20)
#    0.000    2.000    4.167    1.500    1.167    2.000 
#    0.000    2.917    0.000    1.500    0.000    0.000 
#    0.000    0.000    0.000    3.667    0.000    0.333 
#
# Total GULP energy -267402.531295 kJ/mol
# GULP energy per Si atom -5570.886069 kJ/mol
# Density = 1.671559 g / cm^3
# Si number density = 16.753719 Si / 1000 Ang^3
#
#
#
# Elastic Constant Matrix: (Units=GPa)
#
#
# Indices 1 2 3 4 5 6 
#
# 1 83.7944 49.1007 36.9724 0.0000 0.0000 0.0000
# 2 49.1007 111.5798 27.5996 0.0000 0.0000 0.0000
# 3 36.9724 27.5996 103.4442 0.0000 0.0000 0.0000
# 4 0.0000 0.0000 0.0000 32.6458 0.0000 0.0000
# 5 0.0000 0.0000 0.0000 0.0000 -16.1908 0.0000
# 6 0.0000 0.0000 0.0000 0.0000 0.0000 23.6173
#
#
#
# Elastic Compliance Matrix: (Units=1/GPa)
#
#
# Indices 1 2 3 4 5 6 
#
# 1 0.017919 -0.006746 -0.004604 0.000000 0.000000 0.000000
# 2 -0.006746 0.012135 -0.000827 0.000000 0.000000 0.000000
# 3 -0.004604 -0.000827 0.011533 0.000000 0.000000 0.000000
# 4 0.000000 0.000000 0.000000 0.030632 0.000000 0.000000
# 5 0.000000 0.000000 0.000000 0.000000 -0.061763 0.000000
# 6 0.000000 0.000000 0.000000 0.000000 0.000000 0.042342
#
#
# Mechanical properties :
#
#
# Convention : Reuss Voigt Hill
#
# Bulk Modulus (GPa) = 58.02897 58.46266 58.24581
# Shear Modulus (GPa) = 60.31634 20.35749 40.33692
#
# Velocity S-wave (km/s) = 6.00666 3.48961 4.91209
# Velocity P-wave (km/s) = 9.10045 7.15595 8.18614
#
# Compressibility (1/GPa) = 0.01723277
#
# Stress axis : x y z
#
# Youngs Moduli (GPa) = 55.80792 82.40416 86.70558
#
# Poissons Ratio (x) = 0.55591 0.39923
# Poissons Ratio (y) = 0.37649 0.07167
# Poissons Ratio (z) = 0.25696 0.06812
#
# Static dielectric constant tensor:
#      x y z
#    x 1.581170 0.000000 0.000000 
#    y 0.000000 1.574300 0.000000 
#    z 0.000000 0.000000 1.581510 
# 
# From -- ./inp_files/47733.got.cif
#   From: 2010.05.17/outbox.cif.g08.bks.cpg/sg65_24_cif.got.tgz:47733.got - 2010.06.03 17:01:31.
