data_PCOD9489171
_publ_section_title
;
Structure prediction by ZEFSAII (Michael W. Deem and Ramdas Pophale) SiO2 
 PCOD9489171
Probable space group: C M M M
;
_chemical_formula_sum "Si O2"
_cell_formula_units_Z 88
_cell_length_a 9.114869
_cell_length_b 17.280241
_cell_length_c 29.603386
_cell_angle_alpha 90.000000
_cell_angle_beta 90.000000
_cell_angle_gamma 90.000000
_cell_volume 4662.744456
_symmetry_space_group_name_H-M "C M M M"
_symmetry_group_IT_number 65
_symmetry_cell_setting 'orthorhombic'
loop_
_space_group_symop_operation_xyz
x,y,z
-x,-y,z
x,-y,-z
-x,y,-z
-x,-y,-z
x,y,-z
-x,y,z
x,-y,z
1/2+x,1/2+y,z
1/2-x,1/2-y,z
1/2+x,1/2-y,-z
1/2-x,1/2+y,-z
1/2-x,1/2-y,-z
1/2+x,1/2+y,-z
1/2-x,1/2+y,z
1/2+x,1/2-y,z
loop_
_atom_site_type_symbol
_atom_site_label
_atom_site_fract_x
_atom_site_fract_y
_atom_site_fract_z
Si Si1 0.321909 0.590145 0.549523
Si Si2 0.832960 0.407110 0.726432
Si Si3 0.330718 0.405443 0.000000
Si Si4 0.669297 0.594609 0.816933
Si Si5 0.330751 0.905464 0.908507
Si Si6 0.823359 0.167424 0.357029
O O1 0.272464 0.619000 0.500000
O O2 0.500000 0.591960 0.549303
O O3 0.279387 0.500000 0.553410
O O4 0.274897 0.635545 0.593887
O O5 0.839311 0.500000 0.729208
O O6 0.758018 0.379187 0.772777
O O7 0.736333 0.385269 0.683340
O O8 0.000000 0.377951 0.721921
O O9 0.248730 0.380377 0.954463
O O10 0.329006 0.500000 0.000000
O O11 0.500000 0.381340 0.000000
O O12 0.500000 0.618772 0.814956
O O13 0.670799 0.500000 0.816777
O O14 0.745839 0.619360 0.863441
O O15 0.500000 0.881241 0.907558
O O16 0.329304 0.000000 0.908570
O O17 0.750000 0.250000 0.350285
O O18 0.000000 0.170877 0.355951
#
# Coordination Sequence:
#
# PCOD9489171 Si02
#       6
#    16  16   8  16  16  16
#     4   8  15  30  53  79 104 132 169 210 249 292
#     4  10  20  34  52  73  97 126 163 208 255 302
#     4   9  15  21  29  43  67 103 146 189 234 287
#     4   9  16  26  41  61  84 112 150 195 241 291
#     4   9  15  22  32  48  73 106 145 189 237 288
#     4  11  22  35  52  75 104 137 171 207 250 299
#
# _framework density 18.873006
#
# number of rings (size 3 to 8) (size 9 to 14) (size 15 to 20)
#    0.000    2.636    0.000    3.545    0.000    7.636 
#    0.000    0.000    0.000    1.636    0.000    6.364 
#    0.000    0.000    0.000    0.818    0.000   12.364 
#
# Total GULP energy -245380.670109 kJ/mol
# GULP energy per Si atom -5576.833412 kJ/mol
# Density = 1.883005 g / cm^3
# Si number density = 18.873006 Si / 1000 Ang^3
#
#
#
# Elastic Constant Matrix: (Units=GPa)
#
#
# Indices 1 2 3 4 5 6 
#
# 1 125.7924 11.9372 73.0069 0.0000 0.0000 0.0000
# 2 11.9372 4.2802 12.7469 0.0000 0.0000 0.0000
# 3 73.0069 12.7469 167.6876 0.0000 0.0000 0.0000
# 4 0.0000 0.0000 0.0000 -10.0584 0.0000 0.0000
# 5 0.0000 0.0000 0.0000 0.0000 7.0432 0.0000
# 6 0.0000 0.0000 0.0000 0.0000 0.0000 9.5254
#
#
#
# Elastic Compliance Matrix: (Units=1/GPa)
#
#
# Indices 1 2 3 4 5 6 
#
# 1 0.012242 -0.023616 -0.003535 0.000000 0.000000 0.000000
# 2 -0.023616 0.347561 -0.016139 0.000000 0.000000 0.000000
# 3 -0.003535 -0.016139 0.008729 0.000000 0.000000 0.000000
# 4 0.000000 0.000000 0.000000 -0.099419 0.000000 0.000000
# 5 0.000000 0.000000 0.000000 0.000000 0.141981 0.000000
# 6 0.000000 0.000000 0.000000 0.000000 0.000000 0.104983
#
#
# Mechanical properties :
#
#
# Convention : Reuss Voigt Hill
#
# Bulk Modulus (GPa) = 3.54667 54.79359 29.17013
# Shear Modulus (GPa) = 7.17731 14.63998 10.90864
#
# Velocity S-wave (km/s) = 1.95223 2.78818 2.40678
# Velocity P-wave (km/s) = 2.63911 6.28180 4.81799
#
# Compressibility (1/GPa) = 0.28195461
#
# Stress axis : x y z
#
# Youngs Moduli (GPa) = 81.68521 2.87719 114.55825
#
# Poissons Ratio (x) = 0.06795 0.40493
# Poissons Ratio (y) = 1.92906 1.84880
# Poissons Ratio (z) = 0.28873 0.04643
#
# Static dielectric constant tensor:
#      x y z
#    x 1.638950 0.000000 0.000000 
#    y 0.000000 1.658470 0.000000 
#    z 0.000000 0.000000 1.645780 
# 
# From -- ./inp_files/76481.got.cif
#   From: 2010.05.17/outbox.cif.g08.bks.cpg/sg65_39_cif.got.tgz:76481.got - 2010.06.03 17:01:31.
