data_PCOD9489401
_publ_section_title
;
Structure prediction by ZEFSAII (Michael W. Deem and Ramdas Pophale) SiO2 
 PCOD9489401
Probable space group: C M M M
;
_chemical_formula_sum "Si O2"
_cell_formula_units_Z 88
_cell_length_a 28.013819
_cell_length_b 14.390556
_cell_length_c 13.207934
_cell_angle_alpha 90.000000
_cell_angle_beta 90.000000
_cell_angle_gamma 90.000000
_cell_volume 5324.572959
_symmetry_space_group_name_H-M "C M M M"
_symmetry_group_IT_number 65
_symmetry_cell_setting 'orthorhombic'
loop_
_space_group_symop_operation_xyz
x,y,z
-x,-y,z
x,-y,-z
-x,y,-z
-x,-y,-z
x,y,-z
-x,y,z
x,-y,z
1/2+x,1/2+y,z
1/2-x,1/2-y,z
1/2+x,1/2-y,-z
1/2-x,1/2+y,-z
1/2-x,1/2-y,-z
1/2+x,1/2+y,-z
1/2-x,1/2+y,z
1/2+x,1/2-y,z
loop_
_atom_site_type_symbol
_atom_site_label
_atom_site_fract_x
_atom_site_fract_y
_atom_site_fract_z
Si Si1 0.556853 0.696965 0.385768
Si Si2 0.054909 0.113234 0.000000
Si Si3 0.443359 0.896113 0.307267
Si Si4 0.614158 0.388847 0.199739
Si Si5 0.878966 0.607414 0.112414
Si Si6 0.696032 0.729439 0.118784
O O1 0.567154 0.665070 0.500000
O O2 0.500000 0.682709 0.366768
O O3 0.566382 0.807732 0.377446
O O4 0.587783 0.647342 0.299882
O O5 0.083151 0.141800 0.898929
O O6 0.000000 0.145016 0.000000
O O7 0.054185 0.000000 0.000000
O O8 0.500000 0.897027 0.289945
O O9 0.416530 0.878860 0.201699
O O10 0.430002 0.000000 0.344651
O O11 0.616123 0.500000 0.200511
O O12 0.666324 0.345140 0.183002
O O13 0.863286 0.500000 0.117010
O O14 0.834944 0.676592 0.124704
O O15 0.899792 0.623346 0.000000
O O16 0.750000 0.750000 0.150968
O O17 0.697173 0.700003 0.000000
#
# Coordination Sequence:
#
# PCOD9489401 Si02
#       6
#    16   8  16  16  16  16
#     4  10  21  36  54  79 111 146 184 223 267 323
#     4   9  18  32  51  76 107 141 176 217 262 312
#     4   9  17  30  50  76 105 137 174 215 260 313
#     4  11  21  35  54  79 110 143 184 226 270 321
#     4   9  17  30  48  73 105 135 165 205 259 321
#     4  10  20  34  53  78 108 140 176 218 267 321
#
# _framework density 16.527148
#
# number of rings (size 3 to 8) (size 9 to 14) (size 15 to 20)
#    0.000    2.273    2.727    0.545    0.000    2.909 
#    0.000    6.364    0.000    0.545    0.000    0.000 
#    0.000    0.000    0.000    0.000    0.000    0.000 
#
# Total GULP energy -245308.256946 kJ/mol
# GULP energy per Si atom -5575.187658 kJ/mol
# Density = 1.648953 g / cm^3
# Si number density = 16.527148 Si / 1000 Ang^3
#
#
#
# Elastic Constant Matrix: (Units=GPa)
#
#
# Indices 1 2 3 4 5 6 
#
# 1 73.8493 37.4339 52.1307 0.0000 0.0000 0.0000
# 2 37.4339 68.0119 43.4623 0.0000 0.0000 0.0000
# 3 52.1307 43.4623 100.9845 0.0000 0.0000 0.0000
# 4 0.0000 0.0000 0.0000 17.3697 0.0000 0.0000
# 5 0.0000 0.0000 0.0000 0.0000 14.0914 0.0000
# 6 0.0000 0.0000 0.0000 0.0000 0.0000 15.1279
#
#
#
# Elastic Compliance Matrix: (Units=1/GPa)
#
#
# Indices 1 2 3 4 5 6 
#
# 1 0.023598 -0.007178 -0.009093 0.000000 0.000000 0.000000
# 2 -0.007178 0.022465 -0.005963 0.000000 0.000000 0.000000
# 3 -0.009093 -0.005963 0.017163 0.000000 0.000000 0.000000
# 4 0.000000 0.000000 0.000000 0.057571 0.000000 0.000000
# 5 0.000000 0.000000 0.000000 0.000000 0.070965 0.000000
# 6 0.000000 0.000000 0.000000 0.000000 0.000000 0.066103
#
#
# Mechanical properties :
#
#
# Convention : Reuss Voigt Hill
#
# Bulk Modulus (GPa) = 53.30968 56.54440 54.92704
# Shear Modulus (GPa) = 16.20297 16.63905 16.42101
#
# Velocity S-wave (km/s) = 3.13451 3.17641 3.15553
# Velocity P-wave (km/s) = 6.73988 6.90942 6.82518
#
# Compressibility (1/GPa) = 0.01875832
#
# Stress axis : x y z
#
# Youngs Moduli (GPa) = 42.37634 44.51427 58.26554
#
# Poissons Ratio (x) = 0.31952 0.52979
# Poissons Ratio (y) = 0.30417 0.34744
# Poissons Ratio (z) = 0.38531 0.26544
#
# Static dielectric constant tensor:
#      x y z
#    x 1.523770 0.000000 0.000000 
#    y 0.000000 1.591270 0.000000 
#    z 0.000000 0.000000 1.549820 
# 
# From -- ./inp_files/25129.got.cif
#   From: 2010.05.17/outbox.cif.g08.bks.cpg/sg65_13_cif.got.tgz:25129.got - 2010.06.03 17:01:31.
