data_PCOD9489633
_publ_section_title
;
Structure prediction by ZEFSAII (Michael W. Deem and Ramdas Pophale) SiO2 
 PCOD9489633
Probable space group: C M M M
;
_chemical_formula_sum "Si O2"
_cell_formula_units_Z 72
_cell_length_a 14.859730
_cell_length_b 24.751352
_cell_length_c 10.594537
_cell_angle_alpha 90.000000
_cell_angle_beta 90.000000
_cell_angle_gamma 90.000000
_cell_volume 3896.653841
_symmetry_space_group_name_H-M "C M M M"
_symmetry_group_IT_number 65
_symmetry_cell_setting 'orthorhombic'
loop_
_space_group_symop_operation_xyz
x,y,z
-x,-y,z
x,-y,-z
-x,y,-z
-x,-y,-z
x,y,-z
-x,y,z
x,-y,z
1/2+x,1/2+y,z
1/2-x,1/2-y,z
1/2+x,1/2-y,-z
1/2-x,1/2+y,-z
1/2-x,1/2-y,-z
1/2+x,1/2+y,-z
1/2-x,1/2+y,z
1/2+x,1/2-y,z
loop_
_atom_site_type_symbol
_atom_site_label
_atom_site_fract_x
_atom_site_fract_y
_atom_site_fract_z
Si Si1 0.705794 0.618009 0.231483
Si Si2 0.402258 0.880903 0.500000
Si Si3 0.103440 0.935495 0.000000
Si Si4 0.105761 0.781458 0.147646
Si Si5 0.719306 0.436803 0.500000
Si Si6 0.102542 0.657728 0.223525
O O1 0.651854 0.586325 0.124584
O O2 0.667710 0.679059 0.228620
O O3 0.690558 0.591719 0.369016
O O4 0.811370 0.620849 0.191803
O O5 0.500000 0.907070 0.500000
O O6 0.326421 0.926029 0.500000
O O7 0.395367 0.844446 0.375723
O O8 0.000000 0.916822 0.000000
O O9 0.105269 0.000000 0.000000
O O10 0.118455 0.718142 0.174629
O O11 0.000000 0.793156 0.169973
O O12 0.125488 0.791523 0.000000
O O13 0.696896 0.500000 0.500000
O O14 0.000000 0.641602 0.184591
#
# Coordination Sequence:
#
# PCOD9489633 Si02
#       6
#    16   8   8  16   8  16
#     4  11  21  37  61  82 113 150 189 236 281 336
#     4   8  16  34  55  78 112 153 188 221 273 342
#     4  11  24  42  62  81 105 145 194 240 288 337
#     4  10  20  34  54  82 116 152 191 229 273 337
#     4  10  22  38  56  83 111 142 191 245 292 329
#     4   9  19  33  54  86 120 151 182 222 276 338
#
# _framework density 18.477391999999998
#
# number of rings (size 3 to 8) (size 9 to 14) (size 15 to 20)
#    0.000    2.111    1.111    2.000    1.556    2.000 
#    0.000    6.667    0.000    6.667    0.000    0.000 
#    0.000    0.000    0.000    0.000    0.000    0.000 
#
# Total GULP energy -200716.257503 kJ/mol
# GULP energy per Si atom -5575.451597 kJ/mol
# Density = 1.843534 g / cm^3
# Si number density = 18.477392 Si / 1000 Ang^3
#
#
#
# Elastic Constant Matrix: (Units=GPa)
#
#
# Indices 1 2 3 4 5 6 
#
# 1 108.1180 47.9200 75.0679 0.0000 0.0000 0.0000
# 2 47.9200 61.4419 36.8673 0.0000 0.0000 0.0000
# 3 75.0679 36.8673 95.3618 0.0000 0.0000 0.0000
# 4 0.0000 0.0000 0.0000 21.7289 0.0000 0.0000
# 5 0.0000 0.0000 0.0000 0.0000 26.6451 0.0000
# 6 0.0000 0.0000 0.0000 0.0000 0.0000 18.8648
#
#
#
# Elastic Compliance Matrix: (Units=1/GPa)
#
#
# Indices 1 2 3 4 5 6 
#
# 1 0.024122 -0.009660 -0.015254 0.000000 0.000000 0.000000
# 2 -0.009660 0.025060 -0.002084 0.000000 0.000000 0.000000
# 3 -0.015254 -0.002084 0.023299 0.000000 0.000000 0.000000
# 4 0.000000 0.000000 0.000000 0.046022 0.000000 0.000000
# 5 0.000000 0.000000 0.000000 0.000000 0.037530 0.000000
# 6 0.000000 0.000000 0.000000 0.000000 0.000000 0.053009
#
#
# Mechanical properties :
#
#
# Convention : Reuss Voigt Hill
#
# Bulk Modulus (GPa) = 54.09565 64.95913 59.52739
# Shear Modulus (GPa) = 18.57359 20.45220 19.51289
#
# Velocity S-wave (km/s) = 3.17394 3.33059 3.25320
# Velocity P-wave (km/s) = 6.54004 7.07267 6.81156
#
# Compressibility (1/GPa) = 0.01848577
#
# Stress axis : x y z
#
# Youngs Moduli (GPa) = 41.45668 39.90375 42.91939
#
# Poissons Ratio (x) = 0.38548 0.65467
# Poissons Ratio (y) = 0.40048 0.08944
# Poissons Ratio (z) = 0.63236 0.08316
#
# Static dielectric constant tensor:
#      x y z
#    x 1.689180 0.000000 0.000000 
#    y 0.000000 1.625250 0.000000 
#    z 0.000000 0.000000 1.621060 
# 
# From -- ./inp_files/7370.got.cif
#   From: 2010.05.17/outbox.cif.g08.bks.cpg/sg65_4_cif.got.tgz:7370.got - 2010.06.03 17:01:31.
