data_PCOD9489601
_publ_section_title
;
Structure prediction by ZEFSAII (Michael W. Deem and Ramdas Pophale) SiO2 
 PCOD9489601
Probable space group: C M M M
;
_chemical_formula_sum "Si O2"
_cell_formula_units_Z 88
_cell_length_a 18.230154
_cell_length_b 8.947887
_cell_length_c 29.212839
_cell_angle_alpha 90.000000
_cell_angle_beta 90.000000
_cell_angle_gamma 90.000000
_cell_volume 4765.237968
_symmetry_space_group_name_H-M "C M M M"
_symmetry_group_IT_number 65
_symmetry_cell_setting 'orthorhombic'
loop_
_space_group_symop_operation_xyz
x,y,z
-x,-y,z
x,-y,-z
-x,y,-z
-x,-y,-z
x,y,-z
-x,y,z
x,-y,z
1/2+x,1/2+y,z
1/2-x,1/2-y,z
1/2+x,1/2-y,-z
1/2-x,1/2+y,-z
1/2-x,1/2-y,-z
1/2+x,1/2+y,-z
1/2-x,1/2+y,z
1/2+x,1/2-y,z
loop_
_atom_site_type_symbol
_atom_site_label
_atom_site_fract_x
_atom_site_fract_y
_atom_site_fract_z
Si Si1 0.669653 0.677884 0.729453
Si Si2 0.169671 0.680229 0.908515
Si Si3 0.584348 0.182221 0.000000
Si Si4 0.913510 0.679122 0.814792
Si Si5 0.589098 0.674416 0.449317
Si Si6 0.588209 0.824492 0.644612
O O1 0.675224 0.500000 0.730328
O O2 0.750000 0.750000 0.730583
O O3 0.624666 0.736396 0.773177
O O4 0.628054 0.732122 0.683914
O O5 0.175654 0.500000 0.909954
O O6 0.250000 0.750000 0.907034
O O7 0.124546 0.718799 0.862839
O O8 0.126684 0.729068 0.954175
O O9 0.500000 0.232167 0.000000
O O10 0.583293 0.000000 0.000000
O O11 0.904830 0.500000 0.807984
O O12 0.000000 0.710975 0.816438
O O13 0.614031 0.723993 0.500000
O O14 0.500000 0.680224 0.449939
O O15 0.609020 0.500000 0.443331
O O16 0.612512 0.770059 0.405745
O O17 0.500000 0.802834 0.648061
O O18 0.603130 0.000000 0.650547
#
# Coordination Sequence:
#
# PCOD9489601 Si02
#       6
#    16  16   8  16  16  16
#     4  12  25  40  58  79 106 141 181 224 273 329
#     4  10  20  34  55  82 112 147 184 225 273 325
#     4   9  17  32  55  81 108 143 190 234 272 321
#     4  10  21  38  59  83 111 142 179 224 273 325
#     4   8  14  26  46  74 108 144 182 224 268 315
#     4  10  20  34  54  81 112 144 180 224 272 323
#
# _framework density 18.467072999999999
#
# number of rings (size 3 to 8) (size 9 to 14) (size 15 to 20)
#    0.000    2.091    0.000    4.636    0.000    8.364 
#    0.000    1.818    0.000    2.727    0.000    0.000 
#    0.000    0.000    0.000    0.000    0.000    0.000 
#
# Total GULP energy -245707.098761 kJ/mol
# GULP energy per Si atom -5584.252245 kJ/mol
# Density = 1.842504 g / cm^3
# Si number density = 18.467073 Si / 1000 Ang^3
#
#
#
# Elastic Constant Matrix: (Units=GPa)
#
#
# Indices 1 2 3 4 5 6 
#
# 1 109.9062 65.9616 85.3154 0.0000 0.0000 0.0000
# 2 65.9616 73.3736 81.8984 0.0000 0.0000 0.0000
# 3 85.3154 81.8984 191.5042 0.0000 0.0000 0.0000
# 4 0.0000 0.0000 0.0000 121.7927 0.0000 0.0000
# 5 0.0000 0.0000 0.0000 0.0000 -44.4250 0.0000
# 6 0.0000 0.0000 0.0000 0.0000 0.0000 28.4544
#
#
#
# Elastic Compliance Matrix: (Units=1/GPa)
#
#
# Indices 1 2 3 4 5 6 
#
# 1 0.020308 -0.015609 -0.002372 0.000000 0.000000 0.000000
# 2 -0.015609 0.038073 -0.009329 0.000000 0.000000 0.000000
# 3 -0.002372 -0.009329 0.010268 0.000000 0.000000 0.000000
# 4 0.000000 0.000000 0.000000 0.008211 0.000000 0.000000
# 5 0.000000 0.000000 0.000000 0.000000 -0.022510 0.000000
# 6 0.000000 0.000000 0.000000 0.000000 0.000000 0.035144
#
#
# Mechanical properties :
#
#
# Convention : Reuss Voigt Hill
#
# Bulk Modulus (GPa) = 71.27384 93.45942 82.36663
# Shear Modulus (GPa) = 33.60454 30.60500 32.10477
#
# Velocity S-wave (km/s) = 4.27042 4.07538 4.17404
# Velocity P-wave (km/s) = 7.93689 8.53601 8.24190
#
# Compressibility (1/GPa) = 0.01403039
#
# Stress axis : x y z
#
# Youngs Moduli (GPa) = 49.24249 26.26500 97.39017
#
# Poissons Ratio (x) = 0.40997 0.23099
# Poissons Ratio (y) = 0.76862 0.90852
# Poissons Ratio (z) = 0.11680 0.24502
#
# Static dielectric constant tensor:
#      x y z
#    x 1.608970 0.000000 0.000000 
#    y 0.000000 1.620390 0.000000 
#    z 0.000000 0.000000 1.627870 
# 
# From -- ./inp_files/77792.got.cif
#   From: 2010.05.17/outbox.cif.g08.bks.cpg/sg65_39_cif.got.tgz:77792.got - 2010.06.03 17:01:31.
