data_PCOD9489426
_publ_section_title
;
Structure prediction by ZEFSAII (Michael W. Deem and Ramdas Pophale) SiO2 
 PCOD9489426
Probable space group: C M M M
;
_chemical_formula_sum "Si O2"
_cell_formula_units_Z 48
_cell_length_a 15.092354
_cell_length_b 15.110886
_cell_length_c 9.738178
_cell_angle_alpha 90.000000
_cell_angle_beta 90.000000
_cell_angle_gamma 90.000000
_cell_volume 2220.877586
_symmetry_space_group_name_H-M "C M M M"
_symmetry_group_IT_number 65
_symmetry_cell_setting 'orthorhombic'
loop_
_space_group_symop_operation_xyz
x,y,z
-x,-y,z
x,-y,-z
-x,y,-z
-x,-y,-z
x,y,-z
-x,y,z
x,-y,z
1/2+x,1/2+y,z
1/2-x,1/2-y,z
1/2+x,1/2-y,-z
1/2-x,1/2+y,-z
1/2-x,1/2-y,-z
1/2+x,1/2+y,-z
1/2-x,1/2+y,z
1/2+x,1/2-y,z
loop_
_atom_site_type_symbol
_atom_site_label
_atom_site_fract_x
_atom_site_fract_y
_atom_site_fract_z
Si Si1 0.500000 0.891596 0.655869
Si Si2 0.842544 0.397770 0.847589
Si Si3 0.695331 0.657834 0.658058
Si Si4 0.000000 0.897467 0.335116
O O1 0.500000 0.857611 0.500000
O O2 0.414746 0.861675 0.741112
O O3 0.500000 0.000000 0.646440
O O4 0.868303 0.500000 0.863529
O O5 0.748806 0.395470 0.772532
O O6 0.842243 0.356885 0.000000
O O7 0.703288 0.623687 0.500000
O O8 0.750000 0.750000 0.658682
O O9 0.591850 0.652700 0.697162
O O10 0.000000 0.903225 0.500000
O O11 0.000000 0.000000 0.283652
#
# Coordination Sequence:
#
# PCOD9489426 Si02
#       4
#     8  16  16   8
#     4   9  17  30  51  78 106 139 180 225 276 340
#     4  10  20  34  53  79 112 149 191 242 300 362
#     4  10  21  36  56  83 113 148 195 249 301 357
#     4   9  18  35  59  84 113 153 198 242 291 352
#
# _framework density 21.613078000000002
#
# number of rings (size 3 to 8) (size 9 to 14) (size 15 to 20)
#    0.000    2.333    0.000    2.500    0.000    7.333 
#    0.000    4.167    0.000    3.000    0.000    0.000 
#    0.000    0.000    0.000    0.000    0.000    0.000 
#
# Total GULP energy -133743.552357 kJ/mol
# GULP energy per Si atom -5572.648015 kJ/mol
# Density = 2.156389 g / cm^3
# Si number density = 21.613078 Si / 1000 Ang^3
#
#
#
# Elastic Constant Matrix: (Units=GPa)
#
#
# Indices 1 2 3 4 5 6 
#
# 1 223.3161 30.8669 89.4728 0.0000 0.0000 0.0000
# 2 30.8669 67.1976 17.6363 0.0000 0.0000 0.0000
# 3 89.4728 17.6363 163.9795 0.0000 0.0000 0.0000
# 4 0.0000 0.0000 0.0000 8.7007 0.0000 0.0000
# 5 0.0000 0.0000 0.0000 0.0000 -22.1199 0.0000
# 6 0.0000 0.0000 0.0000 0.0000 0.0000 22.7508
#
#
#
# Elastic Compliance Matrix: (Units=1/GPa)
#
#
# Indices 1 2 3 4 5 6 
#
# 1 0.005967 -0.001941 -0.003047 0.000000 0.000000 0.000000
# 2 -0.001941 0.015945 -0.000656 0.000000 0.000000 0.000000
# 3 -0.003047 -0.000656 0.007831 0.000000 0.000000 0.000000
# 4 0.000000 0.000000 0.000000 0.114933 0.000000 0.000000
# 5 0.000000 0.000000 0.000000 0.000000 -0.045208 0.000000
# 6 0.000000 0.000000 0.000000 0.000000 0.000000 0.043955
#
#
# Mechanical properties :
#
#
# Convention : Reuss Voigt Hill
#
# Bulk Modulus (GPa) = 54.18376 81.16059 67.67218
# Shear Modulus (GPa) = 31.08229 22.96747 27.02488
#
# Velocity S-wave (km/s) = 3.79637 3.26339 3.53993
# Velocity P-wave (km/s) = 6.65890 7.19950 6.93447
#
# Compressibility (1/GPa) = 0.01845571
#
# Stress axis : x y z
#
# Youngs Moduli (GPa) = 167.58549 62.71451 127.69047
#
# Poissons Ratio (x) = 0.12174 0.38908
# Poissons Ratio (y) = 0.32532 0.08373
# Poissons Ratio (z) = 0.51065 0.04112
#
# Static dielectric constant tensor:
#      x y z
#    x 1.792780 0.000000 0.000000 
#    y 0.000000 1.872800 0.000000 
#    z 0.000000 0.000000 1.785490 
# 
# From -- ./inp_files/5828.got.cif
#   From: 2010.05.17/outbox.cif.g08.bks.cpg/sg65_3_cif.got.tgz:5828.got - 2010.06.03 17:01:31.
