data_PCOD9489642
_publ_section_title
;
Structure prediction by ZEFSAII (Michael W. Deem and Ramdas Pophale) SiO2 
 PCOD9489642
Probable space group: C M M M
;
_chemical_formula_sum "Si O2"
_cell_formula_units_Z 116
_cell_length_a 14.064017
_cell_length_b 24.308848
_cell_length_c 19.108031
_cell_angle_alpha 90.000000
_cell_angle_beta 90.000000
_cell_angle_gamma 90.000000
_cell_volume 6532.654623
_symmetry_space_group_name_H-M "C M M M"
_symmetry_group_IT_number 65
_symmetry_cell_setting 'orthorhombic'
loop_
_space_group_symop_operation_xyz
x,y,z
-x,-y,z
x,-y,-z
-x,y,-z
-x,-y,-z
x,y,-z
-x,y,z
x,-y,z
1/2+x,1/2+y,z
1/2-x,1/2-y,z
1/2+x,1/2-y,-z
1/2-x,1/2+y,-z
1/2-x,1/2-y,-z
1/2+x,1/2+y,-z
1/2-x,1/2+y,z
1/2+x,1/2-y,z
loop_
_atom_site_type_symbol
_atom_site_label
_atom_site_fract_x
_atom_site_fract_y
_atom_site_fract_z
Si Si1 0.385162 0.289052 0.577072
Si Si2 0.613179 0.346612 0.801146
Si Si3 0.114178 0.263550 0.716176
Si Si4 0.820821 0.084959 0.580337
Si Si5 0.252049 0.816451 0.917519
Si Si6 0.886316 0.367378 0.193711
Si Si7 0.500000 0.500000 0.593731
Si Si8 0.241225 0.063046 0.729521
O O1 0.360605 0.268757 0.500000
O O2 0.500000 0.294009 0.581233
O O3 0.354672 0.247861 0.637687
O O4 0.346107 0.350521 0.586417
O O5 0.500000 0.351374 0.804149
O O6 0.638853 0.289842 0.761628
O O7 0.661457 0.341400 0.876927
O O8 0.659047 0.396619 0.758312
O O9 0.144700 0.319572 0.751714
O O10 0.000000 0.266076 0.716441
O O11 0.787461 0.075088 0.500000
O O12 0.752326 0.071229 0.645599
O O13 0.915752 0.047955 0.590342
O O14 0.250000 0.750000 0.908007
O O15 0.341389 0.845206 0.878721
O O16 0.251872 0.827243 0.000000
O O17 0.834074 0.420332 0.225688
O O18 0.000000 0.372104 0.190038
O O19 0.215497 0.000000 0.742166
#
# Coordination Sequence:
#
# PCOD9489642 Si02
#       8
#    16  16  16  16  16  16   4  16
#     4   9  16  26  43  71 107 146 185 220 262 321
#     4  10  20  34  54  83 120 156 180 211 272 347
#     4   9  16  30  53  76 105 145 183 221 273 333
#     4  11  20  30  46  76 115 153 191 233 286 342
#     4  10  20  34  57  92 125 148 175 217 273 343
#     4  10  22  41  61  81 108 148 192 239 290 332
#     4  12  21  28  48  76 118 166 193 228 295 360
#     4  11  24  36  55  82 110 149 197 249 285 328
#
# _framework density 17.756945999999999
#
# number of rings (size 3 to 8) (size 9 to 14) (size 15 to 20)
#    0.000    1.931    4.138    0.621    0.966    1.103 
#    0.000    2.069    0.000    9.517    0.000    8.690 
#    0.000    0.000    0.000    0.000    0.000    0.000 
#
# Total GULP energy -322993.010551 kJ/mol
# GULP energy per Si atom -5568.845009 kJ/mol
# Density = 1.771653 g / cm^3
# Si number density = 17.756946 Si / 1000 Ang^3
#
#
#
# Elastic Constant Matrix: (Units=GPa)
#
#
# Indices 1 2 3 4 5 6 
#
# 1 69.1598 -16.1699 10.0999 0.0000 0.0000 0.0000
# 2 -16.1699 46.6271 20.9194 0.0000 0.0000 0.0000
# 3 10.0999 20.9194 124.2634 0.0000 0.0000 0.0000
# 4 0.0000 0.0000 0.0000 5.4257 0.0000 0.0000
# 5 0.0000 0.0000 0.0000 0.0000 2.9776 0.0000
# 6 0.0000 0.0000 0.0000 0.0000 0.0000 13.1085
#
#
#
# Elastic Compliance Matrix: (Units=1/GPa)
#
#
# Indices 1 2 3 4 5 6 
#
# 1 0.016412 0.006804 -0.002479 0.000000 0.000000 0.000000
# 2 0.006804 0.026020 -0.004933 0.000000 0.000000 0.000000
# 3 -0.002479 -0.004933 0.009079 0.000000 0.000000 0.000000
# 4 0.000000 0.000000 0.000000 0.184309 0.000000 0.000000
# 5 0.000000 0.000000 0.000000 0.000000 0.335839 0.000000
# 6 0.000000 0.000000 0.000000 0.000000 0.000000 0.076286
#
#
# Mechanical properties :
#
#
# Convention : Reuss Voigt Hill
#
# Bulk Modulus (GPa) = 19.88315 29.97212 24.92764
# Shear Modulus (GPa) = 7.50832 19.31574 13.41203
#
# Velocity S-wave (km/s) = 2.05853 3.30174 2.75128
# Velocity P-wave (km/s) = 4.10753 5.60812 4.91543
#
# Compressibility (1/GPa) = 0.05029384
#
# Stress axis : x y z
#
# Youngs Moduli (GPa) = 60.93041 38.43238 110.13869
#
# Poissons Ratio (x) = -0.26149 0.27308
# Poissons Ratio (y) = -0.41457 0.54335
# Poissons Ratio (z) = 0.15107 0.18960
#
# Static dielectric constant tensor:
#      x y z
#    x 1.615530 0.000000 0.000000 
#    y 0.000000 1.598180 0.000000 
#    z 0.000000 0.000000 1.631890 
# 
# From -- ./inp_files/53555.got.cif
#   From: 2010.05.17/outbox.cif.g08.bks.cpg/sg65_27_cif.got.tgz:53555.got - 2010.06.03 17:01:31.
