data_PCOD9489735
_publ_section_title
;
Structure prediction by ZEFSAII (Michael W. Deem and Ramdas Pophale) SiO2 
 PCOD9489735
Probable space group: C M M M
;
_chemical_formula_sum "Si O2"
_cell_formula_units_Z 104
_cell_length_a 26.408681
_cell_length_b 7.810331
_cell_length_c 22.952681
_cell_angle_alpha 90.000000
_cell_angle_beta 90.000000
_cell_angle_gamma 90.000000
_cell_volume 4734.232375
_symmetry_space_group_name_H-M "C M M M"
_symmetry_group_IT_number 65
_symmetry_cell_setting 'orthorhombic'
loop_
_space_group_symop_operation_xyz
x,y,z
-x,-y,z
x,-y,-z
-x,y,-z
-x,-y,-z
x,y,-z
-x,y,z
x,-y,z
1/2+x,1/2+y,z
1/2-x,1/2-y,z
1/2+x,1/2-y,-z
1/2-x,1/2+y,-z
1/2-x,1/2-y,-z
1/2+x,1/2+y,-z
1/2-x,1/2+y,z
1/2+x,1/2-y,z
loop_
_atom_site_type_symbol
_atom_site_label
_atom_site_fract_x
_atom_site_fract_y
_atom_site_fract_z
Si Si1 0.910644 0.695283 0.230333
Si Si2 0.595552 0.794196 0.359313
Si Si3 0.500000 0.209692 0.433756
Si Si4 0.807621 0.796447 0.566126
Si Si5 0.444905 0.209208 0.106103
Si Si6 0.305097 0.695592 0.189418
Si Si7 0.335131 0.792344 0.063786
O O1 0.929696 0.500000 0.234247
O O2 0.913765 0.775176 0.294145
O O3 0.937188 0.770555 0.172960
O O4 0.851169 0.694819 0.214176
O O5 0.550609 0.733639 0.401024
O O6 0.649830 0.758850 0.388149
O O7 0.592012 0.000000 0.354978
O O8 0.500000 0.267150 0.500000
O O9 0.500000 0.000000 0.433632
O O10 0.817053 0.727123 0.500000
O O11 0.750000 0.750000 0.582396
O O12 0.810339 0.000000 0.562865
O O13 0.500000 0.263167 0.084001
O O14 0.394476 0.256825 0.071281
O O15 0.444485 0.000000 0.106911
O O16 0.315063 0.500000 0.205119
O O17 0.250000 0.750000 0.210328
O O18 0.307307 0.715601 0.119420
O O19 0.331896 0.000000 0.067737
O O20 0.316921 0.739166 0.000000
#
# Coordination Sequence:
#
# PCOD9489735 Si02
#       7
#    16  16   8  16  16  16  16
#     4   9  19  34  52  78 108 138 177 220 264 313
#     4  10  20  34  56  84 115 149 186 229 276 329
#     4   9  18  32  53  85 121 153 186 227 276 329
#     4  10  21  37  57  80 107 141 182 228 279 333
#     4   8  14  26  48  76 105 136 170 214 260 303
#     4  11  22  37  57  77 103 139 178 221 272 324
#     4   9  18  33  52  78 111 141 175 219 264 316
#
# _framework density 21.967656999999999
#
# number of rings (size 3 to 8) (size 9 to 14) (size 15 to 20)
#    0.000    2.538    0.000    3.231    1.077    3.692 
#    0.000    1.923    0.000    8.769    0.000    4.308 
#    0.000    0.000    0.000    0.000    0.000    0.000 
#
# Total GULP energy -290269.883737 kJ/mol
# GULP energy per Si atom -5582.113149 kJ/mol
# Density = 2.191766 g / cm^3
# Si number density = 21.967657 Si / 1000 Ang^3
#
#
#
# Elastic Constant Matrix: (Units=GPa)
#
#
# Indices 1 2 3 4 5 6 
#
# 1 70.5602 -9.0245 -2.6722 0.0000 0.0000 0.0000
# 2 -9.0245 42.8116 -1.6370 0.0000 0.0000 0.0000
# 3 -2.6722 -1.6370 90.4903 0.0000 0.0000 0.0000
# 4 0.0000 0.0000 0.0000 8.6154 0.0000 0.0000
# 5 0.0000 0.0000 0.0000 0.0000 -5.6986 0.0000
# 6 0.0000 0.0000 0.0000 0.0000 0.0000 10.1149
#
#
#
# Elastic Compliance Matrix: (Units=1/GPa)
#
#
# Indices 1 2 3 4 5 6 
#
# 1 0.014586 0.003093 0.000487 0.000000 0.000000 0.000000
# 2 0.003093 0.024030 0.000526 0.000000 0.000000 0.000000
# 3 0.000487 0.000526 0.011075 0.000000 0.000000 0.000000
# 4 0.000000 0.000000 0.000000 0.116072 0.000000 0.000000
# 5 0.000000 0.000000 0.000000 0.000000 -0.175480 0.000000
# 6 0.000000 0.000000 0.000000 0.000000 0.000000 0.098864
#
#
# Mechanical properties :
#
#
# Convention : Reuss Voigt Hill
#
# Bulk Modulus (GPa) = 17.27004 19.68831 18.47918
# Shear Modulus (GPa) = 49.88238 17.08605 33.48421
#
# Velocity S-wave (km/s) = 4.77038 2.79190 3.90840
# Velocity P-wave (km/s) = 6.18228 4.40168 5.36635
#
# Compressibility (1/GPa) = 0.05790373
#
# Stress axis : x y z
#
# Youngs Moduli (GPa) = 68.55720 41.61403 90.29515
#
# Poissons Ratio (x) = -0.12873 -0.04395
# Poissons Ratio (y) = -0.21207 -0.04750
# Poissons Ratio (z) = -0.03337 -0.02189
#
# Static dielectric constant tensor:
#      x y z
#    x 1.784520 0.000000 0.000000 
#    y 0.000000 1.825330 0.000000 
#    z 0.000000 0.000000 1.816360 
# 
# From -- ./inp_files/71866.got.cif
#   From: 2010.05.17/outbox.cif.g08.bks.cpg/sg65_36_cif.got.tgz:71866.got - 2010.06.03 17:01:31.
