data_PCOD9489470
_publ_section_title
;
Structure prediction by ZEFSAII (Michael W. Deem and Ramdas Pophale) SiO2 
 PCOD9489470
Probable space group: C M M M
;
_chemical_formula_sum "Si O2"
_cell_formula_units_Z 80
_cell_length_a 18.683390
_cell_length_b 28.480539
_cell_length_c 8.495124
_cell_angle_alpha 90.000000
_cell_angle_beta 90.000000
_cell_angle_gamma 90.000000
_cell_volume 4520.366066
_symmetry_space_group_name_H-M "C M M M"
_symmetry_group_IT_number 65
_symmetry_cell_setting 'orthorhombic'
loop_
_space_group_symop_operation_xyz
x,y,z
-x,-y,z
x,-y,-z
-x,y,-z
-x,-y,-z
x,y,-z
-x,y,z
x,-y,z
1/2+x,1/2+y,z
1/2-x,1/2-y,z
1/2+x,1/2-y,-z
1/2-x,1/2+y,-z
1/2-x,1/2-y,-z
1/2+x,1/2+y,-z
1/2-x,1/2+y,z
1/2+x,1/2-y,z
loop_
_atom_site_type_symbol
_atom_site_label
_atom_site_fract_x
_atom_site_fract_y
_atom_site_fract_z
Si Si1 0.579116 0.406306 0.191288
Si Si2 0.728944 0.552275 0.809415
Si Si3 0.206111 0.352731 0.313269
Si Si4 0.350316 0.691515 0.190124
Si Si5 0.917831 0.290190 0.190343
O O1 0.500000 0.419210 0.248635
O O2 0.646718 0.437477 0.241063
O O3 0.599276 0.352635 0.233092
O O4 0.577383 0.408547 0.000000
O O5 0.750648 0.500000 0.760469
O O6 0.776204 0.594950 0.746462
O O7 0.730243 0.554429 0.000000
O O8 0.205347 0.352310 0.500000
O O9 0.271675 0.320088 0.253725
O O10 0.132672 0.331838 0.247934
O O11 0.383089 0.740733 0.243223
O O12 0.345677 0.692197 0.000000
O O13 0.000000 0.293864 0.242721
O O14 0.917537 0.289735 0.000000
#
# Coordination Sequence:
#
# PCOD9489470 Si02
#       5
#    16  16  16  16  16
#     4   8  13  23  43  73 104 128 156 199 245 285
#     4   9  18  33  53  74  95 125 168 215 258 298
#     4  11  22  34  50  73 103 137 168 201 245 298
#     4   9  17  31  51  74 101 135 173 206 236 279
#     4  10  20  34  54  78 102 130 166 209 253 293
#
# _framework density 17.697683000000001
#
# number of rings (size 3 to 8) (size 9 to 14) (size 15 to 20)
#    0.000    2.600    0.000    4.200    0.000    6.800 
#    0.000    2.000    0.000   15.000    0.000    9.800 
#    0.000    0.000    0.000    0.000    0.000    0.000 
#
# Total GULP energy -223125.967722 kJ/mol
# GULP energy per Si atom -5578.149193 kJ/mol
# Density = 1.765740 g / cm^3
# Si number density = 17.697683 Si / 1000 Ang^3
#
#
#
# Elastic Constant Matrix: (Units=GPa)
#
#
# Indices 1 2 3 4 5 6 
#
# 1 121.4494 83.8229 24.8048 0.0000 0.0000 0.0000
# 2 83.8229 128.9307 24.2753 0.0000 0.0000 0.0000
# 3 24.8048 24.2753 18.1533 0.0000 0.0000 0.0000
# 4 0.0000 0.0000 0.0000 3.5795 0.0000 0.0000
# 5 0.0000 0.0000 0.0000 0.0000 -20.5003 0.0000
# 6 0.0000 0.0000 0.0000 0.0000 0.0000 5.6207
#
#
#
# Elastic Compliance Matrix: (Units=1/GPa)
#
#
# Indices 1 2 3 4 5 6 
#
# 1 0.016404 -0.008613 -0.010897 0.000000 0.000000 0.000000
# 2 -0.008613 0.014889 -0.008140 0.000000 0.000000 0.000000
# 3 -0.010897 -0.008140 0.080862 0.000000 0.000000 0.000000
# 4 0.000000 0.000000 0.000000 0.279367 0.000000 0.000000
# 5 0.000000 0.000000 0.000000 0.000000 -0.048780 0.000000
# 6 0.000000 0.000000 0.000000 0.000000 0.000000 0.177913
#
#
# Mechanical properties :
#
#
# Convention : Reuss Voigt Hill
#
# Bulk Modulus (GPa) = 17.58907 59.37105 38.48006
# Shear Modulus (GPa) = 8.40468 6.78202 7.59335
#
# Velocity S-wave (km/s) = 2.18159 1.95971 2.07362
# Velocity P-wave (km/s) = 4.03807 6.22421 5.24628
#
# Compressibility (1/GPa) = 0.05685349
#
# Stress axis : x y z
#
# Youngs Moduli (GPa) = 60.95946 67.16511 12.36682
#
# Poissons Ratio (x) = 0.57852 0.13476
# Poissons Ratio (y) = 0.52507 0.10067
# Poissons Ratio (z) = 0.66427 0.54674
#
# Static dielectric constant tensor:
#      x y z
#    x 1.593340 0.000000 0.000000 
#    y 0.000000 1.601130 0.000000 
#    z 0.000000 0.000000 1.599150 
# 
# From -- ./inp_files/9570.got.cif
#   From: 2010.05.17/outbox.cif.g08.bks.cpg/sg65_5_cif.got.tgz:9570.got - 2010.06.03 17:01:31.
