data_PCOD9489606
_publ_section_title
;
Structure prediction by ZEFSAII (Michael W. Deem and Ramdas Pophale) SiO2 
 PCOD9489606
Probable space group: C M M M
;
_chemical_formula_sum "Si O2"
_cell_formula_units_Z 88
_cell_length_a 9.694908
_cell_length_b 19.137486
_cell_length_c 24.787127
_cell_angle_alpha 90.000000
_cell_angle_beta 90.000000
_cell_angle_gamma 90.000000
_cell_volume 4598.908513
_symmetry_space_group_name_H-M "C M M M"
_symmetry_group_IT_number 65
_symmetry_cell_setting 'orthorhombic'
loop_
_space_group_symop_operation_xyz
x,y,z
-x,-y,z
x,-y,-z
-x,y,-z
-x,-y,-z
x,y,-z
-x,y,z
x,-y,z
1/2+x,1/2+y,z
1/2-x,1/2-y,z
1/2+x,1/2-y,-z
1/2-x,1/2+y,-z
1/2-x,1/2-y,-z
1/2+x,1/2+y,-z
1/2-x,1/2+y,z
1/2+x,1/2-y,z
loop_
_atom_site_type_symbol
_atom_site_label
_atom_site_fract_x
_atom_site_fract_y
_atom_site_fract_z
Si Si1 0.841223 0.314265 0.824727
Si Si2 0.652481 0.500000 0.064853
Si Si3 0.832323 0.920571 0.438112
Si Si4 0.663123 0.320128 0.657663
Si Si5 0.157238 0.630450 0.938614
Si Si6 0.158819 0.917217 0.237309
O O1 0.750000 0.250000 0.804549
O O2 0.838419 0.315236 0.889932
O O3 0.769094 0.384130 0.803200
O O4 0.000000 0.309000 0.807349
O O5 0.500000 0.500000 0.089280
O O6 0.738127 0.569152 0.076491
O O7 0.640065 0.500000 0.000000
O O8 0.790652 0.906744 0.500000
O O9 0.788713 0.862191 0.395622
O O10 0.000000 0.920974 0.436880
O O11 0.788915 0.000000 0.423713
O O12 0.500000 0.303229 0.652436
O O13 0.750000 0.250000 0.665943
O O14 0.675420 0.374350 0.707197
O O15 0.000000 0.602476 0.939171
O O16 0.186262 0.655277 0.000000
O O17 0.000000 0.905776 0.218607
O O18 0.177460 0.000000 0.244772
#
# Coordination Sequence:
#
# PCOD9489606 Si02
#       6
#    16   8  16  16  16  16
#     4  11  24  40  59  83 112 145 182 225 275 331
#     4   9  17  29  49  79 109 137 173 217 260 307
#     4   8  14  27  50  79 109 144 189 236 274 315
#     4  10  20  34  54  81 113 147 184 226 277 332
#     4   9  19  36  56  78 108 145 180 217 268 328
#     4  10  22  40  61  83 108 142 184 232 282 332
#
# _framework density 19.134975000000001
#
# number of rings (size 3 to 8) (size 9 to 14) (size 15 to 20)
#    0.000    2.455    0.000    2.455    1.273    8.000 
#    0.000    0.000    0.000    1.636    0.000    1.273 
#    0.000    0.000    0.000    0.000    0.000    0.000 
#
# Total GULP energy -245379.278055 kJ/mol
# GULP energy per Si atom -5576.801774 kJ/mol
# Density = 1.909142 g / cm^3
# Si number density = 19.134975 Si / 1000 Ang^3
#
#
#
# Elastic Constant Matrix: (Units=GPa)
#
#
# Indices 1 2 3 4 5 6 
#
# 1 108.4748 70.2244 41.3134 0.0000 0.0000 0.0000
# 2 70.2244 105.5541 37.9783 0.0000 0.0000 0.0000
# 3 41.3134 37.9783 77.3490 0.0000 0.0000 0.0000
# 4 0.0000 0.0000 0.0000 18.8844 0.0000 0.0000
# 5 0.0000 0.0000 0.0000 0.0000 13.5919 0.0000
# 6 0.0000 0.0000 0.0000 0.0000 0.0000 28.3869
#
#
#
# Elastic Compliance Matrix: (Units=1/GPa)
#
#
# Indices 1 2 3 4 5 6 
#
# 1 0.017328 -0.009957 -0.004366 0.000000 0.000000 0.000000
# 2 -0.009957 0.017228 -0.003141 0.000000 0.000000 0.000000
# 3 -0.004366 -0.003141 0.016803 0.000000 0.000000 0.000000
# 4 0.000000 0.000000 0.000000 0.052954 0.000000 0.000000
# 5 0.000000 0.000000 0.000000 0.000000 0.073573 0.000000
# 6 0.000000 0.000000 0.000000 0.000000 0.000000 0.035227
#
#
# Mechanical properties :
#
#
# Convention : Reuss Voigt Hill
#
# Bulk Modulus (GPa) = 60.86234 65.60113 63.23174
# Shear Modulus (GPa) = 19.72253 21.63012 20.67633
#
# Velocity S-wave (km/s) = 3.21394 3.36579 3.29074
# Velocity P-wave (km/s) = 6.75637 7.03296 6.89605
#
# Compressibility (1/GPa) = 0.01643052
#
# Stress axis : x y z
#
# Youngs Moduli (GPa) = 57.71165 58.04442 59.51483
#
# Poissons Ratio (x) = 0.57795 0.25985
# Poissons Ratio (y) = 0.57463 0.18693
# Poissons Ratio (z) = 0.25197 0.18231
#
# Static dielectric constant tensor:
#      x y z
#    x 1.658890 0.000000 0.000000 
#    y 0.000000 1.645160 0.000000 
#    z 0.000000 0.000000 1.700730 
# 
# From -- ./inp_files/67499.got.cif
#   From: 2010.05.17/outbox.cif.g08.bks.cpg/sg65_34_cif.got.tgz:67499.got - 2010.06.03 17:01:31.
