data_PCOD9489765
_publ_section_title
;
Structure prediction by ZEFSAII (Michael W. Deem and Ramdas Pophale) SiO2 
 PCOD9489765
Probable space group: C M M M
;
_chemical_formula_sum "Si O2"
_cell_formula_units_Z 56
_cell_length_a 10.360334
_cell_length_b 20.621375
_cell_length_c 14.512532
_cell_angle_alpha 90.000000
_cell_angle_beta 90.000000
_cell_angle_gamma 90.000000
_cell_volume 3100.520213
_symmetry_space_group_name_H-M "C M M M"
_symmetry_group_IT_number 65
_symmetry_cell_setting 'orthorhombic'
loop_
_space_group_symop_operation_xyz
x,y,z
-x,-y,z
x,-y,-z
-x,y,-z
-x,-y,-z
x,y,-z
-x,y,z
x,-y,z
1/2+x,1/2+y,z
1/2-x,1/2-y,z
1/2+x,1/2-y,-z
1/2-x,1/2+y,-z
1/2-x,1/2-y,-z
1/2+x,1/2+y,-z
1/2-x,1/2+y,z
1/2+x,1/2-y,z
loop_
_atom_site_type_symbol
_atom_site_label
_atom_site_fract_x
_atom_site_fract_y
_atom_site_fract_z
Si Si1 0.750000 0.250000 0.220956
Si Si2 0.153587 0.000000 0.396424
Si Si3 0.000000 0.716722 0.102287
Si Si4 0.000000 0.078182 0.891613
Si Si5 0.729809 0.606660 0.250938
Si Si6 0.000000 0.427121 0.841520
O O1 0.625488 0.239494 0.156939
O O2 0.735565 0.317273 0.274919
O O3 0.190557 0.062466 0.336272
O O4 0.208072 0.000000 0.500000
O O5 0.000000 0.000000 0.402657
O O6 0.000000 0.638273 0.098340
O O7 0.000000 0.743484 0.000000
O O8 0.126111 0.099440 0.832927
O O9 0.000000 0.000000 0.890777
O O10 0.000000 0.098190 0.000000
O O11 0.868901 0.581405 0.216845
O O12 0.000000 0.500000 0.882395
#
# Coordination Sequence:
#
# PCOD9489765 Si02
#       6
#     8   8   8   8  16   8
#     4  10  23  34  57  78 112 160 188 228 296 326
#     4  11  22  39  69  95 110 140 187 244 299 341
#     4  10  21  35  51  78 113 153 202 239 270 330
#     4  11  21  35  60  86 114 159 206 248 287 324
#     4  11  20  40  57  87 119 149 192 241 277 349
#     4  10  20  34  57  79 115 156 185 229 297 327
#
# _framework density 18.061485000000001
#
# number of rings (size 3 to 8) (size 9 to 14) (size 15 to 20)
#    0.000    1.429    4.286    1.286    0.000    7.143 
#    0.000    2.143    0.000    0.000    0.000    0.000 
#    0.000    0.000    0.000    0.000    0.000    0.000 
#
# Total GULP energy -156202.233247 kJ/mol
# GULP energy per Si atom -5578.651187 kJ/mol
# Density = 1.802038 g / cm^3
# Si number density = 18.061485 Si / 1000 Ang^3
#
#
#
# Elastic Constant Matrix: (Units=GPa)
#
#
# Indices 1 2 3 4 5 6 
#
# 1 133.4521 27.4229 44.4631 0.0000 0.0000 0.0000
# 2 27.4229 180.6842 53.6201 0.0000 0.0000 0.0000
# 3 44.4631 53.6201 122.5228 0.0000 0.0000 0.0000
# 4 0.0000 0.0000 0.0000 -16.8679 0.0000 0.0000
# 5 0.0000 0.0000 0.0000 0.0000 18.4718 0.0000
# 6 0.0000 0.0000 0.0000 0.0000 0.0000 21.0591
#
#
#
# Elastic Compliance Matrix: (Units=1/GPa)
#
#
# Indices 1 2 3 4 5 6 
#
# 1 0.008553 -0.000433 -0.002914 0.000000 0.000000 0.000000
# 2 -0.000433 0.006383 -0.002636 0.000000 0.000000 0.000000
# 3 -0.002914 -0.002636 0.010373 0.000000 0.000000 0.000000
# 4 0.000000 0.000000 0.000000 -0.059284 0.000000 0.000000
# 5 0.000000 0.000000 0.000000 0.000000 0.054137 0.000000
# 6 0.000000 0.000000 0.000000 0.000000 0.000000 0.047485
#
#
# Mechanical properties :
#
#
# Convention : Reuss Voigt Hill
#
# Bulk Modulus (GPa) = 74.95358 76.40791 75.68075
# Shear Modulus (GPa) = 59.48067 25.27615 42.37841
#
# Velocity S-wave (km/s) = 5.74489 3.74498 4.84916
# Velocity P-wave (km/s) = 9.25172 7.81639 8.56418
#
# Compressibility (1/GPa) = 0.01334159
#
# Stress axis : x y z
#
# Youngs Moduli (GPa) = 116.91316 156.67759 96.40459
#
# Poissons Ratio (x) = 0.06789 0.28096
# Poissons Ratio (y) = 0.05066 0.25412
# Poissons Ratio (z) = 0.34073 0.41300
#
# Static dielectric constant tensor:
#      x y z
#    x 1.610740 0.000000 0.000000 
#    y 0.000000 1.654800 0.000000 
#    z 0.000000 0.000000 1.581870 
# 
# From -- ./inp_files/35619.got.cif
#   From: 2010.05.17/outbox.cif.g08.bks.cpg/sg65_18_cif.got.tgz:35619.got - 2010.06.03 17:01:31.
