data_PCOD9489742
_publ_section_title
;
Structure prediction by ZEFSAII (Michael W. Deem and Ramdas Pophale) SiO2 
 PCOD9489742
Probable space group: C M M M
;
_chemical_formula_sum "Si O2"
_cell_formula_units_Z 96
_cell_length_a 29.272824
_cell_length_b 8.823711
_cell_length_c 20.831749
_cell_angle_alpha 90.000000
_cell_angle_beta 90.000000
_cell_angle_gamma 90.000000
_cell_volume 5380.735340
_symmetry_space_group_name_H-M "C M M M"
_symmetry_group_IT_number 65
_symmetry_cell_setting 'orthorhombic'
loop_
_space_group_symop_operation_xyz
x,y,z
-x,-y,z
x,-y,-z
-x,y,-z
-x,-y,-z
x,y,-z
-x,y,z
x,-y,z
1/2+x,1/2+y,z
1/2-x,1/2-y,z
1/2+x,1/2-y,-z
1/2-x,1/2+y,-z
1/2-x,1/2-y,-z
1/2+x,1/2+y,-z
1/2-x,1/2+y,z
1/2+x,1/2-y,z
loop_
_atom_site_type_symbol
_atom_site_label
_atom_site_fract_x
_atom_site_fract_y
_atom_site_fract_z
Si Si1 0.644782 0.319146 0.928473
Si Si2 0.861225 0.318574 0.684357
Si Si3 0.448215 0.181212 0.114126
Si Si4 0.300409 0.818660 0.190608
Si Si5 0.447828 0.321081 0.744239
Si Si6 0.200337 0.180782 0.575286
O O1 0.645968 0.500000 0.920368
O O2 0.592671 0.262132 0.922566
O O3 0.673891 0.242923 0.872246
O O4 0.662003 0.281605 0.000000
O O5 0.865012 0.500000 0.681506
O O6 0.830030 0.278969 0.746393
O O7 0.910307 0.244267 0.696561
O O8 0.836639 0.255003 0.621571
O O9 0.500000 0.220416 0.093200
O O10 0.443729 0.232987 0.188229
O O11 0.442988 0.000000 0.109649
O O12 0.250000 0.750000 0.195322
O O13 0.297559 0.000000 0.187048
O O14 0.500000 0.301952 0.721575
O O15 0.440076 0.500000 0.755758
O O16 0.191255 0.211343 0.500000
O O17 0.250000 0.250000 0.590654
O O18 0.201611 0.000000 0.584610
#
# Coordination Sequence:
#
# PCOD9489742 Si02
#       6
#    16  16  16  16  16  16
#     4  11  24  40  58  80 108 145 188 235 287 342
#     4  11  22  36  59  89 118 151 190 233 281 333
#     4  10  20  35  56  82 112 145 183 229 282 339
#     4  11  24  40  59  83 110 144 186 234 284 336
#     4  10  20  34  56  85 116 150 187 231 281 332
#     4  10  21  37  58  86 121 159 196 235 281 333
#
# _framework density 17.841426999999999
#
# number of rings (size 3 to 8) (size 9 to 14) (size 15 to 20)
#    0.000    1.500    1.667    3.500    0.000    8.333 
#    0.000    1.667    0.000    0.500    0.000    3.500 
#    0.000    0.000    0.000    0.000    0.000    0.000 
#
# Total GULP energy -268275.467771 kJ/mol
# GULP energy per Si atom -5589.072245 kJ/mol
# Density = 1.780082 g / cm^3
# Si number density = 17.841427 Si / 1000 Ang^3
#
#
#
# Elastic Constant Matrix: (Units=GPa)
#
#
# Indices 1 2 3 4 5 6 
#
# 1 93.5050 35.2694 41.3192 0.0000 0.0000 0.0000
# 2 35.2694 51.4717 32.0901 0.0000 0.0000 0.0000
# 3 41.3192 32.0901 66.8086 0.0000 0.0000 0.0000
# 4 0.0000 0.0000 0.0000 22.7964 0.0000 0.0000
# 5 0.0000 0.0000 0.0000 0.0000 8.6479 0.0000
# 6 0.0000 0.0000 0.0000 0.0000 0.0000 36.1027
#
#
#
# Elastic Compliance Matrix: (Units=1/GPa)
#
#
# Indices 1 2 3 4 5 6 
#
# 1 0.016299 -0.006971 -0.006732 0.000000 0.000000 0.000000
# 2 -0.006971 0.030715 -0.010442 0.000000 0.000000 0.000000
# 3 -0.006732 -0.010442 0.024147 0.000000 0.000000 0.000000
# 4 0.000000 0.000000 0.000000 0.043867 0.000000 0.000000
# 5 0.000000 0.000000 0.000000 0.000000 0.115635 0.000000
# 6 0.000000 0.000000 0.000000 0.000000 0.000000 0.027699
#
#
# Mechanical properties :
#
#
# Convention : Reuss Voigt Hill
#
# Bulk Modulus (GPa) = 43.72335 47.68254 45.70295
# Shear Modulus (GPa) = 15.90967 20.38319 18.14643
#
# Velocity S-wave (km/s) = 2.98942 3.38370 3.19265
# Velocity P-wave (km/s) = 6.03948 6.48457 6.26598
#
# Compressibility (1/GPa) = 0.02287107
#
# Stress axis : x y z
#
# Youngs Moduli (GPa) = 61.35378 32.55748 41.41291
#
# Poissons Ratio (x) = 0.22697 0.27879
# Poissons Ratio (y) = 0.42772 0.43242
# Poissons Ratio (z) = 0.41303 0.33996
#
# Static dielectric constant tensor:
#      x y z
#    x 1.599220 0.000000 0.000000 
#    y 0.000000 1.593010 0.000000 
#    z 0.000000 0.000000 1.596300 
# 
# From -- ./inp_files/60286.got.cif
#   From: 2010.05.17/outbox.cif.g08.bks.cpg/sg65_31_cif.got.tgz:60286.got - 2010.06.03 17:01:31.
