data_PCOD9489817
_publ_section_title
;
Structure prediction by ZEFSAII (Michael W. Deem and Ramdas Pophale) SiO2 
 PCOD9489817
Probable space group: C M M M
;
_chemical_formula_sum "Si O2"
_cell_formula_units_Z 104
_cell_length_a 8.114423
_cell_length_b 28.192509
_cell_length_c 28.998851
_cell_angle_alpha 90.000000
_cell_angle_beta 90.000000
_cell_angle_gamma 90.000000
_cell_volume 6633.949508
_symmetry_space_group_name_H-M "C M M M"
_symmetry_group_IT_number 65
_symmetry_cell_setting 'orthorhombic'
loop_
_space_group_symop_operation_xyz
x,y,z
-x,-y,z
x,-y,-z
-x,y,-z
-x,-y,-z
x,y,-z
-x,y,z
x,-y,z
1/2+x,1/2+y,z
1/2-x,1/2-y,z
1/2+x,1/2-y,-z
1/2-x,1/2+y,-z
1/2-x,1/2-y,-z
1/2+x,1/2+y,-z
1/2-x,1/2+y,z
1/2+x,1/2-y,z
loop_
_atom_site_type_symbol
_atom_site_label
_atom_site_fract_x
_atom_site_fract_y
_atom_site_fract_z
Si Si1 0.798741 0.397409 0.808293
Si Si2 0.500000 0.057862 0.446691
Si Si3 0.184107 0.057702 0.387543
Si Si4 0.699493 0.053262 0.097168
Si Si5 0.301012 0.944127 0.713552
Si Si6 0.805282 0.302929 0.855652
Si Si7 0.196061 0.149366 0.051159
O O1 0.753043 0.432203 0.850516
O O2 0.744787 0.415603 0.758541
O O3 0.738771 0.345174 0.823093
O O4 0.000000 0.397281 0.807233
O O5 0.500000 0.072403 0.500000
O O6 0.334628 0.073371 0.419980
O O7 0.500000 0.000000 0.445765
O O8 0.220825 0.071136 0.334593
O O9 0.000000 0.072837 0.401490
O O10 0.186418 0.000000 0.388424
O O11 0.500000 0.054253 0.095097
O O12 0.763196 0.095029 0.064518
O O13 0.754699 0.000000 0.086030
O O14 0.500000 0.939796 0.708864
O O15 0.266098 0.000000 0.720642
O O16 0.750000 0.250000 0.845260
O O17 0.764093 0.318003 0.907991
O O18 0.000000 0.304330 0.850930
O O19 0.000000 0.154969 0.050983
O O20 0.260659 0.160280 0.000000
#
# Coordination Sequence:
#
# PCOD9489817 Si02
#       7
#    16   8  16  16  16  16  16
#     4   8  15  27  45  67  86 110 144 175 207 258
#     4   9  16  26  38  52  74 110 156 198 235 269
#     4   9  16  25  36  54  80 109 147 193 233 267
#     4   9  17  30  47  67  91 117 145 175 210 255
#     4   9  14  23  41  61  84 114 144 178 219 259
#     4  10  20  35  53  70  88 110 138 175 217 264
#     4  10  21  35  49  66  87 111 141 176 216 260
#
# _framework density 15.676935
#
# number of rings (size 3 to 8) (size 9 to 14) (size 15 to 20)
#    0.000    2.846    0.769    2.308    0.000    4.308 
#    0.000    6.923    0.000    3.692    0.000    0.000 
#    0.000    0.000    0.000    0.000    0.000    0.769 
#
# Total GULP energy -289741.728369 kJ/mol
# GULP energy per Si atom -5571.956315 kJ/mol
# Density = 1.564125 g / cm^3
# Si number density = 15.676935 Si / 1000 Ang^3
#
#
#
# Elastic Constant Matrix: (Units=GPa)
#
#
# Indices 1 2 3 4 5 6 
#
# 1 48.6239 10.2312 33.2815 0.0000 0.0000 0.0000
# 2 10.2312 47.1930 12.4412 0.0000 0.0000 0.0000
# 3 33.2815 12.4412 98.9086 0.0000 0.0000 0.0000
# 4 0.0000 0.0000 0.0000 10.1309 0.0000 0.0000
# 5 0.0000 0.0000 0.0000 0.0000 0.5356 0.0000
# 6 0.0000 0.0000 0.0000 0.0000 0.0000 17.4055
#
#
#
# Elastic Compliance Matrix: (Units=1/GPa)
#
#
# Indices 1 2 3 4 5 6 
#
# 1 0.027304 -0.003617 -0.008733 0.000000 0.000000 0.000000
# 2 -0.003617 0.022396 -0.001600 0.000000 0.000000 0.000000
# 3 -0.008733 -0.001600 0.013250 0.000000 0.000000 0.000000
# 4 0.000000 0.000000 0.000000 0.098707 0.000000 0.000000
# 5 0.000000 0.000000 0.000000 0.000000 1.866945 0.000000
# 6 0.000000 0.000000 0.000000 0.000000 0.000000 0.057453
#
#
# Mechanical properties :
#
#
# Convention : Reuss Voigt Hill
#
# Bulk Modulus (GPa) = 28.53036 34.07039 31.30037
# Shear Modulus (GPa) = 2.35223 14.86586 8.60905
#
# Velocity S-wave (km/s) = 1.22625 3.08273 2.34595
# Velocity P-wave (km/s) = 4.49926 5.86949 5.22945
#
# Compressibility (1/GPa) = 0.03505038
#
# Stress axis : x y z
#
# Youngs Moduli (GPa) = 36.62427 44.65177 75.47176
#
# Poissons Ratio (x) = 0.16152 0.65906
# Poissons Ratio (y) = 0.13248 0.12074
# Poissons Ratio (z) = 0.31982 0.07144
#
# Static dielectric constant tensor:
#      x y z
#    x 1.560010 0.000000 0.000000 
#    y 0.000000 1.511130 0.000000 
#    z 0.000000 0.000000 1.525490 
# 
# From -- ./inp_files/74046.got.cif
#   From: 2010.05.17/outbox.cif.g08.bks.cpg/sg65_38_cif.got.tgz:74046.got - 2010.06.03 17:01:31.
