data_PCOD9489058
_publ_section_title
;
Structure prediction by ZEFSAII (Michael W. Deem and Ramdas Pophale) SiO2 
 PCOD9489058
Probable space group: C M M M
;
_chemical_formula_sum "Si O2"
_cell_formula_units_Z 72
_cell_length_a 7.333205
_cell_length_b 35.321728
_cell_length_c 12.521658
_cell_angle_alpha 90.000000
_cell_angle_beta 90.000000
_cell_angle_gamma 90.000000
_cell_volume 3243.378292
_symmetry_space_group_name_H-M "C M M M"
_symmetry_group_IT_number 65
_symmetry_cell_setting 'orthorhombic'
loop_
_space_group_symop_operation_xyz
x,y,z
-x,-y,z
x,-y,-z
-x,y,-z
-x,-y,-z
x,y,-z
-x,y,z
x,-y,z
1/2+x,1/2+y,z
1/2-x,1/2-y,z
1/2+x,1/2-y,-z
1/2-x,1/2+y,-z
1/2-x,1/2-y,-z
1/2+x,1/2+y,-z
1/2-x,1/2+y,z
1/2+x,1/2-y,z
loop_
_atom_site_type_symbol
_atom_site_label
_atom_site_fract_x
_atom_site_fract_y
_atom_site_fract_z
Si Si1 0.282109 0.795344 0.000000
Si Si2 0.717003 0.208665 0.380492
Si Si3 0.223041 0.345704 0.799780
Si Si4 0.777947 0.455518 0.500000
Si Si5 0.222345 0.500000 0.876754
Si Si6 0.777621 0.428599 0.265373
O O1 0.250000 0.750000 0.000000
O O2 0.216557 0.819184 0.102579
O O3 0.500000 0.798537 0.000000
O O4 0.792801 0.208577 0.500000
O O5 0.500000 0.204230 0.387909
O O6 0.750000 0.250000 0.331606
O O7 0.784499 0.175516 0.306875
O O8 0.279848 0.389140 0.788335
O O9 0.000000 0.345899 0.803174
O O10 0.724829 0.500000 0.500000
O O11 0.720543 0.435782 0.388649
O O12 0.000000 0.455017 0.500000
O O13 0.278673 0.463276 0.809681
O O14 0.000000 0.500000 0.878161
O O15 0.281578 0.500000 0.000000
O O16 0.000000 0.428351 0.267944
#
# Coordination Sequence:
#
# PCOD9489058 Si02
#       6
#     8  16  16   8   8  16
#     4  10  20  34  50  67  89 119 153 188 228 274
#     4   9  17  29  44  62  84 111 143 178 218 261
#     4   9  18  28  41  60  83 111 147 185 220 260
#     4   9  14  22  34  50  75 108 151 187 215 257
#     4   9  16  23  33  49  75 110 145 176 213 259
#     4   9  16  24  35  53  77 109 146 184 217 255
#
# _framework density 22.199076000000002
#
# number of rings (size 3 to 8) (size 9 to 14) (size 15 to 20)
#    0.000    2.889    1.111    0.667    3.111    0.000 
#    0.000    0.000    0.000    0.000    0.000    0.000 
#    0.000    0.000    0.000    5.000    0.000   22.111 
#
# Total GULP energy -200939.477136 kJ/mol
# GULP energy per Si atom -5581.652143 kJ/mol
# Density = 2.214855 g / cm^3
# Si number density = 22.199076 Si / 1000 Ang^3
#
#
#
# Elastic Constant Matrix: (Units=GPa)
#
#
# Indices 1 2 3 4 5 6 
#
# 1 86.9139 1.5960 5.4466 0.0000 0.0000 0.0000
# 2 1.5960 244.7088 119.4924 0.0000 0.0000 0.0000
# 3 5.4466 119.4924 161.8225 0.0000 0.0000 0.0000
# 4 0.0000 0.0000 0.0000 39.9512 0.0000 0.0000
# 5 0.0000 0.0000 0.0000 0.0000 -26.9201 0.0000
# 6 0.0000 0.0000 0.0000 0.0000 0.0000 0.3244
#
#
#
# Elastic Compliance Matrix: (Units=1/GPa)
#
#
# Indices 1 2 3 4 5 6 
#
# 1 0.011535 0.000179 -0.000520 0.000000 0.000000 0.000000
# 2 0.000179 0.006394 -0.004727 0.000000 0.000000 0.000000
# 3 -0.000520 -0.004727 0.009688 0.000000 0.000000 0.000000
# 4 0.000000 0.000000 0.000000 0.025031 0.000000 0.000000
# 5 0.000000 0.000000 0.000000 0.000000 -0.037147 0.000000
# 6 0.000000 0.000000 0.000000 0.000000 0.000000 3.082976
#
#
# Mechanical properties :
#
#
# Convention : Reuss Voigt Hill
#
# Bulk Modulus (GPa) = 57.21134 82.94612 70.07873
# Shear Modulus (GPa) = 1.60543 27.13175 14.36859
#
# Velocity S-wave (km/s) = 0.85133 3.49979 2.54689
# Velocity P-wave (km/s) = 5.17632 7.33329 6.34710
#
# Compressibility (1/GPa) = 0.01747905
#
# Stress axis : x y z
#
# Youngs Moduli (GPa) = 86.69298 156.40571 103.22310
#
# Poissons Ratio (x) = -0.02797 0.05371
# Poissons Ratio (y) = -0.01550 0.48795
# Poissons Ratio (z) = 0.04511 0.73936
#
# Static dielectric constant tensor:
#      x y z
#    x 1.890240 0.000000 0.000000 
#    y 0.000000 1.812450 0.000000 
#    z 0.000000 0.000000 1.800370 
# 
# From -- ./inp_files/22756.got.cif
#   From: 2010.05.17/outbox.cif.g08.bks.cpg/sg65_12_cif.got.tgz:22756.got - 2010.06.03 17:01:31.
