data_PCOD9489506
_publ_section_title
;
Structure prediction by ZEFSAII (Michael W. Deem and Ramdas Pophale) SiO2 
 PCOD9489506
Probable space group: C M M M
;
_chemical_formula_sum "Si O2"
_cell_formula_units_Z 88
_cell_length_a 18.557454
_cell_length_b 7.689733
_cell_length_c 29.411501
_cell_angle_alpha 90.000000
_cell_angle_beta 90.000000
_cell_angle_gamma 90.000000
_cell_volume 4197.076087
_symmetry_space_group_name_H-M "C M M M"
_symmetry_group_IT_number 65
_symmetry_cell_setting 'orthorhombic'
loop_
_space_group_symop_operation_xyz
x,y,z
-x,-y,z
x,-y,-z
-x,y,-z
-x,-y,-z
x,y,-z
-x,y,z
x,-y,z
1/2+x,1/2+y,z
1/2-x,1/2-y,z
1/2+x,1/2-y,-z
1/2-x,1/2+y,-z
1/2-x,1/2-y,-z
1/2+x,1/2+y,-z
1/2-x,1/2+y,z
1/2+x,1/2-y,z
loop_
_atom_site_type_symbol
_atom_site_label
_atom_site_fract_x
_atom_site_fract_y
_atom_site_fract_z
Si Si1 0.665892 0.293423 0.229172
Si Si2 0.583500 0.212933 0.500000
Si Si3 0.418389 0.207444 0.679225
Si Si4 0.833961 0.209089 0.949366
Si Si5 0.583063 0.286838 0.860276
Si Si6 0.334394 0.790757 0.409400
O O1 0.659491 0.500000 0.227718
O O2 0.750000 0.250000 0.231377
O O3 0.623819 0.235049 0.273999
O O4 0.628984 0.225471 0.183036
O O5 0.500000 0.266242 0.500000
O O6 0.625131 0.271523 0.454764
O O7 0.584030 0.000000 0.500000
O O8 0.500000 0.277212 0.681187
O O9 0.373420 0.276214 0.636162
O O10 0.423758 0.000000 0.672920
O O11 0.750000 0.250000 0.941265
O O12 0.881765 0.273094 0.907573
O O13 0.841156 0.000000 0.950442
O O14 0.852961 0.274859 0.000000
O O15 0.500000 0.234848 0.856217
O O16 0.584771 0.500000 0.860547
O O17 0.250000 0.750000 0.409856
O O18 0.340554 0.000000 0.409343
#
# Coordination Sequence:
#
# PCOD9489506 Si02
#       6
#    16   8  16  16  16  16
#     4  11  22  36  55  77 103 137 175 214 258 307
#     4   9  17  32  55  79 102 133 174 214 254 303
#     4  10  21  37  56  79 107 137 172 215 260 307
#     4   9  17  30  50  74  99 129 164 203 248 298
#     4   9  18  32  50  74 102 130 165 210 255 300
#     4  10  20  34  54  79 106 137 172 211 255 304
#
# _framework density 20.966978000000001
#
# number of rings (size 3 to 8) (size 9 to 14) (size 15 to 20)
#    0.000    2.273    0.000    3.000    0.000    5.818 
#    0.000    2.727    0.000    4.909    0.000    2.545 
#    0.000    0.000    0.000    0.000    0.000    0.000 
#
# Total GULP energy -245823.495316 kJ/mol
# GULP energy per Si atom -5586.897621 kJ/mol
# Density = 2.091926 g / cm^3
# Si number density = 20.966978 Si / 1000 Ang^3
#
#
#
# Elastic Constant Matrix: (Units=GPa)
#
#
# Indices 1 2 3 4 5 6 
#
# 1 218.7049 0.4372 151.2769 0.0000 0.0000 0.0000
# 2 0.4372 36.4351 7.2572 0.0000 0.0000 0.0000
# 3 151.2769 7.2572 229.4953 0.0000 0.0000 0.0000
# 4 0.0000 0.0000 0.0000 7.7899 0.0000 0.0000
# 5 0.0000 0.0000 0.0000 0.0000 0.6575 0.0000
# 6 0.0000 0.0000 0.0000 0.0000 0.0000 17.2786
#
#
#
# Elastic Compliance Matrix: (Units=1/GPa)
#
#
# Indices 1 2 3 4 5 6 
#
# 1 0.008441 0.001013 -0.005596 0.000000 0.000000 0.000000
# 2 0.001013 0.027742 -0.001545 0.000000 0.000000 0.000000
# 3 -0.005596 -0.001545 0.008095 0.000000 0.000000 0.000000
# 4 0.000000 0.000000 0.000000 0.128371 0.000000 0.000000
# 5 0.000000 0.000000 0.000000 0.000000 1.520918 0.000000
# 6 0.000000 0.000000 0.000000 0.000000 0.000000 0.057875
#
#
# Mechanical properties :
#
#
# Convention : Reuss Voigt Hill
#
# Bulk Modulus (GPa) = 31.22871 89.17533 60.20202
# Shear Modulus (GPa) = 2.81790 26.85613 14.83701
#
# Velocity S-wave (km/s) = 1.16055 3.58282 2.66303
# Velocity P-wave (km/s) = 4.08931 7.72911 6.18310
#
# Compressibility (1/GPa) = 0.03202182
#
# Stress axis : x y z
#
# Youngs Moduli (GPa) = 118.46559 36.04681 123.53042
#
# Poissons Ratio (x) = -0.03653 0.69131
# Poissons Ratio (y) = -0.12005 0.19089
# Poissons Ratio (z) = 0.66297 0.05570
#
# Static dielectric constant tensor:
#      x y z
#    x 1.696810 0.000000 0.000000 
#    y 0.000000 1.795620 0.000000 
#    z 0.000000 0.000000 1.742430 
# 
# From -- ./inp_files/77944.got.cif
#   From: 2010.05.17/outbox.cif.g08.bks.cpg/sg65_39_cif.got.tgz:77944.got - 2010.06.03 17:01:31.
