data_PCOD9489417
_publ_section_title
;
Structure prediction by ZEFSAII (Michael W. Deem and Ramdas Pophale) SiO2 
 PCOD9489417
Probable space group: C M M M
;
_chemical_formula_sum "Si O2"
_cell_formula_units_Z 92
_cell_length_a 16.456760
_cell_length_b 20.611936
_cell_length_c 15.093694
_cell_angle_alpha 90.000000
_cell_angle_beta 90.000000
_cell_angle_gamma 90.000000
_cell_volume 5119.866796
_symmetry_space_group_name_H-M "C M M M"
_symmetry_group_IT_number 65
_symmetry_cell_setting 'orthorhombic'
loop_
_space_group_symop_operation_xyz
x,y,z
-x,-y,z
x,-y,-z
-x,y,-z
-x,-y,-z
x,y,-z
-x,y,z
x,-y,z
1/2+x,1/2+y,z
1/2-x,1/2-y,z
1/2+x,1/2-y,-z
1/2-x,1/2+y,-z
1/2-x,1/2-y,-z
1/2+x,1/2+y,-z
1/2-x,1/2+y,z
1/2+x,1/2-y,z
loop_
_atom_site_type_symbol
_atom_site_label
_atom_site_fract_x
_atom_site_fract_y
_atom_site_fract_z
Si Si1 0.094588 0.739190 0.214195
Si Si2 0.373438 0.384684 0.847907
Si Si3 0.000000 0.082445 0.000000
Si Si4 0.685740 0.130324 0.895043
Si Si5 0.400888 0.287808 0.596415
Si Si6 0.402195 0.570269 0.651265
Si Si7 0.592489 0.000000 0.892506
O O1 0.098049 0.810691 0.170885
O O2 0.150400 0.690343 0.159924
O O3 0.123318 0.748641 0.315852
O O4 0.000000 0.717842 0.212666
O O5 0.280496 0.380555 0.877759
O O6 0.382880 0.421733 0.755144
O O7 0.429576 0.415108 0.922712
O O8 0.638612 0.065293 0.866613
O O9 0.672202 0.141351 0.000000
O O10 0.375727 0.262635 0.500000
O O11 0.500000 0.288438 0.599046
O O12 0.373688 0.362852 0.606687
O O13 0.500000 0.570081 0.641302
O O14 0.372156 0.500000 0.619060
O O15 0.500000 0.000000 0.860855
O O16 0.591381 0.000000 0.000000
#
# Coordination Sequence:
#
# PCOD9489417 Si02
#       7
#    16  16   4  16  16  16   8
#     4  10  20  34  53  79 109 141 179 223 281 331
#     4  11  21  34  49  74 110 141 184 228 267 320
#     4  12  20  36  51  72 106 163 180 226 272 320
#     4  11  23  34  54  78 104 142 186 231 270 318
#     4   8  15  30  52  78 106 134 172 225 274 329
#     4   9  17  30  47  70 103 143 181 216 263 322
#     4   9  20  40  54  72 103 137 183 230 268 308
#
# _framework density 17.969218000000001
#
# number of rings (size 3 to 8) (size 9 to 14) (size 15 to 20)
#    0.000    2.174    2.609    2.087    2.435    2.087 
#    0.000    2.609    0.000    8.348    0.000    0.609 
#    0.000    3.478    0.000    0.000    0.000    0.000 
#
# Total GULP energy -256089.130342 kJ/mol
# GULP energy per Si atom -5567.155007 kJ/mol
# Density = 1.792832 g / cm^3
# Si number density = 17.969218 Si / 1000 Ang^3
#
#
#
# Elastic Constant Matrix: (Units=GPa)
#
#
# Indices 1 2 3 4 5 6 
#
# 1 90.4566 23.7354 18.0568 0.0000 0.0000 0.0000
# 2 23.7354 59.8737 5.5220 0.0000 0.0000 0.0000
# 3 18.0568 5.5220 71.8673 0.0000 0.0000 0.0000
# 4 0.0000 0.0000 0.0000 5.9897 0.0000 0.0000
# 5 0.0000 0.0000 0.0000 0.0000 -2.0937 0.0000
# 6 0.0000 0.0000 0.0000 0.0000 0.0000 7.2540
#
#
#
# Elastic Compliance Matrix: (Units=1/GPa)
#
#
# Indices 1 2 3 4 5 6 
#
# 1 0.012900 -0.004849 -0.002869 0.000000 0.000000 0.000000
# 2 -0.004849 0.018644 -0.000214 0.000000 0.000000 0.000000
# 3 -0.002869 -0.000214 0.014652 0.000000 0.000000 0.000000
# 4 0.000000 0.000000 0.000000 0.166954 0.000000 0.000000
# 5 0.000000 0.000000 0.000000 0.000000 -0.477617 0.000000
# 6 0.000000 0.000000 0.000000 0.000000 0.000000 0.137855
#
#
# Mechanical properties :
#
#
# Convention : Reuss Voigt Hill
#
# Bulk Modulus (GPa) = 32.96882 35.20291 34.08586
# Shear Modulus (GPa) = -49.68308 13.88888 -17.89710
#
# Velocity S-wave (km/s) = -5.26394 2.78317 -3.15935
# Velocity P-wave (km/s) = 4.30792 5.47369 2.38779
#
# Compressibility (1/GPa) = 0.03033169
#
# Stress axis : x y z
#
# Youngs Moduli (GPa) = 77.51875 53.63665 68.25134
#
# Poissons Ratio (x) = 0.26010 0.19578
# Poissons Ratio (y) = 0.37592 0.01461
# Poissons Ratio (z) = 0.22237 0.01148
#
# Static dielectric constant tensor:
#      x y z
#    x 1.606810 0.000000 0.000000 
#    y 0.000000 1.653580 0.000000 
#    z 0.000000 0.000000 1.616870 
# 
# From -- ./inp_files/40407.got.cif
#   From: 2010.05.17/outbox.cif.g08.bks.cpg/sg65_21_cif.got.tgz:40407.got - 2010.06.03 17:01:31.
