data_PCOD9489998
_publ_section_title
;
Structure prediction by ZEFSAII (Michael W. Deem and Ramdas Pophale) SiO2 
 PCOD9489998
Probable space group: C M M M
;
_chemical_formula_sum "Si O2"
_cell_formula_units_Z 72
_cell_length_a 27.696786
_cell_length_b 7.500050
_cell_length_c 14.126112
_cell_angle_alpha 90.000000
_cell_angle_beta 90.000000
_cell_angle_gamma 90.000000
_cell_volume 2934.378820
_symmetry_space_group_name_H-M "C M M M"
_symmetry_group_IT_number 65
_symmetry_cell_setting 'orthorhombic'
loop_
_space_group_symop_operation_xyz
x,y,z
-x,-y,z
x,-y,-z
-x,y,-z
-x,-y,-z
x,y,-z
-x,y,z
x,-y,z
1/2+x,1/2+y,z
1/2-x,1/2-y,z
1/2+x,1/2-y,-z
1/2-x,1/2+y,-z
1/2-x,1/2-y,-z
1/2+x,1/2+y,-z
1/2-x,1/2+y,z
1/2+x,1/2-y,z
loop_
_atom_site_type_symbol
_atom_site_label
_atom_site_fract_x
_atom_site_fract_y
_atom_site_fract_z
Si Si1 0.306190 0.286663 0.500000
Si Si2 0.552240 0.796143 0.113391
Si Si3 0.847492 0.789174 0.696265
Si Si4 0.161170 0.203094 0.895062
Si Si5 0.445329 0.214683 0.392650
O O1 0.315513 0.500000 0.500000
O O2 0.250000 0.250000 0.500000
O O3 0.327311 0.213414 0.598076
O O4 0.500000 0.726356 0.148022
O O5 0.603036 0.697461 0.120004
O O6 0.557652 0.000000 0.149953
O O7 0.547469 0.809131 0.000000
O O8 0.825236 0.712894 0.793760
O O9 0.905198 0.771365 0.681747
O O10 0.836708 0.000000 0.699417
O O11 0.179352 0.000000 0.899092
O O12 0.170408 0.283228 0.000000
O O13 0.432507 0.274943 0.500000
O O14 0.500000 0.274371 0.373520
O O15 0.445802 0.000000 0.394034
#
# Coordination Sequence:
#
# PCOD9489998 Si02
#       5
#     8  16  16  16  16
#     4  10  22  40  61  84 105 127 162 211 265 320
#     4   8  14  25  40  59  88 129 175 218 254 286
#     4  10  20  35  55  79 107 138 174 216 259 306
#     4   9  18  31  47  69  98 133 170 206 248 298
#     4   9  18  32  50  75 108 144 181 219 260 308
#
# _framework density 24.536707
#
# number of rings (size 3 to 8) (size 9 to 14) (size 15 to 20)
#    0.000    2.889    1.111    1.333    0.000    3.556 
#    0.000    7.778    0.000    0.667    0.000    0.000 
#    0.000    0.000    0.000    0.000    0.000    0.000 
#
# Total GULP energy -200659.900532 kJ/mol
# GULP energy per Si atom -5573.886126 kJ/mol
# Density = 2.448086 g / cm^3
# Si number density = 24.536707 Si / 1000 Ang^3
#
#
#
# Elastic Constant Matrix: (Units=GPa)
#
#
# Indices 1 2 3 4 5 6 
#
# 1 22.1013 -12.3929 21.3056 0.0000 0.0000 0.0000
# 2 -12.3929 70.4507 8.5163 0.0000 0.0000 0.0000
# 3 21.3056 8.5163 260.9134 0.0000 0.0000 0.0000
# 4 0.0000 0.0000 0.0000 0.7528 0.0000 0.0000
# 5 0.0000 0.0000 0.0000 0.0000 -5.1513 0.0000
# 6 0.0000 0.0000 0.0000 0.0000 0.0000 12.4041
#
#
#
# Elastic Compliance Matrix: (Units=1/GPa)
#
#
# Indices 1 2 3 4 5 6 
#
# 1 0.055803 0.010408 -0.004896 0.000000 0.000000 0.000000
# 2 0.010408 0.016192 -0.001378 0.000000 0.000000 0.000000
# 3 -0.004896 -0.001378 0.004278 0.000000 0.000000 0.000000
# 4 0.000000 0.000000 0.000000 1.328379 0.000000 0.000000
# 5 0.000000 0.000000 0.000000 0.000000 -0.194126 0.000000
# 6 0.000000 0.000000 0.000000 0.000000 0.000000 0.080618
#
#
# Mechanical properties :
#
#
# Convention : Reuss Voigt Hill
#
# Bulk Modulus (GPa) = 11.82895 43.14703 27.48799
# Shear Modulus (GPa) = 3.81372 24.00356 13.90864
#
# Velocity S-wave (km/s) = 1.24806 3.13113 2.38344
# Velocity P-wave (km/s) = 2.62836 5.54029 4.33607
#
# Compressibility (1/GPa) = 0.08453838
#
# Stress axis : x y z
#
# Youngs Moduli (GPa) = 17.92033 61.75954 233.78074
#
# Poissons Ratio (x) = -0.64280 1.14469
# Poissons Ratio (y) = -0.18652 0.32224
# Poissons Ratio (z) = 0.08775 0.08513
#
# Static dielectric constant tensor:
#      x y z
#    x 1.968400 0.000000 0.000000 
#    y 0.000000 1.945020 0.000000 
#    z 0.000000 0.000000 2.069780 
# 
# From -- ./inp_files/46497.got.cif
#   From: 2010.05.17/outbox.cif.g08.bks.cpg/sg65_24_cif.got.tgz:46497.got - 2010.06.03 17:01:31.
