data_PCOD9489305
_publ_section_title
;
Structure prediction by ZEFSAII (Michael W. Deem and Ramdas Pophale) SiO2 
 PCOD9489305
Probable space group: C M M M
;
_chemical_formula_sum "Si O2"
_cell_formula_units_Z 104
_cell_length_a 19.702112
_cell_length_b 9.386767
_cell_length_c 34.402790
_cell_angle_alpha 90.000000
_cell_angle_beta 90.000000
_cell_angle_gamma 90.000000
_cell_volume 6362.422216
_symmetry_space_group_name_H-M "C M M M"
_symmetry_group_IT_number 65
_symmetry_cell_setting 'orthorhombic'
loop_
_space_group_symop_operation_xyz
x,y,z
-x,-y,z
x,-y,-z
-x,y,-z
-x,-y,-z
x,y,-z
-x,y,z
x,-y,z
1/2+x,1/2+y,z
1/2-x,1/2-y,z
1/2+x,1/2-y,-z
1/2-x,1/2+y,-z
1/2-x,1/2-y,-z
1/2+x,1/2+y,-z
1/2-x,1/2+y,z
1/2+x,1/2-y,z
loop_
_atom_site_type_symbol
_atom_site_label
_atom_site_fract_x
_atom_site_fract_y
_atom_site_fract_z
Si Si1 0.321364 0.829988 0.602890
Si Si2 0.080653 0.167448 0.545450
Si Si3 0.179635 0.669754 0.307475
Si Si4 0.421395 0.173516 0.000000
Si Si5 0.417039 0.165835 0.084748
Si Si6 0.079680 0.670339 0.238198
Si Si7 0.082699 0.836251 0.839280
O O1 0.250000 0.750000 0.596407
O O2 0.376114 0.765958 0.573596
O O3 0.341447 0.801878 0.647907
O O4 0.313669 0.000000 0.597981
O O5 0.096070 0.195138 0.500000
O O6 0.000000 0.188584 0.550797
O O7 0.095140 0.000000 0.552938
O O8 0.190729 0.500000 0.304382
O O9 0.250000 0.750000 0.300252
O O10 0.123703 0.710311 0.275689
O O11 0.392393 0.215528 0.957980
O O12 0.500000 0.220852 0.000000
O O13 0.422072 0.000000 0.000000
O O14 0.500000 0.169875 0.083515
O O15 0.394629 0.259300 0.121171
O O16 0.398787 0.000000 0.090395
O O17 0.085386 0.500000 0.232116
O O18 0.102891 0.751376 0.199403
O O19 0.000000 0.701998 0.244592
O O20 0.000000 0.833731 0.839896
O O21 0.104381 0.000000 0.837866
#
# Coordination Sequence:
#
# PCOD9489305 Si02
#       7
#    16  16  16   8  16  16  16
#     4  10  20  34  53  76 101 129 162 199 238 283
#     4   9  19  36  55  75 102 134 165 199 240 283
#     4   9  19  34  51  71  95 123 153 189 233 277
#     4   7  10  16  27  43  61  87 130 175 208 249
#     4   8  12  19  31  45  64  95 134 173 213 258
#     4   9  17  30  47  65  86 115 151 186 221 266
#     4   9  16  24  34  52  78 105 136 177 222 264
#
# _framework density 16.345976
#
# number of rings (size 3 to 8) (size 9 to 14) (size 15 to 20)
#    0.000    3.154    0.000    2.308    0.000    4.615 
#    0.000    2.692    0.000    4.154    0.000    0.000 
#    0.000    0.000    0.000    0.692    0.000    8.923 
#
# Total GULP energy -289522.294670 kJ/mol
# GULP energy per Si atom -5567.736436 kJ/mol
# Density = 1.630877 g / cm^3
# Si number density = 16.345976 Si / 1000 Ang^3
#
#
#
# Elastic Constant Matrix: (Units=GPa)
#
#
# Indices 1 2 3 4 5 6 
#
# 1 35.7926 40.0433 67.2460 0.0000 0.0000 0.0000
# 2 40.0433 69.9340 85.3686 0.0000 0.0000 0.0000
# 3 67.2460 85.3686 158.8023 0.0000 0.0000 0.0000
# 4 0.0000 0.0000 0.0000 16.2714 0.0000 0.0000
# 5 0.0000 0.0000 0.0000 0.0000 -8.8270 0.0000
# 6 0.0000 0.0000 0.0000 0.0000 0.0000 19.1776
#
#
#
# Elastic Compliance Matrix: (Units=1/GPa)
#
#
# Indices 1 2 3 4 5 6 
#
# 1 0.149560 -0.024220 -0.050312 0.000000 0.000000 0.000000
# 2 -0.024220 0.045517 -0.014213 0.000000 0.000000 0.000000
# 3 -0.050312 -0.014213 0.035243 0.000000 0.000000 0.000000
# 4 0.000000 0.000000 0.000000 0.061458 0.000000 0.000000
# 5 0.000000 0.000000 0.000000 0.000000 -0.113289 0.000000
# 6 0.000000 0.000000 0.000000 0.000000 0.000000 0.052144
#
#
# Mechanical properties :
#
#
# Convention : Reuss Voigt Hill
#
# Bulk Modulus (GPa) = 18.92872 72.20497 45.56685
# Shear Modulus (GPa) = 11.74448 10.11579 10.93013
#
# Velocity S-wave (km/s) = 2.68338 2.49038 2.58868
# Velocity P-wave (km/s) = 4.60499 7.24832 6.07223
#
# Compressibility (1/GPa) = 0.05282976
#
# Stress axis : x y z
#
# Youngs Moduli (GPa) = 6.68626 21.96995 28.37476
#
# Poissons Ratio (x) = 0.53212 1.42760
# Poissons Ratio (y) = 0.16194 0.40328
# Poissons Ratio (z) = 0.33640 0.31225
#
# Static dielectric constant tensor:
#      x y z
#    x 1.521530 0.000000 0.000000 
#    y 0.000000 1.540760 0.000000 
#    z 0.000000 0.000000 1.563100 
# 
# From -- ./inp_files/78255.got.cif
#   From: 2010.05.17/outbox.cif.g08.bks.cpg/sg65_40_cif.got.tgz:78255.got - 2010.06.03 17:01:31.
