data_PCOD9489971
_publ_section_title
;
Structure prediction by ZEFSAII (Michael W. Deem and Ramdas Pophale) SiO2 
 PCOD9489971
Probable space group: C M M M
;
_chemical_formula_sum "Si O2"
_cell_formula_units_Z 80
_cell_length_a 8.128186
_cell_length_b 27.563303
_cell_length_c 23.053865
_cell_angle_alpha 90.000000
_cell_angle_beta 90.000000
_cell_angle_gamma 90.000000
_cell_volume 5164.979928
_symmetry_space_group_name_H-M "C M M M"
_symmetry_group_IT_number 65
_symmetry_cell_setting 'orthorhombic'
loop_
_space_group_symop_operation_xyz
x,y,z
-x,-y,z
x,-y,-z
-x,y,-z
-x,-y,-z
x,y,-z
-x,y,z
x,-y,z
1/2+x,1/2+y,z
1/2-x,1/2-y,z
1/2+x,1/2-y,-z
1/2-x,1/2+y,-z
1/2-x,1/2-y,-z
1/2+x,1/2+y,-z
1/2-x,1/2+y,z
1/2+x,1/2-y,z
loop_
_atom_site_type_symbol
_atom_site_label
_atom_site_fract_x
_atom_site_fract_y
_atom_site_fract_z
Si Si1 0.692260 0.602591 0.132026
Si Si2 0.196437 0.944179 0.746267
Si Si3 0.804753 0.555441 0.621901
Si Si4 0.804974 0.944430 0.500000
Si Si5 0.197480 0.305511 0.067263
Si Si6 0.000000 0.442274 0.934494
O O1 0.500000 0.588353 0.122158
O O2 0.733914 0.589288 0.198617
O O3 0.715714 0.657961 0.111649
O O4 0.831881 0.574961 0.095479
O O5 0.255623 0.924133 0.684354
O O6 0.000000 0.947514 0.743280
O O7 0.260566 0.000000 0.754382
O O8 0.735259 0.500000 0.622588
O O9 0.747526 0.578294 0.561268
O O10 0.000000 0.552917 0.619881
O O11 0.000000 0.947500 0.500000
O O12 0.734325 0.000000 0.500000
O O13 0.250000 0.250000 0.076811
O O14 0.000000 0.310017 0.073009
O O15 0.241265 0.317573 0.000000
O O16 0.000000 0.500000 0.934928
O O17 0.000000 0.423105 0.000000
#
# Coordination Sequence:
#
# PCOD9489971 Si02
#       6
#    16  16  16   8  16   8
#     4  11  22  36  54  74  99 129 162 203 249 296
#     4   9  18  31  45  63  88 122 162 196 231 280
#     4   9  16  24  37  57  80 110 150 194 234 272
#     4   9  15  23  35  51  77 111 146 189 234 273
#     4  10  20  35  55  78 100 122 153 196 248 306
#     4  11  24  38  52  72  98 129 167 205 242 291
#
# _framework density 15.488928
#
# number of rings (size 3 to 8) (size 9 to 14) (size 15 to 20)
#    0.000    2.200    1.000    2.700    1.400    7.200 
#    0.000    1.000    0.000    0.000    0.000    0.000 
#    0.000    0.000    0.000    0.900    0.000   12.100 
#
# Total GULP energy -222782.287506 kJ/mol
# GULP energy per Si atom -5569.557188 kJ/mol
# Density = 1.545367 g / cm^3
# Si number density = 15.488928 Si / 1000 Ang^3
#
#
#
# Elastic Constant Matrix: (Units=GPa)
#
#
# Indices 1 2 3 4 5 6 
#
# 1 66.2997 15.3754 56.0013 0.0000 0.0000 0.0000
# 2 15.3754 52.0935 43.6817 0.0000 0.0000 0.0000
# 3 56.0013 43.6817 171.6161 0.0000 0.0000 0.0000
# 4 0.0000 0.0000 0.0000 8.9085 0.0000 0.0000
# 5 0.0000 0.0000 0.0000 0.0000 30.9352 0.0000
# 6 0.0000 0.0000 0.0000 0.0000 0.0000 17.0292
#
#
#
# Elastic Compliance Matrix: (Units=1/GPa)
#
#
# Indices 1 2 3 4 5 6 
#
# 1 0.020836 -0.000570 -0.006654 0.000000 0.000000 0.000000
# 2 -0.000570 0.024421 -0.006030 0.000000 0.000000 0.000000
# 3 -0.006654 -0.006030 0.009533 0.000000 0.000000 0.000000
# 4 0.000000 0.000000 0.000000 0.112252 0.000000 0.000000
# 5 0.000000 0.000000 0.000000 0.000000 0.032326 0.000000
# 6 0.000000 0.000000 0.000000 0.000000 0.000000 0.058723
#
#
# Mechanical properties :
#
#
# Convention : Reuss Voigt Hill
#
# Bulk Modulus (GPa) = 35.35868 57.79179 46.57523
# Shear Modulus (GPa) = 17.00539 23.03796 20.02168
#
# Velocity S-wave (km/s) = 3.31706 3.86084 3.59924
# Velocity P-wave (km/s) = 6.12768 7.56753 6.88534
#
# Compressibility (1/GPa) = 0.02828160
#
# Stress axis : x y z
#
# Youngs Moduli (GPa) = 47.99478 40.94889 104.89867
#
# Poissons Ratio (x) = 0.02335 0.69798
# Poissons Ratio (y) = 0.02737 0.63252
# Poissons Ratio (z) = 0.31935 0.24691
#
# Static dielectric constant tensor:
#      x y z
#    x 1.533070 0.000000 0.000000 
#    y 0.000000 1.507250 0.000000 
#    z 0.000000 0.000000 1.555060 
# 
# From -- ./inp_files/60047.got.cif
#   From: 2010.05.17/outbox.cif.g08.bks.cpg/sg65_31_cif.got.tgz:60047.got - 2010.06.03 17:01:31.
