data_PCOD9489325
_publ_section_title
;
Structure prediction by ZEFSAII (Michael W. Deem and Ramdas Pophale) SiO2 
 PCOD9489325
Probable space group: C M M M
;
_chemical_formula_sum "Si O2"
_cell_formula_units_Z 96
_cell_length_a 24.814221
_cell_length_b 23.989297
_cell_length_c 8.705586
_cell_angle_alpha 90.000000
_cell_angle_beta 90.000000
_cell_angle_gamma 90.000000
_cell_volume 5182.223951
_symmetry_space_group_name_H-M "C M M M"
_symmetry_group_IT_number 65
_symmetry_cell_setting 'orthorhombic'
loop_
_space_group_symop_operation_xyz
x,y,z
-x,-y,z
x,-y,-z
-x,y,-z
-x,-y,-z
x,y,-z
-x,y,z
x,-y,z
1/2+x,1/2+y,z
1/2-x,1/2-y,z
1/2+x,1/2-y,-z
1/2-x,1/2+y,-z
1/2-x,1/2-y,-z
1/2+x,1/2+y,-z
1/2-x,1/2+y,z
1/2+x,1/2-y,z
loop_
_atom_site_type_symbol
_atom_site_label
_atom_site_fract_x
_atom_site_fract_y
_atom_site_fract_z
Si Si1 0.663506 0.233599 0.685544
Si Si2 0.878225 0.563694 0.814921
Si Si3 0.659358 0.362996 0.316016
Si Si4 0.559574 0.836561 0.315129
Si Si5 0.561585 0.434932 0.185326
Si Si6 0.272291 0.133233 0.183622
O O1 0.668705 0.231503 0.500000
O O2 0.661143 0.297886 0.732350
O O3 0.607030 0.205102 0.733011
O O4 0.709858 0.194091 0.754143
O O5 0.881422 0.500000 0.764001
O O6 0.924064 0.602835 0.745448
O O7 0.821041 0.591785 0.772743
O O8 0.881973 0.565241 0.000000
O O9 0.658640 0.364949 0.500000
O O10 0.607506 0.395537 0.253622
O O11 0.715858 0.386236 0.253304
O O12 0.559867 0.837350 0.500000
O O13 0.500000 0.820278 0.262410
O O14 0.500000 0.420120 0.231768
O O15 0.570525 0.500000 0.227915
O O16 0.563863 0.431876 0.000000
O O17 0.268450 0.135317 0.000000
#
# Coordination Sequence:
#
# PCOD9489325 Si02
#       6
#    16  16  16  16  16  16
#     4   9  19  35  52  73 106 142 173 212 261 308
#     4   9  19  35  52  71  98 133 171 211 256 302
#     4  11  22  34  54  83 109 136 172 211 256 314
#     4   9  18  33  52  73  99 133 171 209 251 300
#     4   9  20  40  61  79 104 138 173 212 259 308
#     4  10  20  34  53  76 104 139 178 218 260 307
#
# _framework density 18.524864999999998
#
# number of rings (size 3 to 8) (size 9 to 14) (size 15 to 20)
#    0.000    2.500    0.000    2.000    0.000    7.000 
#    0.000    5.833    0.000    0.000    0.000    0.000 
#    0.000    0.000    0.000    0.000    0.000    0.000 
#
# Total GULP energy -267817.820307 kJ/mol
# GULP energy per Si atom -5579.537923 kJ/mol
# Density = 1.848270 g / cm^3
# Si number density = 18.524865 Si / 1000 Ang^3
#
#
#
# Elastic Constant Matrix: (Units=GPa)
#
#
# Indices 1 2 3 4 5 6 
#
# 1 125.8338 19.7895 21.1766 0.0000 0.0000 0.0000
# 2 19.7895 33.9983 8.0118 0.0000 0.0000 0.0000
# 3 21.1766 8.0118 13.7046 0.0000 0.0000 0.0000
# 4 0.0000 0.0000 0.0000 25.6009 0.0000 0.0000
# 5 0.0000 0.0000 0.0000 0.0000 27.5000 0.0000
# 6 0.0000 0.0000 0.0000 0.0000 0.0000 21.3360
#
#
#
# Elastic Compliance Matrix: (Units=1/GPa)
#
#
# Indices 1 2 3 4 5 6 
#
# 1 0.010960 -0.002770 -0.015317 0.000000 0.000000 0.000000
# 2 -0.002770 0.034813 -0.016071 0.000000 0.000000 0.000000
# 3 -0.015317 -0.016071 0.106031 0.000000 0.000000 0.000000
# 4 0.000000 0.000000 0.000000 0.039061 0.000000 0.000000
# 5 0.000000 0.000000 0.000000 0.000000 0.036364 0.000000
# 6 0.000000 0.000000 0.000000 0.000000 0.000000 0.046869
#
#
# Mechanical properties :
#
#
# Convention : Reuss Voigt Hill
#
# Bulk Modulus (GPa) = 11.97775 30.16584 21.07179
# Shear Modulus (GPa) = 13.50465 23.19130 18.34797
#
# Velocity S-wave (km/s) = 2.70293 3.54206 3.15056
# Velocity P-wave (km/s) = 4.02752 5.74870 4.96329
#
# Compressibility (1/GPa) = 0.08348817
#
# Stress axis : x y z
#
# Youngs Moduli (GPa) = 91.23839 28.72495 9.43123
#
# Poissons Ratio (x) = 0.07958 0.14445
# Poissons Ratio (y) = 0.25276 0.15157
# Poissons Ratio (z) = 1.39745 0.46164
#
# Static dielectric constant tensor:
#      x y z
#    x 1.639500 0.000000 0.000000 
#    y 0.000000 1.629120 0.000000 
#    z 0.000000 0.000000 1.627030 
# 
# From -- ./inp_files/14282.got.cif
#   From: 2010.05.17/outbox.cif.g08.bks.cpg/sg65_8_cif.got.tgz:14282.got - 2010.06.03 17:01:31.
