data_PCOD9489616
_publ_section_title
;
Structure prediction by ZEFSAII (Michael W. Deem and Ramdas Pophale) SiO2 
 PCOD9489616
Probable space group: C M M M
;
_chemical_formula_sum "Si O2"
_cell_formula_units_Z 80
_cell_length_a 19.579320
_cell_length_b 18.724886
_cell_length_c 12.810374
_cell_angle_alpha 90.000000
_cell_angle_beta 90.000000
_cell_angle_gamma 90.000000
_cell_volume 4696.546169
_symmetry_space_group_name_H-M "C M M M"
_symmetry_group_IT_number 65
_symmetry_cell_setting 'orthorhombic'
loop_
_space_group_symop_operation_xyz
x,y,z
-x,-y,z
x,-y,-z
-x,y,-z
-x,-y,-z
x,y,-z
-x,y,z
x,-y,z
1/2+x,1/2+y,z
1/2-x,1/2-y,z
1/2+x,1/2-y,-z
1/2-x,1/2+y,-z
1/2-x,1/2-y,-z
1/2+x,1/2+y,-z
1/2-x,1/2+y,z
1/2+x,1/2-y,z
loop_
_atom_site_type_symbol
_atom_site_label
_atom_site_fract_x
_atom_site_fract_y
_atom_site_fract_z
Si Si1 0.689103 0.082629 0.878601
Si Si2 0.209236 0.083927 0.309873
Si Si3 0.722774 0.168385 0.500000
Si Si4 0.078674 0.177013 0.293859
Si Si5 0.576902 0.224880 0.500000
Si Si6 0.920298 0.295205 0.122358
O O1 0.750876 0.094517 0.799021
O O2 0.628665 0.138079 0.855245
O O3 0.666569 0.000000 0.866708
O O4 0.709126 0.092440 0.000000
O O5 0.248310 0.128291 0.398832
O O6 0.132976 0.114176 0.301473
O O7 0.209716 0.000000 0.334892
O O8 0.750000 0.250000 0.500000
O O9 0.640580 0.171523 0.500000
O O10 0.083195 0.225176 0.398117
O O11 0.095871 0.229010 0.197181
O O12 0.000000 0.153163 0.283205
O O13 0.500000 0.193604 0.500000
O O14 0.000000 0.313788 0.140075
O O15 0.912490 0.276717 0.000000
#
# Coordination Sequence:
#
# PCOD9489616 Si02
#       6
#    16  16   8  16   8  16
#     4   9  19  34  52  77 110 145 179 220 271 323
#     4  11  23  37  55  80 110 142 181 227 269 321
#     4  12  21  36  61  84 107 143 180 219 271 323
#     4  10  20  35  54  77 106 139 178 222 271 320
#     4  10  20  34  54  82 109 137 174 216 263 317
#     4   9  18  32  52  79 108 139 180 226 267 318
#
# _framework density 17.033792999999999
#
# number of rings (size 3 to 8) (size 9 to 14) (size 15 to 20)
#    0.000    2.000    2.000    1.500    0.000    1.600 
#    0.000    4.000    0.000    5.400    0.000    5.600 
#    0.000    0.000    0.000    0.000    0.000    0.000 
#
# Total GULP energy -223186.236519 kJ/mol
# GULP energy per Si atom -5579.655913 kJ/mol
# Density = 1.699502 g / cm^3
# Si number density = 17.033793 Si / 1000 Ang^3
#
#
#
# Elastic Constant Matrix: (Units=GPa)
#
#
# Indices 1 2 3 4 5 6 
#
# 1 112.5968 77.2764 46.9514 0.0000 0.0000 0.0000
# 2 77.2764 98.5045 55.5483 0.0000 0.0000 0.0000
# 3 46.9514 55.5483 70.8897 0.0000 0.0000 0.0000
# 4 0.0000 0.0000 0.0000 22.1589 0.0000 0.0000
# 5 0.0000 0.0000 0.0000 0.0000 20.1098 0.0000
# 6 0.0000 0.0000 0.0000 0.0000 0.0000 29.1275
#
#
#
# Elastic Compliance Matrix: (Units=1/GPa)
#
#
# Indices 1 2 3 4 5 6 
#
# 1 0.019348 -0.014248 -0.001650 0.000000 0.000000 0.000000
# 2 -0.014248 0.028681 -0.013038 0.000000 0.000000 0.000000
# 3 -0.001650 -0.013038 0.025416 0.000000 0.000000 0.000000
# 4 0.000000 0.000000 0.000000 0.045129 0.000000 0.000000
# 5 0.000000 0.000000 0.000000 0.000000 0.049727 0.000000
# 6 0.000000 0.000000 0.000000 0.000000 0.000000 0.034332
#
#
# Mechanical properties :
#
#
# Convention : Reuss Voigt Hill
#
# Bulk Modulus (GPa) = 64.21170 71.28259 67.74714
# Shear Modulus (GPa) = 18.81865 21.09357 19.95611
#
# Velocity S-wave (km/s) = 3.32743 3.52282 3.42652
# Velocity P-wave (km/s) = 7.24851 7.64759 7.45072
#
# Compressibility (1/GPa) = 0.01557349
#
# Stress axis : x y z
#
# Youngs Moduli (GPa) = 51.68616 34.86588 39.34606
#
# Poissons Ratio (x) = 0.49676 0.06492
# Poissons Ratio (y) = 0.73641 0.51299
# Poissons Ratio (z) = 0.08528 0.45458
#
# Static dielectric constant tensor:
#      x y z
#    x 1.571350 0.000000 0.000000 
#    y 0.000000 1.540280 0.000000 
#    z 0.000000 0.000000 1.576770 
# 
# From -- ./inp_files/26663.got.cif
#   From: 2010.05.17/outbox.cif.g08.bks.cpg/sg65_14_cif.got.tgz:26663.got - 2010.06.03 17:01:31.
