data_PCOD9489948
_publ_section_title
;
Structure prediction by ZEFSAII (Michael W. Deem and Ramdas Pophale) SiO2 
 PCOD9489948
Probable space group: C M M M
;
_chemical_formula_sum "Si O2"
_cell_formula_units_Z 88
_cell_length_a 15.917205
_cell_length_b 9.228717
_cell_length_c 29.496136
_cell_angle_alpha 90.000000
_cell_angle_beta 90.000000
_cell_angle_gamma 90.000000
_cell_volume 4332.846117
_symmetry_space_group_name_H-M "C M M M"
_symmetry_group_IT_number 65
_symmetry_cell_setting 'orthorhombic'
loop_
_space_group_symop_operation_xyz
x,y,z
-x,-y,z
x,-y,-z
-x,y,-z
-x,-y,-z
x,y,-z
-x,y,z
x,-y,z
1/2+x,1/2+y,z
1/2-x,1/2-y,z
1/2+x,1/2-y,-z
1/2-x,1/2+y,-z
1/2-x,1/2-y,-z
1/2+x,1/2+y,-z
1/2-x,1/2+y,z
1/2+x,1/2-y,z
loop_
_atom_site_type_symbol
_atom_site_label
_atom_site_fract_x
_atom_site_fract_y
_atom_site_fract_z
Si Si1 0.603095 0.333717 0.188669
Si Si2 0.900883 0.337713 0.276281
Si Si3 0.397084 0.831445 0.901455
Si Si4 0.161461 0.172266 0.361495
Si Si5 0.097798 0.676494 0.000000
Si Si6 0.898790 0.334602 0.448721
O O1 0.500000 0.332149 0.188987
O O2 0.629448 0.500000 0.192579
O O3 0.633680 0.241017 0.231627
O O4 0.629802 0.263294 0.141175
O O5 0.865713 0.500000 0.283270
O O6 0.891919 0.239274 0.320587
O O7 0.000000 0.352984 0.268186
O O8 0.500000 0.828311 0.902856
O O9 0.366579 0.779428 0.951092
O O10 0.373951 0.000000 0.894960
O O11 0.250000 0.250000 0.355343
O O12 0.129367 0.224301 0.410487
O O13 0.165392 0.000000 0.358882
O O14 0.097983 0.500000 0.000000
O O15 0.000000 0.722444 0.000000
O O16 0.870428 0.299988 0.500000
O O17 0.870862 0.500000 0.437799
O O18 0.000000 0.336610 0.449177
#
# Coordination Sequence:
#
# PCOD9489948 Si02
#       6
#    16  16  16  16   8  16
#     4   9  16  25  38  59  86 115 152 199 247 295
#     4  10  20  35  55  76  99 130 169 212 258 308
#     4   8  12  19  31  47  70 104 147 192 238 289
#     4  12  25  39  56  79 109 142 175 213 257 305
#     4   7  10  16  27  43  65  99 144 189 232 285
#     4   9  19  38  63  88 114 144 177 213 253 298
#
# _framework density 20.309975000000001
#
# number of rings (size 3 to 8) (size 9 to 14) (size 15 to 20)
#    0.000    2.636    0.000    4.909    0.000    6.545 
#    0.000    1.364    0.000    2.727    0.000    0.000 
#    0.000    0.000    0.000    0.818    0.000   11.273 
#
# Total GULP energy -245407.764519 kJ/mol
# GULP energy per Si atom -5577.449194 kJ/mol
# Density = 2.026375 g / cm^3
# Si number density = 20.309975 Si / 1000 Ang^3
#
#
#
# Elastic Constant Matrix: (Units=GPa)
#
#
# Indices 1 2 3 4 5 6 
#
# 1 9.8170 9.8289 2.2389 0.0000 0.0000 0.0000
# 2 9.8289 168.8810 103.7626 0.0000 0.0000 0.0000
# 3 2.2389 103.7626 156.8888 0.0000 0.0000 0.0000
# 4 0.0000 0.0000 0.0000 -19.7419 0.0000 0.0000
# 5 0.0000 0.0000 0.0000 0.0000 -36.7106 0.0000
# 6 0.0000 0.0000 0.0000 0.0000 0.0000 18.9466
#
#
#
# Elastic Compliance Matrix: (Units=1/GPa)
#
#
# Indices 1 2 3 4 5 6 
#
# 1 0.110013 -0.009161 0.004489 0.000000 0.000000 0.000000
# 2 -0.009161 0.010737 -0.006971 0.000000 0.000000 0.000000
# 3 0.004489 -0.006971 0.010920 0.000000 0.000000 0.000000
# 4 0.000000 0.000000 0.000000 -0.050654 0.000000 0.000000
# 5 0.000000 0.000000 0.000000 0.000000 -0.027240 0.000000
# 6 0.000000 0.000000 0.000000 0.000000 0.000000 0.052780
#
#
# Mechanical properties :
#
#
# Convention : Reuss Voigt Hill
#
# Bulk Modulus (GPa) = 9.22637 63.02750 36.12694
# Shear Modulus (GPa) = 30.12589 7.14924 18.63756
#
# Velocity S-wave (km/s) = 3.85555 1.87822 3.03257
# Velocity P-wave (km/s) = 4.93690 5.98362 5.48529
#
# Compressibility (1/GPa) = 0.10838495
#
# Stress axis : x y z
#
# Youngs Moduli (GPa) = 9.08986 93.13249 91.57367
#
# Poissons Ratio (x) = 0.85316 -0.41105
# Poissons Ratio (y) = 0.08327 0.63834
# Poissons Ratio (z) = -0.04080 0.64920
#
# Static dielectric constant tensor:
#      x y z
#    x 1.810920 0.000000 0.000000 
#    y 0.000000 1.694720 0.000000 
#    z 0.000000 0.000000 1.757510 
# 
# From -- ./inp_files/77889.got.cif
#   From: 2010.05.17/outbox.cif.g08.bks.cpg/sg65_39_cif.got.tgz:77889.got - 2010.06.03 17:01:31.
