data_PCOD9489648
_publ_section_title
;
Structure prediction by ZEFSAII (Michael W. Deem and Ramdas Pophale) SiO2 
 PCOD9489648
Probable space group: C M M M
;
_chemical_formula_sum "Si O2"
_cell_formula_units_Z 92
_cell_length_a 27.436589
_cell_length_b 7.845286
_cell_length_c 23.559238
_cell_angle_alpha 90.000000
_cell_angle_beta 90.000000
_cell_angle_gamma 90.000000
_cell_volume 5071.076212
_symmetry_space_group_name_H-M "C M M M"
_symmetry_group_IT_number 65
_symmetry_cell_setting 'orthorhombic'
loop_
_space_group_symop_operation_xyz
x,y,z
-x,-y,z
x,-y,-z
-x,y,-z
-x,-y,-z
x,y,-z
-x,y,z
x,-y,z
1/2+x,1/2+y,z
1/2-x,1/2-y,z
1/2+x,1/2-y,-z
1/2-x,1/2+y,-z
1/2-x,1/2-y,-z
1/2+x,1/2+y,-z
1/2-x,1/2+y,z
1/2+x,1/2-y,z
loop_
_atom_site_type_symbol
_atom_site_label
_atom_site_fract_x
_atom_site_fract_y
_atom_site_fract_z
Si Si1 0.597322 0.802110 0.880523
Si Si2 0.944742 0.707233 0.761532
Si Si3 0.692913 0.198397 0.414588
Si Si4 0.446009 0.700246 0.000000
Si Si5 0.835844 0.000000 0.500000
Si Si6 0.804804 0.203175 0.826493
Si Si7 0.845472 0.201415 0.294022
O O1 0.569589 0.728868 0.824996
O O2 0.581514 0.740507 0.941854
O O3 0.654274 0.775693 0.868061
O O4 0.585552 0.000000 0.879710
O O5 0.942681 0.500000 0.761273
O O6 0.902586 0.770415 0.719474
O O7 0.000000 0.758010 0.747704
O O8 0.750000 0.250000 0.416806
O O9 0.666902 0.346105 0.451140
O O10 0.673300 0.209412 0.350423
O O11 0.688242 0.000000 0.433682
O O12 0.451769 0.500000 0.000000
O O13 0.500000 0.781593 0.000000
O O14 0.750000 0.250000 0.841432
O O15 0.817739 0.264821 0.762711
O O16 0.810305 0.000000 0.826426
O O17 0.835963 0.000000 0.300026
#
# Coordination Sequence:
#
# PCOD9489648 Si02
#       7
#    16  16  16   8   4  16  16
#     4  10  20  35  55  79 107 142 182 226 272 329
#     4   9  18  33  54  80 110 141 179 228 281 331
#     4  12  23  36  57  80 114 154 189 230 275 325
#     4  11  23  37  54  77 108 141 179 223 275 331
#     4  12  24  40  54  82 117 152 191 230 268 334
#     4  10  20  34  55  78 110 145 183 225 274 324
#     4  10  20  35  52  81 113 145 186 229 273 330
#
# _framework density 18.142105999999998
#
# number of rings (size 3 to 8) (size 9 to 14) (size 15 to 20)
#    0.000    1.652    1.739    3.391    0.000    5.913 
#    0.000    0.435    0.000    0.000    0.000    1.217 
#    0.000    2.783    0.000    0.000    0.000    0.000 
#
# Total GULP energy -256171.181684 kJ/mol
# GULP energy per Si atom -5568.938732 kJ/mol
# Density = 1.810081 g / cm^3
# Si number density = 18.142106 Si / 1000 Ang^3
#
#
#
# Elastic Constant Matrix: (Units=GPa)
#
#
# Indices 1 2 3 4 5 6 
#
# 1 45.4252 -4.4166 10.4921 0.0000 0.0000 0.0000
# 2 -4.4166 91.2389 27.6874 0.0000 0.0000 0.0000
# 3 10.4921 27.6874 97.5028 0.0000 0.0000 0.0000
# 4 0.0000 0.0000 0.0000 4.5770 0.0000 0.0000
# 5 0.0000 0.0000 0.0000 0.0000 86.2472 0.0000
# 6 0.0000 0.0000 0.0000 0.0000 0.0000 21.7801
#
#
#
# Elastic Compliance Matrix: (Units=1/GPa)
#
#
# Indices 1 2 3 4 5 6 
#
# 1 0.022915 0.002033 -0.003043 0.000000 0.000000 0.000000
# 2 0.002033 0.012174 -0.003676 0.000000 0.000000 0.000000
# 3 -0.003043 -0.003676 0.011627 0.000000 0.000000 0.000000
# 4 0.000000 0.000000 0.000000 0.218482 0.000000 0.000000
# 5 0.000000 0.000000 0.000000 0.000000 0.011595 0.000000
# 6 0.000000 0.000000 0.000000 0.000000 0.000000 0.045913
#
#
# Mechanical properties :
#
#
# Convention : Reuss Voigt Hill
#
# Bulk Modulus (GPa) = 26.77809 33.52139 30.14974
# Shear Modulus (GPa) = 14.51269 35.88113 25.19691
#
# Velocity S-wave (km/s) = 2.83140 4.45205 3.73079
# Velocity P-wave (km/s) = 5.04790 6.70410 5.93406
#
# Compressibility (1/GPa) = 0.03734396
#
# Stress axis : x y z
#
# Youngs Moduli (GPa) = 43.64009 82.14174 86.00407
#
# Poissons Ratio (x) = -0.16697 0.26171
# Poissons Ratio (y) = -0.08871 0.31613
# Poissons Ratio (z) = 0.13280 0.30193
#
# Static dielectric constant tensor:
#      x y z
#    x 1.604970 0.000000 0.000000 
#    y 0.000000 1.654300 0.000000 
#    z 0.000000 0.000000 1.646180 
# 
# From -- ./inp_files/65793.got.cif
#   From: 2010.05.17/outbox.cif.g08.bks.cpg/sg65_33_cif.got.tgz:65793.got - 2010.06.03 17:01:31.
