data_PCOD9489853
_publ_section_title
;
Structure prediction by ZEFSAII (Michael W. Deem and Ramdas Pophale) SiO2 
 PCOD9489853
Probable space group: C M M M
;
_chemical_formula_sum "Si O2"
_cell_formula_units_Z 88
_cell_length_a 27.233270
_cell_length_b 14.899941
_cell_length_c 11.997756
_cell_angle_alpha 90.000000
_cell_angle_beta 90.000000
_cell_angle_gamma 90.000000
_cell_volume 4868.378838
_symmetry_space_group_name_H-M "C M M M"
_symmetry_group_IT_number 65
_symmetry_cell_setting 'orthorhombic'
loop_
_space_group_symop_operation_xyz
x,y,z
-x,-y,z
x,-y,-z
-x,y,-z
-x,-y,-z
x,y,-z
-x,y,z
x,-y,z
1/2+x,1/2+y,z
1/2-x,1/2-y,z
1/2+x,1/2-y,-z
1/2-x,1/2+y,-z
1/2-x,1/2-y,-z
1/2+x,1/2+y,-z
1/2-x,1/2+y,z
1/2+x,1/2-y,z
loop_
_atom_site_type_symbol
_atom_site_label
_atom_site_fract_x
_atom_site_fract_y
_atom_site_fract_z
Si Si1 0.703497 0.134594 0.000000
Si Si2 0.891524 0.254771 0.630592
Si Si3 0.129380 0.602099 0.193109
Si Si4 0.392814 0.606530 0.812310
Si Si5 0.500000 0.395196 0.839439
Si Si6 0.500000 0.287229 0.375836
Si Si7 0.315245 0.347829 0.000000
Si Si8 0.444103 0.109793 0.000000
O O1 0.676066 0.101207 0.889121
O O2 0.693980 0.241386 0.000000
O O3 0.760719 0.111942 0.000000
O O4 0.878085 0.250717 0.500000
O O5 0.865939 0.332368 0.702429
O O6 0.884697 0.162466 0.699204
O O7 0.950545 0.269589 0.637528
O O8 0.118600 0.500000 0.227642
O O9 0.085831 0.636149 0.110563
O O10 0.396942 0.500000 0.791770
O O11 0.444938 0.637060 0.869515
O O12 0.347853 0.625179 0.894274
O O13 0.500000 0.500000 0.865652
O O14 0.500000 0.369488 0.709142
O O15 0.500000 0.324502 0.500000
O O16 0.500000 0.141484 0.000000
O O17 0.443747 0.000000 0.000000
#
# Coordination Sequence:
#
# PCOD9489853 Si02
#       8
#     8  16  16  16   8   8   8   8
#     4  10  21  39  60  82 110 139 180 230 283 332
#     4  10  20  35  53  78 112 149 190 229 266 319
#     4  10  20  35  55  78 108 143 182 227 276 329
#     4  10  20  35  56  84 114 147 183 220 274 332
#     4   8  16  30  48  75 113 144 171 213 261 321
#     4   8  16  29  46  69 102 145 187 221 255 303
#     4  11  21  36  61  87 110 140 176 229 282 336
#     4   8  16  30  49  76 106 136 174 222 275 328
#
# _framework density 18.075831999999998
#
# number of rings (size 3 to 8) (size 9 to 14) (size 15 to 20)
#    0.000    2.455    1.818    1.091    1.273    2.727 
#    0.000    5.000    0.000    3.818    0.000    2.545 
#    0.000    0.000    0.000    0.000    0.000    0.000 
#
# Total GULP energy -245114.872995 kJ/mol
# GULP energy per Si atom -5570.792568 kJ/mol
# Density = 1.803469 g / cm^3
# Si number density = 18.075832 Si / 1000 Ang^3
#
#
#
# Elastic Constant Matrix: (Units=GPa)
#
#
# Indices 1 2 3 4 5 6 
#
# 1 128.1432 19.0310 52.2829 0.0000 0.0000 0.0000
# 2 19.0310 86.1013 45.0975 0.0000 0.0000 0.0000
# 3 52.2829 45.0975 140.4864 0.0000 0.0000 0.0000
# 4 0.0000 0.0000 0.0000 12.5891 0.0000 0.0000
# 5 0.0000 0.0000 0.0000 0.0000 18.3565 0.0000
# 6 0.0000 0.0000 0.0000 0.0000 0.0000 18.3308
#
#
#
# Elastic Compliance Matrix: (Units=1/GPa)
#
#
# Indices 1 2 3 4 5 6 
#
# 1 0.009207 -0.000289 -0.003334 0.000000 0.000000 0.000000
# 2 -0.000289 0.013971 -0.004377 0.000000 0.000000 0.000000
# 3 -0.003334 -0.004377 0.009764 0.000000 0.000000 0.000000
# 4 0.000000 0.000000 0.000000 0.079433 0.000000 0.000000
# 5 0.000000 0.000000 0.000000 0.000000 0.054477 0.000000
# 6 0.000000 0.000000 0.000000 0.000000 0.000000 0.054553
#
#
# Mechanical properties :
#
#
# Convention : Reuss Voigt Hill
#
# Bulk Modulus (GPa) = 59.02521 65.28372 62.15446
# Shear Modulus (GPa) = 20.57177 25.74325 23.15751
#
# Velocity S-wave (km/s) = 3.37721 3.77793 3.58317
# Velocity P-wave (km/s) = 6.92333 7.43137 7.18184
#
# Compressibility (1/GPa) = 0.01694191
#
# Stress axis : x y z
#
# Youngs Moduli (GPa) = 108.61526 71.57810 102.41829
#
# Poissons Ratio (x) = 0.02068 0.34142
# Poissons Ratio (y) = 0.03138 0.44831
# Poissons Ratio (z) = 0.36208 0.31331
#
# Static dielectric constant tensor:
#      x y z
#    x 1.652040 0.000000 0.000000 
#    y 0.000000 1.648550 0.000000 
#    z 0.000000 0.000000 1.608090 
# 
# From -- ./inp_files/32309.got.cif
#   From: 2010.05.17/outbox.cif.g08.bks.cpg/sg65_17_cif.got.tgz:32309.got - 2010.06.03 17:01:31.
