data_PCOD9489311
_publ_section_title
;
Structure prediction by ZEFSAII (Michael W. Deem and Ramdas Pophale) SiO2 
 PCOD9489311
Probable space group: C M M M
;
_chemical_formula_sum "Si O2"
_cell_formula_units_Z 64
_cell_length_a 7.607590
_cell_length_b 29.580076
_cell_length_c 13.301670
_cell_angle_alpha 90.000000
_cell_angle_beta 90.000000
_cell_angle_gamma 90.000000
_cell_volume 2993.315907
_symmetry_space_group_name_H-M "C M M M"
_symmetry_group_IT_number 65
_symmetry_cell_setting 'orthorhombic'
loop_
_space_group_symop_operation_xyz
x,y,z
-x,-y,z
x,-y,-z
-x,y,-z
-x,-y,-z
x,y,-z
-x,y,z
x,-y,z
1/2+x,1/2+y,z
1/2-x,1/2-y,z
1/2+x,1/2-y,-z
1/2-x,1/2+y,-z
1/2-x,1/2-y,-z
1/2+x,1/2+y,-z
1/2-x,1/2+y,z
1/2+x,1/2-y,z
loop_
_atom_site_type_symbol
_atom_site_label
_atom_site_fract_x
_atom_site_fract_y
_atom_site_fract_z
Si Si1 0.793521 0.049540 0.879064
Si Si2 0.800686 0.354413 0.805912
Si Si3 0.790396 0.000000 0.385138
Si Si4 0.710300 0.101429 0.614351
Si Si5 0.711828 0.197147 0.000000
O O1 0.695261 0.094193 0.846008
O O2 0.000000 0.053441 0.850474
O O3 0.730014 0.000000 0.844778
O O4 0.787659 0.048911 0.000000
O O5 0.719456 0.362368 0.695339
O O6 0.000000 0.337277 0.791835
O O7 0.719055 0.325627 0.896827
O O8 0.739745 0.049881 0.347737
O O9 0.720006 0.000000 0.500000
O O10 0.000000 0.000000 0.386316
O O11 0.779167 0.105013 0.500000
O O12 0.500000 0.107430 0.610517
O O13 0.750000 0.250000 0.000000
O O14 0.500000 0.189365 0.000000
#
# Coordination Sequence:
#
# PCOD9489311 Si02
#       5
#    16  16   8  16   8
#     4   9  18  31  46  69 104 141 173 204 244 299
#     4  10  20  34  53  76 101 131 171 214 252 297
#     4   9  17  29  45  68 101 142 184 220 247 277
#     4   9  18  32  49  70 100 139 178 211 246 290
#     4  10  22  40  59  80 101 123 160 211 267 324
#
# _framework density 21.380973000000001
#
# number of rings (size 3 to 8) (size 9 to 14) (size 15 to 20)
#    0.000    2.625    1.250    1.125    1.750    4.000 
#    0.000    1.250    0.000    0.750    0.000    0.000 
#    0.000    0.000    0.000    0.000    0.000    0.000 
#
# Total GULP energy -178406.113845 kJ/mol
# GULP energy per Si atom -5575.191058 kJ/mol
# Density = 2.133231 g / cm^3
# Si number density = 21.380973 Si / 1000 Ang^3
#
#
#
# Elastic Constant Matrix: (Units=GPa)
#
#
# Indices 1 2 3 4 5 6 
#
# 1 49.0087 -2.2257 3.2526 0.0000 0.0000 0.0000
# 2 -2.2257 98.7572 71.1094 0.0000 0.0000 0.0000
# 3 3.2526 71.1094 167.2034 0.0000 0.0000 0.0000
# 4 0.0000 0.0000 0.0000 22.5536 0.0000 0.0000
# 5 0.0000 0.0000 0.0000 0.0000 3.3039 0.0000
# 6 0.0000 0.0000 0.0000 0.0000 0.0000 16.5147
#
#
#
# Elastic Compliance Matrix: (Units=1/GPa)
#
#
# Indices 1 2 3 4 5 6 
#
# 1 0.020511 0.001080 -0.000858 0.000000 0.000000 0.000000
# 2 0.001080 0.014652 -0.006252 0.000000 0.000000 0.000000
# 3 -0.000858 -0.006252 0.008657 0.000000 0.000000 0.000000
# 4 0.000000 0.000000 0.000000 0.044339 0.000000 0.000000
# 5 0.000000 0.000000 0.000000 0.000000 0.302670 0.000000
# 6 0.000000 0.000000 0.000000 0.000000 0.000000 0.060552
#
#
# Mechanical properties :
#
#
# Convention : Reuss Voigt Hill
#
# Bulk Modulus (GPa) = 31.48780 51.02687 41.25734
# Shear Modulus (GPa) = 10.54793 24.66332 17.60562
#
# Velocity S-wave (km/s) = 2.22352 3.40003 2.87265
# Velocity P-wave (km/s) = 4.62072 6.27144 5.50827
#
# Compressibility (1/GPa) = 0.03175833
#
# Stress axis : x y z
#
# Youngs Moduli (GPa) = 48.75528 68.24919 115.52006
#
# Poissons Ratio (x) = -0.07374 0.09917
# Poissons Ratio (y) = -0.05268 0.72228
# Poissons Ratio (z) = 0.04186 0.42672
#
# Static dielectric constant tensor:
#      x y z
#    x 1.786930 0.000000 0.000000 
#    y 0.000000 1.710400 0.000000 
#    z 0.000000 0.000000 1.919410 
# 
# From -- ./inp_files/36401.got.cif
#   From: 2010.05.17/outbox.cif.g08.bks.cpg/sg65_19_cif.got.tgz:36401.got - 2010.06.03 17:01:31.
