data_PCOD9489816
_publ_section_title
;
Structure prediction by ZEFSAII (Michael W. Deem and Ramdas Pophale) SiO2 
 PCOD9489816
Probable space group: C M M M
;
_chemical_formula_sum "Si O2"
_cell_formula_units_Z 104
_cell_length_a 17.623360
_cell_length_b 14.410835
_cell_length_c 23.111309
_cell_angle_alpha 90.000000
_cell_angle_beta 90.000000
_cell_angle_gamma 90.000000
_cell_volume 5869.517511
_symmetry_space_group_name_H-M "C M M M"
_symmetry_group_IT_number 65
_symmetry_cell_setting 'orthorhombic'
loop_
_space_group_symop_operation_xyz
x,y,z
-x,-y,z
x,-y,-z
-x,y,-z
-x,-y,-z
x,y,-z
-x,y,z
x,-y,z
1/2+x,1/2+y,z
1/2-x,1/2-y,z
1/2+x,1/2-y,-z
1/2-x,1/2+y,-z
1/2-x,1/2-y,-z
1/2+x,1/2+y,-z
1/2-x,1/2+y,z
1/2+x,1/2-y,z
loop_
_atom_site_type_symbol
_atom_site_label
_atom_site_fract_x
_atom_site_fract_y
_atom_site_fract_z
Si Si1 0.663132 0.717810 0.107032
Si Si2 0.089437 0.603391 0.151811
Si Si3 0.407767 0.394145 0.434557
Si Si4 0.588300 0.269505 0.672692
Si Si5 0.090445 0.111003 0.000000
Si Si6 0.177285 0.605294 0.726361
Si Si7 0.652238 0.609886 0.771111
O O1 0.750000 0.750000 0.099093
O O2 0.615478 0.812574 0.112153
O O3 0.630615 0.655430 0.055792
O O4 0.655164 0.661064 0.167177
O O5 0.106742 0.500000 0.128487
O O6 0.133358 0.612544 0.212423
O O7 0.000000 0.609064 0.162742
O O8 0.384222 0.369504 0.500000
O O9 0.500000 0.395160 0.434122
O O10 0.383076 0.500000 0.422370
O O11 0.384985 0.324787 0.384099
O O12 0.500000 0.242598 0.666120
O O13 0.640776 0.181560 0.685410
O O14 0.595562 0.338485 0.727643
O O15 0.000000 0.131240 0.000000
O O16 0.099363 0.000000 0.000000
O O17 0.168066 0.500000 0.704823
O O18 0.265128 0.620983 0.741430
O O19 0.636866 0.500000 0.777445
#
# Coordination Sequence:
#
# PCOD9489816 Si02
#       7
#    16  16  16  16   8  16  16
#     4  12  22  40  63  85 109 143 185 226 270 324
#     4  10  20  35  57  83 109 139 178 223 269 316
#     4   8  15  29  48  72 107 147 183 224 274 324
#     4  11  20  31  52  84 112 138 182 232 277 323
#     4  11  27  46  61  81 113 151 184 219 270 334
#     4  10  20  35  52  75 110 149 181 215 268 328
#     4  11  22  36  56  81 113 146 178 222 272 326
#
# _framework density 17.718662999999999
#
# number of rings (size 3 to 8) (size 9 to 14) (size 15 to 20)
#    0.000    1.615    3.077    3.000    0.000    3.077 
#    0.000    0.385    0.000    3.692    0.000    4.308 
#    0.000    0.000    0.000    0.000    0.000    0.000 
#
# Total GULP energy -290334.021632 kJ/mol
# GULP energy per Si atom -5583.346570 kJ/mol
# Density = 1.767833 g / cm^3
# Si number density = 17.718663 Si / 1000 Ang^3
#
#
#
# Elastic Constant Matrix: (Units=GPa)
#
#
# Indices 1 2 3 4 5 6 
#
# 1 27.4569 14.1749 10.5102 0.0000 0.0000 0.0000
# 2 14.1749 112.8142 56.9530 0.0000 0.0000 0.0000
# 3 10.5102 56.9530 98.7806 0.0000 0.0000 0.0000
# 4 0.0000 0.0000 0.0000 39.8153 0.0000 0.0000
# 5 0.0000 0.0000 0.0000 0.0000 12.0902 0.0000
# 6 0.0000 0.0000 0.0000 0.0000 0.0000 24.5504
#
#
#
# Elastic Compliance Matrix: (Units=1/GPa)
#
#
# Indices 1 2 3 4 5 6 
#
# 1 0.039192 -0.003977 -0.001877 0.000000 0.000000 0.000000
# 2 -0.003977 0.012907 -0.007019 0.000000 0.000000 0.000000
# 3 -0.001877 -0.007019 0.014370 0.000000 0.000000 0.000000
# 4 0.000000 0.000000 0.000000 0.025116 0.000000 0.000000
# 5 0.000000 0.000000 0.000000 0.000000 0.082711 0.000000
# 6 0.000000 0.000000 0.000000 0.000000 0.000000 0.040732
#
#
# Mechanical properties :
#
#
# Convention : Reuss Voigt Hill
#
# Bulk Modulus (GPa) = 24.55547 44.70311 34.62929
# Shear Modulus (GPa) = 19.65805 25.78544 22.72174
#
# Velocity S-wave (km/s) = 3.33446 3.81894 3.58489
# Velocity P-wave (km/s) = 5.35849 6.68804 6.05984
#
# Compressibility (1/GPa) = 0.04072412
#
# Stress axis : x y z
#
# Youngs Moduli (GPa) = 25.51518 77.47694 69.59032
#
# Poissons Ratio (x) = 0.30811 0.13063
# Poissons Ratio (y) = 0.10147 0.48843
# Poissons Ratio (z) = 0.04790 0.54378
#
# Static dielectric constant tensor:
#      x y z
#    x 1.609190 0.000000 0.000000 
#    y 0.000000 1.695750 0.000000 
#    z 0.000000 0.000000 1.586240 
# 
# From -- ./inp_files/70550.got.cif
#   From: 2010.05.17/outbox.cif.g08.bks.cpg/sg65_36_cif.got.tgz:70550.got - 2010.06.03 17:01:31.
