data_PCOD9489130
_publ_section_title
;
Structure prediction by ZEFSAII (Michael W. Deem and Ramdas Pophale) SiO2 
 PCOD9489130
Probable space group: C M M M
;
_chemical_formula_sum "Si O2"
_cell_formula_units_Z 80
_cell_length_a 29.035836
_cell_length_b 9.069411
_cell_length_c 21.437525
_cell_angle_alpha 90.000000
_cell_angle_beta 90.000000
_cell_angle_gamma 90.000000
_cell_volume 5645.313467
_symmetry_space_group_name_H-M "C M M M"
_symmetry_group_IT_number 65
_symmetry_cell_setting 'orthorhombic'
loop_
_space_group_symop_operation_xyz
x,y,z
-x,-y,z
x,-y,-z
-x,y,-z
-x,-y,-z
x,y,-z
-x,y,z
x,-y,z
1/2+x,1/2+y,z
1/2-x,1/2-y,z
1/2+x,1/2-y,-z
1/2-x,1/2+y,-z
1/2-x,1/2-y,-z
1/2+x,1/2+y,-z
1/2-x,1/2+y,z
1/2+x,1/2-y,z
loop_
_atom_site_type_symbol
_atom_site_label
_atom_site_fract_x
_atom_site_fract_y
_atom_site_fract_z
Si Si1 0.299028 0.675626 0.925718
Si Si2 0.055954 0.830010 0.374766
Si Si3 0.556106 0.830362 0.500000
Si Si4 0.890053 0.677828 0.122811
Si Si5 0.945517 0.178363 0.764922
Si Si6 0.447572 0.178769 0.000000
O O1 0.297639 0.500000 0.914948
O O2 0.250000 0.750000 0.911314
O O3 0.340002 0.752162 0.887964
O O4 0.307521 0.699427 0.000000
O O5 0.072009 0.744054 0.435771
O O6 0.068613 0.776313 0.305548
O O7 0.000000 0.827463 0.375202
O O8 0.070021 0.000000 0.380492
O O9 0.500000 0.820364 0.500000
O O10 0.568839 0.000000 0.500000
O O11 0.887401 0.500000 0.125140
O O12 0.915321 0.741799 0.183337
O O13 0.920447 0.721734 0.062248
O O14 0.000000 0.211993 0.773448
O O15 0.941004 0.000000 0.768947
O O16 0.500000 0.233558 0.000000
O O17 0.449097 0.000000 0.000000
#
# Coordination Sequence:
#
# PCOD9489130 Si02
#       6
#    16  16   8  16  16   8
#     4  10  20  34  52  70  88 107 135 175 222 270
#     4   8  14  25  39  53  74 108 145 178 214 256
#     4   9  15  21  33  55  79 101 134 181 220 251
#     4  11  20  31  47  65  88 115 145 180 222 267
#     4   9  18  31  44  60  85 117 153 188 220 258
#     4   9  18  30  42  59  84 113 146 181 214 251
#
# _framework density 14.171046
#
# number of rings (size 3 to 8) (size 9 to 14) (size 15 to 20)
#    0.000    2.600    1.000    3.300    0.000    4.000 
#    0.000    2.000    0.000    2.400    0.000    0.000 
#    0.000    0.000    0.000    0.900    0.000   11.900 
#
# Total GULP energy -222864.737374 kJ/mol
# GULP energy per Si atom -5571.618434 kJ/mol
# Density = 1.413879 g / cm^3
# Si number density = 14.171046 Si / 1000 Ang^3
#
#
#
# Elastic Constant Matrix: (Units=GPa)
#
#
# Indices 1 2 3 4 5 6 
#
# 1 81.1924 42.4902 59.2269 0.0000 0.0000 0.0000
# 2 42.4902 63.3142 66.4233 0.0000 0.0000 0.0000
# 3 59.2269 66.4233 147.8521 0.0000 0.0000 0.0000
# 4 0.0000 0.0000 0.0000 19.0742 0.0000 0.0000
# 5 0.0000 0.0000 0.0000 0.0000 2.2776 0.0000
# 6 0.0000 0.0000 0.0000 0.0000 0.0000 18.5536
#
#
#
# Elastic Compliance Matrix: (Units=1/GPa)
#
#
# Indices 1 2 3 4 5 6 
#
# 1 0.020027 -0.009502 -0.003754 0.000000 0.000000 0.000000
# 2 -0.009502 0.034383 -0.011640 0.000000 0.000000 0.000000
# 3 -0.003754 -0.011640 0.013497 0.000000 0.000000 0.000000
# 4 0.000000 0.000000 0.000000 0.052427 0.000000 0.000000
# 5 0.000000 0.000000 0.000000 0.000000 0.439064 0.000000
# 6 0.000000 0.000000 0.000000 0.000000 0.000000 0.053898
#
#
# Mechanical properties :
#
#
# Convention : Reuss Voigt Hill
#
# Bulk Modulus (GPa) = 55.20438 69.84882 62.52660
# Shear Modulus (GPa) = 7.47242 16.26231 11.86737
#
# Velocity S-wave (km/s) = 2.29880 3.39126 2.89699
# Velocity P-wave (km/s) = 6.78869 8.04556 7.44370
#
# Compressibility (1/GPa) = 0.01811450
#
# Stress axis : x y z
#
# Youngs Moduli (GPa) = 49.93147 29.08392 74.09268
#
# Poissons Ratio (x) = 0.27637 0.27811
# Poissons Ratio (y) = 0.47447 0.86246
# Poissons Ratio (z) = 0.18742 0.33855
#
# Static dielectric constant tensor:
#      x y z
#    x 1.437040 0.000000 0.000000 
#    y 0.000000 1.469650 0.000000 
#    z 0.000000 0.000000 1.470940 
# 
# From -- ./inp_files/60056.got.cif
#   From: 2010.05.17/outbox.cif.g08.bks.cpg/sg65_31_cif.got.tgz:60056.got - 2010.06.03 17:01:31.
