data_PCOD9489650
_publ_section_title
;
Structure prediction by ZEFSAII (Michael W. Deem and Ramdas Pophale) SiO2 
 PCOD9489650
Probable space group: C M M M
;
_chemical_formula_sum "Si O2"
_cell_formula_units_Z 64
_cell_length_a 8.310730
_cell_length_b 15.195812
_cell_length_c 26.933479
_cell_angle_alpha 90.000000
_cell_angle_beta 90.000000
_cell_angle_gamma 90.000000
_cell_volume 3401.383025
_symmetry_space_group_name_H-M "C M M M"
_symmetry_group_IT_number 65
_symmetry_cell_setting 'orthorhombic'
loop_
_space_group_symop_operation_xyz
x,y,z
-x,-y,z
x,-y,-z
-x,y,-z
-x,-y,-z
x,y,-z
-x,y,z
x,-y,z
1/2+x,1/2+y,z
1/2-x,1/2-y,z
1/2+x,1/2-y,-z
1/2-x,1/2+y,-z
1/2-x,1/2-y,-z
1/2+x,1/2+y,-z
1/2-x,1/2+y,z
1/2+x,1/2-y,z
loop_
_atom_site_type_symbol
_atom_site_label
_atom_site_fract_x
_atom_site_fract_y
_atom_site_fract_z
Si Si1 0.309496 0.000000 0.292590
Si Si2 0.196463 0.000000 0.443120
Si Si3 0.804761 0.000000 0.180012
Si Si4 0.307672 0.351341 0.366346
Si Si5 0.694123 0.396014 0.000000
Si Si6 0.193853 0.156158 0.108267
O O1 0.262836 0.000000 0.235064
O O2 0.242866 0.912115 0.319610
O O3 0.500000 0.000000 0.298552
O O4 0.247611 0.912111 0.413114
O O5 0.250396 0.000000 0.500000
O O6 0.000000 0.000000 0.442834
O O7 0.753178 0.082852 0.146948
O O8 0.000000 0.000000 0.183216
O O9 0.500000 0.348544 0.367635
O O10 0.250000 0.250000 0.365855
O O11 0.756568 0.358277 0.051979
O O12 0.723187 0.500000 0.000000
O O13 0.500000 0.383605 0.000000
O O14 0.250000 0.250000 0.126130
O O15 0.000000 0.151271 0.105707
#
# Coordination Sequence:
#
# PCOD9489650 Si02
#       6
#     8   8   8  16   8  16
#     4  11  23  39  59  81 108 143 186 238 287 333
#     4   8  16  32  54  83 120 157 190 227 272 322
#     4  10  21  38  56  76 105 142 179 218 272 333
#     4  10  20  36  59  85 115 151 191 233 277 329
#     4   9  15  30  55  78 101 136 177 207 250 318
#     4  10  20  34  55  79 105 137 173 215 261 320
#
# _framework density 18.815877
#
# number of rings (size 3 to 8) (size 9 to 14) (size 15 to 20)
#    0.000    2.250    1.250    3.000    0.000    2.500 
#    0.000    2.500    0.000   13.500    0.000    0.000 
#    0.000    0.000    0.000    0.000    0.000    0.000 
#
# Total GULP energy -178484.161467 kJ/mol
# GULP energy per Si atom -5577.630046 kJ/mol
# Density = 1.877305 g / cm^3
# Si number density = 18.815877 Si / 1000 Ang^3
#
#
#
# Elastic Constant Matrix: (Units=GPa)
#
#
# Indices 1 2 3 4 5 6 
#
# 1 31.2372 29.4369 26.1636 0.0000 0.0000 0.0000
# 2 29.4369 199.9357 111.8213 0.0000 0.0000 0.0000
# 3 26.1636 111.8213 168.4072 0.0000 0.0000 0.0000
# 4 0.0000 0.0000 0.0000 16.0356 0.0000 0.0000
# 5 0.0000 0.0000 0.0000 0.0000 4.5391 0.0000
# 6 0.0000 0.0000 0.0000 0.0000 0.0000 26.0079
#
#
#
# Elastic Compliance Matrix: (Units=1/GPa)
#
#
# Indices 1 2 3 4 5 6 
#
# 1 0.038440 -0.003690 -0.003522 0.000000 0.000000 0.000000
# 2 -0.003690 0.008310 -0.004945 0.000000 0.000000 0.000000
# 3 -0.003522 -0.004945 0.009769 0.000000 0.000000 0.000000
# 4 0.000000 0.000000 0.000000 0.062361 0.000000 0.000000
# 5 0.000000 0.000000 0.000000 0.000000 0.220309 0.000000
# 6 0.000000 0.000000 0.000000 0.000000 0.000000 0.038450
#
#
# Mechanical properties :
#
#
# Convention : Reuss Voigt Hill
#
# Bulk Modulus (GPa) = 31.05027 81.60264 56.32646
# Shear Modulus (GPa) = 12.11568 24.79373 18.45470
#
# Velocity S-wave (km/s) = 2.54029 3.63396 3.13518
# Velocity P-wave (km/s) = 5.01419 7.81477 6.56554
#
# Compressibility (1/GPa) = 0.03220584
#
# Stress axis : x y z
#
# Youngs Moduli (GPa) = 26.01440 120.33042 102.36968
#
# Poissons Ratio (x) = 0.44400 0.36055
# Poissons Ratio (y) = 0.09599 0.50620
# Poissons Ratio (z) = 0.09162 0.59502
#
# Static dielectric constant tensor:
#      x y z
#    x 1.651160 0.000000 0.000000 
#    y 0.000000 1.649970 0.000000 
#    z 0.000000 0.000000 1.651230 
# 
# From -- ./inp_files/66860.got.cif
#   From: 2010.05.17/outbox.cif.g08.bks.cpg/sg65_34_cif.got.tgz:66860.got - 2010.06.03 17:01:31.
