data_PCOD9489988
_publ_section_title
;
Structure prediction by ZEFSAII (Michael W. Deem and Ramdas Pophale) SiO2 
 PCOD9489988
Probable space group: C M M M
;
_chemical_formula_sum "Si O2"
_cell_formula_units_Z 72
_cell_length_a 28.189604
_cell_length_b 16.639609
_cell_length_c 8.424778
_cell_angle_alpha 90.000000
_cell_angle_beta 90.000000
_cell_angle_gamma 90.000000
_cell_volume 3951.759970
_symmetry_space_group_name_H-M "C M M M"
_symmetry_group_IT_number 65
_symmetry_cell_setting 'orthorhombic'
loop_
_space_group_symop_operation_xyz
x,y,z
-x,-y,z
x,-y,-z
-x,y,-z
-x,-y,-z
x,y,-z
-x,y,z
x,-y,z
1/2+x,1/2+y,z
1/2-x,1/2-y,z
1/2+x,1/2-y,-z
1/2-x,1/2+y,-z
1/2-x,1/2-y,-z
1/2+x,1/2+y,-z
1/2-x,1/2+y,z
1/2+x,1/2-y,z
loop_
_atom_site_type_symbol
_atom_site_label
_atom_site_fract_x
_atom_site_fract_y
_atom_site_fract_z
Si Si1 0.055183 0.000000 0.810026
Si Si2 0.195330 0.747974 0.807779
Si Si3 0.858068 0.411857 0.809153
Si Si4 0.392687 0.340175 0.689993
Si Si5 0.445960 0.823347 0.691696
O O1 0.083550 0.921040 0.754079
O O2 0.000000 0.000000 0.752398
O O3 0.053862 0.000000 0.000000
O O4 0.250000 0.750000 0.757469
O O5 0.173165 0.663151 0.751812
O O6 0.160388 0.818209 0.747836
O O7 0.194126 0.750244 0.000000
O O8 0.843880 0.500000 0.750507
O O9 0.911497 0.390802 0.759994
O O10 0.854886 0.412196 0.000000
O O11 0.392517 0.343882 0.500000
O O12 0.424636 0.263323 0.739989
O O13 0.444453 0.826769 0.500000
O O14 0.500000 0.831339 0.743753
#
# Coordination Sequence:
#
# PCOD9489988 Si02
#       5
#     8  16  16  16  16
#     4  11  23  37  55  81 113 147 183 225 274 331
#     4   9  18  35  56  77 103 138 179 221 269 319
#     4   9  18  32  49  71 100 131 167 209 253 304
#     4  10  20  35  55  78 107 140 178 222 269 322
#     4   9  18  32  50  72  99 134 171 206 251 305
#
# _framework density 18.219730999999999
#
# number of rings (size 3 to 8) (size 9 to 14) (size 15 to 20)
#    0.000    2.556    0.000    1.667    0.000    4.444 
#    2.000    2.222    0.000    0.000    0.000    0.000 
#    0.000    0.000    0.000    0.000    0.000    0.000 
#
# Total GULP energy -200749.548431 kJ/mol
# GULP energy per Si atom -5576.376345 kJ/mol
# Density = 1.817826 g / cm^3
# Si number density = 18.219731 Si / 1000 Ang^3
#
#
#
# Elastic Constant Matrix: (Units=GPa)
#
#
# Indices 1 2 3 4 5 6 
#
# 1 160.9154 63.2604 19.9125 0.0000 0.0000 0.0000
# 2 63.2604 122.0313 18.3497 0.0000 0.0000 0.0000
# 3 19.9125 18.3497 15.8769 0.0000 0.0000 0.0000
# 4 0.0000 0.0000 0.0000 21.1165 0.0000 0.0000
# 5 0.0000 0.0000 0.0000 0.0000 20.6715 0.0000
# 6 0.0000 0.0000 0.0000 0.0000 0.0000 14.1214
#
#
#
# Elastic Compliance Matrix: (Units=1/GPa)
#
#
# Indices 1 2 3 4 5 6 
#
# 1 0.008342 -0.003330 -0.006614 0.000000 0.000000 0.000000
# 2 -0.003330 0.011248 -0.008823 0.000000 0.000000 0.000000
# 3 -0.006614 -0.008823 0.081477 0.000000 0.000000 0.000000
# 4 0.000000 0.000000 0.000000 0.047356 0.000000 0.000000
# 5 0.000000 0.000000 0.000000 0.000000 0.048376 0.000000
# 6 0.000000 0.000000 0.000000 0.000000 0.000000 0.070814
#
#
# Mechanical properties :
#
#
# Convention : Reuss Voigt Hill
#
# Bulk Modulus (GPa) = 15.73994 55.76322 35.75158
# Shear Modulus (GPa) = 15.32222 24.33529 19.82876
#
# Velocity S-wave (km/s) = 2.90309 3.65863 3.30254
# Velocity P-wave (km/s) = 4.46038 6.96562 5.84871
#
# Compressibility (1/GPa) = 0.06353264
#
# Stress axis : x y z
#
# Youngs Moduli (GPa) = 119.87601 88.90836 12.27347
#
# Poissons Ratio (x) = 0.29606 0.08117
# Poissons Ratio (y) = 0.39918 0.10829
# Poissons Ratio (z) = 0.79283 0.78444
#
# Static dielectric constant tensor:
#      x y z
#    x 1.618310 0.000000 0.000000 
#    y 0.000000 1.623210 0.000000 
#    z 0.000000 0.000000 1.626890 
# 
# From -- ./inp_files/7221.got.cif
#   From: 2010.05.17/outbox.cif.g08.bks.cpg/sg65_4_cif.got.tgz:7221.got - 2010.06.03 17:01:31.
