data_PCOD9489352
_publ_section_title
;
Structure prediction by ZEFSAII (Michael W. Deem and Ramdas Pophale) SiO2 
 PCOD9489352
Probable space group: C M M M
;
_chemical_formula_sum "Si O2"
_cell_formula_units_Z 104
_cell_length_a 8.267889
_cell_length_b 19.367636
_cell_length_c 34.707079
_cell_angle_alpha 90.000000
_cell_angle_beta 90.000000
_cell_angle_gamma 90.000000
_cell_volume 5557.625980
_symmetry_space_group_name_H-M "C M M M"
_symmetry_group_IT_number 65
_symmetry_cell_setting 'orthorhombic'
loop_
_space_group_symop_operation_xyz
x,y,z
-x,-y,z
x,-y,-z
-x,y,-z
-x,-y,-z
x,y,-z
-x,y,z
x,-y,z
1/2+x,1/2+y,z
1/2-x,1/2-y,z
1/2+x,1/2-y,-z
1/2-x,1/2+y,-z
1/2-x,1/2-y,-z
1/2+x,1/2+y,-z
1/2-x,1/2+y,z
1/2+x,1/2-y,z
loop_
_atom_site_type_symbol
_atom_site_label
_atom_site_fract_x
_atom_site_fract_y
_atom_site_fract_z
Si Si1 0.195602 0.828346 0.143755
Si Si2 0.692362 0.829596 0.000000
Si Si3 0.194835 0.579440 0.699370
Si Si4 0.192861 0.172421 0.230526
Si Si5 0.302677 0.919774 0.614154
Si Si6 0.804410 0.671196 0.457124
Si Si7 0.804253 0.920393 0.072452
O O1 0.250000 0.750000 0.134800
O O2 0.251662 0.845709 0.187230
O O3 0.250874 0.882875 0.111767
O O4 0.000000 0.828654 0.143566
O O5 0.750000 0.750000 0.000000
O O6 0.752271 0.872137 0.962865
O O7 0.500000 0.828753 0.000000
O O8 0.248320 0.500000 0.703311
O O9 0.250510 0.623400 0.735438
O O10 0.248902 0.604512 0.656859
O O11 0.000000 0.579752 0.698948
O O12 0.250000 0.250000 0.238379
O O13 0.000000 0.171238 0.229456
O O14 0.500000 0.917829 0.613705
O O15 0.244368 0.874815 0.578313
O O16 0.256749 0.000000 0.610033
O O17 0.751818 0.647872 0.500000
O O18 0.750000 0.750000 0.452342
O O19 0.000000 0.669231 0.456700
O O20 0.000000 0.922192 0.072838
O O21 0.748073 0.000000 0.068962
#
# Coordination Sequence:
#
# PCOD9489352 Si02
#       7
#    16   8  16  16  16  16  16
#     4   9  19  35  55  78 104 137 174 213 256 302
#     4  12  25  40  59  83 111 143 181 220 259 304
#     4   9  18  33  51  71  99 133 166 204 253 305
#     4  10  20  34  53  77 105 135 171 214 255 299
#     4   8  15  29  48  69  93 122 158 200 243 288
#     4   9  17  29  46  68  93 121 154 194 240 289
#     4  10  21  38  59  83 112 143 174 211 258 308
#
# _framework density 18.713025999999999
#
# number of rings (size 3 to 8) (size 9 to 14) (size 15 to 20)
#    0.000    2.615    0.000    2.769    0.000    5.538 
#    0.000    5.385    0.000    1.385    0.000    2.154 
#    0.000    0.000    0.000    0.000    0.000    0.000 
#
# Total GULP energy -289993.282332 kJ/mol
# GULP energy per Si atom -5576.793891 kJ/mol
# Density = 1.867043 g / cm^3
# Si number density = 18.713026 Si / 1000 Ang^3
#
#
#
# Elastic Constant Matrix: (Units=GPa)
#
#
# Indices 1 2 3 4 5 6 
#
# 1 10.0791 16.2472 22.7377 0.0000 0.0000 0.0000
# 2 16.2472 127.9637 127.7273 0.0000 0.0000 0.0000
# 3 22.7377 127.7273 200.3460 0.0000 0.0000 0.0000
# 4 0.0000 0.0000 0.0000 58.4143 0.0000 0.0000
# 5 0.0000 0.0000 0.0000 0.0000 15.0085 0.0000
# 6 0.0000 0.0000 0.0000 0.0000 0.0000 22.4763
#
#
#
# Elastic Compliance Matrix: (Units=1/GPa)
#
#
# Indices 1 2 3 4 5 6 
#
# 1 0.134541 -0.005063 -0.012042 0.000000 0.000000 0.000000
# 2 -0.005063 0.021681 -0.013247 0.000000 0.000000 0.000000
# 3 -0.012042 -0.013247 0.014804 0.000000 0.000000 0.000000
# 4 0.000000 0.000000 0.000000 0.017119 0.000000 0.000000
# 5 0.000000 0.000000 0.000000 0.000000 0.066629 0.000000
# 6 0.000000 0.000000 0.000000 0.000000 0.000000 0.044491
#
#
# Mechanical properties :
#
#
# Convention : Reuss Voigt Hill
#
# Bulk Modulus (GPa) = 9.06442 74.64591 41.85517
# Shear Modulus (GPa) = 12.60263 30.62493 21.61378
#
# Velocity S-wave (km/s) = 2.59794 4.04983 3.40223
# Velocity P-wave (km/s) = 3.72203 7.86413 6.15216
#
# Compressibility (1/GPa) = 0.11032143
#
# Stress axis : x y z
#
# Youngs Moduli (GPa) = 7.43267 46.12433 67.55070
#
# Poissons Ratio (x) = 0.23352 0.81342
# Poissons Ratio (y) = 0.03763 0.89488
# Poissons Ratio (z) = 0.08950 0.61103
#
# Static dielectric constant tensor:
#      x y z
#    x 1.662270 0.000000 0.000000 
#    y 0.000000 1.613460 0.000000 
#    z 0.000000 0.000000 1.669070 
# 
# From -- ./inp_files/76896.got.cif
#   From: 2010.05.17/outbox.cif.g08.bks.cpg/sg65_39_cif.got.tgz:76896.got - 2010.06.03 17:01:31.
