data_PCOD9489722
_publ_section_title
;
Structure prediction by ZEFSAII (Michael W. Deem and Ramdas Pophale) SiO2 
 PCOD9489722
Probable space group: C M M M
;
_chemical_formula_sum "Si O2"
_cell_formula_units_Z 104
_cell_length_a 21.840612
_cell_length_b 26.942702
_cell_length_c 9.873424
_cell_angle_alpha 90.000000
_cell_angle_beta 90.000000
_cell_angle_gamma 90.000000
_cell_volume 5809.967979
_symmetry_space_group_name_H-M "C M M M"
_symmetry_group_IT_number 65
_symmetry_cell_setting 'orthorhombic'
loop_
_space_group_symop_operation_xyz
x,y,z
-x,-y,z
x,-y,-z
-x,y,-z
-x,-y,-z
x,y,-z
-x,y,z
x,-y,z
1/2+x,1/2+y,z
1/2-x,1/2-y,z
1/2+x,1/2-y,-z
1/2-x,1/2+y,-z
1/2-x,1/2-y,-z
1/2+x,1/2+y,-z
1/2-x,1/2+y,z
1/2+x,1/2-y,z
loop_
_atom_site_type_symbol
_atom_site_label
_atom_site_fract_x
_atom_site_fract_y
_atom_site_fract_z
Si Si1 0.616970 0.730865 0.151864
Si Si2 0.261831 0.557679 0.162222
Si Si3 0.880078 0.945918 0.347191
Si Si4 0.702791 0.856548 0.343999
Si Si5 0.068817 0.315711 0.656447
Si Si6 0.430336 0.342368 0.649192
Si Si7 0.750000 0.250000 0.242877
O O1 0.580559 0.770994 0.240628
O O2 0.608554 0.680034 0.231313
O O3 0.688656 0.742793 0.157452
O O4 0.594158 0.729183 0.000000
O O5 0.239711 0.500000 0.182761
O O6 0.328169 0.559428 0.234051
O O7 0.225137 0.601432 0.239277
O O8 0.264173 0.566151 0.000000
O O9 0.852080 0.943332 0.500000
O O10 0.926873 0.901228 0.340620
O O11 0.908765 0.000000 0.333664
O O12 0.715152 0.871089 0.500000
O O13 0.629148 0.849634 0.327626
O O14 0.734750 0.802016 0.321333
O O15 0.071171 0.297851 0.500000
O O16 0.000000 0.336561 0.677201
O O17 0.406136 0.328013 0.500000
O O18 0.500000 0.325109 0.658953
#
# Coordination Sequence:
#
# PCOD9489722 Si02
#       7
#    16  16  16  16  16  16   8
#     4  11  22  34  50  73 101 134 172 209 247 299
#     4  10  21  36  54  78 109 141 172 212 263 312
#     4   9  18  33  53  74  95 125 169 216 257 301
#     4  10  20  34  56  82 106 136 174 214 256 309
#     4   9  19  36  55  75 102 134 166 204 253 304
#     4  10  21  35  50  70  99 134 169 209 258 305
#     4  10  22  36  52  78 112 140 166 212 270 316
#
# _framework density 17.900271
#
# number of rings (size 3 to 8) (size 9 to 14) (size 15 to 20)
#    0.000    2.154    0.000    2.769    0.000   11.692 
#    0.000    1.538    0.000    0.462    0.000    6.462 
#    0.000    0.000    0.000    0.000    0.000    0.000 
#
# Total GULP energy -289668.382088 kJ/mol
# GULP energy per Si atom -5570.545809 kJ/mol
# Density = 1.785953 g / cm^3
# Si number density = 17.900271 Si / 1000 Ang^3
#
#
#
# Elastic Constant Matrix: (Units=GPa)
#
#
# Indices 1 2 3 4 5 6 
#
# 1 60.8008 22.5243 31.6303 0.0000 0.0000 0.0000
# 2 22.5243 84.0345 57.1646 0.0000 0.0000 0.0000
# 3 31.6303 57.1646 130.9081 0.0000 0.0000 0.0000
# 4 0.0000 0.0000 0.0000 85.6145 0.0000 0.0000
# 5 0.0000 0.0000 0.0000 0.0000 2.4098 0.0000
# 6 0.0000 0.0000 0.0000 0.0000 0.0000 19.7385
#
#
#
# Elastic Compliance Matrix: (Units=1/GPa)
#
#
# Indices 1 2 3 4 5 6 
#
# 1 0.019278 -0.002843 -0.003416 0.000000 0.000000 0.000000
# 2 -0.002843 0.017348 -0.006888 0.000000 0.000000 0.000000
# 3 -0.003416 -0.006888 0.011472 0.000000 0.000000 0.000000
# 4 0.000000 0.000000 0.000000 0.011680 0.000000 0.000000
# 5 0.000000 0.000000 0.000000 0.000000 0.414978 0.000000
# 6 0.000000 0.000000 0.000000 0.000000 0.000000 0.050662
#
#
# Mechanical properties :
#
#
# Convention : Reuss Voigt Hill
#
# Bulk Modulus (GPa) = 45.86723 55.37579 50.62151
# Shear Modulus (GPa) = 8.94483 32.51416 20.72949
#
# Velocity S-wave (km/s) = 2.23783 4.26656 3.40671
# Velocity P-wave (km/s) = 5.68828 7.43466 6.61932
#
# Compressibility (1/GPa) = 0.02180206
#
# Stress axis : x y z
#
# Youngs Moduli (GPa) = 51.87336 57.64421 87.16531
#
# Poissons Ratio (x) = 0.16389 0.29779
# Poissons Ratio (y) = 0.14748 0.60043
# Poissons Ratio (z) = 0.17722 0.39708
#
# Static dielectric constant tensor:
#      x y z
#    x 1.608280 0.000000 0.000000 
#    y 0.000000 1.646710 0.000000 
#    z 0.000000 0.000000 1.613370 
# 
# From -- ./inp_files/14813.got.cif
#   From: 2010.05.17/outbox.cif.g08.bks.cpg/sg65_8_cif.got.tgz:14813.got - 2010.06.03 17:01:31.
