data_PCOD9489784
_publ_section_title
;
Structure prediction by ZEFSAII (Michael W. Deem and Ramdas Pophale) SiO2 
 PCOD9489784
Probable space group: C M M M
;
_chemical_formula_sum "Si O2"
_cell_formula_units_Z 116
_cell_length_a 32.785139
_cell_length_b 7.507231
_cell_length_c 22.290325
_cell_angle_alpha 90.000000
_cell_angle_beta 90.000000
_cell_angle_gamma 90.000000
_cell_volume 5486.219879
_symmetry_space_group_name_H-M "C M M M"
_symmetry_group_IT_number 65
_symmetry_cell_setting 'orthorhombic'
loop_
_space_group_symop_operation_xyz
x,y,z
-x,-y,z
x,-y,-z
-x,y,-z
-x,-y,-z
x,y,-z
-x,y,z
x,-y,z
1/2+x,1/2+y,z
1/2-x,1/2-y,z
1/2+x,1/2-y,-z
1/2-x,1/2+y,-z
1/2-x,1/2-y,-z
1/2+x,1/2+y,-z
1/2-x,1/2+y,z
1/2+x,1/2-y,z
loop_
_atom_site_type_symbol
_atom_site_label
_atom_site_fract_x
_atom_site_fract_y
_atom_site_fract_z
Si Si1 0.794941 0.699161 0.902492
Si Si2 0.116274 0.282902 0.068292
Si Si3 0.616196 0.283403 0.600400
Si Si4 0.314287 0.283725 0.229759
Si Si5 0.294355 0.711648 0.637847
Si Si6 0.593518 0.000000 0.500000
Si Si7 0.544987 0.208559 0.153878
Si Si8 0.404484 0.713120 0.736874
O O1 0.799614 0.500000 0.924171
O O2 0.750000 0.750000 0.923682
O O3 0.837830 0.788683 0.920191
O O4 0.794768 0.708504 0.830052
O O5 0.117524 0.500000 0.075251
O O6 0.082018 0.215309 0.114247
O O7 0.104683 0.244290 0.000000
O O8 0.613179 0.500000 0.590175
O O9 0.664677 0.232624 0.603534
O O10 0.598440 0.243566 0.666693
O O11 0.595691 0.158111 0.551938
O O12 0.311700 0.500000 0.226894
O O13 0.295981 0.220943 0.293335
O O14 0.361768 0.229206 0.232987
O O15 0.298428 0.500000 0.642513
O O16 0.250000 0.750000 0.611034
O O17 0.500000 0.286117 0.144438
O O18 0.558550 0.220285 0.223180
O O19 0.542592 0.000000 0.138348
O O20 0.404904 0.500000 0.739786
#
# Coordination Sequence:
#
# PCOD9489784 Si02
#       8
#    16  16  16  16  16   4  16  16
#     4  11  21  32  49  75 105 145 195 246 297 349
#     4   9  19  36  54  76 112 157 200 244 298 355
#     4   9  21  38  55  82 116 150 200 254 290 354
#     4   9  17  31  50  76 104 140 182 240 298 352
#     4   9  18  31  48  69 103 139 185 243 300 351
#     4  12  22  36  62  86 107 166 204 238 296 362
#     4  10  20  34  58  92 122 147 188 243 292 356
#     4   9  18  35  58  83 116 151 185 237 298 348
#
# _framework density 21.143882999999999
#
# number of rings (size 3 to 8) (size 9 to 14) (size 15 to 20)
#    0.000    2.483    1.379    2.690    1.931    2.483 
#    2.483    1.724    0.000    3.310    0.000    1.931 
#    0.000    2.207    0.000    0.000    0.000    0.000 
#
# Total GULP energy -322977.776161 kJ/mol
# GULP energy per Si atom -5568.582348 kJ/mol
# Density = 2.109576 g / cm^3
# Si number density = 21.143883 Si / 1000 Ang^3
#
#
#
# Elastic Constant Matrix: (Units=GPa)
#
#
# Indices 1 2 3 4 5 6 
#
# 1 133.1275 18.8976 44.5916 0.0000 0.0000 0.0000
# 2 18.8976 67.5387 20.9924 0.0000 0.0000 0.0000
# 3 44.5916 20.9924 81.0318 0.0000 0.0000 0.0000
# 4 0.0000 0.0000 0.0000 33.8656 0.0000 0.0000
# 5 0.0000 0.0000 0.0000 0.0000 -1.7895 0.0000
# 6 0.0000 0.0000 0.0000 0.0000 0.0000 9.8541
#
#
#
# Elastic Compliance Matrix: (Units=1/GPa)
#
#
# Indices 1 2 3 4 5 6 
#
# 1 0.009283 -0.001098 -0.004824 0.000000 0.000000 0.000000
# 2 -0.001098 0.016233 -0.003601 0.000000 0.000000 0.000000
# 3 -0.004824 -0.003601 0.015928 0.000000 0.000000 0.000000
# 4 0.000000 0.000000 0.000000 0.029529 0.000000 0.000000
# 5 0.000000 0.000000 0.000000 0.000000 -0.558823 0.000000
# 6 0.000000 0.000000 0.000000 0.000000 0.000000 0.101481
#
#
# Mechanical properties :
#
#
# Convention : Reuss Voigt Hill
#
# Bulk Modulus (GPa) = 44.64668 50.07347 47.36007
# Shear Modulus (GPa) = -13.89443 21.53380 3.81969
#
# Velocity S-wave (km/s) = -2.56625 3.19476 1.34553
# Velocity P-wave (km/s) = 3.51861 6.11084 4.98613
#
# Compressibility (1/GPa) = 0.02239808
#
# Stress axis : x y z
#
# Youngs Moduli (GPa) = 107.72009 61.60344 62.78084
#
# Poissons Ratio (x) = 0.06765 0.30286
# Poissons Ratio (y) = 0.11829 0.22608
# Poissons Ratio (z) = 0.51965 0.22184
#
# Static dielectric constant tensor:
#      x y z
#    x 1.815760 0.000000 0.000000 
#    y 0.000000 1.698770 0.000000 
#    z 0.000000 0.000000 1.743200 
# 
# From -- ./inp_files/72265.got.cif
#   From: 2010.05.17/outbox.cif.g08.bks.cpg/sg65_37_cif.got.tgz:72265.got - 2010.06.03 17:01:31.
