data_PCOD9489810
_publ_section_title
;
Structure prediction by ZEFSAII (Michael W. Deem and Ramdas Pophale) SiO2 
 PCOD9489810
Probable space group: C M M M
;
_chemical_formula_sum "Si O2"
_cell_formula_units_Z 72
_cell_length_a 14.685394
_cell_length_b 15.628298
_cell_length_c 15.983337
_cell_angle_alpha 90.000000
_cell_angle_beta 90.000000
_cell_angle_gamma 90.000000
_cell_volume 3668.299132
_symmetry_space_group_name_H-M "C M M M"
_symmetry_group_IT_number 65
_symmetry_cell_setting 'orthorhombic'
loop_
_space_group_symop_operation_xyz
x,y,z
-x,-y,z
x,-y,-z
-x,y,-z
-x,-y,-z
x,y,-z
-x,y,z
x,-y,z
1/2+x,1/2+y,z
1/2-x,1/2-y,z
1/2+x,1/2-y,-z
1/2-x,1/2+y,-z
1/2-x,1/2-y,-z
1/2+x,1/2+y,-z
1/2-x,1/2+y,z
1/2+x,1/2-y,z
loop_
_atom_site_type_symbol
_atom_site_label
_atom_site_fract_x
_atom_site_fract_y
_atom_site_fract_z
Si Si1 0.891194 0.000000 0.089190
Si Si2 0.895249 0.175284 0.184132
Si Si3 0.393015 0.856236 0.097932
Si Si4 0.268816 0.900191 0.253606
Si Si5 0.896041 0.603924 0.406993
O O1 0.873929 0.088112 0.134696
O O2 0.000000 0.000000 0.080366
O O3 0.844478 0.000000 0.000000
O O4 0.886621 0.255607 0.122364
O O5 0.815663 0.165572 0.251208
O O6 0.000000 0.174019 0.214315
O O7 0.500000 0.881204 0.108950
O O8 0.327576 0.897598 0.167286
O O9 0.369864 0.869999 0.000000
O O10 0.334559 0.872728 0.328898
O O11 0.241044 0.000000 0.267530
O O12 0.865355 0.630963 0.500000
O O13 0.898131 0.500000 0.407578
O O14 0.000000 0.633194 0.394659
#
# Coordination Sequence:
#
# PCOD9489810 Si02
#       5
#     8  16  16  16  16
#     4   9  16  28  48  70  90 121 174 228 258 281
#     4  10  20  35  52  72 101 140 181 220 257 298
#     4  10  22  38  53  72 104 145 182 216 258 311
#     4  11  21  33  53  82 108 136 171 216 266 315
#     4   8  15  30  53  79 105 133 169 214 261 311
#
# _framework density 19.627625999999999
#
# number of rings (size 3 to 8) (size 9 to 14) (size 15 to 20)
#    0.000    2.333    1.111    2.667    0.000    7.111 
#    0.000    1.111    0.000    3.333    0.000    6.222 
#    0.000    0.000    0.000    0.000    0.000    0.000 
#
# Total GULP energy -200644.149876 kJ/mol
# GULP energy per Si atom -5573.448608 kJ/mol
# Density = 1.958295 g / cm^3
# Si number density = 19.627626 Si / 1000 Ang^3
#
#
#
# Elastic Constant Matrix: (Units=GPa)
#
#
# Indices 1 2 3 4 5 6 
#
# 1 108.1171 8.2907 81.5857 0.0000 0.0000 0.0000
# 2 8.2907 48.3009 2.2237 0.0000 0.0000 0.0000
# 3 81.5857 2.2237 123.4067 0.0000 0.0000 0.0000
# 4 0.0000 0.0000 0.0000 14.8982 0.0000 0.0000
# 5 0.0000 0.0000 0.0000 0.0000 16.5063 0.0000
# 6 0.0000 0.0000 0.0000 0.0000 0.0000 23.0646
#
#
#
# Elastic Compliance Matrix: (Units=1/GPa)
#
#
# Indices 1 2 3 4 5 6 
#
# 1 0.018791 -0.002656 -0.012375 0.000000 0.000000 0.000000
# 2 -0.002656 0.021096 0.001376 0.000000 0.000000 0.000000
# 3 -0.012375 0.001376 0.016260 0.000000 0.000000 0.000000
# 4 0.000000 0.000000 0.000000 0.067122 0.000000 0.000000
# 5 0.000000 0.000000 0.000000 0.000000 0.060583 0.000000
# 6 0.000000 0.000000 0.000000 0.000000 0.000000 0.043356
#
#
# Mechanical properties :
#
#
# Convention : Reuss Voigt Hill
#
# Bulk Modulus (GPa) = 34.67833 51.55834 43.11834
# Shear Modulus (GPa) = 18.92991 23.40879 21.16935
#
# Velocity S-wave (km/s) = 3.10893 3.45722 3.28769
# Velocity P-wave (km/s) = 5.53116 6.50090 6.03554
#
# Compressibility (1/GPa) = 0.02883645
#
# Stress axis : x y z
#
# Youngs Moduli (GPa) = 53.21587 47.40220 61.50060
#
# Poissons Ratio (x) = 0.12589 0.76109
# Poissons Ratio (y) = 0.14133 -0.08460
# Poissons Ratio (z) = 0.65857 -0.06521
#
# Static dielectric constant tensor:
#      x y z
#    x 1.739870 0.000000 0.000000 
#    y 0.000000 1.719730 0.000000 
#    z 0.000000 0.000000 1.743840 
# 
# From -- ./inp_files/39780.got.cif
#   From: 2010.05.17/outbox.cif.g08.bks.cpg/sg65_20_cif.got.tgz:39780.got - 2010.06.03 17:01:31.
