data_PCOD9489836
_publ_section_title
;
Structure prediction by ZEFSAII (Michael W. Deem and Ramdas Pophale) SiO2 
 PCOD9489836
Probable space group: C M M M
;
_chemical_formula_sum "Si O2"
_cell_formula_units_Z 104
_cell_length_a 24.293731
_cell_length_b 8.391594
_cell_length_c 26.772601
_cell_angle_alpha 90.000000
_cell_angle_beta 90.000000
_cell_angle_gamma 90.000000
_cell_volume 5457.946166
_symmetry_space_group_name_H-M "C M M M"
_symmetry_group_IT_number 65
_symmetry_cell_setting 'orthorhombic'
loop_
_space_group_symop_operation_xyz
x,y,z
-x,-y,z
x,-y,-z
-x,y,-z
-x,-y,-z
x,y,-z
-x,y,z
x,-y,z
1/2+x,1/2+y,z
1/2-x,1/2-y,z
1/2+x,1/2-y,-z
1/2-x,1/2+y,-z
1/2-x,1/2-y,-z
1/2+x,1/2+y,-z
1/2-x,1/2+y,z
1/2+x,1/2-y,z
loop_
_atom_site_type_symbol
_atom_site_label
_atom_site_fract_x
_atom_site_fract_y
_atom_site_fract_z
Si Si1 0.689432 0.809294 0.442633
Si Si2 0.000000 0.309137 0.798685
Si Si3 0.119771 0.811271 0.944084
Si Si4 0.312294 0.692376 0.741034
Si Si5 0.382014 0.693519 0.837040
Si Si6 0.883919 0.190686 0.646184
Si Si7 0.000000 0.321219 0.941154
Si Si8 0.500000 0.190537 0.316654
O O1 0.680826 0.755099 0.500000
O O2 0.750000 0.750000 0.426709
O O3 0.643552 0.747636 0.404945
O O4 0.689602 0.000000 0.442034
O O5 0.944079 0.251544 0.825323
O O6 0.000000 0.500000 0.797763
O O7 0.000000 0.250258 0.741069
O O8 0.142557 0.751073 0.890822
O O9 0.055210 0.778285 0.933952
O O10 0.129894 0.000000 0.946857
O O11 0.133323 0.745207 0.000000
O O12 0.312620 0.500000 0.740861
O O13 0.250000 0.750000 0.739798
O O14 0.343988 0.745567 0.791002
O O15 0.345951 0.747681 0.692416
O O16 0.383554 0.500000 0.838070
O O17 0.945185 0.251494 0.655995
O O18 0.884442 0.000000 0.646918
O O19 0.000000 0.500000 0.917615
O O20 0.000000 0.347474 0.000000
O O21 0.500000 0.000000 0.315255
#
# Coordination Sequence:
#
# PCOD9489836 Si02
#       8
#    16   8  16  16  16  16   8   8
#     4  10  21  38  61  90 124 160 199 243 287 330
#     4  11  22  34  52  80 109 143 182 221 268 327
#     4   9  17  29  46  67  92 128 173 216 260 316
#     4  10  22  37  55  79 106 139 178 224 278 328
#     4  10  20  35  53  74 105 141 177 221 272 329
#     4  11  22  38  61  87 116 152 191 233 282 339
#     4   9  16  25  38  60  93 126 155 196 250 305
#     4  11  23  38  57  83 117 153 188 231 278 335
#
# _framework density 19.054786
#
# number of rings (size 3 to 8) (size 9 to 14) (size 15 to 20)
#    0.000    1.923    1.538    2.538    0.000    8.000 
#    0.000    0.385    0.000    2.769    0.000    0.000 
#    0.000    0.000    0.000    0.000    0.000    0.000 
#
# Total GULP energy -290024.779853 kJ/mol
# GULP energy per Si atom -5577.399613 kJ/mol
# Density = 1.901142 g / cm^3
# Si number density = 19.054786 Si / 1000 Ang^3
#
#
#
# Elastic Constant Matrix: (Units=GPa)
#
#
# Indices 1 2 3 4 5 6 
#
# 1 120.2068 15.7419 77.0166 0.0000 0.0000 0.0000
# 2 15.7419 23.8698 22.6595 0.0000 0.0000 0.0000
# 3 77.0166 22.6595 150.6089 0.0000 0.0000 0.0000
# 4 0.0000 0.0000 0.0000 14.9524 0.0000 0.0000
# 5 0.0000 0.0000 0.0000 0.0000 95.2528 0.0000
# 6 0.0000 0.0000 0.0000 0.0000 0.0000 28.4933
#
#
#
# Elastic Compliance Matrix: (Units=1/GPa)
#
#
# Indices 1 2 3 4 5 6 
#
# 1 0.012503 -0.002539 -0.006012 0.000000 0.000000 0.000000
# 2 -0.002539 0.049390 -0.006133 0.000000 0.000000 0.000000
# 3 -0.006012 -0.006133 0.010637 0.000000 0.000000 0.000000
# 4 0.000000 0.000000 0.000000 0.066879 0.000000 0.000000
# 5 0.000000 0.000000 0.000000 0.000000 0.010498 0.000000
# 6 0.000000 0.000000 0.000000 0.000000 0.000000 0.035096
#
#
# Mechanical properties :
#
#
# Convention : Reuss Voigt Hill
#
# Bulk Modulus (GPa) = 23.16781 58.39129 40.77955
# Shear Modulus (GPa) = 21.85726 39.69087 30.77406
#
# Velocity S-wave (km/s) = 3.39052 4.56893 4.02310
# Velocity P-wave (km/s) = 5.24523 7.65140 6.55959
#
# Compressibility (1/GPa) = 0.04316334
#
# Stress axis : x y z
#
# Youngs Moduli (GPa) = 79.97934 20.24709 94.01498
#
# Poissons Ratio (x) = 0.05140 0.56520
# Poissons Ratio (y) = 0.20305 0.57655
# Poissons Ratio (z) = 0.48082 0.12417
#
# Static dielectric constant tensor:
#      x y z
#    x 1.658490 0.000000 0.000000 
#    y 0.000000 1.669360 0.000000 
#    z 0.000000 0.000000 1.724830 
# 
# From -- ./inp_files/75540.got.cif
#   From: 2010.05.17/outbox.cif.g08.bks.cpg/sg65_38_cif.got.tgz:75540.got - 2010.06.03 17:01:31.
