data_PCOD9489985
_publ_section_title
;
Structure prediction by ZEFSAII (Michael W. Deem and Ramdas Pophale) SiO2 
 PCOD9489985
Probable space group: C M M M
;
_chemical_formula_sum "Si O2"
_cell_formula_units_Z 72
_cell_length_a 16.899403
_cell_length_b 9.048758
_cell_length_c 24.066937
_cell_angle_alpha 90.000000
_cell_angle_beta 90.000000
_cell_angle_gamma 90.000000
_cell_volume 3680.282507
_symmetry_space_group_name_H-M "C M M M"
_symmetry_group_IT_number 65
_symmetry_cell_setting 'orthorhombic'
loop_
_space_group_symop_operation_xyz
x,y,z
-x,-y,z
x,-y,-z
-x,y,-z
-x,-y,-z
x,y,-z
-x,y,z
x,-y,z
1/2+x,1/2+y,z
1/2-x,1/2-y,z
1/2+x,1/2-y,-z
1/2-x,1/2+y,-z
1/2-x,1/2-y,-z
1/2+x,1/2+y,-z
1/2-x,1/2+y,z
1/2+x,1/2-y,z
loop_
_atom_site_type_symbol
_atom_site_label
_atom_site_fract_x
_atom_site_fract_y
_atom_site_fract_z
Si Si1 0.403626 0.827267 0.061483
Si Si2 0.164157 0.823483 0.391398
Si Si3 0.404611 0.831782 0.284856
Si Si4 0.405667 0.830381 0.500000
Si Si5 0.403222 0.330381 0.173285
O O1 0.500000 0.820668 0.061499
O O2 0.376029 0.734571 0.114291
O O3 0.382945 0.000000 0.067995
O O4 0.377563 0.776751 0.000000
O O5 0.250000 0.750000 0.389848
O O6 0.121029 0.771499 0.335334
O O7 0.121894 0.755279 0.445282
O O8 0.167883 0.000000 0.394975
O O9 0.500000 0.835525 0.283600
O O10 0.377400 0.767257 0.225707
O O11 0.376178 0.000000 0.293428
O O12 0.500000 0.837172 0.500000
O O13 0.374809 0.000000 0.500000
O O14 0.500000 0.326964 0.172809
O O15 0.379160 0.500000 0.180242
#
# Coordination Sequence:
#
# PCOD9489985 Si02
#       5
#    16  16  16   8  16
#     4   8  13  21  33  51  80 121 166 210 260 318
#     4  12  25  41  61  85 115 147 182 223 268 317
#     4  10  20  35  55  78 106 141 181 224 271 323
#     4  11  24  43  66  91 119 149 182 219 262 313
#     4   9  16  25  39  62  92 127 169 216 265 317
#
# _framework density 19.563715999999999
#
# number of rings (size 3 to 8) (size 9 to 14) (size 15 to 20)
#    0.000    2.111    0.000    5.333    0.000    8.000 
#    0.000    2.222    0.000    0.000    0.000    0.000 
#    0.000    0.889    0.000    3.333    0.000    7.778 
#
# Total GULP energy -201008.697638 kJ/mol
# GULP energy per Si atom -5583.574934 kJ/mol
# Density = 1.951919 g / cm^3
# Si number density = 19.563716 Si / 1000 Ang^3
#
#
#
# Elastic Constant Matrix: (Units=GPa)
#
#
# Indices 1 2 3 4 5 6 
#
# 1 15.1637 21.5203 19.4596 0.0000 0.0000 0.0000
# 2 21.5203 173.5403 86.3690 0.0000 0.0000 0.0000
# 3 19.4596 86.3690 168.5552 0.0000 0.0000 0.0000
# 4 0.0000 0.0000 0.0000 27.8831 0.0000 0.0000
# 5 0.0000 0.0000 0.0000 0.0000 -32.8637 0.0000
# 6 0.0000 0.0000 0.0000 0.0000 0.0000 17.6786
#
#
#
# Elastic Compliance Matrix: (Units=1/GPa)
#
#
# Indices 1 2 3 4 5 6 
#
# 1 0.084137 -0.007516 -0.005862 0.000000 0.000000 0.000000
# 2 -0.007516 0.008406 -0.003440 0.000000 0.000000 0.000000
# 3 -0.005862 -0.003440 0.008372 0.000000 0.000000 0.000000
# 4 0.000000 0.000000 0.000000 0.035864 0.000000 0.000000
# 5 0.000000 0.000000 0.000000 0.000000 -0.030429 0.000000
# 6 0.000000 0.000000 0.000000 0.000000 0.000000 0.056565
#
#
# Mechanical properties :
#
#
# Convention : Reuss Voigt Hill
#
# Bulk Modulus (GPa) = 14.86346 67.99522 41.42934
# Shear Modulus (GPa) = 22.83332 17.86696 20.35014
#
# Velocity S-wave (km/s) = 3.42003 3.02531 3.22871
# Velocity P-wave (km/s) = 4.81762 6.85818 5.92638
#
# Compressibility (1/GPa) = 0.06727908
#
# Stress axis : x y z
#
# Youngs Moduli (GPa) = 11.88543 118.95826 119.44406
#
# Poissons Ratio (x) = 0.89409 0.70021
# Poissons Ratio (y) = 0.08933 0.41086
# Poissons Ratio (z) = 0.06968 0.40919
#
# Static dielectric constant tensor:
#      x y z
#    x 1.700960 0.000000 0.000000 
#    y 0.000000 1.665400 0.000000 
#    z 0.000000 0.000000 1.861000 
# 
# From -- ./inp_files/66975.got.cif
#   From: 2010.05.17/outbox.cif.g08.bks.cpg/sg65_34_cif.got.tgz:66975.got - 2010.06.03 17:01:31.
