data_PCOD9489863
_publ_section_title
;
Structure prediction by ZEFSAII (Michael W. Deem and Ramdas Pophale) SiO2 
 PCOD9489863
Probable space group: C M M M
;
_chemical_formula_sum "Si O2"
_cell_formula_units_Z 72
_cell_length_a 17.652744
_cell_length_b 30.235859
_cell_length_c 7.438532
_cell_angle_alpha 90.000000
_cell_angle_beta 90.000000
_cell_angle_gamma 90.000000
_cell_volume 3970.285797
_symmetry_space_group_name_H-M "C M M M"
_symmetry_group_IT_number 65
_symmetry_cell_setting 'orthorhombic'
loop_
_space_group_symop_operation_xyz
x,y,z
-x,-y,z
x,-y,-z
-x,y,-z
-x,-y,-z
x,y,-z
-x,y,z
x,-y,z
1/2+x,1/2+y,z
1/2-x,1/2-y,z
1/2+x,1/2-y,-z
1/2-x,1/2+y,-z
1/2-x,1/2-y,-z
1/2+x,1/2+y,-z
1/2-x,1/2+y,z
1/2+x,1/2-y,z
loop_
_atom_site_type_symbol
_atom_site_label
_atom_site_fract_x
_atom_site_fract_y
_atom_site_fract_z
Si Si1 0.081605 0.839698 0.500000
Si Si2 0.748708 0.197367 0.500000
Si Si3 0.088477 0.549798 0.218658
Si Si4 0.587596 0.500000 0.218176
Si Si5 0.133493 0.905103 0.793105
Si Si6 0.695827 0.869713 0.791539
O O1 0.161546 0.814382 0.500000
O O2 0.087237 0.871369 0.672622
O O3 0.000000 0.816001 0.500000
O O4 0.750000 0.250000 0.500000
O O5 0.707020 0.173632 0.331025
O O6 0.113358 0.500000 0.275967
O O7 0.137730 0.592264 0.275109
O O8 0.000000 0.554674 0.268202
O O9 0.092460 0.549603 0.000000
O O10 0.500000 0.500000 0.268996
O O11 0.624687 0.545351 0.277849
O O12 0.592384 0.500000 0.000000
O O13 0.221299 0.891998 0.787910
O O14 0.107684 0.903421 0.000000
O O15 0.677494 0.858851 0.000000
#
# Coordination Sequence:
#
# PCOD9489863 Si02
#       6
#     8   8  16   8  16  16
#     4  10  20  35  54  72  93 125 162 201 253 305
#     4  10  22  40  56  75 101 125 166 225 270 310
#     4   8  14  26  48  79 113 146 176 209 252 306
#     4   9  16  25  39  63  95 128 159 193 231 266
#     4   9  18  30  46  70  99 132 168 202 233 279
#     4   9  18  33  54  76 100 137 174 205 252 308
#
# _framework density 18.134715
#
# number of rings (size 3 to 8) (size 9 to 14) (size 15 to 20)
#    0.000    3.000    0.000    1.333    1.556    2.222 
#    0.000    3.333    0.000    1.333    0.000    0.000 
#    0.000    0.000    0.000    0.000    0.000    0.000 
#
# Total GULP energy -200541.200068 kJ/mol
# GULP energy per Si atom -5570.588891 kJ/mol
# Density = 1.809344 g / cm^3
# Si number density = 18.134715 Si / 1000 Ang^3
#
#
#
# Elastic Constant Matrix: (Units=GPa)
#
#
# Indices 1 2 3 4 5 6 
#
# 1 64.0261 47.7220 25.3394 0.0000 0.0000 0.0000
# 2 47.7220 158.3511 51.6908 0.0000 0.0000 0.0000
# 3 25.3394 51.6908 83.4000 0.0000 0.0000 0.0000
# 4 0.0000 0.0000 0.0000 22.2222 0.0000 0.0000
# 5 0.0000 0.0000 0.0000 0.0000 9.5409 0.0000
# 6 0.0000 0.0000 0.0000 0.0000 0.0000 12.6603
#
#
#
# Elastic Compliance Matrix: (Units=1/GPa)
#
#
# Indices 1 2 3 4 5 6 
#
# 1 0.020742 -0.005257 -0.003043 0.000000 0.000000 0.000000
# 2 -0.005257 0.009249 -0.004135 0.000000 0.000000 0.000000
# 3 -0.003043 -0.004135 0.015478 0.000000 0.000000 0.000000
# 4 0.000000 0.000000 0.000000 0.045000 0.000000 0.000000
# 5 0.000000 0.000000 0.000000 0.000000 0.104812 0.000000
# 6 0.000000 0.000000 0.000000 0.000000 0.000000 0.078987
#
#
# Mechanical properties :
#
#
# Convention : Reuss Voigt Hill
#
# Bulk Modulus (GPa) = 48.55106 61.69793 55.12449
# Shear Modulus (GPa) = 16.33954 20.95302 18.64628
#
# Velocity S-wave (km/s) = 3.00494 3.40282 3.21005
# Velocity P-wave (km/s) = 6.23459 7.03809 6.64849
#
# Compressibility (1/GPa) = 0.02059687
#
# Stress axis : x y z
#
# Youngs Moduli (GPa) = 48.21191 108.11492 64.60711
#
# Poissons Ratio (x) = 0.56841 0.19663
# Poissons Ratio (y) = 0.25347 0.26717
# Poissons Ratio (z) = 0.14673 0.44709
#
# Static dielectric constant tensor:
#      x y z
#    x 1.616890 0.000000 0.000000 
#    y 0.000000 1.593250 0.000000 
#    z 0.000000 0.000000 1.686950 
# 
# From -- ./inp_files/9342.got.cif
#   From: 2010.05.17/outbox.cif.g08.bks.cpg/sg65_5_cif.got.tgz:9342.got - 2010.06.03 17:01:31.
