data_PCOD9489571
_publ_section_title
;
Structure prediction by ZEFSAII (Michael W. Deem and Ramdas Pophale) SiO2 
 PCOD9489571
Probable space group: C M M M
;
_chemical_formula_sum "Si O2"
_cell_formula_units_Z 48
_cell_length_a 13.686432
_cell_length_b 22.752484
_cell_length_c 8.018823
_cell_angle_alpha 90.000000
_cell_angle_beta 90.000000
_cell_angle_gamma 90.000000
_cell_volume 2497.064089
_symmetry_space_group_name_H-M "C M M M"
_symmetry_group_IT_number 65
_symmetry_cell_setting 'orthorhombic'
loop_
_space_group_symop_operation_xyz
x,y,z
-x,-y,z
x,-y,-z
-x,y,-z
-x,-y,-z
x,y,-z
-x,y,z
x,-y,z
1/2+x,1/2+y,z
1/2-x,1/2-y,z
1/2+x,1/2-y,-z
1/2-x,1/2+y,-z
1/2-x,1/2-y,-z
1/2+x,1/2+y,-z
1/2-x,1/2+y,z
1/2+x,1/2-y,z
loop_
_atom_site_type_symbol
_atom_site_label
_atom_site_fract_x
_atom_site_fract_y
_atom_site_fract_z
Si Si1 0.382557 0.182369 0.315592
Si Si2 0.288502 0.065433 0.191984
Si Si3 0.117746 0.759908 0.000000
Si Si4 0.615997 0.397355 0.000000
O O1 0.360002 0.205991 0.500000
O O2 0.500000 0.175294 0.304230
O O3 0.333381 0.118968 0.291799
O O4 0.351762 0.224809 0.165106
O O5 0.307670 0.000000 0.256523
O O6 0.328280 0.069110 0.000000
O O7 0.172583 0.074725 0.157911
O O8 0.143691 0.828357 0.000000
O O9 0.000000 0.759501 0.000000
O O10 0.500000 0.404902 0.000000
#
# Coordination Sequence:
#
# PCOD9489571 Si02
#       4
#    16  16   8   8
#     4  10  20  34  54  80 111 144 173 209 263 321
#     4   9  19  33  52  78 104 137 178 218 256 308
#     4   9  17  33  54  77 107 138 176 220 259 313
#     4   9  18  34  57  78 102 141 179 220 274 313
#
# _framework density 19.222574999999999
#
# number of rings (size 3 to 8) (size 9 to 14) (size 15 to 20)
#    1.000    1.667    1.667    0.000    0.000    5.333 
#    0.000    6.667    0.000    3.000    0.000    2.333 
#    0.000    0.000    0.000    0.000    0.000    0.000 
#
# Total GULP energy -133682.133048 kJ/mol
# GULP energy per Si atom -5570.088877 kJ/mol
# Density = 1.917882 g / cm^3
# Si number density = 19.222575 Si / 1000 Ang^3
#
#
#
# Elastic Constant Matrix: (Units=GPa)
#
#
# Indices 1 2 3 4 5 6 
#
# 1 67.4333 5.7563 14.0338 0.0000 0.0000 0.0000
# 2 5.7563 94.5451 26.9945 0.0000 0.0000 0.0000
# 3 14.0338 26.9945 89.2059 0.0000 0.0000 0.0000
# 4 0.0000 0.0000 0.0000 -29.3020 0.0000 0.0000
# 5 0.0000 0.0000 0.0000 0.0000 6.5337 0.0000
# 6 0.0000 0.0000 0.0000 0.0000 0.0000 18.3561
#
#
#
# Elastic Compliance Matrix: (Units=1/GPa)
#
#
# Indices 1 2 3 4 5 6 
#
# 1 0.015338 -0.000268 -0.002332 0.000000 0.000000 0.000000
# 2 -0.000268 0.011582 -0.003463 0.000000 0.000000 0.000000
# 3 -0.002332 -0.003463 0.012625 0.000000 0.000000 0.000000
# 4 0.000000 0.000000 0.000000 -0.034127 0.000000 0.000000
# 5 0.000000 0.000000 0.000000 0.000000 0.153053 0.000000
# 6 0.000000 0.000000 0.000000 0.000000 0.000000 0.054478
#
#
# Mechanical properties :
#
#
# Convention : Reuss Voigt Hill
#
# Bulk Modulus (GPa) = 36.47063 38.30592 37.38828
# Shear Modulus (GPa) = 21.34817 12.74422 17.04619
#
# Velocity S-wave (km/s) = 3.33615 2.57764 2.98112
# Velocity P-wave (km/s) = 5.81841 5.36934 5.59838
#
# Compressibility (1/GPa) = 0.02741932
#
# Stress axis : x y z
#
# Youngs Moduli (GPa) = 65.19913 86.34136 79.20994
#
# Poissons Ratio (x) = 0.02314 0.18470
# Poissons Ratio (y) = 0.01748 0.27427
# Poissons Ratio (z) = 0.15203 0.29897
#
# Static dielectric constant tensor:
#      x y z
#    x 1.688400 0.000000 0.000000 
#    y 0.000000 1.647280 0.000000 
#    z 0.000000 0.000000 1.685530 
# 
# From -- ./inp_files/6418.got.cif
#   From: 2010.05.17/outbox.cif.g08.bks.cpg/sg65_4_cif.got.tgz:6418.got - 2010.06.03 17:01:31.
