data_PCOD9489226
_publ_section_title
;
Structure prediction by ZEFSAII (Michael W. Deem and Ramdas Pophale) SiO2 
 PCOD9489226
Probable space group: C M M M
;
_chemical_formula_sum "Si O2"
_cell_formula_units_Z 80
_cell_length_a 28.961237
_cell_length_b 8.897668
_cell_length_c 18.781847
_cell_angle_alpha 90.000000
_cell_angle_beta 90.000000
_cell_angle_gamma 90.000000
_cell_volume 4839.846667
_symmetry_space_group_name_H-M "C M M M"
_symmetry_group_IT_number 65
_symmetry_cell_setting 'orthorhombic'
loop_
_space_group_symop_operation_xyz
x,y,z
-x,-y,z
x,-y,-z
-x,y,-z
-x,-y,-z
x,y,-z
-x,y,z
x,-y,z
1/2+x,1/2+y,z
1/2-x,1/2-y,z
1/2+x,1/2-y,-z
1/2-x,1/2+y,-z
1/2-x,1/2-y,-z
1/2+x,1/2+y,-z
1/2-x,1/2+y,z
1/2+x,1/2-y,z
loop_
_atom_site_type_symbol
_atom_site_label
_atom_site_fract_x
_atom_site_fract_y
_atom_site_fract_z
Si Si1 0.300658 0.680985 0.343595
Si Si2 0.943910 0.173609 0.000000
Si Si3 0.604966 0.319778 0.283492
Si Si4 0.198953 0.180824 0.500000
Si Si5 0.055501 0.320885 0.580182
Si Si6 0.554657 0.820805 0.148453
O O1 0.295895 0.500000 0.342850
O O2 0.250000 0.750000 0.332543
O O3 0.341023 0.723904 0.289618
O O4 0.319480 0.726147 0.422683
O O5 0.929346 0.254309 0.927247
O O6 0.000000 0.178718 0.000000
O O7 0.929747 0.000000 0.000000
O O8 0.602069 0.500000 0.280691
O O9 0.579562 0.263449 0.354997
O O10 0.581315 0.249326 0.214665
O O11 0.250000 0.250000 0.500000
O O12 0.200596 0.000000 0.500000
O O13 0.069663 0.272006 0.500000
O O14 0.064429 0.500000 0.585917
O O15 0.000000 0.300938 0.585106
O O16 0.500000 0.786114 0.156335
O O17 0.559587 0.000000 0.148092
#
# Coordination Sequence:
#
# PCOD9489226 Si02
#       6
#    16   8  16   8  16  16
#     4   9  19  33  49  68  93 124 161 208 258 305
#     4   9  17  31  53  79 106 133 162 201 247 291
#     4  11  22  32  48  74 101 129 165 209 255 297
#     4   8  14  28  46  62  83 112 149 197 250 297
#     4   9  19  35  50  65  91 129 171 210 247 293
#     4  10  20  34  52  75 105 139 171 201 238 291
#
# _framework density 16.529450000000001
#
# number of rings (size 3 to 8) (size 9 to 14) (size 15 to 20)
#    0.000    2.500    0.000    2.700    1.400    7.200 
#    0.000    1.000    0.000    0.000    0.000    0.700 
#    0.000    0.000    0.000    0.000    0.000    0.000 
#
# Total GULP energy -222984.117816 kJ/mol
# GULP energy per Si atom -5574.602945 kJ/mol
# Density = 1.649183 g / cm^3
# Si number density = 16.529450 Si / 1000 Ang^3
#
#
#
# Elastic Constant Matrix: (Units=GPa)
#
#
# Indices 1 2 3 4 5 6 
#
# 1 74.4970 43.0195 74.8936 0.0000 0.0000 0.0000
# 2 43.0195 43.1577 59.9627 0.0000 0.0000 0.0000
# 3 74.8936 59.9627 158.1286 0.0000 0.0000 0.0000
# 4 0.0000 0.0000 0.0000 31.1881 0.0000 0.0000
# 5 0.0000 0.0000 0.0000 0.0000 16.2940 0.0000
# 6 0.0000 0.0000 0.0000 0.0000 0.0000 19.8503
#
#
#
# Elastic Compliance Matrix: (Units=1/GPa)
#
#
# Indices 1 2 3 4 5 6 
#
# 1 0.035016 -0.025070 -0.007078 0.000000 0.000000 0.000000
# 2 -0.025070 0.066922 -0.013503 0.000000 0.000000 0.000000
# 3 -0.007078 -0.013503 0.014797 0.000000 0.000000 0.000000
# 4 0.000000 0.000000 0.000000 0.032064 0.000000 0.000000
# 5 0.000000 0.000000 0.000000 0.000000 0.061372 0.000000
# 6 0.000000 0.000000 0.000000 0.000000 0.000000 0.050377
#
#
# Mechanical properties :
#
#
# Convention : Reuss Voigt Hill
#
# Bulk Modulus (GPa) = 39.32003 70.17055 54.74529
# Shear Modulus (GPa) = 13.87632 19.99364 16.93498
#
# Velocity S-wave (km/s) = 2.90054 3.48167 3.20431
# Velocity P-wave (km/s) = 5.92090 7.66203 6.84703
#
# Compressibility (1/GPa) = 0.02543233
#
# Stress axis : x y z
#
# Youngs Moduli (GPa) = 28.55845 14.94287 67.58336
#
# Poissons Ratio (x) = 0.37462 0.47834
# Poissons Ratio (y) = 0.71596 0.91258
# Poissons Ratio (z) = 0.20213 0.20177
#
# Static dielectric constant tensor:
#      x y z
#    x 1.547850 0.000000 0.000000 
#    y 0.000000 1.555670 0.000000 
#    z 0.000000 0.000000 1.555000 
# 
# From -- ./inp_files/57892.got.cif
#   From: 2010.05.17/outbox.cif.g08.bks.cpg/sg65_29_cif.got.tgz:57892.got - 2010.06.03 17:01:31.
