data_PCOD9489898
_publ_section_title
;
Structure prediction by ZEFSAII (Michael W. Deem and Ramdas Pophale) SiO2 
 PCOD9489898
Probable space group: C M M M
;
_chemical_formula_sum "Si O2"
_cell_formula_units_Z 56
_cell_length_a 27.457035
_cell_length_b 7.472608
_cell_length_c 11.322999
_cell_angle_alpha 90.000000
_cell_angle_beta 90.000000
_cell_angle_gamma 90.000000
_cell_volume 2323.203786
_symmetry_space_group_name_H-M "C M M M"
_symmetry_group_IT_number 65
_symmetry_cell_setting 'orthorhombic'
loop_
_space_group_symop_operation_xyz
x,y,z
-x,-y,z
x,-y,-z
-x,y,-z
-x,-y,-z
x,y,-z
-x,y,z
x,-y,z
1/2+x,1/2+y,z
1/2-x,1/2-y,z
1/2+x,1/2-y,-z
1/2-x,1/2+y,-z
1/2-x,1/2-y,-z
1/2+x,1/2+y,-z
1/2-x,1/2+y,z
1/2+x,1/2-y,z
loop_
_atom_site_type_symbol
_atom_site_label
_atom_site_fract_x
_atom_site_fract_y
_atom_site_fract_z
Si Si1 0.192902 0.713080 0.241442
Si Si2 0.942189 0.216128 0.372389
Si Si3 0.308080 0.213528 0.500000
Si Si4 0.401440 0.706720 0.127374
O O1 0.187202 0.500000 0.241457
O O2 0.250000 0.750000 0.224835
O O3 0.176398 0.783765 0.371625
O O4 0.156762 0.789485 0.144614
O O5 0.922739 0.282556 0.500000
O O6 0.921362 0.287807 0.249288
O O7 0.000000 0.249284 0.371691
O O8 0.935579 0.000000 0.372935
O O9 0.250000 0.250000 0.500000
O O10 0.315080 0.000000 0.500000
O O11 0.417907 0.500000 0.125594
O O12 0.414654 0.785897 0.000000
#
# Coordination Sequence:
#
# PCOD9489898 Si02
#       4
#    16  16   8  16
#     4  10  20  35  54  76 105 141 180 221 266 314
#     4   8  15  30  53  80 107 136 173 217 264 313
#     4   8  16  30  48  72  97 124 165 215 260 305
#     4  10  21  34  50  78 111 142 178 218 262 312
#
# _framework density 24.104645000000001
#
# number of rings (size 3 to 8) (size 9 to 14) (size 15 to 20)
#    0.000    2.857    0.000    1.714    2.000    2.857 
#    0.000    2.857    0.000    0.857    0.000    4.000 
#    0.000    0.000    0.000    0.000    0.000    0.000 
#
# Total GULP energy -156301.731558 kJ/mol
# GULP energy per Si atom -5582.204698 kJ/mol
# Density = 2.404978 g / cm^3
# Si number density = 24.104645 Si / 1000 Ang^3
#
#
#
# Elastic Constant Matrix: (Units=GPa)
#
#
# Indices 1 2 3 4 5 6 
#
# 1 60.2513 -0.4764 59.3182 0.0000 0.0000 0.0000
# 2 -0.4764 86.6224 11.7635 0.0000 0.0000 0.0000
# 3 59.3182 11.7635 253.7367 0.0000 0.0000 0.0000
# 4 0.0000 0.0000 0.0000 0.8844 0.0000 0.0000
# 5 0.0000 0.0000 0.0000 0.0000 12.7594 0.0000
# 6 0.0000 0.0000 0.0000 0.0000 0.0000 5.3579
#
#
#
# Elastic Compliance Matrix: (Units=1/GPa)
#
#
# Indices 1 2 3 4 5 6 
#
# 1 0.021616 0.000810 -0.005091 0.000000 0.000000 0.000000
# 2 0.000810 0.011648 -0.000729 0.000000 0.000000 0.000000
# 3 -0.005091 -0.000729 0.005165 0.000000 0.000000 0.000000
# 4 0.000000 0.000000 0.000000 1.130667 0.000000 0.000000
# 5 0.000000 0.000000 0.000000 0.000000 0.078373 0.000000
# 6 0.000000 0.000000 0.000000 0.000000 0.000000 0.186640
#
#
# Mechanical properties :
#
#
# Convention : Reuss Voigt Hill
#
# Bulk Modulus (GPa) = 35.20085 60.20232 47.70158
# Shear Modulus (GPa) = 3.43974 25.80070 14.62022
#
# Velocity S-wave (km/s) = 1.19587 3.27519 2.46546
# Velocity P-wave (km/s) = 4.06717 6.27153 5.28554
#
# Compressibility (1/GPa) = 0.02840841
#
# Stress axis : x y z
#
# Youngs Moduli (GPa) = 46.26306 85.85261 193.60970
#
# Poissons Ratio (x) = -0.06956 0.98563
# Poissons Ratio (y) = -0.03748 0.14122
# Poissons Ratio (z) = 0.23552 0.06262
#
# Static dielectric constant tensor:
#      x y z
#    x 1.884240 0.000000 0.000000 
#    y 0.000000 2.227140 0.000000 
#    z 0.000000 0.000000 1.977780 
# 
# From -- ./inp_files/20463.got.cif
#   From: 2010.05.17/outbox.cif.g08.bks.cpg/sg65_11_cif.got.tgz:20463.got - 2010.06.03 17:01:31.
