data_PCOD9489129
_publ_section_title
;
Structure prediction by ZEFSAII (Michael W. Deem and Ramdas Pophale) SiO2 
 PCOD9489129
Probable space group: C M M M
;
_chemical_formula_sum "Si O2"
_cell_formula_units_Z 88
_cell_length_a 29.051975
_cell_length_b 9.033860
_cell_length_c 24.368553
_cell_angle_alpha 90.000000
_cell_angle_beta 90.000000
_cell_angle_gamma 90.000000
_cell_volume 6395.562675
_symmetry_space_group_name_H-M "C M M M"
_symmetry_group_IT_number 65
_symmetry_cell_setting 'orthorhombic'
loop_
_space_group_symop_operation_xyz
x,y,z
-x,-y,z
x,-y,-z
-x,y,-z
-x,-y,-z
x,y,-z
-x,y,z
x,-y,z
1/2+x,1/2+y,z
1/2-x,1/2-y,z
1/2+x,1/2-y,-z
1/2-x,1/2+y,-z
1/2-x,1/2-y,-z
1/2+x,1/2+y,-z
1/2-x,1/2+y,z
1/2+x,1/2-y,z
loop_
_atom_site_type_symbol
_atom_site_label
_atom_site_fract_x
_atom_site_fract_y
_atom_site_fract_z
Si Si1 0.944091 0.171655 0.829892
Si Si2 0.055650 0.674782 0.940316
Si Si3 0.447563 0.179542 0.500000
Si Si4 0.890257 0.321537 0.391907
Si Si5 0.299104 0.676440 0.434730
Si Si6 0.445537 0.320829 0.292580
O O1 0.926907 0.252978 0.884311
O O2 0.931091 0.226352 0.769169
O O3 0.000000 0.178712 0.830241
O O4 0.931297 0.000000 0.833783
O O5 0.064696 0.500000 0.938631
O O6 0.000000 0.692769 0.940193
O O7 0.071817 0.732782 0.000000
O O8 0.500000 0.234128 0.500000
O O9 0.420508 0.223024 0.554771
O O10 0.448975 0.000000 0.500000
O O11 0.887810 0.500000 0.389932
O O12 0.840085 0.252296 0.401292
O O13 0.915462 0.257628 0.338594
O O14 0.307551 0.701946 0.500000
O O15 0.297818 0.500000 0.425776
O O16 0.250000 0.750000 0.421801
O O17 0.500000 0.286900 0.299946
O O18 0.441187 0.500000 0.295694
#
# Coordination Sequence:
#
# PCOD9489129 Si02
#       6
#    16  16   8  16  16  16
#     4   8  14  24  36  49  68  97 132 169 205 240
#     4   8  13  20  30  46  68  92 121 162 207 244
#     4   9  18  30  42  59  84 109 134 169 206 239
#     4  11  20  31  47  65  86 109 137 170 209 252
#     4  10  20  34  52  70  88 106 129 161 204 252
#     4   9  18  31  43  57  81 111 143 178 212 247
#
# _framework density 13.759539
#
# number of rings (size 3 to 8) (size 9 to 14) (size 15 to 20)
#    0.000    2.818    0.909    3.273    0.000    2.909 
#    0.000    3.636    0.000    2.182    0.000    0.000 
#    0.000    0.000    0.000    0.000    0.000    0.909 
#
# Total GULP energy -244957.522854 kJ/mol
# GULP energy per Si atom -5567.216429 kJ/mol
# Density = 1.372822 g / cm^3
# Si number density = 13.759539 Si / 1000 Ang^3
#
#
#
# Elastic Constant Matrix: (Units=GPa)
#
#
# Indices 1 2 3 4 5 6 
#
# 1 69.0205 32.5715 52.9678 0.0000 0.0000 0.0000
# 2 32.5715 43.1986 55.3154 0.0000 0.0000 0.0000
# 3 52.9678 55.3154 151.1395 0.0000 0.0000 0.0000
# 4 0.0000 0.0000 0.0000 25.1912 0.0000 0.0000
# 5 0.0000 0.0000 0.0000 0.0000 1.6161 0.0000
# 6 0.0000 0.0000 0.0000 0.0000 0.0000 16.3048
#
#
#
# Elastic Compliance Matrix: (Units=1/GPa)
#
#
# Indices 1 2 3 4 5 6 
#
# 1 0.023319 -0.013396 -0.003270 0.000000 0.000000 0.000000
# 2 -0.013396 0.051261 -0.014066 0.000000 0.000000 0.000000
# 3 -0.003270 -0.014066 0.012910 0.000000 0.000000 0.000000
# 4 0.000000 0.000000 0.000000 0.039696 0.000000 0.000000
# 5 0.000000 0.000000 0.000000 0.000000 0.618779 0.000000
# 6 0.000000 0.000000 0.000000 0.000000 0.000000 0.061332
#
#
# Mechanical properties :
#
#
# Convention : Reuss Voigt Hill
#
# Bulk Modulus (GPa) = 38.42150 60.56311 49.49231
# Shear Modulus (GPa) = 5.69841 16.78934 11.24388
#
# Velocity S-wave (km/s) = 2.03726 3.49692 2.86172
# Velocity P-wave (km/s) = 5.78948 7.77274 6.85323
#
# Compressibility (1/GPa) = 0.02602709
#
# Stress axis : x y z
#
# Youngs Moduli (GPa) = 42.88287 19.50794 77.45690
#
# Poissons Ratio (x) = 0.26133 0.25326
# Poissons Ratio (y) = 0.57446 1.08954
# Poissons Ratio (z) = 0.14021 0.27441
#
# Static dielectric constant tensor:
#      x y z
#    x 1.418820 0.000000 0.000000 
#    y 0.000000 1.457600 0.000000 
#    z 0.000000 0.000000 1.473470 
# 
# From -- ./inp_files/66185.got.cif
#   From: 2010.05.17/outbox.cif.g08.bks.cpg/sg65_34_cif.got.tgz:66185.got - 2010.06.03 17:01:31.
