data_PCOD9489924
_publ_section_title
;
Structure prediction by ZEFSAII (Michael W. Deem and Ramdas Pophale) SiO2 
 PCOD9489924
Probable space group: C M M M
;
_chemical_formula_sum "Si O2"
_cell_formula_units_Z 52
_cell_length_a 16.582318
_cell_length_b 18.155779
_cell_length_c 7.376130
_cell_angle_alpha 90.000000
_cell_angle_beta 90.000000
_cell_angle_gamma 90.000000
_cell_volume 2220.693848
_symmetry_space_group_name_H-M "C M M M"
_symmetry_group_IT_number 65
_symmetry_cell_setting 'orthorhombic'
loop_
_space_group_symop_operation_xyz
x,y,z
-x,-y,z
x,-y,-z
-x,y,-z
-x,-y,-z
x,y,-z
-x,y,z
x,-y,z
1/2+x,1/2+y,z
1/2-x,1/2-y,z
1/2+x,1/2-y,-z
1/2-x,1/2+y,-z
1/2-x,1/2-y,-z
1/2+x,1/2+y,-z
1/2-x,1/2+y,z
1/2+x,1/2-y,z
loop_
_atom_site_type_symbol
_atom_site_label
_atom_site_fract_x
_atom_site_fract_y
_atom_site_fract_z
Si Si1 0.407662 0.892022 0.708809
Si Si2 0.158758 0.764763 0.780831
Si Si3 0.404836 0.579349 0.219747
Si Si4 0.341444 0.000000 0.000000
O O1 0.397411 0.913155 0.500000
O O2 0.500000 0.909994 0.764861
O O3 0.394614 0.804400 0.722295
O O4 0.348925 0.935505 0.842034
O O5 0.250000 0.750000 0.725030
O O6 0.132663 0.845007 0.714112
O O7 0.155102 0.766108 0.000000
O O8 0.500000 0.580813 0.259722
O O9 0.371688 0.500000 0.281747
O O10 0.396712 0.579220 0.000000
#
# Coordination Sequence:
#
# PCOD9489924 Si02
#       4
#    16  16  16   4
#     4  11  23  39  63  92 122 162 209 257 312 371
#     4  10  20  35  54  87 122 163 202 245 310 375
#     4   8  14  27  50  78 108 147 199 253 296 346
#     4  12  23  42  66  90 122 158 207 266 309 362
#
# _framework density 23.416105000000002
#
# number of rings (size 3 to 8) (size 9 to 14) (size 15 to 20)
#    0.000    2.154    1.538    3.692    0.000    3.077 
#    2.769    0.000    0.000    0.923    0.000    4.308 
#    0.000    0.000    0.000    0.000    0.000    0.000 
#
# Total GULP energy -144898.083726 kJ/mol
# GULP energy per Si atom -5573.003220 kJ/mol
# Density = 2.336281 g / cm^3
# Si number density = 23.416105 Si / 1000 Ang^3
#
#
#
# Elastic Constant Matrix: (Units=GPa)
#
#
# Indices 1 2 3 4 5 6 
#
# 1 22.1358 43.8983 6.9269 0.0000 0.0000 0.0000
# 2 43.8983 256.8965 22.6660 0.0000 0.0000 0.0000
# 3 6.9269 22.6660 110.3315 0.0000 0.0000 0.0000
# 4 0.0000 0.0000 0.0000 -59.7603 0.0000 0.0000
# 5 0.0000 0.0000 0.0000 0.0000 -6.2040 0.0000
# 6 0.0000 0.0000 0.0000 0.0000 0.0000 22.1783
#
#
#
# Elastic Compliance Matrix: (Units=1/GPa)
#
#
# Indices 1 2 3 4 5 6 
#
# 1 0.068736 -0.011575 -0.001938 0.000000 0.000000 0.000000
# 2 -0.011575 0.005914 -0.000488 0.000000 0.000000 0.000000
# 3 -0.001938 -0.000488 0.009286 0.000000 0.000000 0.000000
# 4 0.000000 0.000000 0.000000 -0.016734 0.000000 0.000000
# 5 0.000000 0.000000 0.000000 0.000000 -0.161185 0.000000
# 6 0.000000 0.000000 0.000000 0.000000 0.000000 0.045089
#
#
# Mechanical properties :
#
#
# Convention : Reuss Voigt Hill
#
# Bulk Modulus (GPa) = 17.87808 59.59404 38.73606
# Shear Modulus (GPa) = -2223.41853 12.30097 -1105.55878
#
# Velocity S-wave (km/s) = -30.84780 2.29447 -21.75227
# Velocity P-wave (km/s) = 35.51240 5.70305 24.78514
#
# Compressibility (1/GPa) = 0.05593442
#
# Stress axis : x y z
#
# Youngs Moduli (GPa) = 14.54838 169.10304 107.69448
#
# Poissons Ratio (x) = 1.95731 0.20867
# Poissons Ratio (y) = 0.16839 0.05257
# Poissons Ratio (z) = 0.02819 0.08255
#
# Static dielectric constant tensor:
#      x y z
#    x 1.885530 0.000000 0.000000 
#    y 0.000000 1.879940 0.000000 
#    z 0.000000 0.000000 1.867120 
# 
# From -- ./inp_files/10572.got.cif
#   From: 2010.05.17/outbox.cif.g08.bks.cpg/sg65_6_cif.got.tgz:10572.got - 2010.06.03 17:01:31.
