data_PCOD9489000
_publ_section_title
;
Structure prediction by ZEFSAII (Michael W. Deem and Ramdas Pophale) SiO2 
 PCOD9489000
Probable space group: C M M M
;
_chemical_formula_sum "Si O2"
_cell_formula_units_Z 88
_cell_length_a 8.682663
_cell_length_b 23.967447
_cell_length_c 23.365348
_cell_angle_alpha 90.000000
_cell_angle_beta 90.000000
_cell_angle_gamma 90.000000
_cell_volume 4862.358482
_symmetry_space_group_name_H-M "C M M M"
_symmetry_group_IT_number 65
_symmetry_cell_setting 'orthorhombic'
loop_
_space_group_symop_operation_xyz
x,y,z
-x,-y,z
x,-y,-z
-x,y,-z
-x,-y,-z
x,y,-z
-x,y,z
x,-y,z
1/2+x,1/2+y,z
1/2-x,1/2-y,z
1/2+x,1/2-y,-z
1/2-x,1/2+y,-z
1/2-x,1/2-y,-z
1/2+x,1/2+y,-z
1/2-x,1/2+y,z
1/2+x,1/2-y,z
loop_
_atom_site_type_symbol
_atom_site_label
_atom_site_fract_x
_atom_site_fract_y
_atom_site_fract_z
Si Si1 0.316508 0.812937 0.500000
Si Si2 0.813529 0.886476 0.170017
Si Si3 0.315100 0.311672 0.277707
Si Si4 0.185835 0.810704 0.934260
Si Si5 0.813795 0.878991 0.608509
Si Si6 0.686240 0.500000 0.650959
Si Si7 0.316762 0.000000 0.219531
O O1 0.500000 0.809148 0.500000
O O2 0.250000 0.750000 0.500000
O O3 0.259397 0.847212 0.444750
O O4 0.767875 0.843808 0.220413
O O5 0.766658 0.858633 0.110005
O O6 0.000000 0.891821 0.170661
O O7 0.742265 0.945553 0.186124
O O8 0.500000 0.308851 0.277556
O O9 0.250000 0.250000 0.280080
O O10 0.269385 0.346932 0.333355
O O11 0.250000 0.750000 0.917227
O O12 0.000000 0.807705 0.932797
O O13 0.233629 0.821354 0.000000
O O14 0.769263 0.943632 0.617576
O O15 0.000000 0.876860 0.602706
O O16 0.500000 0.500000 0.656189
O O17 0.750562 0.500000 0.715590
O O18 0.500000 0.000000 0.222772
#
# Coordination Sequence:
#
# PCOD9489000 Si02
#       7
#     8  16  16  16  16   8   8
#     4  12  26  43  62  85 119 156 192 236 287 338
#     4  10  20  37  57  78 111 154 194 232 282 345
#     4  10  20  33  54  82 111 144 184 231 282 335
#     4   9  18  33  56  85 116 152 192 236 286 340
#     4  10  21  39  63  87 113 150 194 232 279 340
#     4  10  20  41  67  87 116 154 191 229 281 346
#     4  12  24  36  56  86 116 147 190 242 293 338
#
# _framework density 18.098213000000001
#
# number of rings (size 3 to 8) (size 9 to 14) (size 15 to 20)
#    0.000    1.818    1.818    2.727    0.000    4.727 
#    0.000    2.273    0.000    2.727    0.000    0.000 
#    0.000    0.000    0.000    0.000    0.000    0.000 
#
# Total GULP energy -245733.460276 kJ/mol
# GULP energy per Si atom -5584.851370 kJ/mol
# Density = 1.805702 g / cm^3
# Si number density = 18.098213 Si / 1000 Ang^3
#
#
#
# Elastic Constant Matrix: (Units=GPa)
#
#
# Indices 1 2 3 4 5 6 
#
# 1 27.4924 45.5894 38.2884 0.0000 0.0000 0.0000
# 2 45.5894 200.5956 95.2216 0.0000 0.0000 0.0000
# 3 38.2884 95.2216 128.8651 0.0000 0.0000 0.0000
# 4 0.0000 0.0000 0.0000 33.4392 0.0000 0.0000
# 5 0.0000 0.0000 0.0000 0.0000 14.2231 0.0000
# 6 0.0000 0.0000 0.0000 0.0000 0.0000 31.2002
#
#
#
# Elastic Compliance Matrix: (Units=1/GPa)
#
#
# Indices 1 2 3 4 5 6 
#
# 1 0.072365 -0.009611 -0.014399 0.000000 0.000000 0.000000
# 2 -0.009611 0.008955 -0.003761 0.000000 0.000000 0.000000
# 3 -0.014399 -0.003761 0.014818 0.000000 0.000000 0.000000
# 4 0.000000 0.000000 0.000000 0.029905 0.000000 0.000000
# 5 0.000000 0.000000 0.000000 0.000000 0.070308 0.000000
# 6 0.000000 0.000000 0.000000 0.000000 0.000000 0.032051
#
#
# Mechanical properties :
#
#
# Convention : Reuss Voigt Hill
#
# Bulk Modulus (GPa) = 24.63398 79.46134 52.04766
# Shear Modulus (GPa) = 16.80802 27.62943 22.21873
#
# Velocity S-wave (km/s) = 3.05078 3.91146 3.50762
# Velocity P-wave (km/s) = 5.10397 8.02498 6.72499
#
# Compressibility (1/GPa) = 0.04059433
#
# Stress axis : x y z
#
# Youngs Moduli (GPa) = 13.81880 111.66926 67.48687
#
# Poissons Ratio (x) = 1.07328 0.97175
# Poissons Ratio (y) = 0.13282 0.25384
# Poissons Ratio (z) = 0.19898 0.42003
#
# Static dielectric constant tensor:
#      x y z
#    x 1.614890 0.000000 0.000000 
#    y 0.000000 1.596230 0.000000 
#    z 0.000000 0.000000 1.612130 
# 
# From -- ./inp_files/59865.got.cif
#   From: 2010.05.17/outbox.cif.g08.bks.cpg/sg65_30_cif.got.tgz:59865.got - 2010.06.03 17:01:31.
