data_PCOD9489712
_publ_section_title
;
Structure prediction by ZEFSAII (Michael W. Deem and Ramdas Pophale) SiO2 
 PCOD9489712
Probable space group: C M M M
;
_chemical_formula_sum "Si O2"
_cell_formula_units_Z 88
_cell_length_a 24.885155
_cell_length_b 20.327153
_cell_length_c 7.808745
_cell_angle_alpha 90.000000
_cell_angle_beta 90.000000
_cell_angle_gamma 90.000000
_cell_volume 3950.009563
_symmetry_space_group_name_H-M "C M M M"
_symmetry_group_IT_number 65
_symmetry_cell_setting 'orthorhombic'
loop_
_space_group_symop_operation_xyz
x,y,z
-x,-y,z
x,-y,-z
-x,y,-z
-x,-y,-z
x,y,-z
-x,y,z
x,-y,z
1/2+x,1/2+y,z
1/2-x,1/2-y,z
1/2+x,1/2-y,-z
1/2-x,1/2+y,-z
1/2-x,1/2-y,-z
1/2+x,1/2+y,-z
1/2-x,1/2+y,z
1/2+x,1/2-y,z
loop_
_atom_site_type_symbol
_atom_site_label
_atom_site_fract_x
_atom_site_fract_y
_atom_site_fract_z
Si Si1 0.824497 0.070965 0.800961
Si Si2 0.437763 0.000000 0.289408
Si Si3 0.633900 0.878650 0.699528
Si Si4 0.440461 0.392760 0.298910
Si Si5 0.439095 0.759559 0.204989
Si Si6 0.757087 0.323288 0.701277
O O1 0.888644 0.076041 0.786214
O O2 0.796032 0.132986 0.715900
O O3 0.807220 0.000000 0.728556
O O4 0.809859 0.073262 0.000000
O O5 0.404263 0.063926 0.229905
O O6 0.500000 0.000000 0.233091
O O7 0.439660 0.000000 0.500000
O O8 0.641250 0.896300 0.500000
O O9 0.602503 0.810004 0.715662
O O10 0.692788 0.864645 0.775626
O O11 0.438893 0.408676 0.500000
O O12 0.500000 0.410758 0.232512
O O13 0.434748 0.314109 0.275670
O O14 0.500000 0.782702 0.240270
O O15 0.431570 0.756873 0.000000
O O16 0.769694 0.314134 0.500000
O O17 0.750000 0.250000 0.775496
#
# Coordination Sequence:
#
# PCOD9489712 Si02
#       6
#    16   8  16  16  16  16
#     4  11  25  42  61  88 123 161 198 239 296 361
#     4   9  18  32  51  79 113 151 198 249 300 357
#     4  10  20  34  56  82 112 152 200 251 302 356
#     4  10  21  38  62  90 118 152 196 244 294 347
#     4  10  20  34  55  85 120 156 194 240 298 359
#     4  10  22  39  61  89 118 152 202 257 305 357
#
# _framework density 22.278427000000001
#
# number of rings (size 3 to 8) (size 9 to 14) (size 15 to 20)
#    0.000    1.909    0.000    3.273    1.273    7.273 
#    0.000    2.273    0.000    1.636    0.000    0.000 
#    0.000    0.000    0.000    0.000    0.000    0.000 
#
# Total GULP energy -245818.768641 kJ/mol
# GULP energy per Si atom -5586.790196 kJ/mol
# Density = 2.222772 g / cm^3
# Si number density = 22.278427 Si / 1000 Ang^3
#
#
#
# Elastic Constant Matrix: (Units=GPa)
#
#
# Indices 1 2 3 4 5 6 
#
# 1 129.2953 58.7398 3.3291 0.0000 0.0000 0.0000
# 2 58.7398 113.5198 -5.9636 0.0000 0.0000 0.0000
# 3 3.3291 -5.9636 27.5040 0.0000 0.0000 0.0000
# 4 0.0000 0.0000 0.0000 3.8738 0.0000 0.0000
# 5 0.0000 0.0000 0.0000 0.0000 2.6452 0.0000
# 6 0.0000 0.0000 0.0000 0.0000 0.0000 8.0110
#
#
#
# Elastic Compliance Matrix: (Units=1/GPa)
#
#
# Indices 1 2 3 4 5 6 
#
# 1 0.010268 -0.005440 -0.002423 0.000000 0.000000 0.000000
# 2 -0.005440 0.011793 0.003216 0.000000 0.000000 0.000000
# 3 -0.002423 0.003216 0.037349 0.000000 0.000000 0.000000
# 4 0.000000 0.000000 0.000000 0.258144 0.000000 0.000000
# 5 0.000000 0.000000 0.000000 0.000000 0.378038 0.000000
# 6 0.000000 0.000000 0.000000 0.000000 0.000000 0.124829
#
#
# Mechanical properties :
#
#
# Convention : Reuss Voigt Hill
#
# Bulk Modulus (GPa) = 19.95399 42.50329 31.22864
# Shear Modulus (GPa) = 5.90723 17.18693 11.54708
#
# Velocity S-wave (km/s) = 1.63012 2.78053 2.27911
# Velocity P-wave (km/s) = 3.53824 5.42477 4.57970
#
# Compressibility (1/GPa) = 0.05011529
#
# Stress axis : x y z
#
# Youngs Moduli (GPa) = 97.38755 84.79545 26.77464
#
# Poissons Ratio (x) = 0.46133 0.06486
# Poissons Ratio (y) = 0.52983 -0.08610
# Poissons Ratio (z) = 0.23592 -0.27267
#
# Static dielectric constant tensor:
#      x y z
#    x 1.819810 0.000000 0.000000 
#    y 0.000000 1.801470 0.000000 
#    z 0.000000 0.000000 1.799280 
# 
# From -- ./inp_files/13980.got.cif
#   From: 2010.05.17/outbox.cif.g08.bks.cpg/sg65_7_cif.got.tgz:13980.got - 2010.06.03 17:01:31.
