data_PCOD9489175
_publ_section_title
;
Structure prediction by ZEFSAII (Michael W. Deem and Ramdas Pophale) SiO2 
 PCOD9489175
Probable space group: C M M M
;
_chemical_formula_sum "Si O2"
_cell_formula_units_Z 104
_cell_length_a 30.111069
_cell_length_b 8.554539
_cell_length_c 22.149188
_cell_angle_alpha 90.000000
_cell_angle_beta 90.000000
_cell_angle_gamma 90.000000
_cell_volume 5705.327697
_symmetry_space_group_name_H-M "C M M M"
_symmetry_group_IT_number 65
_symmetry_cell_setting 'orthorhombic'
loop_
_space_group_symop_operation_xyz
x,y,z
-x,-y,z
x,-y,-z
-x,y,-z
-x,-y,-z
x,y,-z
-x,y,z
x,-y,z
1/2+x,1/2+y,z
1/2-x,1/2-y,z
1/2+x,1/2-y,-z
1/2-x,1/2+y,-z
1/2-x,1/2-y,-z
1/2+x,1/2+y,-z
1/2-x,1/2+y,z
1/2+x,1/2-y,z
loop_
_atom_site_type_symbol
_atom_site_label
_atom_site_fract_x
_atom_site_fract_y
_atom_site_fract_z
Si Si1 0.553613 0.822393 0.500000
Si Si2 0.169875 0.812326 0.932395
Si Si3 0.702317 0.811231 0.195592
Si Si4 0.883152 0.320335 0.730142
Si Si5 0.929743 0.316857 0.067801
Si Si6 0.450574 0.676359 0.812357
Si Si7 0.948692 0.185998 0.629660
O O1 0.500000 0.826519 0.500000
O O2 0.565202 0.738278 0.437579
O O3 0.570275 0.000000 0.500000
O O4 0.194609 0.754606 0.872292
O O5 0.122439 0.725756 0.930899
O O6 0.163672 0.000000 0.928086
O O7 0.189311 0.780848 0.000000
O O8 0.750000 0.750000 0.216401
O O9 0.663249 0.759462 0.241928
O O10 0.701156 0.000000 0.192529
O O11 0.876423 0.500000 0.713425
O O12 0.917112 0.301092 0.785682
O O13 0.911182 0.240609 0.676658
O O14 0.936432 0.500000 0.081881
O O15 0.951685 0.206987 0.116875
O O16 0.945590 0.289392 0.000000
O O17 0.500000 0.692436 0.786839
O O18 0.434879 0.500000 0.799270
O O19 0.000000 0.245278 0.640748
O O20 0.951114 0.000000 0.632505
#
# Coordination Sequence:
#
# PCOD9489175 Si02
#       7
#     8  16  16  16  16  16  16
#     4   9  17  31  53  83 120 159 196 233 269 307
#     4  10  20  35  57  81 104 133 170 219 281 344
#     4  11  24  40  59  82 107 139 180 228 283 341
#     4  11  23  38  56  80 109 144 184 226 273 326
#     4  10  20  34  52  73  98 131 172 218 269 325
#     4  11  23  36  52  75 103 138 179 221 268 323
#     4  10  20  34  55  85 121 159 195 229 268 315
#
# _framework density 18.228577000000001
#
# number of rings (size 3 to 8) (size 9 to 14) (size 15 to 20)
#    0.000    1.615    1.538    3.462    0.000    9.231 
#    0.000    1.538    0.000    0.000    0.000    0.538 
#    0.000    0.000    0.000    0.000    0.000    0.000 
#
# Total GULP energy -290079.631524 kJ/mol
# GULP energy per Si atom -5578.454452 kJ/mol
# Density = 1.818709 g / cm^3
# Si number density = 18.228577 Si / 1000 Ang^3
#
#
#
# Elastic Constant Matrix: (Units=GPa)
#
#
# Indices 1 2 3 4 5 6 
#
# 1 98.6002 20.5422 51.4227 0.0000 0.0000 0.0000
# 2 20.5422 45.7969 29.7896 0.0000 0.0000 0.0000
# 3 51.4227 29.7896 121.6150 0.0000 0.0000 0.0000
# 4 0.0000 0.0000 0.0000 24.6136 0.0000 0.0000
# 5 0.0000 0.0000 0.0000 0.0000 18.0296 0.0000
# 6 0.0000 0.0000 0.0000 0.0000 0.0000 14.3151
#
#
#
# Elastic Compliance Matrix: (Units=1/GPa)
#
#
# Indices 1 2 3 4 5 6 
#
# 1 0.013295 -0.002744 -0.004949 0.000000 0.000000 0.000000
# 2 -0.002744 0.026540 -0.005341 0.000000 0.000000 0.000000
# 3 -0.004949 -0.005341 0.011624 0.000000 0.000000 0.000000
# 4 0.000000 0.000000 0.000000 0.040628 0.000000 0.000000
# 5 0.000000 0.000000 0.000000 0.000000 0.055464 0.000000
# 6 0.000000 0.000000 0.000000 0.000000 0.000000 0.069856
#
#
# Mechanical properties :
#
#
# Convention : Reuss Voigt Hill
#
# Bulk Modulus (GPa) = 39.38469 52.16901 45.77685
# Shear Modulus (GPa) = 19.84604 22.34216 21.09410
#
# Velocity S-wave (km/s) = 3.30317 3.50475 3.40545
# Velocity P-wave (km/s) = 6.01672 6.71261 6.37417
#
# Compressibility (1/GPa) = 0.02539058
#
# Stress axis : x y z
#
# Youngs Moduli (GPa) = 75.21695 37.67843 86.03146
#
# Poissons Ratio (x) = 0.10339 0.42580
# Poissons Ratio (y) = 0.20639 0.45948
# Poissons Ratio (z) = 0.37228 0.20123
#
# Static dielectric constant tensor:
#      x y z
#    x 1.646070 0.000000 0.000000 
#    y 0.000000 1.626120 0.000000 
#    z 0.000000 0.000000 1.650810 
# 
# From -- ./inp_files/66335.got.cif
#   From: 2010.05.17/outbox.cif.g08.bks.cpg/sg65_34_cif.got.tgz:66335.got - 2010.06.03 17:01:31.
