data_PCOD9489443
_publ_section_title
;
Structure prediction by ZEFSAII (Michael W. Deem and Ramdas Pophale) SiO2 
 PCOD9489443
Probable space group: C M M M
;
_chemical_formula_sum "Si O2"
_cell_formula_units_Z 72
_cell_length_a 14.003825
_cell_length_b 29.548278
_cell_length_c 8.943302
_cell_angle_alpha 90.000000
_cell_angle_beta 90.000000
_cell_angle_gamma 90.000000
_cell_volume 3700.639224
_symmetry_space_group_name_H-M "C M M M"
_symmetry_group_IT_number 65
_symmetry_cell_setting 'orthorhombic'
loop_
_space_group_symop_operation_xyz
x,y,z
-x,-y,z
x,-y,-z
-x,y,-z
-x,-y,-z
x,y,-z
-x,y,z
x,-y,z
1/2+x,1/2+y,z
1/2-x,1/2-y,z
1/2+x,1/2-y,-z
1/2-x,1/2+y,-z
1/2-x,1/2-y,-z
1/2+x,1/2+y,-z
1/2-x,1/2+y,z
1/2+x,1/2-y,z
loop_
_atom_site_type_symbol
_atom_site_label
_atom_site_fract_x
_atom_site_fract_y
_atom_site_fract_z
Si Si1 0.388256 0.132469 0.677785
Si Si2 0.384444 0.679735 0.326125
Si Si3 0.287920 0.592623 0.179356
Si Si4 0.616208 0.772873 0.828908
Si Si5 0.109625 0.000000 0.817991
O O1 0.376534 0.129659 0.500000
O O2 0.500000 0.125865 0.713591
O O3 0.319353 0.097698 0.760519
O O4 0.359981 0.182736 0.733687
O O5 0.355872 0.680871 0.500000
O O6 0.500000 0.678572 0.320430
O O7 0.344648 0.635194 0.247040
O O8 0.352477 0.725633 0.243347
O O9 0.336590 0.545714 0.227619
O O10 0.289616 0.595269 0.000000
O O11 0.500000 0.771211 0.830985
O O12 0.648634 0.777847 0.000000
O O13 0.000000 0.000000 0.766606
O O14 0.108227 0.000000 0.000000
#
# Coordination Sequence:
#
# PCOD9489443 Si02
#       5
#    16  16  16  16   8
#     4  10  21  38  58  81 114 153 189 230 281 334
#     4  10  20  34  53  81 118 155 190 231 281 338
#     4  11  22  37  60  86 111 144 189 237 284 336
#     4   9  17  31  53  81 113 150 192 235 278 327
#     4   9  20  40  64  89 116 144 177 225 284 337
#
# _framework density 19.456099999999999
#
# number of rings (size 3 to 8) (size 9 to 14) (size 15 to 20)
#    0.000    2.111    0.000    3.333    0.000    7.111 
#    0.000    7.222    0.000    7.333    0.000    0.000 
#    0.000    0.000    0.000    0.000    0.000    0.000 
#
# Total GULP energy -201264.267521 kJ/mol
# GULP energy per Si atom -5590.674098 kJ/mol
# Density = 1.941182 g / cm^3
# Si number density = 19.456100 Si / 1000 Ang^3
#
#
#
# Elastic Constant Matrix: (Units=GPa)
#
#
# Indices 1 2 3 4 5 6 
#
# 1 92.9046 65.2788 36.8832 0.0000 0.0000 0.0000
# 2 65.2788 146.7651 53.3606 0.0000 0.0000 0.0000
# 3 36.8832 53.3606 97.4997 0.0000 0.0000 0.0000
# 4 0.0000 0.0000 0.0000 -59.7148 0.0000 0.0000
# 5 0.0000 0.0000 0.0000 0.0000 30.0056 0.0000
# 6 0.0000 0.0000 0.0000 0.0000 0.0000 34.3185
#
#
#
# Elastic Compliance Matrix: (Units=1/GPa)
#
#
# Indices 1 2 3 4 5 6 
#
# 1 0.016219 -0.006221 -0.002731 0.000000 0.000000 0.000000
# 2 -0.006221 0.010892 -0.003608 0.000000 0.000000 0.000000
# 3 -0.002731 -0.003608 0.013264 0.000000 0.000000 0.000000
# 4 0.000000 0.000000 0.000000 -0.016746 0.000000 0.000000
# 5 0.000000 0.000000 0.000000 0.000000 0.033327 0.000000
# 6 0.000000 0.000000 0.000000 0.000000 0.000000 0.029139
#
#
# Mechanical properties :
#
#
# Convention : Reuss Voigt Hill
#
# Bulk Modulus (GPa) = 65.54835 72.02384 68.78609
# Shear Modulus (GPa) = 42.99218 13.03163 28.01191
#
# Velocity S-wave (km/s) = 4.70585 2.59085 3.79852
# Velocity P-wave (km/s) = 7.95551 6.78594 7.39389
#
# Compressibility (1/GPa) = 0.01525591
#
# Stress axis : x y z
#
# Youngs Moduli (GPa) = 61.65578 91.80681 75.39182
#
# Poissons Ratio (x) = 0.57114 0.20588
# Poissons Ratio (y) = 0.38357 0.27201
# Poissons Ratio (z) = 0.16837 0.33123
#
# Static dielectric constant tensor:
#      x y z
#    x 1.739800 0.000000 0.000000 
#    y 0.000000 1.631260 0.000000 
#    z 0.000000 0.000000 1.651660 
# 
# From -- ./inp_files/7209.got.cif
#   From: 2010.05.17/outbox.cif.g08.bks.cpg/sg65_4_cif.got.tgz:7209.got - 2010.06.03 17:01:31.
