data_PCOD9489843
_publ_section_title
;
Structure prediction by ZEFSAII (Michael W. Deem and Ramdas Pophale) SiO2 
 PCOD9489843
Probable space group: C M M M
;
_chemical_formula_sum "Si O2"
_cell_formula_units_Z 104
_cell_length_a 24.018538
_cell_length_b 30.694981
_cell_length_c 7.598059
_cell_angle_alpha 90.000000
_cell_angle_beta 90.000000
_cell_angle_gamma 90.000000
_cell_volume 5601.658114
_symmetry_space_group_name_H-M "C M M M"
_symmetry_group_IT_number 65
_symmetry_cell_setting 'orthorhombic'
loop_
_space_group_symop_operation_xyz
x,y,z
-x,-y,z
x,-y,-z
-x,y,-z
-x,-y,-z
x,y,-z
-x,y,z
x,-y,z
1/2+x,1/2+y,z
1/2-x,1/2-y,z
1/2+x,1/2-y,-z
1/2-x,1/2+y,-z
1/2-x,1/2-y,-z
1/2+x,1/2+y,-z
1/2-x,1/2+y,z
1/2+x,1/2-y,z
loop_
_atom_site_type_symbol
_atom_site_label
_atom_site_fract_x
_atom_site_fract_y
_atom_site_fract_z
Si Si1 0.644023 0.049282 0.790501
Si Si2 0.438166 0.124492 0.709819
Si Si3 0.062412 0.149373 0.000000
Si Si4 0.317244 0.386637 0.000000
Si Si5 0.562710 0.722844 0.293021
Si Si6 0.854211 0.300939 0.711439
Si Si7 0.731588 0.551692 0.700716
Si Si8 0.238306 0.698117 0.000000
O O1 0.592975 0.079682 0.744844
O O2 0.702617 0.062896 0.707151
O O3 0.632600 0.000000 0.735089
O O4 0.652849 0.050350 0.000000
O O5 0.442117 0.130481 0.500000
O O6 0.500000 0.126098 0.784069
O O7 0.397579 0.162321 0.771509
O O8 0.066260 0.181147 0.169062
O O9 0.116374 0.119362 0.000000
O O10 0.000000 0.129540 0.000000
O O11 0.298258 0.415413 0.832654
O O12 0.286756 0.338818 0.000000
O O13 0.566230 0.712011 0.500000
O O14 0.500000 0.742397 0.265491
O O15 0.612869 0.755910 0.253423
O O16 0.844356 0.303805 0.500000
O O17 0.799281 0.307743 0.825372
O O18 0.711801 0.555758 0.500000
O O19 0.727256 0.500000 0.752061
O O20 0.250000 0.750000 0.000000
#
# Coordination Sequence:
#
# PCOD9489843 Si02
#       8
#    16  16   8   8  16  16  16   8
#     4  10  20  35  53  75 107 144 184 234 287 338
#     4  10  21  35  51  75 106 143 193 243 286 337
#     4  10  22  39  59  87 118 148 185 227 271 334
#     4  12  23  38  62  88 120 154 190 234 286 348
#     4   9  17  33  57  79 105 149 201 247 285 324
#     4  10  21  37  55  77 110 148 190 242 293 335
#     4  10  21  39  65  93 117 147 191 242 295 350
#     4  12  26  39  54  83 119 157 196 235 286 349
#
# _framework density 18.565932
#
# number of rings (size 3 to 8) (size 9 to 14) (size 15 to 20)
#    0.000    1.846    0.769    3.462    1.077    6.154 
#    0.000    2.308    0.000    0.923    0.000    1.077 
#    0.000    0.000    0.000    0.000    0.000    0.000 
#
# Total GULP energy -290241.034813 kJ/mol
# GULP energy per Si atom -5581.558362 kJ/mol
# Density = 1.852368 g / cm^3
# Si number density = 18.565932 Si / 1000 Ang^3
#
#
#
# Elastic Constant Matrix: (Units=GPa)
#
#
# Indices 1 2 3 4 5 6 
#
# 1 111.2765 52.9406 28.9835 0.0000 0.0000 0.0000
# 2 52.9406 70.7248 20.6410 0.0000 0.0000 0.0000
# 3 28.9835 20.6410 51.5512 0.0000 0.0000 0.0000
# 4 0.0000 0.0000 0.0000 25.8316 0.0000 0.0000
# 5 0.0000 0.0000 0.0000 0.0000 83.3266 0.0000
# 6 0.0000 0.0000 0.0000 0.0000 0.0000 34.1036
#
#
#
# Elastic Compliance Matrix: (Units=1/GPa)
#
#
# Indices 1 2 3 4 5 6 
#
# 1 0.014787 -0.009786 -0.004395 0.000000 0.000000 0.000000
# 2 -0.009786 0.022487 -0.003502 0.000000 0.000000 0.000000
# 3 -0.004395 -0.003502 0.023271 0.000000 0.000000 0.000000
# 4 0.000000 0.000000 0.000000 0.038712 0.000000 0.000000
# 5 0.000000 0.000000 0.000000 0.000000 0.012001 0.000000
# 6 0.000000 0.000000 0.000000 0.000000 0.000000 0.029322
#
#
# Mechanical properties :
#
#
# Convention : Reuss Voigt Hill
#
# Bulk Modulus (GPa) = 39.71558 48.74253 44.22905
# Shear Modulus (GPa) = 27.12372 37.38484 32.25428
#
# Velocity S-wave (km/s) = 3.82637 4.49221 4.17259
# Velocity P-wave (km/s) = 6.39997 7.29502 6.86210
#
# Compressibility (1/GPa) = 0.02517903
#
# Stress axis : x y z
#
# Youngs Moduli (GPa) = 67.62546 44.47092 42.97107
#
# Poissons Ratio (x) = 0.43520 0.18888
# Poissons Ratio (y) = 0.66179 0.15046
# Poissons Ratio (z) = 0.29725 0.15572
#
# Static dielectric constant tensor:
#      x y z
#    x 1.637080 0.000000 0.000000 
#    y 0.000000 1.640470 0.000000 
#    z 0.000000 0.000000 1.662930 
# 
# From -- ./inp_files/12870.got.cif
#   From: 2010.05.17/outbox.cif.g08.bks.cpg/sg65_7_cif.got.tgz:12870.got - 2010.06.03 17:01:31.
