data_PCOD9489664
_publ_section_title
;
Structure prediction by ZEFSAII (Michael W. Deem and Ramdas Pophale) SiO2 
 PCOD9489664
Probable space group: C M M M
;
_chemical_formula_sum "Si O2"
_cell_formula_units_Z 104
_cell_length_a 18.631779
_cell_length_b 14.079457
_cell_length_c 22.956349
_cell_angle_alpha 90.000000
_cell_angle_beta 90.000000
_cell_angle_gamma 90.000000
_cell_volume 6022.031856
_symmetry_space_group_name_H-M "C M M M"
_symmetry_group_IT_number 65
_symmetry_cell_setting 'orthorhombic'
loop_
_space_group_symop_operation_xyz
x,y,z
-x,-y,z
x,-y,-z
-x,y,-z
-x,-y,-z
x,y,-z
-x,y,z
x,-y,z
1/2+x,1/2+y,z
1/2-x,1/2-y,z
1/2+x,1/2-y,-z
1/2-x,1/2+y,-z
1/2-x,1/2-y,-z
1/2+x,1/2+y,-z
1/2-x,1/2+y,z
1/2+x,1/2-y,z
loop_
_atom_site_type_symbol
_atom_site_label
_atom_site_fract_x
_atom_site_fract_y
_atom_site_fract_z
Si Si1 0.308412 0.888070 0.346031
Si Si2 0.500000 0.109032 0.070821
Si Si3 0.914482 0.779190 0.340485
Si Si4 0.318840 0.385829 0.567192
Si Si5 0.708474 0.611367 0.881990
Si Si6 0.184155 0.888113 0.745054
Si Si7 0.851696 0.703135 0.930546
O O1 0.378651 0.824445 0.344725
O O2 0.257070 0.865241 0.401128
O O3 0.256939 0.866427 0.290770
O O4 0.323957 0.000000 0.346293
O O5 0.571836 0.163048 0.088671
O O6 0.500000 0.000000 0.090686
O O7 0.500000 0.107698 0.000000
O O8 0.880923 0.837563 0.394730
O O9 0.879831 0.828413 0.283379
O O10 0.000000 0.779102 0.340063
O O11 0.319334 0.356439 0.500000
O O12 0.327740 0.500000 0.570071
O O13 0.697888 0.500000 0.895453
O O14 0.695857 0.626387 0.813281
O O15 0.788459 0.644370 0.899475
O O16 0.658334 0.686107 0.915643
O O17 0.169600 0.000000 0.734892
O O18 0.843687 0.690123 0.000000
#
# Coordination Sequence:
#
# PCOD9489664 Si02
#       7
#    16   8  16  16  16  16  16
#     4   9  19  35  55  76 102 138 181 220 257 308
#     4   9  18  36  57  77 109 145 174 210 262 323
#     4  11  22  33  52  79 109 144 173 214 271 322
#     4   9  18  34  57  82 105 135 179 226 267 312
#     4  10  20  34  55  81 107 138 180 228 269 314
#     4   9  19  36  56  76  98 134 179 220 262 309
#     4  10  21  34  55  84 110 141 178 219 269 325
#
# _framework density 17.269919000000002
#
# number of rings (size 3 to 8) (size 9 to 14) (size 15 to 20)
#    0.000    2.385    0.000    4.615    4.308    4.923 
#    1.385    1.154    0.000    1.385    0.000    3.231 
#    0.000    0.000    0.000    0.000    0.000    0.000 
#
# Total GULP energy -290143.836097 kJ/mol
# GULP energy per Si atom -5579.689156 kJ/mol
# Density = 1.723061 g / cm^3
# Si number density = 17.269919 Si / 1000 Ang^3
#
#
#
# Elastic Constant Matrix: (Units=GPa)
#
#
# Indices 1 2 3 4 5 6 
#
# 1 143.2414 75.2177 51.6895 0.0000 0.0000 0.0000
# 2 75.2177 115.6761 39.7249 0.0000 0.0000 0.0000
# 3 51.6895 39.7249 75.6870 0.0000 0.0000 0.0000
# 4 0.0000 0.0000 0.0000 17.2224 0.0000 0.0000
# 5 0.0000 0.0000 0.0000 0.0000 8.2947 0.0000
# 6 0.0000 0.0000 0.0000 0.0000 0.0000 11.4866
#
#
#
# Elastic Compliance Matrix: (Units=1/GPa)
#
#
# Indices 1 2 3 4 5 6 
#
# 1 0.011968 -0.006069 -0.004988 0.000000 0.000000 0.000000
# 2 -0.006069 0.013623 -0.003005 0.000000 0.000000 0.000000
# 3 -0.004988 -0.003005 0.018196 0.000000 0.000000 0.000000
# 4 0.000000 0.000000 0.000000 0.058064 0.000000 0.000000
# 5 0.000000 0.000000 0.000000 0.000000 0.120558 0.000000
# 6 0.000000 0.000000 0.000000 0.000000 0.000000 0.087058
#
#
# Mechanical properties :
#
#
# Convention : Reuss Voigt Hill
#
# Bulk Modulus (GPa) = 63.84712 74.20765 69.02738
# Shear Modulus (GPa) = 14.58512 18.59889 16.59200
#
# Velocity S-wave (km/s) = 2.90925 3.28526 3.10295
# Velocity P-wave (km/s) = 6.95236 7.57978 7.27284
#
# Compressibility (1/GPa) = 0.01566241
#
# Stress axis : x y z
#
# Youngs Moduli (GPa) = 83.55437 73.40267 54.95640
#
# Poissons Ratio (x) = 0.44550 0.27412
# Poissons Ratio (y) = 0.50712 0.16517
# Poissons Ratio (z) = 0.41677 0.22061
#
# Static dielectric constant tensor:
#      x y z
#    x 1.548000 0.000000 0.000000 
#    y 0.000000 1.608920 0.000000 
#    z 0.000000 0.000000 1.589100 
# 
# From -- ./inp_files/63814.got.cif
#   From: 2010.05.17/outbox.cif.g08.bks.cpg/sg65_32_cif.got.tgz:63814.got - 2010.06.03 17:01:31.
