data_PCOD9489508
_publ_section_title
;
Structure prediction by ZEFSAII (Michael W. Deem and Ramdas Pophale) SiO2 
 PCOD9489508
Probable space group: C M M M
;
_chemical_formula_sum "Si O2"
_cell_formula_units_Z 104
_cell_length_a 22.833452
_cell_length_b 28.320131
_cell_length_c 7.594636
_cell_angle_alpha 90.000000
_cell_angle_beta 90.000000
_cell_angle_gamma 90.000000
_cell_volume 4911.043663
_symmetry_space_group_name_H-M "C M M M"
_symmetry_group_IT_number 65
_symmetry_cell_setting 'orthorhombic'
loop_
_space_group_symop_operation_xyz
x,y,z
-x,-y,z
x,-y,-z
-x,y,-z
-x,-y,-z
x,y,-z
-x,y,z
x,-y,z
1/2+x,1/2+y,z
1/2-x,1/2-y,z
1/2+x,1/2-y,-z
1/2-x,1/2+y,-z
1/2-x,1/2-y,-z
1/2+x,1/2+y,-z
1/2-x,1/2+y,z
1/2+x,1/2-y,z
loop_
_atom_site_type_symbol
_atom_site_label
_atom_site_fract_x
_atom_site_fract_y
_atom_site_fract_z
Si Si1 0.068190 0.771277 0.207524
Si Si2 0.433828 0.379944 0.288976
Si Si3 0.500000 0.946067 0.291391
Si Si4 0.774863 0.618231 0.216021
Si Si5 0.829754 0.946272 0.792066
Si Si6 0.309842 0.776905 0.784803
Si Si7 0.377010 0.052703 0.208054
O O1 0.082712 0.827077 0.227530
O O2 0.126259 0.743090 0.275449
O O3 0.000000 0.764313 0.276722
O O4 0.064602 0.760474 0.000000
O O5 0.432857 0.378798 0.500000
O O6 0.500000 0.387908 0.227588
O O7 0.392554 0.422260 0.229386
O O8 0.500000 0.949020 0.500000
O O9 0.560209 0.923427 0.233429
O O10 0.500000 0.000000 0.216014
O O11 0.714966 0.593746 0.277046
O O12 0.795498 0.669769 0.270929
O O13 0.824540 0.582544 0.278574
O O14 0.772966 0.620330 0.000000
O O15 0.825006 0.000000 0.720561
O O16 0.817010 0.950320 0.000000
O O17 0.250000 0.750000 0.732171
O O18 0.312077 0.774662 0.000000
O O19 0.379166 0.000000 0.284700
O O20 0.367542 0.048505 0.000000
#
# Coordination Sequence:
#
# PCOD9489508 Si02
#       7
#    16  16   8  16  16  16  16
#     4   9  17  31  52  77 102 130 170 218 260 304
#     4  10  21  36  54  76 103 137 173 209 256 313
#     4   9  17  29  45  65  91 125 163 201 241 285
#     4   9  17  30  49  76 104 131 165 208 256 302
#     4  10  20  34  54  79 106 137 173 213 255 302
#     4   9  16  27  47  75 103 130 163 206 257 306
#     4   9  16  28  47  70  96 127 164 203 244 292
#
# _framework density 21.176760999999999
#
# number of rings (size 3 to 8) (size 9 to 14) (size 15 to 20)
#    0.000    2.692    0.000    2.077    0.000    6.769 
#    1.385    2.308    0.000    6.923    0.000    0.000 
#    0.000    0.000    0.000    0.000    0.000    0.000 
#
# Total GULP energy -289669.987651 kJ/mol
# GULP energy per Si atom -5570.576686 kJ/mol
# Density = 2.112856 g / cm^3
# Si number density = 21.176761 Si / 1000 Ang^3
#
#
#
# Elastic Constant Matrix: (Units=GPa)
#
#
# Indices 1 2 3 4 5 6 
#
# 1 134.5972 81.4282 -4.5687 0.0000 0.0000 0.0000
# 2 81.4282 119.5225 -0.5024 0.0000 0.0000 0.0000
# 3 -4.5687 -0.5024 42.9503 0.0000 0.0000 0.0000
# 4 0.0000 0.0000 0.0000 -13.8714 0.0000 0.0000
# 5 0.0000 0.0000 0.0000 0.0000 36.2820 0.0000
# 6 0.0000 0.0000 0.0000 0.0000 0.0000 6.1517
#
#
#
# Elastic Compliance Matrix: (Units=1/GPa)
#
#
# Indices 1 2 3 4 5 6 
#
# 1 0.012706 -0.008651 0.001250 0.000000 0.000000 0.000000
# 2 -0.008651 0.014257 -0.000753 0.000000 0.000000 0.000000
# 3 0.001250 -0.000753 0.023407 0.000000 0.000000 0.000000
# 4 0.000000 0.000000 0.000000 -0.072091 0.000000 0.000000
# 5 0.000000 0.000000 0.000000 0.000000 0.027562 0.000000
# 6 0.000000 0.000000 0.000000 0.000000 0.000000 0.162557
#
#
# Mechanical properties :
#
#
# Convention : Reuss Voigt Hill
#
# Bulk Modulus (GPa) = 29.35844 49.97602 39.66723
# Shear Modulus (GPa) = 25.50247 20.42664 22.96456
#
# Velocity S-wave (km/s) = 3.47402 3.10914 3.29663
# Velocity P-wave (km/s) = 5.47589 6.04480 5.76737
#
# Compressibility (1/GPa) = 0.03406176
#
# Stress axis : x y z
#
# Youngs Moduli (GPa) = 78.70598 70.14084 42.72242
#
# Poissons Ratio (x) = 0.60677 -0.05342
# Poissons Ratio (y) = 0.68087 0.03219
# Poissons Ratio (z) = -0.09841 0.05285
#
# Static dielectric constant tensor:
#      x y z
#    x 1.839310 0.000000 0.000000 
#    y 0.000000 1.707740 0.000000 
#    z 0.000000 0.000000 1.788780 
# 
# From -- ./inp_files/14781.got.cif
#   From: 2010.05.17/outbox.cif.g08.bks.cpg/sg65_8_cif.got.tgz:14781.got - 2010.06.03 17:01:31.
