data_PCOD9489611
_publ_section_title
;
Structure prediction by ZEFSAII (Michael W. Deem and Ramdas Pophale) SiO2 
 PCOD9489611
Probable space group: C M M M
;
_chemical_formula_sum "Si O2"
_cell_formula_units_Z 80
_cell_length_a 21.352319
_cell_length_b 14.554838
_cell_length_c 12.954722
_cell_angle_alpha 90.000000
_cell_angle_beta 90.000000
_cell_angle_gamma 90.000000
_cell_volume 4026.062595
_symmetry_space_group_name_H-M "C M M M"
_symmetry_group_IT_number 65
_symmetry_cell_setting 'orthorhombic'
loop_
_space_group_symop_operation_xyz
x,y,z
-x,-y,z
x,-y,-z
-x,y,-z
-x,-y,-z
x,y,-z
-x,y,z
x,-y,z
1/2+x,1/2+y,z
1/2-x,1/2-y,z
1/2+x,1/2-y,-z
1/2-x,1/2+y,-z
1/2-x,1/2-y,-z
1/2+x,1/2+y,-z
1/2-x,1/2+y,z
1/2+x,1/2-y,z
loop_
_atom_site_type_symbol
_atom_site_label
_atom_site_fract_x
_atom_site_fract_y
_atom_site_fract_z
Si Si1 0.729211 0.605847 0.327704
Si Si2 0.595353 0.389878 0.386950
Si Si3 0.368331 0.111026 0.620588
Si Si4 0.309014 0.318562 0.885992
Si Si5 0.568941 0.244793 0.220559
O O1 0.734510 0.500000 0.358291
O O2 0.668212 0.641150 0.385960
O O3 0.797419 0.644628 0.352334
O O4 0.709639 0.614953 0.207992
O O5 0.569517 0.369736 0.500000
O O6 0.592413 0.500000 0.371266
O O7 0.566256 0.334496 0.293805
O O8 0.381660 0.130727 0.500000
O O9 0.412901 0.162492 0.701216
O O10 0.371741 0.000000 0.633880
O O11 0.250000 0.250000 0.889037
O O12 0.372907 0.264912 0.855715
O O13 0.315977 0.360350 0.000000
O O14 0.500000 0.229954 0.173908
#
# Coordination Sequence:
#
# PCOD9489611 Si02
#       5
#    16  16  16  16  16
#     4   9  17  32  54  82 111 139 177 228 281 327
#     4   9  18  32  52  79 111 146 183 224 270 325
#     4  10  20  34  54  81 114 151 189 227 269 322
#     4  10  20  37  59  81 103 134 181 231 279 329
#     4  11  23  37  54  80 113 149 186 226 276 327
#
# _framework density 19.870531
#
# number of rings (size 3 to 8) (size 9 to 14) (size 15 to 20)
#    0.000    2.200    2.000    1.200    0.000    5.600 
#    0.000    5.000    0.000    0.600    0.000    7.000 
#    0.000    0.000    0.000    0.000    0.000    0.000 
#
# Total GULP energy -222988.639708 kJ/mol
# GULP energy per Si atom -5574.715993 kJ/mol
# Density = 1.982530 g / cm^3
# Si number density = 19.870531 Si / 1000 Ang^3
#
#
#
# Elastic Constant Matrix: (Units=GPa)
#
#
# Indices 1 2 3 4 5 6 
#
# 1 123.8218 16.2781 4.3885 0.0000 0.0000 0.0000
# 2 16.2781 48.0320 5.5494 0.0000 0.0000 0.0000
# 3 4.3885 5.5494 81.8260 0.0000 0.0000 0.0000
# 4 0.0000 0.0000 0.0000 18.7523 0.0000 0.0000
# 5 0.0000 0.0000 0.0000 0.0000 -2.0016 0.0000
# 6 0.0000 0.0000 0.0000 0.0000 0.0000 11.9592
#
#
#
# Elastic Compliance Matrix: (Units=1/GPa)
#
#
# Indices 1 2 3 4 5 6 
#
# 1 0.008458 -0.002836 -0.000261 0.000000 0.000000 0.000000
# 2 -0.002836 0.021935 -0.001336 0.000000 0.000000 0.000000
# 3 -0.000261 -0.001336 0.012326 0.000000 0.000000 0.000000
# 4 0.000000 0.000000 0.000000 0.053327 0.000000 0.000000
# 5 0.000000 0.000000 0.000000 0.000000 -0.499592 0.000000
# 6 0.000000 0.000000 0.000000 0.000000 0.000000 0.083617
#
#
# Mechanical properties :
#
#
# Convention : Reuss Voigt Hill
#
# Bulk Modulus (GPa) = 29.53975 34.01240 31.77608
# Shear Modulus (GPa) = -16.67901 20.90623 2.11361
#
# Velocity S-wave (km/s) = -2.90036 3.24716 1.03247
# Velocity P-wave (km/s) = 1.91893 5.58685 4.17703
#
# Compressibility (1/GPa) = 0.03385269
#
# Stress axis : x y z
#
# Youngs Moduli (GPa) = 118.22770 45.58930 81.13166
#
# Poissons Ratio (x) = 0.12931 0.02120
# Poissons Ratio (y) = 0.33533 0.10835
# Poissons Ratio (z) = 0.03089 0.06088
#
# Static dielectric constant tensor:
#      x y z
#    x 1.761430 0.000000 0.000000 
#    y 0.000000 1.705020 0.000000 
#    z 0.000000 0.000000 1.694020 
# 
# From -- ./inp_files/24621.got.cif
#   From: 2010.05.17/outbox.cif.g08.bks.cpg/sg65_13_cif.got.tgz:24621.got - 2010.06.03 17:01:31.
