data_PCOD9489095
_publ_section_title
;
Structure prediction by ZEFSAII (Michael W. Deem and Ramdas Pophale) SiO2 
 PCOD9489095
Probable space group: C M M M
;
_chemical_formula_sum "Si O2"
_cell_formula_units_Z 104
_cell_length_a 22.572148
_cell_length_b 34.750374
_cell_length_c 7.630438
_cell_angle_alpha 90.000000
_cell_angle_beta 90.000000
_cell_angle_gamma 90.000000
_cell_volume 5985.243726
_symmetry_space_group_name_H-M "C M M M"
_symmetry_group_IT_number 65
_symmetry_cell_setting 'orthorhombic'
loop_
_space_group_symop_operation_xyz
x,y,z
-x,-y,z
x,-y,-z
-x,y,-z
-x,-y,-z
x,y,-z
-x,y,z
x,-y,z
1/2+x,1/2+y,z
1/2-x,1/2-y,z
1/2+x,1/2-y,-z
1/2-x,1/2+y,-z
1/2-x,1/2-y,-z
1/2+x,1/2+y,-z
1/2-x,1/2+y,z
1/2+x,1/2-y,z
loop_
_atom_site_type_symbol
_atom_site_label
_atom_site_fract_x
_atom_site_fract_y
_atom_site_fract_z
Si Si1 0.345385 0.456896 0.711856
Si Si2 0.000000 0.456728 0.287346
Si Si3 0.894133 0.598998 0.701380
Si Si4 0.927984 0.745930 0.000000
Si Si5 0.568061 0.610434 0.714187
Si Si6 0.207473 0.543387 0.792816
Si Si7 0.072178 0.343524 0.000000
Si Si8 0.927883 0.803608 0.700510
O O1 0.347678 0.456809 0.500000
O O2 0.362328 0.500000 0.771281
O O3 0.388909 0.423419 0.774374
O O4 0.277270 0.450513 0.763785
O O5 0.942348 0.432644 0.237665
O O6 0.000000 0.500000 0.219265
O O7 0.000000 0.458765 0.500000
O O8 0.907017 0.609677 0.500000
O O9 0.831884 0.576821 0.710611
O O10 0.901925 0.634656 0.830718
O O11 0.908368 0.770032 0.169940
O O12 0.911345 0.701373 0.000000
O O13 0.000000 0.746623 0.000000
O O14 0.567551 0.610479 0.500000
O O15 0.500000 0.604564 0.770511
O O16 0.588344 0.653443 0.764021
O O17 0.193061 0.500000 0.725930
O O18 0.195668 0.543725 0.000000
O O19 0.000000 0.346776 0.000000
O O20 0.908128 0.798114 0.500000
O O21 0.000000 0.803749 0.698196
#
# Coordination Sequence:
#
# PCOD9489095 Si02
#       8
#    16   8  16   8  16  16   8  16
#     4   9  17  29  46  71 102 136 174 212 251 296
#     4   9  18  31  49  73  98 127 165 202 241 297
#     4  11  21  35  53  73 100 134 169 208 257 301
#     4   9  18  30  48  71  99 131 164 197 243 310
#     4   8  14  26  46  72 104 137 169 209 252 296
#     4  10  20  34  51  70  96 132 176 220 254 288
#     4  11  22  36  50  75 108 134 162 201 253 316
#     4   8  14  27  46  70  98 128 165 206 246 291
#
# _framework density 17.376068
#
# number of rings (size 3 to 8) (size 9 to 14) (size 15 to 20)
#    0.000    2.692    1.538    1.846    0.000    2.462 
#    1.385    3.462    0.000    0.000    0.000    4.308 
#    0.000    4.923    0.000    0.000    0.000    0.000 
#
# Total GULP energy -289944.686611 kJ/mol
# GULP energy per Si atom -5575.859358 kJ/mol
# Density = 1.733652 g / cm^3
# Si number density = 17.376068 Si / 1000 Ang^3
#
#
#
# Elastic Constant Matrix: (Units=GPa)
#
#
# Indices 1 2 3 4 5 6 
#
# 1 46.5030 59.5087 17.7908 0.0000 0.0000 0.0000
# 2 59.5087 174.0804 60.4394 0.0000 0.0000 0.0000
# 3 17.7908 60.4394 79.2567 0.0000 0.0000 0.0000
# 4 0.0000 0.0000 0.0000 0.6898 0.0000 0.0000
# 5 0.0000 0.0000 0.0000 0.0000 6.8863 0.0000
# 6 0.0000 0.0000 0.0000 0.0000 0.0000 9.5093
#
#
#
# Elastic Compliance Matrix: (Units=1/GPa)
#
#
# Indices 1 2 3 4 5 6 
#
# 1 0.038434 -0.013796 0.001893 0.000000 0.000000 0.000000
# 2 -0.013796 0.012765 -0.006638 0.000000 0.000000 0.000000
# 3 0.001893 -0.006638 0.017254 0.000000 0.000000 0.000000
# 4 0.000000 0.000000 0.000000 1.449791 0.000000 0.000000
# 5 0.000000 0.000000 0.000000 0.000000 0.145216 0.000000
# 6 0.000000 0.000000 0.000000 0.000000 0.000000 0.105161
#
#
# Mechanical properties :
#
#
# Convention : Reuss Voigt Hill
#
# Bulk Modulus (GPa) = 31.87522 63.92420 47.89971
# Shear Modulus (GPa) = 2.75306 14.22381 8.48843
#
# Velocity S-wave (km/s) = 1.26009 2.86420 2.21263
# Velocity P-wave (km/s) = 4.52783 6.91424 5.84414
#
# Compressibility (1/GPa) = 0.03137233
#
# Stress axis : x y z
#
# Youngs Moduli (GPa) = 26.01874 78.33918 57.95769
#
# Poissons Ratio (x) = 1.08075 -0.10972
# Poissons Ratio (y) = 0.35895 0.38470
# Poissons Ratio (z) = -0.04926 0.51998
#
# Static dielectric constant tensor:
#      x y z
#    x 1.569160 0.000000 0.000000 
#    y 0.000000 1.584310 0.000000 
#    z 0.000000 0.000000 1.634110 
# 
# From -- ./inp_files/15095.got.cif
#   From: 2010.05.17/outbox.cif.g08.bks.cpg/sg65_8_cif.got.tgz:15095.got - 2010.06.03 17:01:31.
