data_PCOD9489332
_publ_section_title
;
Structure prediction by ZEFSAII (Michael W. Deem and Ramdas Pophale) SiO2 
 PCOD9489332
Probable space group: C M M M
;
_chemical_formula_sum "Si O2"
_cell_formula_units_Z 64
_cell_length_a 8.491658
_cell_length_b 14.295975
_cell_length_c 22.491027
_cell_angle_alpha 90.000000
_cell_angle_beta 90.000000
_cell_angle_gamma 90.000000
_cell_volume 2730.332645
_symmetry_space_group_name_H-M "C M M M"
_symmetry_group_IT_number 65
_symmetry_cell_setting 'orthorhombic'
loop_
_space_group_symop_operation_xyz
x,y,z
-x,-y,z
x,-y,-z
-x,y,-z
-x,-y,-z
x,y,-z
-x,y,z
x,-y,z
1/2+x,1/2+y,z
1/2-x,1/2-y,z
1/2+x,1/2-y,-z
1/2-x,1/2+y,-z
1/2-x,1/2-y,-z
1/2+x,1/2+y,-z
1/2-x,1/2+y,z
1/2+x,1/2-y,z
loop_
_atom_site_type_symbol
_atom_site_label
_atom_site_fract_x
_atom_site_fract_y
_atom_site_fract_z
Si Si1 0.674257 0.885833 0.632084
Si Si2 0.826528 0.608726 0.127229
Si Si3 0.686160 0.645976 0.000000
Si Si4 0.000000 0.114290 0.569185
Si Si5 0.175856 0.885958 0.247545
O O1 0.500000 0.854547 0.611569
O O2 0.701804 0.860085 0.701156
O O3 0.834115 0.855089 0.598629
O O4 0.672985 0.000000 0.628261
O O5 0.845820 0.500000 0.142355
O O6 0.723980 0.645810 0.181709
O O7 0.000000 0.653317 0.124110
O O8 0.750352 0.608538 0.062342
O O9 0.750000 0.750000 0.000000
O O10 0.500000 0.638344 0.000000
O O11 0.000000 0.139141 0.500000
O O12 0.000000 0.000000 0.574090
O O13 0.000000 0.853793 0.262552
O O14 0.170032 0.000000 0.248270
#
# Coordination Sequence:
#
# PCOD9489332 Si02
#       5
#    16  16   8   8  16
#     4   9  15  23  35  51  74 106 144 190 240 283
#     4  10  20  34  53  77 101 125 160 208 254 297
#     4  12  25  40  55  71  97 133 167 202 247 310
#     4   9  16  24  32  46  72 107 149 191 229 282
#     4   9  15  25  42  64  88 113 146 194 245 288
#
# _framework density 23.440366999999998
#
# number of rings (size 3 to 8) (size 9 to 14) (size 15 to 20)
#    0.000    2.375    1.250    3.000    0.000    6.500 
#    0.000    2.500    0.000    0.000    0.000    0.000 
#    0.000    0.000    0.000    0.000    0.000    1.250 
#
# Total GULP energy -178706.288152 kJ/mol
# GULP energy per Si atom -5584.571505 kJ/mol
# Density = 2.338702 g / cm^3
# Si number density = 23.440367 Si / 1000 Ang^3
#
#
#
# Elastic Constant Matrix: (Units=GPa)
#
#
# Indices 1 2 3 4 5 6 
#
# 1 220.0669 4.9521 84.5576 0.0000 0.0000 0.0000
# 2 4.9521 56.5801 -9.2910 0.0000 0.0000 0.0000
# 3 84.5576 -9.2910 136.2568 0.0000 0.0000 0.0000
# 4 0.0000 0.0000 0.0000 -91.2171 0.0000 0.0000
# 5 0.0000 0.0000 0.0000 0.0000 23.3261 0.0000
# 6 0.0000 0.0000 0.0000 0.0000 0.0000 17.3378
#
#
#
# Elastic Compliance Matrix: (Units=1/GPa)
#
#
# Indices 1 2 3 4 5 6 
#
# 1 0.006041 -0.001157 -0.003828 0.000000 0.000000 0.000000
# 2 -0.001157 0.018096 0.001952 0.000000 0.000000 0.000000
# 3 -0.003828 0.001952 0.009848 0.000000 0.000000 0.000000
# 4 0.000000 0.000000 0.000000 -0.010963 0.000000 0.000000
# 5 0.000000 0.000000 0.000000 0.000000 0.042870 0.000000
# 6 0.000000 0.000000 0.000000 0.000000 0.000000 0.057677
#
#
# Mechanical properties :
#
#
# Convention : Reuss Voigt Hill
#
# Bulk Modulus (GPa) = 35.81852 63.70459 49.76156
# Shear Modulus (GPa) = 35.98643 12.06839 24.02741
#
# Velocity S-wave (km/s) = 3.92246 2.27150 3.20510
# Velocity P-wave (km/s) = 5.98566 5.84088 5.91371
#
# Compressibility (1/GPa) = 0.02791852
#
# Stress axis : x y z
#
# Youngs Moduli (GPa) = 165.53929 55.26116 101.54779
#
# Poissons Ratio (x) = 0.06395 0.38870
# Poissons Ratio (y) = 0.19157 -0.19823
# Poissons Ratio (z) = 0.63364 -0.10787
#
# Static dielectric constant tensor:
#      x y z
#    x 1.867180 0.000000 0.000000 
#    y 0.000000 1.933070 0.000000 
#    z 0.000000 0.000000 1.898670 
# 
# From -- ./inp_files/58800.got.cif
#   From: 2010.05.17/outbox.cif.g08.bks.cpg/sg65_30_cif.got.tgz:58800.got - 2010.06.03 17:01:31.
