data_PCOD9489741
_publ_section_title
;
Structure prediction by ZEFSAII (Michael W. Deem and Ramdas Pophale) SiO2 
 PCOD9489741
Probable space group: C M M M
;
_chemical_formula_sum "Si O2"
_cell_formula_units_Z 88
_cell_length_a 28.017758
_cell_length_b 19.909171
_cell_length_c 8.123110
_cell_angle_alpha 90.000000
_cell_angle_beta 90.000000
_cell_angle_gamma 90.000000
_cell_volume 4531.154711
_symmetry_space_group_name_H-M "C M M M"
_symmetry_group_IT_number 65
_symmetry_cell_setting 'orthorhombic'
loop_
_space_group_symop_operation_xyz
x,y,z
-x,-y,z
x,-y,-z
-x,y,-z
-x,-y,-z
x,y,-z
-x,y,z
x,-y,z
1/2+x,1/2+y,z
1/2-x,1/2-y,z
1/2+x,1/2-y,-z
1/2-x,1/2+y,-z
1/2-x,1/2-y,-z
1/2+x,1/2+y,-z
1/2-x,1/2+y,z
1/2+x,1/2-y,z
loop_
_atom_site_type_symbol
_atom_site_label
_atom_site_fract_x
_atom_site_fract_y
_atom_site_fract_z
Si Si1 0.055202 0.926179 0.799166
Si Si2 0.272545 0.679583 0.801173
Si Si3 0.307729 0.076622 0.698471
Si Si4 0.096653 0.652299 0.696703
Si Si5 0.380998 0.303296 0.800653
Si Si6 0.000000 0.577165 0.196521
O O1 0.085047 0.862931 0.740655
O O2 0.000000 0.920425 0.750564
O O3 0.073147 0.000000 0.747827
O O4 0.056307 0.925378 0.000000
O O5 0.250000 0.750000 0.745381
O O6 0.238721 0.619358 0.745233
O O7 0.327227 0.680445 0.744700
O O8 0.272677 0.678994 0.000000
O O9 0.310314 0.075104 0.500000
O O10 0.356049 0.113192 0.759388
O O11 0.305420 0.000000 0.758402
O O12 0.097547 0.649712 0.500000
O O13 0.101507 0.729788 0.748876
O O14 0.047844 0.616669 0.751930
O O15 0.380898 0.303870 0.000000
O O16 0.000000 0.500000 0.261062
O O17 0.000000 0.573903 0.000000
#
# Coordination Sequence:
#
# PCOD9489741 Si02
#       6
#    16  16  16  16  16   8
#     4   8  15  29  50  77 107 140 181 229 280 333
#     4  10  20  35  54  81 116 148 185 236 288 335
#     4  10  22  39  59  83 112 151 197 238 283 346
#     4  11  23  39  60  86 118 154 191 236 290 346
#     4  10  20  34  56  85 116 149 192 240 285 341
#     4  11  25  43  63  87 116 151 192 239 289 344
#
# _framework density 19.421098000000001
#
# number of rings (size 3 to 8) (size 9 to 14) (size 15 to 20)
#    0.000    2.091    1.818    1.909    1.273    4.364 
#    0.000    1.818    0.000    0.545    0.000    1.273 
#    0.000    0.000    0.000    0.000    0.000    0.000 
#
# Total GULP energy -245633.231746 kJ/mol
# GULP energy per Si atom -5582.573449 kJ/mol
# Density = 1.937689 g / cm^3
# Si number density = 19.421098 Si / 1000 Ang^3
#
#
#
# Elastic Constant Matrix: (Units=GPa)
#
#
# Indices 1 2 3 4 5 6 
#
# 1 161.9785 130.8373 15.9247 0.0000 0.0000 0.0000
# 2 130.8373 234.5508 16.5430 0.0000 0.0000 0.0000
# 3 15.9247 16.5430 16.6126 0.0000 0.0000 0.0000
# 4 0.0000 0.0000 0.0000 16.3876 0.0000 0.0000
# 5 0.0000 0.0000 0.0000 0.0000 35.6944 0.0000
# 6 0.0000 0.0000 0.0000 0.0000 0.0000 41.0991
#
#
#
# Elastic Compliance Matrix: (Units=1/GPa)
#
#
# Indices 1 2 3 4 5 6 
#
# 1 0.011616 -0.006124 -0.005036 0.000000 0.000000 0.000000
# 2 -0.006124 0.007814 -0.001911 0.000000 0.000000 0.000000
# 3 -0.005036 -0.001911 0.066926 0.000000 0.000000 0.000000
# 4 0.000000 0.000000 0.000000 0.061022 0.000000 0.000000
# 5 0.000000 0.000000 0.000000 0.000000 0.028016 0.000000
# 6 0.000000 0.000000 0.000000 0.000000 0.000000 0.024331
#
#
# Mechanical properties :
#
#
# Convention : Reuss Voigt Hill
#
# Bulk Modulus (GPa) = 16.60761 82.19466 49.40113
# Shear Modulus (GPa) = 20.33027 35.29203 27.81115
#
# Velocity S-wave (km/s) = 3.23896 4.26749 3.78829
# Velocity P-wave (km/s) = 4.74950 8.16677 6.68034
#
# Compressibility (1/GPa) = 0.06021336
#
# Stress axis : x y z
#
# Youngs Moduli (GPa) = 86.09130 127.96772 14.94185
#
# Poissons Ratio (x) = 0.78370 0.07525
# Poissons Ratio (y) = 0.52724 0.02856
# Poissons Ratio (z) = 0.43356 0.24456
#
# Static dielectric constant tensor:
#      x y z
#    x 1.681000 0.000000 0.000000 
#    y 0.000000 1.660100 0.000000 
#    z 0.000000 0.000000 1.690770 
# 
# From -- ./inp_files/13989.got.cif
#   From: 2010.05.17/outbox.cif.g08.bks.cpg/sg65_7_cif.got.tgz:13989.got - 2010.06.03 17:01:31.
