data_PCOD9489743
_publ_section_title
;
Structure prediction by ZEFSAII (Michael W. Deem and Ramdas Pophale) SiO2 
 PCOD9489743
Probable space group: C M M M
;
_chemical_formula_sum "Si O2"
_cell_formula_units_Z 76
_cell_length_a 10.717485
_cell_length_b 29.864757
_cell_length_c 12.710473
_cell_angle_alpha 90.000000
_cell_angle_beta 90.000000
_cell_angle_gamma 90.000000
_cell_volume 4068.305728
_symmetry_space_group_name_H-M "C M M M"
_symmetry_group_IT_number 65
_symmetry_cell_setting 'orthorhombic'
loop_
_space_group_symop_operation_xyz
x,y,z
-x,-y,z
x,-y,-z
-x,y,-z
-x,-y,-z
x,y,-z
-x,y,z
x,-y,z
1/2+x,1/2+y,z
1/2-x,1/2-y,z
1/2+x,1/2-y,-z
1/2-x,1/2+y,-z
1/2-x,1/2-y,-z
1/2+x,1/2+y,-z
1/2-x,1/2+y,z
1/2+x,1/2-y,z
loop_
_atom_site_type_symbol
_atom_site_label
_atom_site_fract_x
_atom_site_fract_y
_atom_site_fract_z
Si Si1 0.262498 0.500000 0.000000
Si Si2 0.750000 0.250000 0.268188
Si Si3 0.500000 0.216314 0.625857
Si Si4 0.356372 0.430666 0.832752
Si Si5 0.648430 0.326345 0.122006
Si Si6 0.500000 0.886537 0.373007
Si Si7 0.266851 0.948284 0.621768
O O1 0.272166 0.538901 0.092583
O O2 0.625707 0.240159 0.334753
O O3 0.723111 0.292958 0.195843
O O4 0.500000 0.215873 0.500000
O O5 0.500000 0.164510 0.664745
O O6 0.500000 0.439925 0.864452
O O7 0.331520 0.378278 0.850133
O O8 0.337453 0.442303 0.710369
O O9 0.500000 0.317665 0.134657
O O10 0.680363 0.319157 0.000000
O O11 0.500000 0.884886 0.500000
O O12 0.622332 0.914897 0.345292
O O13 0.230142 0.938770 0.500000
O O14 0.309965 0.000000 0.624021
#
# Coordination Sequence:
#
# PCOD9489743 Si02
#       7
#     4   8   8  16  16   8  16
#     4  12  21  36  58  85 112 163 206 236 287 362
#     4  12  22  42  64  92 122 160 202 254 316 364
#     4  11  24  41  65  90 122 160 206 253 306 374
#     4  11  21  35  58  85 119 157 198 245 298 356
#     4  10  21  38  60  88 120 158 204 256 309 364
#     4   9  19  38  59  81 111 155 199 237 284 355
#     4  10  20  34  56  85 117 155 198 244 293 347
#
# _framework density 18.680994999999999
#
# number of rings (size 3 to 8) (size 9 to 14) (size 15 to 20)
#    0.000    1.474    3.158    3.158    0.000    1.684 
#    0.000    2.105    0.000    1.263    0.000    0.000 
#    0.000    0.000    0.000    0.000    0.000    0.000 
#
# Total GULP energy -211583.407086 kJ/mol
# GULP energy per Si atom -5567.984397 kJ/mol
# Density = 1.863848 g / cm^3
# Si number density = 18.680995 Si / 1000 Ang^3
#
#
#
# Elastic Constant Matrix: (Units=GPa)
#
#
# Indices 1 2 3 4 5 6 
#
# 1 63.7992 35.2153 34.7257 0.0000 0.0000 0.0000
# 2 35.2153 97.3224 35.9188 0.0000 0.0000 0.0000
# 3 34.7257 35.9188 113.5234 0.0000 0.0000 0.0000
# 4 0.0000 0.0000 0.0000 45.0125 0.0000 0.0000
# 5 0.0000 0.0000 0.0000 0.0000 2.1147 0.0000
# 6 0.0000 0.0000 0.0000 0.0000 0.0000 -32.3149
#
#
#
# Elastic Compliance Matrix: (Units=1/GPa)
#
#
# Indices 1 2 3 4 5 6 
#
# 1 0.021576 -0.006081 -0.004676 0.000000 0.000000 0.000000
# 2 -0.006081 0.013348 -0.002363 0.000000 0.000000 0.000000
# 3 -0.004676 -0.002363 0.010987 0.000000 0.000000 0.000000
# 4 0.000000 0.000000 0.000000 0.022216 0.000000 0.000000
# 5 0.000000 0.000000 0.000000 0.000000 0.472875 0.000000
# 6 0.000000 0.000000 0.000000 0.000000 0.000000 -0.030945
#
#
# Mechanical properties :
#
#
# Convention : Reuss Voigt Hill
#
# Bulk Modulus (GPa) = 50.83851 54.04050 52.43950
# Shear Modulus (GPa) = 9.21059 14.21482 11.71271
#
# Velocity S-wave (km/s) = 2.22287 2.76148 2.50668
# Velocity P-wave (km/s) = 5.81905 6.25768 6.04235
#
# Compressibility (1/GPa) = 0.01967013
#
# Stress axis : x y z
#
# Youngs Moduli (GPa) = 46.34799 74.91909 91.01950
#
# Poissons Ratio (x) = 0.45561 0.42558
# Poissons Ratio (y) = 0.28186 0.21508
# Poissons Ratio (z) = 0.21671 0.17703
#
# Static dielectric constant tensor:
#      x y z
#    x 1.652770 0.000000 0.000000 
#    y 0.000000 1.639130 0.000000 
#    z 0.000000 0.000000 1.631560 
# 
# From -- ./inp_files/22933.got.cif
#   From: 2010.05.17/outbox.cif.g08.bks.cpg/sg65_12_cif.got.tgz:22933.got - 2010.06.03 17:01:31.
