data_PCOD9489083
_publ_section_title
;
Structure prediction by ZEFSAII (Michael W. Deem and Ramdas Pophale) SiO2 
 PCOD9489083
Probable space group: C M M M
;
_chemical_formula_sum "Si O2"
_cell_formula_units_Z 88
_cell_length_a 27.474226
_cell_length_b 9.205383
_cell_length_c 21.876209
_cell_angle_alpha 90.000000
_cell_angle_beta 90.000000
_cell_angle_gamma 90.000000
_cell_volume 5532.728928
_symmetry_space_group_name_H-M "C M M M"
_symmetry_group_IT_number 65
_symmetry_cell_setting 'orthorhombic'
loop_
_space_group_symop_operation_xyz
x,y,z
-x,-y,z
x,-y,-z
-x,y,-z
-x,-y,-z
x,y,-z
-x,y,z
x,-y,z
1/2+x,1/2+y,z
1/2-x,1/2-y,z
1/2+x,1/2-y,-z
1/2-x,1/2+y,-z
1/2-x,1/2-y,-z
1/2+x,1/2+y,-z
1/2-x,1/2+y,z
1/2+x,1/2-y,z
loop_
_atom_site_type_symbol
_atom_site_label
_atom_site_fract_x
_atom_site_fract_y
_atom_site_fract_z
Si Si1 0.598462 0.326471 0.746098
Si Si2 0.054134 0.325868 0.630039
Si Si3 0.442115 0.326874 0.876541
Si Si4 0.155507 0.325645 0.430095
Si Si5 0.701212 0.327299 0.314794
Si Si6 0.559215 0.167521 0.000000
O O1 0.589900 0.500000 0.741644
O O2 0.566338 0.247520 0.694814
O O3 0.584611 0.280797 0.814450
O O4 0.654554 0.299229 0.728279
O O5 0.054721 0.500000 0.637558
O O6 0.098891 0.290571 0.585085
O O7 0.000000 0.283458 0.608988
O O8 0.500000 0.300347 0.868585
O O9 0.435765 0.500000 0.884427
O O10 0.425230 0.246659 0.937807
O O11 0.166975 0.289003 0.500000
O O12 0.161701 0.500000 0.422106
O O13 0.187186 0.240706 0.380525
O O14 0.707987 0.500000 0.319887
O O15 0.750000 0.250000 0.292549
O O16 0.500000 0.173765 0.000000
O O17 0.573841 0.000000 0.000000
#
# Coordination Sequence:
#
# PCOD9489083 Si02
#       6
#    16  16  16  16  16   8
#     4   9  18  31  47  67  89 116 151 187 222 264
#     4   9  17  28  43  65  92 120 149 182 220 261
#     4   9  16  27  44  65  91 123 154 180 209 249
#     4   9  18  32  48  66  89 117 149 183 220 266
#     4  10  20  34  51  69  89 112 142 184 232 277
#     4   9  17  27  39  61  94 127 156 183 210 243
#
# _framework density 15.905352000000001
#
# number of rings (size 3 to 8) (size 9 to 14) (size 15 to 20)
#    0.000    2.818    0.000    1.364    0.000    4.727 
#    0.000    3.636    0.000    0.000    0.000    5.727 
#    0.000    0.000    0.000    0.000    0.000    0.000 
#
# Total GULP energy -245230.494363 kJ/mol
# GULP energy per Si atom -5573.420326 kJ/mol
# Density = 1.586915 g / cm^3
# Si number density = 15.905352 Si / 1000 Ang^3
#
#
#
# Elastic Constant Matrix: (Units=GPa)
#
#
# Indices 1 2 3 4 5 6 
#
# 1 44.8501 22.5852 6.5822 0.0000 0.0000 0.0000
# 2 22.5852 29.7634 32.6276 0.0000 0.0000 0.0000
# 3 6.5822 32.6276 98.7309 0.0000 0.0000 0.0000
# 4 0.0000 0.0000 0.0000 22.6553 0.0000 0.0000
# 5 0.0000 0.0000 0.0000 0.0000 8.9338 0.0000
# 6 0.0000 0.0000 0.0000 0.0000 0.0000 19.3646
#
#
#
# Elastic Compliance Matrix: (Units=1/GPa)
#
#
# Indices 1 2 3 4 5 6 
#
# 1 0.044514 -0.047866 0.012850 0.000000 0.000000 0.000000
# 2 -0.047866 0.104153 -0.031228 0.000000 0.000000 0.000000
# 3 0.012850 -0.031228 0.019592 0.000000 0.000000 0.000000
# 4 0.000000 0.000000 0.000000 0.044140 0.000000 0.000000
# 5 0.000000 0.000000 0.000000 0.000000 0.111934 0.000000
# 6 0.000000 0.000000 0.000000 0.000000 0.000000 0.051641
#
#
# Mechanical properties :
#
#
# Convention : Reuss Voigt Hill
#
# Bulk Modulus (GPa) = 27.95447 32.99272 30.47359
# Shear Modulus (GPa) = 9.60826 17.62736 13.61781
#
# Velocity S-wave (km/s) = 2.46049 3.33267 2.92923
# Velocity P-wave (km/s) = 5.06810 5.96633 5.53547
#
# Compressibility (1/GPa) = 0.03577245
#
# Stress axis : x y z
#
# Youngs Moduli (GPa) = 22.46473 9.60121 51.04159
#
# Poissons Ratio (x) = 0.45957 -0.65591
# Poissons Ratio (y) = 1.07529 1.59395
# Poissons Ratio (z) = -0.28868 0.29983
#
# Static dielectric constant tensor:
#      x y z
#    x 1.538200 0.000000 0.000000 
#    y 0.000000 1.528200 0.000000 
#    z 0.000000 0.000000 1.510670 
# 
# From -- ./inp_files/60150.got.cif
#   From: 2010.05.17/outbox.cif.g08.bks.cpg/sg65_31_cif.got.tgz:60150.got - 2010.06.03 17:01:31.
