data_PCOD9489481
_publ_section_title
;
Structure prediction by ZEFSAII (Michael W. Deem and Ramdas Pophale) SiO2 
 PCOD9489481
Probable space group: C M M M
;
_chemical_formula_sum "Si O2"
_cell_formula_units_Z 104
_cell_length_a 14.040928
_cell_length_b 15.878190
_cell_length_c 23.990679
_cell_angle_alpha 90.000000
_cell_angle_beta 90.000000
_cell_angle_gamma 90.000000
_cell_volume 5348.590476
_symmetry_space_group_name_H-M "C M M M"
_symmetry_group_IT_number 65
_symmetry_cell_setting 'orthorhombic'
loop_
_space_group_symop_operation_xyz
x,y,z
-x,-y,z
x,-y,-z
-x,y,-z
-x,-y,-z
x,y,-z
-x,y,z
x,-y,z
1/2+x,1/2+y,z
1/2-x,1/2-y,z
1/2+x,1/2-y,-z
1/2-x,1/2+y,-z
1/2-x,1/2-y,-z
1/2+x,1/2+y,-z
1/2-x,1/2+y,z
1/2+x,1/2-y,z
loop_
_atom_site_type_symbol
_atom_site_label
_atom_site_fract_x
_atom_site_fract_y
_atom_site_fract_z
Si Si1 0.892910 0.899064 0.839110
Si Si2 0.892176 0.871104 0.358641
Si Si3 0.241465 0.094851 0.257460
Si Si4 0.388555 0.000000 0.067636
Si Si5 0.225389 0.599945 0.437619
Si Si6 0.241187 0.149360 0.933474
Si Si7 0.607600 0.826889 0.664882
O O1 0.815788 0.867040 0.794370
O O2 0.851171 0.880587 0.899722
O O3 0.000000 0.866218 0.830696
O O4 0.896396 0.000000 0.830889
O O5 0.834224 0.911384 0.307942
O O6 0.831386 0.883687 0.414466
O O7 0.892772 0.772767 0.343341
O O8 0.000000 0.900846 0.363125
O O9 0.327846 0.147497 0.282806
O O10 0.274469 0.000000 0.243622
O O11 0.327788 0.084743 0.083383
O O12 0.500000 0.000000 0.086647
O O13 0.391819 0.000000 0.000000
O O14 0.211311 0.633759 0.500000
O O15 0.210886 0.500000 0.438777
O O16 0.155701 0.636915 0.391014
O O17 0.250000 0.250000 0.922227
O O18 0.230547 0.139952 0.000000
O O19 0.500000 0.857786 0.671029
#
# Coordination Sequence:
#
# PCOD9489481 Si02
#       7
#    16  16  16   8  16  16  16
#     4  10  21  37  58  84 116 151 189 237 293 349
#     4  10  20  34  54  78 104 138 178 220 273 332
#     4  10  20  35  56  79 108 142 181 225 275 332
#     4   9  18  36  59  81 117 165 204 244 296 357
#     4  10  21  35  52  76 105 138 176 222 273 326
#     4  10  21  37  60  90 122 159 204 251 300 357
#     4  10  21  36  55  78 105 141 181 224 273 327
#
# _framework density 19.444375000000001
#
# number of rings (size 3 to 8) (size 9 to 14) (size 15 to 20)
#    0.000    2.077    0.769    4.154    0.000    7.077 
#    0.000    6.154    0.000    0.000    0.000    0.000 
#    0.000    0.000    0.000    0.000    0.000    0.000 
#
# Total GULP energy -290043.881247 kJ/mol
# GULP energy per Si atom -5577.766947 kJ/mol
# Density = 1.940012 g / cm^3
# Si number density = 19.444375 Si / 1000 Ang^3
#
#
#
# Elastic Constant Matrix: (Units=GPa)
#
#
# Indices 1 2 3 4 5 6 
#
# 1 111.2076 32.4871 30.0869 0.0000 0.0000 0.0000
# 2 32.4871 76.0821 14.3018 0.0000 0.0000 0.0000
# 3 30.0869 14.3018 50.4022 0.0000 0.0000 0.0000
# 4 0.0000 0.0000 0.0000 22.9799 0.0000 0.0000
# 5 0.0000 0.0000 0.0000 0.0000 14.3661 0.0000
# 6 0.0000 0.0000 0.0000 0.0000 0.0000 31.2014
#
#
#
# Elastic Compliance Matrix: (Units=1/GPa)
#
#
# Indices 1 2 3 4 5 6 
#
# 1 0.011726 -0.003899 -0.005893 0.000000 0.000000 0.000000
# 2 -0.003899 0.015181 -0.001980 0.000000 0.000000 0.000000
# 3 -0.005893 -0.001980 0.023920 0.000000 0.000000 0.000000
# 4 0.000000 0.000000 0.000000 0.043516 0.000000 0.000000
# 5 0.000000 0.000000 0.000000 0.000000 0.069608 0.000000
# 6 0.000000 0.000000 0.000000 0.000000 0.000000 0.032050
#
#
# Mechanical properties :
#
#
# Convention : Reuss Voigt Hill
#
# Bulk Modulus (GPa) = 36.65424 43.49373 40.07399
# Shear Modulus (GPa) = 21.86851 24.43056 23.14954
#
# Velocity S-wave (km/s) = 3.35725 3.54847 3.45418
# Velocity P-wave (km/s) = 5.82408 6.26144 6.04672
#
# Compressibility (1/GPa) = 0.02728197
#
# Stress axis : x y z
#
# Youngs Moduli (GPa) = 85.28373 65.87266 41.80598
#
# Poissons Ratio (x) = 0.25684 0.24636
# Poissons Ratio (y) = 0.33253 0.08278
# Poissons Ratio (z) = 0.50258 0.13044
#
# Static dielectric constant tensor:
#      x y z
#    x 1.686830 0.000000 0.000000 
#    y 0.000000 1.709990 0.000000 
#    z 0.000000 0.000000 1.682440 
# 
# From -- ./inp_files/70044.got.cif
#   From: 2010.05.17/outbox.cif.g08.bks.cpg/sg65_36_cif.got.tgz:70044.got - 2010.06.03 17:01:31.
