data_PCOD9489507
_publ_section_title
;
Structure prediction by ZEFSAII (Michael W. Deem and Ramdas Pophale) SiO2 
 PCOD9489507
Probable space group: C M M M
;
_chemical_formula_sum "Si O2"
_cell_formula_units_Z 72
_cell_length_a 7.743688
_cell_length_b 18.600835
_cell_length_c 24.042745
_cell_angle_alpha 90.000000
_cell_angle_beta 90.000000
_cell_angle_gamma 90.000000
_cell_volume 3463.094456
_symmetry_space_group_name_H-M "C M M M"
_symmetry_group_IT_number 65
_symmetry_cell_setting 'orthorhombic'
loop_
_space_group_symop_operation_xyz
x,y,z
-x,-y,z
x,-y,-z
-x,y,-z
-x,-y,-z
x,y,-z
-x,y,z
x,-y,z
1/2+x,1/2+y,z
1/2-x,1/2-y,z
1/2+x,1/2-y,-z
1/2-x,1/2+y,-z
1/2-x,1/2-y,-z
1/2+x,1/2+y,-z
1/2-x,1/2+y,z
1/2+x,1/2-y,z
loop_
_atom_site_type_symbol
_atom_site_label
_atom_site_fract_x
_atom_site_fract_y
_atom_site_fract_z
Si Si1 0.288542 0.416731 0.500000
Si Si2 0.206378 0.918574 0.718687
Si Si3 0.792080 0.165979 0.610544
Si Si4 0.205423 0.666569 0.170044
Si Si5 0.289282 0.916549 0.937846
O O1 0.235324 0.500000 0.500000
O O2 0.500000 0.416297 0.500000
O O3 0.230543 0.375106 0.444687
O O4 0.273986 0.872681 0.666447
O O5 0.236373 0.878028 0.776414
O O6 0.000000 0.923454 0.711439
O O7 0.275388 0.000000 0.719748
O O8 0.750000 0.250000 0.609541
O O9 0.000000 0.160288 0.610662
O O10 0.250000 0.750000 0.175327
O O11 0.274221 0.632378 0.112618
O O12 0.000000 0.660446 0.168056
O O13 0.500000 0.914635 0.937997
O O14 0.240669 0.000000 0.928995
O O15 0.232976 0.894774 0.000000
#
# Coordination Sequence:
#
# PCOD9489507 Si02
#       5
#     8  16  16  16  16
#     4   9  17  32  55  79 102 133 176 218 254 301
#     4  10  21  37  56  78 105 137 174 217 264 313
#     4  10  20  34  54  79 106 137 172 212 259 309
#     4  11  22  35  53  78 107 140 177 215 259 310
#     4   8  15  30  52  76 101 131 170 215 260 307
#
# _framework density 20.790655999999998
#
# number of rings (size 3 to 8) (size 9 to 14) (size 15 to 20)
#    0.000    2.333    0.000    3.667    0.000    7.111 
#    0.000    0.000    0.000    4.667    0.000    7.778 
#    0.000    0.000    0.000    0.000    0.000    0.000 
#
# Total GULP energy -201095.711676 kJ/mol
# GULP energy per Si atom -5585.991991 kJ/mol
# Density = 2.074334 g / cm^3
# Si number density = 20.790656 Si / 1000 Ang^3
#
#
#
# Elastic Constant Matrix: (Units=GPa)
#
#
# Indices 1 2 3 4 5 6 
#
# 1 31.7458 2.2257 7.1022 0.0000 0.0000 0.0000
# 2 2.2257 212.4695 148.4391 0.0000 0.0000 0.0000
# 3 7.1022 148.4391 228.2520 0.0000 0.0000 0.0000
# 4 0.0000 0.0000 0.0000 30.6893 0.0000 0.0000
# 5 0.0000 0.0000 0.0000 0.0000 14.5413 0.0000
# 6 0.0000 0.0000 0.0000 0.0000 0.0000 11.4027
#
#
#
# Elastic Compliance Matrix: (Units=1/GPa)
#
#
# Indices 1 2 3 4 5 6 
#
# 1 0.031771 0.000656 -0.001415 0.000000 0.000000 0.000000
# 2 0.000656 0.008639 -0.005639 0.000000 0.000000 0.000000
# 3 -0.001415 -0.005639 0.008092 0.000000 0.000000 0.000000
# 4 0.000000 0.000000 0.000000 0.032585 0.000000 0.000000
# 5 0.000000 0.000000 0.000000 0.000000 0.068770 0.000000
# 6 0.000000 0.000000 0.000000 0.000000 0.000000 0.087698
#
#
# Mechanical properties :
#
#
# Convention : Reuss Voigt Hill
#
# Bulk Modulus (GPa) = 28.00634 87.55569 57.78101
# Shear Modulus (GPa) = 19.06560 32.30670 25.68615
#
# Velocity S-wave (km/s) = 3.03153 3.94624 3.51873
# Velocity P-wave (km/s) = 5.07479 7.93525 6.66039
#
# Compressibility (1/GPa) = 0.03570621
#
# Stress axis : x y z
#
# Youngs Moduli (GPa) = 31.47544 115.75350 123.57691
#
# Poissons Ratio (x) = -0.07591 0.17487
# Poissons Ratio (y) = -0.02064 0.69681
# Poissons Ratio (z) = 0.04454 0.65269
#
# Static dielectric constant tensor:
#      x y z
#    x 1.785450 0.000000 0.000000 
#    y 0.000000 1.692200 0.000000 
#    z 0.000000 0.000000 1.734990 
# 
# From -- ./inp_files/67032.got.cif
#   From: 2010.05.17/outbox.cif.g08.bks.cpg/sg65_34_cif.got.tgz:67032.got - 2010.06.03 17:01:31.
