data_PCOD9489302
_publ_section_title
;
Structure prediction by ZEFSAII (Michael W. Deem and Ramdas Pophale) SiO2 
 PCOD9489302
Probable space group: C M M M
;
_chemical_formula_sum "Si O2"
_cell_formula_units_Z 72
_cell_length_a 13.923274
_cell_length_b 33.230842
_cell_length_c 8.857827
_cell_angle_alpha 90.000000
_cell_angle_beta 90.000000
_cell_angle_gamma 90.000000
_cell_volume 4098.358161
_symmetry_space_group_name_H-M "C M M M"
_symmetry_group_IT_number 65
_symmetry_cell_setting 'orthorhombic'
loop_
_space_group_symop_operation_xyz
x,y,z
-x,-y,z
x,-y,-z
-x,y,-z
-x,-y,-z
x,y,-z
-x,y,z
x,-y,z
1/2+x,1/2+y,z
1/2-x,1/2-y,z
1/2+x,1/2-y,-z
1/2-x,1/2+y,-z
1/2-x,1/2-y,-z
1/2+x,1/2+y,-z
1/2-x,1/2+y,z
1/2+x,1/2-y,z
loop_
_atom_site_type_symbol
_atom_site_label
_atom_site_fract_x
_atom_site_fract_y
_atom_site_fract_z
Si Si1 0.889798 0.866440 0.682142
Si Si2 0.608276 0.855536 0.830804
Si Si3 0.784906 0.422909 0.323235
Si Si4 0.386575 0.000000 0.819334
Si Si5 0.278905 0.706510 0.174728
O O1 0.885145 0.865306 0.500000
O O2 0.814907 0.901647 0.731003
O O3 0.853574 0.823220 0.743407
O O4 0.000000 0.874049 0.727396
O O5 0.500000 0.841937 0.812343
O O6 0.637969 0.887836 0.707275
O O7 0.681135 0.818978 0.824989
O O8 0.617533 0.874135 0.000000
O O9 0.774924 0.432095 0.500000
O O10 0.827313 0.461444 0.239158
O O11 0.500000 0.000000 0.768857
O O12 0.388265 0.000000 0.000000
O O13 0.250000 0.750000 0.239461
O O14 0.310326 0.712292 0.000000
#
# Coordination Sequence:
#
# PCOD9489302 Si02
#       5
#    16  16  16   8  16
#     4   9  19  36  55  74 100 136 174 211 254 301
#     4   9  17  30  47  67  96 132 163 196 245 299
#     4  10  20  34  53  76 100 127 164 207 246 291
#     4  11  23  37  54  77 106 136 161 193 246 307
#     4   9  18  31  48  73 102 131 168 212 252 294
#
# _framework density 17.568010999999998
#
# number of rings (size 3 to 8) (size 9 to 14) (size 15 to 20)
#    0.000    2.556    0.000    1.667    0.000    6.667 
#    0.000    2.778    0.000    3.333    0.000    0.000 
#    0.000    0.000    0.000    0.000    0.000    0.000 
#
# Total GULP energy -200459.505148 kJ/mol
# GULP energy per Si atom -5568.319587 kJ/mol
# Density = 1.752802 g / cm^3
# Si number density = 17.568011 Si / 1000 Ang^3
#
#
#
# Elastic Constant Matrix: (Units=GPa)
#
#
# Indices 1 2 3 4 5 6 
#
# 1 116.7200 41.1530 29.1129 0.0000 0.0000 0.0000
# 2 41.1530 110.6251 29.6346 0.0000 0.0000 0.0000
# 3 29.1129 29.6346 29.8997 0.0000 0.0000 0.0000
# 4 0.0000 0.0000 0.0000 19.5175 0.0000 0.0000
# 5 0.0000 0.0000 0.0000 0.0000 19.9240 0.0000
# 6 0.0000 0.0000 0.0000 0.0000 0.0000 8.0885
#
#
#
# Elastic Compliance Matrix: (Units=1/GPa)
#
#
# Indices 1 2 3 4 5 6 
#
# 1 0.011559 -0.001750 -0.009521 0.000000 0.000000 0.000000
# 2 -0.001750 0.012572 -0.010757 0.000000 0.000000 0.000000
# 3 -0.009521 -0.010757 0.053377 0.000000 0.000000 0.000000
# 4 0.000000 0.000000 0.000000 0.051236 0.000000 0.000000
# 5 0.000000 0.000000 0.000000 0.000000 0.050191 0.000000
# 6 0.000000 0.000000 0.000000 0.000000 0.000000 0.123632
#
#
# Mechanical properties :
#
#
# Convention : Reuss Voigt Hill
#
# Bulk Modulus (GPa) = 29.89240 50.78286 40.33763
# Shear Modulus (GPa) = 13.97532 19.99562 16.98547
#
# Velocity S-wave (km/s) = 2.82352 3.37736 3.11278
# Velocity P-wave (km/s) = 5.26135 6.64665 5.99415
#
# Compressibility (1/GPa) = 0.03345332
#
# Stress axis : x y z
#
# Youngs Moduli (GPa) = 86.51173 79.54189 18.73463
#
# Poissons Ratio (x) = 0.13916 0.17837
# Poissons Ratio (y) = 0.15136 0.20153
# Poissons Ratio (z) = 0.82367 0.85563
#
# Static dielectric constant tensor:
#      x y z
#    x 1.602490 0.000000 0.000000 
#    y 0.000000 1.596690 0.000000 
#    z 0.000000 0.000000 1.628840 
# 
# From -- ./inp_files/7634.got.cif
#   From: 2010.05.17/outbox.cif.g08.bks.cpg/sg65_4_cif.got.tgz:7634.got - 2010.06.03 17:01:31.
