data_PCOD9489024
_publ_section_title
;
Structure prediction by ZEFSAII (Michael W. Deem and Ramdas Pophale) SiO2 
 PCOD9489024
Probable space group: C M M M
;
_chemical_formula_sum "Si O2"
_cell_formula_units_Z 58
_cell_length_a 27.829451
_cell_length_b 10.068242
_cell_length_c 11.426649
_cell_angle_alpha 90.000000
_cell_angle_beta 90.000000
_cell_angle_gamma 90.000000
_cell_volume 3201.674461
_symmetry_space_group_name_H-M "C M M M"
_symmetry_group_IT_number 65
_symmetry_cell_setting 'orthorhombic'
loop_
_space_group_symop_operation_xyz
x,y,z
-x,-y,z
x,-y,-z
-x,y,-z
-x,-y,-z
x,y,-z
-x,y,z
x,-y,z
1/2+x,1/2+y,z
1/2-x,1/2-y,z
1/2+x,1/2-y,-z
1/2-x,1/2+y,-z
1/2-x,1/2-y,-z
1/2+x,1/2+y,-z
1/2-x,1/2+y,z
1/2+x,1/2-y,z
loop_
_atom_site_type_symbol
_atom_site_label
_atom_site_fract_x
_atom_site_fract_y
_atom_site_fract_z
Si Si1 0.558199 0.000000 0.357077
Si Si2 0.553656 0.500000 0.636845
Si Si3 0.552237 0.273856 0.000000
Si Si4 0.202980 0.841002 0.139255
Si Si5 0.603932 0.736886 0.757554
Si Si6 0.500000 0.000000 0.000000
O O1 0.583351 0.125924 0.294848
O O2 0.500000 0.000000 0.332535
O O3 0.563620 0.000000 0.500000
O O4 0.500000 0.500000 0.691266
O O5 0.547611 0.500000 0.500000
O O6 0.583847 0.626978 0.671437
O O7 0.580352 0.299890 0.117816
O O8 0.500000 0.340634 0.000000
O O9 0.540716 0.116901 0.000000
O O10 0.250000 0.750000 0.157279
O O11 0.160320 0.779677 0.217662
O O12 0.209415 0.000000 0.163160
O O13 0.190945 0.830819 0.000000
#
# Coordination Sequence:
#
# PCOD9489024 Si02
#       6
#     8   8   8  16  16   2
#     4  11  25  42  62  91 128 174 224 258 292 363
#     4  11  24  41  62  88 124 174 217 249 300 371
#     4  10  20  33  55  91 127 162 195 254 317 372
#     4  10  22  42  63  94 128 162 205 255 319 391
#     4  12  22  39  64  91 128 165 205 262 316 371
#     4   8  20  36  44  82 134 160 200 230 304 378
#
# _framework density 18.11552
#
# number of rings (size 3 to 8) (size 9 to 14) (size 15 to 20)
#    0.414    0.828    2.759    4.138    3.862    2.759 
#    0.000    1.379    0.000    4.966    0.000    0.000 
#    0.000    0.000    0.000    0.000    0.000    0.000 
#
# Total GULP energy -161445.521528 kJ/mol
# GULP energy per Si atom -5567.086949 kJ/mol
# Density = 1.807429 g / cm^3
# Si number density = 18.115520 Si / 1000 Ang^3
#
#
#
# Elastic Constant Matrix: (Units=GPa)
#
#
# Indices 1 2 3 4 5 6 
#
# 1 164.4148 76.1671 58.0798 0.0000 0.0000 0.0000
# 2 76.1671 144.3451 43.3878 0.0000 0.0000 0.0000
# 3 58.0798 43.3878 95.0967 0.0000 0.0000 0.0000
# 4 0.0000 0.0000 0.0000 10.5987 0.0000 0.0000
# 5 0.0000 0.0000 0.0000 0.0000 28.0994 0.0000
# 6 0.0000 0.0000 0.0000 0.0000 0.0000 28.3605
#
#
#
# Elastic Compliance Matrix: (Units=1/GPa)
#
#
# Indices 1 2 3 4 5 6 
#
# 1 0.009163 -0.003654 -0.003929 0.000000 0.000000 0.000000
# 2 -0.003654 0.009486 -0.002096 0.000000 0.000000 0.000000
# 3 -0.003929 -0.002096 0.013872 0.000000 0.000000 0.000000
# 4 0.000000 0.000000 0.000000 0.094351 0.000000 0.000000
# 5 0.000000 0.000000 0.000000 0.000000 0.035588 0.000000
# 6 0.000000 0.000000 0.000000 0.000000 0.000000 0.035260
#
#
# Mechanical properties :
#
#
# Convention : Reuss Voigt Hill
#
# Bulk Modulus (GPa) = 75.97698 84.34733 80.16215
# Shear Modulus (GPa) = 22.57683 28.49318 25.53501
#
# Velocity S-wave (km/s) = 3.53408 3.97023 3.75849
# Velocity P-wave (km/s) = 7.66057 8.22672 7.94869
#
# Compressibility (1/GPa) = 0.01316188
#
# Stress axis : x y z
#
# Youngs Moduli (GPa) = 109.13598 105.41741 72.08910
#
# Poissons Ratio (x) = 0.38520 0.28324
# Poissons Ratio (y) = 0.39878 0.15112
# Poissons Ratio (z) = 0.42880 0.22099
#
# Static dielectric constant tensor:
#      x y z
#    x 1.641730 0.000000 0.000000 
#    y 0.000000 1.590800 0.000000 
#    z 0.000000 0.000000 1.582710 
# 
# From -- ./inp_files/31839.got.cif
#   From: 2010.05.17/outbox.cif.g08.bks.cpg/sg65_16_cif.got.tgz:31839.got - 2010.06.03 17:01:31.
