data_PCOD9489639
_publ_section_title
;
Structure prediction by ZEFSAII (Michael W. Deem and Ramdas Pophale) SiO2 
 PCOD9489639
Probable space group: C M M M
;
_chemical_formula_sum "Si O2"
_cell_formula_units_Z 104
_cell_length_a 29.935760
_cell_length_b 8.653261
_cell_length_c 22.274546
_cell_angle_alpha 90.000000
_cell_angle_beta 90.000000
_cell_angle_gamma 90.000000
_cell_volume 5770.041709
_symmetry_space_group_name_H-M "C M M M"
_symmetry_group_IT_number 65
_symmetry_cell_setting 'orthorhombic'
loop_
_space_group_symop_operation_xyz
x,y,z
-x,-y,z
x,-y,-z
-x,y,-z
-x,-y,-z
x,y,-z
-x,y,z
x,-y,z
1/2+x,1/2+y,z
1/2-x,1/2-y,z
1/2+x,1/2-y,-z
1/2-x,1/2+y,-z
1/2-x,1/2-y,-z
1/2+x,1/2+y,-z
1/2-x,1/2+y,z
1/2+x,1/2-y,z
loop_
_atom_site_type_symbol
_atom_site_label
_atom_site_fract_x
_atom_site_fract_y
_atom_site_fract_z
Si Si1 0.553953 0.824274 0.500000
Si Si2 0.176732 0.682501 0.934149
Si Si3 0.797923 0.687983 0.198943
Si Si4 0.884353 0.321260 0.729122
Si Si5 0.931015 0.321442 0.067658
Si Si6 0.449830 0.674071 0.813504
Si Si7 0.948333 0.184226 0.628174
O O1 0.500000 0.828318 0.500000
O O2 0.565689 0.740186 0.438131
O O3 0.570628 0.000000 0.500000
O O4 0.188318 0.500000 0.935296
O O5 0.193920 0.744433 0.870141
O O6 0.122909 0.691046 0.931475
O O7 0.190670 0.747987 0.000000
O O8 0.799056 0.500000 0.197602
O O9 0.750000 0.750000 0.218235
O O10 0.837102 0.737995 0.244831
O O11 0.878949 0.500000 0.713089
O O12 0.917463 0.299457 0.785350
O O13 0.911690 0.239779 0.675975
O O14 0.942435 0.500000 0.082349
O O15 0.949895 0.205230 0.116032
O O16 0.945738 0.291016 0.000000
O O17 0.500000 0.688724 0.789584
O O18 0.434067 0.500000 0.799937
O O19 0.000000 0.240380 0.639633
O O20 0.950093 0.000000 0.629622
#
# Coordination Sequence:
#
# PCOD9489639 Si02
#       7
#     8  16  16  16  16  16  16
#     4   9  17  31  53  83 118 155 192 223 251 293
#     4   8  14  29  52  73  95 123 158 208 268 325
#     4  10  21  36  54  77 102 131 170 218 273 328
#     4  11  22  37  55  76 103 139 182 222 259 310
#     4   9  17  32  53  71  90 123 167 212 258 312
#     4  11  23  35  48  70 101 134 168 212 265 315
#     4  10  20  34  54  83 119 154 185 220 264 306
#
# _framework density 18.024132999999999
#
# number of rings (size 3 to 8) (size 9 to 14) (size 15 to 20)
#    0.000    2.231    1.538    3.000    0.000    7.077 
#    0.000    1.538    0.000    0.000    0.000    0.538 
#    0.000    0.000    0.000    0.000    0.000    0.000 
#
# Total GULP energy -289879.446055 kJ/mol
# GULP energy per Si atom -5574.604732 kJ/mol
# Density = 1.798311 g / cm^3
# Si number density = 18.024133 Si / 1000 Ang^3
#
#
#
# Elastic Constant Matrix: (Units=GPa)
#
#
# Indices 1 2 3 4 5 6 
#
# 1 95.0331 21.8605 53.4893 0.0000 0.0000 0.0000
# 2 21.8605 24.2163 28.6307 0.0000 0.0000 0.0000
# 3 53.4893 28.6307 122.3578 0.0000 0.0000 0.0000
# 4 0.0000 0.0000 0.0000 0.3830 0.0000 0.0000
# 5 0.0000 0.0000 0.0000 0.0000 1.5406 0.0000
# 6 0.0000 0.0000 0.0000 0.0000 0.0000 16.0665
#
#
#
# Elastic Compliance Matrix: (Units=1/GPa)
#
#
# Indices 1 2 3 4 5 6 
#
# 1 0.015000 -0.008002 -0.004685 0.000000 0.000000 0.000000
# 2 -0.008002 0.061356 -0.010859 0.000000 0.000000 0.000000
# 3 -0.004685 -0.010859 0.012762 0.000000 0.000000 0.000000
# 4 0.000000 0.000000 0.000000 2.611209 0.000000 0.000000
# 5 0.000000 0.000000 0.000000 0.000000 0.649089 0.000000
# 6 0.000000 0.000000 0.000000 0.000000 0.000000 0.062241
#
#
# Mechanical properties :
#
#
# Convention : Reuss Voigt Hill
#
# Bulk Modulus (GPa) = 23.79442 49.95202 36.87322
# Shear Modulus (GPa) = 1.43978 12.77313 7.10645
#
# Velocity S-wave (km/s) = 0.89473 2.66497 1.98779
# Velocity P-wave (km/s) = 3.78120 6.10275 5.07647
#
# Compressibility (1/GPa) = 0.04202666
#
# Stress axis : x y z
#
# Youngs Moduli (GPa) = 66.66510 16.29828 78.35943
#
# Poissons Ratio (x) = 0.13042 0.36712
# Poissons Ratio (y) = 0.53345 0.85088
# Poissons Ratio (z) = 0.31233 0.17698
#
# Static dielectric constant tensor:
#      x y z
#    x 1.623330 0.000000 0.000000 
#    y 0.000000 1.621370 0.000000 
#    z 0.000000 0.000000 1.645090 
# 
# From -- ./inp_files/66334.got.cif
#   From: 2010.05.17/outbox.cif.g08.bks.cpg/sg65_34_cif.got.tgz:66334.got - 2010.06.03 17:01:31.
