data_PCOD9489032
_publ_section_title
;
Structure prediction by ZEFSAII (Michael W. Deem and Ramdas Pophale) SiO2 
 PCOD9489032
Probable space group: C M M M
;
_chemical_formula_sum "Si O2"
_cell_formula_units_Z 96
_cell_length_a 16.336977
_cell_length_b 15.062735
_cell_length_c 18.587180
_cell_angle_alpha 90.000000
_cell_angle_beta 90.000000
_cell_angle_gamma 90.000000
_cell_volume 4573.924988
_symmetry_space_group_name_H-M "C M M M"
_symmetry_group_IT_number 65
_symmetry_cell_setting 'orthorhombic'
loop_
_space_group_symop_operation_xyz
x,y,z
-x,-y,z
x,-y,-z
-x,y,-z
-x,-y,-z
x,y,-z
-x,y,z
x,-y,z
1/2+x,1/2+y,z
1/2-x,1/2-y,z
1/2+x,1/2-y,-z
1/2-x,1/2+y,-z
1/2-x,1/2-y,-z
1/2+x,1/2+y,-z
1/2-x,1/2+y,z
1/2+x,1/2-y,z
loop_
_atom_site_type_symbol
_atom_site_label
_atom_site_fract_x
_atom_site_fract_y
_atom_site_fract_z
Si Si1 0.590069 0.313442 0.798850
Si Si2 0.588527 0.500000 0.117819
Si Si3 0.500000 0.161206 0.416959
Si Si4 0.825822 0.393475 0.418480
Si Si5 0.275831 0.000000 0.917598
Si Si6 0.667261 0.808241 0.916225
Si Si7 0.666821 0.397284 0.670382
Si Si8 0.000000 0.872499 0.582851
O O1 0.500000 0.295554 0.767948
O O2 0.588017 0.410183 0.836122
O O3 0.610155 0.241969 0.859799
O O4 0.653377 0.328273 0.734863
O O5 0.500000 0.500000 0.078605
O O6 0.677131 0.500000 0.081179
O O7 0.500000 0.125138 0.500000
O O8 0.586650 0.131693 0.384667
O O9 0.500000 0.266354 0.419358
O O10 0.822914 0.356528 0.500000
O O11 0.823872 0.500000 0.423029
O O12 0.744631 0.368357 0.375944
O O13 0.309581 0.906837 0.888652
O O14 0.303165 0.000000 0.000000
O O15 0.750000 0.750000 0.917908
O O16 0.637438 0.810568 0.000000
O O17 0.680276 0.500000 0.695648
O O18 0.583030 0.399441 0.623935
O O19 0.000000 0.903136 0.500000
#
# Coordination Sequence:
#
# PCOD9489032 Si02
#       8
#    16   8   8  16   8  16  16   8
#     4  11  22  39  61  90 128 171 215 267 329 391
#     4  10  20  33  58  89 127 170 209 260 328 389
#     4   9  19  37  55  81 123 162 203 263 320 374
#     4   9  18  35  62  90 117 158 214 268 323 388
#     4  10  20  39  63  94 132 167 210 265 323 381
#     4  10  21  39  64  94 128 168 215 263 315 384
#     4  11  22  38  60  88 126 167 211 268 332 396
#     4  11  23  37  57  87 126 169 212 263 325 394
#
# _framework density 20.988537999999998
#
# number of rings (size 3 to 8) (size 9 to 14) (size 15 to 20)
#    0.000    1.833    3.333    1.000    0.000    3.500 
#    3.000    4.583    0.000    1.500    2.167    0.000 
#    0.000    0.000    0.000    0.083    0.000    0.000 
#
# Total GULP energy -267827.158520 kJ/mol
# GULP energy per Si atom -5579.732469 kJ/mol
# Density = 2.094077 g / cm^3
# Si number density = 20.988538 Si / 1000 Ang^3
#
#
#
# Elastic Constant Matrix: (Units=GPa)
#
#
# Indices 1 2 3 4 5 6 
#
# 1 150.4392 39.6332 55.1607 0.0000 0.0000 0.0000
# 2 39.6332 102.1961 31.3202 0.0000 0.0000 0.0000
# 3 55.1607 31.3202 71.9044 0.0000 0.0000 0.0000
# 4 0.0000 0.0000 0.0000 16.0362 0.0000 0.0000
# 5 0.0000 0.0000 0.0000 0.0000 37.0874 0.0000
# 6 0.0000 0.0000 0.0000 0.0000 0.0000 -12.8868
#
#
#
# Elastic Compliance Matrix: (Units=1/GPa)
#
#
# Indices 1 2 3 4 5 6 
#
# 1 0.009490 -0.001672 -0.006552 0.000000 0.000000 0.000000
# 2 -0.001672 0.011587 -0.003764 0.000000 0.000000 0.000000
# 3 -0.006552 -0.003764 0.020573 0.000000 0.000000 0.000000
# 4 0.000000 0.000000 0.000000 0.062359 0.000000 0.000000
# 5 0.000000 0.000000 0.000000 0.000000 0.026963 0.000000
# 6 0.000000 0.000000 0.000000 0.000000 0.000000 -0.077599
#
#
# Mechanical properties :
#
#
# Convention : Reuss Voigt Hill
#
# Bulk Modulus (GPa) = 56.58130 64.08531 60.33331
# Shear Modulus (GPa) = 60.06585 21.27572 40.67079
#
# Velocity S-wave (km/s) = 5.35542 3.18729 4.40678
# Velocity P-wave (km/s) = 8.07821 6.64416 7.39602
#
# Compressibility (1/GPa) = 0.01767368
#
# Stress axis : x y z
#
# Youngs Moduli (GPa) = 105.37290 86.30105 48.60730
#
# Poissons Ratio (x) = 0.14434 0.31846
# Poissons Ratio (y) = 0.17624 0.18297
# Poissons Ratio (z) = 0.69037 0.32485
#
# Static dielectric constant tensor:
#      x y z
#    x 1.759630 0.000000 0.000000 
#    y 0.000000 1.759460 0.000000 
#    z 0.000000 0.000000 1.785160 
# 
# From -- ./inp_files/62719.got.cif
#   From: 2010.05.17/outbox.cif.g08.bks.cpg/sg65_32_cif.got.tgz:62719.got - 2010.06.03 17:01:31.
