data_PCOD9489940
_publ_section_title
;
Structure prediction by ZEFSAII (Michael W. Deem and Ramdas Pophale) SiO2 
 PCOD9489940
Probable space group: C M M M
;
_chemical_formula_sum "Si O2"
_cell_formula_units_Z 56
_cell_length_a 8.208187
_cell_length_b 20.078579
_cell_length_c 18.279779
_cell_angle_alpha 90.000000
_cell_angle_beta 90.000000
_cell_angle_gamma 90.000000
_cell_volume 3012.667182
_symmetry_space_group_name_H-M "C M M M"
_symmetry_group_IT_number 65
_symmetry_cell_setting 'orthorhombic'
loop_
_space_group_symop_operation_xyz
x,y,z
-x,-y,z
x,-y,-z
-x,y,-z
-x,-y,-z
x,y,-z
-x,y,z
x,-y,z
1/2+x,1/2+y,z
1/2-x,1/2-y,z
1/2+x,1/2-y,-z
1/2-x,1/2+y,-z
1/2-x,1/2-y,-z
1/2+x,1/2+y,-z
1/2-x,1/2+y,z
1/2+x,1/2-y,z
loop_
_atom_site_type_symbol
_atom_site_label
_atom_site_fract_x
_atom_site_fract_y
_atom_site_fract_z
Si Si1 0.194307 0.423888 0.500000
Si Si2 0.694879 0.675346 0.374377
Si Si3 0.803156 0.824391 0.207676
Si Si4 0.698829 0.576823 0.081895
O O1 0.258370 0.500000 0.500000
O O2 0.247279 0.381090 0.429706
O O3 0.000000 0.427195 0.500000
O O4 0.500000 0.675344 0.374335
O O5 0.750000 0.750000 0.395994
O O6 0.753432 0.662916 0.291019
O O7 0.750000 0.750000 0.187937
O O8 0.743424 0.876414 0.147290
O O9 0.000000 0.827106 0.208611
O O10 0.500000 0.578018 0.082618
O O11 0.747412 0.500000 0.092407
O O12 0.749414 0.598017 0.000000
#
# Coordination Sequence:
#
# PCOD9489940 Si02
#       4
#     8  16  16  16
#     4  11  24  39  54  75 103 131 162 203 250 299
#     4  10  20  35  55  76 101 133 168 206 248 297
#     4   9  18  31  49  74 100 127 161 201 243 287
#     4   8  14  26  45  69  97 129 165 203 241 282
#
# _framework density 18.588180000000001
#
# number of rings (size 3 to 8) (size 9 to 14) (size 15 to 20)
#    0.000    2.714    0.000    2.571    0.000    4.000 
#    0.000    2.857    0.000    0.857    0.000    2.000 
#    0.000    0.000    0.000    0.000    0.000    0.000 
#
# Total GULP energy -156158.491207 kJ/mol
# GULP energy per Si atom -5577.088972 kJ/mol
# Density = 1.854587 g / cm^3
# Si number density = 18.588180 Si / 1000 Ang^3
#
#
#
# Elastic Constant Matrix: (Units=GPa)
#
#
# Indices 1 2 3 4 5 6 
#
# 1 19.3402 16.8553 15.7504 0.0000 0.0000 0.0000
# 2 16.8553 159.9262 129.4231 0.0000 0.0000 0.0000
# 3 15.7504 129.4231 148.9022 0.0000 0.0000 0.0000
# 4 0.0000 0.0000 0.0000 268.0076 0.0000 0.0000
# 5 0.0000 0.0000 0.0000 0.0000 -2.6586 0.0000
# 6 0.0000 0.0000 0.0000 0.0000 0.0000 22.6721
#
#
#
# Elastic Compliance Matrix: (Units=1/GPa)
#
#
# Indices 1 2 3 4 5 6 
#
# 1 0.057264 -0.003821 -0.002736 0.000000 0.000000 0.000000
# 2 -0.003821 0.021337 -0.018142 0.000000 0.000000 0.000000
# 3 -0.002736 -0.018142 0.022773 0.000000 0.000000 0.000000
# 4 0.000000 0.000000 0.000000 0.003731 0.000000 0.000000
# 5 0.000000 0.000000 0.000000 0.000000 -0.376136 0.000000
# 6 0.000000 0.000000 0.000000 0.000000 0.000000 0.044107
#
#
# Mechanical properties :
#
#
# Convention : Reuss Voigt Hill
#
# Bulk Modulus (GPa) = 19.23918 72.46959 45.85438
# Shear Modulus (GPa) = -31.21085 68.68022 18.73469
#
# Velocity S-wave (km/s) = -4.10209 6.08511 3.17816
# Velocity P-wave (km/s) = 3.47326 9.40441 6.17978
#
# Compressibility (1/GPa) = 0.05197727
#
# Stress axis : x y z
#
# Youngs Moduli (GPa) = 17.46296 46.86701 43.91069
#
# Poissons Ratio (x) = 0.17909 0.12013
# Poissons Ratio (y) = 0.06673 0.79661
# Poissons Ratio (z) = 0.04778 0.85024
#
# Static dielectric constant tensor:
#      x y z
#    x 1.643660 0.000000 0.000000 
#    y 0.000000 1.612130 0.000000 
#    z 0.000000 0.000000 1.659340 
# 
# From -- ./inp_files/44977.got.cif
#   From: 2010.05.17/outbox.cif.g08.bks.cpg/sg65_23_cif.got.tgz:44977.got - 2010.06.03 17:01:31.
