data_PCOD9489850
_publ_section_title
;
Structure prediction by ZEFSAII (Michael W. Deem and Ramdas Pophale) SiO2 
 PCOD9489850
Probable space group: C M M M
;
_chemical_formula_sum "Si O2"
_cell_formula_units_Z 72
_cell_length_a 27.477326
_cell_length_b 9.958039
_cell_length_c 16.451193
_cell_angle_alpha 90.000000
_cell_angle_beta 90.000000
_cell_angle_gamma 90.000000
_cell_volume 4501.380100
_symmetry_space_group_name_H-M "C M M M"
_symmetry_group_IT_number 65
_symmetry_cell_setting 'orthorhombic'
loop_
_space_group_symop_operation_xyz
x,y,z
-x,-y,z
x,-y,-z
-x,y,-z
-x,-y,-z
x,y,-z
-x,y,z
x,-y,z
1/2+x,1/2+y,z
1/2-x,1/2-y,z
1/2+x,1/2-y,-z
1/2-x,1/2+y,-z
1/2-x,1/2-y,-z
1/2+x,1/2+y,-z
1/2-x,1/2+y,z
1/2+x,1/2-y,z
loop_
_atom_site_type_symbol
_atom_site_label
_atom_site_fract_x
_atom_site_fract_y
_atom_site_fract_z
Si Si1 0.058712 0.155942 0.500000
Si Si2 0.895005 0.748873 0.177015
Si Si3 0.555171 0.000000 0.095892
Si Si4 0.798240 0.160236 0.095046
Si Si5 0.557558 0.500000 0.907269
Si Si6 0.941618 0.660445 0.344431
O O1 0.071246 0.245336 0.421070
O O2 0.000000 0.147659 0.500000
O O3 0.076511 0.000000 0.500000
O O4 0.914440 0.626194 0.124257
O O5 0.839550 0.784692 0.155487
O O6 0.925034 0.873986 0.143550
O O7 0.909809 0.710672 0.268408
O O8 0.500000 0.000000 0.131196
O O9 0.550745 0.000000 0.000000
O O10 0.750000 0.250000 0.104742
O O11 0.790205 0.000000 0.107961
O O12 0.814004 0.175560 0.000000
O O13 0.500000 0.500000 0.913332
O O14 0.577503 0.500000 0.000000
O O15 0.934053 0.500000 0.358697
O O16 0.000000 0.676733 0.327990
#
# Coordination Sequence:
#
# PCOD9489850 Si02
#       6
#     8  16   8  16   8  16
#     4   9  19  33  53  79 106 141 182 225 273 323
#     4  12  22  35  54  78 108 144 189 231 274 326
#     4  11  22  34  49  74 110 150 188 220 257 319
#     4  10  22  39  57  77 102 138 187 241 292 332
#     4  11  22  34  49  72 108 150 184 222 271 321
#     4  10  20  35  53  77 111 148 184 222 268 326
#
# _framework density 15.995094
#
# number of rings (size 3 to 8) (size 9 to 14) (size 15 to 20)
#    0.000    1.444    2.222    4.333    3.111    3.111 
#    0.000    0.000    0.000    0.000    0.000    0.778 
#    0.000    0.000    0.000    0.000    0.000    0.000 
#
# Total GULP energy -200788.645851 kJ/mol
# GULP energy per Si atom -5577.462385 kJ/mol
# Density = 1.595869 g / cm^3
# Si number density = 15.995094 Si / 1000 Ang^3
#
#
#
# Elastic Constant Matrix: (Units=GPa)
#
#
# Indices 1 2 3 4 5 6 
#
# 1 85.3236 50.9204 46.8842 0.0000 0.0000 0.0000
# 2 50.9204 165.4980 71.9398 0.0000 0.0000 0.0000
# 3 46.8842 71.9398 126.1375 0.0000 0.0000 0.0000
# 4 0.0000 0.0000 0.0000 24.8102 0.0000 0.0000
# 5 0.0000 0.0000 0.0000 0.0000 19.6067 0.0000
# 6 0.0000 0.0000 0.0000 0.0000 0.0000 14.6610
#
#
#
# Elastic Compliance Matrix: (Units=1/GPa)
#
#
# Indices 1 2 3 4 5 6 
#
# 1 0.015823 -0.003074 -0.004128 0.000000 0.000000 0.000000
# 2 -0.003074 0.008631 -0.003780 0.000000 0.000000 0.000000
# 3 -0.004128 -0.003780 0.011618 0.000000 0.000000 0.000000
# 4 0.000000 0.000000 0.000000 0.040306 0.000000 0.000000
# 5 0.000000 0.000000 0.000000 0.000000 0.051003 0.000000
# 6 0.000000 0.000000 0.000000 0.000000 0.000000 0.068208
#
#
# Mechanical properties :
#
#
# Convention : Reuss Voigt Hill
#
# Bulk Modulus (GPa) = 70.88150 79.60534 75.24342
# Shear Modulus (GPa) = 22.49649 25.62988 24.06319
#
# Velocity S-wave (km/s) = 3.75435 4.00729 3.88288
# Velocity P-wave (km/s) = 7.95011 8.44321 8.20037
#
# Compressibility (1/GPa) = 0.01410805
#
# Stress axis : x y z
#
# Youngs Moduli (GPa) = 63.19945 115.85682 86.07230
#
# Poissons Ratio (x) = 0.35614 0.35531
# Poissons Ratio (y) = 0.19427 0.32536
# Poissons Ratio (z) = 0.26089 0.43795
#
# Static dielectric constant tensor:
#      x y z
#    x 1.532620 0.000000 0.000000 
#    y 0.000000 1.519690 0.000000 
#    z 0.000000 0.000000 1.541060 
# 
# From -- ./inp_files/46527.got.cif
#   From: 2010.05.17/outbox.cif.g08.bks.cpg/sg65_24_cif.got.tgz:46527.got - 2010.06.03 17:01:31.
