data_PCOD9489678
_publ_section_title
;
Structure prediction by ZEFSAII (Michael W. Deem and Ramdas Pophale) SiO2 
 PCOD9489678
Probable space group: C M M M
;
_chemical_formula_sum "Si O2"
_cell_formula_units_Z 96
_cell_length_a 29.908534
_cell_length_b 8.522432
_cell_length_c 21.047944
_cell_angle_alpha 90.000000
_cell_angle_beta 90.000000
_cell_angle_gamma 90.000000
_cell_volume 5364.983003
_symmetry_space_group_name_H-M "C M M M"
_symmetry_group_IT_number 65
_symmetry_cell_setting 'orthorhombic'
loop_
_space_group_symop_operation_xyz
x,y,z
-x,-y,z
x,-y,-z
-x,y,-z
-x,-y,-z
x,y,-z
-x,y,z
x,-y,z
1/2+x,1/2+y,z
1/2-x,1/2-y,z
1/2+x,1/2-y,-z
1/2-x,1/2+y,-z
1/2-x,1/2-y,-z
1/2+x,1/2+y,-z
1/2-x,1/2+y,z
1/2+x,1/2-y,z
loop_
_atom_site_type_symbol
_atom_site_label
_atom_site_fract_x
_atom_site_fract_y
_atom_site_fract_z
Si Si1 0.142435 0.810623 0.314295
Si Si2 0.549230 0.810995 0.114989
Si Si3 0.049623 0.189377 0.258717
Si Si4 0.645549 0.189980 0.929773
Si Si5 0.298951 0.812429 0.427203
Si Si6 0.300330 0.687969 0.191079
O O1 0.091352 0.761086 0.301496
O O2 0.164401 0.746280 0.377918
O O3 0.171650 0.760132 0.253089
O O4 0.143650 0.000000 0.316752
O O5 0.500000 0.754870 0.092956
O O6 0.554191 0.760802 0.188398
O O7 0.593869 0.758149 0.079301
O O8 0.548617 0.000000 0.111198
O O9 0.000000 0.230716 0.282821
O O10 0.051686 0.000000 0.252277
O O11 0.674961 0.254397 0.872389
O O12 0.646371 0.000000 0.926579
O O13 0.661354 0.237266 0.000000
O O14 0.307125 0.759585 0.500000
O O15 0.250000 0.750000 0.408011
O O16 0.297676 0.000000 0.426504
O O17 0.299719 0.500000 0.190914
O O18 0.250000 0.750000 0.194017
#
# Coordination Sequence:
#
# PCOD9489678 Si02
#       6
#    16  16  16  16  16  16
#     4  10  20  34  55  83 109 138 175 214 259 306
#     4   9  17  30  50  76 104 134 169 210 259 313
#     4   9  17  31  52  78 108 138 170 211 257 306
#     4  10  21  36  53  74 102 137 175 216 264 315
#     4  10  21  36  55  81 112 145 178 213 257 308
#     4  11  23  38  55  77 102 132 173 219 266 315
#
# _framework density 17.893813999999999
#
# number of rings (size 3 to 8) (size 9 to 14) (size 15 to 20)
#    0.000    2.167    1.667    1.500    0.000    5.333 
#    0.000    1.667    0.000    0.500    0.000    7.000 
#    0.000    0.000    0.000    0.000    0.000    0.000 
#
# Total GULP energy -267842.206929 kJ/mol
# GULP energy per Si atom -5580.045978 kJ/mol
# Density = 1.785309 g / cm^3
# Si number density = 17.893814 Si / 1000 Ang^3
#
#
#
# Elastic Constant Matrix: (Units=GPa)
#
#
# Indices 1 2 3 4 5 6 
#
# 1 132.1870 22.5181 58.4397 0.0000 0.0000 0.0000
# 2 22.5181 11.2291 15.2057 0.0000 0.0000 0.0000
# 3 58.4397 15.2057 81.6786 0.0000 0.0000 0.0000
# 4 0.0000 0.0000 0.0000 21.9572 0.0000 0.0000
# 5 0.0000 0.0000 0.0000 0.0000 17.8937 0.0000
# 6 0.0000 0.0000 0.0000 0.0000 0.0000 12.7344
#
#
#
# Elastic Compliance Matrix: (Units=1/GPa)
#
#
# Indices 1 2 3 4 5 6 
#
# 1 0.013469 -0.018665 -0.006162 0.000000 0.000000 0.000000
# 2 -0.018665 0.144938 -0.013628 0.000000 0.000000 0.000000
# 3 -0.006162 -0.013628 0.019189 0.000000 0.000000 0.000000
# 4 0.000000 0.000000 0.000000 0.045543 0.000000 0.000000
# 5 0.000000 0.000000 0.000000 0.000000 0.055885 0.000000
# 6 0.000000 0.000000 0.000000 0.000000 0.000000 0.078528
#
#
# Mechanical properties :
#
#
# Convention : Reuss Voigt Hill
#
# Bulk Modulus (GPa) = 9.93191 46.38017 28.15604
# Shear Modulus (GPa) = 10.68323 19.11248 14.89786
#
# Velocity S-wave (km/s) = 2.44608 3.27173 2.88856
# Velocity P-wave (km/s) = 3.67971 6.34415 5.18597
#
# Compressibility (1/GPa) = 0.10068560
#
# Stress axis : x y z
#
# Youngs Moduli (GPa) = 74.24532 6.89952 52.11363
#
# Poissons Ratio (x) = 0.12878 0.32112
# Poissons Ratio (y) = 1.38582 0.71018
# Poissons Ratio (z) = 0.45749 0.09402
#
# Static dielectric constant tensor:
#      x y z
#    x 1.624030 0.000000 0.000000 
#    y 0.000000 1.627480 0.000000 
#    z 0.000000 0.000000 1.589410 
# 
# From -- ./inp_files/60194.got.cif
#   From: 2010.05.17/outbox.cif.g08.bks.cpg/sg65_31_cif.got.tgz:60194.got - 2010.06.03 17:01:31.
