data_PCOD9489437
_publ_section_title
;
Structure prediction by ZEFSAII (Michael W. Deem and Ramdas Pophale) SiO2 
 PCOD9489437
Probable space group: C M M M
;
_chemical_formula_sum "Si O2"
_cell_formula_units_Z 88
_cell_length_a 22.881710
_cell_length_b 23.039585
_cell_length_c 8.998312
_cell_angle_alpha 90.000000
_cell_angle_beta 90.000000
_cell_angle_gamma 90.000000
_cell_volume 4743.776034
_symmetry_space_group_name_H-M "C M M M"
_symmetry_group_IT_number 65
_symmetry_cell_setting 'orthorhombic'
loop_
_space_group_symop_operation_xyz
x,y,z
-x,-y,z
x,-y,-z
-x,y,-z
-x,-y,-z
x,y,-z
-x,y,z
x,-y,z
1/2+x,1/2+y,z
1/2-x,1/2-y,z
1/2+x,1/2-y,-z
1/2-x,1/2+y,-z
1/2-x,1/2-y,-z
1/2+x,1/2+y,-z
1/2-x,1/2+y,z
1/2+x,1/2-y,z
loop_
_atom_site_type_symbol
_atom_site_label
_atom_site_fract_x
_atom_site_fract_y
_atom_site_fract_z
Si Si1 0.434999 0.718828 0.675891
Si Si2 0.708322 0.000000 0.831058
Si Si3 0.500000 0.932495 0.180633
Si Si4 0.844176 0.879508 0.678796
Si Si5 0.349734 0.500000 0.167992
Si Si6 0.791627 0.620360 0.322383
Si Si7 0.403937 0.837864 0.177815
O O1 0.426087 0.731400 0.500000
O O2 0.500000 0.693271 0.691941
O O3 0.385829 0.673185 0.723858
O O4 0.432089 0.778464 0.765422
O O5 0.692301 0.942851 0.741570
O O6 0.778824 0.000000 0.838780
O O7 0.684956 0.000000 0.000000
O O8 0.443606 0.893458 0.224584
O O9 0.500000 0.000000 0.231501
O O10 0.500000 0.934263 0.000000
O O11 0.846277 0.884919 0.500000
O O12 0.776114 0.868366 0.718955
O O13 0.864397 0.940468 0.748386
O O14 0.372232 0.500000 0.000000
O O15 0.795877 0.621941 0.500000
O O16 0.839547 0.660981 0.248444
O O17 0.400463 0.838979 0.000000
#
# Coordination Sequence:
#
# PCOD9489437 Si02
#       7
#    16   8   8  16   8  16  16
#     4  10  21  39  61  81 106 145 192 236 279 331
#     4   9  17  31  51  77 111 147 182 219 273 333
#     4   9  20  38  57  79 109 148 188 225 272 326
#     4   9  19  36  58  82 112 150 185 225 280 338
#     4   9  17  31  54  84 114 143 178 225 274 326
#     4  10  20  34  53  81 113 145 184 229 278 332
#     4  11  22  37  58  82 111 147 188 232 282 335
#
# _framework density 18.550622000000001
#
# number of rings (size 3 to 8) (size 9 to 14) (size 15 to 20)
#    0.000    2.273    0.909    1.636    1.273    4.364 
#    0.000    4.091    0.000    4.909    0.000    0.000 
#    0.000    0.000    0.000    0.000    0.000    0.000 
#
# Total GULP energy -245388.576532 kJ/mol
# GULP energy per Si atom -5577.013103 kJ/mol
# Density = 1.850840 g / cm^3
# Si number density = 18.550622 Si / 1000 Ang^3
#
#
#
# Elastic Constant Matrix: (Units=GPa)
#
#
# Indices 1 2 3 4 5 6 
#
# 1 104.0150 62.9292 40.4578 0.0000 0.0000 0.0000
# 2 62.9292 105.3899 33.1401 0.0000 0.0000 0.0000
# 3 40.4578 33.1401 47.3813 0.0000 0.0000 0.0000
# 4 0.0000 0.0000 0.0000 25.4972 0.0000 0.0000
# 5 0.0000 0.0000 0.0000 0.0000 15.5526 0.0000
# 6 0.0000 0.0000 0.0000 0.0000 0.0000 -14.0435
#
#
#
# Elastic Compliance Matrix: (Units=1/GPa)
#
#
# Indices 1 2 3 4 5 6 
#
# 1 0.018222 -0.007676 -0.010190 0.000000 0.000000 0.000000
# 2 -0.007676 0.015397 -0.004215 0.000000 0.000000 0.000000
# 3 -0.010190 -0.004215 0.032755 0.000000 0.000000 0.000000
# 4 0.000000 0.000000 0.000000 0.039220 0.000000 0.000000
# 5 0.000000 0.000000 0.000000 0.000000 0.064298 0.000000
# 6 0.000000 0.000000 0.000000 0.000000 0.000000 -0.071208
#
#
# Mechanical properties :
#
#
# Convention : Reuss Voigt Hill
#
# Bulk Modulus (GPa) = 45.02233 58.87116 51.94674
# Shear Modulus (GPa) = 33.27776 13.41853 23.34814
#
# Velocity S-wave (km/s) = 4.24003 2.69243 3.55155
# Velocity P-wave (km/s) = 6.94932 6.43971 6.69936
#
# Compressibility (1/GPa) = 0.02221120
#
# Stress axis : x y z
#
# Youngs Moduli (GPa) = 54.88021 64.94603 30.52986
#
# Poissons Ratio (x) = 0.49852 0.31110
# Poissons Ratio (y) = 0.42125 0.12869
# Poissons Ratio (z) = 0.55924 0.27376
#
# Static dielectric constant tensor:
#      x y z
#    x 1.649200 0.000000 0.000000 
#    y 0.000000 1.737030 0.000000 
#    z 0.000000 0.000000 1.624470 
# 
# From -- ./inp_files/14028.got.cif
#   From: 2010.05.17/outbox.cif.g08.bks.cpg/sg65_8_cif.got.tgz:14028.got - 2010.06.03 17:01:31.
