data_PCOD9489469
_publ_section_title
;
Structure prediction by ZEFSAII (Michael W. Deem and Ramdas Pophale) SiO2 
 PCOD9489469
Probable space group: C M M M
;
_chemical_formula_sum "Si O2"
_cell_formula_units_Z 80
_cell_length_a 26.813074
_cell_length_b 16.938802
_cell_length_c 9.216159
_cell_angle_alpha 90.000000
_cell_angle_beta 90.000000
_cell_angle_gamma 90.000000
_cell_volume 4185.807550
_symmetry_space_group_name_H-M "C M M M"
_symmetry_group_IT_number 65
_symmetry_cell_setting 'orthorhombic'
loop_
_space_group_symop_operation_xyz
x,y,z
-x,-y,z
x,-y,-z
-x,y,-z
-x,-y,-z
x,y,-z
-x,y,z
x,-y,z
1/2+x,1/2+y,z
1/2-x,1/2-y,z
1/2+x,1/2-y,-z
1/2-x,1/2+y,-z
1/2-x,1/2-y,-z
1/2+x,1/2+y,-z
1/2-x,1/2+y,z
1/2+x,1/2-y,z
loop_
_atom_site_type_symbol
_atom_site_label
_atom_site_fract_x
_atom_site_fract_y
_atom_site_fract_z
Si Si1 0.445895 0.298627 0.171958
Si Si2 0.555239 0.870312 0.673397
Si Si3 0.243902 0.089056 0.668515
Si Si4 0.838080 0.814105 0.832565
Si Si5 0.654791 0.123272 0.169091
O O1 0.500000 0.338456 0.190861
O O2 0.446348 0.220330 0.270126
O O3 0.394330 0.343228 0.202544
O O4 0.442527 0.275279 0.000000
O O5 0.561472 0.873712 0.500000
O O6 0.500000 0.903541 0.708491
O O7 0.603961 0.903579 0.752585
O O8 0.253490 0.106026 0.500000
O O9 0.204206 0.149747 0.733032
O O10 0.295761 0.092730 0.754049
O O11 0.223658 0.000000 0.681503
O O12 0.841114 0.719097 0.820893
O O13 0.826374 0.833573 0.000000
O O14 0.653434 0.102441 0.000000
#
# Coordination Sequence:
#
# PCOD9489469 Si02
#       5
#    16  16  16  16  16
#     4   8  14  26  45  71 103 133 161 199 245 290
#     4   9  16  26  44  73 106 135 162 195 239 290
#     4  11  24  38  51  70  98 132 169 209 254 302
#     4   9  18  32  52  78 103 129 165 205 245 294
#     4  10  20  34  54  78 102 130 166 207 249 294
#
# _framework density 19.112202
#
# number of rings (size 3 to 8) (size 9 to 14) (size 15 to 20)
#    0.000    2.600    0.000    3.600    0.000    9.200 
#    0.000    0.000    0.000    1.200    0.000    8.400 
#    0.000    0.000    0.000    0.000    0.000    0.000 
#
# Total GULP energy -222983.792759 kJ/mol
# GULP energy per Si atom -5574.594819 kJ/mol
# Density = 1.906870 g / cm^3
# Si number density = 19.112202 Si / 1000 Ang^3
#
#
#
# Elastic Constant Matrix: (Units=GPa)
#
#
# Indices 1 2 3 4 5 6 
#
# 1 151.7283 39.2126 74.6888 0.0000 0.0000 0.0000
# 2 39.2126 27.0524 34.1394 0.0000 0.0000 0.0000
# 3 74.6888 34.1394 101.2989 0.0000 0.0000 0.0000
# 4 0.0000 0.0000 0.0000 -17.5680 0.0000 0.0000
# 5 0.0000 0.0000 0.0000 0.0000 37.7435 0.0000
# 6 0.0000 0.0000 0.0000 0.0000 0.0000 -20.6515
#
#
#
# Elastic Compliance Matrix: (Units=1/GPa)
#
#
# Indices 1 2 3 4 5 6 
#
# 1 0.011908 -0.010755 -0.005155 0.000000 0.000000 0.000000
# 2 -0.010755 0.074035 -0.017021 0.000000 0.000000 0.000000
# 3 -0.005155 -0.017021 0.019409 0.000000 0.000000 0.000000
# 4 0.000000 0.000000 0.000000 -0.056922 0.000000 0.000000
# 5 0.000000 0.000000 0.000000 0.000000 0.026495 0.000000
# 6 0.000000 0.000000 0.000000 0.000000 0.000000 -0.048423
#
#
# Mechanical properties :
#
#
# Convention : Reuss Voigt Hill
#
# Bulk Modulus (GPa) = 25.32337 64.01793 44.67065
# Shear Modulus (GPa) = 47.38079 8.70740 28.04409
#
# Velocity S-wave (km/s) = 4.98444 2.13678 3.83474
# Velocity P-wave (km/s) = 6.81211 6.29733 6.55977
#
# Compressibility (1/GPa) = 0.03948921
#
# Stress axis : x y z
#
# Youngs Moduli (GPa) = 83.97804 13.50718 51.52158
#
# Poissons Ratio (x) = 0.14526 0.26561
# Poissons Ratio (y) = 0.90315 0.87697
# Poissons Ratio (z) = 0.43293 0.22991
#
# Static dielectric constant tensor:
#      x y z
#    x 1.704490 0.000000 0.000000 
#    y 0.000000 1.644210 0.000000 
#    z 0.000000 0.000000 1.638100 
# 
# From -- ./inp_files/9572.got.cif
#   From: 2010.05.17/outbox.cif.g08.bks.cpg/sg65_5_cif.got.tgz:9572.got - 2010.06.03 17:01:31.
