data_PCOD9489441
_publ_section_title
;
Structure prediction by ZEFSAII (Michael W. Deem and Ramdas Pophale) SiO2 
 PCOD9489441
Probable space group: C M M M
;
_chemical_formula_sum "Si O2"
_cell_formula_units_Z 116
_cell_length_a 27.895350
_cell_length_b 27.279841
_cell_length_c 7.836209
_cell_angle_alpha 90.000000
_cell_angle_beta 90.000000
_cell_angle_gamma 90.000000
_cell_volume 5963.203909
_symmetry_space_group_name_H-M "C M M M"
_symmetry_group_IT_number 65
_symmetry_cell_setting 'orthorhombic'
loop_
_space_group_symop_operation_xyz
x,y,z
-x,-y,z
x,-y,-z
-x,y,-z
-x,-y,-z
x,y,-z
-x,y,z
x,-y,z
1/2+x,1/2+y,z
1/2-x,1/2-y,z
1/2+x,1/2-y,-z
1/2-x,1/2+y,-z
1/2-x,1/2-y,-z
1/2+x,1/2+y,-z
1/2-x,1/2+y,z
1/2+x,1/2-y,z
loop_
_atom_site_type_symbol
_atom_site_label
_atom_site_fract_x
_atom_site_fract_y
_atom_site_fract_z
Si Si1 0.217792 0.444554 0.798258
Si Si2 0.147997 0.640749 0.700801
Si Si3 0.400836 0.287911 0.796969
Si Si4 0.000000 0.084062 0.000000
Si Si5 0.322776 0.444128 0.295489
Si Si6 0.053252 0.685539 0.796195
Si Si7 0.304221 0.759073 0.707179
Si Si8 0.923175 0.895126 0.300338
O O1 0.215048 0.500000 0.725480
O O2 0.176699 0.408433 0.736612
O O3 0.271050 0.424479 0.760033
O O4 0.213140 0.447984 0.000000
O O5 0.146295 0.647638 0.500000
O O6 0.093490 0.644990 0.762068
O O7 0.176786 0.688067 0.770932
O O8 0.426406 0.238008 0.733548
O O9 0.344271 0.279954 0.764275
O O10 0.421654 0.336140 0.710363
O O11 0.409080 0.292739 0.000000
O O12 0.041263 0.085832 0.846027
O O13 0.321442 0.446246 0.500000
O O14 0.327030 0.500000 0.228871
O O15 0.369787 0.413619 0.252644
O O16 0.000000 0.675653 0.729265
O O17 0.050261 0.690342 0.000000
O O18 0.303844 0.758599 0.500000
O O19 0.250000 0.750000 0.765016
O O20 0.933359 0.909511 0.500000
#
# Coordination Sequence:
#
# PCOD9489441 Si02
#       8
#    16  16  16   4  16  16  16  16
#     4  10  21  36  59  88 117 151 190 235 290 350
#     4  10  20  34  53  81 116 151 191 239 288 344
#     4  10  20  34  55  82 116 151 199 243 288 348
#     4  12  26  44  61  88 118 148 200 252 299 366
#     4   9  20  40  63  87 115 148 189 236 294 361
#     4   9  19  35  57  80 111 155 196 241 289 338
#     4   9  19  34  50  74 112 155 196 235 285 350
#     4  11  24  41  63  87 117 155 196 250 306 357
#
# _framework density 19.452632000000001
#
# number of rings (size 3 to 8) (size 9 to 14) (size 15 to 20)
#    0.000    2.207    0.690    1.448    3.862    2.483 
#    0.000    0.690    0.000    2.069    0.000    2.897 
#    0.000    0.000    0.000    0.000    0.000    0.000 
#
# Total GULP energy -323050.012862 kJ/mol
# GULP energy per Si atom -5569.827808 kJ/mol
# Density = 1.940836 g / cm^3
# Si number density = 19.452632 Si / 1000 Ang^3
#
#
#
# Elastic Constant Matrix: (Units=GPa)
#
#
# Indices 1 2 3 4 5 6 
#
# 1 161.6262 36.5107 29.4382 0.0000 0.0000 0.0000
# 2 36.5107 32.1217 3.9551 0.0000 0.0000 0.0000
# 3 29.4382 3.9551 59.0313 0.0000 0.0000 0.0000
# 4 0.0000 0.0000 0.0000 18.0895 0.0000 0.0000
# 5 0.0000 0.0000 0.0000 0.0000 39.4443 0.0000
# 6 0.0000 0.0000 0.0000 0.0000 0.0000 7.2069
#
#
#
# Elastic Compliance Matrix: (Units=1/GPa)
#
#
# Indices 1 2 3 4 5 6 
#
# 1 0.009132 -0.009901 -0.003891 0.000000 0.000000 0.000000
# 2 -0.009901 0.042125 0.002115 0.000000 0.000000 0.000000
# 3 -0.003891 0.002115 0.018739 0.000000 0.000000 0.000000
# 4 0.000000 0.000000 0.000000 0.055281 0.000000 0.000000
# 5 0.000000 0.000000 0.000000 0.000000 0.025352 0.000000
# 6 0.000000 0.000000 0.000000 0.000000 0.000000 0.138756
#
#
# Mechanical properties :
#
#
# Convention : Reuss Voigt Hill
#
# Bulk Modulus (GPa) = 21.43958 43.62079 32.53018
# Shear Modulus (GPa) = 15.23061 25.13983 20.18522
#
# Velocity S-wave (km/s) = 2.80118 3.59884 3.22477
# Velocity P-wave (km/s) = 4.63761 6.30410 5.53395
#
# Compressibility (1/GPa) = 0.04664272
#
# Stress axis : x y z
#
# Youngs Moduli (GPa) = 109.50018 23.73878 53.36530
#
# Poissons Ratio (x) = 0.23504 0.20764
# Poissons Ratio (y) = 1.08418 -0.11288
# Poissons Ratio (z) = 0.42605 -0.05021
#
# Static dielectric constant tensor:
#      x y z
#    x 1.731580 0.000000 0.000000 
#    y 0.000000 1.564240 0.000000 
#    z 0.000000 0.000000 1.699490 
# 
# From -- ./inp_files/14881.got.cif
#   From: 2010.05.17/outbox.cif.g08.bks.cpg/sg65_8_cif.got.tgz:14881.got - 2010.06.03 17:01:31.
