data_PCOD9489144
_publ_section_title
;
Structure prediction by ZEFSAII (Michael W. Deem and Ramdas Pophale) SiO2 
 PCOD9489144
Probable space group: C M M M
;
_chemical_formula_sum "Si O2"
_cell_formula_units_Z 104
_cell_length_a 28.396095
_cell_length_b 7.777470
_cell_length_c 24.385192
_cell_angle_alpha 90.000000
_cell_angle_beta 90.000000
_cell_angle_gamma 90.000000
_cell_volume 5385.464215
_symmetry_space_group_name_H-M "C M M M"
_symmetry_group_IT_number 65
_symmetry_cell_setting 'orthorhombic'
loop_
_space_group_symop_operation_xyz
x,y,z
-x,-y,z
x,-y,-z
-x,y,-z
-x,-y,-z
x,y,-z
-x,y,z
x,-y,z
1/2+x,1/2+y,z
1/2-x,1/2-y,z
1/2+x,1/2-y,-z
1/2-x,1/2+y,-z
1/2-x,1/2-y,-z
1/2+x,1/2+y,-z
1/2-x,1/2+y,z
1/2+x,1/2-y,z
loop_
_atom_site_type_symbol
_atom_site_label
_atom_site_fract_x
_atom_site_fract_y
_atom_site_fract_z
Si Si1 0.054402 0.711179 0.000000
Si Si2 0.125684 0.701574 0.907762
Si Si3 0.804119 0.203263 0.320571
Si Si4 0.304058 0.295929 0.000000
Si Si5 0.139975 0.293038 0.785987
Si Si6 0.947374 0.708266 0.286260
Si Si7 0.391293 0.701550 0.608498
Si Si8 0.055351 0.788502 0.500000
O O1 0.082770 0.770393 0.054440
O O2 0.056328 0.500000 0.000000
O O3 0.000000 0.761847 0.000000
O O4 0.114732 0.500000 0.899353
O O5 0.138685 0.774475 0.848126
O O6 0.170430 0.719502 0.946990
O O7 0.750000 0.250000 0.331036
O O8 0.820029 0.246242 0.258302
O O9 0.843317 0.276113 0.363580
O O10 0.807843 0.000000 0.325176
O O11 0.250000 0.250000 0.000000
O O12 0.310973 0.500000 0.000000
O O13 0.141457 0.500000 0.788438
O O14 0.091067 0.237937 0.758047
O O15 0.946183 0.500000 0.289479
O O16 0.930172 0.779900 0.344104
O O17 0.000000 0.762279 0.272800
O O18 0.382270 0.500000 0.597759
O O19 0.415161 0.770968 0.553290
O O20 0.000000 0.735678 0.500000
O O21 0.054393 0.000000 0.500000
#
# Coordination Sequence:
#
# PCOD9489144 Si02
#       8
#     8  16  16   8  16  16  16   8
#     4   8  14  26  47  73  98 126 160 196 232 273
#     4   9  18  33  51  73 100 127 160 200 238 281
#     4  10  20  34  52  72  96 127 163 203 248 297
#     4  11  22  36  54  72  93 122 154 192 241 292
#     4   9  18  32  50  72  99 129 161 199 240 284
#     4   9  17  29  46  71 103 134 161 194 239 286
#     4   9  18  32  50  72  97 128 167 206 242 285
#     4   9  16  28  50  77 101 127 163 205 242 279
#
# _framework density 19.311240000000002
#
# number of rings (size 3 to 8) (size 9 to 14) (size 15 to 20)
#    0.000    2.769    0.000    2.077    0.000    3.385 
#    0.000    3.846    0.000    5.077    0.000    6.462 
#    0.000    0.000    0.000    0.000    0.000    0.000 
#
# Total GULP energy -289700.933593 kJ/mol
# GULP energy per Si atom -5571.171800 kJ/mol
# Density = 1.926729 g / cm^3
# Si number density = 19.311240 Si / 1000 Ang^3
#
#
#
# Elastic Constant Matrix: (Units=GPa)
#
#
# Indices 1 2 3 4 5 6 
#
# 1 137.2229 -2.6716 67.1570 0.0000 0.0000 0.0000
# 2 -2.6716 27.1105 4.4033 0.0000 0.0000 0.0000
# 3 67.1570 4.4033 170.1990 0.0000 0.0000 0.0000
# 4 0.0000 0.0000 0.0000 11.8987 0.0000 0.0000
# 5 0.0000 0.0000 0.0000 0.0000 -1.5289 0.0000
# 6 0.0000 0.0000 0.0000 0.0000 0.0000 8.3067
#
#
#
# Elastic Compliance Matrix: (Units=1/GPa)
#
#
# Indices 1 2 3 4 5 6 
#
# 1 0.009091 0.001485 -0.003625 0.000000 0.000000 0.000000
# 2 0.001485 0.037284 -0.001550 0.000000 0.000000 0.000000
# 3 -0.003625 -0.001550 0.007346 0.000000 0.000000 0.000000
# 4 0.000000 0.000000 0.000000 0.084043 0.000000 0.000000
# 5 0.000000 0.000000 0.000000 0.000000 -0.654073 0.000000
# 6 0.000000 0.000000 0.000000 0.000000 0.000000 0.120385
#
#
# Mechanical properties :
#
#
# Convention : Reuss Voigt Hill
#
# Bulk Modulus (GPa) = 21.58029 52.47887 37.02958
# Shear Modulus (GPa) = -13.40139 21.44488 4.02175
#
# Velocity S-wave (km/s) = -2.63719 3.33601 1.44469
# Velocity P-wave (km/s) = 1.38789 6.48636 4.69037
#
# Compressibility (1/GPa) = 0.04633858
#
# Stress axis : x y z
#
# Youngs Moduli (GPa) = 110.00405 26.82105 136.12705
#
# Poissons Ratio (x) = -0.03982 0.49351
# Poissons Ratio (y) = -0.16332 0.21105
# Poissons Ratio (z) = 0.39880 0.04158
#
# Static dielectric constant tensor:
#      x y z
#    x 1.691950 0.000000 0.000000 
#    y 0.000000 1.721680 0.000000 
#    z 0.000000 0.000000 1.681370 
# 
# From -- ./inp_files/71949.got.cif
#   From: 2010.05.17/outbox.cif.g08.bks.cpg/sg65_36_cif.got.tgz:71949.got - 2010.06.03 17:01:31.
