data_PCOD9489861
_publ_section_title
;
Structure prediction by ZEFSAII (Michael W. Deem and Ramdas Pophale) SiO2 
 PCOD9489861
Probable space group: C M M M
;
_chemical_formula_sum "Si O2"
_cell_formula_units_Z 104
_cell_length_a 24.928461
_cell_length_b 29.371491
_cell_length_c 8.486422
_cell_angle_alpha 90.000000
_cell_angle_beta 90.000000
_cell_angle_gamma 90.000000
_cell_volume 6213.639955
_symmetry_space_group_name_H-M "C M M M"
_symmetry_group_IT_number 65
_symmetry_cell_setting 'orthorhombic'
loop_
_space_group_symop_operation_xyz
x,y,z
-x,-y,z
x,-y,-z
-x,y,-z
-x,-y,-z
x,y,-z
-x,y,z
x,-y,z
1/2+x,1/2+y,z
1/2-x,1/2-y,z
1/2+x,1/2-y,-z
1/2-x,1/2+y,-z
1/2-x,1/2-y,-z
1/2+x,1/2+y,-z
1/2-x,1/2+y,z
1/2+x,1/2-y,z
loop_
_atom_site_type_symbol
_atom_site_label
_atom_site_fract_x
_atom_site_fract_y
_atom_site_fract_z
Si Si1 0.065160 0.275172 0.181965
Si Si2 0.062057 0.625239 0.191129
Si Si3 0.062191 0.175675 0.808930
Si Si4 0.438169 0.500000 0.307859
Si Si5 0.853482 0.552459 0.688695
Si Si6 0.126952 0.089594 0.688698
Si Si7 0.735994 0.552769 0.188626
O O1 0.079906 0.324403 0.250493
O O2 0.080006 0.225932 0.250365
O O3 0.000000 0.275108 0.178638
O O4 0.083651 0.275213 0.000000
O O5 0.101105 0.586019 0.248798
O O6 0.000000 0.617637 0.238737
O O7 0.062698 0.626680 0.000000
O O8 0.099220 0.135105 0.751026
O O9 0.000000 0.168020 0.760934
O O10 0.062705 0.177063 0.000000
O O11 0.500000 0.500000 0.256185
O O12 0.438104 0.500000 0.500000
O O13 0.407137 0.545414 0.256200
O O14 0.853217 0.553228 0.500000
O O15 0.862733 0.500000 0.740644
O O16 0.794651 0.566169 0.750184
O O17 0.125967 0.089956 0.500000
O O18 0.187528 0.082621 0.746216
O O19 0.727015 0.500000 0.239588
O O20 0.735767 0.554078 0.000000
#
# Coordination Sequence:
#
# PCOD9489861 Si02
#       7
#    16  16  16   8  16  16  16
#     4   7  12  26  48  71  96 128 164 201 241 287
#     4   9  17  31  53  79 104 132 166 200 238 286
#     4   9  17  30  48  71  99 130 166 207 248 290
#     4   9  18  30  43  63  95 133 164 193 238 295
#     4  10  21  35  51  73 103 135 164 196 241 294
#     4  11  20  31  48  69  98 132 166 204 249 299
#     4  10  20  35  54  72  92 122 168 214 248 288
#
# _framework density 16.737371
#
# number of rings (size 3 to 8) (size 9 to 14) (size 15 to 20)
#    0.000    2.692    0.769    3.692    0.000    3.077 
#    0.000    2.308    0.000    5.538    0.000    6.462 
#    0.000    0.000    0.000    0.000    0.000    0.000 
#
# Total GULP energy -289764.375964 kJ/mol
# GULP energy per Si atom -5572.391845 kJ/mol
# Density = 1.669928 g / cm^3
# Si number density = 16.737371 Si / 1000 Ang^3
#
#
#
# Elastic Constant Matrix: (Units=GPa)
#
#
# Indices 1 2 3 4 5 6 
#
# 1 117.2913 96.4754 24.9143 0.0000 0.0000 0.0000
# 2 96.4754 152.8300 26.3730 0.0000 0.0000 0.0000
# 3 24.9143 26.3730 21.5775 0.0000 0.0000 0.0000
# 4 0.0000 0.0000 0.0000 12.5230 0.0000 0.0000
# 5 0.0000 0.0000 0.0000 0.0000 11.4031 0.0000
# 6 0.0000 0.0000 0.0000 0.0000 0.0000 6.5464
#
#
#
# Elastic Compliance Matrix: (Units=1/GPa)
#
#
# Indices 1 2 3 4 5 6 
#
# 1 0.019092 -0.010453 -0.009269 0.000000 0.000000 0.000000
# 2 -0.010453 0.014015 -0.005060 0.000000 0.000000 0.000000
# 3 -0.009269 -0.005060 0.063232 0.000000 0.000000 0.000000
# 4 0.000000 0.000000 0.000000 0.079853 0.000000 0.000000
# 5 0.000000 0.000000 0.000000 0.000000 0.087696 0.000000
# 6 0.000000 0.000000 0.000000 0.000000 0.000000 0.152756
#
#
# Mechanical properties :
#
#
# Convention : Reuss Voigt Hill
#
# Bulk Modulus (GPa) = 21.37900 65.24715 43.31308
# Shear Modulus (GPa) = 10.37776 15.69024 13.03400
#
# Velocity S-wave (km/s) = 2.49275 3.06508 2.79361
# Velocity P-wave (km/s) = 4.59195 7.18289 6.02826
#
# Compressibility (1/GPa) = 0.04677486
#
# Stress axis : x y z
#
# Youngs Moduli (GPa) = 52.37721 71.35302 15.81477
#
# Poissons Ratio (x) = 0.74583 0.14659
# Poissons Ratio (y) = 0.54748 0.08003
# Poissons Ratio (z) = 0.48549 0.36108
#
# Static dielectric constant tensor:
#      x y z
#    x 1.531090 0.000000 0.000000 
#    y 0.000000 1.587780 0.000000 
#    z 0.000000 0.000000 1.573440 
# 
# From -- ./inp_files/14749.got.cif
#   From: 2010.05.17/outbox.cif.g08.bks.cpg/sg65_8_cif.got.tgz:14749.got - 2010.06.03 17:01:31.
