data_PCOD9489857
_publ_section_title
;
Structure prediction by ZEFSAII (Michael W. Deem and Ramdas Pophale) SiO2 
 PCOD9489857
Probable space group: C M M M
;
_chemical_formula_sum "Si O2"
_cell_formula_units_Z 80
_cell_length_a 8.437513
_cell_length_b 29.633123
_cell_length_c 22.354670
_cell_angle_alpha 90.000000
_cell_angle_beta 90.000000
_cell_angle_gamma 90.000000
_cell_volume 5589.335023
_symmetry_space_group_name_H-M "C M M M"
_symmetry_group_IT_number 65
_symmetry_cell_setting 'orthorhombic'
loop_
_space_group_symop_operation_xyz
x,y,z
-x,-y,z
x,-y,-z
-x,y,-z
-x,-y,-z
x,y,-z
-x,y,z
x,-y,z
1/2+x,1/2+y,z
1/2-x,1/2-y,z
1/2+x,1/2-y,-z
1/2-x,1/2+y,-z
1/2-x,1/2-y,-z
1/2+x,1/2+y,-z
1/2-x,1/2+y,z
1/2+x,1/2-y,z
loop_
_atom_site_type_symbol
_atom_site_label
_atom_site_fract_x
_atom_site_fract_y
_atom_site_fract_z
Si Si1 0.818976 0.945320 0.138503
Si Si2 0.189643 0.948319 0.500000
Si Si3 0.311151 0.448132 0.278081
Si Si4 0.186718 0.391765 0.612794
Si Si5 0.689263 0.298744 0.569149
Si Si6 0.500000 0.054938 0.069724
O O1 0.789654 0.935406 0.208606
O O2 0.665408 0.929972 0.100804
O O3 0.000000 0.929980 0.122533
O O4 0.823645 0.000000 0.133673
O O5 0.243611 0.921781 0.441130
O O6 0.000000 0.949315 0.500000
O O7 0.248684 0.000000 0.500000
O O8 0.500000 0.447788 0.289421
O O9 0.255556 0.500000 0.286091
O O10 0.230628 0.415220 0.324916
O O11 0.252998 0.341292 0.606616
O O12 0.000000 0.390134 0.605344
O O13 0.745082 0.304819 0.500000
O O14 0.500000 0.298313 0.568614
O O15 0.750000 0.250000 0.589846
O O16 0.500000 0.000000 0.073434
O O17 0.500000 0.067301 0.000000
#
# Coordination Sequence:
#
# PCOD9489857 Si02
#       6
#    16   8  16  16  16   8
#     4   8  15  27  41  57  81 113 149 188 225 264
#     4  11  23  37  48  59  84 117 145 183 233 273
#     4   9  18  32  47  62  84 118 155 189 226 269
#     4  12  23  32  47  69  89 110 144 185 226 276
#     4  10  20  35  54  69  86 109 136 176 225 272
#     4   9  16  24  38  60  84 111 147 189 227 262
#
# _framework density 14.312973
#
# number of rings (size 3 to 8) (size 9 to 14) (size 15 to 20)
#    0.000    2.200    1.000    4.500    1.400    4.800 
#    0.000    2.000    0.000    0.000    0.000    0.000 
#    0.000    0.000    0.000    0.000    0.000    1.000 
#
# Total GULP energy -222995.121682 kJ/mol
# GULP energy per Si atom -5574.878042 kJ/mol
# Density = 1.428040 g / cm^3
# Si number density = 14.312973 Si / 1000 Ang^3
#
#
#
# Elastic Constant Matrix: (Units=GPa)
#
#
# Indices 1 2 3 4 5 6 
#
# 1 95.1073 38.4992 54.4623 0.0000 0.0000 0.0000
# 2 38.4992 80.0158 36.9503 0.0000 0.0000 0.0000
# 3 54.4623 36.9503 63.3606 0.0000 0.0000 0.0000
# 4 0.0000 0.0000 0.0000 0.3010 0.0000 0.0000
# 5 0.0000 0.0000 0.0000 0.0000 27.8553 0.0000
# 6 0.0000 0.0000 0.0000 0.0000 0.0000 19.3245
#
#
#
# Elastic Compliance Matrix: (Units=1/GPa)
#
#
# Indices 1 2 3 4 5 6 
#
# 1 0.021045 -0.002425 -0.016675 0.000000 0.000000 0.000000
# 2 -0.002425 0.017383 -0.008053 0.000000 0.000000 0.000000
# 3 -0.016675 -0.008053 0.034812 0.000000 0.000000 0.000000
# 4 0.000000 0.000000 0.000000 3.321937 0.000000 0.000000
# 5 0.000000 0.000000 0.000000 0.000000 0.035900 0.000000
# 6 0.000000 0.000000 0.000000 0.000000 0.000000 0.051748
#
#
# Mechanical properties :
#
#
# Convention : Reuss Voigt Hill
#
# Bulk Modulus (GPa) = 52.81506 55.36747 54.09126
# Shear Modulus (GPa) = 1.41106 16.73428 9.07267
#
# Velocity S-wave (km/s) = 0.99398 3.42302 2.52042
# Velocity P-wave (km/s) = 6.18850 7.37497 6.80763
#
# Compressibility (1/GPa) = 0.01893399
#
# Stress axis : x y z
#
# Youngs Moduli (GPa) = 47.51717 57.52716 28.72568
#
# Poissons Ratio (x) = 0.13952 0.47900
# Poissons Ratio (y) = 0.11525 0.23132
# Poissons Ratio (z) = 0.79235 0.46325
#
# Static dielectric constant tensor:
#      x y z
#    x 1.493940 0.000000 0.000000 
#    y 0.000000 1.449880 0.000000 
#    z 0.000000 0.000000 1.461580 
# 
# From -- ./inp_files/60073.got.cif
#   From: 2010.05.17/outbox.cif.g08.bks.cpg/sg65_31_cif.got.tgz:60073.got - 2010.06.03 17:01:31.
