data_PCOD9489107
_publ_section_title
;
Structure prediction by ZEFSAII (Michael W. Deem and Ramdas Pophale) SiO2 
 PCOD9489107
Probable space group: C M M M
;
_chemical_formula_sum "Si O2"
_cell_formula_units_Z 80
_cell_length_a 8.696409
_cell_length_b 20.119043
_cell_length_c 26.627343
_cell_angle_alpha 90.000000
_cell_angle_beta 90.000000
_cell_angle_gamma 90.000000
_cell_volume 4658.811173
_symmetry_space_group_name_H-M "C M M M"
_symmetry_group_IT_number 65
_symmetry_cell_setting 'orthorhombic'
loop_
_space_group_symop_operation_xyz
x,y,z
-x,-y,z
x,-y,-z
-x,y,-z
-x,-y,-z
x,y,-z
-x,y,z
x,-y,z
1/2+x,1/2+y,z
1/2-x,1/2-y,z
1/2+x,1/2-y,-z
1/2-x,1/2+y,-z
1/2-x,1/2-y,-z
1/2+x,1/2+y,-z
1/2-x,1/2+y,z
1/2+x,1/2-y,z
loop_
_atom_site_type_symbol
_atom_site_label
_atom_site_fract_x
_atom_site_fract_y
_atom_site_fract_z
Si Si1 0.322023 0.919254 0.500000
Si Si2 0.185470 0.923213 0.105922
Si Si3 0.186581 0.577560 0.390016
Si Si4 0.321970 0.919359 0.000000
Si Si5 0.185542 0.177005 0.192376
Si Si6 0.684477 0.676666 0.692562
O O1 0.500000 0.897183 0.500000
O O2 0.256275 0.900292 0.445695
O O3 0.323869 0.000000 0.500000
O O4 0.243533 0.898058 0.051886
O O5 0.237764 0.876767 0.151554
O O6 0.000000 0.923296 0.105161
O O7 0.236008 0.000000 0.112641
O O8 0.228539 0.500000 0.382705
O O9 0.250980 0.623753 0.346602
O O10 0.000000 0.580574 0.390486
O O11 0.500000 0.900534 0.000000
O O12 0.311259 0.000000 0.000000
O O13 0.250000 0.250000 0.181024
O O14 0.229501 0.159965 0.249786
O O15 0.000000 0.179692 0.190766
O O16 0.500000 0.678345 0.689859
O O17 0.750000 0.750000 0.681744
#
# Coordination Sequence:
#
# PCOD9489107 Si02
#       6
#     8  16  16   8  16  16
#     4   7  12  26  48  71  96 127 159 193 238 289
#     4   9  17  31  51  72  94 123 158 192 229 278
#     4   9  17  31  52  76 100 127 161 200 242 290
#     4   9  17  29  46  71 100 125 151 189 236 277
#     4   9  19  34  51  70  94 126 160 196 238 283
#     4  10  20  34  51  71  98 131 165 202 245 291
#
# _framework density 17.171762999999999
#
# number of rings (size 3 to 8) (size 9 to 14) (size 15 to 20)
#    0.000    3.000    0.000    2.100    0.000    4.000 
#    0.000    3.500    0.000    4.200    0.000    0.000 
#    0.000    0.000    0.000    0.000    0.000    0.000 
#
# Total GULP energy -222801.018424 kJ/mol
# GULP energy per Si atom -5570.025461 kJ/mol
# Density = 1.713268 g / cm^3
# Si number density = 17.171763 Si / 1000 Ang^3
#
#
#
# Elastic Constant Matrix: (Units=GPa)
#
#
# Indices 1 2 3 4 5 6 
#
# 1 16.1346 25.3438 35.6147 0.0000 0.0000 0.0000
# 2 25.3438 86.1707 107.7691 0.0000 0.0000 0.0000
# 3 35.6147 107.7691 183.4190 0.0000 0.0000 0.0000
# 4 0.0000 0.0000 0.0000 -20.4433 0.0000 0.0000
# 5 0.0000 0.0000 0.0000 0.0000 18.9894 0.0000
# 6 0.0000 0.0000 0.0000 0.0000 0.0000 22.6048
#
#
#
# Elastic Compliance Matrix: (Units=1/GPa)
#
#
# Indices 1 2 3 4 5 6 
#
# 1 0.119546 -0.023114 -0.009631 0.000000 0.000000 0.000000
# 2 -0.023114 0.048232 -0.023851 0.000000 0.000000 0.000000
# 3 -0.009631 -0.023851 0.021336 0.000000 0.000000 0.000000
# 4 0.000000 0.000000 0.000000 -0.048916 0.000000 0.000000
# 5 0.000000 0.000000 0.000000 0.000000 0.052661 0.000000
# 6 0.000000 0.000000 0.000000 0.000000 0.000000 0.044238
#
#
# Mechanical properties :
#
#
# Convention : Reuss Voigt Hill
#
# Bulk Modulus (GPa) = 13.17166 69.24216 41.20691
# Shear Modulus (GPa) = 13.31209 12.02995 12.67102
#
# Velocity S-wave (km/s) = 2.78732 2.64969 2.71938
# Velocity P-wave (km/s) = 4.24806 7.05493 5.82314
#
# Compressibility (1/GPa) = 0.07592059
#
# Stress axis : x y z
#
# Youngs Moduli (GPa) = 8.36500 20.73294 46.86892
#
# Poissons Ratio (x) = 0.47922 0.45142
# Poissons Ratio (y) = 0.19335 1.11788
# Poissons Ratio (z) = 0.08057 0.49451
#
# Static dielectric constant tensor:
#      x y z
#    x 1.581160 0.000000 0.000000 
#    y 0.000000 1.552580 0.000000 
#    z 0.000000 0.000000 1.599210 
# 
# From -- ./inp_files/67280.got.cif
#   From: 2010.05.17/outbox.cif.g08.bks.cpg/sg65_34_cif.got.tgz:67280.got - 2010.06.03 17:01:31.
