data_PCOD9489136
_publ_section_title
;
Structure prediction by ZEFSAII (Michael W. Deem and Ramdas Pophale) SiO2 
 PCOD9489136
Probable space group: C M M M
;
_chemical_formula_sum "Si O2"
_cell_formula_units_Z 72
_cell_length_a 8.948213
_cell_length_b 28.886363
_cell_length_c 18.839058
_cell_angle_alpha 90.000000
_cell_angle_beta 90.000000
_cell_angle_gamma 90.000000
_cell_volume 4869.544747
_symmetry_space_group_name_H-M "C M M M"
_symmetry_group_IT_number 65
_symmetry_cell_setting 'orthorhombic'
loop_
_space_group_symop_operation_xyz
x,y,z
-x,-y,z
x,-y,-z
-x,y,-z
-x,-y,-z
x,y,-z
-x,y,z
x,-y,z
1/2+x,1/2+y,z
1/2-x,1/2-y,z
1/2+x,1/2-y,-z
1/2-x,1/2+y,-z
1/2-x,1/2-y,-z
1/2+x,1/2+y,-z
1/2-x,1/2+y,z
1/2+x,1/2-y,z
loop_
_atom_site_type_symbol
_atom_site_label
_atom_site_fract_x
_atom_site_fract_y
_atom_site_fract_z
Si Si1 0.322524 0.299426 0.084733
Si Si2 0.176421 0.944602 0.000000
Si Si3 0.320463 0.053742 0.276393
Si Si4 0.820036 0.607053 0.133683
Si Si5 0.176547 0.055941 0.577619
O O1 0.500000 0.298793 0.097383
O O2 0.250000 0.250000 0.102457
O O3 0.244497 0.341530 0.125054
O O4 0.299194 0.307039 0.000000
O O5 0.252983 0.922995 0.069350
O O6 0.000000 0.932809 0.000000
O O7 0.191925 0.000000 0.000000
O O8 0.500000 0.053687 0.280238
O O9 0.276312 0.083697 0.208305
O O10 0.257262 0.071901 0.351113
O O11 0.271990 0.000000 0.266743
O O12 0.000000 0.607587 0.128525
O O13 0.230825 0.072586 0.500000
O O14 0.000000 0.065634 0.582353
O O15 0.193350 0.000000 0.576967
#
# Coordination Sequence:
#
# PCOD9489136 Si02
#       5
#    16   8  16  16  16
#     4  10  20  34  52  71  91 113 146 189 235 282
#     4  11  23  35  46  63  88 121 161 197 227 265
#     4   9  18  30  43  63  91 123 157 189 223 265
#     4  11  21  33  49  67  91 121 154 191 232 274
#     4   8  14  25  41  61  85 115 151 188 226 266
#
# _framework density 14.785777
#
# number of rings (size 3 to 8) (size 9 to 14) (size 15 to 20)
#    0.000    2.333    1.111    3.000    0.000    4.889 
#    0.000    4.444    0.000    0.000    0.000    0.000 
#    0.000    0.889    0.000    2.889    0.000    4.222 
#
# Total GULP energy -200702.494205 kJ/mol
# GULP energy per Si atom -5575.069283 kJ/mol
# Density = 1.475212 g / cm^3
# Si number density = 14.785777 Si / 1000 Ang^3
#
#
#
# Elastic Constant Matrix: (Units=GPa)
#
#
# Indices 1 2 3 4 5 6 
#
# 1 51.1314 40.2359 54.6512 0.0000 0.0000 0.0000
# 2 40.2359 81.1261 63.9341 0.0000 0.0000 0.0000
# 3 54.6512 63.9341 154.1138 0.0000 0.0000 0.0000
# 4 0.0000 0.0000 0.0000 3.5960 0.0000 0.0000
# 5 0.0000 0.0000 0.0000 0.0000 22.4931 0.0000
# 6 0.0000 0.0000 0.0000 0.0000 0.0000 22.3628
#
#
#
# Elastic Compliance Matrix: (Units=1/GPa)
#
#
# Indices 1 2 3 4 5 6 
#
# 1 0.038312 -0.012324 -0.008474 0.000000 0.000000 0.000000
# 2 -0.012324 0.022278 -0.004872 0.000000 0.000000 0.000000
# 3 -0.008474 -0.004872 0.011515 0.000000 0.000000 0.000000
# 4 0.000000 0.000000 0.000000 0.278085 0.000000 0.000000
# 5 0.000000 0.000000 0.000000 0.000000 0.044458 0.000000
# 6 0.000000 0.000000 0.000000 0.000000 0.000000 0.044717
#
#
# Mechanical properties :
#
#
# Convention : Reuss Voigt Hill
#
# Bulk Modulus (GPa) = 48.15441 67.11263 57.63352
# Shear Modulus (GPa) = 10.04771 18.19372 14.12072
#
# Velocity S-wave (km/s) = 2.60965 3.51164 3.09369
# Velocity P-wave (km/s) = 6.45904 7.86960 7.19895
#
# Compressibility (1/GPa) = 0.02076653
#
# Stress axis : x y z
#
# Youngs Moduli (GPa) = 26.10150 44.88723 86.84562
#
# Poissons Ratio (x) = 0.55317 0.73589
# Poissons Ratio (y) = 0.32166 0.42310
# Poissons Ratio (z) = 0.22117 0.21869
#
# Static dielectric constant tensor:
#      x y z
#    x 1.494000 0.000000 0.000000 
#    y 0.000000 1.469270 0.000000 
#    z 0.000000 0.000000 1.493120 
# 
# From -- ./inp_files/49703.got.cif
#   From: 2010.05.17/outbox.cif.g08.bks.cpg/sg65_25_cif.got.tgz:49703.got - 2010.06.03 17:01:31.
