data_PCOD9489326
_publ_section_title
;
Structure prediction by ZEFSAII (Michael W. Deem and Ramdas Pophale) SiO2 
 PCOD9489326
Probable space group: C M M M
;
_chemical_formula_sum "Si O2"
_cell_formula_units_Z 104
_cell_length_a 8.021630
_cell_length_b 18.910906
_cell_length_c 34.620450
_cell_angle_alpha 90.000000
_cell_angle_beta 90.000000
_cell_angle_gamma 90.000000
_cell_volume 5251.793854
_symmetry_space_group_name_H-M "C M M M"
_symmetry_group_IT_number 65
_symmetry_cell_setting 'orthorhombic'
loop_
_space_group_symop_operation_xyz
x,y,z
-x,-y,z
x,-y,-z
-x,y,-z
-x,-y,-z
x,y,-z
-x,y,z
x,-y,z
1/2+x,1/2+y,z
1/2-x,1/2-y,z
1/2+x,1/2-y,-z
1/2-x,1/2+y,-z
1/2-x,1/2-y,-z
1/2+x,1/2+y,-z
1/2-x,1/2+y,z
1/2+x,1/2-y,z
loop_
_atom_site_type_symbol
_atom_site_label
_atom_site_fract_x
_atom_site_fract_y
_atom_site_fract_z
Si Si1 0.798813 0.668356 0.733248
Si Si2 0.295702 0.918304 0.808676
Si Si3 0.298995 0.418809 0.573899
Si Si4 0.700850 0.580516 0.956488
Si Si5 0.302083 0.831225 0.882820
Si Si6 0.799111 0.418656 0.659347
Si Si7 0.798603 0.168646 0.500000
O O1 0.750000 0.750000 0.735483
O O2 0.741775 0.624373 0.770667
O O3 0.738064 0.630793 0.693982
O O4 0.000000 0.664952 0.732998
O O5 0.500000 0.918357 0.808819
O O6 0.236199 0.877992 0.847092
O O7 0.243031 0.000000 0.807959
O O8 0.500000 0.420112 0.572338
O O9 0.239721 0.500000 0.569611
O O10 0.249250 0.393748 0.616558
O O11 0.238198 0.371025 0.538623
O O12 0.500000 0.579209 0.957259
O O13 0.757980 0.500000 0.947920
O O14 0.753022 0.633966 0.923382
O O15 0.757973 0.598951 0.000000
O O16 0.500000 0.833486 0.880197
O O17 0.250000 0.750000 0.879927
O O18 0.739499 0.500000 0.663892
O O19 0.000000 0.420389 0.661267
O O20 0.750000 0.250000 0.500000
O O21 0.000000 0.164080 0.500000
#
# Coordination Sequence:
#
# PCOD9489326 Si02
#       7
#    16  16  16  16  16  16   8
#     4  10  20  34  53  76 105 138 169 206 252 303
#     4   9  18  34  56  79 102 133 175 218 259 306
#     4   9  18  34  55  75  97 129 168 209 251 296
#     4   9  19  37  59  81 107 140 177 218 265 316
#     4  11  22  35  54  80 110 142 177 219 265 314
#     4   9  18  33  53  76 100 130 170 210 248 294
#     4  10  21  35  51  73 101 132 166 204 250 304
#
# _framework density 19.802758000000001
#
# number of rings (size 3 to 8) (size 9 to 14) (size 15 to 20)
#    0.000    2.462    0.000    2.538    0.000    6.154 
#    0.000    4.615    0.000    5.538    0.000    0.000 
#    0.000    0.000    0.000    0.000    0.000    0.000 
#
# Total GULP energy -290306.376202 kJ/mol
# GULP energy per Si atom -5582.814927 kJ/mol
# Density = 1.975769 g / cm^3
# Si number density = 19.802758 Si / 1000 Ang^3
#
#
#
# Elastic Constant Matrix: (Units=GPa)
#
#
# Indices 1 2 3 4 5 6 
#
# 1 13.9237 9.3147 13.5617 0.0000 0.0000 0.0000
# 2 9.3147 169.7207 139.5701 0.0000 0.0000 0.0000
# 3 13.5617 139.5701 208.6748 0.0000 0.0000 0.0000
# 4 0.0000 0.0000 0.0000 5.2418 0.0000 0.0000
# 5 0.0000 0.0000 0.0000 0.0000 22.3358 0.0000
# 6 0.0000 0.0000 0.0000 0.0000 0.0000 10.2959
#
#
#
# Elastic Compliance Matrix: (Units=1/GPa)
#
#
# Indices 1 2 3 4 5 6 
#
# 1 0.076678 -0.000245 -0.004819 0.000000 0.000000 0.000000
# 2 -0.000245 0.013095 -0.008742 0.000000 0.000000 0.000000
# 3 -0.004819 -0.008742 0.010953 0.000000 0.000000 0.000000
# 4 0.000000 0.000000 0.000000 0.190776 0.000000 0.000000
# 5 0.000000 0.000000 0.000000 0.000000 0.044771 0.000000
# 6 0.000000 0.000000 0.000000 0.000000 0.000000 0.097126
#
#
# Mechanical properties :
#
#
# Convention : Reuss Voigt Hill
#
# Bulk Modulus (GPa) = 13.67770 79.69026 46.68398
# Shear Modulus (GPa) = 10.30115 22.89954 16.60035
#
# Velocity S-wave (km/s) = 2.28324 3.40425 2.89846
# Velocity P-wave (km/s) = 3.72463 7.46868 5.90145
#
# Compressibility (1/GPa) = 0.07311172
#
# Stress axis : x y z
#
# Youngs Moduli (GPa) = 13.04156 76.36605 91.30226
#
# Poissons Ratio (x) = 0.01872 0.44002
# Poissons Ratio (y) = 0.00320 0.79820
# Poissons Ratio (z) = 0.06285 0.66762
#
# Static dielectric constant tensor:
#      x y z
#    x 1.717570 0.000000 0.000000 
#    y 0.000000 1.511850 0.000000 
#    z 0.000000 0.000000 1.692110 
# 
# From -- ./inp_files/76881.got.cif
#   From: 2010.05.17/outbox.cif.g08.bks.cpg/sg65_39_cif.got.tgz:76881.got - 2010.06.03 17:01:31.
