data_PCOD9489182
_publ_section_title
;
Structure prediction by ZEFSAII (Michael W. Deem and Ramdas Pophale) SiO2 
 PCOD9489182
Probable space group: C M M M
;
_chemical_formula_sum "Si O2"
_cell_formula_units_Z 120
_cell_length_a 8.701891
_cell_length_b 29.627200
_cell_length_c 26.916020
_cell_angle_alpha 90.000000
_cell_angle_beta 90.000000
_cell_angle_gamma 90.000000
_cell_volume 6939.290848
_symmetry_space_group_name_H-M "C M M M"
_symmetry_group_IT_number 65
_symmetry_cell_setting 'orthorhombic'
loop_
_space_group_symop_operation_xyz
x,y,z
-x,-y,z
x,-y,-z
-x,y,-z
-x,-y,-z
x,y,-z
-x,y,z
x,-y,z
1/2+x,1/2+y,z
1/2-x,1/2-y,z
1/2+x,1/2-y,-z
1/2-x,1/2+y,-z
1/2-x,1/2-y,-z
1/2+x,1/2+y,-z
1/2-x,1/2+y,z
1/2+x,1/2-y,z
loop_
_atom_site_type_symbol
_atom_site_label
_atom_site_fract_x
_atom_site_fract_y
_atom_site_fract_z
Si Si1 0.314705 0.636634 0.054786
Si Si2 0.186780 0.947277 0.609221
Si Si3 0.323255 0.445294 0.500000
Si Si4 0.182517 0.611333 0.698816
Si Si5 0.183610 0.551836 0.897142
Si Si6 0.184463 0.800118 0.257811
Si Si7 0.314729 0.700240 0.855726
Si Si8 0.681007 0.553708 0.788187
O O1 0.500000 0.635051 0.056873
O O2 0.249607 0.586977 0.063852
O O3 0.260389 0.667252 0.100741
O O4 0.270397 0.653640 0.000000
O O5 0.243139 0.933370 0.553864
O O6 0.250026 0.914761 0.651356
O O7 0.000000 0.945915 0.609192
O O8 0.229167 0.000000 0.618202
O O9 0.328379 0.500000 0.500000
O O10 0.500000 0.429175 0.500000
O O11 0.250448 0.661320 0.706568
O O12 0.232668 0.582222 0.746794
O O13 0.000000 0.613515 0.695566
O O14 0.223689 0.500000 0.908896
O O15 0.255341 0.562568 0.843194
O O16 0.000000 0.555393 0.894167
O O17 0.250000 0.750000 0.267131
O O18 0.228568 0.812917 0.200681
O O19 0.000000 0.798924 0.260673
O O20 0.500000 0.701557 0.857221
O O21 0.250000 0.750000 0.864401
O O22 0.500000 0.564741 0.786504
O O23 0.698617 0.500000 0.778606
#
# Coordination Sequence:
#
# PCOD9489182 Si02
#       8
#    16  16   8  16  16  16  16  16
#     4  10  21  36  53  74 100 130 165 201 237 286
#     4   9  17  31  51  75 105 143 185 224 262 303
#     4   7  12  26  49  73  98 135 184 229 261 297
#     4  12  23  32  47  75 109 141 173 211 256 304
#     4  10  21  36  53  73  97 126 162 205 252 301
#     4  10  20  36  56  76 100 131 169 212 258 308
#     4   9  19  35  55  77  99 124 156 196 243 297
#     4  10  20  34  52  73  99 133 170 206 249 304
#
# _framework density 17.292833000000002
#
# number of rings (size 3 to 8) (size 9 to 14) (size 15 to 20)
#    0.000    2.200    0.000    4.400    0.000    6.400 
#    0.000    1.667    0.000    1.200    0.000    0.467 
#    0.000    0.000    0.000    0.000    0.000    0.000 
#
# Total GULP energy -334856.986653 kJ/mol
# GULP energy per Si atom -5580.949778 kJ/mol
# Density = 1.725347 g / cm^3
# Si number density = 17.292833 Si / 1000 Ang^3
#
#
#
# Elastic Constant Matrix: (Units=GPa)
#
#
# Indices 1 2 3 4 5 6 
#
# 1 38.3140 33.0233 31.0439 0.0000 0.0000 0.0000
# 2 33.0233 85.8195 75.6493 0.0000 0.0000 0.0000
# 3 31.0439 75.6493 99.1523 0.0000 0.0000 0.0000
# 4 0.0000 0.0000 0.0000 23.4338 0.0000 0.0000
# 5 0.0000 0.0000 0.0000 0.0000 6.1011 0.0000
# 6 0.0000 0.0000 0.0000 0.0000 0.0000 28.2152
#
#
#
# Elastic Compliance Matrix: (Units=1/GPa)
#
#
# Indices 1 2 3 4 5 6 
#
# 1 0.039229 -0.013035 -0.002337 0.000000 0.000000 0.000000
# 2 -0.013035 0.039916 -0.026373 0.000000 0.000000 0.000000
# 3 -0.002337 -0.026373 0.030939 0.000000 0.000000 0.000000
# 4 0.000000 0.000000 0.000000 0.042673 0.000000 0.000000
# 5 0.000000 0.000000 0.000000 0.000000 0.163904 0.000000
# 6 0.000000 0.000000 0.000000 0.000000 0.000000 0.035442
#
#
# Mechanical properties :
#
#
# Convention : Reuss Voigt Hill
#
# Bulk Modulus (GPa) = 37.60365 55.85764 46.73064
# Shear Modulus (GPa) = 11.24965 17.12132 14.18548
#
# Velocity S-wave (km/s) = 2.55333 3.14997 2.86721
# Velocity P-wave (km/s) = 5.52133 6.75284 6.16790
#
# Compressibility (1/GPa) = 0.02659316
#
# Stress axis : x y z
#
# Youngs Moduli (GPa) = 25.49142 25.05250 32.32173
#
# Poissons Ratio (x) = 0.32657 0.07553
# Poissons Ratio (y) = 0.33229 0.85243
# Poissons Ratio (z) = 0.05957 0.66072
#
# Static dielectric constant tensor:
#      x y z
#    x 1.576840 0.000000 0.000000 
#    y 0.000000 1.574760 0.000000 
#    z 0.000000 0.000000 1.597660 
# 
# From -- ./inp_files/73877.got.cif
#   From: 2010.05.17/outbox.cif.g08.bks.cpg/sg65_37_cif.got.tgz:73877.got - 2010.06.03 17:01:31.
