data_PCOD9489243
_publ_section_title
;
Structure prediction by ZEFSAII (Michael W. Deem and Ramdas Pophale) SiO2 
 PCOD9489243
Probable space group: C M M M
;
_chemical_formula_sum "Si O2"
_cell_formula_units_Z 88
_cell_length_a 17.423210
_cell_length_b 8.948734
_cell_length_c 29.442192
_cell_angle_alpha 90.000000
_cell_angle_beta 90.000000
_cell_angle_gamma 90.000000
_cell_volume 4590.499142
_symmetry_space_group_name_H-M "C M M M"
_symmetry_group_IT_number 65
_symmetry_cell_setting 'orthorhombic'
loop_
_space_group_symop_operation_xyz
x,y,z
-x,-y,z
x,-y,-z
-x,y,-z
-x,-y,-z
x,y,-z
-x,y,z
x,-y,z
1/2+x,1/2+y,z
1/2-x,1/2-y,z
1/2+x,1/2-y,-z
1/2-x,1/2+y,-z
1/2-x,1/2-y,-z
1/2+x,1/2+y,-z
1/2-x,1/2+y,z
1/2+x,1/2-y,z
loop_
_atom_site_type_symbol
_atom_site_label
_atom_site_fract_x
_atom_site_fract_y
_atom_site_fract_z
Si Si1 0.334726 0.321750 0.272268
Si Si2 0.406280 0.327730 0.093330
Si Si3 0.406248 0.827394 0.000000
Si Si4 0.092309 0.172587 0.448882
Si Si5 0.165757 0.322500 0.363682
Si Si6 0.592540 0.829090 0.813876
O O1 0.330127 0.500000 0.276100
O O2 0.250000 0.250000 0.268535
O O3 0.369795 0.251726 0.318369
O O4 0.379754 0.271579 0.227641
O O5 0.500000 0.325284 0.093131
O O6 0.382507 0.500000 0.096294
O O7 0.381322 0.236671 0.137735
O O8 0.381100 0.254253 0.046029
O O9 0.500000 0.824376 0.000000
O O10 0.382898 0.000000 0.000000
O O11 0.117923 0.213976 0.500000
O O12 0.122207 0.277647 0.409332
O O13 0.000000 0.174557 0.448832
O O14 0.116435 0.000000 0.440387
O O15 0.170674 0.500000 0.358047
O O16 0.250000 0.250000 0.367568
O O17 0.500000 0.829899 0.814409
O O18 0.619173 0.000000 0.807907
#
# Coordination Sequence:
#
# PCOD9489243 Si02
#       6
#    16  16   8  16  16  16
#     4  11  22  38  58  78 104 137 175 217 262 313
#     4   9  16  26  41  64  95 130 168 210 257 308
#     4   9  15  23  37  59  90 129 168 207 256 309
#     4   9  19  37  59  82 110 143 177 214 258 308
#     4  11  22  37  57  80 107 138 175 218 261 307
#     4  10  20  34  52  76 106 137 172 215 261 310
#
# _framework density 19.170027999999999
#
# number of rings (size 3 to 8) (size 9 to 14) (size 15 to 20)
#    0.000    2.091    0.000    6.273    0.000    6.182 
#    0.000    0.909    0.000    0.000    0.000    0.636 
#    0.000    0.000    0.000    0.000    0.000    0.000 
#
# Total GULP energy -245634.133687 kJ/mol
# GULP energy per Si atom -5582.593947 kJ/mol
# Density = 1.912640 g / cm^3
# Si number density = 19.170028 Si / 1000 Ang^3
#
#
#
# Elastic Constant Matrix: (Units=GPa)
#
#
# Indices 1 2 3 4 5 6 
#
# 1 4.6479 17.3272 21.2018 0.0000 0.0000 0.0000
# 2 17.3272 185.1220 92.1157 0.0000 0.0000 0.0000
# 3 21.2018 92.1157 170.6390 0.0000 0.0000 0.0000
# 4 0.0000 0.0000 0.0000 40.0260 0.0000 0.0000
# 5 0.0000 0.0000 0.0000 0.0000 38.8372 0.0000
# 6 0.0000 0.0000 0.0000 0.0000 0.0000 18.3984
#
#
#
# Elastic Compliance Matrix: (Units=1/GPa)
#
#
# Indices 1 2 3 4 5 6 
#
# 1 0.568811 -0.024710 -0.057335 0.000000 0.000000 0.000000
# 2 -0.024710 0.008459 -0.001496 0.000000 0.000000 0.000000
# 3 -0.057335 -0.001496 0.013792 0.000000 0.000000 0.000000
# 4 0.000000 0.000000 0.000000 0.024984 0.000000 0.000000
# 5 0.000000 0.000000 0.000000 0.000000 0.025749 0.000000
# 6 0.000000 0.000000 0.000000 0.000000 0.000000 0.054352
#
#
# Mechanical properties :
#
#
# Convention : Reuss Voigt Hill
#
# Bulk Modulus (GPa) = 2.35861 69.07757 35.71809
# Shear Modulus (GPa) = 4.97732 34.76993 19.87362
#
# Velocity S-wave (km/s) = 1.61309 4.26345 3.22328
# Velocity P-wave (km/s) = 2.16851 7.76842 5.70311
#
# Compressibility (1/GPa) = 0.42397857
#
# Stress axis : x y z
#
# Youngs Moduli (GPa) = 1.75805 118.21409 72.50595
#
# Poissons Ratio (x) = 2.92109 4.15716
# Poissons Ratio (y) = 0.04344 0.10849
# Poissons Ratio (z) = 0.10080 0.17688
#
# Static dielectric constant tensor:
#      x y z
#    x 1.672670 0.000000 0.000000 
#    y 0.000000 1.648790 0.000000 
#    z 0.000000 0.000000 1.673500 
# 
# From -- ./inp_files/70965.got.cif
#   From: 2010.05.17/outbox.cif.g08.bks.cpg/sg65_36_cif.got.tgz:70965.got - 2010.06.03 17:01:31.
