data_PCOD9489714
_publ_section_title
;
Structure prediction by ZEFSAII (Michael W. Deem and Ramdas Pophale) SiO2 
 PCOD9489714
Probable space group: C M M M
;
_chemical_formula_sum "Si O2"
_cell_formula_units_Z 68
_cell_length_a 23.140146
_cell_length_b 14.223461
_cell_length_c 12.805161
_cell_angle_alpha 90.000000
_cell_angle_beta 90.000000
_cell_angle_gamma 90.000000
_cell_volume 4214.600597
_symmetry_space_group_name_H-M "C M M M"
_symmetry_group_IT_number 65
_symmetry_cell_setting 'orthorhombic'
loop_
_space_group_symop_operation_xyz
x,y,z
-x,-y,z
x,-y,-z
-x,y,-z
-x,-y,-z
x,y,-z
-x,y,z
x,-y,z
1/2+x,1/2+y,z
1/2-x,1/2-y,z
1/2+x,1/2-y,-z
1/2-x,1/2+y,-z
1/2-x,1/2-y,-z
1/2+x,1/2+y,-z
1/2-x,1/2+y,z
1/2+x,1/2-y,z
loop_
_atom_site_type_symbol
_atom_site_label
_atom_site_fract_x
_atom_site_fract_y
_atom_site_fract_z
Si Si1 0.194350 0.500000 0.194987
Si Si2 0.685060 0.711026 0.376668
Si Si3 0.877284 0.690235 0.192494
Si Si4 0.683850 0.290466 0.000000
Si Si5 0.000000 0.612620 0.126452
Si Si6 0.719493 0.500000 0.000000
Si Si7 0.782444 0.000000 0.378206
O O1 0.156022 0.408203 0.185874
O O2 0.240640 0.500000 0.102415
O O3 0.227239 0.500000 0.304436
O O4 0.675538 0.728732 0.500000
O O5 0.750000 0.750000 0.351632
O O6 0.639404 0.761746 0.302120
O O7 0.685004 0.598415 0.358763
O O8 0.943549 0.664679 0.171046
O O9 0.849557 0.753494 0.101425
O O10 0.750000 0.250000 0.000000
O O11 0.685446 0.402799 0.000000
O O12 0.000000 0.500000 0.151553
O O13 0.000000 0.619181 0.000000
O O14 0.765699 0.000000 0.500000
#
# Coordination Sequence:
#
# PCOD9489714 Si02
#       7
#     8  16  16   8   8   4   8
#     4  12  20  31  55  84 117 146 184 231 274 349
#     4  10  20  35  57  85 117 151 184 229 288 344
#     4  12  22  37  57  83 115 151 191 230 285 337
#     4  12  22  35  55  83 113 149 184 231 291 346
#     4  11  24  40  61  81 110 155 202 239 274 328
#     4  12  24  32  50  88 120 140 176 234 292 346
#     4  10  20  34  55  86 119 152 186 220 282 353
#
# _framework density 16.134387
#
# number of rings (size 3 to 8) (size 9 to 14) (size 15 to 20)
#    0.000    0.824    7.059    2.118    0.000    0.000 
#    0.000    0.588    0.000    4.235    0.000    2.471 
#    0.000    0.000    0.000    0.000    0.000    0.000 
#
# Total GULP energy -189860.825067 kJ/mol
# GULP energy per Si atom -5584.141914 kJ/mol
# Density = 1.609766 g / cm^3
# Si number density = 16.134387 Si / 1000 Ang^3
#
#
#
# Elastic Constant Matrix: (Units=GPa)
#
#
# Indices 1 2 3 4 5 6 
#
# 1 126.0842 68.3889 66.2032 0.0000 0.0000 0.0000
# 2 68.3889 157.7883 63.9691 0.0000 0.0000 0.0000
# 3 66.2032 63.9691 76.6538 0.0000 0.0000 0.0000
# 4 0.0000 0.0000 0.0000 28.4932 0.0000 0.0000
# 5 0.0000 0.0000 0.0000 0.0000 21.0142 0.0000
# 6 0.0000 0.0000 0.0000 0.0000 0.0000 30.9501
#
#
#
# Elastic Compliance Matrix: (Units=1/GPa)
#
#
# Indices 1 2 3 4 5 6 
#
# 1 0.014869 -0.001872 -0.011280 0.000000 0.000000 0.000000
# 2 -0.001872 0.009814 -0.006573 0.000000 0.000000 0.000000
# 3 -0.011280 -0.006573 0.028274 0.000000 0.000000 0.000000
# 4 0.000000 0.000000 0.000000 0.035096 0.000000 0.000000
# 5 0.000000 0.000000 0.000000 0.000000 0.047587 0.000000
# 6 0.000000 0.000000 0.000000 0.000000 0.000000 0.032310
#
#
# Mechanical properties :
#
#
# Convention : Reuss Voigt Hill
#
# Bulk Modulus (GPa) = 74.03934 84.18319 79.11127
# Shear Modulus (GPa) = 23.59584 26.88917 25.24250
#
# Velocity S-wave (km/s) = 3.82836 4.08680 3.95969
# Velocity P-wave (km/s) = 8.09509 8.63474 8.36927
#
# Compressibility (1/GPa) = 0.01350633
#
# Stress axis : x y z
#
# Youngs Moduli (GPa) = 67.25283 101.89869 35.36876
#
# Poissons Ratio (x) = 0.19071 0.39897
# Poissons Ratio (y) = 0.12587 0.23249
# Poissons Ratio (z) = 0.75863 0.66981
#
# Static dielectric constant tensor:
#      x y z
#    x 1.516870 0.000000 0.000000 
#    y 0.000000 1.561600 0.000000 
#    z 0.000000 0.000000 1.542630 
# 
# From -- ./inp_files/28393.got.cif
#   From: 2010.05.17/outbox.cif.g08.bks.cpg/sg65_15_cif.got.tgz:28393.got - 2010.06.03 17:01:31.
