data_PCOD9489349
_publ_section_title
;
Structure prediction by ZEFSAII (Michael W. Deem and Ramdas Pophale) SiO2 
 PCOD9489349
Probable space group: C M M M
;
_chemical_formula_sum "Si O2"
_cell_formula_units_Z 80
_cell_length_a 19.614594
_cell_length_b 8.731386
_cell_length_c 26.216607
_cell_angle_alpha 90.000000
_cell_angle_beta 90.000000
_cell_angle_gamma 90.000000
_cell_volume 4489.924054
_symmetry_space_group_name_H-M "C M M M"
_symmetry_group_IT_number 65
_symmetry_cell_setting 'orthorhombic'
loop_
_space_group_symop_operation_xyz
x,y,z
-x,-y,z
x,-y,-z
-x,y,-z
-x,-y,-z
x,y,-z
-x,y,z
x,-y,z
1/2+x,1/2+y,z
1/2-x,1/2-y,z
1/2+x,1/2-y,-z
1/2-x,1/2+y,-z
1/2-x,1/2-y,-z
1/2+x,1/2+y,-z
1/2-x,1/2+y,z
1/2+x,1/2-y,z
loop_
_atom_site_type_symbol
_atom_site_label
_atom_site_fract_x
_atom_site_fract_y
_atom_site_fract_z
Si Si1 0.079777 0.817326 0.204666
Si Si2 0.174960 0.316515 0.291759
Si Si3 0.578126 0.812948 0.500000
Si Si4 0.173759 0.685398 0.000000
Si Si5 0.324980 0.184685 0.408197
Si Si6 0.420940 0.815172 0.905523
O O1 0.123580 0.746900 0.249964
O O2 0.099298 0.751936 0.149243
O O3 0.000000 0.779400 0.212022
O O4 0.087283 0.000000 0.204354
O O5 0.177006 0.500000 0.289151
O O6 0.250000 0.250000 0.281979
O O7 0.156452 0.272056 0.350071
O O8 0.500000 0.760830 0.500000
O O9 0.620099 0.764719 0.449928
O O10 0.577082 0.000000 0.500000
O O11 0.250000 0.750000 0.000000
O O12 0.130189 0.732745 0.049721
O O13 0.177052 0.500000 0.000000
O O14 0.250000 0.250000 0.419548
O O15 0.320885 0.000000 0.410159
O O16 0.500000 0.770339 0.916160
O O17 0.419697 0.000000 0.902762
#
# Coordination Sequence:
#
# PCOD9489349 Si02
#       6
#    16  16   8   8  16  16
#     4  10  21  36  54  78 107 138 173 214 260 308
#     4  10  20  34  53  77 104 136 175 216 259 308
#     4   9  17  30  49  75 104 131 164 208 254 299
#     4  10  21  35  53  79 107 134 166 208 258 306
#     4   9  18  32  52  75  99 132 170 208 251 302
#     4   9  18  35  57  77 100 135 177 214 249 298
#
# _framework density 17.817672999999999
#
# number of rings (size 3 to 8) (size 9 to 14) (size 15 to 20)
#    0.000    2.500    0.000    1.800    0.000    5.600 
#    0.000    4.000    0.000    4.200    0.000    0.000 
#    0.000    0.000    0.000    0.000    0.000    0.000 
#
# Total GULP energy -223194.506264 kJ/mol
# GULP energy per Si atom -5579.862657 kJ/mol
# Density = 1.777712 g / cm^3
# Si number density = 17.817673 Si / 1000 Ang^3
#
#
#
# Elastic Constant Matrix: (Units=GPa)
#
#
# Indices 1 2 3 4 5 6 
#
# 1 135.6474 36.7702 137.0820 0.0000 0.0000 0.0000
# 2 36.7702 16.8232 45.8098 0.0000 0.0000 0.0000
# 3 137.0820 45.8098 187.5285 0.0000 0.0000 0.0000
# 4 0.0000 0.0000 0.0000 16.7080 0.0000 0.0000
# 5 0.0000 0.0000 0.0000 0.0000 38.5812 0.0000
# 6 0.0000 0.0000 0.0000 0.0000 0.0000 29.7030
#
#
#
# Elastic Compliance Matrix: (Units=1/GPa)
#
#
# Indices 1 2 3 4 5 6 
#
# 1 0.029827 -0.017387 -0.017556 0.000000 0.000000 0.000000
# 2 -0.017387 0.187668 -0.033134 0.000000 0.000000 0.000000
# 3 -0.017556 -0.033134 0.026260 0.000000 0.000000 0.000000
# 4 0.000000 0.000000 0.000000 0.059852 0.000000 0.000000
# 5 0.000000 0.000000 0.000000 0.000000 0.025919 0.000000
# 6 0.000000 0.000000 0.000000 0.000000 0.000000 0.033667
#
#
# Mechanical properties :
#
#
# Convention : Reuss Voigt Hill
#
# Bulk Modulus (GPa) = 9.29360 86.59146 47.94253
# Shear Modulus (GPa) = 9.34208 25.02093 17.18151
#
# Velocity S-wave (km/s) = 2.29228 3.75143 3.10868
# Velocity P-wave (km/s) = 3.49762 8.21392 6.31276
#
# Compressibility (1/GPa) = 0.10760089
#
# Stress axis : x y z
#
# Youngs Moduli (GPa) = 33.52722 5.32855 38.08137
#
# Poissons Ratio (x) = 0.09265 0.66854
# Poissons Ratio (y) = 0.58295 1.26179
# Poissons Ratio (z) = 0.58859 0.17656
#
# Static dielectric constant tensor:
#      x y z
#    x 1.581360 0.000000 0.000000 
#    y 0.000000 1.599360 0.000000 
#    z 0.000000 0.000000 1.599900 
# 
# From -- ./inp_files/75040.got.cif
#   From: 2010.05.17/outbox.cif.g08.bks.cpg/sg65_38_cif.got.tgz:75040.got - 2010.06.03 17:01:31.
