data_PCOD9489791
_publ_section_title
;
Structure prediction by ZEFSAII (Michael W. Deem and Ramdas Pophale) SiO2 
 PCOD9489791
Probable space group: C M M M
;
_chemical_formula_sum "Si O2"
_cell_formula_units_Z 72
_cell_length_a 18.566807
_cell_length_b 16.926677
_cell_length_c 15.955971
_cell_angle_alpha 90.000000
_cell_angle_beta 90.000000
_cell_angle_gamma 90.000000
_cell_volume 5014.552335
_symmetry_space_group_name_H-M "C M M M"
_symmetry_group_IT_number 65
_symmetry_cell_setting 'orthorhombic'
loop_
_space_group_symop_operation_xyz
x,y,z
-x,-y,z
x,-y,-z
-x,y,-z
-x,-y,-z
x,y,-z
-x,y,z
x,-y,z
1/2+x,1/2+y,z
1/2-x,1/2-y,z
1/2+x,1/2-y,-z
1/2-x,1/2+y,-z
1/2-x,1/2-y,-z
1/2+x,1/2+y,-z
1/2-x,1/2+y,z
1/2+x,1/2-y,z
loop_
_atom_site_type_symbol
_atom_site_label
_atom_site_fract_x
_atom_site_fract_y
_atom_site_fract_z
Si Si1 0.912971 0.405581 0.685089
Si Si2 0.085244 0.587962 0.000000
Si Si3 0.842608 0.328803 0.154811
Si Si4 0.819748 0.151422 0.102083
Si Si5 0.416572 0.095682 0.500000
Si Si6 0.416821 0.500000 0.101459
O O1 0.900689 0.500000 0.696199
O O2 0.872574 0.357201 0.756455
O O3 0.887372 0.381618 0.591251
O O4 0.000000 0.394545 0.690234
O O5 0.110068 0.632277 0.917535
O O6 0.117020 0.500000 0.000000
O O7 0.000000 0.582962 0.000000
O O8 0.845472 0.234815 0.139743
O O9 0.761052 0.357804 0.137192
O O10 0.871873 0.078625 0.124340
O O11 0.815927 0.157890 0.000000
O O12 0.500000 0.120889 0.500000
O O13 0.416723 0.000000 0.500000
O O14 0.500000 0.500000 0.131262
O O15 0.419551 0.500000 0.000000
#
# Coordination Sequence:
#
# PCOD9489791 Si02
#       6
#    16   8  16  16   8   8
#     4   9  17  28  45  71  98 127 157 184 223 277
#     4  11  22  29  40  67  99 130 153 176 220 276
#     4  11  19  31  46  66  95 126 157 190 227 283
#     4  10  20  35  48  63  87 125 165 196 241 280
#     4   7  12  26  44  63  94 127 155 186 219 266
#     4   9  20  34  50  66  78 111 170 217 239 264
#
# _framework density 14.358211000000001
#
# number of rings (size 3 to 8) (size 9 to 14) (size 15 to 20)
#    0.000    2.333    2.222    3.333    3.111    3.556 
#    0.000    0.000    0.000    2.667    0.000    0.000 
#    0.000    0.000    0.000    6.000    0.000    0.000 
#
# Total GULP energy -200485.258509 kJ/mol
# GULP energy per Si atom -5569.034959 kJ/mol
# Density = 1.432553 g / cm^3
# Si number density = 14.358211 Si / 1000 Ang^3
#
#
#
# Elastic Constant Matrix: (Units=GPa)
#
#
# Indices 1 2 3 4 5 6 
#
# 1 76.2305 65.6364 44.9222 0.0000 0.0000 0.0000
# 2 65.6364 81.6867 49.3637 0.0000 0.0000 0.0000
# 3 44.9222 49.3637 135.1902 0.0000 0.0000 0.0000
# 4 0.0000 0.0000 0.0000 30.5247 0.0000 0.0000
# 5 0.0000 0.0000 0.0000 0.0000 25.8343 0.0000
# 6 0.0000 0.0000 0.0000 0.0000 0.0000 21.0034
#
#
#
# Elastic Compliance Matrix: (Units=1/GPa)
#
#
# Indices 1 2 3 4 5 6 
#
# 1 0.043051 -0.033294 -0.002148 0.000000 0.000000 0.000000
# 2 -0.033294 0.041456 -0.004074 0.000000 0.000000 0.000000
# 3 -0.002148 -0.004074 0.009599 0.000000 0.000000 0.000000
# 4 0.000000 0.000000 0.000000 0.032760 0.000000 0.000000
# 5 0.000000 0.000000 0.000000 0.000000 0.038708 0.000000
# 6 0.000000 0.000000 0.000000 0.000000 0.000000 0.047611
#
#
# Mechanical properties :
#
#
# Convention : Reuss Voigt Hill
#
# Bulk Modulus (GPa) = 66.34479 68.10575 67.22527
# Shear Modulus (GPa) = 16.82133 24.35149 20.58641
#
# Velocity S-wave (km/s) = 3.42650 4.12272 3.79063
# Velocity P-wave (km/s) = 7.87158 8.37847 8.12897
#
# Compressibility (1/GPa) = 0.01507277
#
# Stress axis : x y z
#
# Youngs Moduli (GPa) = 23.22838 24.12206 104.18269
#
# Poissons Ratio (x) = 0.80311 0.22382
# Poissons Ratio (y) = 0.77336 0.42446
# Poissons Ratio (z) = 0.04990 0.09828
#
# Static dielectric constant tensor:
#      x y z
#    x 1.482210 0.000000 0.000000 
#    y 0.000000 1.485360 0.000000 
#    z 0.000000 0.000000 1.468560 
# 
# From -- ./inp_files/39844.got.cif
#   From: 2010.05.17/outbox.cif.g08.bks.cpg/sg65_20_cif.got.tgz:39844.got - 2010.06.03 17:01:31.
