data_PCOD9489204
_publ_section_title
;
Structure prediction by ZEFSAII (Michael W. Deem and Ramdas Pophale) SiO2 
 PCOD9489204
Probable space group: C M M M
;
_chemical_formula_sum "Si O2"
_cell_formula_units_Z 104
_cell_length_a 28.503813
_cell_length_b 16.369455
_cell_length_c 12.323183
_cell_angle_alpha 90.000000
_cell_angle_beta 90.000000
_cell_angle_gamma 90.000000
_cell_volume 5749.897176
_symmetry_space_group_name_H-M "C M M M"
_symmetry_group_IT_number 65
_symmetry_cell_setting 'orthorhombic'
loop_
_space_group_symop_operation_xyz
x,y,z
-x,-y,z
x,-y,-z
-x,y,-z
-x,-y,-z
x,y,-z
-x,y,z
x,-y,z
1/2+x,1/2+y,z
1/2-x,1/2-y,z
1/2+x,1/2-y,-z
1/2-x,1/2+y,-z
1/2-x,1/2-y,-z
1/2+x,1/2+y,-z
1/2-x,1/2+y,z
1/2+x,1/2-y,z
loop_
_atom_site_type_symbol
_atom_site_label
_atom_site_fract_x
_atom_site_fract_y
_atom_site_fract_z
Si Si1 0.763430 0.340227 0.630849
Si Si2 0.081119 0.092494 0.783544
Si Si3 0.555655 0.093747 0.758345
Si Si4 0.445585 0.875027 0.000000
Si Si5 0.339419 0.372361 0.624693
Si Si6 0.635886 0.821768 0.625922
Si Si7 0.444831 0.679849 0.000000
Si Si8 0.500000 0.599608 0.376849
O O1 0.768242 0.332851 0.500000
O O2 0.750000 0.250000 0.673429
O O3 0.715504 0.389342 0.646351
O O4 0.815550 0.364107 0.667645
O O5 0.129558 0.090676 0.719189
O O6 0.078779 0.145396 0.891438
O O7 0.044665 0.124784 0.693346
O O8 0.066974 0.000000 0.812951
O O9 0.500000 0.117682 0.754211
O O10 0.590261 0.152381 0.692327
O O11 0.558916 0.000000 0.718914
O O12 0.572254 0.095661 0.883914
O O13 0.442919 0.777224 0.000000
O O14 0.500000 0.900744 0.000000
O O15 0.350412 0.398304 0.500000
O O16 0.351404 0.274919 0.628535
O O17 0.628069 0.843662 0.500000
O O18 0.500000 0.655398 0.000000
O O19 0.500000 0.500000 0.382671
O O20 0.500000 0.630229 0.500000
#
# Coordination Sequence:
#
# PCOD9489204 Si02
#       8
#    16  16  16   8  16  16   8   8
#     4   7  12  26  49  72  96 128 167 207 248 295
#     4  11  21  32  48  69  99 134 169 206 250 298
#     4  10  20  34  52  74 103 135 165 201 250 306
#     4   9  19  35  55  74  91 120 167 219 248 285
#     4   9  17  31  51  75 100 131 171 214 254 292
#     4   9  17  31  51  76 104 134 167 203 246 302
#     4  11  21  35  53  72  93 128 175 219 253 293
#     4   9  18  31  45  63  93 132 165 192 230 287
#
# _framework density 18.08728
#
# number of rings (size 3 to 8) (size 9 to 14) (size 15 to 20)
#    0.000    2.692    0.769    3.692    0.000    2.769 
#    1.385    1.538    0.000    3.692    0.000    6.462 
#    0.000    0.000    0.000    0.000    0.000    0.000 
#
# Total GULP energy -289558.367025 kJ/mol
# GULP energy per Si atom -5568.430135 kJ/mol
# Density = 1.804611 g / cm^3
# Si number density = 18.087280 Si / 1000 Ang^3
#
#
#
# Elastic Constant Matrix: (Units=GPa)
#
#
# Indices 1 2 3 4 5 6 
#
# 1 102.3556 20.9576 43.1111 0.0000 0.0000 0.0000
# 2 20.9576 42.2142 24.5778 0.0000 0.0000 0.0000
# 3 43.1111 24.5778 91.2355 0.0000 0.0000 0.0000
# 4 0.0000 0.0000 0.0000 34.2982 0.0000 0.0000
# 5 0.0000 0.0000 0.0000 0.0000 -7.2867 0.0000
# 6 0.0000 0.0000 0.0000 0.0000 0.0000 10.1880
#
#
#
# Elastic Compliance Matrix: (Units=1/GPa)
#
#
# Indices 1 2 3 4 5 6 
#
# 1 0.012574 -0.003301 -0.005052 0.000000 0.000000 0.000000
# 2 -0.003301 0.028962 -0.006242 0.000000 0.000000 0.000000
# 3 -0.005052 -0.006242 0.015030 0.000000 0.000000 0.000000
# 4 0.000000 0.000000 0.000000 0.029156 0.000000 0.000000
# 5 0.000000 0.000000 0.000000 0.000000 -0.137237 0.000000
# 6 0.000000 0.000000 0.000000 0.000000 0.000000 0.098155
#
#
# Mechanical properties :
#
#
# Convention : Reuss Voigt Hill
#
# Bulk Modulus (GPa) = 36.53043 45.89981 41.21512
# Shear Modulus (GPa) = 58.85547 17.25050 38.05298
#
# Velocity S-wave (km/s) = 5.71055 3.09161 4.59175
# Velocity P-wave (km/s) = 7.98255 6.17868 7.13782
#
# Compressibility (1/GPa) = 0.02737444
#
# Stress axis : x y z
#
# Youngs Moduli (GPa) = 79.53152 34.52829 66.53580
#
# Poissons Ratio (x) = 0.11397 0.33615
# Poissons Ratio (y) = 0.26252 0.41533
# Poissons Ratio (z) = 0.40181 0.21553
#
# Static dielectric constant tensor:
#      x y z
#    x 1.670970 0.000000 0.000000 
#    y 0.000000 1.670100 0.000000 
#    z 0.000000 0.000000 1.593430 
# 
# From -- ./inp_files/32607.got.cif
#   From: 2010.05.17/outbox.cif.g08.bks.cpg/sg65_17_cif.got.tgz:32607.got - 2010.06.03 17:01:31.
