data_PCOD9489201
_publ_section_title
;
Structure prediction by ZEFSAII (Michael W. Deem and Ramdas Pophale) SiO2 
 PCOD9489201
Probable space group: C M M M
;
_chemical_formula_sum "Si O2"
_cell_formula_units_Z 88
_cell_length_a 8.951584
_cell_length_b 17.999266
_cell_length_c 29.731635
_cell_angle_alpha 90.000000
_cell_angle_beta 90.000000
_cell_angle_gamma 90.000000
_cell_volume 4790.418756
_symmetry_space_group_name_H-M "C M M M"
_symmetry_group_IT_number 65
_symmetry_cell_setting 'orthorhombic'
loop_
_space_group_symop_operation_xyz
x,y,z
-x,-y,z
x,-y,-z
-x,y,-z
-x,-y,-z
x,y,-z
-x,y,z
x,-y,z
1/2+x,1/2+y,z
1/2-x,1/2-y,z
1/2+x,1/2-y,-z
1/2-x,1/2+y,-z
1/2-x,1/2-y,-z
1/2+x,1/2+y,-z
1/2-x,1/2+y,z
1/2+x,1/2-y,z
loop_
_atom_site_type_symbol
_atom_site_label
_atom_site_fract_x
_atom_site_fract_y
_atom_site_fract_z
Si Si1 0.320097 0.168827 0.500000
Si Si2 0.325637 0.089533 0.238604
Si Si3 0.677624 0.668822 0.322737
Si Si4 0.174248 0.090621 0.146057
Si Si5 0.321332 0.087841 0.407511
Si Si6 0.318575 0.587913 0.951610
O O1 0.500000 0.174532 0.500000
O O2 0.250000 0.250000 0.500000
O O3 0.277425 0.125149 0.454741
O O4 0.500000 0.107607 0.244215
O O5 0.231644 0.126946 0.277922
O O6 0.268059 0.113399 0.189390
O O7 0.309757 0.000000 0.241437
O O8 0.750000 0.750000 0.323529
O O9 0.736214 0.624370 0.366071
O O10 0.000000 0.825631 0.323633
O O11 0.230872 0.117588 0.097058
O O12 0.000000 0.111320 0.151729
O O13 0.177964 0.000000 0.144393
O O14 0.500000 0.099082 0.401284
O O15 0.294264 0.000000 0.409180
O O16 0.500000 0.591798 0.950768
O O17 0.281151 0.500000 0.952357
O O18 0.268167 0.619676 0.000000
#
# Coordination Sequence:
#
# PCOD9489201 Si02
#       6
#     8  16  16  16  16  16
#     4  10  21  37  59  87 119 156 191 224 264 308
#     4  10  20  34  52  74 102 136 173 214 262 315
#     4  12  25  40  58  80 107 138 175 219 268 320
#     4   8  13  22  38  61  89 123 165 210 254 303
#     4  10  21  39  62  87 116 149 185 223 264 311
#     4   7   9  14  27  50  81 117 157 201 248 297
#
# _framework density 18.370000999999998
#
# number of rings (size 3 to 8) (size 9 to 14) (size 15 to 20)
#    0.000    2.545    0.000    5.182    0.000    6.909 
#    0.000    0.000    0.000    2.182    0.000    3.818 
#    0.000    0.727    0.000    2.000    0.000    5.091 
#
# Total GULP energy -245341.289088 kJ/mol
# GULP energy per Si atom -5575.938388 kJ/mol
# Density = 1.832819 g / cm^3
# Si number density = 18.370001 Si / 1000 Ang^3
#
#
#
# Elastic Constant Matrix: (Units=GPa)
#
#
# Indices 1 2 3 4 5 6 
#
# 1 75.1297 48.1553 75.9299 0.0000 0.0000 0.0000
# 2 48.1553 50.8132 59.3609 0.0000 0.0000 0.0000
# 3 75.9299 59.3609 207.7512 0.0000 0.0000 0.0000
# 4 0.0000 0.0000 0.0000 -17.4923 0.0000 0.0000
# 5 0.0000 0.0000 0.0000 0.0000 39.2904 0.0000
# 6 0.0000 0.0000 0.0000 0.0000 0.0000 21.5338
#
#
#
# Elastic Compliance Matrix: (Units=1/GPa)
#
#
# Indices 1 2 3 4 5 6 
#
# 1 0.037458 -0.029278 -0.005325 0.000000 0.000000 0.000000
# 2 -0.029278 0.052425 -0.004279 0.000000 0.000000 0.000000
# 3 -0.005325 -0.004279 0.007982 0.000000 0.000000 0.000000
# 4 0.000000 0.000000 0.000000 -0.057168 0.000000 0.000000
# 5 0.000000 0.000000 0.000000 0.000000 0.025452 0.000000
# 6 0.000000 0.000000 0.000000 0.000000 0.000000 0.046439
#
#
# Mechanical properties :
#
#
# Convention : Reuss Voigt Hill
#
# Bulk Modulus (GPa) = 49.74634 77.84291 63.79462
# Shear Modulus (GPa) = 25.37420 18.68292 22.02856
#
# Velocity S-wave (km/s) = 3.72060 3.19256 3.46665
# Velocity P-wave (km/s) = 6.75249 7.48712 7.12927
#
# Compressibility (1/GPa) = 0.02010198
#
# Stress axis : x y z
#
# Youngs Moduli (GPa) = 26.69673 19.07485 125.28085
#
# Poissons Ratio (x) = 0.55848 0.66707
# Poissons Ratio (y) = 0.78163 0.53604
# Poissons Ratio (z) = 0.14215 0.08162
#
# Static dielectric constant tensor:
#      x y z
#    x 1.617430 0.000000 0.000000 
#    y 0.000000 1.610860 0.000000 
#    z 0.000000 0.000000 1.659500 
# 
# From -- ./inp_files/76607.got.cif
#   From: 2010.05.17/outbox.cif.g08.bks.cpg/sg65_39_cif.got.tgz:76607.got - 2010.06.03 17:01:31.
