data_PCOD9489357
_publ_section_title
;
Structure prediction by ZEFSAII (Michael W. Deem and Ramdas Pophale) SiO2 
 PCOD9489357
Probable space group: C M M M
;
_chemical_formula_sum "Si O2"
_cell_formula_units_Z 88
_cell_length_a 21.976242
_cell_length_b 23.768481
_cell_length_c 8.920240
_cell_angle_alpha 90.000000
_cell_angle_beta 90.000000
_cell_angle_gamma 90.000000
_cell_volume 4659.415025
_symmetry_space_group_name_H-M "C M M M"
_symmetry_group_IT_number 65
_symmetry_cell_setting 'orthorhombic'
loop_
_space_group_symop_operation_xyz
x,y,z
-x,-y,z
x,-y,-z
-x,y,-z
-x,-y,-z
x,y,-z
-x,y,z
x,-y,z
1/2+x,1/2+y,z
1/2-x,1/2-y,z
1/2+x,1/2-y,-z
1/2-x,1/2+y,-z
1/2-x,1/2-y,-z
1/2+x,1/2+y,-z
1/2-x,1/2+y,z
1/2+x,1/2-y,z
loop_
_atom_site_type_symbol
_atom_site_label
_atom_site_fract_x
_atom_site_fract_y
_atom_site_fract_z
Si Si1 0.427497 0.328037 0.165568
Si Si2 0.000000 0.431718 0.673330
Si Si3 0.128891 0.434239 0.180632
Si Si4 0.723769 0.162741 0.179602
Si Si5 0.170812 0.226289 0.674765
Si Si6 0.426133 0.436883 0.331025
O O1 0.500000 0.324530 0.167263
O O2 0.398006 0.289443 0.290445
O O3 0.409664 0.391651 0.207537
O O4 0.405201 0.312592 0.000000
O O5 0.936260 0.415179 0.751422
O O6 0.000000 0.500000 0.678860
O O7 0.000000 0.414074 0.500000
O O8 0.139534 0.500000 0.223728
O O9 0.184151 0.392236 0.222212
O O10 0.123634 0.432564 0.000000
O O11 0.787452 0.174916 0.263407
O O12 0.687073 0.218286 0.231169
O O13 0.732527 0.162445 0.000000
O O14 0.181977 0.235201 0.500000
O O15 0.406945 0.420197 0.500000
O O16 0.500000 0.438606 0.333667
O O17 0.404452 0.500000 0.301081
#
# Coordination Sequence:
#
# PCOD9489357 Si02
#       6
#    16   8  16  16  16  16
#     4  10  20  34  53  77 105 137 176 224 272 320
#     4   9  17  29  49  79 115 151 181 215 262 317
#     4   9  18  34  57  84 113 146 182 221 270 326
#     4  10  20  37  60  81 105 140 181 224 267 320
#     4  11  22  37  57  78 105 141 182 225 273 329
#     4   8  14  26  45  69  98 132 167 204 253 312
#
# _framework density 18.886490999999999
#
# number of rings (size 3 to 8) (size 9 to 14) (size 15 to 20)
#    0.000    2.455    0.000    4.636    0.000    4.000 
#    1.636    2.727    0.000    3.273    0.000    0.000 
#    0.000    0.000    0.000    0.000    0.000    0.000 
#
# Total GULP energy -245131.492375 kJ/mol
# GULP energy per Si atom -5571.170281 kJ/mol
# Density = 1.884350 g / cm^3
# Si number density = 18.886491 Si / 1000 Ang^3
#
#
#
# Elastic Constant Matrix: (Units=GPa)
#
#
# Indices 1 2 3 4 5 6 
#
# 1 43.8714 35.2275 15.1712 0.0000 0.0000 0.0000
# 2 35.2275 51.8104 14.5717 0.0000 0.0000 0.0000
# 3 15.1712 14.5717 47.9457 0.0000 0.0000 0.0000
# 4 0.0000 0.0000 0.0000 16.4751 0.0000 0.0000
# 5 0.0000 0.0000 0.0000 0.0000 21.3727 0.0000
# 6 0.0000 0.0000 0.0000 0.0000 0.0000 24.8939
#
#
#
# Elastic Compliance Matrix: (Units=1/GPa)
#
#
# Indices 1 2 3 4 5 6 
#
# 1 0.051848 -0.033502 -0.006224 0.000000 0.000000 0.000000
# 2 -0.033502 0.042753 -0.002393 0.000000 0.000000 0.000000
# 3 -0.006224 -0.002393 0.023553 0.000000 0.000000 0.000000
# 4 0.000000 0.000000 0.000000 0.060698 0.000000 0.000000
# 5 0.000000 0.000000 0.000000 0.000000 0.046789 0.000000
# 6 0.000000 0.000000 0.000000 0.000000 0.000000 0.040170
#
#
# Mechanical properties :
#
#
# Convention : Reuss Voigt Hill
#
# Bulk Modulus (GPa) = 29.48392 30.39649 29.94020
# Shear Modulus (GPa) = 13.83683 17.79215 15.81449
#
# Velocity S-wave (km/s) = 2.70965 3.07262 2.89683
# Velocity P-wave (km/s) = 5.04328 5.35885 5.20346
#
# Compressibility (1/GPa) = 0.03391680
#
# Stress axis : x y z
#
# Youngs Moduli (GPa) = 19.28730 23.38994 42.45664
#
# Poissons Ratio (x) = 0.78362 0.26424
# Poissons Ratio (y) = 0.64617 0.10159
# Poissons Ratio (z) = 0.12004 0.05596
#
# Static dielectric constant tensor:
#      x y z
#    x 1.696360 0.000000 0.000000 
#    y 0.000000 1.660970 0.000000 
#    z 0.000000 0.000000 1.658550 
# 
# From -- ./inp_files/11734.got.cif
#   From: 2010.05.17/outbox.cif.g08.bks.cpg/sg65_6_cif.got.tgz:11734.got - 2010.06.03 17:01:31.
