data_PCOD9489194
_publ_section_title
;
Structure prediction by ZEFSAII (Michael W. Deem and Ramdas Pophale) SiO2 
 PCOD9489194
Probable space group: C M M M
;
_chemical_formula_sum "Si O2"
_cell_formula_units_Z 72
_cell_length_a 9.140361
_cell_length_b 17.639350
_cell_length_c 24.135677
_cell_angle_alpha 90.000000
_cell_angle_beta 90.000000
_cell_angle_gamma 90.000000
_cell_volume 3891.395850
_symmetry_space_group_name_H-M "C M M M"
_symmetry_group_IT_number 65
_symmetry_cell_setting 'orthorhombic'
loop_
_space_group_symop_operation_xyz
x,y,z
-x,-y,z
x,-y,-z
-x,y,-z
-x,-y,-z
x,y,-z
-x,y,z
x,-y,z
1/2+x,1/2+y,z
1/2-x,1/2-y,z
1/2+x,1/2-y,-z
1/2-x,1/2+y,-z
1/2-x,1/2-y,-z
1/2+x,1/2+y,-z
1/2-x,1/2+y,z
1/2+x,1/2-y,z
loop_
_atom_site_type_symbol
_atom_site_label
_atom_site_fract_x
_atom_site_fract_y
_atom_site_fract_z
Si Si1 0.323940 0.168304 0.386042
Si Si2 0.332029 0.907403 0.827981
Si Si3 0.322450 0.086308 0.500000
Si Si4 0.329238 0.407706 0.061506
Si Si5 0.168352 0.091515 0.283435
O O1 0.500000 0.173423 0.384334
O O2 0.250000 0.250000 0.383871
O O3 0.279295 0.128553 0.443791
O O4 0.264882 0.121264 0.333950
O O5 0.500000 0.883835 0.821732
O O6 0.264739 0.881356 0.886355
O O7 0.236196 0.883561 0.775290
O O8 0.329662 0.000000 0.828652
O O9 0.500000 0.084365 0.500000
O O10 0.269080 0.000000 0.500000
O O11 0.500000 0.387572 0.068543
O O12 0.323375 0.500000 0.061557
O O13 0.280524 0.382957 0.000000
O O14 0.000000 0.116656 0.288886
O O15 0.169961 0.000000 0.284087
#
# Coordination Sequence:
#
# PCOD9489194 Si02
#       5
#    16  16   8  16  16
#     4  11  22  37  57  80 109 141 174 212 256 306
#     4   9  16  25  39  61  89 123 164 209 257 308
#     4   9  19  36  59  85 110 139 174 211 252 300
#     4   8  13  21  33  51  80 120 162 203 251 306
#     4  10  20  34  52  74 101 134 174 218 263 312
#
# _framework density 18.502357
#
# number of rings (size 3 to 8) (size 9 to 14) (size 15 to 20)
#    0.000    2.556    0.000    3.667    0.000    5.333 
#    0.000    3.889    0.000    4.000    0.000    0.000 
#    0.000    0.889    0.000    3.333    0.000    7.778 
#
# Total GULP energy -200799.933551 kJ/mol
# GULP energy per Si atom -5577.775932 kJ/mol
# Density = 1.846024 g / cm^3
# Si number density = 18.502357 Si / 1000 Ang^3
#
#
#
# Elastic Constant Matrix: (Units=GPa)
#
#
# Indices 1 2 3 4 5 6 
#
# 1 103.5349 21.3151 72.9137 0.0000 0.0000 0.0000
# 2 21.3151 20.5898 24.2998 0.0000 0.0000 0.0000
# 3 72.9137 24.2998 170.2844 0.0000 0.0000 0.0000
# 4 0.0000 0.0000 0.0000 -10.8672 0.0000 0.0000
# 5 0.0000 0.0000 0.0000 0.0000 35.9313 0.0000
# 6 0.0000 0.0000 0.0000 0.0000 0.0000 14.1139
#
#
#
# Elastic Compliance Matrix: (Units=1/GPa)
#
#
# Indices 1 2 3 4 5 6 
#
# 1 0.015299 -0.009749 -0.005160 0.000000 0.000000 0.000000
# 2 -0.009749 0.064616 -0.005046 0.000000 0.000000 0.000000
# 3 -0.005160 -0.005046 0.008802 0.000000 0.000000 0.000000
# 4 0.000000 0.000000 0.000000 -0.092020 0.000000 0.000000
# 5 0.000000 0.000000 0.000000 0.000000 0.027831 0.000000
# 6 0.000000 0.000000 0.000000 0.000000 0.000000 0.070852
#
#
# Mechanical properties :
#
#
# Convention : Reuss Voigt Hill
#
# Bulk Modulus (GPa) = 20.48884 59.05180 39.77032
# Shear Modulus (GPa) = 32.99045 19.56097 26.27571
#
# Velocity S-wave (km/s) = 4.22719 3.25501 3.77255
# Velocity P-wave (km/s) = 5.90958 6.79058 6.36534
#
# Compressibility (1/GPa) = 0.04880705
#
# Stress axis : x y z
#
# Youngs Moduli (GPa) = 65.36225 15.47613 113.61004
#
# Poissons Ratio (x) = 0.15087 0.58621
# Poissons Ratio (y) = 0.63720 0.57333
# Poissons Ratio (z) = 0.33726 0.07810
#
# Static dielectric constant tensor:
#      x y z
#    x 1.623180 0.000000 0.000000 
#    y 0.000000 1.634700 0.000000 
#    z 0.000000 0.000000 1.632710 
# 
# From -- ./inp_files/66995.got.cif
#   From: 2010.05.17/outbox.cif.g08.bks.cpg/sg65_34_cif.got.tgz:66995.got - 2010.06.03 17:01:31.
