data_PCOD9489689
_publ_section_title
;
Structure prediction by ZEFSAII (Michael W. Deem and Ramdas Pophale) SiO2 
 PCOD9489689
Probable space group: C M M M
;
_chemical_formula_sum "Si O2"
_cell_formula_units_Z 104
_cell_length_a 20.895578
_cell_length_b 8.965665
_cell_length_c 30.300843
_cell_angle_alpha 90.000000
_cell_angle_beta 90.000000
_cell_angle_gamma 90.000000
_cell_volume 5676.643326
_symmetry_space_group_name_H-M "C M M M"
_symmetry_group_IT_number 65
_symmetry_cell_setting 'orthorhombic'
loop_
_space_group_symop_operation_xyz
x,y,z
-x,-y,z
x,-y,-z
-x,y,-z
-x,-y,-z
x,y,-z
-x,y,z
x,-y,z
1/2+x,1/2+y,z
1/2-x,1/2-y,z
1/2+x,1/2-y,-z
1/2-x,1/2+y,-z
1/2-x,1/2-y,-z
1/2+x,1/2+y,-z
1/2-x,1/2+y,z
1/2+x,1/2-y,z
loop_
_atom_site_type_symbol
_atom_site_label
_atom_site_fract_x
_atom_site_fract_y
_atom_site_fract_z
Si Si1 0.000000 0.831703 0.553070
Si Si2 0.926161 0.820641 0.298242
Si Si3 0.313549 0.678130 0.635543
Si Si4 0.075266 0.178631 0.113993
Si Si5 0.681841 0.822652 0.052517
Si Si6 0.422515 0.829780 0.206161
Si Si7 0.633878 0.821785 0.448565
O O1 0.936454 0.740675 0.563276
O O2 0.000000 0.846414 0.500000
O O3 0.000000 0.000000 0.572312
O O4 0.876427 0.780578 0.336432
O O5 0.904882 0.747823 0.252102
O O6 0.000000 0.776385 0.307893
O O7 0.925605 0.000000 0.293479
O O8 0.308477 0.500000 0.634142
O O9 0.250000 0.750000 0.655783
O O10 0.321072 0.742864 0.586465
O O11 0.123000 0.250815 0.078787
O O12 0.094683 0.238445 0.162424
O O13 0.000000 0.218647 0.106587
O O14 0.079779 0.000000 0.112705
O O15 0.750000 0.750000 0.065382
O O16 0.683928 0.000000 0.060290
O O17 0.673711 0.797367 0.000000
O O18 0.500000 0.833206 0.206528
O O19 0.399290 0.000000 0.203718
O O20 0.646889 0.784258 0.500000
O O21 0.636135 0.000000 0.444286
#
# Coordination Sequence:
#
# PCOD9489689 Si02
#       7
#     8  16  16  16  16  16  16
#     4   9  17  31  53  81 111 141 175 217 265 315
#     4   9  19  37  60  84 109 141 182 226 275 334
#     4  11  24  40  59  82 113 149 184 227 278 333
#     4  10  20  34  55  83 115 150 188 234 285 336
#     4  10  21  37  56  78 109 150 194 240 288 340
#     4   9  17  31  54  84 114 143 179 227 281 335
#     4  10  21  37  57  82 112 145 183 228 275 324
#
# _framework density 18.320687
#
# number of rings (size 3 to 8) (size 9 to 14) (size 15 to 20)
#    0.000    2.231    0.000    2.538    1.077    7.385 
#    0.000    2.308    0.000    1.846    0.000    0.000 
#    0.000    0.000    0.000    0.000    0.000    0.000 
#
# Total GULP energy -290183.572702 kJ/mol
# GULP energy per Si atom -5580.453321 kJ/mol
# Density = 1.827899 g / cm^3
# Si number density = 18.320687 Si / 1000 Ang^3
#
#
#
# Elastic Constant Matrix: (Units=GPa)
#
#
# Indices 1 2 3 4 5 6 
#
# 1 113.0240 56.1054 71.6496 0.0000 0.0000 0.0000
# 2 56.1054 78.5086 62.7382 0.0000 0.0000 0.0000
# 3 71.6496 62.7382 105.5576 0.0000 0.0000 0.0000
# 4 0.0000 0.0000 0.0000 30.1555 0.0000 0.0000
# 5 0.0000 0.0000 0.0000 0.0000 3.3248 0.0000
# 6 0.0000 0.0000 0.0000 0.0000 0.0000 30.0751
#
#
#
# Elastic Compliance Matrix: (Units=1/GPa)
#
#
# Indices 1 2 3 4 5 6 
#
# 1 0.016679 -0.005471 -0.008070 0.000000 0.000000 0.000000
# 2 -0.005471 0.026054 -0.011772 0.000000 0.000000 0.000000
# 3 -0.008070 -0.011772 0.021948 0.000000 0.000000 0.000000
# 4 0.000000 0.000000 0.000000 0.033161 0.000000 0.000000
# 5 0.000000 0.000000 0.000000 0.000000 0.300770 0.000000
# 6 0.000000 0.000000 0.000000 0.000000 0.000000 0.033250
#
#
# Mechanical properties :
#
#
# Convention : Reuss Voigt Hill
#
# Bulk Modulus (GPa) = 71.14349 75.34186 73.24268
# Shear Modulus (GPa) = 10.26330 19.81756 15.04043
#
# Velocity S-wave (km/s) = 2.36943 3.29249 2.86834
# Velocity P-wave (km/s) = 6.81192 7.46105 7.14386
#
# Compressibility (1/GPa) = 0.01405610
#
# Stress axis : x y z
#
# Youngs Moduli (GPa) = 59.95552 38.38115 45.56286
#
# Poissons Ratio (x) = 0.20998 0.36768
# Poissons Ratio (y) = 0.32801 0.53637
# Poissons Ratio (z) = 0.48382 0.45182
#
# Static dielectric constant tensor:
#      x y z
#    x 1.742040 0.000000 0.000000 
#    y 0.000000 1.615060 0.000000 
#    z 0.000000 0.000000 1.622300 
# 
# From -- ./inp_files/78237.got.cif
#   From: 2010.05.17/outbox.cif.g08.bks.cpg/sg65_40_cif.got.tgz:78237.got - 2010.06.03 17:01:31.
