data_PCOD9489718
_publ_section_title
;
Structure prediction by ZEFSAII (Michael W. Deem and Ramdas Pophale) SiO2 
 PCOD9489718
Probable space group: C M M M
;
_chemical_formula_sum "Si O2"
_cell_formula_units_Z 120
_cell_length_a 12.580274
_cell_length_b 20.078752
_cell_length_c 20.662806
_cell_angle_alpha 90.000000
_cell_angle_beta 90.000000
_cell_angle_gamma 90.000000
_cell_volume 5219.346313
_symmetry_space_group_name_H-M "C M M M"
_symmetry_group_IT_number 65
_symmetry_cell_setting 'orthorhombic'
loop_
_space_group_symop_operation_xyz
x,y,z
-x,-y,z
x,-y,-z
-x,y,-z
-x,-y,-z
x,y,-z
-x,y,z
x,-y,z
1/2+x,1/2+y,z
1/2-x,1/2-y,z
1/2+x,1/2-y,-z
1/2-x,1/2+y,-z
1/2-x,1/2-y,-z
1/2+x,1/2+y,-z
1/2-x,1/2+y,z
1/2+x,1/2-y,z
loop_
_atom_site_type_symbol
_atom_site_label
_atom_site_fract_x
_atom_site_fract_y
_atom_site_fract_z
Si Si1 0.375989 0.736119 0.200237
Si Si2 0.500000 0.571553 0.078081
Si Si3 0.112320 0.115822 0.298275
Si Si4 0.124382 0.580151 0.115890
Si Si5 0.116969 0.579976 0.599972
Si Si6 0.337551 0.925625 0.261144
Si Si7 0.697537 0.322455 0.571450
Si Si8 0.313516 0.331102 0.926006
O O1 0.500000 0.766851 0.205490
O O2 0.250000 0.750000 0.223800
O O3 0.391399 0.669361 0.241196
O O4 0.351874 0.724946 0.124253
O O5 0.500000 0.500000 0.109214
O O6 0.394628 0.610519 0.093869
O O7 0.500000 0.566340 0.000000
O O8 0.214211 0.073081 0.279880
O O9 0.130546 0.154365 0.366433
O O10 0.000000 0.079947 0.301810
O O11 0.152913 0.500000 0.109900
O O12 0.141657 0.603289 0.190811
O O13 0.200728 0.630939 0.078692
O O14 0.000000 0.585141 0.099421
O O15 0.139304 0.500000 0.599749
O O16 0.113561 0.605273 0.674674
O O17 0.208598 0.622817 0.568743
O O18 0.000000 0.589259 0.572266
O O19 0.380861 0.000000 0.256165
O O20 0.645170 0.320702 0.500000
O O21 0.750000 0.250000 0.582753
O O22 0.331457 0.310123 0.000000
#
# Coordination Sequence:
#
# PCOD9489718 Si02
#       8
#    16   8  16  16  16  16  16  16
#     4  11  24  44  66  90 119 158 211 269 323 376
#     4   9  18  34  58  86 116 152 191 235 298 366
#     4  10  21  39  61  86 118 155 203 257 311 373
#     4  10  20  34  55  86 125 164 200 244 306 381
#     4   9  18  34  59  91 125 162 207 261 321 384
#     4   9  17  33  57  87 122 157 198 248 309 376
#     4  10  22  39  59  87 125 166 207 253 311 381
#     4  11  22  38  59  85 120 158 199 251 307 370
#
# _framework density 22.991385999999999
#
# number of rings (size 3 to 8) (size 9 to 14) (size 15 to 20)
#    0.000    2.067    2.000    1.200    0.000    5.067 
#    0.000    4.667    0.000    0.000    0.000    3.733 
#    0.000    0.000    0.000    0.000    0.000    0.000 
#
# Total GULP energy -334041.885283 kJ/mol
# GULP energy per Si atom -5567.364755 kJ/mol
# Density = 2.293906 g / cm^3
# Si number density = 22.991386 Si / 1000 Ang^3
#
#
#
# Elastic Constant Matrix: (Units=GPa)
#
#
# Indices 1 2 3 4 5 6 
#
# 1 164.0683 37.5833 0.8653 0.0000 0.0000 0.0000
# 2 37.5833 58.8863 -1.1541 0.0000 0.0000 0.0000
# 3 0.8653 -1.1541 105.2075 0.0000 0.0000 0.0000
# 4 0.0000 0.0000 0.0000 -1.9115 0.0000 0.0000
# 5 0.0000 0.0000 0.0000 0.0000 -22.2308 0.0000
# 6 0.0000 0.0000 0.0000 0.0000 0.0000 21.3653
#
#
#
# Elastic Compliance Matrix: (Units=1/GPa)
#
#
# Indices 1 2 3 4 5 6 
#
# 1 0.007140 -0.004559 -0.000109 0.000000 0.000000 0.000000
# 2 -0.004559 0.019897 0.000256 0.000000 0.000000 0.000000
# 3 -0.000109 0.000256 0.009509 0.000000 0.000000 0.000000
# 4 0.000000 0.000000 0.000000 -0.523150 0.000000 0.000000
# 5 0.000000 0.000000 0.000000 0.000000 -0.044983 0.000000
# 6 0.000000 0.000000 0.000000 0.000000 0.000000 0.046805
#
#
# Mechanical properties :
#
#
# Convention : Reuss Voigt Hill
#
# Bulk Modulus (GPa) = 36.07349 44.75012 40.41180
# Shear Modulus (GPa) = -10.71310 18.83579 4.06134
#
# Velocity S-wave (km/s) = -2.16096 2.86537 1.33053
# Velocity P-wave (km/s) = 3.08184 5.51844 4.46939
#
# Compressibility (1/GPa) = 0.02772119
#
# Stress axis : x y z
#
# Youngs Moduli (GPa) = 140.05690 50.25971 105.16656
#
# Poissons Ratio (x) = 0.22914 0.01144
# Poissons Ratio (y) = 0.63853 -0.02690
# Poissons Ratio (z) = 0.01523 -0.01285
#
# Static dielectric constant tensor:
#      x y z
#    x 2.275640 0.000000 0.000000 
#    y 0.000000 1.892910 0.000000 
#    z 0.000000 0.000000 1.898730 
# 
# From -- ./inp_files/69181.got.cif
#   From: 2010.05.17/outbox.cif.g08.bks.cpg/sg65_35_cif.got.tgz:69181.got - 2010.06.03 17:01:31.
