data_PCOD9489209
_publ_section_title
;
Structure prediction by ZEFSAII (Michael W. Deem and Ramdas Pophale) SiO2 
 PCOD9489209
Probable space group: C M M M
;
_chemical_formula_sum "Si O2"
_cell_formula_units_Z 120
_cell_length_a 29.084780
_cell_length_b 8.801196
_cell_length_c 29.100404
_cell_angle_alpha 90.000000
_cell_angle_beta 90.000000
_cell_angle_gamma 90.000000
_cell_volume 7449.146134
_symmetry_space_group_name_H-M "C M M M"
_symmetry_group_IT_number 65
_symmetry_cell_setting 'orthorhombic'
loop_
_space_group_symop_operation_xyz
x,y,z
-x,-y,z
x,-y,-z
-x,y,-z
-x,-y,-z
x,y,-z
-x,y,z
x,-y,z
1/2+x,1/2+y,z
1/2-x,1/2-y,z
1/2+x,1/2-y,-z
1/2-x,1/2+y,-z
1/2-x,1/2-y,-z
1/2+x,1/2+y,-z
1/2-x,1/2+y,z
1/2+x,1/2-y,z
loop_
_atom_site_type_symbol
_atom_site_label
_atom_site_fract_x
_atom_site_fract_y
_atom_site_fract_z
Si Si1 0.299508 0.181295 0.285090
Si Si2 0.946989 0.184859 0.051603
Si Si3 0.893470 0.181306 0.316315
Si Si4 0.054778 0.680756 0.228316
Si Si5 0.200644 0.681054 0.824001
Si Si6 0.607621 0.682880 0.141334
Si Si7 0.445372 0.181248 0.403057
Si Si8 0.944218 0.175094 0.500000
O O1 0.250000 0.250000 0.297700
O O2 0.341746 0.256126 0.311643
O O3 0.306552 0.212462 0.230510
O O4 0.299471 0.000000 0.291276
O O5 0.914405 0.233652 0.092986
O O6 0.000000 0.230981 0.059939
O O7 0.946663 0.000000 0.051513
O O8 0.933828 0.234106 0.000000
O O9 0.921833 0.247476 0.273130
O O10 0.917442 0.239125 0.362648
O O11 0.893529 0.000000 0.314318
O O12 0.063881 0.500000 0.228238
O O13 0.076851 0.753740 0.183014
O O14 0.000000 0.704752 0.229227
O O15 0.200834 0.500000 0.829984
O O16 0.250000 0.750000 0.836667
O O17 0.158813 0.755504 0.851193
O O18 0.607622 0.500000 0.143172
O O19 0.500000 0.214309 0.397584
O O20 0.430512 0.241277 0.453131
O O21 0.439727 0.000000 0.400447
O O22 0.000000 0.176144 0.500000
O O23 0.929109 0.000000 0.500000
#
# Coordination Sequence:
#
# PCOD9489209 Si02
#       8
#    16  16  16  16  16  16  16   8
#     4  10  20  35  54  74 101 134 170 211 256 304
#     4   8  15  29  49  74 103 133 167 208 251 296
#     4  12  23  34  51  75 104 137 174 214 257 306
#     4  11  23  36  48  67 101 141 174 206 249 302
#     4  10  20  34  53  74 101 132 166 208 254 302
#     4  11  20  31  52  78 102 130 168 209 253 304
#     4  10  20  34  52  74 104 142 180 218 263 311
#     4   9  17  31  51  75 102 133 176 225 265 305
#
# _framework density 16.109228999999999
#
# number of rings (size 3 to 8) (size 9 to 14) (size 15 to 20)
#    0.000    1.800    1.333    4.600    0.000    5.867 
#    0.000    0.000    0.000    2.000    0.000    5.133 
#    0.000    0.000    0.000    0.000    0.000    0.000 
#
# Total GULP energy -335029.890900 kJ/mol
# GULP energy per Si atom -5583.831515 kJ/mol
# Density = 1.607256 g / cm^3
# Si number density = 16.109229 Si / 1000 Ang^3
#
#
#
# Elastic Constant Matrix: (Units=GPa)
#
#
# Indices 1 2 3 4 5 6 
#
# 1 120.3878 67.4658 83.7094 0.0000 0.0000 0.0000
# 2 67.4658 79.1113 55.5905 0.0000 0.0000 0.0000
# 3 83.7094 55.5905 133.4831 0.0000 0.0000 0.0000
# 4 0.0000 0.0000 0.0000 11.6522 0.0000 0.0000
# 5 0.0000 0.0000 0.0000 0.0000 7.4379 0.0000
# 6 0.0000 0.0000 0.0000 0.0000 0.0000 28.1125
#
#
#
# Elastic Compliance Matrix: (Units=1/GPa)
#
#
# Indices 1 2 3 4 5 6 
#
# 1 0.020452 -0.011916 -0.007863 0.000000 0.000000 0.000000
# 2 -0.011916 0.024812 -0.002861 0.000000 0.000000 0.000000
# 3 -0.007863 -0.002861 0.013614 0.000000 0.000000 0.000000
# 4 0.000000 0.000000 0.000000 0.085821 0.000000 0.000000
# 5 0.000000 0.000000 0.000000 0.000000 0.134447 0.000000
# 6 0.000000 0.000000 0.000000 0.000000 0.000000 0.035571
#
#
# Mechanical properties :
#
#
# Convention : Reuss Voigt Hill
#
# Bulk Modulus (GPa) = 73.53622 82.94595 78.24108
# Shear Modulus (GPa) = 13.71630 17.85493 15.78562
#
# Velocity S-wave (km/s) = 2.92114 3.33283 3.13375
# Velocity P-wave (km/s) = 7.55811 8.14934 7.85929
#
# Compressibility (1/GPa) = 0.01359874
#
# Stress axis : x y z
#
# Youngs Moduli (GPa) = 48.89604 40.30241 73.45344
#
# Poissons Ratio (x) = 0.48023 0.57757
# Poissons Ratio (y) = 0.58263 0.21014
# Poissons Ratio (z) = 0.38447 0.11530
#
# Static dielectric constant tensor:
#      x y z
#    x 1.523340 0.000000 0.000000 
#    y 0.000000 1.537330 0.000000 
#    z 0.000000 0.000000 1.521580 
# 
# From -- ./inp_files/76108.got.cif
#   From: 2010.05.17/outbox.cif.g08.bks.cpg/sg65_39_cif.got.tgz:76108.got - 2010.06.03 17:01:31.
