data_PCOD9489849
_publ_section_title
;
Structure prediction by ZEFSAII (Michael W. Deem and Ramdas Pophale) SiO2 
 PCOD9489849
Probable space group: C M M M
;
_chemical_formula_sum "Si O2"
_cell_formula_units_Z 64
_cell_length_a 7.448007
_cell_length_b 24.226400
_cell_length_c 16.245481
_cell_angle_alpha 90.000000
_cell_angle_beta 90.000000
_cell_angle_gamma 90.000000
_cell_volume 2931.308547
_symmetry_space_group_name_H-M "C M M M"
_symmetry_group_IT_number 65
_symmetry_cell_setting 'orthorhombic'
loop_
_space_group_symop_operation_xyz
x,y,z
-x,-y,z
x,-y,-z
-x,y,-z
-x,-y,-z
x,y,-z
-x,y,z
x,-y,z
1/2+x,1/2+y,z
1/2-x,1/2-y,z
1/2+x,1/2-y,-z
1/2-x,1/2+y,-z
1/2-x,1/2-y,-z
1/2+x,1/2+y,-z
1/2-x,1/2+y,z
1/2+x,1/2-y,z
loop_
_atom_site_type_symbol
_atom_site_label
_atom_site_fract_x
_atom_site_fract_y
_atom_site_fract_z
Si Si1 0.718420 0.000000 0.095168
Si Si2 0.779894 0.381436 0.840785
Si Si3 0.714939 0.500000 0.595172
Si Si4 0.215468 0.685053 0.500000
Si Si5 0.710862 0.878724 0.340887
Si Si6 0.285711 0.814623 0.000000
O O1 0.774879 0.944101 0.139392
O O2 0.500000 0.000000 0.094572
O O3 0.775533 0.000000 0.000000
O O4 0.716136 0.365780 0.749719
O O5 0.719071 0.343415 0.916398
O O6 0.000000 0.380478 0.839901
O O7 0.500000 0.500000 0.593641
O O8 0.779238 0.500000 0.500000
O O9 0.773596 0.443844 0.639523
O O10 0.250000 0.750000 0.500000
O O11 0.287015 0.655212 0.582096
O O12 0.000000 0.676652 0.500000
O O13 0.500000 0.865339 0.337245
O O14 0.250000 0.750000 0.000000
O O15 0.500000 0.823350 0.000000
#
# Coordination Sequence:
#
# PCOD9489849 Si02
#       6
#     8  16   8   8  16   8
#     4   9  13  22  44  75 103 126 156 204 258 298
#     4   9  17  30  52  79 106 134 172 219 263 309
#     4  11  22  35  55  84 115 144 171 213 275 333
#     4  10  22  37  54  75 103 138 182 226 267 312
#     4  10  20  36  57  81 107 142 183 222 264 319
#     4  10  20  35  53  77 107 140 181 224 264 312
#
# _framework density 21.833252000000002
#
# number of rings (size 3 to 8) (size 9 to 14) (size 15 to 20)
#    0.000    2.250    2.500    1.125    0.000    4.500 
#    0.000    1.250    0.000    0.000    0.000    1.750 
#    0.000    0.000    0.000    0.000    0.000    0.000 
#
# Total GULP energy -178811.367810 kJ/mol
# GULP energy per Si atom -5587.855244 kJ/mol
# Density = 2.178356 g / cm^3
# Si number density = 21.833252 Si / 1000 Ang^3
#
#
#
# Elastic Constant Matrix: (Units=GPa)
#
#
# Indices 1 2 3 4 5 6 
#
# 1 67.7378 -11.2593 12.9415 0.0000 0.0000 0.0000
# 2 -11.2593 158.3299 113.4625 0.0000 0.0000 0.0000
# 3 12.9415 113.4625 263.9301 0.0000 0.0000 0.0000
# 4 0.0000 0.0000 0.0000 -11.8505 0.0000 0.0000
# 5 0.0000 0.0000 0.0000 0.0000 -7.5049 0.0000
# 6 0.0000 0.0000 0.0000 0.0000 0.0000 19.0557
#
#
#
# Elastic Compliance Matrix: (Units=1/GPa)
#
#
# Indices 1 2 3 4 5 6 
#
# 1 0.015499 0.002380 -0.001783 0.000000 0.000000 0.000000
# 2 0.002380 0.009493 -0.004198 0.000000 0.000000 0.000000
# 3 -0.001783 -0.004198 0.005681 0.000000 0.000000 0.000000
# 4 0.000000 0.000000 0.000000 -0.084384 0.000000 0.000000
# 5 0.000000 0.000000 0.000000 0.000000 -0.133246 0.000000
# 6 0.000000 0.000000 0.000000 0.000000 0.000000 0.052478
#
#
# Mechanical properties :
#
#
# Convention : Reuss Voigt Hill
#
# Bulk Modulus (GPa) = 42.60489 80.03193 61.31841
# Shear Modulus (GPa) = -41.85750 24.93025 -8.46362
#
# Velocity S-wave (km/s) = -4.38327 3.38279 -1.97101
# Velocity P-wave (km/s) = 2.46197 7.21063 4.79228
#
# Compressibility (1/GPa) = 0.02347148
#
# Stress axis : x y z
#
# Youngs Moduli (GPa) = 64.51996 105.33525 176.02573
#
# Poissons Ratio (x) = -0.25070 0.31388
# Poissons Ratio (y) = -0.15356 0.73894
# Poissons Ratio (z) = 0.11505 0.44219
#
# Static dielectric constant tensor:
#      x y z
#    x 1.823130 0.000000 0.000000 
#    y 0.000000 1.727410 0.000000 
#    z 0.000000 0.000000 1.809830 
# 
# From -- ./inp_files/36123.got.cif
#   From: 2010.05.17/outbox.cif.g08.bks.cpg/sg65_19_cif.got.tgz:36123.got - 2010.06.03 17:01:31.
