data_PCOD9489006
_publ_section_title
;
Structure prediction by ZEFSAII (Michael W. Deem and Ramdas Pophale) SiO2 
 PCOD9489006
Probable space group: C M M M
;
_chemical_formula_sum "Si O2"
_cell_formula_units_Z 72
_cell_length_a 18.399296
_cell_length_b 22.876744
_cell_length_c 7.607441
_cell_angle_alpha 90.000000
_cell_angle_beta 90.000000
_cell_angle_gamma 90.000000
_cell_volume 3202.093517
_symmetry_space_group_name_H-M "C M M M"
_symmetry_group_IT_number 65
_symmetry_cell_setting 'orthorhombic'
loop_
_space_group_symop_operation_xyz
x,y,z
-x,-y,z
x,-y,-z
-x,y,-z
-x,-y,-z
x,y,-z
-x,y,z
x,-y,z
1/2+x,1/2+y,z
1/2-x,1/2-y,z
1/2+x,1/2-y,-z
1/2-x,1/2+y,-z
1/2-x,1/2-y,-z
1/2+x,1/2+y,-z
1/2-x,1/2+y,z
1/2+x,1/2-y,z
loop_
_atom_site_type_symbol
_atom_site_label
_atom_site_fract_x
_atom_site_fract_y
_atom_site_fract_z
Si Si1 0.581864 0.500000 0.792768
Si Si2 0.579905 0.257963 0.715053
Si Si3 0.350115 0.375332 0.710793
Si Si4 0.917593 0.567573 0.787454
Si Si5 0.194725 0.334494 0.297594
O O1 0.500000 0.500000 0.713981
O O2 0.624925 0.559281 0.750332
O O3 0.573946 0.500000 0.000000
O O4 0.580159 0.254571 0.500000
O O5 0.500000 0.237799 0.773493
O O6 0.593450 0.325111 0.765816
O O7 0.647003 0.218444 0.779372
O O8 0.346004 0.372777 0.500000
O O9 0.271213 0.355158 0.780719
O O10 0.904605 0.500000 0.740262
O O11 0.859161 0.610529 0.707756
O O12 0.000000 0.582801 0.734360
O O13 0.913827 0.571655 0.000000
O O14 0.209698 0.317651 0.500000
#
# Coordination Sequence:
#
# PCOD9489006 Si02
#       5
#     8  16  16  16  16
#     4  11  25  43  61  83 112 147 190 239 283 322
#     4   9  17  32  56  84 114 149 185 225 277 333
#     4  10  21  37  59  86 116 149 186 228 279 339
#     4   9  19  35  52  72 104 149 195 233 275 331
#     4  10  20  33  54  85 117 143 180 231 281 330
#
# _framework density 22.485289999999999
#
# number of rings (size 3 to 8) (size 9 to 14) (size 15 to 20)
#    0.000    2.333    0.000    3.000    1.556    7.111 
#    0.000    2.222    0.000    6.667    0.000    0.000 
#    0.000    0.000    0.000    0.000    0.000    0.000 
#
# Total GULP energy -201080.231605 kJ/mol
# GULP energy per Si atom -5585.561989 kJ/mol
# Density = 2.243411 g / cm^3
# Si number density = 22.485290 Si / 1000 Ang^3
#
#
#
# Elastic Constant Matrix: (Units=GPa)
#
#
# Indices 1 2 3 4 5 6 
#
# 1 146.9911 91.3107 8.3442 0.0000 0.0000 0.0000
# 2 91.3107 145.0476 2.9919 0.0000 0.0000 0.0000
# 3 8.3442 2.9919 47.8653 0.0000 0.0000 0.0000
# 4 0.0000 0.0000 0.0000 117.8100 0.0000 0.0000
# 5 0.0000 0.0000 0.0000 0.0000 -5.6752 0.0000
# 6 0.0000 0.0000 0.0000 0.0000 0.0000 16.2120
#
#
#
# Elastic Compliance Matrix: (Units=1/GPa)
#
#
# Indices 1 2 3 4 5 6 
#
# 1 0.011282 -0.007071 -0.001525 0.000000 0.000000 0.000000
# 2 -0.007071 0.011335 0.000524 0.000000 0.000000 0.000000
# 3 -0.001525 0.000524 0.021125 0.000000 0.000000 0.000000
# 4 0.000000 0.000000 0.000000 0.008488 0.000000 0.000000
# 5 0.000000 0.000000 0.000000 0.000000 -0.176206 0.000000
# 6 0.000000 0.000000 0.000000 0.000000 0.000000 0.061683
#
#
# Mechanical properties :
#
#
# Convention : Reuss Voigt Hill
#
# Bulk Modulus (GPa) = 36.23345 60.57751 48.40548
# Shear Modulus (GPa) = -135.31535 41.48650 -46.91442
#
# Velocity S-wave (km/s) = -7.76596 4.30007 -4.57272
# Velocity P-wave (km/s) = 8.01650 7.18704 2.51105
#
# Compressibility (1/GPa) = 0.02759881
#
# Stress axis : x y z
#
# Youngs Moduli (GPa) = 88.63571 88.22406 47.33725
#
# Poissons Ratio (x) = 0.62382 0.07218
# Poissons Ratio (y) = 0.62673 -0.02481
# Poissons Ratio (z) = 0.13515 -0.04624
#
# Static dielectric constant tensor:
#      x y z
#    x 1.841520 0.000000 0.000000 
#    y 0.000000 1.817680 0.000000 
#    z 0.000000 0.000000 1.841120 
# 
# From -- ./inp_files/9258.got.cif
#   From: 2010.05.17/outbox.cif.g08.bks.cpg/sg65_5_cif.got.tgz:9258.got - 2010.06.03 17:01:31.
