data_PCOD9489556
_publ_section_title
;
Structure prediction by ZEFSAII (Michael W. Deem and Ramdas Pophale) SiO2 
 PCOD9489556
Probable space group: C M M M
;
_chemical_formula_sum "Si O2"
_cell_formula_units_Z 88
_cell_length_a 18.617233
_cell_length_b 8.888295
_cell_length_c 29.204923
_cell_angle_alpha 90.000000
_cell_angle_beta 90.000000
_cell_angle_gamma 90.000000
_cell_volume 4832.698038
_symmetry_space_group_name_H-M "C M M M"
_symmetry_group_IT_number 65
_symmetry_cell_setting 'orthorhombic'
loop_
_space_group_symop_operation_xyz
x,y,z
-x,-y,z
x,-y,-z
-x,y,-z
-x,-y,-z
x,y,-z
-x,y,z
x,-y,z
1/2+x,1/2+y,z
1/2-x,1/2-y,z
1/2+x,1/2-y,-z
1/2-x,1/2+y,-z
1/2-x,1/2-y,-z
1/2+x,1/2+y,-z
1/2-x,1/2+y,z
1/2+x,1/2-y,z
loop_
_atom_site_type_symbol
_atom_site_label
_atom_site_fract_x
_atom_site_fract_y
_atom_site_fract_z
Si Si1 0.583027 0.316469 0.264643
Si Si2 0.328778 0.820644 0.551200
Si Si3 0.084450 0.818961 0.084506
Si Si4 0.671396 0.681304 0.176225
Si Si5 0.586317 0.324043 0.366605
Si Si6 0.170473 0.320360 0.000000
O O1 0.500000 0.270350 0.257240
O O2 0.582586 0.500000 0.265064
O O3 0.633650 0.267421 0.223314
O O4 0.606997 0.269253 0.315552
O O5 0.355281 0.778064 0.500000
O O6 0.250000 0.750000 0.556614
O O7 0.378543 0.763759 0.591896
O O8 0.323038 0.000000 0.552900
O O9 0.120849 0.781576 0.133083
O O10 0.127152 0.737003 0.044290
O O11 0.000000 0.781167 0.084090
O O12 0.090377 0.000000 0.077970
O O13 0.677259 0.500000 0.177797
O O14 0.750000 0.750000 0.170697
O O15 0.500000 0.314998 0.368604
O O16 0.606369 0.500000 0.370470
O O17 0.250000 0.250000 0.000000
O O18 0.175687 0.500000 0.000000
#
# Coordination Sequence:
#
# PCOD9489556 Si02
#       6
#    16  16  16  16  16   8
#     4   8  15  31  54  77 102 135 175 214 254 306
#     4  10  21  36  53  73 100 135 174 217 264 314
#     4  10  21  38  60  84 110 143 183 224 267 317
#     4  10  20  34  54  80 109 141 177 218 263 311
#     4   9  18  33  54  79 106 137 173 214 260 312
#     4  12  25  40  59  83 113 147 181 222 271 318
#
# _framework density 18.209291
#
# number of rings (size 3 to 8) (size 9 to 14) (size 15 to 20)
#    0.000    2.364    0.000    3.818    0.000    8.364 
#    0.000    4.545    0.000    2.727    0.000    0.000 
#    0.000    0.000    0.000    0.000    0.000    0.000 
#
# Total GULP energy -245561.642978 kJ/mol
# GULP energy per Si atom -5580.946431 kJ/mol
# Density = 1.816785 g / cm^3
# Si number density = 18.209291 Si / 1000 Ang^3
#
#
#
# Elastic Constant Matrix: (Units=GPa)
#
#
# Indices 1 2 3 4 5 6 
#
# 1 118.2098 45.8988 95.0822 0.0000 0.0000 0.0000
# 2 45.8988 40.9753 63.0490 0.0000 0.0000 0.0000
# 3 95.0822 63.0490 185.1035 0.0000 0.0000 0.0000
# 4 0.0000 0.0000 0.0000 10.3282 0.0000 0.0000
# 5 0.0000 0.0000 0.0000 0.0000 61.3000 0.0000
# 6 0.0000 0.0000 0.0000 0.0000 0.0000 30.1413
#
#
#
# Elastic Compliance Matrix: (Units=1/GPa)
#
#
# Indices 1 2 3 4 5 6 
#
# 1 0.016665 -0.011548 -0.004627 0.000000 0.000000 0.000000
# 2 -0.011548 0.059285 -0.014261 0.000000 0.000000 0.000000
# 3 -0.004627 -0.014261 0.012637 0.000000 0.000000 0.000000
# 4 0.000000 0.000000 0.000000 0.096822 0.000000 0.000000
# 5 0.000000 0.000000 0.000000 0.000000 0.016313 0.000000
# 6 0.000000 0.000000 0.000000 0.000000 0.000000 0.033177
#
#
# Mechanical properties :
#
#
# Convention : Reuss Voigt Hill
#
# Bulk Modulus (GPa) = 36.08312 83.59431 59.83872
# Shear Modulus (GPa) = 16.39294 29.70448 23.04871
#
# Velocity S-wave (km/s) = 3.00367 4.04329 3.56162
# Velocity P-wave (km/s) = 5.64696 8.23437 7.06021
#
# Compressibility (1/GPa) = 0.02771379
#
# Stress axis : x y z
#
# Youngs Moduli (GPa) = 60.00556 16.86779 79.13446
#
# Poissons Ratio (x) = 0.19479 0.36615
# Poissons Ratio (y) = 0.69295 1.12856
# Poissons Ratio (z) = 0.27764 0.24056
#
# Static dielectric constant tensor:
#      x y z
#    x 1.591130 0.000000 0.000000 
#    y 0.000000 1.613840 0.000000 
#    z 0.000000 0.000000 1.629810 
# 
# From -- ./inp_files/70967.got.cif
#   From: 2010.05.17/outbox.cif.g08.bks.cpg/sg65_36_cif.got.tgz:70967.got - 2010.06.03 17:01:31.
