data_PCOD9489105
_publ_section_title
;
Structure prediction by ZEFSAII (Michael W. Deem and Ramdas Pophale) SiO2 
 PCOD9489105
Probable space group: C M M M
;
_chemical_formula_sum "Si O2"
_cell_formula_units_Z 104
_cell_length_a 7.942274
_cell_length_b 20.559029
_cell_length_c 34.185507
_cell_angle_alpha 90.000000
_cell_angle_beta 90.000000
_cell_angle_gamma 90.000000
_cell_volume 5581.995603
_symmetry_space_group_name_H-M "C M M M"
_symmetry_group_IT_number 65
_symmetry_cell_setting 'orthorhombic'
loop_
_space_group_symop_operation_xyz
x,y,z
-x,-y,z
x,-y,-z
-x,y,-z
-x,-y,-z
x,y,-z
-x,y,z
x,-y,z
1/2+x,1/2+y,z
1/2-x,1/2-y,z
1/2+x,1/2-y,-z
1/2-x,1/2+y,-z
1/2-x,1/2-y,-z
1/2+x,1/2+y,-z
1/2-x,1/2+y,z
1/2+x,1/2-y,z
loop_
_atom_site_type_symbol
_atom_site_label
_atom_site_fract_x
_atom_site_fract_y
_atom_site_fract_z
Si Si1 0.799450 0.823433 0.349563
Si Si2 0.703104 0.074208 0.108705
Si Si3 0.702681 0.925975 0.584908
Si Si4 0.693978 0.920884 0.500000
Si Si5 0.203275 0.823652 0.739103
Si Si6 0.203105 0.925807 0.196720
Si Si7 0.796847 0.676224 0.044456
O O1 0.750000 0.750000 0.360821
O O2 0.741867 0.876538 0.380637
O O3 0.734123 0.835290 0.305298
O O4 0.000000 0.826262 0.347855
O O5 0.500000 0.072882 0.106375
O O6 0.749846 0.094250 0.152724
O O7 0.765851 0.124042 0.075908
O O8 0.764087 0.000000 0.102757
O O9 0.500000 0.929375 0.581126
O O10 0.769590 0.903343 0.542187
O O11 0.762461 0.000000 0.592668
O O12 0.500000 0.897446 0.500000
O O13 0.689929 0.000000 0.500000
O O14 0.250000 0.750000 0.750027
O O15 0.265795 0.876084 0.770423
O O16 0.000000 0.827710 0.738348
O O17 0.000000 0.927098 0.198970
O O18 0.264094 0.000000 0.202689
O O19 0.750000 0.750000 0.055069
O O20 0.000000 0.672238 0.043761
O O21 0.736203 0.664035 0.000000
#
# Coordination Sequence:
#
# PCOD9489105 Si02
#       7
#    16  16  16   8  16  16  16
#     4  10  20  34  51  71  98 130 163 201 244 288
#     4   9  18  32  49  70  95 122 154 192 232 273
#     4   9  17  31  52  76 100 127 161 199 240 288
#     4   7  12  26  48  71  96 127 159 193 236 285
#     4   9  19  34  51  70  93 124 159 195 235 281
#     4   9  18  33  51  70  94 124 156 190 231 279
#     4   9  18  32  49  69  94 124 156 191 231 274
#
# _framework density 18.631328
#
# number of rings (size 3 to 8) (size 9 to 14) (size 15 to 20)
#    0.000    3.000    0.000    1.385    0.000    3.692 
#    0.000    6.923    0.000    3.231    0.000    4.308 
#    0.000    0.000    0.000    0.000    0.000    0.000 
#
# Total GULP energy -289795.024098 kJ/mol
# GULP energy per Si atom -5572.981233 kJ/mol
# Density = 1.858892 g / cm^3
# Si number density = 18.631328 Si / 1000 Ang^3
#
#
#
# Elastic Constant Matrix: (Units=GPa)
#
#
# Indices 1 2 3 4 5 6 
#
# 1 16.7995 7.1248 8.6834 0.0000 0.0000 0.0000
# 2 7.1248 127.4737 129.9553 0.0000 0.0000 0.0000
# 3 8.6834 129.9553 166.3567 0.0000 0.0000 0.0000
# 4 0.0000 0.0000 0.0000-1229.7227 0.0000 0.0000
# 5 0.0000 0.0000 0.0000 0.0000 13.1687 0.0000
# 6 0.0000 0.0000 0.0000 0.0000 0.0000 21.0334
#
#
#
# Elastic Compliance Matrix: (Units=1/GPa)
#
#
# Indices 1 2 3 4 5 6 
#
# 1 0.061193 -0.000805 -0.002565 0.000000 0.000000 0.000000
# 2 -0.000805 0.038540 -0.030064 0.000000 0.000000 0.000000
# 3 -0.002565 -0.030064 0.029631 0.000000 0.000000 0.000000
# 4 0.000000 0.000000 0.000000 -0.000813 0.000000 0.000000
# 5 0.000000 0.000000 0.000000 0.000000 0.075938 0.000000
# 6 0.000000 0.000000 0.000000 0.000000 0.000000 0.047543
#
#
# Mechanical properties :
#
#
# Convention : Reuss Voigt Hill
#
# Bulk Modulus (GPa) = 16.00157 66.90632 41.45394
# Shear Modulus (GPa) = 14.71749 -228.11302 -106.69777
#
# Velocity S-wave (km/s) = 2.81362 -11.07705 -7.57577
# Velocity P-wave (km/s) = 4.37750 11.29658 7.36377
#
# Compressibility (1/GPa) = 0.06249386
#
# Stress axis : x y z
#
# Youngs Moduli (GPa) = 16.34179 25.94739 33.74846
#
# Poissons Ratio (x) = 0.02089 0.08657
# Poissons Ratio (y) = 0.01316 1.01463
# Poissons Ratio (z) = 0.04192 0.78009
#
# Static dielectric constant tensor:
#      x y z
#    x 1.678330 0.000000 0.000000 
#    y 0.000000 1.593740 0.000000 
#    z 0.000000 0.000000 1.660590 
# 
# From -- ./inp_files/76929.got.cif
#   From: 2010.05.17/outbox.cif.g08.bks.cpg/sg65_39_cif.got.tgz:76929.got - 2010.06.03 17:01:31.
