data_PCOD9489490
_publ_section_title
;
Structure prediction by ZEFSAII (Michael W. Deem and Ramdas Pophale) SiO2 
 PCOD9489490
Probable space group: C M M M
;
_chemical_formula_sum "Si O2"
_cell_formula_units_Z 88
_cell_length_a 9.124787
_cell_length_b 16.042914
_cell_length_c 31.063543
_cell_angle_alpha 90.000000
_cell_angle_beta 90.000000
_cell_angle_gamma 90.000000
_cell_volume 4547.335310
_symmetry_space_group_name_H-M "C M M M"
_symmetry_group_IT_number 65
_symmetry_cell_setting 'orthorhombic'
loop_
_space_group_symop_operation_xyz
x,y,z
-x,-y,z
x,-y,-z
-x,y,-z
-x,-y,-z
x,y,-z
-x,y,z
x,-y,z
1/2+x,1/2+y,z
1/2-x,1/2-y,z
1/2+x,1/2-y,-z
1/2-x,1/2+y,-z
1/2-x,1/2-y,-z
1/2+x,1/2+y,-z
1/2-x,1/2+y,z
1/2+x,1/2-y,z
loop_
_atom_site_type_symbol
_atom_site_label
_atom_site_fract_x
_atom_site_fract_y
_atom_site_fract_z
Si Si1 0.678644 0.500000 0.549740
Si Si2 0.164263 0.401345 0.213996
Si Si3 0.324185 0.659497 0.394773
Si Si4 0.174632 0.160161 0.703631
Si Si5 0.664709 0.599247 0.868745
Si Si6 0.174976 0.659448 0.047595
O O1 0.500000 0.500000 0.551159
O O2 0.723932 0.500000 0.500000
O O3 0.724982 0.584963 0.573870
O O4 0.150244 0.500000 0.206456
O O5 0.253213 0.390762 0.257949
O O6 0.251369 0.365753 0.173005
O O7 0.000000 0.365788 0.217638
O O8 0.500000 0.670286 0.399329
O O9 0.250000 0.750000 0.401729
O O10 0.296752 0.631202 0.345339
O O11 0.250000 0.250000 0.706529
O O12 0.000000 0.164858 0.709316
O O13 0.500000 0.634021 0.872513
O O14 0.651968 0.500000 0.862575
O O15 0.755322 0.612998 0.912129
O O16 0.250000 0.750000 0.047705
O O17 0.000000 0.666361 0.052456
O O18 0.203863 0.621882 0.000000
#
# Coordination Sequence:
#
# PCOD9489490 Si02
#       6
#     8  16  16  16  16  16
#     4   9  18  34  57  85 115 153 199 239 286 351
#     4  10  21  36  54  78 108 140 176 219 269 322
#     4   9  19  35  56  82 114 151 192 241 291 343
#     4  10  20  34  54  78 108 141 182 227 273 329
#     4  10  21  37  56  79 108 141 178 219 266 321
#     4  10  21  37  57  80 106 137 175 220 269 321
#
# _framework density 19.351993
#
# number of rings (size 3 to 8) (size 9 to 14) (size 15 to 20)
#    0.000    2.273    0.000    2.182    1.273    5.455 
#    0.000    5.909    0.000    0.545    0.000    0.000 
#    0.000    0.000    0.000    0.000    0.000    0.000 
#
# Total GULP energy -245412.231982 kJ/mol
# GULP energy per Si atom -5577.550727 kJ/mol
# Density = 1.930795 g / cm^3
# Si number density = 19.351993 Si / 1000 Ang^3
#
#
#
# Elastic Constant Matrix: (Units=GPa)
#
#
# Indices 1 2 3 4 5 6 
#
# 1 114.5289 29.5090 83.8795 0.0000 0.0000 0.0000
# 2 29.5090 43.7269 55.0911 0.0000 0.0000 0.0000
# 3 83.8795 55.0911 164.1458 0.0000 0.0000 0.0000
# 4 0.0000 0.0000 0.0000 6.1229 0.0000 0.0000
# 5 0.0000 0.0000 0.0000 0.0000 22.1637 0.0000
# 6 0.0000 0.0000 0.0000 0.0000 0.0000 26.2596
#
#
#
# Elastic Compliance Matrix: (Units=1/GPa)
#
#
# Indices 1 2 3 4 5 6 
#
# 1 0.013968 -0.000751 -0.006886 0.000000 0.000000 0.000000
# 2 -0.000751 0.039665 -0.012929 0.000000 0.000000 0.000000
# 3 -0.006886 -0.012929 0.013950 0.000000 0.000000 0.000000
# 4 0.000000 0.000000 0.000000 0.163320 0.000000 0.000000
# 5 0.000000 0.000000 0.000000 0.000000 0.045119 0.000000
# 6 0.000000 0.000000 0.000000 0.000000 0.000000 0.038081
#
#
# Mechanical properties :
#
#
# Convention : Reuss Voigt Hill
#
# Bulk Modulus (GPa) = 37.80449 73.26231 55.53340
# Shear Modulus (GPa) = 13.73437 21.17070 17.45254
#
# Velocity S-wave (km/s) = 2.66693 3.31113 3.00633
# Velocity P-wave (km/s) = 5.39082 7.24969 6.38823
#
# Compressibility (1/GPa) = 0.02645189
#
# Stress axis : x y z
#
# Youngs Moduli (GPa) = 71.59295 25.21139 71.68550
#
# Poissons Ratio (x) = 0.01894 0.49360
# Poissons Ratio (y) = 0.05377 0.92679
# Poissons Ratio (z) = 0.49296 0.32595
#
# Static dielectric constant tensor:
#      x y z
#    x 1.674310 0.000000 0.000000 
#    y 0.000000 1.689890 0.000000 
#    z 0.000000 0.000000 1.683480 
# 
# From -- ./inp_files/76528.got.cif
#   From: 2010.05.17/outbox.cif.g08.bks.cpg/sg65_39_cif.got.tgz:76528.got - 2010.06.03 17:01:31.
