data_PCOD9489308
_publ_section_title
;
Structure prediction by ZEFSAII (Michael W. Deem and Ramdas Pophale) SiO2 
 PCOD9489308
Probable space group: C M M M
;
_chemical_formula_sum "Si O2"
_cell_formula_units_Z 104
_cell_length_a 19.657337
_cell_length_b 9.283878
_cell_length_c 34.228826
_cell_angle_alpha 90.000000
_cell_angle_beta 90.000000
_cell_angle_gamma 90.000000
_cell_volume 6246.634732
_symmetry_space_group_name_H-M "C M M M"
_symmetry_group_IT_number 65
_symmetry_cell_setting 'orthorhombic'
loop_
_space_group_symop_operation_xyz
x,y,z
-x,-y,z
x,-y,-z
-x,y,-z
-x,-y,-z
x,y,-z
-x,y,z
x,-y,z
1/2+x,1/2+y,z
1/2-x,1/2-y,z
1/2+x,1/2-y,-z
1/2-x,1/2+y,-z
1/2-x,1/2-y,-z
1/2+x,1/2+y,-z
1/2-x,1/2+y,z
1/2+x,1/2-y,z
loop_
_atom_site_type_symbol
_atom_site_label
_atom_site_fract_x
_atom_site_fract_y
_atom_site_fract_z
Si Si1 0.322220 0.827935 0.605209
Si Si2 0.080813 0.170262 0.545341
Si Si3 0.178606 0.672069 0.305110
Si Si4 0.582971 0.333656 0.000000
Si Si5 0.416991 0.166360 0.078085
Si Si6 0.080077 0.672204 0.234730
Si Si7 0.082875 0.833924 0.844122
O O1 0.250000 0.750000 0.598814
O O2 0.376110 0.764880 0.574953
O O3 0.342915 0.796588 0.650234
O O4 0.315094 0.000000 0.600972
O O5 0.097464 0.202371 0.500000
O O6 0.000000 0.192939 0.550350
O O7 0.094223 0.000000 0.551747
O O8 0.188595 0.500000 0.302586
O O9 0.250000 0.750000 0.297960
O O10 0.123535 0.713190 0.272623
O O11 0.604534 0.250719 0.960852
O O12 0.604597 0.500000 0.000000
O O13 0.500000 0.333563 0.000000
O O14 0.500000 0.166869 0.078169
O O15 0.394847 0.247469 0.117421
O O16 0.395538 0.000000 0.077553
O O17 0.086709 0.500000 0.228402
O O18 0.103126 0.755641 0.195920
O O19 0.000000 0.702013 0.241006
O O20 0.000000 0.832695 0.844611
O O21 0.104670 0.000000 0.845270
#
# Coordination Sequence:
#
# PCOD9489308 Si02
#       7
#    16  16  16   8  16  16  16
#     4  10  20  34  53  76 101 130 165 203 242 287
#     4   9  19  36  55  75 102 134 165 200 244 290
#     4   9  19  34  51  71  96 126 157 193 237 282
#     4   9  15  21  29  43  65  95 134 179 222 265
#     4   9  15  22  32  46  67  99 138 177 219 269
#     4   9  17  30  47  66  89 118 152 188 228 276
#     4   9  16  25  37  55  79 106 139 181 226 269
#
# _framework density 16.648965
#
# number of rings (size 3 to 8) (size 9 to 14) (size 15 to 20)
#    0.000    2.846    0.000    2.077    0.000    7.385 
#    0.000    2.308    0.000    1.846    0.000    0.000 
#    0.000    0.000    0.000    0.692    0.000   10.154 
#
# Total GULP energy -289810.716418 kJ/mol
# GULP energy per Si atom -5573.283008 kJ/mol
# Density = 1.661107 g / cm^3
# Si number density = 16.648965 Si / 1000 Ang^3
#
#
#
# Elastic Constant Matrix: (Units=GPa)
#
#
# Indices 1 2 3 4 5 6 
#
# 1 33.3632 44.4339 67.7847 0.0000 0.0000 0.0000
# 2 44.4339 108.4775 101.9282 0.0000 0.0000 0.0000
# 3 67.7847 101.9282 172.9150 0.0000 0.0000 0.0000
# 4 0.0000 0.0000 0.0000 28.5593 0.0000 0.0000
# 5 0.0000 0.0000 0.0000 0.0000 -9.4388 0.0000
# 6 0.0000 0.0000 0.0000 0.0000 0.0000 19.1770
#
#
#
# Elastic Compliance Matrix: (Units=1/GPa)
#
#
# Indices 1 2 3 4 5 6 
#
# 1 0.156823 -0.014507 -0.052925 0.000000 0.000000 0.000000
# 2 -0.014507 0.022006 -0.007285 0.000000 0.000000 0.000000
# 3 -0.052925 -0.007285 0.030825 0.000000 0.000000 0.000000
# 4 0.000000 0.000000 0.000000 0.035015 0.000000 0.000000
# 5 0.000000 0.000000 0.000000 0.000000 -0.105946 0.000000
# 6 0.000000 0.000000 0.000000 0.000000 0.000000 0.052146
#
#
# Mechanical properties :
#
#
# Convention : Reuss Voigt Hill
#
# Bulk Modulus (GPa) = 16.60588 82.56103 49.58346
# Shear Modulus (GPa) = 13.87441 14.36677 14.12059
#
# Velocity S-wave (km/s) = 2.88991 2.94074 2.91544
# Velocity P-wave (km/s) = 4.59687 7.82480 6.41712
#
# Compressibility (1/GPa) = 0.06021962
#
# Stress axis : x y z
#
# Youngs Moduli (GPa) = 6.37660 45.44264 32.44172
#
# Poissons Ratio (x) = 0.65925 1.71698
# Poissons Ratio (y) = 0.09251 0.23633
# Poissons Ratio (z) = 0.33748 0.33104
#
# Static dielectric constant tensor:
#      x y z
#    x 1.528800 0.000000 0.000000 
#    y 0.000000 1.555070 0.000000 
#    z 0.000000 0.000000 1.554630 
# 
# From -- ./inp_files/78247.got.cif
#   From: 2010.05.17/outbox.cif.g08.bks.cpg/sg65_40_cif.got.tgz:78247.got - 2010.06.03 17:01:31.
