data_PCOD9489670
_publ_section_title
;
Structure prediction by ZEFSAII (Michael W. Deem and Ramdas Pophale) SiO2 
 PCOD9489670
Probable space group: C M M M
;
_chemical_formula_sum "Si O2"
_cell_formula_units_Z 72
_cell_length_a 15.535573
_cell_length_b 29.005082
_cell_length_c 7.479334
_cell_angle_alpha 90.000000
_cell_angle_beta 90.000000
_cell_angle_gamma 90.000000
_cell_volume 3370.266948
_symmetry_space_group_name_H-M "C M M M"
_symmetry_group_IT_number 65
_symmetry_cell_setting 'orthorhombic'
loop_
_space_group_symop_operation_xyz
x,y,z
-x,-y,z
x,-y,-z
-x,y,-z
-x,-y,-z
x,y,-z
-x,y,z
x,-y,z
1/2+x,1/2+y,z
1/2-x,1/2-y,z
1/2+x,1/2-y,-z
1/2-x,1/2+y,-z
1/2-x,1/2-y,-z
1/2+x,1/2+y,-z
1/2-x,1/2+y,z
1/2+x,1/2-y,z
loop_
_atom_site_type_symbol
_atom_site_label
_atom_site_fract_x
_atom_site_fract_y
_atom_site_fract_z
Si Si1 0.673187 0.145969 0.298703
Si Si2 0.398242 0.949765 0.214891
Si Si3 0.500000 0.702142 0.786155
Si Si4 0.000000 0.691006 0.291671
Si Si5 0.500000 0.554109 0.281206
Si Si6 0.358941 0.627760 0.291195
O O1 0.683551 0.165755 0.500000
O O2 0.645901 0.092819 0.305499
O O3 0.590057 0.171445 0.214974
O O4 0.767172 0.142628 0.211018
O O5 0.500000 0.948045 0.251907
O O6 0.365316 0.000000 0.269275
O O7 0.388349 0.945729 0.000000
O O8 0.500000 0.754149 0.719088
O O9 0.580815 0.672345 0.722032
O O10 0.500000 0.702991 0.000000
O O11 0.000000 0.675659 0.500000
O O12 0.500000 0.500000 0.228272
O O13 0.500000 0.555173 0.500000
O O14 0.416091 0.584319 0.222583
O O15 0.342303 0.616994 0.500000
#
# Coordination Sequence:
#
# PCOD9489670 Si02
#       6
#    16  16   8   8   8  16
#     4  10  20  34  55  82 108 139 182 229 273 320
#     4   9  18  32  49  71 106 151 187 216 259 312
#     4  11  23  39  58  79 102 136 180 223 270 329
#     4  10  21  37  55  77 108 139 174 224 280 331
#     4   8  14  28  52  79 105 136 175 214 254 307
#     4   9  19  36  57  80 109 142 175 220 275 322
#
# _framework density 21.363295000000001
#
# number of rings (size 3 to 8) (size 9 to 14) (size 15 to 20)
#    0.000    2.556    1.111    2.333    0.000    4.000 
#    0.000    7.778    0.000    5.333    0.000    0.000 
#    0.000    0.000    0.000    0.000    0.000    0.000 
#
# Total GULP energy -200675.813207 kJ/mol
# GULP energy per Si atom -5574.328145 kJ/mol
# Density = 2.131467 g / cm^3
# Si number density = 21.363295 Si / 1000 Ang^3
#
#
#
# Elastic Constant Matrix: (Units=GPa)
#
#
# Indices 1 2 3 4 5 6 
#
# 1 185.6904 89.5006 7.9164 0.0000 0.0000 0.0000
# 2 89.5006 147.7555 -10.0019 0.0000 0.0000 0.0000
# 3 7.9164 -10.0019 59.0174 0.0000 0.0000 0.0000
# 4 0.0000 0.0000 0.0000 44.6749 0.0000 0.0000
# 5 0.0000 0.0000 0.0000 0.0000 -5.8141 0.0000
# 6 0.0000 0.0000 0.0000 0.0000 0.0000 -2.1426
#
#
#
# Elastic Compliance Matrix: (Units=1/GPa)
#
#
# Indices 1 2 3 4 5 6 
#
# 1 0.007805 -0.004854 -0.001870 0.000000 0.000000 0.000000
# 2 -0.004854 0.009865 0.002323 0.000000 0.000000 0.000000
# 3 -0.001870 0.002323 0.017589 0.000000 0.000000 0.000000
# 4 0.000000 0.000000 0.000000 0.022384 0.000000 0.000000
# 5 0.000000 0.000000 0.000000 0.000000 -0.171995 0.000000
# 6 0.000000 0.000000 0.000000 0.000000 0.000000 -0.466722
#
#
# Mechanical properties :
#
#
# Convention : Reuss Voigt Hill
#
# Bulk Modulus (GPa) = 37.79631 63.03263 50.41447
# Shear Modulus (GPa) = -8.87384 27.68018 9.40317
#
# Velocity S-wave (km/s) = -2.04029 3.60347 2.10026
# Velocity P-wave (km/s) = 3.49001 6.84708 5.43428
#
# Compressibility (1/GPa) = 0.02645761
#
# Stress axis : x y z
#
# Youngs Moduli (GPa) = 128.12926 101.36360 56.85490
#
# Poissons Ratio (x) = 0.49203 0.10629
# Poissons Ratio (y) = 0.62195 -0.13208
# Poissons Ratio (z) = 0.23954 -0.23547
#
# Static dielectric constant tensor:
#      x y z
#    x 1.846520 0.000000 0.000000 
#    y 0.000000 1.718280 0.000000 
#    z 0.000000 0.000000 1.797760 
# 
# From -- ./inp_files/7360.got.cif
#   From: 2010.05.17/outbox.cif.g08.bks.cpg/sg65_4_cif.got.tgz:7360.got - 2010.06.03 17:01:31.
