data_PCOD9489974
_publ_section_title
;
Structure prediction by ZEFSAII (Michael W. Deem and Ramdas Pophale) SiO2 
 PCOD9489974
Probable space group: C M M M
;
_chemical_formula_sum "Si O2"
_cell_formula_units_Z 72
_cell_length_a 33.572928
_cell_length_b 13.855038
_cell_length_c 8.583907
_cell_angle_alpha 90.000000
_cell_angle_beta 90.000000
_cell_angle_gamma 90.000000
_cell_volume 3992.840335
_symmetry_space_group_name_H-M "C M M M"
_symmetry_group_IT_number 65
_symmetry_cell_setting 'orthorhombic'
loop_
_space_group_symop_operation_xyz
x,y,z
-x,-y,z
x,-y,-z
-x,y,-z
-x,-y,-z
x,y,-z
-x,y,z
x,-y,z
1/2+x,1/2+y,z
1/2-x,1/2-y,z
1/2+x,1/2-y,-z
1/2-x,1/2+y,-z
1/2-x,1/2-y,-z
1/2+x,1/2+y,-z
1/2-x,1/2+y,z
1/2+x,1/2-y,z
loop_
_atom_site_type_symbol
_atom_site_label
_atom_site_fract_x
_atom_site_fract_y
_atom_site_fract_z
Si Si1 0.706740 0.273104 0.180664
Si Si2 0.369170 0.611152 0.188767
Si Si3 0.000000 0.387717 0.185933
Si Si4 0.658615 0.112423 0.677611
Si Si5 0.422808 0.781942 0.318311
O O1 0.750000 0.250000 0.252195
O O2 0.674491 0.350384 0.244424
O O3 0.682921 0.173654 0.198842
O O4 0.713348 0.299869 0.000000
O O5 0.375454 0.500000 0.234724
O O6 0.403097 0.684635 0.248173
O O7 0.368944 0.616166 0.000000
O O8 0.961457 0.327542 0.239943
O O9 0.000000 0.500000 0.244521
O O10 0.000000 0.392388 0.000000
O O11 0.670048 0.141727 0.500000
O O12 0.612465 0.139355 0.694623
O O13 0.665264 0.000000 0.694489
O O14 0.431156 0.764934 0.500000
#
# Coordination Sequence:
#
# PCOD9489974 Si02
#       5
#    16  16   8  16  16
#     4   9  18  31  48  73 102 132 170 214 257 303
#     4   9  18  34  54  74 102 141 180 219 264 310
#     4  11  23  37  56  83 112 139 167 202 250 311
#     4   9  18  32  49  70  98 132 166 201 247 301
#     4  10  20  35  55  78 105 135 170 212 255 304
#
# _framework density 18.032277000000001
#
# number of rings (size 3 to 8) (size 9 to 14) (size 15 to 20)
#    0.000    2.556    0.000    1.667    0.000    4.889 
#    0.000    2.778    0.000    3.333    0.000    0.000 
#    0.000    0.000    0.000    0.000    0.000    0.000 
#
# Total GULP energy -200468.305590 kJ/mol
# GULP energy per Si atom -5568.564044 kJ/mol
# Density = 1.799123 g / cm^3
# Si number density = 18.032277 Si / 1000 Ang^3
#
#
#
# Elastic Constant Matrix: (Units=GPa)
#
#
# Indices 1 2 3 4 5 6 
#
# 1 120.1234 50.3087 28.2359 0.0000 0.0000 0.0000
# 2 50.3087 102.8831 18.5248 0.0000 0.0000 0.0000
# 3 28.2359 18.5248 26.5762 0.0000 0.0000 0.0000
# 4 0.0000 0.0000 0.0000 15.0031 0.0000 0.0000
# 5 0.0000 0.0000 0.0000 0.0000 3.8827 0.0000
# 6 0.0000 0.0000 0.0000 0.0000 0.0000 6.6148
#
#
#
# Elastic Compliance Matrix: (Units=1/GPa)
#
#
# Indices 1 2 3 4 5 6 
#
# 1 0.012547 -0.004271 -0.010354 0.000000 0.000000 0.000000
# 2 -0.004271 0.012569 -0.004223 0.000000 0.000000 0.000000
# 3 -0.010354 -0.004223 0.051571 0.000000 0.000000 0.000000
# 4 0.000000 0.000000 0.000000 0.066653 0.000000 0.000000
# 5 0.000000 0.000000 0.000000 0.000000 0.257550 0.000000
# 6 0.000000 0.000000 0.000000 0.000000 0.000000 0.151177
#
#
# Mechanical properties :
#
#
# Convention : Reuss Voigt Hill
#
# Bulk Modulus (GPa) = 25.64645 49.30240 37.47442
# Shear Modulus (GPa) = 8.29517 15.26767 11.78142
#
# Velocity S-wave (km/s) = 2.14713 2.91294 2.55885
# Velocity P-wave (km/s) = 4.51667 6.22207 5.43666
#
# Compressibility (1/GPa) = 0.03899175
#
# Stress axis : x y z
#
# Youngs Moduli (GPa) = 79.69845 79.56248 19.39059
#
# Poissons Ratio (x) = 0.33983 0.20076
# Poissons Ratio (y) = 0.34041 0.08189
# Poissons Ratio (z) = 0.82517 0.33599
#
# Static dielectric constant tensor:
#      x y z
#    x 1.624850 0.000000 0.000000 
#    y 0.000000 1.601720 0.000000 
#    z 0.000000 0.000000 1.647150 
# 
# From -- ./inp_files/7689.got.cif
#   From: 2010.05.17/outbox.cif.g08.bks.cpg/sg65_4_cif.got.tgz:7689.got - 2010.06.03 17:01:31.
