data_PCOD9489386
_publ_section_title
;
Structure prediction by ZEFSAII (Michael W. Deem and Ramdas Pophale) SiO2 
 PCOD9489386
Probable space group: C M M M
;
_chemical_formula_sum "Si O2"
_cell_formula_units_Z 120
_cell_length_a 27.623530
_cell_length_b 7.698764
_cell_length_c 28.031216
_cell_angle_alpha 90.000000
_cell_angle_beta 90.000000
_cell_angle_gamma 90.000000
_cell_volume 5961.315687
_symmetry_space_group_name_H-M "C M M M"
_symmetry_group_IT_number 65
_symmetry_cell_setting 'orthorhombic'
loop_
_space_group_symop_operation_xyz
x,y,z
-x,-y,z
x,-y,-z
-x,y,-z
-x,-y,-z
x,y,-z
-x,y,z
x,-y,z
1/2+x,1/2+y,z
1/2-x,1/2-y,z
1/2+x,1/2-y,-z
1/2-x,1/2+y,-z
1/2-x,1/2-y,-z
1/2+x,1/2+y,-z
1/2-x,1/2+y,z
1/2+x,1/2-y,z
loop_
_atom_site_type_symbol
_atom_site_label
_atom_site_fract_x
_atom_site_fract_y
_atom_site_fract_z
Si Si1 0.802116 0.291065 0.554445
Si Si2 0.694047 0.207009 0.213019
Si Si3 0.554853 0.708484 0.796546
Si Si4 0.885772 0.203590 0.291562
Si Si5 0.054221 0.288209 0.055936
Si Si6 0.500000 0.787505 0.443795
Si Si7 0.131529 0.695333 0.871196
Si Si8 0.399433 0.798810 0.398590
O O1 0.801190 0.226350 0.500000
O O2 0.804780 0.500000 0.553578
O O3 0.750000 0.250000 0.577306
O O4 0.850431 0.221226 0.579074
O O5 0.750000 0.250000 0.219730
O O6 0.661129 0.266189 0.257738
O O7 0.673981 0.276943 0.161662
O O8 0.688314 0.000000 0.210518
O O9 0.500000 0.748356 0.806426
O O10 0.562973 0.500000 0.802690
O O11 0.569846 0.751508 0.742880
O O12 0.589287 0.809481 0.831791
O O13 0.891211 0.294340 0.341973
O O14 0.887823 0.000000 0.301964
O O15 0.054565 0.500000 0.060048
O O16 0.101259 0.223360 0.084946
O O17 0.000000 0.230952 0.072397
O O18 0.057901 0.245893 0.000000
O O19 0.500000 0.740262 0.500000
O O20 0.450731 0.726360 0.417321
O O21 0.500000 0.000000 0.441716
O O22 0.146694 0.500000 0.885606
O O23 0.400535 0.000000 0.414041
#
# Coordination Sequence:
#
# PCOD9489386 Si02
#       8
#    16  16  16  16  16   8  16  16
#     4   9  18  33  53  75  98 124 156 197 244 293
#     4  10  20  35  54  74  98 128 168 214 259 308
#     4   9  18  31  46  65  93 129 162 194 238 293
#     4  10  21  35  51  72 100 132 164 200 247 299
#     4   8  13  22  40  69 103 133 161 200 252 303
#     4   9  18  34  57  81 105 139 181 221 262 309
#     4   9  17  29  47  72  96 123 165 211 250 292
#     4  10  20  34  53  78 105 133 169 212 255 304
#
# _framework density 20.129784000000001
#
# number of rings (size 3 to 8) (size 9 to 14) (size 15 to 20)
#    0.000    2.733    0.000    2.000    0.933    4.533 
#    0.000    1.333    0.000    2.400    0.000    1.867 
#    0.000    0.000    0.000    0.000    0.000    0.400 
#
# Total GULP energy -334202.076451 kJ/mol
# GULP energy per Si atom -5570.034608 kJ/mol
# Density = 2.008397 g / cm^3
# Si number density = 20.129784 Si / 1000 Ang^3
#
#
#
# Elastic Constant Matrix: (Units=GPa)
#
#
# Indices 1 2 3 4 5 6 
#
# 1 118.0237 4.0175 44.4874 0.0000 0.0000 0.0000
# 2 4.0175 27.7170 -3.0256 0.0000 0.0000 0.0000
# 3 44.4874 -3.0256 84.6450 0.0000 0.0000 0.0000
# 4 0.0000 0.0000 0.0000 -11.1162 0.0000 0.0000
# 5 0.0000 0.0000 0.0000 0.0000 14.4088 0.0000
# 6 0.0000 0.0000 0.0000 0.0000 0.0000 10.9153
#
#
#
# Elastic Compliance Matrix: (Units=1/GPa)
#
#
# Indices 1 2 3 4 5 6 
#
# 1 0.010695 -0.002172 -0.005699 0.000000 0.000000 0.000000
# 2 -0.002172 0.036661 0.002452 0.000000 0.000000 0.000000
# 3 -0.005699 0.002452 0.014897 0.000000 0.000000 0.000000
# 4 0.000000 0.000000 0.000000 -0.089959 0.000000 0.000000
# 5 0.000000 0.000000 0.000000 0.000000 0.069402 0.000000
# 6 0.000000 0.000000 0.000000 0.000000 0.000000 0.091615
#
#
# Mechanical properties :
#
#
# Convention : Reuss Voigt Hill
#
# Bulk Modulus (GPa) = 19.44933 35.70492 27.57713
# Shear Modulus (GPa) = 31.00069 15.16868 23.08468
#
# Velocity S-wave (km/s) = 3.92859 2.74805 3.39011
# Velocity P-wave (km/s) = 5.50104 5.27683 5.39010
#
# Compressibility (1/GPa) = 0.05141565
#
# Stress axis : x y z
#
# Youngs Moduli (GPa) = 93.50321 27.27660 67.12877
#
# Poissons Ratio (x) = 0.05925 0.38254
# Poissons Ratio (y) = 0.20311 -0.16461
# Poissons Ratio (z) = 0.53284 -0.06689
#
# Static dielectric constant tensor:
#      x y z
#    x 1.742850 0.000000 0.000000 
#    y 0.000000 1.782020 0.000000 
#    z 0.000000 0.000000 1.726290 
# 
# From -- ./inp_files/76160.got.cif
#   From: 2010.05.17/outbox.cif.g08.bks.cpg/sg65_39_cif.got.tgz:76160.got - 2010.06.03 17:01:31.
