data_PCOD9489667
_publ_section_title
;
Structure prediction by ZEFSAII (Michael W. Deem and Ramdas Pophale) SiO2 
 PCOD9489667
Probable space group: C M M M
;
_chemical_formula_sum "Si O2"
_cell_formula_units_Z 96
_cell_length_a 23.075641
_cell_length_b 20.409471
_cell_length_c 11.571197
_cell_angle_alpha 90.000000
_cell_angle_beta 90.000000
_cell_angle_gamma 90.000000
_cell_volume 5449.589752
_symmetry_space_group_name_H-M "C M M M"
_symmetry_group_IT_number 65
_symmetry_cell_setting 'orthorhombic'
loop_
_space_group_symop_operation_xyz
x,y,z
-x,-y,z
x,-y,-z
-x,y,-z
-x,-y,-z
x,y,-z
-x,y,z
x,-y,z
1/2+x,1/2+y,z
1/2-x,1/2-y,z
1/2+x,1/2-y,-z
1/2-x,1/2+y,-z
1/2-x,1/2-y,-z
1/2+x,1/2+y,-z
1/2-x,1/2+y,z
1/2+x,1/2-y,z
loop_
_atom_site_type_symbol
_atom_site_label
_atom_site_fract_x
_atom_site_fract_y
_atom_site_fract_z
Si Si1 0.136055 0.630188 0.861864
Si Si2 0.756999 0.422898 0.729999
Si Si3 0.435716 0.500000 0.638652
Si Si4 0.433410 0.000000 0.859051
Si Si5 0.136011 0.869324 0.641735
Si Si6 0.166790 0.429563 0.500000
Si Si7 0.060571 0.664678 0.500000
Si Si8 0.933096 0.744908 0.735443
O O1 0.201160 0.615889 0.817794
O O2 0.099529 0.565865 0.821812
O O3 0.104236 0.694880 0.813879
O O4 0.135249 0.632031 0.000000
O O5 0.747219 0.500000 0.764106
O O6 0.698331 0.384770 0.697957
O O7 0.793077 0.424852 0.611380
O O8 0.500000 0.500000 0.689326
O O9 0.440735 0.500000 0.500000
O O10 0.401006 0.565397 0.665288
O O11 0.500000 0.000000 0.821089
O O12 0.433086 0.000000 0.000000
O O13 0.139993 0.859937 0.500000
O O14 0.102916 0.810100 0.704839
O O15 0.137251 0.500000 0.500000
O O16 0.118086 0.376287 0.500000
O O17 0.061288 0.708964 0.387157
O O18 0.000000 0.625728 0.500000
O O19 0.000000 0.756004 0.777304
#
# Coordination Sequence:
#
# PCOD9489667 Si02
#       8
#    16  16   8   8  16   8   8  16
#     4  11  23  40  62  87 119 161 208 255 301 351
#     4  11  21  37  60  89 123 155 199 252 305 363
#     4   9  18  31  54  88 121 154 198 248 298 361
#     4   9  18  35  60  85 107 144 199 250 296 346
#     4  11  21  36  60  89 122 161 200 245 305 369
#     4  10  20  34  55  81 116 162 199 244 293 362
#     4  10  20  36  53  80 121 159 198 241 297 366
#     4  11  23  39  59  87 125 161 197 246 305 365
#
# _framework density 17.616004
#
# number of rings (size 3 to 8) (size 9 to 14) (size 15 to 20)
#    0.000    1.500    5.000    1.000    0.000    2.500 
#    0.000    3.333    0.000    0.000    0.000    0.000 
#    0.000    2.667    0.000    0.000    0.000    0.000 
#
# Total GULP energy -267620.369867 kJ/mol
# GULP energy per Si atom -5575.424372 kJ/mol
# Density = 1.757591 g / cm^3
# Si number density = 17.616004 Si / 1000 Ang^3
#
#
#
# Elastic Constant Matrix: (Units=GPa)
#
#
# Indices 1 2 3 4 5 6 
#
# 1 167.9254 95.0322 36.3757 0.0000 0.0000 0.0000
# 2 95.0322 145.7022 39.2904 0.0000 0.0000 0.0000
# 3 36.3757 39.2904 65.8683 0.0000 0.0000 0.0000
# 4 0.0000 0.0000 0.0000 16.1675 0.0000 0.0000
# 5 0.0000 0.0000 0.0000 0.0000 18.2827 0.0000
# 6 0.0000 0.0000 0.0000 0.0000 0.0000 129.2009
#
#
#
# Elastic Compliance Matrix: (Units=1/GPa)
#
#
# Indices 1 2 3 4 5 6 
#
# 1 0.009629 -0.005775 -0.001873 0.000000 0.000000 0.000000
# 2 -0.005775 0.011643 -0.003756 0.000000 0.000000 0.000000
# 3 -0.001873 -0.003756 0.018456 0.000000 0.000000 0.000000
# 4 0.000000 0.000000 0.000000 0.061853 0.000000 0.000000
# 5 0.000000 0.000000 0.000000 0.000000 0.054697 0.000000
# 6 0.000000 0.000000 0.000000 0.000000 0.000000 0.007740
#
#
# Mechanical properties :
#
#
# Convention : Reuss Voigt Hill
#
# Bulk Modulus (GPa) = 59.09813 80.09918 69.59865
# Shear Modulus (GPa) = 25.97875 46.65006 36.31440
#
# Velocity S-wave (km/s) = 3.84438 5.15161 4.54524
# Velocity P-wave (km/s) = 7.30250 8.99743 8.19391
#
# Compressibility (1/GPa) = 0.01692101
#
# Stress axis : x y z
#
# Youngs Moduli (GPa) = 103.85157 85.88833 54.18254
#
# Poissons Ratio (x) = 0.49605 0.10146
# Poissons Ratio (y) = 0.59979 0.20348
# Poissons Ratio (z) = 0.19447 0.32256
#
# Static dielectric constant tensor:
#      x y z
#    x 1.623490 0.000000 0.000000 
#    y 0.000000 1.600680 0.000000 
#    z 0.000000 0.000000 1.591760 
# 
# From -- ./inp_files/29131.got.cif
#   From: 2010.05.17/outbox.cif.g08.bks.cpg/sg65_15_cif.got.tgz:29131.got - 2010.06.03 17:01:31.
