data_PCOD9489546
_publ_section_title
;
Structure prediction by ZEFSAII (Michael W. Deem and Ramdas Pophale) SiO2 
 PCOD9489546
Probable space group: C M M M
;
_chemical_formula_sum "Si O2"
_cell_formula_units_Z 72
_cell_length_a 13.515898
_cell_length_b 29.810914
_cell_length_c 7.664142
_cell_angle_alpha 90.000000
_cell_angle_beta 90.000000
_cell_angle_gamma 90.000000
_cell_volume 3088.045850
_symmetry_space_group_name_H-M "C M M M"
_symmetry_group_IT_number 65
_symmetry_cell_setting 'orthorhombic'
loop_
_space_group_symop_operation_xyz
x,y,z
-x,-y,z
x,-y,-z
-x,y,-z
-x,-y,-z
x,y,-z
-x,y,z
x,-y,z
1/2+x,1/2+y,z
1/2-x,1/2-y,z
1/2+x,1/2-y,-z
1/2-x,1/2+y,-z
1/2-x,1/2-y,-z
1/2+x,1/2+y,-z
1/2-x,1/2+y,z
1/2+x,1/2-y,z
loop_
_atom_site_type_symbol
_atom_site_label
_atom_site_fract_x
_atom_site_fract_y
_atom_site_fract_z
Si Si1 0.327347 0.810173 0.298222
Si Si2 0.117031 0.500000 0.703039
Si Si3 0.609483 0.714012 0.799007
Si Si4 0.887544 0.948273 0.789200
Si Si5 0.690713 0.906986 0.295597
O O1 0.359026 0.808121 0.500000
O O2 0.376525 0.767998 0.205299
O O3 0.208031 0.803742 0.293160
O O4 0.345603 0.859662 0.223270
O O5 0.153099 0.500000 0.500000
O O6 0.151328 0.546761 0.784463
O O7 0.000000 0.500000 0.699334
O O8 0.500000 0.702751 0.729760
O O9 0.614239 0.698808 0.000000
O O10 0.808542 0.913450 0.717870
O O11 0.000000 0.939186 0.735026
O O12 0.863487 0.000000 0.737180
O O13 0.884277 0.946906 0.000000
O O14 0.662090 0.906278 0.500000
#
# Coordination Sequence:
#
# PCOD9489546 Si02
#       5
#    16   8  16  16  16
#     4  10  21  35  55  84 112 141 179 224 274 325
#     4   9  18  34  54  75 104 142 181 219 258 305
#     4  10  21  38  59  81 107 142 180 220 272 331
#     4   9  18  32  50  73 102 139 179 217 264 316
#     4  10  20  34  54  80 108 141 181 223 267 312
#
# _framework density 23.315715000000001
#
# number of rings (size 3 to 8) (size 9 to 14) (size 15 to 20)
#    0.000    2.333    1.111    3.333    0.000    5.778 
#    0.000    7.778    0.000    1.333    0.000    0.000 
#    0.000    0.000    0.000    0.000    0.000    0.000 
#
# Total GULP energy -201028.037047 kJ/mol
# GULP energy per Si atom -5584.112140 kJ/mol
# Density = 2.326265 g / cm^3
# Si number density = 23.315715 Si / 1000 Ang^3
#
#
#
# Elastic Constant Matrix: (Units=GPa)
#
#
# Indices 1 2 3 4 5 6 
#
# 1 45.8972 -16.1941 -6.5346 0.0000 0.0000 0.0000
# 2 -16.1941 96.8890 -6.2065 0.0000 0.0000 0.0000
# 3 -6.5346 -6.2065 54.4198 0.0000 0.0000 0.0000
# 4 0.0000 0.0000 0.0000 -34.4779 0.0000 0.0000
# 5 0.0000 0.0000 0.0000 0.0000 12.7021 0.0000
# 6 0.0000 0.0000 0.0000 0.0000 0.0000 4.3007
#
#
#
# Elastic Compliance Matrix: (Units=1/GPa)
#
#
# Indices 1 2 3 4 5 6 
#
# 1 0.023737 0.004180 0.003327 0.000000 0.000000 0.000000
# 2 0.004180 0.011133 0.001772 0.000000 0.000000 0.000000
# 3 0.003327 0.001772 0.018977 0.000000 0.000000 0.000000
# 4 0.000000 0.000000 0.000000 -0.029004 0.000000 0.000000
# 5 0.000000 0.000000 0.000000 0.000000 0.078727 0.000000
# 6 0.000000 0.000000 0.000000 0.000000 0.000000 0.232520
#
#
# Mechanical properties :
#
#
# Convention : Reuss Voigt Hill
#
# Bulk Modulus (GPa) = 13.81111 15.48173 14.64642
# Shear Modulus (GPa) = 14.63416 11.58106 13.10761
#
# Velocity S-wave (km/s) = 2.50802 2.23111 2.37360
# Velocity P-wave (km/s) = 3.78461 3.64576 3.71583
#
# Compressibility (1/GPa) = 0.07240545
#
# Stress axis : x y z
#
# Youngs Moduli (GPa) = 42.12914 89.82058 52.69477
#
# Poissons Ratio (x) = -0.37549 -0.17532
# Poissons Ratio (y) = -0.17612 -0.09336
# Poissons Ratio (z) = -0.14016 -0.15914
#
# Static dielectric constant tensor:
#      x y z
#    x 1.874050 0.000000 0.000000 
#    y 0.000000 1.916330 0.000000 
#    z 0.000000 0.000000 1.833370 
# 
# From -- ./inp_files/7656.got.cif
#   From: 2010.05.17/outbox.cif.g08.bks.cpg/sg65_4_cif.got.tgz:7656.got - 2010.06.03 17:01:31.
