data_PCOD9489382
_publ_section_title
;
Structure prediction by ZEFSAII (Michael W. Deem and Ramdas Pophale) SiO2 
 PCOD9489382
Probable space group: C M M M
;
_chemical_formula_sum "Si O2"
_cell_formula_units_Z 104
_cell_length_a 23.968907
_cell_length_b 8.739717
_cell_length_c 28.901725
_cell_angle_alpha 90.000000
_cell_angle_beta 90.000000
_cell_angle_gamma 90.000000
_cell_volume 6054.375665
_symmetry_space_group_name_H-M "C M M M"
_symmetry_group_IT_number 65
_symmetry_cell_setting 'orthorhombic'
loop_
_space_group_symop_operation_xyz
x,y,z
-x,-y,z
x,-y,-z
-x,y,-z
-x,-y,-z
x,y,-z
-x,y,z
x,-y,z
1/2+x,1/2+y,z
1/2-x,1/2-y,z
1/2+x,1/2-y,-z
1/2-x,1/2+y,-z
1/2-x,1/2-y,-z
1/2+x,1/2+y,-z
1/2-x,1/2+y,z
1/2+x,1/2-y,z
loop_
_atom_site_type_symbol
_atom_site_label
_atom_site_fract_x
_atom_site_fract_y
_atom_site_fract_z
Si Si1 0.000000 0.678811 0.205849
Si Si2 0.884226 0.179156 0.357928
Si Si3 0.000000 0.175801 0.302966
Si Si4 0.619300 0.316142 0.191241
Si Si5 0.812679 0.815520 0.000000
Si Si6 0.312349 0.684701 0.899239
Si Si7 0.064894 0.315703 0.446786
Si Si8 0.312068 0.182428 0.277836
O O1 0.056256 0.757837 0.188470
O O2 0.000000 0.500000 0.195284
O O3 0.000000 0.707006 0.261035
O O4 0.894540 0.242469 0.409220
O O5 0.839878 0.267057 0.326282
O O6 0.944365 0.194987 0.332801
O O7 0.869860 0.000000 0.358830
O O8 0.000000 0.000000 0.284592
O O9 0.620227 0.500000 0.194999
O O10 0.651991 0.267696 0.144963
O O11 0.649637 0.248200 0.236424
O O12 0.750000 0.750000 0.000000
O O13 0.836519 0.769225 0.050155
O O14 0.810520 0.000000 0.000000
O O15 0.309120 0.500000 0.898371
O O16 0.250000 0.750000 0.895424
O O17 0.077817 0.274987 0.500000
O O18 0.067063 0.500000 0.442891
O O19 0.000000 0.270235 0.438093
O O20 0.250000 0.250000 0.273601
O O21 0.310258 0.000000 0.274490
#
# Coordination Sequence:
#
# PCOD9489382 Si02
#       8
#     8  16   8  16   8  16  16  16
#     4  12  24  36  54  78 104 142 183 221 264 319
#     4  11  21  35  56  81 110 144 178 220 268 317
#     4  10  20  34  53  77 109 142 176 218 265 317
#     4  11  22  37  55  78 109 143 177 220 268 317
#     4   8  14  28  48  75 104 133 173 216 262 316
#     4   9  18  31  52  78 107 140 174 217 267 316
#     4   9  18  32  51  78 112 146 180 220 265 313
#     4  12  25  40  57  79 107 142 181 221 265 319
#
# _framework density 17.177658000000001
#
# number of rings (size 3 to 8) (size 9 to 14) (size 15 to 20)
#    0.000    1.692    2.308    3.923    0.000    3.385 
#    0.000    0.769    0.000    0.923    0.000    3.231 
#    0.000    0.000    0.000    0.000    0.000    0.000 
#
# Total GULP energy -290210.629796 kJ/mol
# GULP energy per Si atom -5580.973650 kJ/mol
# Density = 1.713856 g / cm^3
# Si number density = 17.177658 Si / 1000 Ang^3
#
#
#
# Elastic Constant Matrix: (Units=GPa)
#
#
# Indices 1 2 3 4 5 6 
#
# 1 101.2959 39.2732 56.1361 0.0000 0.0000 0.0000
# 2 39.2732 71.6974 44.5439 0.0000 0.0000 0.0000
# 3 56.1361 44.5439 143.2035 0.0000 0.0000 0.0000
# 4 0.0000 0.0000 0.0000 20.2584 0.0000 0.0000
# 5 0.0000 0.0000 0.0000 0.0000 19.9348 0.0000
# 6 0.0000 0.0000 0.0000 0.0000 0.0000 24.3926
#
#
#
# Elastic Compliance Matrix: (Units=1/GPa)
#
#
# Indices 1 2 3 4 5 6 
#
# 1 0.014072 -0.005306 -0.003866 0.000000 0.000000 0.000000
# 2 -0.005306 0.019290 -0.003920 0.000000 0.000000 0.000000
# 3 -0.003866 -0.003920 0.009718 0.000000 0.000000 0.000000
# 4 0.000000 0.000000 0.000000 0.049362 0.000000 0.000000
# 5 0.000000 0.000000 0.000000 0.000000 0.050163 0.000000
# 6 0.000000 0.000000 0.000000 0.000000 0.000000 0.040996
#
#
# Mechanical properties :
#
#
# Convention : Reuss Voigt Hill
#
# Bulk Modulus (GPa) = 59.18876 66.23368 62.71122
# Shear Modulus (GPa) = 23.21091 24.66673 23.93882
#
# Velocity S-wave (km/s) = 3.67989 3.79354 3.73715
# Velocity P-wave (km/s) = 7.25170 7.60458 7.43023
#
# Compressibility (1/GPa) = 0.01689510
#
# Stress axis : x y z
#
# Youngs Moduli (GPa) = 71.06527 51.84163 102.90507
#
# Poissons Ratio (x) = 0.27509 0.39778
# Poissons Ratio (y) = 0.37710 0.40339
# Poissons Ratio (z) = 0.27471 0.20322
#
# Static dielectric constant tensor:
#      x y z
#    x 1.545570 0.000000 0.000000 
#    y 0.000000 1.582450 0.000000 
#    z 0.000000 0.000000 1.603990 
# 
# From -- ./inp_files/75810.got.cif
#   From: 2010.05.17/outbox.cif.g08.bks.cpg/sg65_38_cif.got.tgz:75810.got - 2010.06.03 17:01:31.
