data_PCOD9489725
_publ_section_title
;
Structure prediction by ZEFSAII (Michael W. Deem and Ramdas Pophale) SiO2 
 PCOD9489725
Probable space group: C M M M
;
_chemical_formula_sum "Si O2"
_cell_formula_units_Z 88
_cell_length_a 15.249226
_cell_length_b 10.913643
_cell_length_c 29.660718
_cell_angle_alpha 90.000000
_cell_angle_beta 90.000000
_cell_angle_gamma 90.000000
_cell_volume 4936.273384
_symmetry_space_group_name_H-M "C M M M"
_symmetry_group_IT_number 65
_symmetry_cell_setting 'orthorhombic'
loop_
_space_group_symop_operation_xyz
x,y,z
-x,-y,z
x,-y,-z
-x,y,-z
-x,-y,-z
x,y,-z
-x,y,z
x,-y,z
1/2+x,1/2+y,z
1/2-x,1/2-y,z
1/2+x,1/2-y,-z
1/2-x,1/2+y,-z
1/2-x,1/2-y,-z
1/2+x,1/2+y,-z
1/2-x,1/2+y,z
1/2+x,1/2-y,z
loop_
_atom_site_type_symbol
_atom_site_label
_atom_site_fract_x
_atom_site_fract_y
_atom_site_fract_z
Si Si1 0.309613 0.367588 0.723094
Si Si2 0.500000 0.284164 0.249566
Si Si3 0.600331 0.647472 0.000000
Si Si4 0.000000 0.356630 0.340996
Si Si5 0.821116 0.853432 0.902887
Si Si6 0.158241 0.800813 0.621294
Si Si7 0.396883 0.500000 0.550183
Si Si8 0.500000 0.357525 0.154430
O O1 0.272821 0.500000 0.737356
O O2 0.250000 0.250000 0.735512
O O3 0.408467 0.353522 0.741109
O O4 0.319230 0.365949 0.668862
O O5 0.500000 0.179179 0.287879
O O6 0.500000 0.264184 0.196221
O O7 0.651570 0.677761 0.954365
O O8 0.593098 0.500000 0.000000
O O9 0.500000 0.695802 0.000000
O O10 0.914752 0.297261 0.364129
O O11 0.000000 0.500000 0.346299
O O12 0.750000 0.750000 0.888523
O O13 0.911383 0.843467 0.874475
O O14 0.794342 0.000000 0.900496
O O15 0.250000 0.750000 0.605038
O O16 0.124747 0.885670 0.581746
O O17 0.500000 0.500000 0.544560
O O18 0.356216 0.500000 0.500000
O O19 0.500000 0.500000 0.171103
#
# Coordination Sequence:
#
# PCOD9489725 Si02
#       8
#    16   8   8   8  16  16   8   8
#     4  10  20  34  56  83 108 139 183 234 278 329
#     4  10  22  36  57  81 110 146 188 235 284 341
#     4   9  15  30  57  86 109 146 197 249 284 338
#     4  10  22  39  59  88 115 143 184 240 291 337
#     4  10  20  35  58  83 114 151 198 241 290 343
#     4  10  21  35  60  84 112 148 187 227 278 334
#     4  11  22  38  60  85 117 151 193 234 274 331
#     4  10  20  37  56  78 110 154 195 229 276 355
#
# _framework density 17.827213
#
# number of rings (size 3 to 8) (size 9 to 14) (size 15 to 20)
#    0.000    2.000    2.727    1.091    1.273    5.455 
#    0.000    1.364    0.000    1.091    0.000    0.000 
#    0.000    0.000    0.000    0.000    0.000    0.000 
#
# Total GULP energy -245041.370285 kJ/mol
# GULP energy per Si atom -5569.122052 kJ/mol
# Density = 1.778664 g / cm^3
# Si number density = 17.827213 Si / 1000 Ang^3
#
#
#
# Elastic Constant Matrix: (Units=GPa)
#
#
# Indices 1 2 3 4 5 6 
#
# 1 119.6424 71.5381 32.0215 0.0000 0.0000 0.0000
# 2 71.5381 135.5947 34.5771 0.0000 0.0000 0.0000
# 3 32.0215 34.5771 90.5656 0.0000 0.0000 0.0000
# 4 0.0000 0.0000 0.0000 0.3255 0.0000 0.0000
# 5 0.0000 0.0000 0.0000 0.0000 11.6412 0.0000
# 6 0.0000 0.0000 0.0000 0.0000 0.0000 30.4795
#
#
#
# Elastic Compliance Matrix: (Units=1/GPa)
#
#
# Indices 1 2 3 4 5 6 
#
# 1 0.012566 -0.006090 -0.002118 0.000000 0.000000 0.000000
# 2 -0.006090 0.011122 -0.002093 0.000000 0.000000 0.000000
# 3 -0.002118 -0.002093 0.012590 0.000000 0.000000 0.000000
# 4 0.000000 0.000000 0.000000 3.072381 0.000000 0.000000
# 5 0.000000 0.000000 0.000000 0.000000 0.085902 0.000000
# 6 0.000000 0.000000 0.000000 0.000000 0.000000 0.032809
#
#
# Mechanical properties :
#
#
# Convention : Reuss Voigt Hill
#
# Bulk Modulus (GPa) = 63.79176 69.11958 66.45567
# Shear Modulus (GPa) = 1.53695 22.33365 11.93530
#
# Velocity S-wave (km/s) = 0.92952 3.54331 2.59027
# Velocity P-wave (km/s) = 6.08384 7.45628 6.80475
#
# Compressibility (1/GPa) = 0.01567601
#
# Stress axis : x y z
#
# Youngs Moduli (GPa) = 79.57723 89.91591 79.43006
#
# Poissons Ratio (x) = 0.54757 0.16824
# Poissons Ratio (y) = 0.48461 0.16624
# Poissons Ratio (z) = 0.16855 0.18819
#
# Static dielectric constant tensor:
#      x y z
#    x 1.599130 0.000000 0.000000 
#    y 0.000000 1.629610 0.000000 
#    z 0.000000 0.000000 1.620730 
# 
# From -- ./inp_files/74832.got.cif
#   From: 2010.05.17/outbox.cif.g08.bks.cpg/sg65_38_cif.got.tgz:74832.got - 2010.06.03 17:01:31.
