data_PCOD9489212
_publ_section_title
;
Structure prediction by ZEFSAII (Michael W. Deem and Ramdas Pophale) SiO2 
 PCOD9489212
Probable space group: C M M M
;
_chemical_formula_sum "Si O2"
_cell_formula_units_Z 72
_cell_length_a 16.363652
_cell_length_b 7.722882
_cell_length_c 26.000542
_cell_angle_alpha 90.000000
_cell_angle_beta 90.000000
_cell_angle_gamma 90.000000
_cell_volume 3285.806886
_symmetry_space_group_name_H-M "C M M M"
_symmetry_group_IT_number 65
_symmetry_cell_setting 'orthorhombic'
loop_
_space_group_symop_operation_xyz
x,y,z
-x,-y,z
x,-y,-z
-x,y,-z
-x,-y,-z
x,y,-z
-x,y,z
x,-y,z
1/2+x,1/2+y,z
1/2-x,1/2-y,z
1/2+x,1/2-y,-z
1/2-x,1/2+y,-z
1/2-x,1/2-y,-z
1/2+x,1/2+y,-z
1/2-x,1/2+y,z
1/2+x,1/2-y,z
loop_
_atom_site_type_symbol
_atom_site_label
_atom_site_fract_x
_atom_site_fract_y
_atom_site_fract_z
Si Si1 0.500000 0.212734 0.559610
Si Si2 0.653835 0.291386 0.833635
Si Si3 0.909419 0.208204 0.275386
Si Si4 0.652825 0.291381 0.944725
Si Si5 0.160122 0.296345 0.618378
O O1 0.500000 0.262033 0.500000
O O2 0.418025 0.277159 0.588077
O O3 0.500000 0.000000 0.561270
O O4 0.644533 0.500000 0.833962
O O5 0.750000 0.250000 0.831210
O O6 0.614066 0.225162 0.781143
O O7 0.621507 0.227624 0.889252
O O8 0.849012 0.251625 0.321455
O O9 0.000000 0.271308 0.289623
O O10 0.911493 0.000000 0.271983
O O11 0.643779 0.500000 0.944881
O O12 0.750000 0.250000 0.944586
O O13 0.620220 0.226980 0.000000
O O14 0.153247 0.500000 0.614064
O O15 0.250000 0.250000 0.599033
#
# Coordination Sequence:
#
# PCOD9489212 Si02
#       5
#     8  16  16  16  16
#     4   9  20  40  63  87 119 155 188 225 270 320
#     4   9  17  28  43  66  93 124 163 210 264 320
#     4  10  20  34  52  74 105 142 180 225 275 327
#     4   8  13  22  37  57  83 115 154 202 255 311
#     4  11  22  38  61  88 116 150 189 229 274 325
#
# _framework density 21.912426
#
# number of rings (size 3 to 8) (size 9 to 14) (size 15 to 20)
#    0.000    2.556    1.111    1.333    0.000    3.111 
#    0.000    0.000    0.000    5.333    0.000    4.667 
#    0.000    0.000    0.000   38.000    0.000   19.111 
#
# Total GULP energy -200751.177819 kJ/mol
# GULP energy per Si atom -5576.421606 kJ/mol
# Density = 2.186255 g / cm^3
# Si number density = 21.912426 Si / 1000 Ang^3
#
#
#
# Elastic Constant Matrix: (Units=GPa)
#
#
# Indices 1 2 3 4 5 6 
#
# 1 104.9632 5.2776 66.6815 0.0000 0.0000 0.0000
# 2 5.2776 38.0321 8.0930 0.0000 0.0000 0.0000
# 3 66.6815 8.0930 161.7036 0.0000 0.0000 0.0000
# 4 0.0000 0.0000 0.0000 14.8730 0.0000 0.0000
# 5 0.0000 0.0000 0.0000 0.0000 33.0377 0.0000
# 6 0.0000 0.0000 0.0000 0.0000 0.0000 12.6481
#
#
#
# Elastic Compliance Matrix: (Units=1/GPa)
#
#
# Indices 1 2 3 4 5 6 
#
# 1 0.012926 -0.000667 -0.005297 0.000000 0.000000 0.000000
# 2 -0.000667 0.026611 -0.001057 0.000000 0.000000 0.000000
# 3 -0.005297 -0.001057 0.008421 0.000000 0.000000 0.000000
# 4 0.000000 0.000000 0.000000 0.067236 0.000000 0.000000
# 5 0.000000 0.000000 0.000000 0.000000 0.030268 0.000000
# 6 0.000000 0.000000 0.000000 0.000000 0.000000 0.079063
#
#
# Mechanical properties :
#
#
# Convention : Reuss Voigt Hill
#
# Bulk Modulus (GPa) = 29.48347 51.64480 40.56414
# Shear Modulus (GPa) = 20.01026 27.08822 23.54924
#
# Velocity S-wave (km/s) = 3.02519 3.51978 3.28182
# Velocity P-wave (km/s) = 5.06820 6.33549 5.73694
#
# Compressibility (1/GPa) = 0.03391732
#
# Stress axis : x y z
#
# Youngs Moduli (GPa) = 77.36572 37.57847 118.74686
#
# Poissons Ratio (x) = 0.02505 0.62897
# Poissons Ratio (y) = 0.05157 0.12551
# Poissons Ratio (z) = 0.40979 0.03972
#
# Static dielectric constant tensor:
#      x y z
#    x 1.771850 0.000000 0.000000 
#    y 0.000000 1.766220 0.000000 
#    z 0.000000 0.000000 1.846420 
# 
# From -- ./inp_files/72485.got.cif
#   From: 2010.05.17/outbox.cif.g08.bks.cpg/sg65_37_cif.got.tgz:72485.got - 2010.06.03 17:01:31.
