data_PCOD9489899
_publ_section_title
;
Structure prediction by ZEFSAII (Michael W. Deem and Ramdas Pophale) SiO2 
 PCOD9489899
Probable space group: C M M M
;
_chemical_formula_sum "Si O2"
_cell_formula_units_Z 116
_cell_length_a 16.833730
_cell_length_b 25.280439
_cell_length_c 16.013764
_cell_angle_alpha 90.000000
_cell_angle_beta 90.000000
_cell_angle_gamma 90.000000
_cell_volume 6814.882815
_symmetry_space_group_name_H-M "C M M M"
_symmetry_group_IT_number 65
_symmetry_cell_setting 'orthorhombic'
loop_
_space_group_symop_operation_xyz
x,y,z
-x,-y,z
x,-y,-z
-x,y,-z
-x,-y,-z
x,y,-z
-x,y,z
x,-y,z
1/2+x,1/2+y,z
1/2-x,1/2-y,z
1/2+x,1/2-y,-z
1/2-x,1/2+y,-z
1/2-x,1/2-y,-z
1/2+x,1/2+y,-z
1/2-x,1/2+y,z
1/2+x,1/2-y,z
loop_
_atom_site_type_symbol
_atom_site_label
_atom_site_fract_x
_atom_site_fract_y
_atom_site_fract_z
Si Si1 0.679116 0.166420 0.097321
Si Si2 0.096301 0.060892 0.242770
Si Si3 0.344472 0.743895 0.593011
Si Si4 0.095145 0.124048 0.592890
Si Si5 0.906190 0.259200 0.231717
Si Si6 0.500000 0.329123 0.000000
Si Si7 0.861931 0.158629 0.861208
Si Si8 0.091589 0.440936 0.898923
O O1 0.639030 0.206848 0.161621
O O2 0.773889 0.169061 0.105100
O O3 0.647790 0.107986 0.122167
O O4 0.656316 0.176747 0.000000
O O5 0.119126 0.085410 0.332428
O O6 0.130935 0.098961 0.172024
O O7 0.000000 0.063329 0.236552
O O8 0.120134 0.000000 0.234658
O O9 0.369976 0.762266 0.500000
O O10 0.250000 0.750000 0.598942
O O11 0.366298 0.681839 0.597881
O O12 0.383055 0.771931 0.673063
O O13 0.111555 0.102237 0.500000
O O14 0.000000 0.131843 0.599750
O O15 0.880261 0.198804 0.214267
O O16 0.000000 0.264733 0.220099
O O17 0.430135 0.330574 0.071976
O O18 0.114984 0.500000 0.869931
O O19 0.000000 0.430955 0.872793
O O20 0.090992 0.442709 0.000000
#
# Coordination Sequence:
#
# PCOD9489899 Si02
#       8
#    16  16  16  16  16   4  16  16
#     4  11  24  36  56  84 110 143 190 238 279 338
#     4  10  20  35  54  76 105 143 187 233 277 326
#     4  10  20  35  56  84 113 148 185 223 273 336
#     4   9  17  31  54  81 108 140 179 222 276 336
#     4  12  24  37  57  82 115 146 184 231 285 343
#     4  12  24  40  59  72 100 160 197 232 284 350
#     4  12  23  40  55  75 108 148 194 231 289 336
#     4   8  15  32  55  78 106 137 171 220 283 336
#
# _framework density 17.021569
#
# number of rings (size 3 to 8) (size 9 to 14) (size 15 to 20)
#    0.000    1.655    3.448    2.483    0.966    3.034 
#    0.000    2.069    0.000    0.000    0.000    0.000 
#    0.000    0.552    0.000    2.897    0.000    0.138 
#
# Total GULP energy -322994.335326 kJ/mol
# GULP energy per Si atom -5568.867850 kJ/mol
# Density = 1.698283 g / cm^3
# Si number density = 17.021569 Si / 1000 Ang^3
#
#
#
# Elastic Constant Matrix: (Units=GPa)
#
#
# Indices 1 2 3 4 5 6 
#
# 1 84.4606 31.3251 32.6752 0.0000 0.0000 0.0000
# 2 31.3251 60.9717 30.6106 0.0000 0.0000 0.0000
# 3 32.6752 30.6106 104.8248 0.0000 0.0000 0.0000
# 4 0.0000 0.0000 0.0000 16.8855 0.0000 0.0000
# 5 0.0000 0.0000 0.0000 0.0000 14.9578 0.0000
# 6 0.0000 0.0000 0.0000 0.0000 0.0000 6.9636
#
#
#
# Elastic Compliance Matrix: (Units=1/GPa)
#
#
# Indices 1 2 3 4 5 6 
#
# 1 0.015348 -0.006425 -0.002908 0.000000 0.000000 0.000000
# 2 -0.006425 0.021909 -0.004395 0.000000 0.000000 0.000000
# 3 -0.002908 -0.004395 0.011729 0.000000 0.000000 0.000000
# 4 0.000000 0.000000 0.000000 0.059222 0.000000 0.000000
# 5 0.000000 0.000000 0.000000 0.000000 0.066855 0.000000
# 6 0.000000 0.000000 0.000000 0.000000 0.000000 0.143604
#
#
# Mechanical properties :
#
#
# Convention : Reuss Voigt Hill
#
# Bulk Modulus (GPa) = 46.44686 48.83101 47.63894
# Shear Modulus (GPa) = 14.15229 18.13779 16.14504
#
# Velocity S-wave (km/s) = 2.88659 3.26786 3.08312
# Velocity P-wave (km/s) = 6.20130 6.55656 6.38141
#
# Compressibility (1/GPa) = 0.02152998
#
# Stress axis : x y z
#
# Youngs Moduli (GPa) = 65.15577 45.64428 85.25526
#
# Poissons Ratio (x) = 0.29328 0.24791
# Poissons Ratio (y) = 0.41865 0.37468
# Poissons Ratio (z) = 0.18946 0.20060
#
# Static dielectric constant tensor:
#      x y z
#    x 1.562100 0.000000 0.000000 
#    y 0.000000 1.584640 0.000000 
#    z 0.000000 0.000000 1.622990 
# 
# From -- ./inp_files/43187.got.cif
#   From: 2010.05.17/outbox.cif.g08.bks.cpg/sg65_22_cif.got.tgz:43187.got - 2010.06.03 17:01:31.
