data_PCOD9489315
_publ_section_title
;
Structure prediction by ZEFSAII (Michael W. Deem and Ramdas Pophale) SiO2 
 PCOD9489315
Probable space group: C M M M
;
_chemical_formula_sum "Si O2"
_cell_formula_units_Z 64
_cell_length_a 7.593157
_cell_length_b 26.084784
_cell_length_c 13.077944
_cell_angle_alpha 90.000000
_cell_angle_beta 90.000000
_cell_angle_gamma 90.000000
_cell_volume 2590.294228
_symmetry_space_group_name_H-M "C M M M"
_symmetry_group_IT_number 65
_symmetry_cell_setting 'orthorhombic'
loop_
_space_group_symop_operation_xyz
x,y,z
-x,-y,z
x,-y,-z
-x,y,-z
-x,-y,-z
x,y,-z
-x,y,z
x,-y,z
1/2+x,1/2+y,z
1/2-x,1/2-y,z
1/2+x,1/2-y,-z
1/2-x,1/2+y,-z
1/2-x,1/2-y,-z
1/2+x,1/2+y,-z
1/2-x,1/2+y,z
1/2+x,1/2-y,z
loop_
_atom_site_type_symbol
_atom_site_label
_atom_site_fract_x
_atom_site_fract_y
_atom_site_fract_z
Si Si1 0.203851 0.581601 0.110553
Si Si2 0.290338 0.305638 0.167213
Si Si3 0.703893 0.445032 0.336746
Si Si4 0.715394 0.332727 0.609717
O O1 0.212654 0.643578 0.116802
O O2 0.291356 0.561185 0.213565
O O3 0.000000 0.566027 0.115274
O O4 0.276688 0.565782 0.000000
O O5 0.500000 0.312998 0.165610
O O6 0.250000 0.250000 0.122752
O O7 0.226457 0.306337 0.285633
O O8 0.500000 0.446155 0.368710
O O9 0.783975 0.500000 0.364312
O O10 0.776031 0.391994 0.380461
O O11 0.773423 0.311853 0.500000
O O12 0.500000 0.332284 0.611082
#
# Coordination Sequence:
#
# PCOD9489315 Si02
#       4
#    16  16  16  16
#     4  10  21  36  53  73  98 130 168 209 252 296
#     4  10  20  34  53  76 102 132 165 203 248 296
#     4   9  18  32  51  76 104 134 167 204 248 295
#     4   8  15  29  49  74 103 133 166 203 242 288
#
# _framework density 24.707619000000001
#
# number of rings (size 3 to 8) (size 9 to 14) (size 15 to 20)
#    0.000    2.750    0.000    3.000    0.000    4.500 
#    0.000    5.000    0.000   18.000    0.000    7.000 
#    0.000    0.000    0.000    0.000    0.000    0.000 
#
# Total GULP energy -178764.979711 kJ/mol
# GULP energy per Si atom -5586.405616 kJ/mol
# Density = 2.465138 g / cm^3
# Si number density = 24.707619 Si / 1000 Ang^3
#
#
#
# Elastic Constant Matrix: (Units=GPa)
#
#
# Indices 1 2 3 4 5 6 
#
# 1 68.6207 -9.7565 -2.8390 0.0000 0.0000 0.0000
# 2 -9.7565 131.8519 -5.3932 0.0000 0.0000 0.0000
# 3 -2.8390 -5.3932 131.9680 0.0000 0.0000 0.0000
# 4 0.0000 0.0000 0.0000 -21.1205 0.0000 0.0000
# 5 0.0000 0.0000 0.0000 0.0000 12.1311 0.0000
# 6 0.0000 0.0000 0.0000 0.0000 0.0000 5.0471
#
#
#
# Elastic Compliance Matrix: (Units=1/GPa)
#
#
# Indices 1 2 3 4 5 6 
#
# 1 0.014745 0.001106 0.000362 0.000000 0.000000 0.000000
# 2 0.001106 0.007680 0.000338 0.000000 0.000000 0.000000
# 3 0.000362 0.000338 0.007599 0.000000 0.000000 0.000000
# 4 0.000000 0.000000 0.000000 -0.047347 0.000000 0.000000
# 5 0.000000 0.000000 0.000000 0.000000 0.082433 0.000000
# 6 0.000000 0.000000 0.000000 0.000000 0.000000 0.198132
#
#
# Mechanical properties :
#
#
# Convention : Reuss Voigt Hill
#
# Bulk Modulus (GPa) = 29.72998 32.94036 31.33517
# Shear Modulus (GPa) = 18.46095 22.57350 20.51723
#
# Velocity S-wave (km/s) = 2.73642 3.02590 2.88479
# Velocity P-wave (km/s) = 4.69498 5.05659 4.87914
#
# Compressibility (1/GPa) = 0.03363609
#
# Stress axis : x y z
#
# Youngs Moduli (GPa) = 67.81921 130.20982 131.59301
#
# Poissons Ratio (x) = -0.14400 -0.04769
# Poissons Ratio (y) = -0.07500 -0.04443
# Poissons Ratio (z) = -0.02458 -0.04397
#
# Static dielectric constant tensor:
#      x y z
#    x 1.931350 0.000000 0.000000 
#    y 0.000000 1.957130 0.000000 
#    z 0.000000 0.000000 1.959770 
# 
# From -- ./inp_files/20928.got.cif
#   From: 2010.05.17/outbox.cif.g08.bks.cpg/sg65_11_cif.got.tgz:20928.got - 2010.06.03 17:01:31.
