data_PCOD9489071
_publ_section_title
;
Structure prediction by ZEFSAII (Michael W. Deem and Ramdas Pophale) SiO2 
 PCOD9489071
Probable space group: C M M M
;
_chemical_formula_sum "Si O2"
_cell_formula_units_Z 72
_cell_length_a 9.976625
_cell_length_b 14.948907
_cell_length_c 22.972553
_cell_angle_alpha 90.000000
_cell_angle_beta 90.000000
_cell_angle_gamma 90.000000
_cell_volume 3426.118268
_symmetry_space_group_name_H-M "C M M M"
_symmetry_group_IT_number 65
_symmetry_cell_setting 'orthorhombic'
loop_
_space_group_symop_operation_xyz
x,y,z
-x,-y,z
x,-y,-z
-x,y,-z
-x,-y,-z
x,y,-z
-x,y,z
x,-y,z
1/2+x,1/2+y,z
1/2-x,1/2-y,z
1/2+x,1/2-y,-z
1/2-x,1/2+y,-z
1/2-x,1/2-y,-z
1/2+x,1/2+y,-z
1/2-x,1/2+y,z
1/2+x,1/2-y,z
loop_
_atom_site_type_symbol
_atom_site_label
_atom_site_fract_x
_atom_site_fract_y
_atom_site_fract_z
Si Si1 0.000000 0.390355 0.567758
Si Si2 0.846784 0.894670 0.767941
Si Si3 0.838236 0.659202 0.873087
Si Si4 0.500000 0.608756 0.434646
Si Si5 0.655972 0.837017 0.000000
Si Si6 0.251063 0.390778 0.643332
O O1 0.124061 0.360676 0.606880
O O2 0.000000 0.500000 0.565767
O O3 0.000000 0.362208 0.500000
O O4 0.740537 0.886158 0.820223
O O5 0.780840 0.858052 0.708578
O O6 0.000000 0.858997 0.778556
O O7 0.863946 0.000000 0.758405
O O8 0.750000 0.750000 0.877428
O O9 0.000000 0.669696 0.862872
O O10 0.824101 0.615687 0.937641
O O11 0.500000 0.500000 0.437738
O O12 0.500000 0.642892 0.500000
O O13 0.373545 0.634441 0.397315
O O14 0.750000 0.750000 0.000000
O O15 0.500000 0.807283 0.000000
O O16 0.242541 0.500000 0.646338
#
# Coordination Sequence:
#
# PCOD9489071 Si02
#       6
#     8  16  16   8   8  16
#     4   9  16  24  36  58  89 124 163 208 254 301
#     4  10  20  34  50  72 106 144 178 212 254 304
#     4  10  20  35  57  81 105 133 169 212 256 304
#     4   9  14  22  38  58  83 122 167 204 244 295
#     4   8  16  32  53  78 103 129 163 207 257 302
#     4   9  16  26  39  59  91 129 165 204 251 300
#
# _framework density 21.015035999999998
#
# number of rings (size 3 to 8) (size 9 to 14) (size 15 to 20)
#    0.000    2.667    1.111    1.333    1.556    4.000 
#    0.000    0.556    0.000    3.333    0.000    0.000 
#    0.000    5.333    0.000    0.000    0.000    0.000 
#
# Total GULP energy -200403.997614 kJ/mol
# GULP energy per Si atom -5566.777712 kJ/mol
# Density = 2.096720 g / cm^3
# Si number density = 21.015036 Si / 1000 Ang^3
#
#
#
# Elastic Constant Matrix: (Units=GPa)
#
#
# Indices 1 2 3 4 5 6 
#
# 1 207.6231 7.1427 119.2736 0.0000 0.0000 0.0000
# 2 7.1427 40.4530 12.5348 0.0000 0.0000 0.0000
# 3 119.2736 12.5348 237.1199 0.0000 0.0000 0.0000
# 4 0.0000 0.0000 0.0000 20.6587 0.0000 0.0000
# 5 0.0000 0.0000 0.0000 0.0000 15.7343 0.0000
# 6 0.0000 0.0000 0.0000 0.0000 0.0000 11.5916
#
#
#
# Elastic Compliance Matrix: (Units=1/GPa)
#
#
# Indices 1 2 3 4 5 6 
#
# 1 0.006775 -0.000143 -0.003400 0.000000 0.000000 0.000000
# 2 -0.000143 0.025135 -0.001257 0.000000 0.000000 0.000000
# 3 -0.003400 -0.001257 0.005994 0.000000 0.000000 0.000000
# 4 0.000000 0.000000 0.000000 0.048406 0.000000 0.000000
# 5 0.000000 0.000000 0.000000 0.000000 0.063555 0.000000
# 6 0.000000 0.000000 0.000000 0.000000 0.000000 0.086269
#
#
# Mechanical properties :
#
#
# Convention : Reuss Voigt Hill
#
# Bulk Modulus (GPa) = 35.33077 84.78869 60.05973
# Shear Modulus (GPa) = 19.59497 32.67994 26.13746
#
# Velocity S-wave (km/s) = 3.05688 3.94772 3.53051
# Velocity P-wave (km/s) = 5.41368 7.82391 6.72761
#
# Compressibility (1/GPa) = 0.02830394
#
# Stress axis : x y z
#
# Youngs Moduli (GPa) = 147.60967 39.78560 166.83249
#
# Poissons Ratio (x) = 0.00567 0.56726
# Poissons Ratio (y) = 0.02105 0.20970
# Poissons Ratio (z) = 0.50190 0.05001
#
# Static dielectric constant tensor:
#      x y z
#    x 1.681270 0.000000 0.000000 
#    y 0.000000 1.844430 0.000000 
#    z 0.000000 0.000000 1.785480 
# 
# From -- ./inp_files/59421.got.cif
#   From: 2010.05.17/outbox.cif.g08.bks.cpg/sg65_30_cif.got.tgz:59421.got - 2010.06.03 17:01:31.
