data_PCOD9489812
_publ_section_title
;
Structure prediction by ZEFSAII (Michael W. Deem and Ramdas Pophale) SiO2 
 PCOD9489812
Probable space group: C M M M
;
_chemical_formula_sum "Si O2"
_cell_formula_units_Z 88
_cell_length_a 15.535555
_cell_length_b 19.188261
_cell_length_c 17.260900
_cell_angle_alpha 90.000000
_cell_angle_beta 90.000000
_cell_angle_gamma 90.000000
_cell_volume 5145.479194
_symmetry_space_group_name_H-M "C M M M"
_symmetry_group_IT_number 65
_symmetry_cell_setting 'orthorhombic'
loop_
_space_group_symop_operation_xyz
x,y,z
-x,-y,z
x,-y,-z
-x,y,-z
-x,-y,-z
x,y,-z
-x,y,z
x,-y,z
1/2+x,1/2+y,z
1/2-x,1/2-y,z
1/2+x,1/2-y,-z
1/2-x,1/2+y,-z
1/2-x,1/2-y,-z
1/2+x,1/2+y,-z
1/2-x,1/2+y,z
1/2+x,1/2-y,z
loop_
_atom_site_type_symbol
_atom_site_label
_atom_site_fract_x
_atom_site_fract_y
_atom_site_fract_z
Si Si1 0.826392 0.858178 0.658315
Si Si2 0.155365 0.422257 0.408612
Si Si3 0.402075 0.082374 0.092804
Si Si4 0.283113 0.823053 0.193975
Si Si5 0.500000 0.582820 0.409747
Si Si6 0.902715 0.715436 0.333631
O O1 0.752133 0.898802 0.612716
O O2 0.790202 0.853450 0.747073
O O3 0.915832 0.894452 0.637989
O O4 0.843685 0.777764 0.633294
O O5 0.145496 0.425927 0.500000
O O6 0.136991 0.500000 0.376300
O O7 0.100387 0.357587 0.378090
O O8 0.500000 0.104169 0.116272
O O9 0.325753 0.123728 0.134608
O O10 0.394901 0.000000 0.109802
O O11 0.396651 0.090985 0.000000
O O12 0.250000 0.750000 0.159031
O O13 0.360762 0.801754 0.251338
O O14 0.500000 0.500000 0.415594
O O15 0.500000 0.610213 0.500000
O O16 0.000000 0.740848 0.328583
#
# Coordination Sequence:
#
# PCOD9489812 Si02
#       6
#    16  16  16  16   8  16
#     4  10  20  36  52  72 100 131 173 219 262 314
#     4  10  21  35  49  68  97 129 166 215 264 314
#     4   9  18  33  54  83 115 141 168 205 251 305
#     4   9  19  33  53  77 103 139 171 210 253 304
#     4  11  22  34  52  76 100 132 176 227 276 314
#     4  10  20  35  52  72  99 132 169 209 258 313
#
# _framework density 17.102391999999998
#
# number of rings (size 3 to 8) (size 9 to 14) (size 15 to 20)
#    0.000    2.273    0.909    3.818    0.000    8.364 
#    0.000    0.909    0.000    0.000    0.000    0.000 
#    0.000    2.182    0.000    0.000    0.000    0.000 
#
# Total GULP energy -244955.968906 kJ/mol
# GULP energy per Si atom -5567.181112 kJ/mol
# Density = 1.706347 g / cm^3
# Si number density = 17.102392 Si / 1000 Ang^3
#
#
#
# Elastic Constant Matrix: (Units=GPa)
#
#
# Indices 1 2 3 4 5 6 
#
# 1 105.0150 29.1325 32.5815 0.0000 0.0000 0.0000
# 2 29.1325 107.7148 40.1454 0.0000 0.0000 0.0000
# 3 32.5815 40.1454 39.3645 0.0000 0.0000 0.0000
# 4 0.0000 0.0000 0.0000 28.3267 0.0000 0.0000
# 5 0.0000 0.0000 0.0000 0.0000 -21.3252 0.0000
# 6 0.0000 0.0000 0.0000 0.0000 0.0000 29.4439
#
#
#
# Elastic Compliance Matrix: (Units=1/GPa)
#
#
# Indices 1 2 3 4 5 6 
#
# 1 0.012854 0.000788 -0.011443 0.000000 0.000000 0.000000
# 2 0.000788 0.015024 -0.015975 0.000000 0.000000 0.000000
# 3 -0.011443 -0.015975 0.051167 0.000000 0.000000 0.000000
# 4 0.000000 0.000000 0.000000 0.035302 0.000000 0.000000
# 5 0.000000 0.000000 0.000000 0.000000 -0.046893 0.000000
# 6 0.000000 0.000000 0.000000 0.000000 0.000000 0.033963
#
#
# Mechanical properties :
#
#
# Convention : Reuss Voigt Hill
#
# Bulk Modulus (GPa) = 38.78106 50.64590 44.71348
# Shear Modulus (GPa) = 30.62362 17.30474 23.96418
#
# Velocity S-wave (km/s) = 4.23614 3.18438 3.74735
# Velocity P-wave (km/s) = 6.83020 6.57252 6.70260
#
# Compressibility (1/GPa) = 0.02578578
#
# Stress axis : x y z
#
# Youngs Moduli (GPa) = 77.79640 66.55820 19.54388
#
# Poissons Ratio (x) = -0.05247 0.22364
# Poissons Ratio (y) = -0.06133 0.31221
# Poissons Ratio (z) = 0.89024 1.06327
#
# Static dielectric constant tensor:
#      x y z
#    x 1.660860 0.000000 0.000000 
#    y 0.000000 1.647360 0.000000 
#    z 0.000000 0.000000 1.569300 
# 
# From -- ./inp_files/52997.got.cif
#   From: 2010.05.17/outbox.cif.g08.bks.cpg/sg65_27_cif.got.tgz:52997.got - 2010.06.03 17:01:31.
