data_PCOD9489466
_publ_section_title
;
Structure prediction by ZEFSAII (Michael W. Deem and Ramdas Pophale) SiO2 
 PCOD9489466
Probable space group: C M M M
;
_chemical_formula_sum "Si O2"
_cell_formula_units_Z 56
_cell_length_a 9.423721
_cell_length_b 37.713058
_cell_length_c 9.004270
_cell_angle_alpha 90.000000
_cell_angle_beta 90.000000
_cell_angle_gamma 90.000000
_cell_volume 3200.093576
_symmetry_space_group_name_H-M "C M M M"
_symmetry_group_IT_number 65
_symmetry_cell_setting 'orthorhombic'
loop_
_space_group_symop_operation_xyz
x,y,z
-x,-y,z
x,-y,-z
-x,y,-z
-x,-y,-z
x,y,-z
-x,y,z
x,-y,z
1/2+x,1/2+y,z
1/2-x,1/2-y,z
1/2+x,1/2-y,-z
1/2-x,1/2+y,-z
1/2-x,1/2-y,-z
1/2+x,1/2+y,-z
1/2-x,1/2+y,z
1/2+x,1/2-y,z
loop_
_atom_site_type_symbol
_atom_site_label
_atom_site_fract_x
_atom_site_fract_y
_atom_site_fract_z
Si Si1 0.831725 0.564953 0.323403
Si Si2 0.833429 0.000000 0.177661
Si Si3 0.172630 0.637945 0.171616
Si Si4 0.163736 0.715704 0.181320
O O1 0.815426 0.562210 0.500000
O O2 0.743223 0.534509 0.243625
O O3 0.787088 0.603917 0.267097
O O4 0.000000 0.560673 0.288836
O O5 0.000000 0.000000 0.215955
O O6 0.819856 0.000000 0.000000
O O7 0.220296 0.676822 0.226051
O O8 0.000000 0.639725 0.171720
O O9 0.216791 0.632909 0.000000
O O10 0.250000 0.750000 0.230994
O O11 0.000000 0.719024 0.227221
O O12 0.165648 0.715180 0.000000
#
# Coordination Sequence:
#
# PCOD9489466 Si02
#       4
#    16   8  16  16
#     4  10  20  34  54  78 100 126 163 202 241 288
#     4  11  24  39  54  74 100 129 160 195 240 292
#     4   8  14  26  45  68  94 124 158 198 242 283
#     4   8  13  22  38  61  88 118 153 194 239 281
#
# _framework density 17.499489000000001
#
# number of rings (size 3 to 8) (size 9 to 14) (size 15 to 20)
#    0.000    3.000    0.000    3.429    0.000    4.571 
#    0.000    1.429    0.000    6.000    0.000    0.000 
#    0.000    0.000    0.000    0.000    0.000    0.000 
#
# Total GULP energy -156000.757880 kJ/mol
# GULP energy per Si atom -5571.455639 kJ/mol
# Density = 1.745966 g / cm^3
# Si number density = 17.499489 Si / 1000 Ang^3
#
#
#
# Elastic Constant Matrix: (Units=GPa)
#
#
# Indices 1 2 3 4 5 6 
#
# 1 57.0874 77.7798 39.1720 0.0000 0.0000 0.0000
# 2 77.7798 205.7542 56.3062 0.0000 0.0000 0.0000
# 3 39.1720 56.3062 40.0472 0.0000 0.0000 0.0000
# 4 0.0000 0.0000 0.0000 -12.3965 0.0000 0.0000
# 5 0.0000 0.0000 0.0000 0.0000 14.2516 0.0000
# 6 0.0000 0.0000 0.0000 0.0000 0.0000 25.1927
#
#
#
# Elastic Compliance Matrix: (Units=1/GPa)
#
#
# Indices 1 2 3 4 5 6 
#
# 1 0.068030 -0.012201 -0.049388 0.000000 0.000000 0.000000
# 2 -0.012201 0.010088 -0.002249 0.000000 0.000000 0.000000
# 3 -0.049388 -0.002249 0.076441 0.000000 0.000000 0.000000
# 4 0.000000 0.000000 0.000000 -0.080668 0.000000 0.000000
# 5 0.000000 0.000000 0.000000 0.000000 0.070168 0.000000
# 6 0.000000 0.000000 0.000000 0.000000 0.000000 0.039694
#
#
# Mechanical properties :
#
#
# Convention : Reuss Voigt Hill
#
# Bulk Modulus (GPa) = 37.19903 72.15608 54.67756
# Shear Modulus (GPa) = 15.60598 14.05163 14.82881
#
# Velocity S-wave (km/s) = 2.98954 2.83675 2.91415
# Velocity P-wave (km/s) = 5.76366 7.21473 6.52963
#
# Compressibility (1/GPa) = 0.02688242
#
# Stress axis : x y z
#
# Youngs Moduli (GPa) = 14.69942 99.12725 13.08195
#
# Poissons Ratio (x) = 1.20950 0.64609
# Poissons Ratio (y) = 0.17935 0.02942
# Poissons Ratio (z) = 0.72597 0.22293
#
# Static dielectric constant tensor:
#      x y z
#    x 1.585740 0.000000 0.000000 
#    y 0.000000 1.612490 0.000000 
#    z 0.000000 0.000000 1.578860 
# 
# From -- ./inp_files/4728.got.cif
#   From: 2010.05.17/outbox.cif.g08.bks.cpg/sg65_3_cif.got.tgz:4728.got - 2010.06.03 17:01:31.
