data_PCOD9489700
_publ_section_title
;
Structure prediction by ZEFSAII (Michael W. Deem and Ramdas Pophale) SiO2 
 PCOD9489700
Probable space group: C M M M
;
_chemical_formula_sum "Si O2"
_cell_formula_units_Z 64
_cell_length_a 33.586876
_cell_length_b 11.201146
_cell_length_c 7.471254
_cell_angle_alpha 90.000000
_cell_angle_beta 90.000000
_cell_angle_gamma 90.000000
_cell_volume 2810.771687
_symmetry_space_group_name_H-M "C M M M"
_symmetry_group_IT_number 65
_symmetry_cell_setting 'orthorhombic'
loop_
_space_group_symop_operation_xyz
x,y,z
-x,-y,z
x,-y,-z
-x,y,-z
-x,-y,-z
x,y,-z
-x,y,z
x,-y,z
1/2+x,1/2+y,z
1/2-x,1/2-y,z
1/2+x,1/2-y,-z
1/2-x,1/2+y,-z
1/2-x,1/2-y,-z
1/2+x,1/2+y,-z
1/2-x,1/2+y,z
1/2+x,1/2-y,z
loop_
_atom_site_type_symbol
_atom_site_label
_atom_site_fract_x
_atom_site_fract_y
_atom_site_fract_z
Si Si1 0.500000 0.359215 0.207473
Si Si2 0.580615 0.254535 0.206149
Si Si3 0.170080 0.241130 0.705044
Si Si4 0.789428 0.000000 0.283163
Si Si5 0.953214 0.500000 0.715962
Si Si6 0.695341 0.000000 0.716075
O O1 0.500000 0.500000 0.204509
O O2 0.541343 0.315171 0.287938
O O3 0.500000 0.313706 0.000000
O O4 0.622790 0.278602 0.294151
O O5 0.569562 0.115685 0.215695
O O6 0.584553 0.294147 0.000000
O O7 0.184923 0.248441 0.500000
O O8 0.178208 0.373185 0.784110
O O9 0.191112 0.123677 0.784255
O O10 0.795358 0.000000 0.500000
O O11 0.742449 0.000000 0.250265
O O12 0.952086 0.500000 0.500000
O O13 0.000000 0.500000 0.769407
O O14 0.687909 0.000000 0.500000
#
# Coordination Sequence:
#
# PCOD9489700 Si02
#       6
#     8  16  16   8   8   8
#     4   9  20  37  55  76 106 151 198 235 270 327
#     4  11  22  37  59  83 113 150 193 233 278 339
#     4  10  20  34  55  84 115 145 187 240 289 337
#     4   9  18  33  56  84 112 145 189 238 286 342
#     4  11  22  37  58  82 111 143 183 236 289 332
#     4   9  17  33  57  81 108 147 189 231 284 345
#
# _framework density 22.769546999999999
#
# number of rings (size 3 to 8) (size 9 to 14) (size 15 to 20)
#    0.000    2.000    1.250    2.625    1.750    4.500 
#    0.000    0.000    0.000    7.500    0.000    0.000 
#    0.000    0.000    0.000    0.000    0.000    0.000 
#
# Total GULP energy -178736.731067 kJ/mol
# GULP energy per Si atom -5585.522846 kJ/mol
# Density = 2.271772 g / cm^3
# Si number density = 22.769547 Si / 1000 Ang^3
#
#
#
# Elastic Constant Matrix: (Units=GPa)
#
#
# Indices 1 2 3 4 5 6 
#
# 1 104.0981 65.6029 -3.0596 0.0000 0.0000 0.0000
# 2 65.6029 143.3749 4.6163 0.0000 0.0000 0.0000
# 3 -3.0596 4.6163 71.9965 0.0000 0.0000 0.0000
# 4 0.0000 0.0000 0.0000 -44.9098 0.0000 0.0000
# 5 0.0000 0.0000 0.0000 0.0000 22.7944 0.0000
# 6 0.0000 0.0000 0.0000 0.0000 0.0000-1037.1234
#
#
#
# Elastic Compliance Matrix: (Units=1/GPa)
#
#
# Indices 1 2 3 4 5 6 
#
# 1 0.013567 -0.006239 0.000977 0.000000 0.000000 0.000000
# 2 -0.006239 0.009858 -0.000897 0.000000 0.000000 0.000000
# 3 0.000977 -0.000897 0.013989 0.000000 0.000000 0.000000
# 4 0.000000 0.000000 0.000000 -0.022267 0.000000 0.000000
# 5 0.000000 0.000000 0.000000 0.000000 0.043870 0.000000
# 6 0.000000 0.000000 0.000000 0.000000 0.000000 -0.000964
#
#
# Mechanical properties :
#
#
# Convention : Reuss Voigt Hill
#
# Bulk Modulus (GPa) = 39.84962 50.42095 45.13528
# Shear Modulus (GPa) = 63.50195 -195.02709 -65.76257
#
# Velocity S-wave (km/s) = 5.28673 -9.26491 -5.38001
# Velocity P-wave (km/s) = 7.40306 9.60517 4.32747
#
# Compressibility (1/GPa) = 0.02509434
#
# Stress axis : x y z
#
# Youngs Moduli (GPa) = 73.70851 101.43623 71.48678
#
# Poissons Ratio (x) = 0.63288 -0.06981
# Poissons Ratio (y) = 0.45988 0.06414
# Poissons Ratio (z) = -0.07198 0.09101
#
# Static dielectric constant tensor:
#      x y z
#    x 1.802860 0.000000 0.000000 
#    y 0.000000 1.783870 0.000000 
#    z 0.000000 0.000000 1.901620 
# 
# From -- ./inp_files/5006.got.cif
#   From: 2010.05.17/outbox.cif.g08.bks.cpg/sg65_3_cif.got.tgz:5006.got - 2010.06.03 17:01:31.
