data_PCOD9489034
_publ_section_title
;
Structure prediction by ZEFSAII (Michael W. Deem and Ramdas Pophale) SiO2 
 PCOD9489034
Probable space group: C M M M
;
_chemical_formula_sum "Si O2"
_cell_formula_units_Z 68
_cell_length_a 18.670110
_cell_length_b 10.008013
_cell_length_c 18.421003
_cell_angle_alpha 90.000000
_cell_angle_beta 90.000000
_cell_angle_gamma 90.000000
_cell_volume 3441.977371
_symmetry_space_group_name_H-M "C M M M"
_symmetry_group_IT_number 65
_symmetry_cell_setting 'orthorhombic'
loop_
_space_group_symop_operation_xyz
x,y,z
-x,-y,z
x,-y,-z
-x,y,-z
-x,-y,-z
x,y,-z
-x,y,z
x,-y,z
1/2+x,1/2+y,z
1/2-x,1/2-y,z
1/2+x,1/2-y,-z
1/2-x,1/2+y,-z
1/2-x,1/2-y,-z
1/2+x,1/2+y,-z
1/2-x,1/2+y,z
1/2+x,1/2-y,z
loop_
_atom_site_type_symbol
_atom_site_label
_atom_site_fract_x
_atom_site_fract_y
_atom_site_fract_z
Si Si1 0.500000 0.660906 0.588930
Si Si2 0.379852 0.150809 0.650390
Si Si3 0.257385 0.000000 0.844619
Si Si4 0.250000 0.250000 0.248480
Si Si5 0.581993 0.237935 0.000000
Si Si6 0.082609 0.500000 0.883429
Si Si7 0.316071 0.500000 0.000000
Si Si8 0.800820 0.369248 0.500000
O O1 0.500000 0.500000 0.594300
O O2 0.500000 0.691924 0.500000
O O3 0.564636 0.731284 0.633038
O O4 0.316091 0.199216 0.702689
O O5 0.347083 0.132429 0.571002
O O6 0.406440 0.000000 0.671910
O O7 0.227829 0.129039 0.803545
O O8 0.344239 0.000000 0.837767
O O9 0.233265 0.000000 0.928212
O O10 0.635807 0.363712 0.000000
O O11 0.589052 0.134729 0.067610
O O12 0.500000 0.288681 0.000000
O O13 0.000000 0.500000 0.853857
O O14 0.752368 0.500000 0.500000
O O15 0.750000 0.250000 0.500000
#
# Coordination Sequence:
#
# PCOD9489034 Si02
#       8
#     8  16   8   8   8   8   4   8
#     4  11  25  41  69 109 141 176 233 288 329 392
#     4  11  23  43  66  94 136 183 227 277 334 397
#     4  12  26  43  67  97 131 176 235 287 358 421
#     4  12  26  44  64  98 138 178 226 296 346 420
#     4   9  18  35  66 100 125 156 204 271 344 406
#     4   9  19  39  63  91 127 162 209 269 332 420
#     4  12  23  40  69  96 134 176 226 292 357 422
#     4  10  20  33  62  95 121 169 223 269 322 389
#
# _framework density 19.756087000000001
#
# number of rings (size 3 to 8) (size 9 to 14) (size 15 to 20)
#    0.000    1.294    3.529    3.353    1.647    2.824 
#    2.118    0.000    5.176    0.000    0.000    0.000 
#    0.000    0.000    0.000    0.000    0.000    0.000 
#
# Total GULP energy -189369.914366 kJ/mol
# GULP energy per Si atom -5569.703364 kJ/mol
# Density = 1.971112 g / cm^3
# Si number density = 19.756087 Si / 1000 Ang^3
#
#
#
# Elastic Constant Matrix: (Units=GPa)
#
#
# Indices 1 2 3 4 5 6 
#
# 1 89.1542 56.7152 36.9446 0.0000 0.0000 0.0000
# 2 56.7152 170.7780 45.5731 0.0000 0.0000 0.0000
# 3 36.9446 45.5731 114.6898 0.0000 0.0000 0.0000
# 4 0.0000 0.0000 0.0000 -614.8496 0.0000 0.0000
# 5 0.0000 0.0000 0.0000 0.0000 -97.4052 0.0000
# 6 0.0000 0.0000 0.0000 0.0000 0.0000 33.0010
#
#
#
# Elastic Compliance Matrix: (Units=1/GPa)
#
#
# Indices 1 2 3 4 5 6 
#
# 1 0.015225 -0.004192 -0.003239 0.000000 0.000000 0.000000
# 2 -0.004192 0.007704 -0.001711 0.000000 0.000000 0.000000
# 3 -0.003239 -0.001711 0.010442 0.000000 0.000000 0.000000
# 4 0.000000 0.000000 0.000000 -0.001626 0.000000 0.000000
# 5 0.000000 0.000000 0.000000 0.000000 -0.010266 0.000000
# 6 0.000000 0.000000 0.000000 0.000000 0.000000 0.030302
#
#
# Mechanical properties :
#
#
# Convention : Reuss Voigt Hill
#
# Bulk Modulus (GPa) = 66.27598 72.56532 69.42065
# Shear Modulus (GPa) = 66.58278 -120.15815 -26.78769
#
# Velocity S-wave (km/s) = 5.81168 -7.80723 -3.68628
# Velocity P-wave (km/s) = 8.86871 6.66784 4.13485
#
# Compressibility (1/GPa) = 0.01508842
#
# Stress axis : x y z
#
# Youngs Moduli (GPa) = 65.67979 129.79711 95.76397
#
# Poissons Ratio (x) = 0.54412 0.31015
# Poissons Ratio (y) = 0.27533 0.16385
# Poissons Ratio (z) = 0.21272 0.22209
#
# Static dielectric constant tensor:
#      x y z
#    x 1.653410 0.000000 0.000000 
#    y 0.000000 1.700720 0.000000 
#    z 0.000000 0.000000 1.676370 
# 
# From -- ./inp_files/55495.got.cif
#   From: 2010.05.17/outbox.cif.g08.bks.cpg/sg65_28_cif.got.tgz:55495.got - 2010.06.03 17:01:31.
