data_PCOD9489140
_publ_section_title
;
Structure prediction by ZEFSAII (Michael W. Deem and Ramdas Pophale) SiO2 
 PCOD9489140
Probable space group: C M M M
;
_chemical_formula_sum "Si O2"
_cell_formula_units_Z 80
_cell_length_a 9.102249
_cell_length_b 27.054321
_cell_length_c 18.179575
_cell_angle_alpha 90.000000
_cell_angle_beta 90.000000
_cell_angle_gamma 90.000000
_cell_volume 4476.814264
_symmetry_space_group_name_H-M "C M M M"
_symmetry_group_IT_number 65
_symmetry_cell_setting 'orthorhombic'
loop_
_space_group_symop_operation_xyz
x,y,z
-x,-y,z
x,-y,-z
-x,y,-z
-x,-y,-z
x,y,-z
-x,y,z
x,-y,z
1/2+x,1/2+y,z
1/2-x,1/2-y,z
1/2+x,1/2-y,-z
1/2-x,1/2+y,-z
1/2-x,1/2-y,-z
1/2+x,1/2+y,-z
1/2-x,1/2+y,z
1/2+x,1/2-y,z
loop_
_atom_site_type_symbol
_atom_site_label
_atom_site_fract_x
_atom_site_fract_y
_atom_site_fract_z
Si Si1 0.679738 0.093242 0.414843
Si Si2 0.823344 0.500000 0.149607
Si Si3 0.829855 0.699394 0.910273
Si Si4 0.168633 0.701188 0.589739
Si Si5 0.678439 0.000000 0.678793
Si Si6 0.829688 0.098233 0.088881
O O1 0.721489 0.084911 0.500000
O O2 0.500000 0.094779 0.414045
O O3 0.730633 0.147520 0.389601
O O4 0.729525 0.048921 0.363458
O O5 0.785145 0.500000 0.235909
O O6 0.755723 0.450393 0.115067
O O7 0.000000 0.500000 0.140904
O O8 0.750000 0.750000 0.886689
O O9 0.747523 0.649304 0.886528
O O10 0.000000 0.698847 0.887372
O O11 0.827652 0.699482 0.000000
O O12 0.170359 0.701233 0.500000
O O13 0.250000 0.750000 0.615550
O O14 0.000000 0.703904 0.613128
O O15 0.500000 0.000000 0.673932
O O16 0.000000 0.096757 0.112264
O O17 0.827535 0.098327 0.000000
#
# Coordination Sequence:
#
# PCOD9489140 Si02
#       6
#    16   8  16  16   8  16
#     4   8  13  23  42  67  92 118 151 190 228 269
#     4  11  22  33  47  69  96 125 158 200 252 303
#     4   9  16  27  46  74 105 131 155 189 235 284
#     4   8  13  21  36  61  90 116 142 176 219 263
#     4   9  17  28  43  65  92 121 152 190 238 285
#     4  10  20  34  52  72  94 124 163 203 241 285
#
# _framework density 17.869851000000001
#
# number of rings (size 3 to 8) (size 9 to 14) (size 15 to 20)
#    0.000    3.000    0.000    3.300    0.000    6.000 
#    0.000    0.000    0.000    3.600    0.000    2.800 
#    0.000    8.000    0.000    0.000    0.000    0.000 
#
# Total GULP energy -222835.148029 kJ/mol
# GULP energy per Si atom -5570.878701 kJ/mol
# Density = 1.782918 g / cm^3
# Si number density = 17.869851 Si / 1000 Ang^3
#
#
#
# Elastic Constant Matrix: (Units=GPa)
#
#
# Indices 1 2 3 4 5 6 
#
# 1 94.4980 81.9185 22.3766 0.0000 0.0000 0.0000
# 2 81.9185 205.8856 36.7848 0.0000 0.0000 0.0000
# 3 22.3766 36.7848 19.8621 0.0000 0.0000 0.0000
# 4 0.0000 0.0000 0.0000 -4.9429 0.0000 0.0000
# 5 0.0000 0.0000 0.0000 0.0000 6.2853 0.0000
# 6 0.0000 0.0000 0.0000 0.0000 0.0000 31.1462
#
#
#
# Elastic Compliance Matrix: (Units=1/GPa)
#
#
# Indices 1 2 3 4 5 6 
#
# 1 0.017423 -0.005119 -0.010148 0.000000 0.000000 0.000000
# 2 -0.005119 0.008763 -0.010462 0.000000 0.000000 0.000000
# 3 -0.010148 -0.010462 0.081156 0.000000 0.000000 0.000000
# 4 0.000000 0.000000 0.000000 -0.202312 0.000000 0.000000
# 5 0.000000 0.000000 0.000000 0.000000 0.159100 0.000000
# 6 0.000000 0.000000 0.000000 0.000000 0.000000 0.032107
#
#
# Mechanical properties :
#
#
# Convention : Reuss Voigt Hill
#
# Bulk Modulus (GPa) = 17.89439 66.93394 42.41416
# Shear Modulus (GPa) = 30.06208 18.44212 24.25210
#
# Velocity S-wave (km/s) = 4.10601 3.21600 3.68795
# Velocity P-wave (km/s) = 5.70215 7.16435 6.47466
#
# Compressibility (1/GPa) = 0.05588345
#
# Stress axis : x y z
#
# Youngs Moduli (GPa) = 57.39557 114.11408 12.32201
#
# Poissons Ratio (x) = 0.58418 0.12504
# Poissons Ratio (y) = 0.29382 0.12891
# Poissons Ratio (z) = 0.58244 1.19388
#
# Static dielectric constant tensor:
#      x y z
#    x 1.610250 0.000000 0.000000 
#    y 0.000000 1.620360 0.000000 
#    z 0.000000 0.000000 1.589900 
# 
# From -- ./inp_files/59692.got.cif
#   From: 2010.05.17/outbox.cif.g08.bks.cpg/sg65_30_cif.got.tgz:59692.got - 2010.06.03 17:01:31.
