data_PCOD9489752
_publ_section_title
;
Structure prediction by ZEFSAII (Michael W. Deem and Ramdas Pophale) SiO2 
 PCOD9489752
Probable space group: C M M M
;
_chemical_formula_sum "Si O2"
_cell_formula_units_Z 68
_cell_length_a 19.271532
_cell_length_b 19.621418
_cell_length_c 8.959480
_cell_angle_alpha 90.000000
_cell_angle_beta 90.000000
_cell_angle_gamma 90.000000
_cell_volume 3387.891042
_symmetry_space_group_name_H-M "C M M M"
_symmetry_group_IT_number 65
_symmetry_cell_setting 'orthorhombic'
loop_
_space_group_symop_operation_xyz
x,y,z
-x,-y,z
x,-y,-z
-x,y,-z
-x,-y,-z
x,y,-z
-x,y,z
x,-y,z
1/2+x,1/2+y,z
1/2-x,1/2-y,z
1/2+x,1/2-y,-z
1/2-x,1/2+y,-z
1/2-x,1/2-y,-z
1/2+x,1/2+y,-z
1/2-x,1/2+y,z
1/2+x,1/2-y,z
loop_
_atom_site_type_symbol
_atom_site_label
_atom_site_fract_x
_atom_site_fract_y
_atom_site_fract_z
Si Si1 0.419544 0.847175 0.322873
Si Si2 0.349603 0.423740 0.323696
Si Si3 0.713347 0.888184 0.163974
Si Si4 0.250000 0.250000 0.000000
Si Si5 0.417266 0.295647 0.833138
O O1 0.410719 0.854070 0.500000
O O2 0.500000 0.862534 0.285261
O O3 0.363134 0.889899 0.232786
O O4 0.406341 0.768901 0.272726
O O5 0.357546 0.412063 0.500000
O O6 0.375432 0.500000 0.289030
O O7 0.269631 0.418656 0.275206
O O8 0.387998 0.365036 0.232167
O O9 0.734736 0.809627 0.128721
O O10 0.716290 0.921032 0.000000
O O11 0.500000 0.302094 0.847731
O O12 0.385606 0.282016 0.000000
#
# Coordination Sequence:
#
# PCOD9489752 Si02
#       5
#    16  16  16   4  16
#     4  10  20  34  56  86 116 148 183 226 287 344
#     4  11  24  39  56  79 109 151 196 233 276 328
#     4  10  20  35  57  80 114 141 184 231 280 329
#     4   8  20  32  50  84 108 132 182 220 272 344
#     4  10  21  36  55  80 112 147 188 235 280 330
#
# _framework density 20.071483000000001
#
# number of rings (size 3 to 8) (size 9 to 14) (size 15 to 20)
#    0.706    1.176    0.000    4.235    3.294    5.176 
#    0.000    5.882    0.000    0.706    0.000    4.941 
#    0.000    0.000    0.000    0.000    0.000    0.000 
#
# Total GULP energy -189362.163986 kJ/mol
# GULP energy per Si atom -5569.475411 kJ/mol
# Density = 2.002580 g / cm^3
# Si number density = 20.071483 Si / 1000 Ang^3
#
#
#
# Elastic Constant Matrix: (Units=GPa)
#
#
# Indices 1 2 3 4 5 6 
#
# 1 24.1110 -3.0034 -5.3081 0.0000 0.0000 0.0000
# 2 -3.0034 26.1968 -3.1788 0.0000 0.0000 0.0000
# 3 -5.3081 -3.1788 45.4444 0.0000 0.0000 0.0000
# 4 0.0000 0.0000 0.0000 -5.7904 0.0000 0.0000
# 5 0.0000 0.0000 0.0000 0.0000 36.8923 0.0000
# 6 0.0000 0.0000 0.0000 0.0000 0.0000 11.8112
#
#
#
# Elastic Compliance Matrix: (Units=1/GPa)
#
#
# Indices 1 2 3 4 5 6 
#
# 1 0.043379 0.005636 0.005461 0.000000 0.000000 0.000000
# 2 0.005636 0.039232 0.003403 0.000000 0.000000 0.000000
# 3 0.005461 0.003403 0.022881 0.000000 0.000000 0.000000
# 4 0.000000 0.000000 0.000000 -0.172701 0.000000 0.000000
# 5 0.000000 0.000000 0.000000 0.000000 0.027106 0.000000
# 6 0.000000 0.000000 0.000000 0.000000 0.000000 0.084665
#
#
# Mechanical properties :
#
#
# Convention : Reuss Voigt Hill
#
# Bulk Modulus (GPa) = 7.43546 8.08573 7.76060
# Shear Modulus (GPa) = 82.79147 15.73213 49.26180
#
# Velocity S-wave (km/s) = 6.42945 2.80269 4.95948
# Velocity P-wave (km/s) = 7.67005 3.80928 6.05559
#
# Compressibility (1/GPa) = 0.13449072
#
# Stress axis : x y z
#
# Youngs Moduli (GPa) = 23.05258 25.48961 43.70477
#
# Poissons Ratio (x) = -0.14366 -0.23868
# Poissons Ratio (y) = -0.12992 -0.14871
# Poissons Ratio (z) = -0.12589 -0.08673
#
# Static dielectric constant tensor:
#      x y z
#    x 2.771760 0.000000 0.000000 
#    y 0.000000 1.734280 0.000000 
#    z 0.000000 0.000000 1.678840 
# 
# From -- ./inp_files/10941.got.cif
#   From: 2010.05.17/outbox.cif.g08.bks.cpg/sg65_6_cif.got.tgz:10941.got - 2010.06.03 17:01:31.
