data_PCOD9489706
_publ_section_title
;
Structure prediction by ZEFSAII (Michael W. Deem and Ramdas Pophale) SiO2 
 PCOD9489706
Probable space group: C M M M
;
_chemical_formula_sum "Si O2"
_cell_formula_units_Z 104
_cell_length_a 8.758068
_cell_length_b 28.938805
_cell_length_c 23.314619
_cell_angle_alpha 90.000000
_cell_angle_beta 90.000000
_cell_angle_gamma 90.000000
_cell_volume 5909.044070
_symmetry_space_group_name_H-M "C M M M"
_symmetry_group_IT_number 65
_symmetry_cell_setting 'orthorhombic'
loop_
_space_group_symop_operation_xyz
x,y,z
-x,-y,z
x,-y,-z
-x,y,-z
-x,-y,-z
x,y,-z
-x,y,z
x,-y,z
1/2+x,1/2+y,z
1/2-x,1/2-y,z
1/2+x,1/2-y,-z
1/2-x,1/2+y,-z
1/2-x,1/2-y,-z
1/2+x,1/2+y,-z
1/2-x,1/2+y,z
1/2+x,1/2-y,z
loop_
_atom_site_type_symbol
_atom_site_label
_atom_site_fract_x
_atom_site_fract_y
_atom_site_fract_z
Si Si1 0.182069 0.639373 0.666751
Si Si2 0.182139 0.553007 0.852717
Si Si3 0.819434 0.946910 0.274052
Si Si4 0.816940 0.698513 0.219157
Si Si5 0.682567 0.300478 0.566741
Si Si6 0.182775 0.301544 0.000000
Si Si7 0.317922 0.354244 0.890704
O O1 0.256508 0.590333 0.681739
O O2 0.216303 0.672896 0.720876
O O3 0.248079 0.662407 0.609799
O O4 0.000000 0.634806 0.662763
O O5 0.219276 0.500000 0.868930
O O6 0.233310 0.559020 0.786552
O O7 0.266172 0.592409 0.888467
O O8 0.000000 0.559275 0.856674
O O9 0.000000 0.939793 0.264381
O O10 0.796386 0.000000 0.292589
O O11 0.750000 0.750000 0.219571
O O12 0.743052 0.669772 0.167339
O O13 0.000000 0.699919 0.211475
O O14 0.719647 0.310098 0.500000
O O15 0.500000 0.299030 0.572693
O O16 0.750000 0.250000 0.580786
O O17 0.250000 0.250000 0.000000
O O18 0.242768 0.328168 0.055926
O O19 0.000000 0.299712 0.000000
O O20 0.500000 0.350634 0.893420
#
# Coordination Sequence:
#
# PCOD9489706 Si02
#       7
#    16  16  16  16  16   8  16
#     4  11  22  35  56  84 116 151 191 237 286 343
#     4  10  20  36  59  87 119 153 190 234 286 342
#     4  10  20  34  55  84 117 152 190 234 285 342
#     4  11  23  37  54  81 115 150 188 233 288 339
#     4  10  21  37  57  81 113 153 196 240 286 340
#     4  12  26  46  67  86 115 152 196 241 285 343
#     4  12  24  40  62  87 116 151 193 238 286 342
#
# _framework density 17.60014
#
# number of rings (size 3 to 8) (size 9 to 14) (size 15 to 20)
#    0.000    1.231    1.538    5.308    0.000    5.846 
#    0.000    0.385    0.000    2.769    0.000    3.231 
#    0.000    0.000    0.000    0.000    0.000    0.000 
#
# Total GULP energy -290752.124316 kJ/mol
# GULP energy per Si atom -5591.387006 kJ/mol
# Density = 1.756008 g / cm^3
# Si number density = 17.600140 Si / 1000 Ang^3
#
#
#
# Elastic Constant Matrix: (Units=GPa)
#
#
# Indices 1 2 3 4 5 6 
#
# 1 105.6801 66.0224 50.4024 0.0000 0.0000 0.0000
# 2 66.0224 136.0768 59.6137 0.0000 0.0000 0.0000
# 3 50.4024 59.6137 79.8640 0.0000 0.0000 0.0000
# 4 0.0000 0.0000 0.0000 32.6793 0.0000 0.0000
# 5 0.0000 0.0000 0.0000 0.0000 28.7275 0.0000
# 6 0.0000 0.0000 0.0000 0.0000 0.0000 35.5241
#
#
#
# Elastic Compliance Matrix: (Units=1/GPa)
#
#
# Indices 1 2 3 4 5 6 
#
# 1 0.015370 -0.004766 -0.006142 0.000000 0.000000 0.000000
# 2 -0.004766 0.012398 -0.006246 0.000000 0.000000 0.000000
# 3 -0.006142 -0.006246 0.021060 0.000000 0.000000 0.000000
# 4 0.000000 0.000000 0.000000 0.030600 0.000000 0.000000
# 5 0.000000 0.000000 0.000000 0.000000 0.034810 0.000000
# 6 0.000000 0.000000 0.000000 0.000000 0.000000 0.028150
#
#
# Mechanical properties :
#
#
# Convention : Reuss Voigt Hill
#
# Bulk Modulus (GPa) = 68.87872 74.85533 71.86702
# Shear Modulus (GPa) = 27.54283 29.09167 28.31725
#
# Velocity S-wave (km/s) = 3.96020 4.07003 4.01549
# Velocity P-wave (km/s) = 7.75443 8.04427 7.90068
#
# Compressibility (1/GPa) = 0.01451827
#
# Stress axis : x y z
#
# Youngs Moduli (GPa) = 65.06371 80.66016 47.48376
#
# Poissons Ratio (x) = 0.38445 0.29164
# Poissons Ratio (y) = 0.31012 0.29659
# Poissons Ratio (z) = 0.39962 0.50381
#
# Static dielectric constant tensor:
#      x y z
#    x 1.586420 0.000000 0.000000 
#    y 0.000000 1.593760 0.000000 
#    z 0.000000 0.000000 1.570650 
# 
# From -- ./inp_files/60378.got.cif
#   From: 2010.05.17/outbox.cif.g08.bks.cpg/sg65_31_cif.got.tgz:60378.got - 2010.06.03 17:01:31.
