data_PCOD9489461
_publ_section_title
;
Structure prediction by ZEFSAII (Michael W. Deem and Ramdas Pophale) SiO2 
 PCOD9489461
Probable space group: C M M M
;
_chemical_formula_sum "Si O2"
_cell_formula_units_Z 104
_cell_length_a 19.858203
_cell_length_b 32.157754
_cell_length_c 8.320493
_cell_angle_alpha 90.000000
_cell_angle_beta 90.000000
_cell_angle_gamma 90.000000
_cell_volume 5313.426949
_symmetry_space_group_name_H-M "C M M M"
_symmetry_group_IT_number 65
_symmetry_cell_setting 'orthorhombic'
loop_
_space_group_symop_operation_xyz
x,y,z
-x,-y,z
x,-y,-z
-x,y,-z
-x,-y,-z
x,y,-z
-x,y,z
x,-y,z
1/2+x,1/2+y,z
1/2-x,1/2-y,z
1/2+x,1/2-y,-z
1/2-x,1/2+y,-z
1/2-x,1/2-y,-z
1/2+x,1/2+y,-z
1/2-x,1/2+y,z
1/2+x,1/2-y,z
loop_
_atom_site_type_symbol
_atom_site_label
_atom_site_fract_x
_atom_site_fract_y
_atom_site_fract_z
Si Si1 0.650046 0.176926 0.693092
Si Si2 0.575111 0.549623 0.810562
Si Si3 0.304882 0.600222 0.685183
Si Si4 0.701287 0.689596 0.815212
Si Si5 0.655620 0.082348 0.305833
Si Si6 0.421791 0.000000 0.303166
Si Si7 0.924646 0.242920 0.306007
O O1 0.646746 0.174955 0.500000
O O2 0.724732 0.193885 0.736045
O O3 0.639934 0.129456 0.752846
O O4 0.595498 0.210497 0.748561
O O5 0.500000 0.563844 0.766403
O O6 0.577460 0.500000 0.792777
O O7 0.632146 0.570837 0.707712
O O8 0.585528 0.558688 0.000000
O O9 0.298641 0.614577 0.500000
O O10 0.313168 0.640670 0.793743
O O11 0.235164 0.577304 0.726107
O O12 0.637793 0.713969 0.743446
O O13 0.707672 0.701353 0.000000
O O14 0.646618 0.083113 0.500000
O O15 0.614025 0.042623 0.246757
O O16 0.500000 0.000000 0.258958
O O17 0.417991 0.000000 0.500000
O O18 0.926396 0.242819 0.500000
O O19 0.000000 0.231147 0.249189
#
# Coordination Sequence:
#
# PCOD9489461 Si02
#       7
#    16  16  16  16  16   8  16
#     4   9  18  35  56  78 107 142 180 223 267 316
#     4   9  19  35  52  73 105 141 176 217 267 322
#     4  10  20  34  54  77 104 139 180 226 270 315
#     4  11  22  36  55  78 106 139 178 223 273 328
#     4   8  16  29  46  73 106 137 172 213 259 305
#     4   9  16  26  44  74 112 145 168 202 257 313
#     4  10  21  36  55  79 107 141 180 222 271 326
#
# _framework density 19.573055
#
# number of rings (size 3 to 8) (size 9 to 14) (size 15 to 20)
#    0.000    2.538    0.000    3.692    1.077    4.615 
#    0.000    3.846    0.000    0.000    0.000    0.000 
#    0.000   17.231    0.000    0.000    0.000    0.000 
#
# Total GULP energy -289930.571001 kJ/mol
# GULP energy per Si atom -5575.587904 kJ/mol
# Density = 1.952851 g / cm^3
# Si number density = 19.573055 Si / 1000 Ang^3
#
#
#
# Elastic Constant Matrix: (Units=GPa)
#
#
# Indices 1 2 3 4 5 6 
#
# 1 106.7977 78.2082 12.7040 0.0000 0.0000 0.0000
# 2 78.2082 88.4226 12.0418 0.0000 0.0000 0.0000
# 3 12.7040 12.0418 9.7931 0.0000 0.0000 0.0000
# 4 0.0000 0.0000 0.0000 8.7501 0.0000 0.0000
# 5 0.0000 0.0000 0.0000 0.0000 -1.6272 0.0000
# 6 0.0000 0.0000 0.0000 0.0000 0.0000 20.8269
#
#
#
# Elastic Compliance Matrix: (Units=1/GPa)
#
#
# Indices 1 2 3 4 5 6 
#
# 1 0.026949 -0.022912 -0.006787 0.000000 0.000000 0.000000
# 2 -0.022912 0.033063 -0.010933 0.000000 0.000000 0.000000
# 3 -0.006787 -0.010933 0.124361 0.000000 0.000000 0.000000
# 4 0.000000 0.000000 0.000000 0.114285 0.000000 0.000000
# 5 0.000000 0.000000 0.000000 0.000000 -0.614564 0.000000
# 6 0.000000 0.000000 0.000000 0.000000 0.000000 0.048015
#
#
# Mechanical properties :
#
#
# Convention : Reuss Voigt Hill
#
# Bulk Modulus (GPa) = 9.69839 45.65792 27.67816
# Shear Modulus (GPa) = -32.83918 12.39392 -10.22263
#
# Velocity S-wave (km/s) = -4.10051 2.51910 -2.28783
# Velocity P-wave (km/s) = 4.17770 5.64258 2.68194
#
# Compressibility (1/GPa) = 0.10310984
#
# Stress axis : x y z
#
# Youngs Moduli (GPa) = 37.10681 30.24494 8.04111
#
# Poissons Ratio (x) = 0.69297 0.05457
# Poissons Ratio (y) = 0.85019 0.08792
# Poissons Ratio (z) = 0.25184 0.33067
#
# Static dielectric constant tensor:
#      x y z
#    x 1.675360 0.000000 0.000000 
#    y 0.000000 1.696400 0.000000 
#    z 0.000000 0.000000 1.694200 
# 
# From -- ./inp_files/12791.got.cif
#   From: 2010.05.17/outbox.cif.g08.bks.cpg/sg65_7_cif.got.tgz:12791.got - 2010.06.03 17:01:31.
