data_PCOD9489918
_publ_section_title
;
Structure prediction by ZEFSAII (Michael W. Deem and Ramdas Pophale) SiO2 
 PCOD9489918
Probable space group: C M M M
;
_chemical_formula_sum "Si O2"
_cell_formula_units_Z 58
_cell_length_a 14.833399
_cell_length_b 26.172741
_cell_length_c 8.956298
_cell_angle_alpha 90.000000
_cell_angle_beta 90.000000
_cell_angle_gamma 90.000000
_cell_volume 3477.109933
_symmetry_space_group_name_H-M "C M M M"
_symmetry_group_IT_number 65
_symmetry_cell_setting 'orthorhombic'
loop_
_space_group_symop_operation_xyz
x,y,z
-x,-y,z
x,-y,-z
-x,y,-z
-x,-y,-z
x,y,-z
-x,y,z
x,-y,z
1/2+x,1/2+y,z
1/2-x,1/2-y,z
1/2+x,1/2-y,-z
1/2-x,1/2+y,-z
1/2-x,1/2-y,-z
1/2+x,1/2+y,-z
1/2-x,1/2+y,z
1/2+x,1/2-y,z
loop_
_atom_site_type_symbol
_atom_site_label
_atom_site_fract_x
_atom_site_fract_y
_atom_site_fract_z
Si Si1 0.000000 0.000000 0.500000
Si Si2 0.000000 0.847372 0.820347
Si Si3 0.500000 0.764825 0.679410
Si Si4 0.307948 0.393586 0.178890
Si Si5 0.188171 0.000000 0.335725
Si Si6 0.696489 0.197691 0.320674
O O1 0.080995 0.000000 0.627606
O O2 0.090741 0.876596 0.774308
O O3 0.000000 0.790963 0.752277
O O4 0.000000 0.843517 0.000000
O O5 0.500000 0.757988 0.500000
O O6 0.591996 0.793789 0.719365
O O7 0.288419 0.448694 0.247945
O O8 0.241633 0.349988 0.239634
O O9 0.304822 0.395515 0.000000
O O10 0.232493 0.000000 0.500000
O O11 0.703567 0.190728 0.500000
O O12 0.750000 0.250000 0.283474
#
# Coordination Sequence:
#
# PCOD9489918 Si02
#       6
#     2   8   8  16   8  16
#     4   8  20  36  58  84 108 150 186 232 264 330
#     4  10  21  32  49  78 113 150 180 222 276 329
#     4  10  20  35  54  79 113 146 185 233 276 322
#     4  11  22  36  55  80 114 150 186 228 276 331
#     4  10  21  37  55  80 108 145 188 226 271 323
#     4  10  20  35  55  82 109 146 189 230 276 330
#
# _framework density 16.680519
#
# number of rings (size 3 to 8) (size 9 to 14) (size 15 to 20)
#    0.414    1.379    2.759    2.069    0.000    2.759 
#    0.000    2.759    0.000    0.828    0.000    5.793 
#    0.000    0.000    0.000    0.000    0.000    0.000 
#
# Total GULP energy -161560.529199 kJ/mol
# GULP energy per Si atom -5571.052731 kJ/mol
# Density = 1.664255 g / cm^3
# Si number density = 16.680519 Si / 1000 Ang^3
#
#
#
# Elastic Constant Matrix: (Units=GPa)
#
#
# Indices 1 2 3 4 5 6 
#
# 1 115.1363 72.1461 40.8760 0.0000 0.0000 0.0000
# 2 72.1461 172.7288 66.8936 0.0000 0.0000 0.0000
# 3 40.8760 66.8936 48.6626 0.0000 0.0000 0.0000
# 4 0.0000 0.0000 0.0000 38.6611 0.0000 0.0000
# 5 0.0000 0.0000 0.0000 0.0000 21.4165 0.0000
# 6 0.0000 0.0000 0.0000 0.0000 0.0000 10.0296
#
#
#
# Elastic Compliance Matrix: (Units=1/GPa)
#
#
# Indices 1 2 3 4 5 6 
#
# 1 0.012878 -0.002544 -0.007321 0.000000 0.000000 0.000000
# 2 -0.002544 0.012883 -0.015572 0.000000 0.000000 0.000000
# 3 -0.007321 -0.015572 0.048105 0.000000 0.000000 0.000000
# 4 0.000000 0.000000 0.000000 0.025866 0.000000 0.000000
# 5 0.000000 0.000000 0.000000 0.000000 0.046693 0.000000
# 6 0.000000 0.000000 0.000000 0.000000 0.000000 0.099705
#
#
# Mechanical properties :
#
#
# Convention : Reuss Voigt Hill
#
# Bulk Modulus (GPa) = 43.49233 77.37324 60.43278
# Shear Modulus (GPa) = 16.41130 24.46224 20.43677
#
# Velocity S-wave (km/s) = 3.14006 3.83367 3.50407
# Velocity P-wave (km/s) = 6.26713 8.12909 7.25807
#
# Compressibility (1/GPa) = 0.02299256
#
# Stress axis : x y z
#
# Youngs Moduli (GPa) = 77.64891 77.62326 20.78784
#
# Poissons Ratio (x) = 0.19748 0.15218
# Poissons Ratio (y) = 0.19754 0.32371
# Poissons Ratio (z) = 0.56844 1.20876
#
# Static dielectric constant tensor:
#      x y z
#    x 1.558430 0.000000 0.000000 
#    y 0.000000 1.527480 0.000000 
#    z 0.000000 0.000000 1.565020 
# 
# From -- ./inp_files/6627.got.cif
#   From: 2010.05.17/outbox.cif.g08.bks.cpg/sg65_4_cif.got.tgz:6627.got - 2010.06.03 17:01:31.
