data_PCOD9489049
_publ_section_title
;
Structure prediction by ZEFSAII (Michael W. Deem and Ramdas Pophale) SiO2 
 PCOD9489049
Probable space group: C M M M
;
_chemical_formula_sum "Si O2"
_cell_formula_units_Z 88
_cell_length_a 27.352083
_cell_length_b 18.387144
_cell_length_c 9.365351
_cell_angle_alpha 90.000000
_cell_angle_beta 90.000000
_cell_angle_gamma 90.000000
_cell_volume 4710.084968
_symmetry_space_group_name_H-M "C M M M"
_symmetry_group_IT_number 65
_symmetry_cell_setting 'orthorhombic'
loop_
_space_group_symop_operation_xyz
x,y,z
-x,-y,z
x,-y,-z
-x,y,-z
-x,-y,-z
x,y,-z
-x,y,z
x,-y,z
1/2+x,1/2+y,z
1/2-x,1/2-y,z
1/2+x,1/2-y,-z
1/2-x,1/2+y,-z
1/2-x,1/2-y,-z
1/2+x,1/2+y,-z
1/2-x,1/2+y,z
1/2+x,1/2-y,z
loop_
_atom_site_type_symbol
_atom_site_label
_atom_site_fract_x
_atom_site_fract_y
_atom_site_fract_z
Si Si1 0.251695 0.580918 0.170523
Si Si2 0.099877 0.221755 0.332278
Si Si3 0.940093 0.500000 0.665943
Si Si4 0.941579 0.643606 0.163054
Si Si5 0.134449 0.085448 0.171216
Si Si6 0.797188 0.698581 0.657552
O O1 0.240813 0.500000 0.223030
O O2 0.308217 0.597647 0.210824
O O3 0.212821 0.637375 0.227699
O O4 0.251259 0.580800 0.000000
O O5 0.086464 0.217500 0.500000
O O6 0.069142 0.281799 0.246500
O O7 0.102024 0.143029 0.257462
O O8 0.154686 0.254285 0.322401
O O9 0.924967 0.500000 0.500000
O O10 0.923667 0.426895 0.748239
O O11 0.000000 0.500000 0.666413
O O12 0.000000 0.635566 0.154251
O O13 0.922337 0.645136 0.000000
O O14 0.123817 0.000000 0.198786
O O15 0.129840 0.097124 0.000000
O O16 0.799659 0.664649 0.500000
O O17 0.750000 0.750000 0.662169
#
# Coordination Sequence:
#
# PCOD9489049 Si02
#       6
#    16  16   8  16  16  16
#     4   9  18  32  50  72  98 134 180 223 261 305
#     4  11  22  35  54  80 109 142 180 222 270 321
#     4   9  17  33  59  87 113 141 175 217 265 317
#     4  10  21  38  60  84 110 141 179 222 267 318
#     4   9  18  33  53  77 105 138 179 224 268 319
#     4  10  20  34  49  72 106 141 176 215 260 311
#
# _framework density 18.683313999999999
#
# number of rings (size 3 to 8) (size 9 to 14) (size 15 to 20)
#    0.000    2.273    1.818    2.455    0.000    4.727 
#    1.636    1.818    0.000    0.545    0.000    3.818 
#    0.000    0.000    0.000    0.000    0.000    0.000 
#
# Total GULP energy -245355.604018 kJ/mol
# GULP energy per Si atom -5576.263728 kJ/mol
# Density = 1.864079 g / cm^3
# Si number density = 18.683314 Si / 1000 Ang^3
#
#
#
# Elastic Constant Matrix: (Units=GPa)
#
#
# Indices 1 2 3 4 5 6 
#
# 1 7.4177 1.7315 12.9404 0.0000 0.0000 0.0000
# 2 1.7315 118.7402 78.6180 0.0000 0.0000 0.0000
# 3 12.9404 78.6180 109.6416 0.0000 0.0000 0.0000
# 4 0.0000 0.0000 0.0000 49.3413 0.0000 0.0000
# 5 0.0000 0.0000 0.0000 0.0000 21.3413 0.0000
# 6 0.0000 0.0000 0.0000 0.0000 0.0000 25.2906
#
#
#
# Elastic Compliance Matrix: (Units=1/GPa)
#
#
# Indices 1 2 3 4 5 6 
#
# 1 0.200920 0.024314 -0.041148 0.000000 0.000000 0.000000
# 2 0.024314 0.018976 -0.016477 0.000000 0.000000 0.000000
# 3 -0.041148 -0.016477 0.025791 0.000000 0.000000 0.000000
# 4 0.000000 0.000000 0.000000 0.020267 0.000000 0.000000
# 5 0.000000 0.000000 0.000000 0.000000 0.046857 0.000000
# 6 0.000000 0.000000 0.000000 0.000000 0.000000 0.039540
#
#
# Mechanical properties :
#
#
# Convention : Reuss Voigt Hill
#
# Bulk Modulus (GPa) = 5.58450 46.93104 26.25777
# Shear Modulus (GPa) = 10.44580 28.69527 19.57054
#
# Velocity S-wave (km/s) = 2.36709 3.92328 3.24000
# Velocity P-wave (km/s) = 3.23517 6.75992 5.29919
#
# Compressibility (1/GPa) = 0.17906707
#
# Stress axis : x y z
#
# Youngs Moduli (GPa) = 4.97712 52.69727 38.77254
#
# Poissons Ratio (x) = -1.28128 1.59540
# Poissons Ratio (y) = -0.12101 0.63884
# Poissons Ratio (z) = 0.20480 0.86827
#
# Static dielectric constant tensor:
#      x y z
#    x 1.654370 0.000000 0.000000 
#    y 0.000000 1.642530 0.000000 
#    z 0.000000 0.000000 1.654200 
# 
# From -- ./inp_files/18295.got.cif
#   From: 2010.05.17/outbox.cif.g08.bks.cpg/sg65_10_cif.got.tgz:18295.got - 2010.06.03 17:01:31.
