data_PCOD9489057
_publ_section_title
;
Structure prediction by ZEFSAII (Michael W. Deem and Ramdas Pophale) SiO2 
 PCOD9489057
Probable space group: C M M M
;
_chemical_formula_sum "Si O2"
_cell_formula_units_Z 88
_cell_length_a 7.871597
_cell_length_b 27.739715
_cell_length_c 23.538659
_cell_angle_alpha 90.000000
_cell_angle_beta 90.000000
_cell_angle_gamma 90.000000
_cell_volume 5139.804067
_symmetry_space_group_name_H-M "C M M M"
_symmetry_group_IT_number 65
_symmetry_cell_setting 'orthorhombic'
loop_
_space_group_symop_operation_xyz
x,y,z
-x,-y,z
x,-y,-z
-x,y,-z
-x,-y,-z
x,y,-z
-x,y,z
x,-y,z
1/2+x,1/2+y,z
1/2-x,1/2-y,z
1/2+x,1/2-y,-z
1/2-x,1/2+y,-z
1/2-x,1/2-y,-z
1/2+x,1/2+y,-z
1/2-x,1/2+y,z
1/2+x,1/2-y,z
loop_
_atom_site_type_symbol
_atom_site_label
_atom_site_fract_x
_atom_site_fract_y
_atom_site_fract_z
Si Si1 0.794105 0.403544 0.771487
Si Si2 0.794849 0.845756 0.937372
Si Si3 0.000000 0.941342 0.565108
Si Si4 0.197413 0.558167 0.647867
Si Si5 0.299787 0.803118 0.819549
Si Si6 0.797809 0.052710 0.110420
O O1 0.747687 0.421179 0.708982
O O2 0.730083 0.349502 0.785694
O O3 0.730587 0.437020 0.822813
O O4 0.000000 0.404669 0.774054
O O5 0.745600 0.811578 0.885520
O O6 0.731590 0.899865 0.921932
O O7 0.000000 0.847332 0.938093
O O8 0.735337 0.831319 0.000000
O O9 0.169012 0.926829 0.599636
O O10 0.000000 0.924683 0.500000
O O11 0.000000 0.000000 0.564105
O O12 0.201277 0.500000 0.651640
O O13 0.000000 0.571965 0.636806
O O14 0.500000 0.806284 0.814571
O O15 0.250000 0.750000 0.800413
O O16 0.000000 0.051515 0.099920
O O17 0.727993 0.000000 0.094988
#
# Coordination Sequence:
#
# PCOD9489057 Si02
#       6
#    16  16   8  16  16  16
#     4   9  18  31  46  65  90 119 149 188 230 279
#     4   9  18  32  47  63  85 114 150 186 224 276
#     4   9  18  30  44  68 102 138 173 201 225 261
#     4   9  17  29  46  69  98 133 167 198 232 271
#     4  10  20  34  50  67  88 113 142 185 240 287
#     4   9  17  27  42  65  89 115 147 184 229 273
#
# _framework density 17.121274
#
# number of rings (size 3 to 8) (size 9 to 14) (size 15 to 20)
#    0.000    2.818    0.000    1.091    1.273    3.273 
#    0.000    3.636    0.000    0.000    0.000    5.091 
#    0.000    0.727    0.364    0.000    0.000    0.000 
#
# Total GULP energy -245217.388708 kJ/mol
# GULP energy per Si atom -5573.122471 kJ/mol
# Density = 1.708231 g / cm^3
# Si number density = 17.121274 Si / 1000 Ang^3
#
#
#
# Elastic Constant Matrix: (Units=GPa)
#
#
# Indices 1 2 3 4 5 6 
#
# 1 36.9216 3.8729 19.2372 0.0000 0.0000 0.0000
# 2 3.8729 46.3056 -9.9853 0.0000 0.0000 0.0000
# 3 19.2372 -9.9853 62.0544 0.0000 0.0000 0.0000
# 4 0.0000 0.0000 0.0000 8.4388 0.0000 0.0000
# 5 0.0000 0.0000 0.0000 0.0000 -8.3792 0.0000
# 6 0.0000 0.0000 0.0000 0.0000 0.0000 11.2225
#
#
#
# Elastic Compliance Matrix: (Units=1/GPa)
#
#
# Indices 1 2 3 4 5 6 
#
# 1 0.033477 -0.005219 -0.011218 0.000000 0.000000 0.000000
# 2 -0.005219 0.023186 0.005349 0.000000 0.000000 0.000000
# 3 -0.011218 0.005349 0.020453 0.000000 0.000000 0.000000
# 4 0.000000 0.000000 0.000000 0.118500 0.000000 0.000000
# 5 0.000000 0.000000 0.000000 0.000000 -0.119344 0.000000
# 6 0.000000 0.000000 0.000000 0.000000 0.000000 0.089107
#
#
# Mechanical properties :
#
#
# Convention : Reuss Voigt Hill
#
# Bulk Modulus (GPa) = 18.20184 19.05902 18.63043
# Shear Modulus (GPa) = 24.28755 11.06689 17.67722
#
# Velocity S-wave (km/s) = 3.77046 2.54516 3.21669
# Velocity P-wave (km/s) = 5.44145 4.44894 4.97003
#
# Compressibility (1/GPa) = 0.05493951
#
# Stress axis : x y z
#
# Youngs Moduli (GPa) = 29.87161 43.13034 48.89234
#
# Poissons Ratio (x) = 0.22509 0.54846
# Poissons Ratio (y) = 0.15590 -0.26151
# Poissons Ratio (z) = 0.33509 -0.23069
#
# Static dielectric constant tensor:
#      x y z
#    x 1.612860 0.000000 0.000000 
#    y 0.000000 1.614210 0.000000 
#    z 0.000000 0.000000 1.563440 
# 
# From -- ./inp_files/60266.got.cif
#   From: 2010.05.17/outbox.cif.g08.bks.cpg/sg65_31_cif.got.tgz:60266.got - 2010.06.03 17:01:31.
