data_PCOD9489554
_publ_section_title
;
Structure prediction by ZEFSAII (Michael W. Deem and Ramdas Pophale) SiO2 
 PCOD9489554
Probable space group: C M M M
;
_chemical_formula_sum "Si O2"
_cell_formula_units_Z 88
_cell_length_a 9.024531
_cell_length_b 19.632083
_cell_length_c 28.277680
_cell_angle_alpha 90.000000
_cell_angle_beta 90.000000
_cell_angle_gamma 90.000000
_cell_volume 5009.966226
_symmetry_space_group_name_H-M "C M M M"
_symmetry_group_IT_number 65
_symmetry_cell_setting 'orthorhombic'
loop_
_space_group_symop_operation_xyz
x,y,z
-x,-y,z
x,-y,-z
-x,y,-z
-x,-y,-z
x,y,-z
-x,y,z
x,-y,z
1/2+x,1/2+y,z
1/2-x,1/2-y,z
1/2+x,1/2-y,-z
1/2-x,1/2+y,-z
1/2-x,1/2-y,-z
1/2+x,1/2+y,-z
1/2-x,1/2+y,z
1/2+x,1/2-y,z
loop_
_atom_site_type_symbol
_atom_site_label
_atom_site_fract_x
_atom_site_fract_y
_atom_site_fract_z
Si Si1 0.676463 0.177118 0.325820
Si Si2 0.329284 0.082808 0.500000
Si Si3 0.321230 0.579219 0.139091
Si Si4 0.176354 0.322952 0.214706
Si Si5 0.821941 0.822073 0.945585
Si Si6 0.675605 0.418621 0.597858
O O1 0.500000 0.180629 0.332787
O O2 0.750000 0.250000 0.336522
O O3 0.704356 0.162864 0.270255
O O4 0.747093 0.120838 0.359541
O O5 0.500000 0.105268 0.500000
O O6 0.246258 0.103687 0.452143
O O7 0.328551 0.000000 0.500000
O O8 0.500000 0.583073 0.143962
O O9 0.279394 0.500000 0.137633
O O10 0.246129 0.619282 0.182012
O O11 0.280322 0.618993 0.090971
O O12 0.250000 0.250000 0.203365
O O13 0.000000 0.318463 0.207521
O O14 0.750000 0.750000 0.931940
O O15 0.000000 0.814886 0.944209
O O16 0.779176 0.836966 0.000000
O O17 0.500000 0.405970 0.597676
O O18 0.698692 0.500000 0.602537
#
# Coordination Sequence:
#
# PCOD9489554 Si02
#       6
#    16   8  16  16  16  16
#     4  10  21  37  56  78 105 137 174 216 264 316
#     4   9  17  31  52  77 106 141 180 219 259 307
#     4  10  21  35  52  77 108 140 174 215 263 312
#     4  10  21  37  57  78 102 136 176 217 261 313
#     4   9  18  33  53  76 102 135 176 218 259 308
#     4  10  20  34  54  80 109 141 177 217 261 310
#
# _framework density 17.564988
#
# number of rings (size 3 to 8) (size 9 to 14) (size 15 to 20)
#    0.000    2.273    0.000    2.455    0.000    8.000 
#    0.000    5.909    0.000    0.000    0.000    3.818 
#    0.000    0.000    0.000    0.000    0.000    0.000 
#
# Total GULP energy -245614.026291 kJ/mol
# GULP energy per Si atom -5582.136961 kJ/mol
# Density = 1.752501 g / cm^3
# Si number density = 17.564988 Si / 1000 Ang^3
#
#
#
# Elastic Constant Matrix: (Units=GPa)
#
#
# Indices 1 2 3 4 5 6 
#
# 1 75.1577 70.3158 72.4001 0.0000 0.0000 0.0000
# 2 70.3158 128.4796 100.4588 0.0000 0.0000 0.0000
# 3 72.4001 100.4588 118.9810 0.0000 0.0000 0.0000
# 4 0.0000 0.0000 0.0000 30.7322 0.0000 0.0000
# 5 0.0000 0.0000 0.0000 0.0000 31.8530 0.0000
# 6 0.0000 0.0000 0.0000 0.0000 0.0000 31.0353
#
#
#
# Elastic Compliance Matrix: (Units=1/GPa)
#
#
# Indices 1 2 3 4 5 6 
#
# 1 0.034283 -0.007213 -0.014771 0.000000 0.000000 0.000000
# 2 -0.007213 0.024422 -0.016231 0.000000 0.000000 0.000000
# 3 -0.014771 -0.016231 0.031097 0.000000 0.000000 0.000000
# 4 0.000000 0.000000 0.000000 0.032539 0.000000 0.000000
# 5 0.000000 0.000000 0.000000 0.000000 0.031394 0.000000
# 6 0.000000 0.000000 0.000000 0.000000 0.000000 0.032221
#
#
# Mechanical properties :
#
#
# Convention : Reuss Voigt Hill
#
# Bulk Modulus (GPa) = 74.78394 89.88530 82.33462
# Shear Modulus (GPa) = 18.73753 24.02034 21.37894
#
# Velocity S-wave (km/s) = 3.26966 3.70200 3.49253
# Velocity P-wave (km/s) = 7.54468 8.34009 7.95234
#
# Compressibility (1/GPa) = 0.01337186
#
# Stress axis : x y z
#
# Youngs Moduli (GPa) = 29.16911 40.94623 32.15757
#
# Poissons Ratio (x) = 0.29537 0.47499
# Poissons Ratio (y) = 0.21041 0.52195
# Poissons Ratio (z) = 0.43085 0.66460
#
# Static dielectric constant tensor:
#      x y z
#    x 1.585340 0.000000 0.000000 
#    y 0.000000 1.565930 0.000000 
#    z 0.000000 0.000000 1.591410 
# 
# From -- ./inp_files/70963.got.cif
#   From: 2010.05.17/outbox.cif.g08.bks.cpg/sg65_36_cif.got.tgz:70963.got - 2010.06.03 17:01:31.
