data_PCOD9489800
_publ_section_title
;
Structure prediction by ZEFSAII (Michael W. Deem and Ramdas Pophale) SiO2 
 PCOD9489800
Probable space group: C M M M
;
_chemical_formula_sum "Si O2"
_cell_formula_units_Z 88
_cell_length_a 18.978757
_cell_length_b 15.683222
_cell_length_c 15.656581
_cell_angle_alpha 90.000000
_cell_angle_beta 90.000000
_cell_angle_gamma 90.000000
_cell_volume 4660.150950
_symmetry_space_group_name_H-M "C M M M"
_symmetry_group_IT_number 65
_symmetry_cell_setting 'orthorhombic'
loop_
_space_group_symop_operation_xyz
x,y,z
-x,-y,z
x,-y,-z
-x,y,-z
-x,-y,-z
x,y,-z
-x,y,z
x,-y,z
1/2+x,1/2+y,z
1/2-x,1/2-y,z
1/2+x,1/2-y,-z
1/2-x,1/2+y,-z
1/2-x,1/2-y,-z
1/2+x,1/2+y,-z
1/2-x,1/2+y,z
1/2+x,1/2-y,z
loop_
_atom_site_type_symbol
_atom_site_label
_atom_site_fract_x
_atom_site_fract_y
_atom_site_fract_z
Si Si1 0.080458 0.248001 0.166498
Si Si2 0.581082 0.500000 0.398167
Si Si3 0.678845 0.097102 0.778012
Si Si4 0.420008 0.316433 0.359737
Si Si5 0.290443 0.340760 0.093580
Si Si6 0.810957 0.679578 0.405807
O O1 0.122482 0.336882 0.180930
O O2 0.078725 0.205572 0.260067
O O3 0.129027 0.185551 0.110643
O O4 0.000000 0.259670 0.136929
O O5 0.500000 0.500000 0.363586
O O6 0.578270 0.500000 0.500000
O O7 0.614128 0.590287 0.371929
O O8 0.751879 0.109763 0.830054
O O9 0.688502 0.121401 0.678280
O O10 0.655274 0.000000 0.785838
O O11 0.500000 0.321986 0.392332
O O12 0.380296 0.238631 0.403309
O O13 0.250000 0.250000 0.092297
O O14 0.281839 0.381071 0.000000
O O15 0.803741 0.638935 0.500000
O O16 0.750000 0.750000 0.395205
#
# Coordination Sequence:
#
# PCOD9489800 Si02
#       6
#    16   8  16  16  16  16
#     4   9  18  34  55  81 111 142 179 223 273 325
#     4   9  16  26  44  72  99 125 168 216 255 302
#     4  10  20  35  56  80 110 148 188 230 272 326
#     4   9  17  31  51  73 103 142 179 217 265 320
#     4   9  18  35  58  80 104 140 183 221 266 329
#     4  10  20  35  51  72 107 146 186 231 278 323
#
# _framework density 18.883507999999999
#
# number of rings (size 3 to 8) (size 9 to 14) (size 15 to 20)
#    0.000    2.636    0.000    3.273    0.000    2.545 
#    6.545    0.000    0.000    0.000    0.000   11.455 
#    0.000    0.000    0.000    0.000    0.000    0.000 
#
# Total GULP energy -245136.011148 kJ/mol
# GULP energy per Si atom -5571.272981 kJ/mol
# Density = 1.884053 g / cm^3
# Si number density = 18.883508 Si / 1000 Ang^3
#
#
#
# Elastic Constant Matrix: (Units=GPa)
#
#
# Indices 1 2 3 4 5 6 
#
# 1 92.0102 16.3594 25.6440 0.0000 0.0000 0.0000
# 2 16.3594 86.6065 32.7579 0.0000 0.0000 0.0000
# 3 25.6440 32.7579 84.2158 0.0000 0.0000 0.0000
# 4 0.0000 0.0000 0.0000 -0.5399 0.0000 0.0000
# 5 0.0000 0.0000 0.0000 0.0000 2.9862 0.0000
# 6 0.0000 0.0000 0.0000 0.0000 0.0000 8.5180
#
#
#
# Elastic Compliance Matrix: (Units=1/GPa)
#
#
# Indices 1 2 3 4 5 6 
#
# 1 0.011955 -0.001033 -0.003238 0.000000 0.000000 0.000000
# 2 -0.001033 0.013628 -0.004986 0.000000 0.000000 0.000000
# 3 -0.003238 -0.004986 0.014800 0.000000 0.000000 0.000000
# 4 0.000000 0.000000 0.000000 -1.852100 0.000000 0.000000
# 5 0.000000 0.000000 0.000000 0.000000 0.334869 0.000000
# 6 0.000000 0.000000 0.000000 0.000000 0.000000 0.117398
#
#
# Mechanical properties :
#
#
# Convention : Reuss Voigt Hill
#
# Bulk Modulus (GPa) = 45.73198 45.81724 45.77461
# Shear Modulus (GPa) = -3.74912 14.73094 5.49091
#
# Velocity S-wave (km/s) = -1.41057 2.79605 1.70707
# Velocity P-wave (km/s) = 4.64947 5.89403 5.30835
#
# Compressibility (1/GPa) = 0.02186653
#
# Stress axis : x y z
#
# Youngs Moduli (GPa) = 83.64970 73.38031 67.56837
#
# Poissons Ratio (x) = 0.07582 0.21881
# Poissons Ratio (y) = 0.08644 0.33691
# Poissons Ratio (z) = 0.27088 0.36589
#
# Static dielectric constant tensor:
#      x y z
#    x 1.719760 0.000000 0.000000 
#    y 0.000000 1.641270 0.000000 
#    z 0.000000 0.000000 1.672390 
# 
# From -- ./inp_files/54346.got.cif
#   From: 2010.05.17/outbox.cif.g08.bks.cpg/sg65_28_cif.got.tgz:54346.got - 2010.06.03 17:01:31.
