data_PCOD9489745
_publ_section_title
;
Structure prediction by ZEFSAII (Michael W. Deem and Ramdas Pophale) SiO2 
 PCOD9489745
Probable space group: C M M M
;
_chemical_formula_sum "Si O2"
_cell_formula_units_Z 112
_cell_length_a 28.507957
_cell_length_b 14.878248
_cell_length_c 14.158074
_cell_angle_alpha 90.000000
_cell_angle_beta 90.000000
_cell_angle_gamma 90.000000
_cell_volume 6005.125202
_symmetry_space_group_name_H-M "C M M M"
_symmetry_group_IT_number 65
_symmetry_cell_setting 'orthorhombic'
loop_
_space_group_symop_operation_xyz
x,y,z
-x,-y,z
x,-y,-z
-x,y,-z
-x,-y,-z
x,y,-z
-x,y,z
x,-y,z
1/2+x,1/2+y,z
1/2-x,1/2-y,z
1/2+x,1/2-y,-z
1/2-x,1/2+y,-z
1/2-x,1/2-y,-z
1/2+x,1/2+y,-z
1/2-x,1/2+y,z
1/2+x,1/2-y,z
loop_
_atom_site_type_symbol
_atom_site_label
_atom_site_fract_x
_atom_site_fract_y
_atom_site_fract_z
Si Si1 0.944052 0.272396 0.762716
Si Si2 0.056982 0.102392 0.891545
Si Si3 0.188072 0.100322 0.387898
Si Si4 0.219692 0.658555 0.895331
Si Si5 0.868701 0.728922 0.386245
Si Si6 0.213556 0.397386 0.312024
Si Si7 0.615188 0.104540 0.107392
O O1 0.929859 0.180716 0.818782
O O2 0.919193 0.279193 0.661505
O O3 0.922789 0.353763 0.823820
O O4 0.000000 0.275451 0.757236
O O5 0.000000 0.101358 0.892639
O O6 0.072123 0.000000 0.867887
O O7 0.072046 0.122297 0.000000
O O8 0.183195 0.093485 0.500000
O O9 0.150723 0.173160 0.357173
O O10 0.240356 0.134471 0.367003
O O11 0.183038 0.000000 0.346905
O O12 0.250000 0.750000 0.890756
O O13 0.228456 0.607340 0.797893
O O14 0.162857 0.663729 0.891008
O O15 0.229574 0.618264 0.000000
O O16 0.868570 0.719544 0.500000
O O17 0.831710 0.660153 0.339270
O O18 0.204326 0.500000 0.338859
O O19 0.627249 0.000000 0.130317
O O20 0.597552 0.106066 0.000000
#
# Coordination Sequence:
#
# PCOD9489745 Si02
#       7
#    16  16  16  16  16  16  16
#     4  11  23  37  57  83 112 151 199 248 297 347
#     4   8  15  31  56  83 108 135 174 230 293 350
#     4   9  19  36  59  87 113 138 177 234 292 345
#     4  10  20  34  56  85 118 154 186 219 269 341
#     4  11  23  38  57  80 112 151 193 242 296 350
#     4  11  21  35  59  87 115 150 189 228 278 343
#     4  10  21  38  60  86 118 155 194 236 282 336
#
# _framework density 18.650735000000001
#
# number of rings (size 3 to 8) (size 9 to 14) (size 15 to 20)
#    0.000    2.000    1.429    3.000    0.000    4.857 
#    0.000    0.714    0.000    0.000    0.000    6.000 
#    0.000    0.000    0.000    0.000    0.000    0.000 
#
# Total GULP energy -312031.997282 kJ/mol
# GULP energy per Si atom -5571.999951 kJ/mol
# Density = 1.860829 g / cm^3
# Si number density = 18.650735 Si / 1000 Ang^3
#
#
#
# Elastic Constant Matrix: (Units=GPa)
#
#
# Indices 1 2 3 4 5 6 
#
# 1 91.2423 49.3061 35.2990 0.0000 0.0000 0.0000
# 2 49.3061 68.1154 46.2191 0.0000 0.0000 0.0000
# 3 35.2990 46.2191 64.9981 0.0000 0.0000 0.0000
# 4 0.0000 0.0000 0.0000 17.1856 0.0000 0.0000
# 5 0.0000 0.0000 0.0000 0.0000 26.4653 0.0000
# 6 0.0000 0.0000 0.0000 0.0000 0.0000 -126.2762
#
#
#
# Elastic Compliance Matrix: (Units=1/GPa)
#
#
# Indices 1 2 3 4 5 6 
#
# 1 0.018034 -0.012384 -0.000988 0.000000 0.000000 0.000000
# 2 -0.012384 0.036873 -0.019494 0.000000 0.000000 0.000000
# 3 -0.000988 -0.019494 0.029784 0.000000 0.000000 0.000000
# 4 0.000000 0.000000 0.000000 0.058188 0.000000 0.000000
# 5 0.000000 0.000000 0.000000 0.000000 0.037785 0.000000
# 6 0.000000 0.000000 0.000000 0.000000 0.000000 -0.007919
#
#
# Mechanical properties :
#
#
# Convention : Reuss Voigt Hill
#
# Bulk Modulus (GPa) = 52.74697 54.00045 53.37371
# Shear Modulus (GPa) = 20.42515 -10.28960 5.06777
#
# Velocity S-wave (km/s) = 3.31288 -2.35138 1.65018
# Velocity P-wave (km/s) = 6.55564 4.65236 5.68422
#
# Compressibility (1/GPa) = 0.01895843
#
# Stress axis : x y z
#
# Youngs Moduli (GPa) = 55.45065 27.12032 33.57548
#
# Poissons Ratio (x) = 0.33585 0.03317
# Poissons Ratio (y) = 0.68669 0.65453
# Poissons Ratio (z) = 0.05479 0.52869
#
# Static dielectric constant tensor:
#      x y z
#    x 1.624270 0.000000 0.000000 
#    y 0.000000 1.701490 0.000000 
#    z 0.000000 0.000000 1.672830 
# 
# From -- ./inp_files/45747.got.cif
#   From: 2010.05.17/outbox.cif.g08.bks.cpg/sg65_23_cif.got.tgz:45747.got - 2010.06.03 17:01:31.
