data_PCOD9489152
_publ_section_title
;
Structure prediction by ZEFSAII (Michael W. Deem and Ramdas Pophale) SiO2 
 PCOD9489152
Probable space group: C M M M
;
_chemical_formula_sum "Si O2"
_cell_formula_units_Z 88
_cell_length_a 9.127539
_cell_length_b 30.917698
_cell_length_c 17.846563
_cell_angle_alpha 90.000000
_cell_angle_beta 90.000000
_cell_angle_gamma 90.000000
_cell_volume 5036.344593
_symmetry_space_group_name_H-M "C M M M"
_symmetry_group_IT_number 65
_symmetry_cell_setting 'orthorhombic'
loop_
_space_group_symop_operation_xyz
x,y,z
-x,-y,z
x,-y,-z
-x,y,-z
-x,-y,-z
x,y,-z
-x,y,z
x,-y,z
1/2+x,1/2+y,z
1/2-x,1/2-y,z
1/2+x,1/2-y,-z
1/2-x,1/2+y,-z
1/2-x,1/2-y,-z
1/2+x,1/2+y,-z
1/2-x,1/2+y,z
1/2+x,1/2-y,z
loop_
_atom_site_type_symbol
_atom_site_label
_atom_site_fract_x
_atom_site_fract_y
_atom_site_fract_z
Si Si1 0.326533 0.321561 0.415547
Si Si2 0.175129 0.386677 0.797931
Si Si3 0.674559 0.450776 0.910601
Si Si4 0.827686 0.083900 0.645921
Si Si5 0.664449 0.000000 0.411269
Si Si6 0.174686 0.293485 0.262087
O O1 0.280785 0.309032 0.500000
O O2 0.500000 0.311345 0.406999
O O3 0.311380 0.373397 0.405345
O O4 0.237736 0.301937 0.345985
O O5 0.241006 0.413246 0.867058
O O6 0.248760 0.406491 0.724051
O O7 0.207916 0.335394 0.789327
O O8 0.000000 0.391513 0.795984
O O9 0.500000 0.446834 0.896630
O O10 0.718053 0.500000 0.887490
O O11 0.697056 0.447638 0.000000
O O12 0.000000 0.076842 0.657678
O O13 0.752225 0.042340 0.611756
O O14 0.500000 0.000000 0.378520
O O15 0.652500 0.000000 0.500000
O O16 0.250000 0.250000 0.233398
O O17 0.000000 0.288723 0.266490
#
# Coordination Sequence:
#
# PCOD9489152 Si02
#       6
#    16  16  16  16   8  16
#     4   9  18  33  52  73  98 130 172 222 273 324
#     4  10  21  36  55  81 111 141 175 219 269 317
#     4   9  19  36  58  85 116 148 181 214 252 306
#     4  10  20  34  52  72  97 135 180 222 264 316
#     4  11  23  35  47  67  98 135 176 225 275 317
#     4  10  21  36  54  77 104 137 178 222 271 323
#
# _framework density 17.472989999999999
#
# number of rings (size 3 to 8) (size 9 to 14) (size 15 to 20)
#    0.000    2.273    0.000    3.000    1.273    5.818 
#    0.000    0.909    0.000    0.545    0.000    0.000 
#    0.000    0.000    0.000    0.000    0.000    0.000 
#
# Total GULP energy -245499.387963 kJ/mol
# GULP energy per Si atom -5579.531545 kJ/mol
# Density = 1.743322 g / cm^3
# Si number density = 17.472990 Si / 1000 Ang^3
#
#
#
# Elastic Constant Matrix: (Units=GPa)
#
#
# Indices 1 2 3 4 5 6 
#
# 1 80.9250 76.8281 42.5526 0.0000 0.0000 0.0000
# 2 76.8281 136.4751 49.1286 0.0000 0.0000 0.0000
# 3 42.5526 49.1286 60.5026 0.0000 0.0000 0.0000
# 4 0.0000 0.0000 0.0000 3.1770 0.0000 0.0000
# 5 0.0000 0.0000 0.0000 0.0000 26.9193 0.0000
# 6 0.0000 0.0000 0.0000 0.0000 0.0000 32.3256
#
#
#
# Elastic Compliance Matrix: (Units=1/GPa)
#
#
# Indices 1 2 3 4 5 6 
#
# 1 0.030776 -0.013471 -0.010707 0.000000 0.000000 0.000000
# 2 -0.013471 0.016250 -0.003721 0.000000 0.000000 0.000000
# 3 -0.010707 -0.003721 0.027080 0.000000 0.000000 0.000000
# 4 0.000000 0.000000 0.000000 0.314760 0.000000 0.000000
# 5 0.000000 0.000000 0.000000 0.000000 0.037148 0.000000
# 6 0.000000 0.000000 0.000000 0.000000 0.000000 0.030935
#
#
# Mechanical properties :
#
#
# Convention : Reuss Voigt Hill
#
# Bulk Modulus (GPa) = 54.61865 68.32460 61.47163
# Shear Modulus (GPa) = 9.63670 19.77729 14.70700
#
# Velocity S-wave (km/s) = 2.35099 3.36799 2.90435
# Velocity P-wave (km/s) = 6.22064 7.36969 6.81941
#
# Compressibility (1/GPa) = 0.01830876
#
# Stress axis : x y z
#
# Youngs Moduli (GPa) = 32.49274 61.53749 36.92768
#
# Poissons Ratio (x) = 0.82897 0.39538
# Poissons Ratio (y) = 0.43771 0.13741
# Poissons Ratio (z) = 0.34789 0.22898
#
# Static dielectric constant tensor:
#      x y z
#    x 1.586300 0.000000 0.000000 
#    y 0.000000 1.605670 0.000000 
#    z 0.000000 0.000000 1.572320 
# 
# From -- ./inp_files/50313.got.cif
#   From: 2010.05.17/outbox.cif.g08.bks.cpg/sg65_26_cif.got.tgz:50313.got - 2010.06.03 17:01:31.
