data_PCOD9489324
_publ_section_title
;
Structure prediction by ZEFSAII (Michael W. Deem and Ramdas Pophale) SiO2 
 PCOD9489324
Probable space group: C M M M
;
_chemical_formula_sum "Si O2"
_cell_formula_units_Z 104
_cell_length_a 26.898949
_cell_length_b 20.136556
_cell_length_c 8.257805
_cell_angle_alpha 90.000000
_cell_angle_beta 90.000000
_cell_angle_gamma 90.000000
_cell_volume 4472.858187
_symmetry_space_group_name_H-M "C M M M"
_symmetry_group_IT_number 65
_symmetry_cell_setting 'orthorhombic'
loop_
_space_group_symop_operation_xyz
x,y,z
-x,-y,z
x,-y,-z
-x,y,-z
-x,-y,-z
x,y,-z
-x,y,z
x,-y,z
1/2+x,1/2+y,z
1/2-x,1/2-y,z
1/2+x,1/2-y,-z
1/2-x,1/2+y,-z
1/2-x,1/2-y,-z
1/2+x,1/2+y,-z
1/2-x,1/2+y,z
1/2+x,1/2-y,z
loop_
_atom_site_type_symbol
_atom_site_label
_atom_site_fract_x
_atom_site_fract_y
_atom_site_fract_z
Si Si1 0.904078 0.075649 0.828215
Si Si2 0.553853 0.783285 0.193620
Si Si3 0.083724 0.572669 0.304818
Si Si4 0.302169 0.602573 0.311288
Si Si5 0.806685 0.382364 0.694664
Si Si6 0.441579 0.423425 0.500000
Si Si7 0.336801 0.259657 0.192200
O O1 0.845182 0.073370 0.800718
O O2 0.924610 0.108450 0.666841
O O3 0.923613 0.000000 0.832711
O O4 0.916594 0.107610 0.000000
O O5 0.500000 0.759488 0.257086
O O6 0.558887 0.861794 0.232860
O O7 0.605800 0.750484 0.248228
O O8 0.553622 0.775946 0.000000
O O9 0.078331 0.576002 0.500000
O O10 0.065680 0.500000 0.251192
O O11 0.142751 0.578829 0.267375
O O12 0.310556 0.584576 0.500000
O O13 0.246059 0.585262 0.264124
O O14 0.310307 0.681607 0.288799
O O15 0.805866 0.372502 0.500000
O O16 0.811069 0.310824 0.777778
O O17 0.421230 0.500000 0.500000
O O18 0.500000 0.427486 0.500000
O O19 0.335599 0.274732 0.000000
#
# Coordination Sequence:
#
# PCOD9489324 Si02
#       7
#    16  16  16  16  16   8  16
#     4  10  21  37  57  84 116 147 183 228 277 332
#     4   9  19  36  55  74 101 140 181 223 277 333
#     4   9  18  33  52  77 108 139 178 225 270 325
#     4  11  21  34  55  79 109 147 185 227 277 336
#     4   9  19  34  52  75 104 143 185 225 275 332
#     4   9  18  36  60  82 107 140 178 220 267 322
#     4  10  20  34  53  76 104 137 181 236 283 332
#
# _framework density 23.251351
#
# number of rings (size 3 to 8) (size 9 to 14) (size 15 to 20)
#    0.000    2.385    0.769    1.385    0.000    5.538 
#    0.000    5.385    0.000    1.846    0.000    0.000 
#    0.000    0.000    0.000    0.000    0.000    0.000 
#
# Total GULP energy -290454.144636 kJ/mol
# GULP energy per Si atom -5585.656628 kJ/mol
# Density = 2.319843 g / cm^3
# Si number density = 23.251351 Si / 1000 Ang^3
#
#
#
# Elastic Constant Matrix: (Units=GPa)
#
#
# Indices 1 2 3 4 5 6 
#
# 1 113.0282 -12.5313 27.2816 0.0000 0.0000 0.0000
# 2 -12.5313 73.1926 5.1619 0.0000 0.0000 0.0000
# 3 27.2816 5.1619 88.1577 0.0000 0.0000 0.0000
# 4 0.0000 0.0000 0.0000 31.9192 0.0000 0.0000
# 5 0.0000 0.0000 0.0000 0.0000 -12.8315 0.0000
# 6 0.0000 0.0000 0.0000 0.0000 0.0000 13.3980
#
#
#
# Elastic Compliance Matrix: (Units=1/GPa)
#
#
# Indices 1 2 3 4 5 6 
#
# 1 0.009819 0.001903 -0.003150 0.000000 0.000000 0.000000
# 2 0.001903 0.014088 -0.001414 0.000000 0.000000 0.000000
# 3 -0.003150 -0.001414 0.012401 0.000000 0.000000 0.000000
# 4 0.000000 0.000000 0.000000 0.031329 0.000000 0.000000
# 5 0.000000 0.000000 0.000000 0.000000 -0.077933 0.000000
# 6 0.000000 0.000000 0.000000 0.000000 0.000000 0.074638
#
#
# Mechanical properties :
#
#
# Convention : Reuss Voigt Hill
#
# Bulk Modulus (GPa) = 32.27218 34.91143 33.59181
# Shear Modulus (GPa) = 62.50647 23.46157 42.98402
#
# Velocity S-wave (km/s) = 5.19050 3.17999 4.30428
# Velocity P-wave (km/s) = 7.05915 5.34139 6.25947
#
# Compressibility (1/GPa) = 0.03098644
#
# Stress axis : x y z
#
# Youngs Moduli (GPa) = 101.84695 70.98161 80.63938
#
# Poissons Ratio (x) = -0.13509 0.25401
# Poissons Ratio (y) = -0.19384 0.11401
# Poissons Ratio (z) = 0.32081 0.10036
#
# Static dielectric constant tensor:
#      x y z
#    x 1.886110 0.000000 0.000000 
#    y 0.000000 1.878940 0.000000 
#    z 0.000000 0.000000 1.866700 
# 
# From -- ./inp_files/16789.got.cif
#   From: 2010.05.17/outbox.cif.g08.bks.cpg/sg65_9_cif.got.tgz:16789.got - 2010.06.03 17:01:31.
