data_PCOD9489157
_publ_section_title
;
Structure prediction by ZEFSAII (Michael W. Deem and Ramdas Pophale) SiO2 
 PCOD9489157
Probable space group: C M M M
;
_chemical_formula_sum "Si O2"
_cell_formula_units_Z 88
_cell_length_a 31.378472
_cell_length_b 18.190239
_cell_length_c 9.014782
_cell_angle_alpha 90.000000
_cell_angle_beta 90.000000
_cell_angle_gamma 90.000000
_cell_volume 5145.474444
_symmetry_space_group_name_H-M "C M M M"
_symmetry_group_IT_number 65
_symmetry_cell_setting 'orthorhombic'
loop_
_space_group_symop_operation_xyz
x,y,z
-x,-y,z
x,-y,-z
-x,y,-z
-x,-y,-z
x,y,-z
-x,y,z
x,-y,z
1/2+x,1/2+y,z
1/2-x,1/2-y,z
1/2+x,1/2-y,-z
1/2-x,1/2+y,-z
1/2-x,1/2-y,-z
1/2+x,1/2+y,-z
1/2-x,1/2+y,z
1/2+x,1/2-y,z
loop_
_atom_site_type_symbol
_atom_site_label
_atom_site_fract_x
_atom_site_fract_y
_atom_site_fract_z
Si Si1 0.172134 0.918021 0.674290
Si Si2 0.081847 0.848434 0.673233
Si Si3 0.000000 0.087632 0.830292
Si Si4 0.702395 0.269084 0.178608
Si Si5 0.048886 0.412823 0.678324
Si Si6 0.885642 0.700148 0.821919
O O1 0.183508 0.912653 0.500000
O O2 0.121498 0.904165 0.684175
O O3 0.191913 0.850074 0.761543
O O4 0.183036 0.000000 0.727350
O O5 0.075864 0.830086 0.500000
O O6 0.093185 0.775153 0.763206
O O7 0.040858 0.884280 0.743718
O O8 0.000000 0.000000 0.832920
O O9 0.000000 0.114698 0.000000
O O10 0.750000 0.250000 0.229156
O O11 0.664353 0.212356 0.222876
O O12 0.701953 0.270638 0.000000
O O13 0.051478 0.403668 0.500000
O O14 0.053392 0.500000 0.710153
O O15 0.086354 0.365667 0.753278
O O16 0.000000 0.391183 0.722420
O O17 0.887343 0.695404 0.000000
#
# Coordination Sequence:
#
# PCOD9489157 Si02
#       6
#    16  16   8  16  16  16
#     4   9  18  33  53  77 102 129 168 214 257 305
#     4  10  20  34  52  72  99 137 174 209 251 302
#     4  11  23  35  47  69 102 135 170 213 253 289
#     4   9  19  36  55  76 104 138 175 214 261 318
#     4   9  19  36  56  77 104 140 180 219 263 321
#     4  10  20  34  54  79 105 134 172 219 264 310
#
# _framework density 17.102405999999998
#
# number of rings (size 3 to 8) (size 9 to 14) (size 15 to 20)
#    0.000    2.455    0.000    2.455    1.273    4.364 
#    0.000    1.818    0.000    5.455    0.000    0.000 
#    0.000    0.000    0.000    0.000    0.000    0.000 
#
# Total GULP energy -245227.489820 kJ/mol
# GULP energy per Si atom -5573.352041 kJ/mol
# Density = 1.706348 g / cm^3
# Si number density = 17.102406 Si / 1000 Ang^3
#
#
#
# Elastic Constant Matrix: (Units=GPa)
#
#
# Indices 1 2 3 4 5 6 
#
# 1 144.7009 67.4105 47.0635 0.0000 0.0000 0.0000
# 2 67.4105 86.5728 29.4537 0.0000 0.0000 0.0000
# 3 47.0635 29.4537 33.8465 0.0000 0.0000 0.0000
# 4 0.0000 0.0000 0.0000 28.7916 0.0000 0.0000
# 5 0.0000 0.0000 0.0000 0.0000 23.8539 0.0000
# 6 0.0000 0.0000 0.0000 0.0000 0.0000 4.4478
#
#
#
# Elastic Compliance Matrix: (Units=1/GPa)
#
#
# Indices 1 2 3 4 5 6 
#
# 1 0.014755 -0.006405 -0.014943 0.000000 0.000000 0.000000
# 2 -0.006405 0.019190 -0.007793 0.000000 0.000000 0.000000
# 3 -0.014943 -0.007793 0.057104 0.000000 0.000000 0.000000
# 4 0.000000 0.000000 0.000000 0.034732 0.000000 0.000000
# 5 0.000000 0.000000 0.000000 0.000000 0.041922 0.000000
# 6 0.000000 0.000000 0.000000 0.000000 0.000000 0.224830
#
#
# Mechanical properties :
#
#
# Convention : Reuss Voigt Hill
#
# Bulk Modulus (GPa) = 30.51796 61.44175 45.97986
# Shear Modulus (GPa) = 10.82869 19.49817 15.16343
#
# Velocity S-wave (km/s) = 2.51901 3.38018 2.98086
# Velocity P-wave (km/s) = 5.13260 7.15807 6.22822
#
# Compressibility (1/GPa) = 0.03276759
#
# Stress axis : x y z
#
# Youngs Moduli (GPa) = 67.77473 52.11157 17.51180
#
# Poissons Ratio (x) = 0.33378 0.26167
# Poissons Ratio (y) = 0.43410 0.13647
# Poissons Ratio (z) = 1.01274 0.40609
#
# Static dielectric constant tensor:
#      x y z
#    x 1.562620 0.000000 0.000000 
#    y 0.000000 1.559210 0.000000 
#    z 0.000000 0.000000 1.576100 
# 
# From -- ./inp_files/10025.got.cif
#   From: 2010.05.17/outbox.cif.g08.bks.cpg/sg65_6_cif.got.tgz:10025.got - 2010.06.03 17:01:31.
