data_PCOD9489951
_publ_section_title
;
Structure prediction by ZEFSAII (Michael W. Deem and Ramdas Pophale) SiO2 
 PCOD9489951
Probable space group: C M M M
;
_chemical_formula_sum "Si O2"
_cell_formula_units_Z 72
_cell_length_a 9.144033
_cell_length_b 14.727530
_cell_length_c 24.563998
_cell_angle_alpha 90.000000
_cell_angle_beta 90.000000
_cell_angle_gamma 90.000000
_cell_volume 3308.009546
_symmetry_space_group_name_H-M "C M M M"
_symmetry_group_IT_number 65
_symmetry_cell_setting 'orthorhombic'
loop_
_space_group_symop_operation_xyz
x,y,z
-x,-y,z
x,-y,-z
-x,y,-z
-x,-y,-z
x,y,-z
-x,y,z
x,-y,z
1/2+x,1/2+y,z
1/2-x,1/2-y,z
1/2+x,1/2-y,-z
1/2-x,1/2+y,-z
1/2-x,1/2-y,-z
1/2+x,1/2+y,-z
1/2-x,1/2+y,z
1/2+x,1/2-y,z
loop_
_atom_site_type_symbol
_atom_site_label
_atom_site_fract_x
_atom_site_fract_y
_atom_site_fract_z
Si Si1 0.333073 0.888576 0.285714
Si Si2 0.176191 0.891127 0.941611
Si Si3 0.337548 0.606434 0.391343
Si Si4 0.670056 0.611049 0.823408
Si Si5 0.174387 0.347109 0.500000
O O1 0.500000 0.858536 0.290470
O O2 0.239562 0.856578 0.337429
O O3 0.262541 0.860319 0.228585
O O4 0.333534 0.000000 0.286095
O O5 0.229531 0.858645 0.882619
O O6 0.000000 0.878354 0.941010
O O7 0.199834 0.000000 0.942280
O O8 0.233091 0.856139 0.000000
O O9 0.500000 0.646010 0.401473
O O10 0.355813 0.500000 0.380509
O O11 0.236543 0.611359 0.444391
O O12 0.500000 0.637942 0.817534
O O13 0.670794 0.500000 0.824082
O O14 0.250000 0.250000 0.500000
O O15 0.000000 0.346491 0.500000
#
# Coordination Sequence:
#
# PCOD9489951 Si02
#       5
#    16  16  16  16   8
#     4   9  16  25  38  58  83 110 142 182 228 274
#     4   7   9  13  22  37  57  84 123 170 215 259
#     4  10  20  35  55  77 100 126 159 198 238 280
#     4   8  12  18  29  45  66  94 130 174 222 267
#     4  12  25  40  57  77 103 131 159 190 229 278
#
# _framework density 21.765355
#
# number of rings (size 3 to 8) (size 9 to 14) (size 15 to 20)
#    0.000    3.111    0.000    4.667    0.000    5.333 
#    0.000    0.000    0.000    0.667    0.000    4.667 
#    0.000    0.000    0.000    0.000    0.000    1.111 
#
# Total GULP energy -200723.116295 kJ/mol
# GULP energy per Si atom -5575.642119 kJ/mol
# Density = 2.171582 g / cm^3
# Si number density = 21.765355 Si / 1000 Ang^3
#
#
#
# Elastic Constant Matrix: (Units=GPa)
#
#
# Indices 1 2 3 4 5 6 
#
# 1 145.9956 6.2031 106.2325 0.0000 0.0000 0.0000
# 2 6.2031 46.0333 4.6964 0.0000 0.0000 0.0000
# 3 106.2325 4.6964 245.0470 0.0000 0.0000 0.0000
# 4 0.0000 0.0000 0.0000 -74.6728 0.0000 0.0000
# 5 0.0000 0.0000 0.0000 0.0000 -546.9333 0.0000
# 6 0.0000 0.0000 0.0000 0.0000 0.0000 4.1246
#
#
#
# Elastic Compliance Matrix: (Units=1/GPa)
#
#
# Indices 1 2 3 4 5 6 
#
# 1 0.010044 -0.000911 -0.004337 0.000000 0.000000 0.000000
# 2 -0.000911 0.021849 -0.000024 0.000000 0.000000 0.000000
# 3 -0.004337 -0.000024 0.005961 0.000000 0.000000 0.000000
# 4 0.000000 0.000000 0.000000 -0.013392 0.000000 0.000000
# 5 0.000000 0.000000 0.000000 0.000000 -0.001828 0.000000
# 6 0.000000 0.000000 0.000000 0.000000 0.000000 0.242446
#
#
# Mechanical properties :
#
#
# Convention : Reuss Voigt Hill
#
# Bulk Modulus (GPa) = 36.61566 74.59333 55.60449
# Shear Modulus (GPa) = 17.56072 -102.16670 -42.30299
#
# Velocity S-wave (km/s) = 2.84354 -6.85871 -4.41340
# Velocity P-wave (km/s) = 5.25741 5.32697 0.60673
#
# Compressibility (1/GPa) = 0.02731072
#
# Stress axis : x y z
#
# Youngs Moduli (GPa) = 99.56389 45.76955 167.74716
#
# Poissons Ratio (x) = 0.04170 0.72747
# Poissons Ratio (y) = 0.09070 0.00399
# Poissons Ratio (z) = 0.43178 0.00109
#
# Static dielectric constant tensor:
#      x y z
#    x 1.756740 0.000000 0.000000 
#    y 0.000000 3.506570 0.000000 
#    z 0.000000 0.000000 1.875080 
# 
# From -- ./inp_files/66982.got.cif
#   From: 2010.05.17/outbox.cif.g08.bks.cpg/sg65_34_cif.got.tgz:66982.got - 2010.06.03 17:01:31.
