data_PCOD9489676
_publ_section_title
;
Structure prediction by ZEFSAII (Michael W. Deem and Ramdas Pophale) SiO2 
 PCOD9489676
Probable space group: C M M M
;
_chemical_formula_sum "Si O2"
_cell_formula_units_Z 72
_cell_length_a 9.360045
_cell_length_b 14.404201
_cell_length_c 27.786214
_cell_angle_alpha 90.000000
_cell_angle_beta 90.000000
_cell_angle_gamma 90.000000
_cell_volume 3746.247670
_symmetry_space_group_name_H-M "C M M M"
_symmetry_group_IT_number 65
_symmetry_cell_setting 'orthorhombic'
loop_
_space_group_symop_operation_xyz
x,y,z
-x,-y,z
x,-y,-z
-x,y,-z
-x,-y,-z
x,y,-z
-x,y,z
x,-y,z
1/2+x,1/2+y,z
1/2-x,1/2-y,z
1/2+x,1/2-y,-z
1/2-x,1/2+y,-z
1/2-x,1/2-y,-z
1/2+x,1/2+y,-z
1/2-x,1/2+y,z
1/2+x,1/2-y,z
loop_
_atom_site_type_symbol
_atom_site_label
_atom_site_fract_x
_atom_site_fract_y
_atom_site_fract_z
Si Si1 0.328888 0.152524 0.369433
Si Si2 0.750000 0.250000 0.900182
Si Si3 0.500000 0.886432 0.057631
Si Si4 0.325946 0.000000 0.554889
Si Si5 0.655904 0.399951 0.825983
Si Si6 0.669049 0.152273 0.736840
O O1 0.500000 0.165606 0.372532
O O2 0.250000 0.250000 0.371962
O O3 0.282472 0.088067 0.413300
O O4 0.301798 0.110561 0.316086
O O5 0.637880 0.178590 0.926581
O O6 0.667289 0.318829 0.864285
O O7 0.500000 0.000000 0.073502
O O8 0.500000 0.890719 0.000000
O O9 0.500000 0.000000 0.553859
O O10 0.275416 0.000000 0.500000
O O11 0.500000 0.393656 0.802091
O O12 0.666489 0.500000 0.850901
O O13 0.772438 0.396131 0.784283
O O14 0.500000 0.164375 0.741022
O O15 0.750000 0.250000 0.736965
#
# Coordination Sequence:
#
# PCOD9489676 Si02
#       6
#    16   8   8   8  16  16
#     4   9  19  35  55  79 111 147 193 245 299 366
#     4  12  23  46  68  96 140 172 209 278 326 374
#     4  11  26  48  77 107 133 175 230 274 330 393
#     4   9  18  34  57  81 107 145 193 247 306 367
#     4  11  24  39  58  89 127 169 210 252 310 381
#     4  10  20  34  55  82 117 160 204 251 306 366
#
# _framework density 19.219231000000001
#
# number of rings (size 3 to 8) (size 9 to 14) (size 15 to 20)
#    0.000    1.778    2.222    1.667    3.111    1.778 
#    0.000    0.556    0.000    3.333    0.000    0.000 
#    0.000    0.000    0.000    0.000    0.000    0.000 
#
# Total GULP energy -200422.425111 kJ/mol
# GULP energy per Si atom -5567.289586 kJ/mol
# Density = 1.917549 g / cm^3
# Si number density = 19.219231 Si / 1000 Ang^3
#
#
#
# Elastic Constant Matrix: (Units=GPa)
#
#
# Indices 1 2 3 4 5 6 
#
# 1 79.6024 39.1686 44.6427 0.0000 0.0000 0.0000
# 2 39.1686 146.1439 59.9667 0.0000 0.0000 0.0000
# 3 44.6427 59.9667 107.7741 0.0000 0.0000 0.0000
# 4 0.0000 0.0000 0.0000 35.8240 0.0000 0.0000
# 5 0.0000 0.0000 0.0000 0.0000 22.7465 0.0000
# 6 0.0000 0.0000 0.0000 0.0000 0.0000 12.1445
#
#
#
# Elastic Compliance Matrix: (Units=1/GPa)
#
#
# Indices 1 2 3 4 5 6 
#
# 1 0.016866 -0.002143 -0.005794 0.000000 0.000000 0.000000
# 2 -0.002143 0.009139 -0.004198 0.000000 0.000000 0.000000
# 3 -0.005794 -0.004198 0.014014 0.000000 0.000000 0.000000
# 4 0.000000 0.000000 0.000000 0.027914 0.000000 0.000000
# 5 0.000000 0.000000 0.000000 0.000000 0.043963 0.000000
# 6 0.000000 0.000000 0.000000 0.000000 0.000000 0.082342
#
#
# Mechanical properties :
#
#
# Convention : Reuss Voigt Hill
#
# Bulk Modulus (GPa) = 63.48907 69.00847 66.24877
# Shear Modulus (GPa) = 22.34556 26.79249 24.56902
#
# Velocity S-wave (km/s) = 3.41349 3.73774 3.57929
# Velocity P-wave (km/s) = 6.97436 7.38996 7.18517
#
# Compressibility (1/GPa) = 0.01575074
#
# Stress axis : x y z
#
# Youngs Moduli (GPa) = 59.28980 109.41802 71.35584
#
# Poissons Ratio (x) = 0.23448 0.41344
# Poissons Ratio (y) = 0.12705 0.29952
# Poissons Ratio (z) = 0.34353 0.45929
#
# Static dielectric constant tensor:
#      x y z
#    x 1.675880 0.000000 0.000000 
#    y 0.000000 1.696630 0.000000 
#    z 0.000000 0.000000 1.667780 
# 
# From -- ./inp_files/72582.got.cif
#   From: 2010.05.17/outbox.cif.g08.bks.cpg/sg65_37_cif.got.tgz:72582.got - 2010.06.03 17:01:31.
