data_PCOD9489172
_publ_section_title
;
Structure prediction by ZEFSAII (Michael W. Deem and Ramdas Pophale) SiO2 
 PCOD9489172
Probable space group: C M M M
;
_chemical_formula_sum "Si O2"
_cell_formula_units_Z 88
_cell_length_a 19.060387
_cell_length_b 7.613618
_cell_length_c 29.928949
_cell_angle_alpha 90.000000
_cell_angle_beta 90.000000
_cell_angle_gamma 90.000000
_cell_volume 4343.244352
_symmetry_space_group_name_H-M "C M M M"
_symmetry_group_IT_number 65
_symmetry_cell_setting 'orthorhombic'
loop_
_space_group_symop_operation_xyz
x,y,z
-x,-y,z
x,-y,-z
-x,y,-z
-x,-y,-z
x,y,-z
-x,y,z
x,-y,z
1/2+x,1/2+y,z
1/2-x,1/2-y,z
1/2+x,1/2-y,-z
1/2-x,1/2+y,-z
1/2-x,1/2-y,-z
1/2+x,1/2+y,-z
1/2-x,1/2+y,z
1/2+x,1/2-y,z
loop_
_atom_site_type_symbol
_atom_site_label
_atom_site_fract_x
_atom_site_fract_y
_atom_site_fract_z
Si Si1 0.331842 0.708902 0.170624
Si Si2 0.668322 0.289080 0.270101
Si Si3 0.918233 0.785102 0.645065
Si Si4 0.332324 0.788502 0.000000
Si Si5 0.920784 0.291874 0.915823
Si Si6 0.084191 0.211639 0.548010
O O1 0.338055 0.500000 0.172110
O O2 0.250000 0.750000 0.161548
O O3 0.349753 0.778290 0.220338
O O4 0.381842 0.771030 0.131262
O O5 0.659288 0.500000 0.269094
O O6 0.750000 0.250000 0.277245
O O7 0.623754 0.221982 0.311825
O O8 0.890037 0.725270 0.596415
O O9 0.000000 0.736744 0.648674
O O10 0.915780 0.000000 0.644656
O O11 0.250000 0.750000 0.000000
O O12 0.372198 0.721090 0.955821
O O13 0.337273 0.000000 0.000000
O O14 0.926713 0.500000 0.923761
O O15 0.000000 0.219377 0.915657
O O16 0.111234 0.279085 0.500000
O O17 0.000000 0.242170 0.548399
O O18 0.093284 0.000000 0.547509
#
# Coordination Sequence:
#
# PCOD9489172 Si02
#       6
#    16  16  16   8  16  16
#     4  10  20  34  52  73  97 127 165 204 240 284
#     4   9  18  31  47  66  90 122 155 188 228 275
#     4   8  13  22  38  60  84 111 146 187 229 271
#     4  10  21  37  57  79 103 134 169 200 232 276
#     4  10  21  37  56  78 105 134 162 196 240 285
#     4   7   9  14  27  50  79 107 136 176 225 270
#
# _framework density 20.26135
#
# number of rings (size 3 to 8) (size 9 to 14) (size 15 to 20)
#    0.000    3.091    0.000    3.000    0.000    5.091 
#    0.000    1.818    0.000    2.727    0.000    0.000 
#    0.000    0.000    0.000    4.545    0.000    3.636 
#
# Total GULP energy -245206.423010 kJ/mol
# GULP energy per Si atom -5572.873250 kJ/mol
# Density = 2.021523 g / cm^3
# Si number density = 20.261350 Si / 1000 Ang^3
#
#
#
# Elastic Constant Matrix: (Units=GPa)
#
#
# Indices 1 2 3 4 5 6 
#
# 1 104.9892 1.9864 122.2955 0.0000 0.0000 0.0000
# 2 1.9864 41.9671 5.4801 0.0000 0.0000 0.0000
# 3 122.2955 5.4801 239.1336 0.0000 0.0000 0.0000
# 4 0.0000 0.0000 0.0000 47.6477 0.0000 0.0000
# 5 0.0000 0.0000 0.0000 0.0000 32.0865 0.0000
# 6 0.0000 0.0000 0.0000 0.0000 0.0000 11.5860
#
#
#
# Elastic Compliance Matrix: (Units=1/GPa)
#
#
# Indices 1 2 3 4 5 6 
#
# 1 0.023568 0.000460 -0.012064 0.000000 0.000000 0.000000
# 2 0.000460 0.023909 -0.000783 0.000000 0.000000 0.000000
# 3 -0.012064 -0.000783 0.010369 0.000000 0.000000 0.000000
# 4 0.000000 0.000000 0.000000 0.020987 0.000000 0.000000
# 5 0.000000 0.000000 0.000000 0.000000 0.031166 0.000000
# 6 0.000000 0.000000 0.000000 0.000000 0.000000 0.086311
#
#
# Mechanical properties :
#
#
# Convention : Reuss Voigt Hill
#
# Bulk Modulus (GPa) = 30.23675 71.73489 50.98582
# Shear Modulus (GPa) = 21.54170 35.35258 28.44714
#
# Velocity S-wave (km/s) = 3.26420 4.18165 3.75108
# Velocity P-wave (km/s) = 5.40022 7.66789 6.63170
#
# Compressibility (1/GPa) = 0.03307233
#
# Stress axis : x y z
#
# Youngs Moduli (GPa) = 42.43004 41.82584 96.43991
#
# Poissons Ratio (x) = -0.01923 1.16341
# Poissons Ratio (y) = -0.01951 0.07552
# Poissons Ratio (z) = 0.51186 0.03275
#
# Static dielectric constant tensor:
#      x y z
#    x 1.667780 0.000000 0.000000 
#    y 0.000000 3.035300 0.000000 
#    z 0.000000 0.000000 1.771310 
# 
# From -- ./inp_files/77813.got.cif
#   From: 2010.05.17/outbox.cif.g08.bks.cpg/sg65_39_cif.got.tgz:77813.got - 2010.06.03 17:01:31.
