data_PCOD9489021
_publ_section_title
;
Structure prediction by ZEFSAII (Michael W. Deem and Ramdas Pophale) SiO2 
 PCOD9489021
Probable space group: C M M M
;
_chemical_formula_sum "Si O2"
_cell_formula_units_Z 64
_cell_length_a 10.214746
_cell_length_b 27.899731
_cell_length_c 11.670536
_cell_angle_alpha 90.000000
_cell_angle_beta 90.000000
_cell_angle_gamma 90.000000
_cell_volume 3325.970482
_symmetry_space_group_name_H-M "C M M M"
_symmetry_group_IT_number 65
_symmetry_cell_setting 'orthorhombic'
loop_
_space_group_symop_operation_xyz
x,y,z
-x,-y,z
x,-y,-z
-x,y,-z
-x,-y,-z
x,y,-z
-x,y,z
x,-y,z
1/2+x,1/2+y,z
1/2-x,1/2-y,z
1/2+x,1/2-y,-z
1/2-x,1/2+y,-z
1/2-x,1/2-y,-z
1/2+x,1/2+y,-z
1/2-x,1/2+y,z
1/2+x,1/2-y,z
loop_
_atom_site_type_symbol
_atom_site_label
_atom_site_fract_x
_atom_site_fract_y
_atom_site_fract_z
Si Si1 0.658327 0.387412 0.000000
Si Si2 0.350198 0.211131 0.257421
Si Si3 0.750223 0.601821 0.749854
Si Si4 0.500000 0.943035 0.631624
Si Si5 0.640756 0.804479 0.000000
Si Si6 0.500000 0.444444 0.636378
O O1 0.713759 0.409147 0.117863
O O2 0.500000 0.386227 0.000000
O O3 0.727537 0.335401 0.000000
O O4 0.500000 0.211319 0.302870
O O5 0.250000 0.250000 0.307852
O O6 0.287100 0.158089 0.263105
O O7 0.362853 0.222079 0.120795
O O8 0.625767 0.584420 0.678982
O O9 0.874216 0.574242 0.700767
O O10 0.500000 0.924362 0.500000
O O11 0.500000 0.000000 0.625347
O O12 0.500000 0.833405 0.000000
O O13 0.500000 0.500000 0.678627
O O14 0.500000 0.446401 0.500000
#
# Coordination Sequence:
#
# PCOD9489021 Si02
#       6
#     8  16  16   8   8   8
#     4  10  20  35  58  91 133 174 200 238 310 386
#     4  10  20  33  55  87 124 165 206 249 302 369
#     4  11  22  41  64  96 131 165 205 259 315 376
#     4  11  24  45  72  94 115 155 215 275 323 369
#     4   8  17  31  51  83 120 162 212 256 294 348
#     4  11  24  43  68  94 119 157 215 273 317 365
#
# _framework density 19.242505000000001
#
# number of rings (size 3 to 8) (size 9 to 14) (size 15 to 20)
#    0.000    1.750    2.500    1.875    3.500    3.000 
#    0.000    5.000    0.000    4.500    0.000    0.000 
#    0.000    0.000    0.000    0.000    0.000    0.000 
#
# Total GULP energy -178318.055792 kJ/mol
# GULP energy per Si atom -5572.439244 kJ/mol
# Density = 1.919871 g / cm^3
# Si number density = 19.242505 Si / 1000 Ang^3
#
#
#
# Elastic Constant Matrix: (Units=GPa)
#
#
# Indices 1 2 3 4 5 6 
#
# 1 222.0396 71.2708 70.1742 0.0000 0.0000 0.0000
# 2 71.2708 93.0360 33.2659 0.0000 0.0000 0.0000
# 3 70.1742 33.2659 85.1723 0.0000 0.0000 0.0000
# 4 0.0000 0.0000 0.0000 17.7120 0.0000 0.0000
# 5 0.0000 0.0000 0.0000 0.0000 57.4418 0.0000
# 6 0.0000 0.0000 0.0000 0.0000 0.0000 26.5363
#
#
#
# Elastic Compliance Matrix: (Units=1/GPa)
#
#
# Indices 1 2 3 4 5 6 
#
# 1 0.007133 -0.003909 -0.004350 0.000000 0.000000 0.000000
# 2 -0.003909 0.014635 -0.002495 0.000000 0.000000 0.000000
# 3 -0.004350 -0.002495 0.016300 0.000000 0.000000 0.000000
# 4 0.000000 0.000000 0.000000 0.056459 0.000000 0.000000
# 5 0.000000 0.000000 0.000000 0.000000 0.017409 0.000000
# 6 0.000000 0.000000 0.000000 0.000000 0.000000 0.037684
#
#
# Mechanical properties :
#
#
# Convention : Reuss Voigt Hill
#
# Bulk Modulus (GPa) = 60.39117 83.29662 71.84390
# Shear Modulus (GPa) = 28.30450 35.37382 31.83916
#
# Velocity S-wave (km/s) = 3.83944 4.29221 4.07212
# Velocity P-wave (km/s) = 7.14895 8.24293 7.71535
#
# Compressibility (1/GPa) = 0.01655871
#
# Stress axis : x y z
#
# Youngs Moduli (GPa) = 140.18623 68.32782 61.34980
#
# Poissons Ratio (x) = 0.26709 0.26690
# Poissons Ratio (y) = 0.54799 0.15310
# Poissons Ratio (z) = 0.60988 0.17051
#
# Static dielectric constant tensor:
#      x y z
#    x 1.638050 0.000000 0.000000 
#    y 0.000000 1.665980 0.000000 
#    z 0.000000 0.000000 1.683110 
# 
# From -- ./inp_files/21120.got.cif
#   From: 2010.05.17/outbox.cif.g08.bks.cpg/sg65_11_cif.got.tgz:21120.got - 2010.06.03 17:01:31.
