data_PCOD9489665
_publ_section_title
;
Structure prediction by ZEFSAII (Michael W. Deem and Ramdas Pophale) SiO2 
 PCOD9489665
Probable space group: C M M M
;
_chemical_formula_sum "Si O2"
_cell_formula_units_Z 88
_cell_length_a 8.712906
_cell_length_b 18.645486
_cell_length_c 29.114107
_cell_angle_alpha 90.000000
_cell_angle_beta 90.000000
_cell_angle_gamma 90.000000
_cell_volume 4729.772047
_symmetry_space_group_name_H-M "C M M M"
_symmetry_group_IT_number 65
_symmetry_cell_setting 'orthorhombic'
loop_
_space_group_symop_operation_xyz
x,y,z
-x,-y,z
x,-y,-z
-x,y,-z
-x,-y,-z
x,y,-z
-x,y,z
x,-y,z
1/2+x,1/2+y,z
1/2-x,1/2-y,z
1/2+x,1/2-y,-z
1/2-x,1/2+y,-z
1/2-x,1/2-y,-z
1/2+x,1/2+y,-z
1/2-x,1/2+y,z
1/2+x,1/2-y,z
loop_
_atom_site_type_symbol
_atom_site_label
_atom_site_fract_x
_atom_site_fract_y
_atom_site_fract_z
Si Si1 0.687250 0.417248 0.500000
Si Si2 0.681642 0.085858 0.051698
Si Si3 0.814724 0.916257 0.317837
Si Si4 0.185513 0.169857 0.590511
Si Si5 0.818168 0.170722 0.135558
Si Si6 0.816983 0.330275 0.767598
O O1 0.738166 0.500000 0.500000
O O2 0.500000 0.418480 0.500000
O O3 0.735335 0.374625 0.454412
O O4 0.500000 0.101798 0.057007
O O5 0.773849 0.123321 0.091985
O O6 0.698879 0.000000 0.054309
O O7 0.727681 0.108366 0.000000
O O8 0.769100 0.872427 0.363378
O O9 0.740162 0.880297 0.273404
O O10 0.000000 0.911617 0.313769
O O11 0.774282 0.000000 0.322089
O O12 0.250000 0.250000 0.590088
O O13 0.000000 0.173327 0.589815
O O14 0.750000 0.250000 0.128340
O O15 0.744295 0.143160 0.183054
O O16 0.000000 0.175229 0.141325
O O17 0.750000 0.250000 0.761026
O O18 0.000000 0.326249 0.768414
#
# Coordination Sequence:
#
# PCOD9489665 Si02
#       6
#     8  16  16  16  16  16
#     4   9  17  32  55  81 108 141 184 228 270 321
#     4   9  19  37  59  82 111 147 185 226 273 325
#     4  10  21  37  56  80 110 143 182 227 274 324
#     4  10  20  34  55  81 109 144 183 225 272 324
#     4  11  22  37  58  83 112 145 183 228 275 325
#     4  11  22  38  59  81 108 142 181 224 273 329
#
# _framework density 18.605547000000001
#
# number of rings (size 3 to 8) (size 9 to 14) (size 15 to 20)
#    0.000    1.909    0.000    6.273    0.000    6.545 
#    0.000    0.909    0.000    2.182    0.000    0.000 
#    0.000    0.000    0.000    0.000    0.000    0.000 
#
# Total GULP energy -245815.511877 kJ/mol
# GULP energy per Si atom -5586.716179 kJ/mol
# Density = 1.856320 g / cm^3
# Si number density = 18.605547 Si / 1000 Ang^3
#
#
#
# Elastic Constant Matrix: (Units=GPa)
#
#
# Indices 1 2 3 4 5 6 
#
# 1 71.2064 48.7744 64.6867 0.0000 0.0000 0.0000
# 2 48.7744 116.7573 96.5750 0.0000 0.0000 0.0000
# 3 64.6867 96.5750 184.2016 0.0000 0.0000 0.0000
# 4 0.0000 0.0000 0.0000 47.2283 0.0000 0.0000
# 5 0.0000 0.0000 0.0000 0.0000 -37.8051 0.0000
# 6 0.0000 0.0000 0.0000 0.0000 0.0000 27.1083
#
#
#
# Elastic Compliance Matrix: (Units=1/GPa)
#
#
# Indices 1 2 3 4 5 6 
#
# 1 0.022148 -0.004977 -0.005168 0.000000 0.000000 0.000000
# 2 -0.004977 0.016242 -0.006767 0.000000 0.000000 0.000000
# 3 -0.005168 -0.006767 0.010792 0.000000 0.000000 0.000000
# 4 0.000000 0.000000 0.000000 0.021174 0.000000 0.000000
# 5 0.000000 0.000000 0.000000 0.000000 -0.026451 0.000000
# 6 0.000000 0.000000 0.000000 0.000000 0.000000 0.036889
#
#
# Mechanical properties :
#
#
# Convention : Reuss Voigt Hill
#
# Bulk Modulus (GPa) = 65.12277 88.02636 76.57457
# Shear Modulus (GPa) = 41.75808 18.11491 29.93649
#
# Velocity S-wave (km/s) = 4.74264 3.12369 4.01560
# Velocity P-wave (km/s) = 8.06647 7.77332 7.92125
#
# Compressibility (1/GPa) = 0.01535561
#
# Stress axis : x y z
#
# Youngs Moduli (GPa) = 45.15078 61.57024 92.66215
#
# Poissons Ratio (x) = 0.30645 0.47890
# Poissons Ratio (y) = 0.22473 0.62708
# Poissons Ratio (z) = 0.23335 0.41667
#
# Static dielectric constant tensor:
#      x y z
#    x 1.630520 0.000000 0.000000 
#    y 0.000000 1.614350 0.000000 
#    z 0.000000 0.000000 1.631380 
# 
# From -- ./inp_files/67510.got.cif
#   From: 2010.05.17/outbox.cif.g08.bks.cpg/sg65_34_cif.got.tgz:67510.got - 2010.06.03 17:01:31.
