data_PCOD9489923
_publ_section_title
;
Structure prediction by ZEFSAII (Michael W. Deem and Ramdas Pophale) SiO2 
 PCOD9489923
Probable space group: C M M M
;
_chemical_formula_sum "Si O2"
_cell_formula_units_Z 116
_cell_length_a 27.101149
_cell_length_b 13.732535
_cell_length_c 18.537919
_cell_angle_alpha 90.000000
_cell_angle_beta 90.000000
_cell_angle_gamma 90.000000
_cell_volume 6899.210546
_symmetry_space_group_name_H-M "C M M M"
_symmetry_group_IT_number 65
_symmetry_cell_setting 'orthorhombic'
loop_
_space_group_symop_operation_xyz
x,y,z
-x,-y,z
x,-y,-z
-x,y,-z
-x,-y,-z
x,y,-z
-x,y,z
x,-y,z
1/2+x,1/2+y,z
1/2-x,1/2-y,z
1/2+x,1/2-y,-z
1/2-x,1/2+y,-z
1/2-x,1/2-y,-z
1/2+x,1/2+y,-z
1/2-x,1/2+y,z
1/2+x,1/2-y,z
loop_
_atom_site_type_symbol
_atom_site_label
_atom_site_fract_x
_atom_site_fract_y
_atom_site_fract_z
Si Si1 0.559003 0.889242 0.414948
Si Si2 0.768766 0.612427 0.130632
Si Si3 0.398345 0.392013 0.200558
Si Si4 0.784856 0.613515 0.704676
Si Si5 0.331044 0.708496 0.082853
Si Si6 0.500000 0.500000 0.183988
Si Si7 0.796411 0.115183 0.582193
Si Si8 0.371425 0.741793 0.334383
O O1 0.570445 0.877797 0.500000
O O2 0.500000 0.881751 0.407075
O O3 0.586677 0.808272 0.369432
O O4 0.573541 0.000000 0.394415
O O5 0.780326 0.500000 0.117160
O O6 0.760688 0.626113 0.216637
O O7 0.718592 0.643942 0.091588
O O8 0.812253 0.684481 0.106216
O O9 0.374103 0.500000 0.208787
O O10 0.371923 0.335309 0.135741
O O11 0.455535 0.416803 0.186087
O O12 0.390933 0.330302 0.272887
O O13 0.799821 0.500000 0.698613
O O14 0.746614 0.633733 0.640308
O O15 0.830741 0.685218 0.698551
O O16 0.347015 0.708079 0.000000
O O17 0.781046 0.136440 0.500000
O O18 0.843171 0.178367 0.605481
O O19 0.807945 0.000000 0.586615
#
# Coordination Sequence:
#
# PCOD9489923 Si02
#       8
#    16  16  16  16  16   4  16  16
#     4   9  20  37  55  80 112 141 178 238 305 353
#     4  10  20  35  54  84 123 156 192 230 277 343
#     4  10  22  40  59  84 113 144 190 243 297 348
#     4  10  21  35  53  77 111 151 187 226 272 326
#     4  11  22  36  58  87 116 154 192 228 286 351
#     4   8  24  44  61  84 115 148 192 254 312 346
#     4  10  22  36  48  74 114 154 194 234 278 330
#     4  12  20  33  60  80 105 145 196 233 282 336
#
# _framework density 16.813517999999998
#
# number of rings (size 3 to 8) (size 9 to 14) (size 15 to 20)
#    0.414    1.379    1.379    4.138    2.897    4.690 
#    0.000    2.069    0.000    0.000    0.000    3.862 
#    0.000    1.103    0.000    0.000    0.000    0.000 
#
# Total GULP energy -323168.116729 kJ/mol
# GULP energy per Si atom -5571.864082 kJ/mol
# Density = 1.677525 g / cm^3
# Si number density = 16.813518 Si / 1000 Ang^3
#
#
#
# Elastic Constant Matrix: (Units=GPa)
#
#
# Indices 1 2 3 4 5 6 
#
# 1 69.1635 48.3096 32.0479 0.0000 0.0000 0.0000
# 2 48.3096 127.7806 50.4398 0.0000 0.0000 0.0000
# 3 32.0479 50.4398 97.3271 0.0000 0.0000 0.0000
# 4 0.0000 0.0000 0.0000 14.8650 0.0000 0.0000
# 5 0.0000 0.0000 0.0000 0.0000 16.5485 0.0000
# 6 0.0000 0.0000 0.0000 0.0000 0.0000 35.0871
#
#
#
# Elastic Compliance Matrix: (Units=1/GPa)
#
#
# Indices 1 2 3 4 5 6 
#
# 1 0.020524 -0.006401 -0.003441 0.000000 0.000000 0.000000
# 2 -0.006401 0.011835 -0.004026 0.000000 0.000000 0.000000
# 3 -0.003441 -0.004026 0.013494 0.000000 0.000000 0.000000
# 4 0.000000 0.000000 0.000000 0.067272 0.000000 0.000000
# 5 0.000000 0.000000 0.000000 0.000000 0.060428 0.000000
# 6 0.000000 0.000000 0.000000 0.000000 0.000000 0.028501
#
#
# Mechanical properties :
#
#
# Convention : Reuss Voigt Hill
#
# Bulk Modulus (GPa) = 55.19486 61.76287 58.47886
# Shear Modulus (GPa) = 21.20184 24.19838 22.70011
#
# Velocity S-wave (km/s) = 3.55491 3.79782 3.67837
# Velocity P-wave (km/s) = 7.05328 7.48633 7.27303
#
# Compressibility (1/GPa) = 0.01811763
#
# Stress axis : x y z
#
# Youngs Moduli (GPa) = 48.72357 84.49427 74.10738
#
# Poissons Ratio (x) = 0.54087 0.25498
# Poissons Ratio (y) = 0.31189 0.29834
# Poissons Ratio (z) = 0.16764 0.34015
#
# Static dielectric constant tensor:
#      x y z
#    x 1.536090 0.000000 0.000000 
#    y 0.000000 1.586670 0.000000 
#    z 0.000000 0.000000 1.567500 
# 
# From -- ./inp_files/57704.got.cif
#   From: 2010.05.17/outbox.cif.g08.bks.cpg/sg65_29_cif.got.tgz:57704.got - 2010.06.03 17:01:31.
