data_PCOD9489158
_publ_section_title
;
Structure prediction by ZEFSAII (Michael W. Deem and Ramdas Pophale) SiO2 
 PCOD9489158
Probable space group: C M M M
;
_chemical_formula_sum "Si O2"
_cell_formula_units_Z 96
_cell_length_a 8.292322
_cell_length_b 18.734655
_cell_length_c 32.333964
_cell_angle_alpha 90.000000
_cell_angle_beta 90.000000
_cell_angle_gamma 90.000000
_cell_volume 5023.203912
_symmetry_space_group_name_H-M "C M M M"
_symmetry_group_IT_number 65
_symmetry_cell_setting 'orthorhombic'
loop_
_space_group_symop_operation_xyz
x,y,z
-x,-y,z
x,-y,-z
-x,y,-z
-x,-y,-z
x,y,-z
-x,y,z
x,-y,z
1/2+x,1/2+y,z
1/2-x,1/2-y,z
1/2+x,1/2-y,-z
1/2-x,1/2+y,-z
1/2-x,1/2-y,-z
1/2+x,1/2+y,-z
1/2-x,1/2+y,z
1/2+x,1/2-y,z
loop_
_atom_site_type_symbol
_atom_site_label
_atom_site_fract_x
_atom_site_fract_y
_atom_site_fract_z
Si Si1 0.693618 0.415285 0.544712
Si Si2 0.197221 0.417765 0.205537
Si Si3 0.805407 0.917907 0.046665
Si Si4 0.804920 0.668609 0.713141
Si Si5 0.193836 0.417679 0.633003
Si Si6 0.807646 0.669058 0.125245
O O1 0.749748 0.386101 0.500000
O O2 0.500000 0.409788 0.545690
O O3 0.734239 0.500000 0.544578
O O4 0.760243 0.387259 0.587982
O O5 0.249324 0.500000 0.206391
O O6 0.248700 0.375074 0.246381
O O7 0.252523 0.377672 0.164102
O O8 0.000000 0.417923 0.205385
O O9 0.744923 0.866542 0.082338
O O10 0.000000 0.917085 0.046963
O O11 0.753946 0.000000 0.054485
O O12 0.752982 0.898320 0.000000
O O13 0.750000 0.750000 0.714925
O O14 0.747753 0.629398 0.671350
O O15 0.000000 0.667314 0.712852
O O16 0.253067 0.500000 0.636344
O O17 0.000000 0.420378 0.635098
O O18 0.750000 0.750000 0.128504
O O19 0.000000 0.668643 0.126895
#
# Coordination Sequence:
#
# PCOD9489158 Si02
#       6
#    16  16  16  16  16  16
#     4   8  14  25  42  66  96 127 157 194 244 295
#     4   9  18  34  56  79 102 131 169 211 254 302
#     4   9  19  37  59  81 107 140 177 219 267 314
#     4  10  20  34  52  73 100 132 164 201 246 297
#     4   9  17  29  47  71  96 125 163 203 242 286
#     4  11  22  35  54  80 110 143 178 216 259 308
#
# _framework density 19.111308000000001
#
# number of rings (size 3 to 8) (size 9 to 14) (size 15 to 20)
#    0.000    2.667    0.000    3.000    0.000    4.667 
#    0.000    3.333    0.000    4.000    0.000    0.000 
#    0.000    0.000    0.000    0.000    0.000    0.000 
#
# Total GULP energy -267717.878267 kJ/mol
# GULP energy per Si atom -5577.455797 kJ/mol
# Density = 1.906781 g / cm^3
# Si number density = 19.111308 Si / 1000 Ang^3
#
#
#
# Elastic Constant Matrix: (Units=GPa)
#
#
# Indices 1 2 3 4 5 6 
#
# 1 7.2440 13.6567 21.3577 0.0000 0.0000 0.0000
# 2 13.6567 137.0200 116.6750 0.0000 0.0000 0.0000
# 3 21.3577 116.6750 211.0503 0.0000 0.0000 0.0000
# 4 0.0000 0.0000 0.0000 -7.9629 0.0000 0.0000
# 5 0.0000 0.0000 0.0000 0.0000 33.7005 0.0000
# 6 0.0000 0.0000 0.0000 0.0000 0.0000 8.5830
#
#
#
# Elastic Compliance Matrix: (Units=1/GPa)
#
#
# Indices 1 2 3 4 5 6 
#
# 1 0.198592 -0.005065 -0.017297 0.000000 0.000000 0.000000
# 2 -0.005065 0.013919 -0.007182 0.000000 0.000000 0.000000
# 3 -0.017297 -0.007182 0.010459 0.000000 0.000000 0.000000
# 4 0.000000 0.000000 0.000000 -0.125582 0.000000 0.000000
# 5 0.000000 0.000000 0.000000 0.000000 0.029673 0.000000
# 6 0.000000 0.000000 0.000000 0.000000 0.000000 0.116510
#
#
# Mechanical properties :
#
#
# Convention : Reuss Voigt Hill
#
# Bulk Modulus (GPa) = 6.10196 73.18810 39.64503
# Shear Modulus (GPa) = 13.99440 20.43911 17.21675
#
# Velocity S-wave (km/s) = 2.70896 3.27383 3.00470
# Velocity P-wave (km/s) = 3.60339 7.25737 5.72948
#
# Compressibility (1/GPa) = 0.16388181
#
# Stress axis : x y z
#
# Youngs Moduli (GPa) = 5.03545 71.84546 95.61048
#
# Poissons Ratio (x) = 0.36390 1.65376
# Poissons Ratio (y) = 0.02550 0.68669
# Poissons Ratio (z) = 0.08710 0.51600
#
# Static dielectric constant tensor:
#      x y z
#    x 1.672980 0.000000 0.000000 
#    y 0.000000 1.634210 0.000000 
#    z 0.000000 0.000000 1.682920 
# 
# From -- ./inp_files/73169.got.cif
#   From: 2010.05.17/outbox.cif.g08.bks.cpg/sg65_37_cif.got.tgz:73169.got - 2010.06.03 17:01:31.
