data_PCOD9489028
_publ_section_title
;
Structure prediction by ZEFSAII (Michael W. Deem and Ramdas Pophale) SiO2 
 PCOD9489028
Probable space group: C M M M
;
_chemical_formula_sum "Si O2"
_cell_formula_units_Z 82
_cell_length_a 12.216947
_cell_length_b 14.429033
_cell_length_c 21.116102
_cell_angle_alpha 90.000000
_cell_angle_beta 90.000000
_cell_angle_gamma 90.000000
_cell_volume 3722.319673
_symmetry_space_group_name_H-M "C M M M"
_symmetry_group_IT_number 65
_symmetry_cell_setting 'orthorhombic'
loop_
_space_group_symop_operation_xyz
x,y,z
-x,-y,z
x,-y,-z
-x,y,-z
-x,-y,-z
x,y,-z
-x,y,z
x,-y,z
1/2+x,1/2+y,z
1/2-x,1/2-y,z
1/2+x,1/2-y,-z
1/2-x,1/2+y,-z
1/2-x,1/2-y,-z
1/2+x,1/2+y,-z
1/2-x,1/2+y,z
1/2+x,1/2-y,z
loop_
_atom_site_type_symbol
_atom_site_label
_atom_site_fract_x
_atom_site_fract_y
_atom_site_fract_z
Si Si1 0.876976 0.607829 0.244516
Si Si2 0.758677 0.886501 0.876386
Si Si3 0.280629 0.864253 0.500000
Si Si4 0.875166 0.386732 0.000000
Si Si5 0.274647 0.642897 0.638224
Si Si6 0.000000 0.500000 0.500000
Si Si7 0.500000 0.386728 0.853268
Si Si8 0.500000 0.609740 0.708391
O O1 0.889073 0.500000 0.227803
O O2 0.799224 0.645908 0.188814
O O3 0.816385 0.608853 0.311958
O O4 0.000000 0.647481 0.247820
O O5 0.884601 0.856049 0.881797
O O6 0.761469 0.000000 0.874780
O O7 0.688038 0.858611 0.936719
O O8 0.250000 0.750000 0.500000
O O9 0.231124 0.895647 0.567339
O O10 0.401764 0.915314 0.500000
O O11 0.877017 0.500000 0.000000
O O12 0.000000 0.354518 0.000000
O O13 0.250000 0.750000 0.632484
O O14 0.391683 0.633728 0.670482
O O15 0.500000 0.500000 0.855574
O O16 0.500000 0.355884 0.780129
O O17 0.500000 0.500000 0.715167
#
# Coordination Sequence:
#
# PCOD9489028 Si02
#       8
#    16  16   8   8  16   2   8   8
#     4  10  20  33  56  84 117 156 211 267 323 409
#     4   9  16  28  45  73 109 152 198 260 321 393
#     4  10  28  48  69 109 148 186 255 308 375 470
#     4   9  16  25  41  67 110 154 196 247 328 402
#     4  11  25  42  64  92 132 169 217 288 351 414
#     4  12  28  48  92 100 156 224 236 322 430 442
#     4   9  16  29  48  74 111 149 200 253 315 377
#     4  11  22  40  66  91 126 171 212 271 331 401
#
# _framework density 22.029274999999998
#
# number of rings (size 3 to 8) (size 9 to 14) (size 15 to 20)
#    0.000    2.049    1.951    1.171    5.463    5.463 
#    0.000    2.439    0.000    0.000    0.000    0.683 
#    0.000    0.000    0.000    0.000    0.000    0.000 
#
# Total GULP energy -228414.227480 kJ/mol
# GULP energy per Si atom -5571.078719 kJ/mol
# Density = 2.197914 g / cm^3
# Si number density = 22.029275 Si / 1000 Ang^3
#
#
#
# Elastic Constant Matrix: (Units=GPa)
#
#
# Indices 1 2 3 4 5 6 
#
# 1 225.3346 15.9809 96.5317 0.0000 0.0000 0.0000
# 2 15.9809 87.7177 -0.2972 0.0000 0.0000 0.0000
# 3 96.5317 -0.2972 163.1704 0.0000 0.0000 0.0000
# 4 0.0000 0.0000 0.0000 21.7586 0.0000 0.0000
# 5 0.0000 0.0000 0.0000 0.0000 34.9210 0.0000
# 6 0.0000 0.0000 0.0000 0.0000 0.0000 11.3871
#
#
#
# Elastic Compliance Matrix: (Units=1/GPa)
#
#
# Indices 1 2 3 4 5 6 
#
# 1 0.006051 -0.001115 -0.003582 0.000000 0.000000 0.000000
# 2 -0.001115 0.011606 0.000681 0.000000 0.000000 0.000000
# 3 -0.003582 0.000681 0.008249 0.000000 0.000000 0.000000
# 4 0.000000 0.000000 0.000000 0.045959 0.000000 0.000000
# 5 0.000000 0.000000 0.000000 0.000000 0.028636 0.000000
# 6 0.000000 0.000000 0.000000 0.000000 0.000000 0.087819
#
#
# Mechanical properties :
#
#
# Convention : Reuss Voigt Hill
#
# Bulk Modulus (GPa) = 55.94812 77.85039 66.89926
# Shear Modulus (GPa) = 24.71461 37.88051 31.29756
#
# Velocity S-wave (km/s) = 3.35311 4.15125 3.77334
# Velocity P-wave (km/s) = 6.35951 7.64156 7.02982
#
# Compressibility (1/GPa) = 0.01787370
#
# Stress axis : x y z
#
# Youngs Moduli (GPa) = 165.25048 86.16543 121.22759
#
# Poissons Ratio (x) = 0.09604 0.43424
# Poissons Ratio (y) = 0.18419 -0.08250
# Poissons Ratio (z) = 0.59194 -0.05864
#
# Static dielectric constant tensor:
#      x y z
#    x 1.754110 0.000000 0.000000 
#    y 0.000000 1.894590 0.000000 
#    z 0.000000 0.000000 1.797150 
# 
# From -- ./inp_files/61436.got.cif
#   From: 2010.05.17/outbox.cif.g08.bks.cpg/sg65_31_cif.got.tgz:61436.got - 2010.06.03 17:01:31.
