data_PCOD9489931
_publ_section_title
;
Structure prediction by ZEFSAII (Michael W. Deem and Ramdas Pophale) SiO2 
 PCOD9489931
Probable space group: C M M M
;
_chemical_formula_sum "Si O2"
_cell_formula_units_Z 64
_cell_length_a 8.053990
_cell_length_b 19.948458
_cell_length_c 21.283937
_cell_angle_alpha 90.000000
_cell_angle_beta 90.000000
_cell_angle_gamma 90.000000
_cell_volume 3419.576954
_symmetry_space_group_name_H-M "C M M M"
_symmetry_group_IT_number 65
_symmetry_cell_setting 'orthorhombic'
loop_
_space_group_symop_operation_xyz
x,y,z
-x,-y,z
x,-y,-z
-x,y,-z
-x,-y,-z
x,y,-z
-x,y,z
x,-y,z
1/2+x,1/2+y,z
1/2-x,1/2-y,z
1/2+x,1/2-y,-z
1/2-x,1/2+y,-z
1/2-x,1/2-y,-z
1/2+x,1/2+y,-z
1/2-x,1/2+y,z
1/2+x,1/2-y,z
loop_
_atom_site_type_symbol
_atom_site_label
_atom_site_fract_x
_atom_site_fract_y
_atom_site_fract_z
Si Si1 0.197388 0.924052 0.500000
Si Si2 0.203768 0.577635 0.863087
Si Si3 0.799612 0.674363 0.752516
Si Si4 0.301962 0.825574 0.389744
Si Si5 0.306753 0.081582 0.000000
O O1 0.247245 0.881057 0.439177
O O2 0.000000 0.928718 0.500000
O O3 0.266486 0.000000 0.500000
O O4 0.251040 0.500000 0.854422
O O5 0.260163 0.623063 0.805415
O O6 0.000000 0.579017 0.864805
O O7 0.263743 0.601448 0.932121
O O8 0.750000 0.750000 0.768763
O O9 0.738644 0.661361 0.681304
O O10 0.000000 0.670161 0.751231
O O11 0.500000 0.826173 0.387796
O O12 0.250000 0.750000 0.408165
O O13 0.500000 0.102484 0.000000
O O14 0.305240 0.000000 0.000000
#
# Coordination Sequence:
#
# PCOD9489931 Si02
#       5
#     8  16  16  16   8
#     4  11  24  39  54  75 103 129 154 193 242 287
#     4   8  13  23  41  65  91 120 157 198 236 273
#     4   9  18  31  48  70  96 125 155 192 234 277
#     4  10  20  35  55  75  97 129 166 200 237 286
#     4   7  10  18  35  60  89 119 152 193 236 274
#
# _framework density 18.715765999999999
#
# number of rings (size 3 to 8) (size 9 to 14) (size 15 to 20)
#    0.000    3.000    0.000    3.000    0.000    3.000 
#    0.000    3.125    0.000    0.750    0.000    0.000 
#    0.000    3.000    0.000    0.000    0.000    0.000 
#
# Total GULP energy -178308.494331 kJ/mol
# GULP energy per Si atom -5572.140448 kJ/mol
# Density = 1.867317 g / cm^3
# Si number density = 18.715766 Si / 1000 Ang^3
#
#
#
# Elastic Constant Matrix: (Units=GPa)
#
#
# Indices 1 2 3 4 5 6 
#
# 1 19.0714 10.7309 13.7251 0.0000 0.0000 0.0000
# 2 10.7309 132.3217 126.2493 0.0000 0.0000 0.0000
# 3 13.7251 126.2493 171.7695 0.0000 0.0000 0.0000
# 4 0.0000 0.0000 0.0000 39.4641 0.0000 0.0000
# 5 0.0000 0.0000 0.0000 0.0000 -9.5906 0.0000
# 6 0.0000 0.0000 0.0000 0.0000 0.0000 17.3326
#
#
#
# Elastic Compliance Matrix: (Units=1/GPa)
#
#
# Indices 1 2 3 4 5 6 
#
# 1 0.055666 -0.000906 -0.003782 0.000000 0.000000 0.000000
# 2 -0.000906 0.025312 -0.018532 0.000000 0.000000 0.000000
# 3 -0.003782 -0.018532 0.019745 0.000000 0.000000 0.000000
# 4 0.000000 0.000000 0.000000 0.025339 0.000000 0.000000
# 5 0.000000 0.000000 0.000000 0.000000 -0.104269 0.000000
# 6 0.000000 0.000000 0.000000 0.000000 0.000000 0.057695
#
#
# Mechanical properties :
#
#
# Convention : Reuss Voigt Hill
#
# Bulk Modulus (GPa) = 18.42183 69.39704 43.90943
# Shear Modulus (GPa) = 34.71657 20.93837 27.82747
#
# Velocity S-wave (km/s) = 4.31157 3.34841 3.86015
# Velocity P-wave (km/s) = 5.88647 7.21866 6.58633
#
# Compressibility (1/GPa) = 0.05428342
#
# Stress axis : x y z
#
# Youngs Moduli (GPa) = 17.96424 39.50631 50.64590
#
# Poissons Ratio (x) = 0.03578 0.19156
# Poissons Ratio (y) = 0.01627 0.93857
# Poissons Ratio (z) = 0.06795 0.73213
#
# Static dielectric constant tensor:
#      x y z
#    x 1.655880 0.000000 0.000000 
#    y 0.000000 1.619220 0.000000 
#    z 0.000000 0.000000 1.694390 
# 
# From -- ./inp_files/58823.got.cif
#   From: 2010.05.17/outbox.cif.g08.bks.cpg/sg65_30_cif.got.tgz:58823.got - 2010.06.03 17:01:31.
