data_PCOD9489864
_publ_section_title
;
Structure prediction by ZEFSAII (Michael W. Deem and Ramdas Pophale) SiO2 
 PCOD9489864
Probable space group: C M M M
;
_chemical_formula_sum "Si O2"
_cell_formula_units_Z 80
_cell_length_a 17.118135
_cell_length_b 10.198158
_cell_length_c 25.302805
_cell_angle_alpha 90.000000
_cell_angle_beta 90.000000
_cell_angle_gamma 90.000000
_cell_volume 4417.197847
_symmetry_space_group_name_H-M "C M M M"
_symmetry_group_IT_number 65
_symmetry_cell_setting 'orthorhombic'
loop_
_space_group_symop_operation_xyz
x,y,z
-x,-y,z
x,-y,-z
-x,y,-z
-x,-y,-z
x,y,-z
-x,y,z
x,-y,z
1/2+x,1/2+y,z
1/2-x,1/2-y,z
1/2+x,1/2-y,-z
1/2-x,1/2+y,-z
1/2-x,1/2-y,-z
1/2+x,1/2+y,-z
1/2-x,1/2+y,z
1/2+x,1/2-y,z
loop_
_atom_site_type_symbol
_atom_site_label
_atom_site_fract_x
_atom_site_fract_y
_atom_site_fract_z
Si Si1 0.094002 0.000000 0.438034
Si Si2 0.410400 0.000000 0.437157
Si Si3 0.904349 0.847234 0.172876
Si Si4 0.905640 0.652410 0.733898
Si Si5 0.342607 0.754292 0.378218
Si Si6 0.908055 0.158903 0.943234
O O1 0.125148 0.874785 0.406480
O O2 0.118546 0.000000 0.500000
O O3 0.000000 0.000000 0.437372
O O4 0.367704 0.126233 0.415212
O O5 0.500000 0.000000 0.417637
O O6 0.411217 0.000000 0.500000
O O7 0.879464 0.745424 0.217829
O O8 0.876599 0.803016 0.114329
O O9 0.000000 0.847274 0.171673
O O10 0.881813 0.000000 0.182588
O O11 0.879309 0.500000 0.737416
O O12 0.878489 0.716774 0.679194
O O13 0.000000 0.650541 0.734518
O O14 0.250000 0.750000 0.373293
O O15 0.000000 0.195136 0.943752
O O16 0.905574 0.000000 0.943000
O O17 0.874206 0.203433 0.000000
#
# Coordination Sequence:
#
# PCOD9489864 Si02
#       6
#     8   8  16  16  16  16
#     4  11  25  43  63  89 117 143 176 223 276 327
#     4  11  23  43  69  89 111 149 190 219 258 333
#     4   8  14  24  41  68  96 129 178 227 269 315
#     4  10  20  35  54  73 101 143 187 225 265 324
#     4  12  25  40  60  87 117 147 182 228 279 325
#     4   7   9  15  30  55  90 128 165 211 267 320
#
# _framework density 18.111028999999998
#
# number of rings (size 3 to 8) (size 9 to 14) (size 15 to 20)
#    0.000    2.400    1.000    4.800    1.400    4.000 
#    0.000    0.000    0.000    0.600    0.000    4.200 
#    0.000    0.800    0.000    1.000    0.000    1.400 
#
# Total GULP energy -222916.190278 kJ/mol
# GULP energy per Si atom -5572.904757 kJ/mol
# Density = 1.806981 g / cm^3
# Si number density = 18.111029 Si / 1000 Ang^3
#
#
#
# Elastic Constant Matrix: (Units=GPa)
#
#
# Indices 1 2 3 4 5 6 
#
# 1 21.5588 19.0933 20.7649 0.0000 0.0000 0.0000
# 2 19.0933 138.4249 93.5550 0.0000 0.0000 0.0000
# 3 20.7649 93.5550 189.4774 0.0000 0.0000 0.0000
# 4 0.0000 0.0000 0.0000 35.6337 0.0000 0.0000
# 5 0.0000 0.0000 0.0000 0.0000 1103.0742 0.0000
# 6 0.0000 0.0000 0.0000 0.0000 0.0000 14.0581
#
#
#
# Elastic Compliance Matrix: (Units=1/GPa)
#
#
# Indices 1 2 3 4 5 6 
#
# 1 0.054242 -0.005199 -0.003377 0.000000 0.000000 0.000000
# 2 -0.005199 0.011341 -0.005030 0.000000 0.000000 0.000000
# 3 -0.003377 -0.005030 0.008131 0.000000 0.000000 0.000000
# 4 0.000000 0.000000 0.000000 0.028063 0.000000 0.000000
# 5 0.000000 0.000000 0.000000 0.000000 0.000907 0.000000
# 6 0.000000 0.000000 0.000000 0.000000 0.000000 0.071133
#
#
# Mechanical properties :
#
#
# Convention : Reuss Voigt Hill
#
# Bulk Modulus (GPa) = 21.50455 68.47640 44.99047
# Shear Modulus (GPa) = 23.09146 244.95640 134.02393
#
# Velocity S-wave (km/s) = 3.57458 11.64243 8.61173
# Velocity P-wave (km/s) = 5.37925 14.78579 11.12556
#
# Compressibility (1/GPa) = 0.04650180
#
# Stress axis : x y z
#
# Youngs Moduli (GPa) = 18.43576 88.17885 122.98296
#
# Poissons Ratio (x) = 0.45846 0.41535
# Poissons Ratio (y) = 0.09585 0.61856
# Poissons Ratio (z) = 0.06226 0.44351
#
# Static dielectric constant tensor:
#      x y z
#    x 1.601870 0.000000 0.000000 
#    y 0.000000 1.581220 0.000000 
#    z 0.000000 0.000000 1.655630 
# 
# From -- ./inp_files/75121.got.cif
#   From: 2010.05.17/outbox.cif.g08.bks.cpg/sg65_38_cif.got.tgz:75121.got - 2010.06.03 17:01:31.
