data_PCOD9489885
_publ_section_title
;
Structure prediction by ZEFSAII (Michael W. Deem and Ramdas Pophale) SiO2 
 PCOD9489885
Probable space group: C M M M
;
_chemical_formula_sum "Si O2"
_cell_formula_units_Z 96
_cell_length_a 20.450539
_cell_length_b 8.621828
_cell_length_c 31.044500
_cell_angle_alpha 90.000000
_cell_angle_beta 90.000000
_cell_angle_gamma 90.000000
_cell_volume 5473.798209
_symmetry_space_group_name_H-M "C M M M"
_symmetry_group_IT_number 65
_symmetry_cell_setting 'orthorhombic'
loop_
_space_group_symop_operation_xyz
x,y,z
-x,-y,z
x,-y,-z
-x,y,-z
-x,-y,-z
x,y,-z
-x,y,z
x,-y,z
1/2+x,1/2+y,z
1/2-x,1/2-y,z
1/2+x,1/2-y,-z
1/2-x,1/2+y,-z
1/2-x,1/2-y,-z
1/2+x,1/2+y,-z
1/2-x,1/2+y,z
1/2+x,1/2-y,z
loop_
_atom_site_type_symbol
_atom_site_label
_atom_site_fract_x
_atom_site_fract_y
_atom_site_fract_z
Si Si1 0.575200 0.187171 0.714981
Si Si2 0.075149 0.187368 0.378990
Si Si3 0.821805 0.815546 0.882283
Si Si4 0.822169 0.313425 0.212295
Si Si5 0.424290 0.813141 0.049883
Si Si6 0.677981 0.312565 0.450750
O O1 0.500000 0.235532 0.723628
O O2 0.593982 0.251135 0.668115
O O3 0.624878 0.236604 0.752272
O O4 0.576294 0.000000 0.713313
O O5 0.124333 0.240068 0.416256
O O6 0.000000 0.235859 0.387292
O O7 0.076319 0.000000 0.378029
O O8 0.750000 0.750000 0.893491
O O9 0.839129 0.747429 0.835311
O O10 0.874521 0.764693 0.917439
O O11 0.817857 0.000000 0.879273
O O12 0.819971 0.500000 0.211165
O O13 0.750000 0.250000 0.222839
O O14 0.500000 0.772114 0.058980
O O15 0.418890 0.000000 0.053475
O O16 0.410640 0.772106 0.000000
O O17 0.662350 0.265239 0.500000
O O18 0.679771 0.500000 0.449861
O O19 0.750000 0.250000 0.440277
#
# Coordination Sequence:
#
# PCOD9489885 Si02
#       6
#    16  16  16  16  16  16
#     4   9  19  35  53  73  98 130 166 203 246 297
#     4   9  18  32  50  72  97 126 161 202 246 290
#     4  11  22  36  55  79 108 140 175 216 260 306
#     4  10  20  35  54  75 101 133 169 209 253 302
#     4   9  19  37  59  81 107 140 176 214 258 308
#     4   9  18  32  49  70  97 128 162 200 242 290
#
# _framework density 17.538095999999999
#
# number of rings (size 3 to 8) (size 9 to 14) (size 15 to 20)
#    0.000    2.500    0.000    3.500    0.000    4.667 
#    0.000    7.500    0.000    0.000    0.000    4.667 
#    0.000    0.000    0.000    0.000    0.000    0.000 
#
# Total GULP energy -267800.637147 kJ/mol
# GULP energy per Si atom -5579.179941 kJ/mol
# Density = 1.749818 g / cm^3
# Si number density = 17.538096 Si / 1000 Ang^3
#
#
#
# Elastic Constant Matrix: (Units=GPa)
#
#
# Indices 1 2 3 4 5 6 
#
# 1 128.5506 40.9723 131.2379 0.0000 0.0000 0.0000
# 2 40.9723 40.8008 44.6241 0.0000 0.0000 0.0000
# 3 131.2379 44.6241 154.6187 0.0000 0.0000 0.0000
# 4 0.0000 0.0000 0.0000 28.4703 0.0000 0.0000
# 5 0.0000 0.0000 0.0000 0.0000 44.2341 0.0000
# 6 0.0000 0.0000 0.0000 0.0000 0.0000 28.3912
#
#
#
# Elastic Compliance Matrix: (Units=1/GPa)
#
#
# Indices 1 2 3 4 5 6 
#
# 1 0.059472 -0.006595 -0.048576 0.000000 0.000000 0.000000
# 2 -0.006595 0.036545 -0.004950 0.000000 0.000000 0.000000
# 3 -0.048576 -0.004950 0.049126 0.000000 0.000000 0.000000
# 4 0.000000 0.000000 0.000000 0.035124 0.000000 0.000000
# 5 0.000000 0.000000 0.000000 0.000000 0.022607 0.000000
# 6 0.000000 0.000000 0.000000 0.000000 0.000000 0.035222
#
#
# Mechanical properties :
#
#
# Convention : Reuss Voigt Hill
#
# Bulk Modulus (GPa) = 40.15505 84.18205 62.16855
# Shear Modulus (GPa) = 13.63742 27.36150 20.49946
#
# Velocity S-wave (km/s) = 2.79155 3.95412 3.42256
# Velocity P-wave (km/s) = 5.77373 8.30364 7.15145
#
# Compressibility (1/GPa) = 0.02490347
#
# Stress axis : x y z
#
# Youngs Moduli (GPa) = 16.81465 27.36329 20.35568
#
# Poissons Ratio (x) = 0.18045 0.98879
# Poissons Ratio (y) = 0.11088 0.10076
# Poissons Ratio (z) = 0.81678 0.13545
#
# Static dielectric constant tensor:
#      x y z
#    x 1.581970 0.000000 0.000000 
#    y 0.000000 1.597350 0.000000 
#    z 0.000000 0.000000 1.576020 
# 
# From -- ./inp_files/73148.got.cif
#   From: 2010.05.17/outbox.cif.g08.bks.cpg/sg65_37_cif.got.tgz:73148.got - 2010.06.03 17:01:31.
