data_PCOD9489165
_publ_section_title
;
Structure prediction by ZEFSAII (Michael W. Deem and Ramdas Pophale) SiO2 
 PCOD9489165
Probable space group: C M M M
;
_chemical_formula_sum "Si O2"
_cell_formula_units_Z 96
_cell_length_a 29.699332
_cell_length_b 8.684827
_cell_length_c 21.079330
_cell_angle_alpha 90.000000
_cell_angle_beta 90.000000
_cell_angle_gamma 90.000000
_cell_volume 5437.066638
_symmetry_space_group_name_H-M "C M M M"
_symmetry_group_IT_number 65
_symmetry_cell_setting 'orthorhombic'
loop_
_space_group_symop_operation_xyz
x,y,z
-x,-y,z
x,-y,-z
-x,y,-z
-x,-y,-z
x,y,-z
-x,y,z
x,-y,z
1/2+x,1/2+y,z
1/2-x,1/2-y,z
1/2+x,1/2-y,-z
1/2-x,1/2+y,-z
1/2-x,1/2-y,-z
1/2+x,1/2+y,-z
1/2-x,1/2+y,z
1/2+x,1/2-y,z
loop_
_atom_site_type_symbol
_atom_site_label
_atom_site_fract_x
_atom_site_fract_y
_atom_site_fract_z
Si Si1 0.701939 0.184078 0.117148
Si Si2 0.551729 0.312175 0.808441
Si Si3 0.201968 0.683892 0.733629
Si Si4 0.609978 0.315629 0.686312
Si Si5 0.551816 0.185609 0.573324
Si Si6 0.390995 0.685847 0.929765
O O1 0.750000 0.250000 0.095500
O O2 0.696588 0.227217 0.191785
O O3 0.659135 0.251421 0.081195
O O4 0.702530 0.000000 0.112232
O O5 0.500000 0.260726 0.805817
O O6 0.551384 0.500000 0.808732
O O7 0.579893 0.263723 0.746733
O O8 0.577056 0.261304 0.872399
O O9 0.202620 0.500000 0.729864
O O10 0.250000 0.750000 0.712424
O O11 0.159790 0.749610 0.695685
O O12 0.611924 0.500000 0.687286
O O13 0.585747 0.259385 0.622817
O O14 0.560813 0.227879 0.500000
O O15 0.500000 0.230280 0.588017
O O16 0.554351 0.000000 0.577599
O O17 0.389291 0.500000 0.926998
O O18 0.407173 0.730255 0.000000
#
# Coordination Sequence:
#
# PCOD9489165 Si02
#       6
#    16  16  16  16  16  16
#     4  10  20  34  54  76 102 133 170 217 269 323
#     4   9  18  32  50  75 105 135 173 221 267 310
#     4  10  20  34  54  80 108 139 177 219 269 323
#     4  11  20  32  55  83 113 144 177 222 270 317
#     4   9  19  36  56  80 114 153 188 223 265 314
#     4  10  20  34  52  73 101 138 178 220 268 321
#
# _framework density 17.656578
#
# number of rings (size 3 to 8) (size 9 to 14) (size 15 to 20)
#    0.000    2.167    1.667    2.500    0.000    3.667 
#    0.000    2.500    0.000    2.000    0.000    1.167 
#    0.000    0.000    0.000    0.000    0.000    0.000 
#
# Total GULP energy -267965.312834 kJ/mol
# GULP energy per Si atom -5582.610684 kJ/mol
# Density = 1.761639 g / cm^3
# Si number density = 17.656578 Si / 1000 Ang^3
#
#
#
# Elastic Constant Matrix: (Units=GPa)
#
#
# Indices 1 2 3 4 5 6 
#
# 1 145.2121 28.3204 76.1638 0.0000 0.0000 0.0000
# 2 28.3204 20.8849 29.5495 0.0000 0.0000 0.0000
# 3 76.1638 29.5495 102.1756 0.0000 0.0000 0.0000
# 4 0.0000 0.0000 0.0000 19.6160 0.0000 0.0000
# 5 0.0000 0.0000 0.0000 0.0000 21.5724 0.0000
# 6 0.0000 0.0000 0.0000 0.0000 0.0000 22.3418
#
#
#
# Elastic Compliance Matrix: (Units=1/GPa)
#
#
# Indices 1 2 3 4 5 6 
#
# 1 0.011733 -0.005985 -0.007015 0.000000 0.000000 0.000000
# 2 -0.005985 0.084096 -0.019860 0.000000 0.000000 0.000000
# 3 -0.007015 -0.019860 0.020760 0.000000 0.000000 0.000000
# 4 0.000000 0.000000 0.000000 0.050979 0.000000 0.000000
# 5 0.000000 0.000000 0.000000 0.000000 0.046355 0.000000
# 6 0.000000 0.000000 0.000000 0.000000 0.000000 0.044759
#
#
# Mechanical properties :
#
#
# Convention : Reuss Voigt Hill
#
# Bulk Modulus (GPa) = 19.65812 59.59335 39.62573
# Shear Modulus (GPa) = 14.64735 21.65531 18.15133
#
# Velocity S-wave (km/s) = 2.88335 3.50590 3.20975
# Velocity P-wave (km/s) = 4.71622 7.08612 6.01896
#
# Compressibility (1/GPa) = 0.05086957
#
# Stress axis : x y z
#
# Youngs Moduli (GPa) = 85.22794 11.89119 48.16950
#
# Poissons Ratio (x) = 0.07116 0.33793
# Poissons Ratio (y) = 0.51006 0.95663
# Poissons Ratio (z) = 0.59791 0.23616
#
# Static dielectric constant tensor:
#      x y z
#    x 1.575520 0.000000 0.000000 
#    y 0.000000 1.589850 0.000000 
#    z 0.000000 0.000000 1.599420 
# 
# From -- ./inp_files/60170.got.cif
#   From: 2010.05.17/outbox.cif.g08.bks.cpg/sg65_31_cif.got.tgz:60170.got - 2010.06.03 17:01:31.
