data_PCOD9489785
_publ_section_title
;
Structure prediction by ZEFSAII (Michael W. Deem and Ramdas Pophale) SiO2 
 PCOD9489785
Probable space group: C M M M
;
_chemical_formula_sum "Si O2"
_cell_formula_units_Z 64
_cell_length_a 15.880979
_cell_length_b 23.495666
_cell_length_c 8.207222
_cell_angle_alpha 90.000000
_cell_angle_beta 90.000000
_cell_angle_gamma 90.000000
_cell_volume 3062.395037
_symmetry_space_group_name_H-M "C M M M"
_symmetry_group_IT_number 65
_symmetry_cell_setting 'orthorhombic'
loop_
_space_group_symop_operation_xyz
x,y,z
-x,-y,z
x,-y,-z
-x,y,-z
-x,-y,-z
x,y,-z
-x,y,z
x,-y,z
1/2+x,1/2+y,z
1/2-x,1/2-y,z
1/2+x,1/2-y,-z
1/2-x,1/2+y,-z
1/2-x,1/2-y,-z
1/2+x,1/2+y,-z
1/2-x,1/2+y,z
1/2+x,1/2-y,z
loop_
_atom_site_type_symbol
_atom_site_label
_atom_site_fract_x
_atom_site_fract_y
_atom_site_fract_z
Si Si1 0.653214 0.270038 0.311862
Si Si2 0.000000 0.563166 0.758182
Si Si3 0.500000 0.182434 0.308317
Si Si4 0.228990 0.068464 0.000000
Si Si5 0.308800 0.934066 0.330882
Si Si6 0.900107 0.842900 0.000000
O O1 0.640274 0.290703 0.500000
O O2 0.750000 0.250000 0.299336
O O3 0.584364 0.219621 0.288795
O O4 0.633538 0.312973 0.164677
O O5 0.909533 0.563136 0.672543
O O6 0.000000 0.500000 0.839100
O O7 0.000000 0.628896 0.814051
O O8 0.500000 0.163228 0.500000
O O9 0.276101 0.090059 0.838038
O O10 0.136115 0.093351 0.000000
O O11 0.232954 0.000000 0.000000
O O12 0.281663 0.905414 0.500000
O O13 0.279772 0.000000 0.334397
O O14 0.000000 0.840058 0.000000
#
# Coordination Sequence:
#
# PCOD9489785 Si02
#       6
#    16   8   8   8  16   8
#     4  10  23  44  68  94 127 168 216 266 315 371
#     4  10  20  34  58  94 133 173 209 242 302 384
#     4  10  20  36  61  94 129 167 209 258 316 372
#     4  10  24  41  60  91 121 156 210 261 318 384
#     4   9  18  35  57  84 125 169 205 244 293 365
#     4  12  25  44  69  92 122 161 207 267 325 378
#
# _framework density 20.898675000000001
#
# number of rings (size 3 to 8) (size 9 to 14) (size 15 to 20)
#    0.000    2.000    1.250    1.500    3.500    4.500 
#    0.000    3.750    0.000    0.000    0.000    5.250 
#    0.000    0.000    0.000    0.000    0.000    0.000 
#
# Total GULP energy -178176.550618 kJ/mol
# GULP energy per Si atom -5568.017207 kJ/mol
# Density = 2.085111 g / cm^3
# Si number density = 20.898675 Si / 1000 Ang^3
#
#
#
# Elastic Constant Matrix: (Units=GPa)
#
#
# Indices 1 2 3 4 5 6 
#
# 1 127.4238 35.6622 58.8690 0.0000 0.0000 0.0000
# 2 35.6622 58.4515 35.6974 0.0000 0.0000 0.0000
# 3 58.8690 35.6974 187.0233 0.0000 0.0000 0.0000
# 4 0.0000 0.0000 0.0000 -11.0192 0.0000 0.0000
# 5 0.0000 0.0000 0.0000 0.0000 4.5671 0.0000
# 6 0.0000 0.0000 0.0000 0.0000 0.0000 36.6543
#
#
#
# Elastic Compliance Matrix: (Units=1/GPa)
#
#
# Indices 1 2 3 4 5 6 
#
# 1 0.010273 -0.004859 -0.002306 0.000000 0.000000 0.000000
# 2 -0.004859 0.021664 -0.002605 0.000000 0.000000 0.000000
# 3 -0.002306 -0.002605 0.006570 0.000000 0.000000 0.000000
# 4 0.000000 0.000000 0.000000 -0.090751 0.000000 0.000000
# 5 0.000000 0.000000 0.000000 0.000000 0.218957 0.000000
# 6 0.000000 0.000000 0.000000 0.000000 0.000000 0.027282
#
#
# Mechanical properties :
#
#
# Convention : Reuss Voigt Hill
#
# Bulk Modulus (GPa) = 52.72749 70.37287 61.55018
# Shear Modulus (GPa) = 22.74170 22.21842 22.48006
#
# Velocity S-wave (km/s) = 3.30235 3.26414 3.28330
# Velocity P-wave (km/s) = 6.31075 6.92478 6.62488
#
# Compressibility (1/GPa) = 0.01896544
#
# Stress axis : x y z
#
# Youngs Moduli (GPa) = 97.33975 46.15898 152.20352
#
# Poissons Ratio (x) = 0.22431 0.35101
# Poissons Ratio (y) = 0.47302 0.39656
# Poissons Ratio (z) = 0.22448 0.12027
#
# Static dielectric constant tensor:
#      x y z
#    x 1.694030 0.000000 0.000000 
#    y 0.000000 1.780120 0.000000 
#    z 0.000000 0.000000 1.714630 
# 
# From -- ./inp_files/6829.got.cif
#   From: 2010.05.17/outbox.cif.g08.bks.cpg/sg65_4_cif.got.tgz:6829.got - 2010.06.03 17:01:31.
