data_PCOD9489814
_publ_section_title
;
Structure prediction by ZEFSAII (Michael W. Deem and Ramdas Pophale) SiO2 
 PCOD9489814
Probable space group: C M M M
;
_chemical_formula_sum "Si O2"
_cell_formula_units_Z 72
_cell_length_a 29.344332
_cell_length_b 8.284056
_cell_length_c 16.169623
_cell_angle_alpha 90.000000
_cell_angle_beta 90.000000
_cell_angle_gamma 90.000000
_cell_volume 3930.675103
_symmetry_space_group_name_H-M "C M M M"
_symmetry_group_IT_number 65
_symmetry_cell_setting 'orthorhombic'
loop_
_space_group_symop_operation_xyz
x,y,z
-x,-y,z
x,-y,-z
-x,y,-z
-x,-y,-z
x,y,-z
-x,y,z
x,-y,z
1/2+x,1/2+y,z
1/2-x,1/2-y,z
1/2+x,1/2-y,-z
1/2-x,1/2+y,-z
1/2-x,1/2-y,-z
1/2+x,1/2+y,-z
1/2-x,1/2+y,z
1/2+x,1/2-y,z
loop_
_atom_site_type_symbol
_atom_site_label
_atom_site_fract_x
_atom_site_fract_y
_atom_site_fract_z
Si Si1 0.801870 0.807065 0.819916
Si Si2 0.947735 0.194732 0.593210
Si Si3 0.053466 0.696579 0.908029
Si Si4 0.302555 0.694662 0.000000
Si Si5 0.609331 0.192189 0.748627
O O1 0.750000 0.750000 0.807613
O O2 0.838588 0.748147 0.754586
O O3 0.801279 0.000000 0.821398
O O4 0.819391 0.746606 0.910801
O O5 0.935060 0.247236 0.500000
O O6 0.915342 0.254118 0.665380
O O7 0.000000 0.247452 0.608705
O O8 0.947533 0.000000 0.593649
O O9 0.055481 0.500000 0.908210
O O10 0.082132 0.756462 0.829700
O O11 0.000000 0.739408 0.898854
O O12 0.068864 0.750970 0.000000
O O13 0.250000 0.750000 0.000000
O O14 0.305340 0.500000 0.000000
O O15 0.608071 0.000000 0.752859
#
# Coordination Sequence:
#
# PCOD9489814 Si02
#       5
#    16  16  16   8  16
#     4  10  20  35  52  73 103 140 181 227 271 315
#     4   9  19  37  59  81 107 140 176 217 268 321
#     4   8  15  28  44  66 101 141 176 209 248 300
#     4   8  16  30  48  68  93 130 175 222 266 305
#     4  11  21  31  51  81 108 140 178 219 266 319
#
# _framework density 18.317463
#
# number of rings (size 3 to 8) (size 9 to 14) (size 15 to 20)
#    0.000    2.667    0.000    3.333    1.556    2.667 
#    0.000    1.111    0.000    0.667    0.000    4.667 
#    0.000    0.000    0.000    0.000    0.000    0.000 
#
# Total GULP energy -200735.886042 kJ/mol
# GULP energy per Si atom -5575.996835 kJ/mol
# Density = 1.827577 g / cm^3
# Si number density = 18.317463 Si / 1000 Ang^3
#
#
#
# Elastic Constant Matrix: (Units=GPa)
#
#
# Indices 1 2 3 4 5 6 
#
# 1 111.0920 18.8480 100.7273 0.0000 0.0000 0.0000
# 2 18.8480 22.4635 27.9200 0.0000 0.0000 0.0000
# 3 100.7273 27.9200 143.6816 0.0000 0.0000 0.0000
# 4 0.0000 0.0000 0.0000 22.4269 0.0000 0.0000
# 5 0.0000 0.0000 0.0000 0.0000 17.8428 0.0000
# 6 0.0000 0.0000 0.0000 0.0000 0.0000 18.0317
#
#
#
# Elastic Compliance Matrix: (Units=1/GPa)
#
#
# Indices 1 2 3 4 5 6 
#
# 1 0.024724 0.001052 -0.017537 0.000000 0.000000 0.000000
# 2 0.001052 0.058737 -0.012151 0.000000 0.000000 0.000000
# 3 -0.017537 -0.012151 0.021615 0.000000 0.000000 0.000000
# 4 0.000000 0.000000 0.000000 0.044589 0.000000 0.000000
# 5 0.000000 0.000000 0.000000 0.000000 0.056045 0.000000
# 6 0.000000 0.000000 0.000000 0.000000 0.000000 0.055458
#
#
# Mechanical properties :
#
#
# Convention : Reuss Voigt Hill
#
# Bulk Modulus (GPa) = 20.91888 63.58086 42.24987
# Shear Modulus (GPa) = 14.95328 20.30972 17.63150
#
# Velocity S-wave (km/s) = 2.86027 3.33342 3.10587
# Velocity P-wave (km/s) = 4.72791 7.04283 5.99811
#
# Compressibility (1/GPa) = 0.04780371
#
# Stress axis : x y z
#
# Youngs Moduli (GPa) = 40.44684 17.02513 46.26356
#
# Poissons Ratio (x) = -0.01792 0.81132
# Poissons Ratio (y) = -0.04256 0.56216
# Poissons Ratio (z) = 0.70932 0.20688
#
# Static dielectric constant tensor:
#      x y z
#    x 1.614350 0.000000 0.000000 
#    y 0.000000 1.629180 0.000000 
#    z 0.000000 0.000000 1.648910 
# 
# From -- ./inp_files/36556.got.cif
#   From: 2010.05.17/outbox.cif.g08.bks.cpg/sg65_19_cif.got.tgz:36556.got - 2010.06.03 17:01:31.
