data_PCOD9489259
_publ_section_title
;
Structure prediction by ZEFSAII (Michael W. Deem and Ramdas Pophale) SiO2 
 PCOD9489259
Probable space group: C M M M
;
_chemical_formula_sum "Si O2"
_cell_formula_units_Z 88
_cell_length_a 15.230331
_cell_length_b 14.246284
_cell_length_c 20.954247
_cell_angle_alpha 90.000000
_cell_angle_beta 90.000000
_cell_angle_gamma 90.000000
_cell_volume 4546.560752
_symmetry_space_group_name_H-M "C M M M"
_symmetry_group_IT_number 65
_symmetry_cell_setting 'orthorhombic'
loop_
_space_group_symop_operation_xyz
x,y,z
-x,-y,z
x,-y,-z
-x,y,-z
-x,-y,-z
x,y,-z
-x,y,z
x,-y,z
1/2+x,1/2+y,z
1/2-x,1/2-y,z
1/2+x,1/2-y,-z
1/2-x,1/2+y,-z
1/2-x,1/2-y,-z
1/2+x,1/2+y,-z
1/2-x,1/2+y,z
1/2+x,1/2-y,z
loop_
_atom_site_type_symbol
_atom_site_label
_atom_site_fract_x
_atom_site_fract_y
_atom_site_fract_z
Si Si1 0.650044 0.220902 0.696740
Si Si2 0.902554 0.106413 0.239491
Si Si3 0.781522 0.113741 0.879399
Si Si4 0.897435 0.114990 0.000000
Si Si5 0.893993 0.391160 0.571375
Si Si6 0.599090 0.113720 0.825155
O O1 0.750000 0.250000 0.705919
O O2 0.599776 0.319163 0.704196
O O3 0.638840 0.170737 0.629512
O O4 0.617309 0.155091 0.754736
O O5 0.833638 0.135391 0.185531
O O6 0.000000 0.106783 0.210257
O O7 0.882840 0.000000 0.259846
O O8 0.680365 0.144455 0.870320
O O9 0.779058 0.000000 0.884020
O O10 0.840383 0.145556 0.938685
O O11 0.000000 0.145096 0.000000
O O12 0.899767 0.000000 0.000000
O O13 0.866122 0.361518 0.500000
O O14 0.867735 0.500000 0.580285
O O15 0.000000 0.388831 0.572785
O O16 0.500000 0.141480 0.845040
O O17 0.601422 0.000000 0.821784
#
# Coordination Sequence:
#
# PCOD9489259 Si02
#       6
#    16  16  16   8  16  16
#     4  12  22  33  55  82 113 147 185 236 282 341
#     4  10  20  34  52  76 110 147 185 233 284 335
#     4   9  17  31  50  78 110 142 188 239 285 338
#     4   9  16  28  51  80 111 151 194 237 286 341
#     4   9  19  37  60  85 113 146 188 237 283 331
#     4  10  20  35  55  79 110 148 190 239 292 341
#
# _framework density 19.35529
#
# number of rings (size 3 to 8) (size 9 to 14) (size 15 to 20)
#    0.000    2.091    1.818    3.273    0.000    4.727 
#    0.000    0.455    0.000    5.455    0.000    5.091 
#    0.000    0.000    0.000    0.000    0.000    0.909 
#
# Total GULP energy -245469.757606 kJ/mol
# GULP energy per Si atom -5578.858127 kJ/mol
# Density = 1.931124 g / cm^3
# Si number density = 19.355290 Si / 1000 Ang^3
#
#
#
# Elastic Constant Matrix: (Units=GPa)
#
#
# Indices 1 2 3 4 5 6 
#
# 1 155.3093 30.6034 62.5892 0.0000 0.0000 0.0000
# 2 30.6034 65.8064 51.0863 0.0000 0.0000 0.0000
# 3 62.5892 51.0863 118.9570 0.0000 0.0000 0.0000
# 4 0.0000 0.0000 0.0000 19.9641 0.0000 0.0000
# 5 0.0000 0.0000 0.0000 0.0000 -15.0918 0.0000
# 6 0.0000 0.0000 0.0000 0.0000 0.0000 19.2116
#
#
#
# Elastic Compliance Matrix: (Units=1/GPa)
#
#
# Indices 1 2 3 4 5 6 
#
# 1 0.008193 -0.000696 -0.004012 0.000000 0.000000 0.000000
# 2 -0.000696 0.022855 -0.009449 0.000000 0.000000 0.000000
# 3 -0.004012 -0.009449 0.014575 0.000000 0.000000 0.000000
# 4 0.000000 0.000000 0.000000 0.050090 0.000000 0.000000
# 5 0.000000 0.000000 0.000000 0.000000 -0.066261 0.000000
# 6 0.000000 0.000000 0.000000 0.000000 0.000000 0.052052
#
#
# Mechanical properties :
#
#
# Convention : Reuss Voigt Hill
#
# Bulk Modulus (GPa) = 57.77102 69.84784 63.80943
# Shear Modulus (GPa) = 43.25765 17.86971 30.56368
#
# Velocity S-wave (km/s) = 4.73263 3.04179 3.97808
# Velocity P-wave (km/s) = 7.73151 6.96435 7.35793
#
# Compressibility (1/GPa) = 0.01730972
#
# Stress axis : x y z
#
# Youngs Moduli (GPa) = 122.06189 43.75397 68.60981
#
# Poissons Ratio (x) = 0.03043 0.27525
# Poissons Ratio (y) = 0.08490 0.64831
# Poissons Ratio (z) = 0.48969 0.41344
#
# Static dielectric constant tensor:
#      x y z
#    x 1.788860 0.000000 0.000000 
#    y 0.000000 1.700780 0.000000 
#    z 0.000000 0.000000 1.657140 
# 
# From -- ./inp_files/62445.got.cif
#   From: 2010.05.17/outbox.cif.g08.bks.cpg/sg65_32_cif.got.tgz:62445.got - 2010.06.03 17:01:31.
