data_PCOD9489073
_publ_section_title
;
Structure prediction by ZEFSAII (Michael W. Deem and Ramdas Pophale) SiO2 
 PCOD9489073
Probable space group: C M M M
;
_chemical_formula_sum "Si O2"
_cell_formula_units_Z 80
_cell_length_a 29.622158
_cell_length_b 8.144373
_cell_length_c 22.981977
_cell_angle_alpha 90.000000
_cell_angle_beta 90.000000
_cell_angle_gamma 90.000000
_cell_volume 5544.491669
_symmetry_space_group_name_H-M "C M M M"
_symmetry_group_IT_number 65
_symmetry_cell_setting 'orthorhombic'
loop_
_space_group_symop_operation_xyz
x,y,z
-x,-y,z
x,-y,-z
-x,y,-z
-x,-y,-z
x,y,-z
-x,y,z
x,-y,z
1/2+x,1/2+y,z
1/2-x,1/2-y,z
1/2+x,1/2-y,-z
1/2-x,1/2+y,-z
1/2-x,1/2-y,-z
1/2+x,1/2+y,-z
1/2-x,1/2+y,z
1/2+x,1/2-y,z
loop_
_atom_site_type_symbol
_atom_site_label
_atom_site_fract_x
_atom_site_fract_y
_atom_site_fract_z
Si Si1 0.945139 0.189472 0.855896
Si Si2 0.444969 0.000000 0.932673
Si Si3 0.799557 0.195641 0.433461
Si Si4 0.606984 0.804762 0.386643
Si Si5 0.448791 0.302848 0.724161
Si Si6 0.052224 0.299011 0.500000
O O1 0.930436 0.332712 0.899854
O O2 0.933656 0.240219 0.789608
O O3 0.000000 0.184350 0.857524
O O4 0.930175 0.000000 0.867292
O O5 0.500000 0.000000 0.931212
O O6 0.431155 0.000000 0.000000
O O7 0.805649 0.260331 0.500000
O O8 0.750000 0.250000 0.413396
O O9 0.841382 0.252713 0.395097
O O10 0.800233 0.000000 0.435875
O O11 0.584104 0.750195 0.326935
O O12 0.578279 0.741529 0.442217
O O13 0.605025 0.000000 0.389038
O O14 0.500000 0.238807 0.714418
O O15 0.451314 0.500000 0.723768
O O16 0.052720 0.500000 0.500000
O O17 0.000000 0.248008 0.500000
#
# Coordination Sequence:
#
# PCOD9489073 Si02
#       6
#    16   8  16  16  16   8
#     4   8  15  27  40  55  80 112 145 184 223 259
#     4   9  16  24  38  60  82 107 145 187 221 258
#     4  10  20  34  51  66  83 105 134 175 224 271
#     4  11  20  30  46  65  85 109 142 180 222 272
#     4   9  18  31  44  60  84 115 150 186 221 261
#     4   9  18  30  40  57  86 111 136 177 224 263
#
# _framework density 14.428735
#
# number of rings (size 3 to 8) (size 9 to 14) (size 15 to 20)
#    0.000    2.600    1.000    3.000    1.400    2.400 
#    0.000    2.000    0.000    2.400    0.000    0.000 
#    0.000    0.000    0.000    0.000    0.000    1.000 
#
# Total GULP energy -222878.785582 kJ/mol
# GULP energy per Si atom -5571.969640 kJ/mol
# Density = 1.439589 g / cm^3
# Si number density = 14.428735 Si / 1000 Ang^3
#
#
#
# Elastic Constant Matrix: (Units=GPa)
#
#
# Indices 1 2 3 4 5 6 
#
# 1 72.4368 19.6123 56.0668 0.0000 0.0000 0.0000
# 2 19.6123 49.6401 57.4635 0.0000 0.0000 0.0000
# 3 56.0668 57.4635 123.3024 0.0000 0.0000 0.0000
# 4 0.0000 0.0000 0.0000 19.5540 0.0000 0.0000
# 5 0.0000 0.0000 0.0000 0.0000 2.7334 0.0000
# 6 0.0000 0.0000 0.0000 0.0000 0.0000 13.6513
#
#
#
# Elastic Compliance Matrix: (Units=1/GPa)
#
#
# Indices 1 2 3 4 5 6 
#
# 1 0.022180 0.006323 -0.013032 0.000000 0.000000 0.000000
# 2 0.006323 0.045547 -0.024102 0.000000 0.000000 0.000000
# 3 -0.013032 -0.024102 0.025269 0.000000 0.000000 0.000000
# 4 0.000000 0.000000 0.000000 0.051141 0.000000 0.000000
# 5 0.000000 0.000000 0.000000 0.000000 0.365845 0.000000
# 6 0.000000 0.000000 0.000000 0.000000 0.000000 0.073253
#
#
# Mechanical properties :
#
#
# Convention : Reuss Voigt Hill
#
# Bulk Modulus (GPa) = 31.87382 56.85162 44.36272
# Shear Modulus (GPa) = 7.62992 14.67017 11.15004
#
# Velocity S-wave (km/s) = 2.30206 3.19208 2.78288
# Velocity P-wave (km/s) = 5.40411 7.28513 6.41395
#
# Compressibility (1/GPa) = 0.03137371
#
# Stress axis : x y z
#
# Youngs Moduli (GPa) = 45.08491 21.95521 39.57495
#
# Poissons Ratio (x) = -0.13883 0.51576
# Poissons Ratio (y) = -0.28508 0.95383
# Poissons Ratio (z) = 0.58757 0.52916
#
# Static dielectric constant tensor:
#      x y z
#    x 1.426620 0.000000 0.000000 
#    y 0.000000 1.501450 0.000000 
#    z 0.000000 0.000000 1.485770 
# 
# From -- ./inp_files/59643.got.cif
#   From: 2010.05.17/outbox.cif.g08.bks.cpg/sg65_30_cif.got.tgz:59643.got - 2010.06.03 17:01:31.
