data_PCOD9489177
_publ_section_title
;
Structure prediction by ZEFSAII (Michael W. Deem and Ramdas Pophale) SiO2 
 PCOD9489177
Probable space group: C M M M
;
_chemical_formula_sum "Si O2"
_cell_formula_units_Z 96
_cell_length_a 20.783815
_cell_length_b 8.249912
_cell_length_c 30.925308
_cell_angle_alpha 90.000000
_cell_angle_beta 90.000000
_cell_angle_gamma 90.000000
_cell_volume 5302.596951
_symmetry_space_group_name_H-M "C M M M"
_symmetry_group_IT_number 65
_symmetry_cell_setting 'orthorhombic'
loop_
_space_group_symop_operation_xyz
x,y,z
-x,-y,z
x,-y,-z
-x,y,-z
-x,-y,-z
x,y,-z
-x,y,z
x,-y,z
1/2+x,1/2+y,z
1/2-x,1/2-y,z
1/2+x,1/2-y,-z
1/2-x,1/2+y,-z
1/2-x,1/2-y,-z
1/2+x,1/2+y,-z
1/2-x,1/2+y,z
1/2+x,1/2-y,z
loop_
_atom_site_type_symbol
_atom_site_label
_atom_site_fract_x
_atom_site_fract_y
_atom_site_fract_z
Si Si1 0.926530 0.302187 0.950742
Si Si2 0.678404 0.804042 0.881915
Si Si3 0.321541 0.806312 0.216863
Si Si4 0.926762 0.806283 0.714805
Si Si5 0.178232 0.695916 0.549476
Si Si6 0.073264 0.304386 0.618263
O O1 0.925859 0.500000 0.950274
O O2 0.875276 0.245546 0.915511
O O3 0.000000 0.252658 0.941098
O O4 0.910981 0.252628 0.000000
O O5 0.750000 0.750000 0.894523
O O6 0.666908 0.747928 0.832511
O O7 0.676775 0.000000 0.881731
O O8 0.250000 0.750000 0.229749
O O9 0.376034 0.748483 0.249531
O O10 0.321905 0.000000 0.216269
O O11 0.908972 0.744950 0.666953
O O12 0.000000 0.748101 0.723911
O O13 0.927781 0.000000 0.713818
O O14 0.166341 0.750556 0.500000
O O15 0.176859 0.500000 0.549452
O O16 0.250000 0.750000 0.561833
O O17 0.124338 0.754529 0.582925
O O18 0.072523 0.500000 0.616294
O O19 0.000000 0.247118 0.610101
#
# Coordination Sequence:
#
# PCOD9489177 Si02
#       6
#    16  16  16  16  16  16
#     4   8  14  26  45  69  96 125 159 198 236 277
#     4   9  18  31  48  71  97 125 158 197 240 286
#     4  10  20  34  52  73  99 130 165 206 249 295
#     4  10  21  36  53  74 101 131 164 204 249 297
#     4   9  18  32  50  73 100 129 161 198 240 286
#     4   9  18  33  52  73  98 129 165 203 242 286
#
# _framework density 18.104336
#
# number of rings (size 3 to 8) (size 9 to 14) (size 15 to 20)
#    0.000    2.833    0.000    1.500    0.000    4.333 
#    0.000    5.000    0.000    0.500    0.000    5.833 
#    0.000    0.000    0.000    0.000    0.000    0.000 
#
# Total GULP energy -267645.367132 kJ/mol
# GULP energy per Si atom -5575.945149 kJ/mol
# Density = 1.806313 g / cm^3
# Si number density = 18.104336 Si / 1000 Ang^3
#
#
#
# Elastic Constant Matrix: (Units=GPa)
#
#
# Indices 1 2 3 4 5 6 
#
# 1 159.0828 13.1631 135.3417 0.0000 0.0000 0.0000
# 2 13.1631 10.3676 13.0586 0.0000 0.0000 0.0000
# 3 135.3417 13.0586 138.8187 0.0000 0.0000 0.0000
# 4 0.0000 0.0000 0.0000 10.4225 0.0000 0.0000
# 5 0.0000 0.0000 0.0000 0.0000 45.3737 0.0000
# 6 0.0000 0.0000 0.0000 0.0000 0.0000 25.5399
#
#
#
# Elastic Compliance Matrix: (Units=1/GPa)
#
#
# Indices 1 2 3 4 5 6 
#
# 1 0.036886 -0.001742 -0.035798 0.000000 0.000000 0.000000
# 2 -0.001742 0.109501 -0.008602 0.000000 0.000000 0.000000
# 3 -0.035798 -0.008602 0.042914 0.000000 0.000000 0.000000
# 4 0.000000 0.000000 0.000000 0.095946 0.000000 0.000000
# 5 0.000000 0.000000 0.000000 0.000000 0.022039 0.000000
# 6 0.000000 0.000000 0.000000 0.000000 0.000000 0.039154
#
#
# Mechanical properties :
#
#
# Convention : Reuss Voigt Hill
#
# Bulk Modulus (GPa) = 10.30757 70.15509 40.23133
# Shear Modulus (GPa) = 10.61428 26.04762 18.33095
#
# Velocity S-wave (km/s) = 2.42396 3.79720 3.18546
# Velocity P-wave (km/s) = 3.67966 7.61968 5.98329
#
# Compressibility (1/GPa) = 0.09701606
#
# Stress axis : x y z
#
# Youngs Moduli (GPa) = 27.11076 9.13237 23.30232
#
# Poissons Ratio (x) = 0.01591 0.83418
# Poissons Ratio (y) = 0.04722 0.20046
# Poissons Ratio (z) = 0.97051 0.07856
#
# Static dielectric constant tensor:
#      x y z
#    x 1.594540 0.000000 0.000000 
#    y 0.000000 1.631360 0.000000 
#    z 0.000000 0.000000 1.610910 
# 
# From -- ./inp_files/73108.got.cif
#   From: 2010.05.17/outbox.cif.g08.bks.cpg/sg65_37_cif.got.tgz:73108.got - 2010.06.03 17:01:31.
