data_PCOD9489188
_publ_section_title
;
Structure prediction by ZEFSAII (Michael W. Deem and Ramdas Pophale) SiO2 
 PCOD9489188
Probable space group: C M M M
;
_chemical_formula_sum "Si O2"
_cell_formula_units_Z 104
_cell_length_a 24.184257
_cell_length_b 8.440935
_cell_length_c 29.394873
_cell_angle_alpha 90.000000
_cell_angle_beta 90.000000
_cell_angle_gamma 90.000000
_cell_volume 6000.602982
_symmetry_space_group_name_H-M "C M M M"
_symmetry_group_IT_number 65
_symmetry_cell_setting 'orthorhombic'
loop_
_space_group_symop_operation_xyz
x,y,z
-x,-y,z
x,-y,-z
-x,y,-z
-x,-y,-z
x,y,-z
-x,y,z
x,-y,z
1/2+x,1/2+y,z
1/2-x,1/2-y,z
1/2+x,1/2-y,-z
1/2-x,1/2+y,-z
1/2-x,1/2-y,-z
1/2+x,1/2+y,-z
1/2-x,1/2+y,z
1/2+x,1/2-y,z
loop_
_atom_site_type_symbol
_atom_site_label
_atom_site_fract_x
_atom_site_fract_y
_atom_site_fract_z
Si Si1 0.389465 0.811568 0.596633
Si Si2 0.934822 0.306484 0.500000
Si Si3 0.500000 0.314377 0.642114
Si Si4 0.312977 0.191962 0.852028
Si Si5 0.877167 0.309526 0.763003
Si Si6 0.000000 0.309765 0.741955
Si Si7 0.313494 0.808528 0.951065
Si Si8 0.687547 0.312260 0.674241
O O1 0.401873 0.755900 0.545163
O O2 0.445888 0.768813 0.622541
O O3 0.340278 0.739867 0.626622
O O4 0.381775 0.000000 0.595635
O O5 0.936571 0.500000 0.500000
O O6 0.000000 0.255970 0.500000
O O7 0.500000 0.500000 0.630621
O O8 0.500000 0.287697 0.695622
O O9 0.250000 0.250000 0.848845
O O10 0.345888 0.249426 0.807944
O O11 0.336211 0.242334 0.901732
O O12 0.313130 0.000000 0.851175
O O13 0.871841 0.500000 0.761379
O O14 0.849759 0.247664 0.716477
O O15 0.942227 0.273176 0.766059
O O16 0.000000 0.500000 0.731777
O O17 0.250000 0.750000 0.951036
O O18 0.313679 0.000000 0.951158
O O19 0.337889 0.755972 0.000000
O O20 0.688416 0.500000 0.676065
O O21 0.750000 0.250000 0.678528
#
# Coordination Sequence:
#
# PCOD9489188 Si02
#       8
#    16   8   8  16  16   8  16  16
#     4  11  21  38  61  84 111 141 174 212 256 302
#     4   9  18  34  59  88 111 138 173 209 252 302
#     4  12  22  33  53  84 113 139 171 213 258 303
#     4   9  17  28  43  66  95 127 165 205 249 305
#     4  10  20  34  52  74 100 133 171 211 256 305
#     4  10  20  34  53  73  99 136 173 210 256 303
#     4   8  13  22  37  58  86 120 157 200 249 298
#     4  12  25  40  57  79 106 138 176 212 254 309
#
# _framework density 17.331591
#
# number of rings (size 3 to 8) (size 9 to 14) (size 15 to 20)
#    0.000    1.923    2.308    3.000    0.000    1.846 
#    0.000    2.308    0.000    0.000    0.000    0.538 
#    0.000    4.308    0.000    0.000    0.000   75.231 
#
# Total GULP energy -289835.973271 kJ/mol
# GULP energy per Si atom -5573.768717 kJ/mol
# Density = 1.729214 g / cm^3
# Si number density = 17.331591 Si / 1000 Ang^3
#
#
#
# Elastic Constant Matrix: (Units=GPa)
#
#
# Indices 1 2 3 4 5 6 
#
# 1 100.6729 22.4326 61.2275 0.0000 0.0000 0.0000
# 2 22.4326 23.0221 27.1714 0.0000 0.0000 0.0000
# 3 61.2275 27.1714 162.7978 0.0000 0.0000 0.0000
# 4 0.0000 0.0000 0.0000 8.7399 0.0000 0.0000
# 5 0.0000 0.0000 0.0000 0.0000 12.5775 0.0000
# 6 0.0000 0.0000 0.0000 0.0000 0.0000 17.3069
#
#
#
# Elastic Compliance Matrix: (Units=1/GPa)
#
#
# Indices 1 2 3 4 5 6 
#
# 1 0.014373 -0.009495 -0.003821 0.000000 0.000000 0.000000
# 2 -0.009495 0.060365 -0.006504 0.000000 0.000000 0.000000
# 3 -0.003821 -0.006504 0.008665 0.000000 0.000000 0.000000
# 4 0.000000 0.000000 0.000000 0.114417 0.000000 0.000000
# 5 0.000000 0.000000 0.000000 0.000000 0.079507 0.000000
# 6 0.000000 0.000000 0.000000 0.000000 0.000000 0.057780
#
#
# Mechanical properties :
#
#
# Convention : Reuss Voigt Hill
#
# Bulk Modulus (GPa) = 22.85051 56.46176 39.65613
# Shear Modulus (GPa) = 12.84242 19.43562 16.13902
#
# Velocity S-wave (km/s) = 2.72505 3.35236 3.05485
# Velocity P-wave (km/s) = 4.80772 6.90163 5.94755
#
# Compressibility (1/GPa) = 0.04376271
#
# Stress axis : x y z
#
# Youngs Moduli (GPa) = 69.57660 16.56593 115.40601
#
# Poissons Ratio (x) = 0.15730 0.44093
# Poissons Ratio (y) = 0.66065 0.75059
# Poissons Ratio (z) = 0.26583 0.10774
#
# Static dielectric constant tensor:
#      x y z
#    x 1.568220 0.000000 0.000000 
#    y 0.000000 1.587310 0.000000 
#    z 0.000000 0.000000 1.638940 
# 
# From -- ./inp_files/78398.got.cif
#   From: 2010.05.17/outbox.cif.g08.bks.cpg/sg65_40_cif.got.tgz:78398.got - 2010.06.03 17:01:31.
