data_PCOD9489458
_publ_section_title
;
Structure prediction by ZEFSAII (Michael W. Deem and Ramdas Pophale) SiO2 
 PCOD9489458
Probable space group: C M M M
;
_chemical_formula_sum "Si O2"
_cell_formula_units_Z 104
_cell_length_a 26.582129
_cell_length_b 9.108958
_cell_length_c 22.174770
_cell_angle_alpha 90.000000
_cell_angle_beta 90.000000
_cell_angle_gamma 90.000000
_cell_volume 5369.298946
_symmetry_space_group_name_H-M "C M M M"
_symmetry_group_IT_number 65
_symmetry_cell_setting 'orthorhombic'
loop_
_space_group_symop_operation_xyz
x,y,z
-x,-y,z
x,-y,-z
-x,y,-z
-x,-y,-z
x,y,-z
-x,y,z
x,-y,z
1/2+x,1/2+y,z
1/2-x,1/2-y,z
1/2+x,1/2-y,-z
1/2-x,1/2+y,-z
1/2-x,1/2-y,-z
1/2+x,1/2+y,-z
1/2-x,1/2+y,z
1/2+x,1/2-y,z
loop_
_atom_site_type_symbol
_atom_site_label
_atom_site_fract_x
_atom_site_fract_y
_atom_site_fract_z
Si Si1 0.199169 0.825093 0.646880
Si Si2 0.000000 0.331393 0.426392
Si Si3 0.944350 0.676050 0.185857
Si Si4 0.837618 0.328430 0.764099
Si Si5 0.405929 0.675168 0.933142
Si Si6 0.898392 0.824464 0.429217
Si Si7 0.697688 0.827365 0.901773
O O1 0.250000 0.750000 0.624498
O O2 0.188608 0.770613 0.714558
O O3 0.150809 0.781098 0.607618
O O4 0.204312 0.000000 0.645066
O O5 0.949030 0.252480 0.406588
O O6 0.000000 0.500000 0.407722
O O7 0.000000 0.325059 0.500000
O O8 0.940752 0.500000 0.176861
O O9 0.896152 0.715712 0.226420
O O10 0.936664 0.753272 0.121403
O O11 0.000000 0.709986 0.210112
O O12 0.835470 0.500000 0.745794
O O13 0.811644 0.316638 0.829489
O O14 0.402715 0.500000 0.924601
O O15 0.350264 0.745521 0.929707
O O16 0.426984 0.703743 0.000000
O O17 0.891799 0.788949 0.500000
O O18 0.904640 0.000000 0.424517
O O19 0.750000 0.750000 0.917636
O O20 0.697958 0.000000 0.917533
#
# Coordination Sequence:
#
# PCOD9489458 Si02
#       7
#    16   8  16  16  16  16  16
#     4  11  23  37  56  82 112 147 188 230 276 331
#     4   9  17  31  55  85 111 139 181 229 272 317
#     4   9  19  37  59  80 104 137 177 219 268 325
#     4   9  19  36  56  78 106 138 176 220 270 324
#     4  10  21  35  51  75 107 140 175 216 263 316
#     4   9  19  37  58  80 112 153 190 227 276 332
#     4  10  20  34  54  77 101 135 176 218 266 320
#
# _framework density 19.369381000000001
#
# number of rings (size 3 to 8) (size 9 to 14) (size 15 to 20)
#    0.000    2.385    0.000    3.000    0.000    8.923 
#    1.385    1.538    0.000    0.000    0.000    0.000 
#    0.000    0.000    0.000    0.000    0.000    0.000 
#
# Total GULP energy -290363.108222 kJ/mol
# GULP energy per Si atom -5583.905927 kJ/mol
# Density = 1.932530 g / cm^3
# Si number density = 19.369381 Si / 1000 Ang^3
#
#
#
# Elastic Constant Matrix: (Units=GPa)
#
#
# Indices 1 2 3 4 5 6 
#
# 1 131.7583 40.1377 21.5286 0.0000 0.0000 0.0000
# 2 40.1377 41.8118 19.4496 0.0000 0.0000 0.0000
# 3 21.5286 19.4496 34.6587 0.0000 0.0000 0.0000
# 4 0.0000 0.0000 0.0000 18.5695 0.0000 0.0000
# 5 0.0000 0.0000 0.0000 0.0000 -7.0251 0.0000
# 6 0.0000 0.0000 0.0000 0.0000 0.0000 31.4802
#
#
#
# Elastic Compliance Matrix: (Units=1/GPa)
#
#
# Indices 1 2 3 4 5 6 
#
# 1 0.010763 -0.009774 -0.001201 0.000000 0.000000 0.000000
# 2 -0.009774 0.041240 -0.017072 0.000000 0.000000 0.000000
# 3 -0.001201 -0.017072 0.039179 0.000000 0.000000 0.000000
# 4 0.000000 0.000000 0.000000 0.053852 0.000000 0.000000
# 5 0.000000 0.000000 0.000000 0.000000 -0.142347 0.000000
# 6 0.000000 0.000000 0.000000 0.000000 0.000000 0.031766
#
#
# Mechanical properties :
#
#
# Convention : Reuss Voigt Hill
#
# Bulk Modulus (GPa) = 28.49858 41.16228 34.83043
# Shear Modulus (GPa) = 48.90321 17.07913 32.99117
#
# Velocity S-wave (km/s) = 5.03016 2.97266 4.13154
# Velocity P-wave (km/s) = 6.96289 5.75149 6.38598
#
# Compressibility (1/GPa) = 0.03508947
#
# Stress axis : x y z
#
# Youngs Moduli (GPa) = 92.90884 24.24811 25.52380
#
# Poissons Ratio (x) = 0.23699 0.03065
# Poissons Ratio (y) = 0.90806 0.43574
# Poissons Ratio (z) = 0.11158 0.41396
#
# Static dielectric constant tensor:
#      x y z
#    x 1.679490 0.000000 0.000000 
#    y 0.000000 1.642980 0.000000 
#    z 0.000000 0.000000 1.672750 
# 
# From -- ./inp_files/65857.got.cif
#   From: 2010.05.17/outbox.cif.g08.bks.cpg/sg65_33_cif.got.tgz:65857.got - 2010.06.03 17:01:31.
