data_PCOD9489794
_publ_section_title
;
Structure prediction by ZEFSAII (Michael W. Deem and Ramdas Pophale) SiO2 
 PCOD9489794
Probable space group: C M M M
;
_chemical_formula_sum "Si O2"
_cell_formula_units_Z 88
_cell_length_a 13.992473
_cell_length_b 17.204438
_cell_length_c 21.624019
_cell_angle_alpha 90.000000
_cell_angle_beta 90.000000
_cell_angle_gamma 90.000000
_cell_volume 5205.607056
_symmetry_space_group_name_H-M "C M M M"
_symmetry_group_IT_number 65
_symmetry_cell_setting 'orthorhombic'
loop_
_space_group_symop_operation_xyz
x,y,z
-x,-y,z
x,-y,-z
-x,y,-z
-x,-y,-z
x,y,-z
-x,y,z
x,-y,z
1/2+x,1/2+y,z
1/2-x,1/2-y,z
1/2+x,1/2-y,-z
1/2-x,1/2+y,-z
1/2-x,1/2-y,-z
1/2+x,1/2+y,-z
1/2-x,1/2+y,z
1/2+x,1/2-y,z
loop_
_atom_site_type_symbol
_atom_site_label
_atom_site_fract_x
_atom_site_fract_y
_atom_site_fract_z
Si Si1 0.390503 0.905442 0.298774
Si Si2 0.112820 0.811966 0.118745
Si Si3 0.386237 0.135668 0.927506
Si Si4 0.884002 0.591552 0.566619
Si Si5 0.740883 0.088640 0.182950
Si Si6 0.115750 0.086567 0.000000
O O1 0.500000 0.879227 0.288411
O O2 0.354621 0.877024 0.366161
O O3 0.323700 0.887421 0.241217
O O4 0.393776 0.000000 0.302177
O O5 0.129134 0.724531 0.095478
O O6 0.177226 0.847352 0.172540
O O7 0.000000 0.819720 0.131686
O O8 0.139872 0.866170 0.060757
O O9 0.500000 0.119331 0.923316
O O10 0.326535 0.087919 0.877809
O O11 0.359634 0.127229 0.000000
O O12 0.852704 0.625218 0.500000
O O13 0.858435 0.500000 0.565586
O O14 0.000000 0.594565 0.567722
O O15 0.777590 0.000000 0.191777
O O16 0.000000 0.081893 0.000000
O O17 0.155315 0.000000 0.000000
#
# Coordination Sequence:
#
# PCOD9489794 Si02
#       6
#    16  16  16  16  16   8
#     4   8  14  25  38  56  88 122 146 171 209 259
#     4  10  20  35  51  65  82 108 146 192 233 266
#     4  10  21  37  52  64  83 113 149 186 224 266
#     4   7   9  15  31  54  79 111 147 175 201 241
#     4  11  22  31  45  68  93 120 146 175 219 273
#     4   9  16  28  47  66  80  96 127 179 236 272
#
# _framework density 16.904848999999999
#
# number of rings (size 3 to 8) (size 9 to 14) (size 15 to 20)
#    0.000    2.818    0.909    3.273    1.273    3.273 
#    0.000    0.909    0.000    0.000    0.000    0.000 
#    0.000    3.636    0.000   11.455    0.000    4.000 
#
# Total GULP energy -245070.840298 kJ/mol
# GULP energy per Si atom -5569.791825 kJ/mol
# Density = 1.686637 g / cm^3
# Si number density = 16.904849 Si / 1000 Ang^3
#
#
#
# Elastic Constant Matrix: (Units=GPa)
#
#
# Indices 1 2 3 4 5 6 
#
# 1 43.7907 7.2430 48.2014 0.0000 0.0000 0.0000
# 2 7.2430 33.1728 12.3413 0.0000 0.0000 0.0000
# 3 48.2014 12.3413 137.1604 0.0000 0.0000 0.0000
# 4 0.0000 0.0000 0.0000 2.7861 0.0000 0.0000
# 5 0.0000 0.0000 0.0000 0.0000 12.2962 0.0000
# 6 0.0000 0.0000 0.0000 0.0000 0.0000 7.9042
#
#
#
# Elastic Compliance Matrix: (Units=1/GPa)
#
#
# Indices 1 2 3 4 5 6 
#
# 1 0.037611 -0.003409 -0.012911 0.000000 0.000000 0.000000
# 2 -0.003409 0.031498 -0.001636 0.000000 0.000000 0.000000
# 3 -0.012911 -0.001636 0.011975 0.000000 0.000000 0.000000
# 4 0.000000 0.000000 0.000000 0.358927 0.000000 0.000000
# 5 0.000000 0.000000 0.000000 0.000000 0.081326 0.000000
# 6 0.000000 0.000000 0.000000 0.000000 0.000000 0.126515
#
#
# Mechanical properties :
#
#
# Convention : Reuss Voigt Hill
#
# Bulk Modulus (GPa) = 22.13725 38.85501 30.49613
# Shear Modulus (GPa) = 7.15491 14.35318 10.75404
#
# Velocity S-wave (km/s) = 2.05953 2.91702 2.52494
# Velocity P-wave (km/s) = 4.33349 5.86343 5.15553
#
# Compressibility (1/GPa) = 0.04517274
#
# Stress axis : x y z
#
# Youngs Moduli (GPa) = 26.58823 31.74789 83.50715
#
# Poissons Ratio (x) = 0.10822 1.07812
# Poissons Ratio (y) = 0.09063 0.13663
# Poissons Ratio (z) = 0.34327 0.05194
#
# Static dielectric constant tensor:
#      x y z
#    x 1.591890 0.000000 0.000000 
#    y 0.000000 1.598790 0.000000 
#    z 0.000000 0.000000 1.615670 
# 
# From -- ./inp_files/62781.got.cif
#   From: 2010.05.17/outbox.cif.g08.bks.cpg/sg65_32_cif.got.tgz:62781.got - 2010.06.03 17:01:31.
