data_PCOD9489622
_publ_section_title
;
Structure prediction by ZEFSAII (Michael W. Deem and Ramdas Pophale) SiO2 
 PCOD9489622
Probable space group: C M M M
;
_chemical_formula_sum "Si O2"
_cell_formula_units_Z 80
_cell_length_a 18.427970
_cell_length_b 8.961801
_cell_length_c 26.573915
_cell_angle_alpha 90.000000
_cell_angle_beta 90.000000
_cell_angle_gamma 90.000000
_cell_volume 4388.623599
_symmetry_space_group_name_H-M "C M M M"
_symmetry_group_IT_number 65
_symmetry_cell_setting 'orthorhombic'
loop_
_space_group_symop_operation_xyz
x,y,z
-x,-y,z
x,-y,-z
-x,y,-z
-x,-y,-z
x,y,-z
-x,y,z
x,-y,z
1/2+x,1/2+y,z
1/2-x,1/2-y,z
1/2+x,1/2-y,-z
1/2-x,1/2+y,-z
1/2-x,1/2-y,-z
1/2+x,1/2+y,-z
1/2-x,1/2+y,z
1/2+x,1/2-y,z
loop_
_atom_site_type_symbol
_atom_site_label
_atom_site_fract_x
_atom_site_fract_y
_atom_site_fract_z
Si Si1 0.911835 0.827896 0.205001
Si Si2 0.170526 0.820838 0.599845
Si Si3 0.916873 0.818576 0.500000
Si Si4 0.586284 0.679220 0.092351
Si Si5 0.829197 0.322181 0.000000
Si Si6 0.413153 0.824259 0.692023
O O1 0.889191 0.779193 0.149036
O O2 0.889724 0.729302 0.252392
O O3 0.000000 0.827177 0.203695
O O4 0.889519 0.000000 0.212811
O O5 0.250000 0.750000 0.598463
O O6 0.125599 0.773309 0.550251
O O7 0.128253 0.765772 0.649127
O O8 0.175731 0.000000 0.600010
O O9 0.000000 0.765689 0.500000
O O10 0.918702 0.000000 0.500000
O O11 0.500000 0.708014 0.087929
O O12 0.596075 0.500000 0.087150
O O13 0.628443 0.764450 0.049148
O O14 0.750000 0.250000 0.000000
O O15 0.824577 0.500000 0.000000
O O16 0.500000 0.797842 0.687709
O O17 0.400057 0.000000 0.686091
#
# Coordination Sequence:
#
# PCOD9489622 Si02
#       6
#    16  16   8  16   8  16
#     4   8  15  30  54  82 109 140 178 219 266 318
#     4  11  22  37  57  80 111 147 183 224 269 321
#     4   9  19  36  59  85 108 137 180 225 270 322
#     4   9  18  35  59  84 110 140 176 220 269 322
#     4  12  25  38  53  75 107 145 183 224 271 324
#     4  10  20  34  54  82 114 145 180 223 268 316
#
# _framework density 18.228950000000001
#
# number of rings (size 3 to 8) (size 9 to 14) (size 15 to 20)
#    0.000    2.300    0.000    4.500    0.000    4.400 
#    0.000    4.500    0.000    8.400    0.000    0.000 
#    0.000    0.000    0.000    0.000    0.000    0.000 
#
# Total GULP energy -223264.816996 kJ/mol
# GULP energy per Si atom -5581.620425 kJ/mol
# Density = 1.818746 g / cm^3
# Si number density = 18.228950 Si / 1000 Ang^3
#
#
#
# Elastic Constant Matrix: (Units=GPa)
#
#
# Indices 1 2 3 4 5 6 
#
# 1 78.3912 60.9392 75.2175 0.0000 0.0000 0.0000
# 2 60.9392 76.8090 79.5254 0.0000 0.0000 0.0000
# 3 75.2175 79.5254 183.2742 0.0000 0.0000 0.0000
# 4 0.0000 0.0000 0.0000 14.0944 0.0000 0.0000
# 5 0.0000 0.0000 0.0000 0.0000 -15.2854 0.0000
# 6 0.0000 0.0000 0.0000 0.0000 0.0000 23.8561
#
#
#
# Elastic Compliance Matrix: (Units=1/GPa)
#
#
# Indices 1 2 3 4 5 6 
#
# 1 0.034981 -0.023404 -0.004201 0.000000 0.000000 0.000000
# 2 -0.023404 0.039297 -0.007447 0.000000 0.000000 0.000000
# 3 -0.004201 -0.007447 0.010412 0.000000 0.000000 0.000000
# 4 0.000000 0.000000 0.000000 0.070950 0.000000 0.000000
# 5 0.000000 0.000000 0.000000 0.000000 -0.065422 0.000000
# 6 0.000000 0.000000 0.000000 0.000000 0.000000 0.041918
#
#
# Mechanical properties :
#
#
# Convention : Reuss Voigt Hill
#
# Bulk Modulus (GPa) = 68.55395 85.53763 77.04579
# Shear Modulus (GPa) = 24.14265 12.71917 18.43091
#
# Velocity S-wave (km/s) = 3.64320 2.64435 3.18320
# Velocity P-wave (km/s) = 7.44218 7.50662 7.47447
#
# Compressibility (1/GPa) = 0.01458705
#
# Stress axis : x y z
#
# Youngs Moduli (GPa) = 28.58681 25.44697 96.04429
#
# Poissons Ratio (x) = 0.59555 0.40353
# Poissons Ratio (y) = 0.66903 0.71521
# Poissons Ratio (z) = 0.12011 0.18950
#
# Static dielectric constant tensor:
#      x y z
#    x 1.604680 0.000000 0.000000 
#    y 0.000000 1.605210 0.000000 
#    z 0.000000 0.000000 1.620760 
# 
# From -- ./inp_files/75044.got.cif
#   From: 2010.05.17/outbox.cif.g08.bks.cpg/sg65_38_cif.got.tgz:75044.got - 2010.06.03 17:01:31.
