data_PCOD9489217
_publ_section_title
;
Structure prediction by ZEFSAII (Michael W. Deem and Ramdas Pophale) SiO2 
 PCOD9489217
Probable space group: C M M M
;
_chemical_formula_sum "Si O2"
_cell_formula_units_Z 88
_cell_length_a 9.108990
_cell_length_b 17.018688
_cell_length_c 30.016001
_cell_angle_alpha 90.000000
_cell_angle_beta 90.000000
_cell_angle_gamma 90.000000
_cell_volume 4653.172288
_symmetry_space_group_name_H-M "C M M M"
_symmetry_group_IT_number 65
_symmetry_cell_setting 'orthorhombic'
loop_
_space_group_symop_operation_xyz
x,y,z
-x,-y,z
x,-y,-z
-x,y,-z
-x,-y,-z
x,y,-z
-x,y,z
x,-y,z
1/2+x,1/2+y,z
1/2-x,1/2-y,z
1/2+x,1/2-y,-z
1/2-x,1/2+y,-z
1/2-x,1/2-y,-z
1/2+x,1/2+y,-z
1/2-x,1/2+y,z
1/2+x,1/2-y,z
loop_
_atom_site_type_symbol
_atom_site_label
_atom_site_fract_x
_atom_site_fract_y
_atom_site_fract_z
Si Si1 0.828494 0.596061 0.855349
Si Si2 0.666227 0.905744 0.323030
Si Si3 0.821899 0.593269 0.047886
Si Si4 0.176325 0.165867 0.593616
Si Si5 0.821702 0.089469 0.500000
Si Si6 0.831241 0.903885 0.765647
O O1 0.823681 0.500000 0.856446
O O2 0.772338 0.624143 0.903909
O O3 0.737430 0.622059 0.812555
O O4 0.000000 0.617055 0.850110
O O5 0.500000 0.875595 0.328503
O O6 0.764737 0.884791 0.365308
O O7 0.738051 0.877037 0.276960
O O8 0.659221 0.000000 0.319936
O O9 0.787208 0.500000 0.047192
O O10 0.000000 0.598367 0.048656
O O11 0.771177 0.626545 0.000000
O O12 0.250000 0.250000 0.598423
O O13 0.222939 0.131091 0.545694
O O14 0.000000 0.170028 0.594689
O O15 0.000000 0.088617 0.500000
O O16 0.769713 0.000000 0.500000
O O17 0.000000 0.879915 0.761396
O O18 0.827766 0.000000 0.765743
#
# Coordination Sequence:
#
# PCOD9489217 Si02
#       6
#    16  16  16  16   8  16
#     4   8  12  18  29  45  66  94 131 178 229 277
#     4  10  20  34  52  74  99 127 164 209 253 297
#     4   7   9  13  22  37  57  84 123 171 220 270
#     4  11  22  37  57  80 109 141 172 205 244 291
#     4   9  19  36  59  85 110 139 174 209 244 284
#     4   9  16  25  38  57  81 110 145 187 237 290
#
# _framework density 18.911829000000001
#
# number of rings (size 3 to 8) (size 9 to 14) (size 15 to 20)
#    0.000    3.000    0.000    4.091    0.000    4.000 
#    0.000    1.364    0.000    3.818    0.000    3.818 
#    0.000    0.000    0.000    0.000    0.000    0.909 
#
# Total GULP energy -245086.884090 kJ/mol
# GULP energy per Si atom -5570.156457 kJ/mol
# Density = 1.886879 g / cm^3
# Si number density = 18.911829 Si / 1000 Ang^3
#
#
#
# Elastic Constant Matrix: (Units=GPa)
#
#
# Indices 1 2 3 4 5 6 
#
# 1 79.4261 9.3509 60.1338 0.0000 0.0000 0.0000
# 2 9.3509 7.2441 9.0585 0.0000 0.0000 0.0000
# 3 60.1338 9.0585 186.6597 0.0000 0.0000 0.0000
# 4 0.0000 0.0000 0.0000 -11.9667 0.0000 0.0000
# 5 0.0000 0.0000 0.0000 0.0000 -51.8486 0.0000
# 6 0.0000 0.0000 0.0000 0.0000 0.0000 8.9536
#
#
#
# Elastic Compliance Matrix: (Units=1/GPa)
#
#
# Indices 1 2 3 4 5 6 
#
# 1 0.018528 -0.017515 -0.005119 0.000000 0.000000 0.000000
# 2 -0.017515 0.163518 -0.002293 0.000000 0.000000 0.000000
# 3 -0.005119 -0.002293 0.007118 0.000000 0.000000 0.000000
# 4 0.000000 0.000000 0.000000 -0.083565 0.000000 0.000000
# 5 0.000000 0.000000 0.000000 0.000000 -0.019287 0.000000
# 6 0.000000 0.000000 0.000000 0.000000 0.000000 0.111687
#
#
# Mechanical properties :
#
#
# Convention : Reuss Voigt Hill
#
# Bulk Modulus (GPa) = 7.17822 47.82404 27.50113
# Shear Modulus (GPa) = 16.99007 2.01345 9.50176
#
# Velocity S-wave (km/s) = 3.00056 1.03294 2.24391
# Velocity P-wave (km/s) = 3.97597 5.17353 4.61377
#
# Compressibility (1/GPa) = 0.13931024
#
# Stress axis : x y z
#
# Youngs Moduli (GPa) = 53.97253 6.11552 140.49469
#
# Poissons Ratio (x) = 0.10711 0.71918
# Poissons Ratio (y) = 0.94534 0.32212
# Poissons Ratio (z) = 0.27628 0.01402
#
# Static dielectric constant tensor:
#      x y z
#    x 1.641570 0.000000 0.000000 
#    y 0.000000 1.670920 0.000000 
#    z 0.000000 0.000000 1.717640 
# 
# From -- ./inp_files/76471.got.cif
#   From: 2010.05.17/outbox.cif.g08.bks.cpg/sg65_39_cif.got.tgz:76471.got - 2010.06.03 17:01:31.
