data_PCOD9489772
_publ_section_title
;
Structure prediction by ZEFSAII (Michael W. Deem and Ramdas Pophale) SiO2 
 PCOD9489772
Probable space group: C M M M
;
_chemical_formula_sum "Si O2"
_cell_formula_units_Z 120
_cell_length_a 28.159224
_cell_length_b 27.779163
_cell_length_c 8.641639
_cell_angle_alpha 90.000000
_cell_angle_beta 90.000000
_cell_angle_gamma 90.000000
_cell_volume 6759.832869
_symmetry_space_group_name_H-M "C M M M"
_symmetry_group_IT_number 65
_symmetry_cell_setting 'orthorhombic'
loop_
_space_group_symop_operation_xyz
x,y,z
-x,-y,z
x,-y,-z
-x,y,-z
-x,-y,-z
x,y,-z
-x,y,z
x,-y,z
1/2+x,1/2+y,z
1/2-x,1/2-y,z
1/2+x,1/2-y,-z
1/2-x,1/2+y,-z
1/2-x,1/2-y,-z
1/2+x,1/2+y,-z
1/2-x,1/2+y,z
1/2+x,1/2-y,z
loop_
_atom_site_type_symbol
_atom_site_label
_atom_site_fract_x
_atom_site_fract_y
_atom_site_fract_z
Si Si1 0.782503 0.099818 0.185883
Si Si2 0.233833 0.698193 0.187857
Si Si3 0.055121 0.711051 0.314852
Si Si4 0.362759 0.147203 0.814238
Si Si5 0.187121 0.445155 0.314495
Si Si6 0.944547 0.183762 0.814572
Si Si7 0.113050 0.093701 0.685785
Si Si8 0.945789 0.000000 0.688570
O O1 0.769102 0.154849 0.229982
O O2 0.739531 0.067791 0.251084
O O3 0.833775 0.087703 0.251896
O O4 0.782569 0.096383 0.000000
O O5 0.250000 0.750000 0.246887
O O6 0.181216 0.681727 0.235146
O O7 0.233474 0.700270 0.000000
O O8 0.058359 0.713043 0.500000
O O9 0.089384 0.669948 0.250793
O O10 0.068714 0.763267 0.246534
O O11 0.000000 0.702627 0.271904
O O12 0.348695 0.094481 0.753585
O O13 0.364055 0.146256 0.000000
O O14 0.187684 0.441091 0.500000
O O15 0.175005 0.500000 0.272273
O O16 0.911229 0.142341 0.747234
O O17 0.000000 0.175137 0.770354
O O18 0.941432 0.183546 0.000000
O O19 0.113907 0.094970 0.500000
O O20 0.081593 0.048070 0.736875
O O21 0.946400 0.000000 0.500000
O O22 0.000000 0.000000 0.742627
#
# Coordination Sequence:
#
# PCOD9489772 Si02
#       8
#    16  16  16  16  16  16  16   8
#     4  10  21  35  53  80 111 144 184 230 281 332
#     4   8  16  31  50  74 106 143 178 214 262 323
#     4  10  21  37  58  85 118 154 190 230 275 328
#     4  10  20  34  57  86 115 150 188 232 284 336
#     4  10  21  38  60  82 111 150 190 233 280 337
#     4  10  21  37  56  79 108 144 187 234 284 337
#     4  11  22  36  56  80 107 140 184 237 292 348
#     4   9  20  38  57  75  99 139 187 235 290 347
#
# _framework density 17.751916999999999
#
# number of rings (size 3 to 8) (size 9 to 14) (size 15 to 20)
#    0.000    2.200    0.000    3.600    2.800    3.200 
#    0.000    1.000    0.000    5.200    0.000    2.800 
#    0.000    0.000    0.000    0.000    0.000    0.000 
#
# Total GULP energy -334991.157386 kJ/mol
# GULP energy per Si atom -5583.185956 kJ/mol
# Density = 1.771151 g / cm^3
# Si number density = 17.751917 Si / 1000 Ang^3
#
#
#
# Elastic Constant Matrix: (Units=GPa)
#
#
# Indices 1 2 3 4 5 6 
#
# 1 118.1786 85.8887 37.0230 0.0000 0.0000 0.0000
# 2 85.8887 150.4491 42.8640 0.0000 0.0000 0.0000
# 3 37.0230 42.8640 51.7451 0.0000 0.0000 0.0000
# 4 0.0000 0.0000 0.0000 19.1843 0.0000 0.0000
# 5 0.0000 0.0000 0.0000 0.0000 30.4484 0.0000
# 6 0.0000 0.0000 0.0000 0.0000 0.0000 14.5632
#
#
#
# Elastic Compliance Matrix: (Units=1/GPa)
#
#
# Indices 1 2 3 4 5 6 
#
# 1 0.015347 -0.007373 -0.004873 0.000000 0.000000 0.000000
# 2 -0.007373 0.012242 -0.004866 0.000000 0.000000 0.000000
# 3 -0.004873 -0.004866 0.026843 0.000000 0.000000 0.000000
# 4 0.000000 0.000000 0.000000 0.052126 0.000000 0.000000
# 5 0.000000 0.000000 0.000000 0.000000 0.032842 0.000000
# 6 0.000000 0.000000 0.000000 0.000000 0.000000 0.068666
#
#
# Mechanical properties :
#
#
# Convention : Reuss Voigt Hill
#
# Bulk Modulus (GPa) = 49.48451 72.43602 60.96027
# Shear Modulus (GPa) = 20.07829 23.14568 21.61198
#
# Velocity S-wave (km/s) = 3.36676 3.61479 3.49298
# Velocity P-wave (km/s) = 6.56121 7.63646 7.11916
#
# Compressibility (1/GPa) = 0.02020834
#
# Stress axis : x y z
#
# Youngs Moduli (GPa) = 65.16051 81.68548 37.25409
#
# Poissons Ratio (x) = 0.60225 0.18154
# Poissons Ratio (y) = 0.48042 0.18127
# Poissons Ratio (z) = 0.31752 0.39746
#
# Static dielectric constant tensor:
#      x y z
#    x 1.590240 0.000000 0.000000 
#    y 0.000000 1.593290 0.000000 
#    z 0.000000 0.000000 1.600080 
# 
# From -- ./inp_files/17116.got.cif
#   From: 2010.05.17/outbox.cif.g08.bks.cpg/sg65_9_cif.got.tgz:17116.got - 2010.06.03 17:01:31.
