data_PCOD9489641
_publ_section_title
;
Structure prediction by ZEFSAII (Michael W. Deem and Ramdas Pophale) SiO2 
 PCOD9489641
Probable space group: C M M M
;
_chemical_formula_sum "Si O2"
_cell_formula_units_Z 96
_cell_length_a 24.683583
_cell_length_b 14.998887
_cell_length_c 13.665790
_cell_angle_alpha 90.000000
_cell_angle_beta 90.000000
_cell_angle_gamma 90.000000
_cell_volume 5059.434488
_symmetry_space_group_name_H-M "C M M M"
_symmetry_group_IT_number 65
_symmetry_cell_setting 'orthorhombic'
loop_
_space_group_symop_operation_xyz
x,y,z
-x,-y,z
x,-y,-z
-x,y,-z
-x,-y,-z
x,y,-z
-x,y,z
x,-y,z
1/2+x,1/2+y,z
1/2-x,1/2-y,z
1/2+x,1/2-y,-z
1/2-x,1/2+y,-z
1/2-x,1/2-y,-z
1/2+x,1/2+y,-z
1/2-x,1/2+y,z
1/2+x,1/2-y,z
loop_
_atom_site_type_symbol
_atom_site_label
_atom_site_fract_x
_atom_site_fract_y
_atom_site_fract_z
Si Si1 0.227471 0.000000 0.382197
Si Si2 0.355351 0.000000 0.382800
Si Si3 0.438209 0.265975 0.114204
Si Si4 0.627206 0.168906 0.740516
Si Si5 0.806538 0.803494 0.383157
Si Si6 0.340751 0.600718 0.881957
Si Si7 0.278629 0.891313 0.886817
O O1 0.200926 0.093458 0.352836
O O2 0.226476 0.000000 0.500000
O O3 0.291014 0.000000 0.356084
O O4 0.379810 0.912608 0.333517
O O5 0.359503 0.000000 0.500000
O O6 0.500000 0.297105 0.124200
O O7 0.424069 0.189572 0.191623
O O8 0.393166 0.340515 0.137595
O O9 0.430701 0.239237 0.000000
O O10 0.647675 0.252353 0.676632
O O11 0.675380 0.144275 0.816084
O O12 0.817534 0.800544 0.500000
O O13 0.750000 0.750000 0.369175
O O14 0.346091 0.500000 0.843884
O O15 0.281656 0.639555 0.856148
O O16 0.337678 0.594490 0.000000
O O17 0.277512 0.000000 0.884125
O O18 0.288698 0.864924 0.000000
#
# Coordination Sequence:
#
# PCOD9489641 Si02
#       7
#     8   8  16  16  16  16  16
#     4   9  18  34  52  80 123 160 184 218 278 351
#     4  11  22  36  56  84 117 145 184 240 291 349
#     4  10  23  41  57  78 112 154 202 249 287 335
#     4  12  22  35  58  88 113 156 195 231 296 345
#     4  10  20  34  54  83 120 155 189 229 282 350
#     4   8  16  32  54  80 114 151 186 230 283 338
#     4   9  18  32  51  84 123 150 183 231 285 352
#
# _framework density 18.974451999999999
#
# number of rings (size 3 to 8) (size 9 to 14) (size 15 to 20)
#    0.000    2.167    2.500    2.000    2.333    0.333 
#    1.500    4.583    0.000    3.500    0.000    0.000 
#    0.000    2.000    0.000    0.000    0.000    0.000 
#
# Total GULP energy -268149.594790 kJ/mol
# GULP energy per Si atom -5586.449891 kJ/mol
# Density = 1.893126 g / cm^3
# Si number density = 18.974452 Si / 1000 Ang^3
#
#
#
# Elastic Constant Matrix: (Units=GPa)
#
#
# Indices 1 2 3 4 5 6 
#
# 1 60.1495 6.3405 21.1460 0.0000 0.0000 0.0000
# 2 6.3405 84.0701 29.0444 0.0000 0.0000 0.0000
# 3 21.1460 29.0444 107.5848 0.0000 0.0000 0.0000
# 4 0.0000 0.0000 0.0000 33.5450 0.0000 0.0000
# 5 0.0000 0.0000 0.0000 0.0000 19.6777 0.0000
# 6 0.0000 0.0000 0.0000 0.0000 0.0000 4.2021
#
#
#
# Elastic Compliance Matrix: (Units=1/GPa)
#
#
# Indices 1 2 3 4 5 6 
#
# 1 0.017861 -0.000148 -0.003471 0.000000 0.000000 0.000000
# 2 -0.000148 0.013120 -0.003513 0.000000 0.000000 0.000000
# 3 -0.003471 -0.003513 0.010925 0.000000 0.000000 0.000000
# 4 0.000000 0.000000 0.000000 0.029811 0.000000 0.000000
# 5 0.000000 0.000000 0.000000 0.000000 0.050819 0.000000
# 6 0.000000 0.000000 0.000000 0.000000 0.000000 0.237975
#
#
# Mechanical properties :
#
#
# Convention : Reuss Voigt Hill
#
# Bulk Modulus (GPa) = 36.17527 40.54066 38.35797
# Shear Modulus (GPa) = 13.02123 24.50320 18.76221
#
# Velocity S-wave (km/s) = 2.62248 3.59747 3.14795
# Velocity P-wave (km/s) = 5.31757 6.21836 5.78552
#
# Compressibility (1/GPa) = 0.02764319
#
# Stress axis : x y z
#
# Youngs Moduli (GPa) = 55.98797 76.22194 91.52912
#
# Poissons Ratio (x) = 0.01128 0.31766
# Poissons Ratio (y) = 0.00829 0.32152
# Poissons Ratio (z) = 0.19431 0.26775
#
# Static dielectric constant tensor:
#      x y z
#    x 1.611070 0.000000 0.000000 
#    y 0.000000 1.708610 0.000000 
#    z 0.000000 0.000000 1.703200 
# 
# From -- ./inp_files/45659.got.cif
#   From: 2010.05.17/outbox.cif.g08.bks.cpg/sg65_23_cif.got.tgz:45659.got - 2010.06.03 17:01:31.
