data_PCOD9489457
_publ_section_title
;
Structure prediction by ZEFSAII (Michael W. Deem and Ramdas Pophale) SiO2 
 PCOD9489457
Probable space group: C M M M
;
_chemical_formula_sum "Si O2"
_cell_formula_units_Z 80
_cell_length_a 15.158843
_cell_length_b 12.334988
_cell_length_c 21.141345
_cell_angle_alpha 90.000000
_cell_angle_beta 90.000000
_cell_angle_gamma 90.000000
_cell_volume 3953.096351
_symmetry_space_group_name_H-M "C M M M"
_symmetry_group_IT_number 65
_symmetry_cell_setting 'orthorhombic'
loop_
_space_group_symop_operation_xyz
x,y,z
-x,-y,z
x,-y,-z
-x,y,-z
-x,-y,-z
x,y,-z
-x,y,z
x,-y,z
1/2+x,1/2+y,z
1/2-x,1/2-y,z
1/2+x,1/2-y,-z
1/2-x,1/2+y,-z
1/2-x,1/2-y,-z
1/2+x,1/2+y,-z
1/2-x,1/2+y,z
1/2+x,1/2-y,z
loop_
_atom_site_type_symbol
_atom_site_label
_atom_site_fract_x
_atom_site_fract_y
_atom_site_fract_z
Si Si1 0.891991 0.500000 0.270704
Si Si2 0.104397 0.122314 0.190558
Si Si3 0.392453 0.624765 0.571440
Si Si4 0.605063 0.000000 0.125212
Si Si5 0.354009 0.233729 0.070059
Si Si6 0.891660 0.736151 0.309483
O O1 0.862612 0.500000 0.197573
O O2 0.863423 0.611663 0.302974
O O3 0.000000 0.500000 0.270671
O O4 0.113601 0.186576 0.125008
O O5 0.139184 0.194936 0.248506
O O6 0.000000 0.112623 0.202498
O O7 0.141147 0.000000 0.187897
O O8 0.364354 0.653022 0.500000
O O9 0.500000 0.626369 0.571636
O O10 0.366852 0.500000 0.584714
O O11 0.363026 0.705063 0.626424
O O12 0.630756 0.890257 0.090049
O O13 0.500000 0.000000 0.128951
O O14 0.250000 0.250000 0.066971
O O15 0.391553 0.254622 0.000000
O O16 0.000000 0.735984 0.308616
#
# Coordination Sequence:
#
# PCOD9489457 Si02
#       6
#     8  16  16   8  16  16
#     4   9  16  27  47  71  95 126 173 231 271 303
#     4  10  20  34  54  77 101 134 175 218 266 324
#     4   8  13  21  35  58  91 131 170 208 258 323
#     4  11  21  40  65  85 105 144 199 239 269 332
#     4  11  25  40  56  79 110 141 173 223 285 336
#     4   9  15  26  43  66  95 128 170 219 266 312
#
# _framework density 20.237302
#
# number of rings (size 3 to 8) (size 9 to 14) (size 15 to 20)
#    0.000    2.400    2.000    2.100    1.400    4.800 
#    0.000    1.500    0.000    3.000    0.000    0.000 
#    0.000    0.800    0.000    1.400    0.000    2.600 
#
# Total GULP energy -223287.106051 kJ/mol
# GULP energy per Si atom -5582.177651 kJ/mol
# Density = 2.019124 g / cm^3
# Si number density = 20.237302 Si / 1000 Ang^3
#
#
#
# Elastic Constant Matrix: (Units=GPa)
#
#
# Indices 1 2 3 4 5 6 
#
# 1 30.9892 12.7520 2.6932 0.0000 0.0000 0.0000
# 2 12.7520 211.9051 132.7217 0.0000 0.0000 0.0000
# 3 2.6932 132.7217 195.7986 0.0000 0.0000 0.0000
# 4 0.0000 0.0000 0.0000 39.2980 0.0000 0.0000
# 5 0.0000 0.0000 0.0000 0.0000 -88.2805 0.0000
# 6 0.0000 0.0000 0.0000 0.0000 0.0000 9.9023
#
#
#
# Elastic Compliance Matrix: (Units=1/GPa)
#
#
# Indices 1 2 3 4 5 6 
#
# 1 0.033363 -0.002990 0.001568 0.000000 0.000000 0.000000
# 2 -0.002990 0.008469 -0.005699 0.000000 0.000000 0.000000
# 3 0.001568 -0.005699 0.008949 0.000000 0.000000 0.000000
# 4 0.000000 0.000000 0.000000 0.025447 0.000000 0.000000
# 5 0.000000 0.000000 0.000000 0.000000 -0.011328 0.000000
# 6 0.000000 0.000000 0.000000 0.000000 0.000000 0.100987
#
#
# Mechanical properties :
#
#
# Convention : Reuss Voigt Hill
#
# Bulk Modulus (GPa) = 27.36858 81.66964 54.51911
# Shear Modulus (GPa) = 25.99988 11.55237 18.77613
#
# Velocity S-wave (km/s) = 3.58823 2.39183 3.04928
# Velocity P-wave (km/s) = 5.54260 6.93335 6.27661
#
# Compressibility (1/GPa) = 0.03653824
#
# Stress axis : x y z
#
# Youngs Moduli (GPa) = 29.97312 118.08284 111.74433
#
# Poissons Ratio (x) = 0.35301 -0.17516
# Poissons Ratio (y) = 0.08961 0.63687
# Poissons Ratio (z) = -0.04698 0.67299
#
# Static dielectric constant tensor:
#      x y z
#    x 1.740540 0.000000 0.000000 
#    y 0.000000 1.685620 0.000000 
#    z 0.000000 0.000000 1.716810 
# 
# From -- ./inp_files/61376.got.cif
#   From: 2010.05.17/outbox.cif.g08.bks.cpg/sg65_31_cif.got.tgz:61376.got - 2010.06.03 17:01:31.
