data_PCOD9489626
_publ_section_title
;
Structure prediction by ZEFSAII (Michael W. Deem and Ramdas Pophale) SiO2 
 PCOD9489626
Probable space group: C M M M
;
_chemical_formula_sum "Si O2"
_cell_formula_units_Z 112
_cell_length_a 16.044271
_cell_length_b 15.360090
_cell_length_c 23.705727
_cell_angle_alpha 90.000000
_cell_angle_beta 90.000000
_cell_angle_gamma 90.000000
_cell_volume 5842.073653
_symmetry_space_group_name_H-M "C M M M"
_symmetry_group_IT_number 65
_symmetry_cell_setting 'orthorhombic'
loop_
_space_group_symop_operation_xyz
x,y,z
-x,-y,z
x,-y,-z
-x,y,-z
-x,-y,-z
x,y,-z
-x,y,z
x,-y,z
1/2+x,1/2+y,z
1/2-x,1/2-y,z
1/2+x,1/2-y,-z
1/2-x,1/2+y,-z
1/2-x,1/2-y,-z
1/2+x,1/2+y,-z
1/2-x,1/2+y,z
1/2+x,1/2-y,z
loop_
_atom_site_type_symbol
_atom_site_label
_atom_site_fract_x
_atom_site_fract_y
_atom_site_fract_z
Si Si1 0.350954 0.595266 0.852543
Si Si2 0.204607 0.405325 0.236959
Si Si3 0.404481 0.207556 0.159792
Si Si4 0.095076 0.894829 0.564699
Si Si5 0.752300 0.651571 0.641576
Si Si6 0.715168 0.848547 0.063259
Si Si7 0.092195 0.394794 0.565713
O O1 0.393909 0.500000 0.852425
O O2 0.289271 0.598351 0.799009
O O3 0.397966 0.687803 0.849767
O O4 0.289288 0.599399 0.906483
O O5 0.164567 0.500000 0.224815
O O6 0.147578 0.327130 0.213640
O O7 0.228220 0.401687 0.302301
O O8 0.500000 0.183688 0.165844
O O9 0.361676 0.159383 0.106399
O O10 0.113400 0.866035 0.500000
O O11 0.167107 0.868527 0.608072
O O12 0.000000 0.866400 0.578647
O O13 0.094420 0.000000 0.563883
O O14 0.750000 0.750000 0.661416
O O15 0.829962 0.640569 0.599514
O O16 0.750000 0.750000 0.060098
O O17 0.695398 0.878149 0.000000
O O18 0.098359 0.370445 0.500000
O O19 0.095448 0.500000 0.568469
O O20 0.000000 0.367768 0.586411
#
# Coordination Sequence:
#
# PCOD9489626 Si02
#       7
#    16  16  16  16  16  16  16
#     4   9  18  34  55  78 108 147 185 221 268 329
#     4  10  21  39  59  74  97 138 186 233 275 321
#     4  10  20  34  54  82 115 145 178 228 285 337
#     4   9  19  37  59  81 107 140 177 218 268 331
#     4  12  23  34  54  82 110 140 176 223 280 342
#     4   8  15  30  52  77 107 147 193 232 264 308
#     4   9  19  36  55  75 103 141 185 229 269 317
#
# _framework density 19.171274
#
# number of rings (size 3 to 8) (size 9 to 14) (size 15 to 20)
#    0.000    2.429    0.000    4.714    0.000    4.571 
#    0.000    3.571    0.000    0.857    0.000    8.000 
#    0.000    0.000    0.000    0.000    0.000    0.000 
#
# Total GULP energy -312118.162822 kJ/mol
# GULP energy per Si atom -5573.538622 kJ/mol
# Density = 1.912764 g / cm^3
# Si number density = 19.171274 Si / 1000 Ang^3
#
#
#
# Elastic Constant Matrix: (Units=GPa)
#
#
# Indices 1 2 3 4 5 6 
#
# 1 100.2198 10.5387 51.5379 0.0000 0.0000 0.0000
# 2 10.5387 74.0317 11.6227 0.0000 0.0000 0.0000
# 3 51.5379 11.6227 97.7772 0.0000 0.0000 0.0000
# 4 0.0000 0.0000 0.0000 26.9728 0.0000 0.0000
# 5 0.0000 0.0000 0.0000 0.0000 5.7140 0.0000
# 6 0.0000 0.0000 0.0000 0.0000 0.0000 18.6594
#
#
#
# Elastic Compliance Matrix: (Units=1/GPa)
#
#
# Indices 1 2 3 4 5 6 
#
# 1 0.013739 -0.000834 -0.007142 0.000000 0.000000 0.000000
# 2 -0.000834 0.013815 -0.001202 0.000000 0.000000 0.000000
# 3 -0.007142 -0.001202 0.014135 0.000000 0.000000 0.000000
# 4 0.000000 0.000000 0.000000 0.037074 0.000000 0.000000
# 5 0.000000 0.000000 0.000000 0.000000 0.175008 0.000000
# 6 0.000000 0.000000 0.000000 0.000000 0.000000 0.053592
#
#
# Mechanical properties :
#
#
# Convention : Reuss Voigt Hill
#
# Bulk Modulus (GPa) = 42.86228 46.60303 44.73266
# Shear Modulus (GPa) = 14.99254 23.49120 19.24187
#
# Velocity S-wave (km/s) = 2.79952 3.50427 3.17153
# Velocity P-wave (km/s) = 5.73200 6.38238 6.06591
#
# Compressibility (1/GPa) = 0.02333054
#
# Stress axis : x y z
#
# Youngs Moduli (GPa) = 72.78643 72.38367 70.74620
#
# Poissons Ratio (x) = 0.06040 0.50530
# Poissons Ratio (y) = 0.06073 0.08506
# Poissons Ratio (z) = 0.51988 0.08703
#
# Static dielectric constant tensor:
#      x y z
#    x 1.643600 0.000000 0.000000 
#    y 0.000000 1.683220 0.000000 
#    z 0.000000 0.000000 1.665680 
# 
# From -- ./inp_files/70002.got.cif
#   From: 2010.05.17/outbox.cif.g08.bks.cpg/sg65_36_cif.got.tgz:70002.got - 2010.06.03 17:01:31.
