data_PCOD9489397
_publ_section_title
;
Structure prediction by ZEFSAII (Michael W. Deem and Ramdas Pophale) SiO2 
 PCOD9489397
Probable space group: C M M M
;
_chemical_formula_sum "Si O2"
_cell_formula_units_Z 80
_cell_length_a 27.848099
_cell_length_b 8.642321
_cell_length_c 19.052387
_cell_angle_alpha 90.000000
_cell_angle_beta 90.000000
_cell_angle_gamma 90.000000
_cell_volume 4585.380100
_symmetry_space_group_name_H-M "C M M M"
_symmetry_group_IT_number 65
_symmetry_cell_setting 'orthorhombic'
loop_
_space_group_symop_operation_xyz
x,y,z
-x,-y,z
x,-y,-z
-x,y,-z
-x,-y,-z
x,y,-z
-x,y,z
x,-y,z
1/2+x,1/2+y,z
1/2-x,1/2-y,z
1/2+x,1/2-y,-z
1/2-x,1/2+y,-z
1/2-x,1/2-y,-z
1/2+x,1/2+y,-z
1/2-x,1/2+y,z
1/2+x,1/2-y,z
loop_
_atom_site_type_symbol
_atom_site_label
_atom_site_fract_x
_atom_site_fract_y
_atom_site_fract_z
Si Si1 0.099520 0.687668 0.852234
Si Si2 0.444587 0.811379 0.000000
Si Si3 0.647969 0.185787 0.360162
Si Si4 0.196010 0.815606 0.500000
Si Si5 0.698060 0.185551 0.215424
Si Si6 0.945161 0.814485 0.289122
O O1 0.096381 0.500000 0.847910
O O2 0.154600 0.732031 0.835955
O O3 0.067961 0.756080 0.789062
O O4 0.081292 0.737635 0.928374
O O5 0.500000 0.761955 0.000000
O O6 0.444152 0.000000 0.000000
O O7 0.668451 0.257041 0.430972
O O8 0.681209 0.233155 0.293718
O O9 0.594543 0.241480 0.340370
O O10 0.648595 0.000000 0.364590
O O11 0.250000 0.750000 0.500000
O O12 0.198102 0.000000 0.500000
O O13 0.750000 0.250000 0.197901
O O14 0.700418 0.000000 0.214895
O O15 0.000000 0.771337 0.306081
O O16 0.941008 0.000000 0.291280
#
# Coordination Sequence:
#
# PCOD9489397 Si02
#       6
#    16   8  16   8  16  16
#     4   9  18  32  50  74 101 131 173 218 258 307
#     4   9  16  28  50  75  97 127 169 217 264 307
#     4  10  21  37  56  79 105 136 177 219 260 306
#     4  12  24  38  57  82 113 144 174 213 261 311
#     4   9  18  31  49  72  98 130 167 209 253 299
#     4  10  20  34  53  78 107 138 171 211 262 316
#
# _framework density 17.446753999999999
#
# number of rings (size 3 to 8) (size 9 to 14) (size 15 to 20)
#    0.000    2.300    0.000    4.500    0.000    8.000 
#    0.000    1.500    0.000    4.800    0.000    0.000 
#    0.000    0.000    0.000    0.000    0.000    0.000 
#
# Total GULP energy -223234.011266 kJ/mol
# GULP energy per Si atom -5580.850282 kJ/mol
# Density = 1.740704 g / cm^3
# Si number density = 17.446754 Si / 1000 Ang^3
#
#
#
# Elastic Constant Matrix: (Units=GPa)
#
#
# Indices 1 2 3 4 5 6 
#
# 1 161.9489 41.0928 93.4971 0.0000 0.0000 0.0000
# 2 41.0928 45.3427 38.5694 0.0000 0.0000 0.0000
# 3 93.4971 38.5694 152.2301 0.0000 0.0000 0.0000
# 4 0.0000 0.0000 0.0000 16.2408 0.0000 0.0000
# 5 0.0000 0.0000 0.0000 0.0000 13.5203 0.0000
# 6 0.0000 0.0000 0.0000 0.0000 0.0000 31.8549
#
#
#
# Elastic Compliance Matrix: (Units=1/GPa)
#
#
# Indices 1 2 3 4 5 6 
#
# 1 0.010416 -0.005096 -0.005106 0.000000 0.000000 0.000000
# 2 -0.005096 0.030607 -0.004625 0.000000 0.000000 0.000000
# 3 -0.005106 -0.004625 0.010877 0.000000 0.000000 0.000000
# 4 0.000000 0.000000 0.000000 0.061573 0.000000 0.000000
# 5 0.000000 0.000000 0.000000 0.000000 0.073963 0.000000
# 6 0.000000 0.000000 0.000000 0.000000 0.000000 0.031392
#
#
# Mechanical properties :
#
#
# Convention : Reuss Voigt Hill
#
# Bulk Modulus (GPa) = 44.95290 78.42672 61.68981
# Shear Modulus (GPa) = 19.53918 24.74736 22.14327
#
# Velocity S-wave (km/s) = 3.35017 3.77032 3.56644
# Velocity P-wave (km/s) = 6.38643 8.00021 7.23844
#
# Compressibility (1/GPa) = 0.02224551
#
# Stress axis : x y z
#
# Youngs Moduli (GPa) = 96.00905 32.67270 91.93985
#
# Poissons Ratio (x) = 0.16651 0.46944
# Poissons Ratio (y) = 0.48928 0.42518
# Poissons Ratio (z) = 0.49022 0.15110
#
# Static dielectric constant tensor:
#      x y z
#    x 1.584700 0.000000 0.000000 
#    y 0.000000 1.588840 0.000000 
#    z 0.000000 0.000000 1.570780 
# 
# From -- ./inp_files/57262.got.cif
#   From: 2010.05.17/outbox.cif.g08.bks.cpg/sg65_29_cif.got.tgz:57262.got - 2010.06.03 17:01:31.
