data_PCOD9489380
_publ_section_title
;
Structure prediction by ZEFSAII (Michael W. Deem and Ramdas Pophale) SiO2 
 PCOD9489380
Probable space group: C M M M
;
_chemical_formula_sum "Si O2"
_cell_formula_units_Z 96
_cell_length_a 19.647381
_cell_length_b 14.336212
_cell_length_c 12.921339
_cell_angle_alpha 90.000000
_cell_angle_beta 90.000000
_cell_angle_gamma 90.000000
_cell_volume 3639.540884
_symmetry_space_group_name_H-M "C M M M"
_symmetry_group_IT_number 65
_symmetry_cell_setting 'orthorhombic'
loop_
_space_group_symop_operation_xyz
x,y,z
-x,-y,z
x,-y,-z
-x,y,-z
-x,-y,-z
x,y,-z
-x,y,z
x,-y,z
1/2+x,1/2+y,z
1/2-x,1/2-y,z
1/2+x,1/2-y,-z
1/2-x,1/2+y,-z
1/2-x,1/2-y,-z
1/2+x,1/2+y,-z
1/2-x,1/2+y,z
1/2+x,1/2-y,z
loop_
_atom_site_type_symbol
_atom_site_label
_atom_site_fract_x
_atom_site_fract_y
_atom_site_fract_z
Si Si1 0.766564 0.899459 0.159391
Si Si2 0.225854 0.357299 0.618251
Si Si3 0.922124 0.899135 0.327427
Si Si4 0.106764 0.398464 0.120657
Si Si5 0.101223 0.191879 0.118090
Si Si6 0.078172 0.309123 0.378935
O O1 0.766170 0.897692 0.284344
O O2 0.688852 0.893954 0.124252
O O3 0.817019 0.820286 0.120890
O O4 0.793125 0.000000 0.123546
O O5 0.233840 0.392268 0.500000
O O6 0.250000 0.250000 0.615337
O O7 0.146123 0.365346 0.652967
O O8 0.922125 0.882131 0.203377
O O9 0.898641 0.799581 0.369967
O O10 0.000000 0.902340 0.362958
O O11 0.892291 0.000000 0.355077
O O12 0.085655 0.500000 0.165014
O O13 0.082868 0.296194 0.157216
O O14 0.086670 0.399856 0.000000
O O15 0.078710 0.179121 0.000000
O O16 0.073947 0.330154 0.500000
O O17 0.000000 0.322487 0.340851
#
# Coordination Sequence:
#
# PCOD9489380 Si02
#       6
#    16  16  16  16  16  16
#     4  11  21  32  51  78 108 142 179 221 273 336
#     4  10  20  34  53  77 108 147 188 232 285 340
#     4  10  21  35  52  78 112 150 191 232 277 335
#     4   9  18  32  51  76 102 129 168 220 277 334
#     4  11  22  36  55  77 107 147 188 234 286 339
#     4   9  18  34  57  82 108 145 194 242 286 337
#
# _framework density 26.376953
#
# number of rings (size 3 to 8) (size 9 to 14) (size 15 to 20)
#    0.000    2.000    0.000    4.500    0.000    4.333 
#    0.000    2.500    0.000    6.000    0.000    9.333 
#    0.000    0.000    0.000    5.500    0.000    0.333 
#
# Total GULP energy -268098.735174 kJ/mol
# GULP energy per Si atom -5585.390316 kJ/mol
# Density = 2.631692 g / cm^3
# Si number density = 26.376953 Si / 1000 Ang^3
#
#
#
# Elastic Constant Matrix: (Units=GPa)
#
#
# Indices 1 2 3 4 5 6 
#
# 1 123.5156 9.6736 17.1847 0.0000 0.0000 0.0000
# 2 9.6736 117.8032 1.7765 0.0000 0.0000 0.0000
# 3 17.1847 1.7765 106.0340 0.0000 0.0000 0.0000
# 4 0.0000 0.0000 0.0000 1.7854 0.0000 0.0000
# 5 0.0000 0.0000 0.0000 0.0000 -531.5129 0.0000
# 6 0.0000 0.0000 0.0000 0.0000 0.0000 6.5616
#
#
#
# Elastic Compliance Matrix: (Units=1/GPa)
#
#
# Indices 1 2 3 4 5 6 
#
# 1 0.008335 -0.000664 -0.001340 0.000000 0.000000 0.000000
# 2 -0.000664 0.008544 -0.000035 0.000000 0.000000 0.000000
# 3 -0.001340 -0.000035 0.009649 0.000000 0.000000 0.000000
# 4 0.000000 0.000000 0.000000 0.560110 0.000000 0.000000
# 5 0.000000 0.000000 0.000000 0.000000 -0.001881 0.000000
# 6 0.000000 0.000000 0.000000 0.000000 0.000000 0.152403
#
#
# Mechanical properties :
#
#
# Convention : Reuss Voigt Hill
#
# Bulk Modulus (GPa) = 44.54674 44.95804 44.75239
# Shear Modulus (GPa) = 6.67806 -83.38534 -38.35364
#
# Velocity S-wave (km/s) = 1.59288 -5.62864 -3.81735
# Velocity P-wave (km/s) = 4.50646 5.01604 1.55764
#
# Compressibility (1/GPa) = 0.02244833
#
# Stress axis : x y z
#
# Youngs Moduli (GPa) = 119.98254 117.04378 103.64150
#
# Poissons Ratio (x) = 0.07774 0.13884
# Poissons Ratio (y) = 0.07969 0.00368
# Poissons Ratio (z) = 0.16073 0.00415
#
# Static dielectric constant tensor:
#      x y z
#    x 2.105410 0.000000 0.000000 
#    y 0.000000 2.039060 0.000000 
#    z 0.000000 0.000000 2.081610 
# 
# From -- ./inp_files/44126.got.cif
#   From: 2010.05.17/outbox.cif.g08.bks.cpg/sg65_23_cif.got.tgz:44126.got - 2010.06.03 17:01:31.
