data_PCOD9489518
_publ_section_title
;
Structure prediction by ZEFSAII (Michael W. Deem and Ramdas Pophale) SiO2 
 PCOD9489518
Probable space group: C M M M
;
_chemical_formula_sum "Si O2"
_cell_formula_units_Z 104
_cell_length_a 8.652059
_cell_length_b 28.187613
_cell_length_c 21.912356
_cell_angle_alpha 90.000000
_cell_angle_beta 90.000000
_cell_angle_gamma 90.000000
_cell_volume 5344.004900
_symmetry_space_group_name_H-M "C M M M"
_symmetry_group_IT_number 65
_symmetry_cell_setting 'orthorhombic'
loop_
_space_group_symop_operation_xyz
x,y,z
-x,-y,z
x,-y,-z
-x,y,-z
-x,-y,-z
x,y,-z
-x,y,z
x,-y,z
1/2+x,1/2+y,z
1/2-x,1/2-y,z
1/2+x,1/2-y,-z
1/2-x,1/2+y,-z
1/2-x,1/2-y,-z
1/2+x,1/2+y,-z
1/2-x,1/2+y,z
1/2+x,1/2-y,z
loop_
_atom_site_type_symbol
_atom_site_label
_atom_site_fract_x
_atom_site_fract_y
_atom_site_fract_z
Si Si1 0.186244 0.851409 0.067445
Si Si2 0.184530 0.105134 0.623542
Si Si3 0.815607 0.396396 0.751233
Si Si4 0.815427 0.698246 0.571657
Si Si5 0.685471 0.301794 0.191733
Si Si6 0.186430 0.553831 0.123012
Si Si7 0.188281 0.945583 0.500000
O O1 0.236546 0.817606 0.123127
O O2 0.244056 0.904623 0.081537
O O3 0.000000 0.851887 0.068369
O O4 0.238471 0.836405 0.000000
O O5 0.254481 0.086391 0.686278
O O6 0.236910 0.159120 0.613457
O O7 0.240941 0.078783 0.562417
O O8 0.000000 0.101985 0.626383
O O9 0.745381 0.344619 0.766079
O O10 0.773733 0.430804 0.807551
O O11 0.000000 0.392366 0.749626
O O12 0.778301 0.688426 0.500000
O O13 0.750000 0.750000 0.585575
O O14 0.000000 0.697213 0.578391
O O15 0.500000 0.300714 0.194066
O O16 0.750000 0.250000 0.206948
O O17 0.237175 0.500000 0.109826
O O18 0.000000 0.555300 0.117559
O O19 0.000000 0.942807 0.500000
O O20 0.233650 0.000000 0.500000
#
# Coordination Sequence:
#
# PCOD9489518 Si02
#       7
#    16  16  16  16  16  16   8
#     4   9  19  35  54  80 114 148 183 224 269 320
#     4  11  21  36  58  82 110 143 180 223 273 325
#     4  10  21  37  56  79 108 142 182 227 274 324
#     4  10  20  34  54  79 108 138 172 211 259 317
#     4  10  20  36  57  81 111 147 186 226 269 318
#     4   9  19  36  56  78 107 143 182 227 277 326
#     4   9  20  38  58  81 110 143 178 219 268 325
#
# _framework density 19.46106
#
# number of rings (size 3 to 8) (size 9 to 14) (size 15 to 20)
#    0.000    2.231    0.769    1.846    0.000    4.308 
#    0.000    4.615    0.000    3.231    0.000    0.000 
#    0.000    0.000    0.000    0.000    0.000    0.000 
#
# Total GULP energy -290324.639016 kJ/mol
# GULP energy per Si atom -5583.166135 kJ/mol
# Density = 1.941677 g / cm^3
# Si number density = 19.461060 Si / 1000 Ang^3
#
#
#
# Elastic Constant Matrix: (Units=GPa)
#
#
# Indices 1 2 3 4 5 6 
#
# 1 26.6844 -1.3480 11.1397 0.0000 0.0000 0.0000
# 2 -1.3480 40.7958 -11.0601 0.0000 0.0000 0.0000
# 3 11.1397 -11.0601 81.1000 0.0000 0.0000 0.0000
# 4 0.0000 0.0000 0.0000 8.1846 0.0000 0.0000
# 5 0.0000 0.0000 0.0000 0.0000 27.2934 0.0000
# 6 0.0000 0.0000 0.0000 0.0000 0.0000 20.9117
#
#
#
# Elastic Compliance Matrix: (Units=1/GPa)
#
#
# Indices 1 2 3 4 5 6 
#
# 1 0.039756 -0.000173 -0.005484 0.000000 0.000000 0.000000
# 2 -0.000173 0.025454 0.003495 0.000000 0.000000 0.000000
# 3 -0.005484 0.003495 0.013560 0.000000 0.000000 0.000000
# 4 0.000000 0.000000 0.000000 0.122181 0.000000 0.000000
# 5 0.000000 0.000000 0.000000 0.000000 0.036639 0.000000
# 6 0.000000 0.000000 0.000000 0.000000 0.000000 0.047820
#
#
# Mechanical properties :
#
#
# Convention : Reuss Voigt Hill
#
# Bulk Modulus (GPa) = 13.43262 16.22702 14.82982
# Shear Modulus (GPa) = 15.89570 21.26785 18.58177
#
# Velocity S-wave (km/s) = 2.86106 3.30940 3.09337
# Velocity P-wave (km/s) = 4.22274 4.79157 4.51612
#
# Compressibility (1/GPa) = 0.07444563
#
# Stress axis : x y z
#
# Youngs Moduli (GPa) = 25.15349 39.28626 73.74393
#
# Poissons Ratio (x) = 0.00680 0.40444
# Poissons Ratio (y) = 0.00436 -0.25775
# Poissons Ratio (z) = 0.13795 -0.13731
#
# Static dielectric constant tensor:
#      x y z
#    x 1.652750 0.000000 0.000000 
#    y 0.000000 1.605330 0.000000 
#    z 0.000000 0.000000 1.712590 
# 
# From -- ./inp_files/60388.got.cif
#   From: 2010.05.17/outbox.cif.g08.bks.cpg/sg65_31_cif.got.tgz:60388.got - 2010.06.03 17:01:31.
