data_PCOD9489680
_publ_section_title
;
Structure prediction by ZEFSAII (Michael W. Deem and Ramdas Pophale) SiO2 
 PCOD9489680
Probable space group: C M M M
;
_chemical_formula_sum "Si O2"
_cell_formula_units_Z 104
_cell_length_a 21.935800
_cell_length_b 27.034866
_cell_length_c 7.515780
_cell_angle_alpha 90.000000
_cell_angle_beta 90.000000
_cell_angle_gamma 90.000000
_cell_volume 4457.093638
_symmetry_space_group_name_H-M "C M M M"
_symmetry_group_IT_number 65
_symmetry_cell_setting 'orthorhombic'
loop_
_space_group_symop_operation_xyz
x,y,z
-x,-y,z
x,-y,-z
-x,y,-z
-x,-y,-z
x,y,-z
-x,y,z
x,-y,z
1/2+x,1/2+y,z
1/2-x,1/2-y,z
1/2+x,1/2-y,-z
1/2-x,1/2+y,-z
1/2-x,1/2-y,-z
1/2+x,1/2+y,-z
1/2-x,1/2+y,z
1/2+x,1/2-y,z
loop_
_atom_site_type_symbol
_atom_site_label
_atom_site_fract_x
_atom_site_fract_y
_atom_site_fract_z
Si Si1 0.168750 0.945177 0.713237
Si Si2 0.738296 0.138886 0.289977
Si Si3 0.568087 0.625973 0.787802
Si Si4 0.572704 0.000000 0.786752
Si Si5 0.105329 0.392948 0.796618
Si Si6 0.933709 0.709653 0.217957
Si Si7 0.160677 0.789040 0.214474
O O1 0.175037 0.946210 0.500000
O O2 0.215172 0.903307 0.779285
O O3 0.101190 0.925899 0.754223
O O4 0.180787 0.000000 0.782173
O O5 0.729354 0.132444 0.500000
O O6 0.674088 0.127440 0.202350
O O7 0.772220 0.191429 0.264004
O O8 0.500000 0.628877 0.716149
O O9 0.614078 0.668064 0.720679
O O10 0.564912 0.633402 0.000000
O O11 0.599270 0.947831 0.717204
O O12 0.500000 0.000000 0.758936
O O13 0.585018 0.000000 0.000000
O O14 0.069236 0.346708 0.717076
O O15 0.082929 0.397761 0.000000
O O16 0.873650 0.739563 0.276838
O O17 0.000000 0.731928 0.265538
O O18 0.931764 0.709411 0.000000
O O19 0.161137 0.787459 0.000000
#
# Coordination Sequence:
#
# PCOD9489680 Si02
#       7
#    16  16  16   8  16  16  16
#     4   9  19  34  49  65  89 127 172 214 254 303
#     4  10  21  36  53  74 104 140 178 219 265 315
#     4   9  17  29  46  70  98 126 160 206 260 310
#     4   9  18  34  57  85 115 143 174 221 276 323
#     4  10  20  34  55  83 110 139 177 220 266 319
#     4   9  17  31  55  84 109 137 176 219 263 315
#     4   9  17  32  54  77 103 136 175 217 258 307
#
# _framework density 23.333590000000001
#
# number of rings (size 3 to 8) (size 9 to 14) (size 15 to 20)
#    0.000    2.692    0.000    1.385    1.077    5.846 
#    0.000    5.385    0.000    4.615    0.000    0.000 
#    0.000    0.000    0.000    0.000    0.000    0.000 
#
# Total GULP energy -290199.329930 kJ/mol
# GULP energy per Si atom -5580.756345 kJ/mol
# Density = 2.328048 g / cm^3
# Si number density = 23.333590 Si / 1000 Ang^3
#
#
#
# Elastic Constant Matrix: (Units=GPa)
#
#
# Indices 1 2 3 4 5 6 
#
# 1 103.7412 36.3468 -8.7572 0.0000 0.0000 0.0000
# 2 36.3468 146.2388 -1.0418 0.0000 0.0000 0.0000
# 3 -8.7572 -1.0418 67.0602 0.0000 0.0000 0.0000
# 4 0.0000 0.0000 0.0000 -9.3349 0.0000 0.0000
# 5 0.0000 0.0000 0.0000 0.0000 -127.6598 0.0000
# 6 0.0000 0.0000 0.0000 0.0000 0.0000 25.3622
#
#
#
# Elastic Compliance Matrix: (Units=1/GPa)
#
#
# Indices 1 2 3 4 5 6 
#
# 1 0.010680 -0.002645 0.001354 0.000000 0.000000 0.000000
# 2 -0.002645 0.007494 -0.000229 0.000000 0.000000 0.000000
# 3 0.001354 -0.000229 0.015085 0.000000 0.000000 0.000000
# 4 0.000000 0.000000 0.000000 -0.107125 0.000000 0.000000
# 5 0.000000 0.000000 0.000000 0.000000 -0.007833 0.000000
# 6 0.000000 0.000000 0.000000 0.000000 0.000000 0.039429
#
#
# Mechanical properties :
#
#
# Convention : Reuss Voigt Hill
#
# Bulk Modulus (GPa) = 33.09189 41.12620 37.10904
# Shear Modulus (GPa) = -171.48615 -2.96035 -87.22325
#
# Velocity S-wave (km/s) = -8.58212 -1.12759 -6.12063
# Velocity P-wave (km/s) = 9.16465 3.99604 5.83192
#
# Compressibility (1/GPa) = 0.03021888
#
# Stress axis : x y z
#
# Youngs Moduli (GPa) = 93.63040 133.44241 66.29023
#
# Poissons Ratio (x) = 0.35294 -0.08973
# Poissons Ratio (y) = 0.24764 0.01518
# Poissons Ratio (z) = -0.12674 0.03055
#
# Static dielectric constant tensor:
#      x y z
#    x 1.883990 0.000000 0.000000 
#    y 0.000000 1.904100 0.000000 
#    z 0.000000 0.000000 1.938360 
# 
# From -- ./inp_files/12405.got.cif
#   From: 2010.05.17/outbox.cif.g08.bks.cpg/sg65_7_cif.got.tgz:12405.got - 2010.06.03 17:01:31.
