data_PCOD9489541
_publ_section_title
;
Structure prediction by ZEFSAII (Michael W. Deem and Ramdas Pophale) SiO2 
 PCOD9489541
Probable space group: C M M M
;
_chemical_formula_sum "Si O2"
_cell_formula_units_Z 120
_cell_length_a 8.284681
_cell_length_b 28.501741
_cell_length_c 23.753547
_cell_angle_alpha 90.000000
_cell_angle_beta 90.000000
_cell_angle_gamma 90.000000
_cell_volume 5608.873558
_symmetry_space_group_name_H-M "C M M M"
_symmetry_group_IT_number 65
_symmetry_cell_setting 'orthorhombic'
loop_
_space_group_symop_operation_xyz
x,y,z
-x,-y,z
x,-y,-z
-x,y,-z
-x,-y,-z
x,y,-z
-x,y,z
x,-y,z
1/2+x,1/2+y,z
1/2-x,1/2-y,z
1/2+x,1/2-y,-z
1/2-x,1/2+y,-z
1/2-x,1/2-y,-z
1/2+x,1/2+y,-z
1/2-x,1/2+y,z
1/2+x,1/2-y,z
loop_
_atom_site_type_symbol
_atom_site_label
_atom_site_fract_x
_atom_site_fract_y
_atom_site_fract_z
Si Si1 0.186363 0.397574 0.067861
Si Si2 0.309209 0.300020 0.885211
Si Si3 0.693068 0.301992 0.663588
Si Si4 0.694566 0.138759 0.436054
Si Si5 0.304127 0.000000 0.932767
Si Si6 0.805730 0.152006 0.223478
Si Si7 0.305452 0.051709 0.230682
Si Si8 0.803700 0.448400 0.637630
O O1 0.267572 0.348422 0.083334
O O2 0.253002 0.448633 0.087887
O O3 0.000000 0.394830 0.087063
O O4 0.185825 0.400292 0.000000
O O5 0.500000 0.296342 0.882949
O O6 0.250000 0.250000 0.907865
O O7 0.245951 0.310108 0.821835
O O8 0.500000 0.304037 0.662300
O O9 0.750000 0.250000 0.676981
O O10 0.758681 0.318161 0.603504
O O11 0.753909 0.335648 0.713995
O O12 0.754215 0.141409 0.500000
O O13 0.755489 0.092970 0.402240
O O14 0.000000 0.364002 0.438136
O O15 0.500000 0.000000 0.925122
O O16 0.273962 0.000000 0.000000
O O17 0.756295 0.099932 0.204709
O O18 0.000000 0.153657 0.224576
O O19 0.500000 0.052094 0.228002
O O20 0.255799 0.055019 0.296852
O O21 0.252866 0.000000 0.209981
O O22 0.755698 0.500000 0.616986
O O23 0.000000 0.446655 0.637809
#
# Coordination Sequence:
#
# PCOD9489541 Si02
#       8
#    16  16  16  16   8  16  16  16
#     4   9  18  36  63  92 122 159 200 241 287 338
#     4  11  24  41  59  84 118 154 197 245 294 344
#     4  11  23  39  59  79 100 133 178 225 278 332
#     4  10  20  34  54  80 108 138 173 216 267 321
#     4   7  12  28  57  89 119 153 195 239 280 329
#     4  10  22  39  58  82 111 146 185 230 283 336
#     4   9  17  31  55  84 111 143 184 226 268 324
#     4   8  14  27  49  78 109 137 169 210 254 306
#
# _framework density 21.394669
#
# number of rings (size 3 to 8) (size 9 to 14) (size 15 to 20)
#    0.000    2.467    1.333    2.800    0.000    3.200 
#    1.200    1.667    0.000    1.600    0.000    0.933 
#    0.000    0.000    0.000    0.000    0.000    0.000 
#
# Total GULP energy -334739.969464 kJ/mol
# GULP energy per Si atom -5578.999491 kJ/mol
# Density = 2.134597 g / cm^3
# Si number density = 21.394669 Si / 1000 Ang^3
#
#
#
# Elastic Constant Matrix: (Units=GPa)
#
#
# Indices 1 2 3 4 5 6 
#
# 1 7.9497 11.4466 5.9796 0.0000 0.0000 0.0000
# 2 11.4466 175.8399 32.7038 0.0000 0.0000 0.0000
# 3 5.9796 32.7038 53.0464 0.0000 0.0000 0.0000
# 4 0.0000 0.0000 0.0000 24.7108 0.0000 0.0000
# 5 0.0000 0.0000 0.0000 0.0000 15.4476 0.0000
# 6 0.0000 0.0000 0.0000 0.0000 0.0000 24.6522
#
#
#
# Elastic Compliance Matrix: (Units=1/GPa)
#
#
# Indices 1 2 3 4 5 6 
#
# 1 0.145162 -0.007236 -0.011902 0.000000 0.000000 0.000000
# 2 -0.007236 0.006784 -0.003367 0.000000 0.000000 0.000000
# 3 -0.011902 -0.003367 0.022269 0.000000 0.000000 0.000000
# 4 0.000000 0.000000 0.000000 0.040468 0.000000 0.000000
# 5 0.000000 0.000000 0.000000 0.000000 0.064735 0.000000
# 6 0.000000 0.000000 0.000000 0.000000 0.000000 0.040564
#
#
# Mechanical properties :
#
#
# Convention : Reuss Voigt Hill
#
# Bulk Modulus (GPa) = 7.73964 37.45511 22.59737
# Shear Modulus (GPa) = 12.25309 25.40920 18.83114
#
# Velocity S-wave (km/s) = 2.39575 3.44996 2.97000
# Velocity P-wave (km/s) = 3.35831 5.78051 4.72719
#
# Compressibility (1/GPa) = 0.12920495
#
# Stress axis : x y z
#
# Youngs Moduli (GPa) = 6.88887 147.40069 44.90585
#
# Poissons Ratio (x) = 1.06659 0.53447
# Poissons Ratio (y) = 0.04985 0.15119
# Poissons Ratio (z) = 0.08199 0.49628
#
# Static dielectric constant tensor:
#      x y z
#    x 1.749300 0.000000 0.000000 
#    y 0.000000 1.785350 0.000000 
#    z 0.000000 0.000000 1.805080 
# 
# From -- ./inp_files/73931.got.cif
#   From: 2010.05.17/outbox.cif.g08.bks.cpg/sg65_37_cif.got.tgz:73931.got - 2010.06.03 17:01:31.
