data_PCOD9489851
_publ_section_title
;
Structure prediction by ZEFSAII (Michael W. Deem and Ramdas Pophale) SiO2 
 PCOD9489851
Probable space group: C M M M
;
_chemical_formula_sum "Si O2"
_cell_formula_units_Z 64
_cell_length_a 26.212668
_cell_length_b 8.663421
_cell_length_c 14.855959
_cell_angle_alpha 90.000000
_cell_angle_beta 90.000000
_cell_angle_gamma 90.000000
_cell_volume 3373.660207
_symmetry_space_group_name_H-M "C M M M"
_symmetry_group_IT_number 65
_symmetry_cell_setting 'orthorhombic'
loop_
_space_group_symop_operation_xyz
x,y,z
-x,-y,z
x,-y,-z
-x,y,-z
-x,-y,-z
x,y,-z
-x,y,z
x,-y,z
1/2+x,1/2+y,z
1/2-x,1/2-y,z
1/2+x,1/2-y,-z
1/2-x,1/2+y,-z
1/2-x,1/2-y,-z
1/2+x,1/2+y,-z
1/2-x,1/2+y,z
1/2+x,1/2-y,z
loop_
_atom_site_type_symbol
_atom_site_label
_atom_site_fract_x
_atom_site_fract_y
_atom_site_fract_z
Si Si1 0.693354 0.316149 0.797453
Si Si2 0.096526 0.319885 0.720166
Si Si3 0.561224 0.323840 0.898778
Si Si4 0.807570 0.813846 0.000000
Si Si5 0.000000 0.688482 0.604414
O O1 0.696794 0.500000 0.796249
O O2 0.750000 0.250000 0.783242
O O3 0.651545 0.260736 0.725517
O O4 0.674792 0.267392 0.899000
O O5 0.103867 0.500000 0.701607
O O6 0.074832 0.292269 0.820315
O O7 0.051899 0.259139 0.654280
O O8 0.500000 0.329164 0.902913
O O9 0.578585 0.500000 0.876695
O O10 0.579443 0.287963 0.000000
O O11 0.750000 0.750000 0.000000
O O12 0.808449 0.000000 0.000000
O O13 0.000000 0.500000 0.610356
O O14 0.000000 0.731624 0.500000
#
# Coordination Sequence:
#
# PCOD9489851 Si02
#       5
#    16  16  16   8   8
#     4  10  20  35  53  77 111 151 193 230 271 321
#     4  11  21  34  55  83 110 142 186 232 279 328
#     4   9  18  32  49  71 106 150 187 220 266 323
#     4   8  16  30  48  69 100 145 191 225 257 303
#     4   9  20  40  62  83 110 142 179 227 286 347
#
# _framework density 18.970493999999999
#
# number of rings (size 3 to 8) (size 9 to 14) (size 15 to 20)
#    0.000    2.375    1.250    2.250    1.750    1.500 
#    0.000    1.250    0.000    6.750    0.000    0.000 
#    0.000    0.000    0.000    0.000    0.000    0.000 
#
# Total GULP energy -178382.471305 kJ/mol
# GULP energy per Si atom -5574.452228 kJ/mol
# Density = 1.892732 g / cm^3
# Si number density = 18.970494 Si / 1000 Ang^3
#
#
#
# Elastic Constant Matrix: (Units=GPa)
#
#
# Indices 1 2 3 4 5 6 
#
# 1 153.0833 36.8387 63.7384 0.0000 0.0000 0.0000
# 2 36.8387 27.8933 18.0880 0.0000 0.0000 0.0000
# 3 63.7384 18.0880 87.0588 0.0000 0.0000 0.0000
# 4 0.0000 0.0000 0.0000 10.4844 0.0000 0.0000
# 5 0.0000 0.0000 0.0000 0.0000 20.1903 0.0000
# 6 0.0000 0.0000 0.0000 0.0000 0.0000 32.5005
#
#
#
# Elastic Compliance Matrix: (Units=1/GPa)
#
#
# Indices 1 2 3 4 5 6 
#
# 1 0.011998 -0.011730 -0.006347 0.000000 0.000000 0.000000
# 2 -0.011730 0.052901 -0.002403 0.000000 0.000000 0.000000
# 3 -0.006347 -0.002403 0.016633 0.000000 0.000000 0.000000
# 4 0.000000 0.000000 0.000000 0.095380 0.000000 0.000000
# 5 0.000000 0.000000 0.000000 0.000000 0.049529 0.000000
# 6 0.000000 0.000000 0.000000 0.000000 0.000000 0.030769
#
#
# Mechanical properties :
#
#
# Convention : Reuss Voigt Hill
#
# Bulk Modulus (GPa) = 24.64804 56.15175 40.39989
# Shear Modulus (GPa) = 16.04150 22.59306 19.31728
#
# Velocity S-wave (km/s) = 2.91108 3.45477 3.19451
# Velocity P-wave (km/s) = 4.93155 6.75112 5.91176
#
# Compressibility (1/GPa) = 0.04057118
#
# Stress axis : x y z
#
# Youngs Moduli (GPa) = 83.34967 18.90334 60.12305
#
# Poissons Ratio (x) = 0.22173 0.38159
# Poissons Ratio (y) = 0.97766 0.14450
# Poissons Ratio (z) = 0.52901 0.04543
#
# Static dielectric constant tensor:
#      x y z
#    x 1.731020 0.000000 0.000000 
#    y 0.000000 1.664100 0.000000 
#    z 0.000000 0.000000 1.646450 
# 
# From -- ./inp_files/46403.got.cif
#   From: 2010.05.17/outbox.cif.g08.bks.cpg/sg65_24_cif.got.tgz:46403.got - 2010.06.03 17:01:31.
