data_PCOD9489435
_publ_section_title
;
Structure prediction by ZEFSAII (Michael W. Deem and Ramdas Pophale) SiO2 
 PCOD9489435
Probable space group: C M M M
;
_chemical_formula_sum "Si O2"
_cell_formula_units_Z 104
_cell_length_a 18.053483
_cell_length_b 19.253080
_cell_length_c 16.202375
_cell_angle_alpha 90.000000
_cell_angle_beta 90.000000
_cell_angle_gamma 90.000000
_cell_volume 5631.704985
_symmetry_space_group_name_H-M "C M M M"
_symmetry_group_IT_number 65
_symmetry_cell_setting 'orthorhombic'
loop_
_space_group_symop_operation_xyz
x,y,z
-x,-y,z
x,-y,-z
-x,y,-z
-x,-y,-z
x,y,-z
-x,y,z
x,-y,z
1/2+x,1/2+y,z
1/2-x,1/2-y,z
1/2+x,1/2-y,-z
1/2-x,1/2+y,-z
1/2-x,1/2-y,-z
1/2+x,1/2+y,-z
1/2-x,1/2+y,z
1/2+x,1/2-y,z
loop_
_atom_site_type_symbol
_atom_site_label
_atom_site_fract_x
_atom_site_fract_y
_atom_site_fract_z
Si Si1 0.850237 0.315970 0.500000
Si Si2 0.084412 0.000000 0.901290
Si Si3 0.824895 0.847179 0.500000
Si Si4 0.683636 0.637265 0.097978
Si Si5 0.916702 0.797636 0.222278
Si Si6 0.358147 0.580432 0.671695
Si Si7 0.790697 0.579851 0.780160
Si Si8 0.913332 0.656710 0.678680
O O1 0.854772 0.231851 0.500000
O O2 0.764192 0.338390 0.500000
O O3 0.887375 0.343048 0.416135
O O4 0.133145 0.931749 0.883144
O O5 0.000000 0.000000 0.867184
O O6 0.076828 0.000000 0.000000
O O7 0.850290 0.889094 0.419661
O O8 0.641537 0.697356 0.147869
O O9 0.762203 0.623171 0.141145
O O10 0.687292 0.646839 0.000000
O O11 0.908732 0.867367 0.276330
O O12 0.901839 0.733604 0.283137
O O13 0.000000 0.791831 0.189476
O O14 0.381732 0.500000 0.673309
O O15 0.277268 0.584613 0.714932
O O16 0.799295 0.500000 0.804670
O O17 0.862809 0.607513 0.734545
O O18 0.000000 0.639963 0.683819
#
# Coordination Sequence:
#
# PCOD9489435 Si02
#       8
#     8   8   8  16  16  16  16  16
#     4  11  21  36  62  85 110 152 198 251 291 349
#     4   9  16  28  50  84 119 150 185 222 273 338
#     4  11  19  32  58  83 112 150 194 241 290 348
#     4  10  20  35  59  87 117 154 190 233 286 342
#     4  10  22  37  55  82 119 158 196 237 285 349
#     4  10  20  34  53  80 116 155 191 236 290 342
#     4  10  21  38  60  85 115 146 190 248 302 357
#     4  11  23  41  61  83 114 153 196 247 305 352
#
# _framework density 18.466877
#
# number of rings (size 3 to 8) (size 9 to 14) (size 15 to 20)
#    0.000    1.769    3.846    0.923    1.077    4.000 
#    0.000    2.308    0.000    3.231    0.000    1.077 
#    0.000    0.000    0.000    0.000    0.000    0.000 
#
# Total GULP energy -290313.439763 kJ/mol
# GULP energy per Si atom -5582.950765 kJ/mol
# Density = 1.842485 g / cm^3
# Si number density = 18.466877 Si / 1000 Ang^3
#
#
#
# Elastic Constant Matrix: (Units=GPa)
#
#
# Indices 1 2 3 4 5 6 
#
# 1 69.9325 10.9653 42.1116 0.0000 0.0000 0.0000
# 2 10.9653 26.4750 14.5561 0.0000 0.0000 0.0000
# 3 42.1116 14.5561 142.5110 0.0000 0.0000 0.0000
# 4 0.0000 0.0000 0.0000 15.9295 0.0000 0.0000
# 5 0.0000 0.0000 0.0000 0.0000 15.3732 0.0000
# 6 0.0000 0.0000 0.0000 0.0000 0.0000 9.9890
#
#
#
# Elastic Compliance Matrix: (Units=1/GPa)
#
#
# Indices 1 2 3 4 5 6 
#
# 1 0.017950 -0.004787 -0.004815 0.000000 0.000000 0.000000
# 2 -0.004787 0.041296 -0.002803 0.000000 0.000000 0.000000
# 3 -0.004815 -0.002803 0.008726 0.000000 0.000000 0.000000
# 4 0.000000 0.000000 0.000000 0.062777 0.000000 0.000000
# 5 0.000000 0.000000 0.000000 0.000000 0.065048 0.000000
# 6 0.000000 0.000000 0.000000 0.000000 0.000000 0.100110
#
#
# Mechanical properties :
#
#
# Convention : Reuss Voigt Hill
#
# Bulk Modulus (GPa) = 23.16939 41.57606 32.37272
# Shear Modulus (GPa) = 14.92076 19.67738 17.29907
#
# Velocity S-wave (km/s) = 2.84557 3.26782 3.06398
# Velocity P-wave (km/s) = 4.83426 6.06637 5.48502
#
# Compressibility (1/GPa) = 0.04316039
#
# Stress axis : x y z
#
# Youngs Moduli (GPa) = 55.71148 24.21571 114.59744
#
# Poissons Ratio (x) = 0.11592 0.55180
# Poissons Ratio (y) = 0.26669 0.32126
# Poissons Ratio (z) = 0.26826 0.06789
#
# Static dielectric constant tensor:
#      x y z
#    x 1.631020 0.000000 0.000000 
#    y 0.000000 1.647490 0.000000 
#    z 0.000000 0.000000 1.619510 
# 
# From -- ./inp_files/42919.got.cif
#   From: 2010.05.17/outbox.cif.g08.bks.cpg/sg65_22_cif.got.tgz:42919.got - 2010.06.03 17:01:31.
