data_PCOD9489450
_publ_section_title
;
Structure prediction by ZEFSAII (Michael W. Deem and Ramdas Pophale) SiO2 
 PCOD9489450
Probable space group: C M M M
;
_chemical_formula_sum "Si O2"
_cell_formula_units_Z 82
_cell_length_a 23.101220
_cell_length_b 21.811620
_cell_length_c 9.040946
_cell_angle_alpha 90.000000
_cell_angle_beta 90.000000
_cell_angle_gamma 90.000000
_cell_volume 4555.506957
_symmetry_space_group_name_H-M "C M M M"
_symmetry_group_IT_number 65
_symmetry_cell_setting 'orthorhombic'
loop_
_space_group_symop_operation_xyz
x,y,z
-x,-y,z
x,-y,-z
-x,y,-z
-x,-y,-z
x,y,-z
-x,y,z
x,-y,z
1/2+x,1/2+y,z
1/2-x,1/2-y,z
1/2+x,1/2-y,-z
1/2-x,1/2+y,-z
1/2-x,1/2-y,-z
1/2+x,1/2+y,-z
1/2-x,1/2+y,z
1/2+x,1/2-y,z
loop_
_atom_site_type_symbol
_atom_site_label
_atom_site_fract_x
_atom_site_fract_y
_atom_site_fract_z
Si Si1 0.710147 0.570052 0.165263
Si Si2 0.500000 0.000000 0.500000
Si Si3 0.664105 0.120596 0.827146
Si Si4 0.619309 0.000000 0.336666
Si Si5 0.887408 0.869138 0.674171
Si Si6 0.500000 0.427178 0.822446
Si Si7 0.818401 0.254365 0.678390
O O1 0.730011 0.500000 0.170070
O O2 0.766713 0.610648 0.183227
O O3 0.662764 0.582497 0.287674
O O4 0.685113 0.580916 0.000000
O O5 0.448447 0.000000 0.374152
O O6 0.636060 0.061681 0.749363
O O7 0.653406 0.184874 0.747121
O O8 0.648495 0.122514 0.000000
O O9 0.649142 0.000000 0.500000
O O10 0.899747 0.866162 0.500000
O O11 0.856922 0.804869 0.720352
O O12 0.943956 0.891889 0.759687
O O13 0.500000 0.500000 0.779014
O O14 0.500000 0.425406 0.000000
O O15 0.818783 0.258448 0.500000
O O16 0.750000 0.250000 0.722471
#
# Coordination Sequence:
#
# PCOD9489450 Si02
#       7
#    16   2  16   8  16   8  16
#     4  10  20  34  53  85 126 158 193 247 314 376
#     4   8  24  44  66  88 108 164 198 230 314 380
#     4  11  21  35  60  94 125 158 201 254 314 370
#     4  10  21  41  65  87 121 155 207 252 311 375
#     4  11  23  39  61  88 122 161 215 262 305 367
#     4  11  25  45  66  87 121 170 214 262 320 373
#     4  10  21  38  58  89 129 167 203 249 312 377
#
# _framework density 18.000191999999998
#
# number of rings (size 3 to 8) (size 9 to 14) (size 15 to 20)
#    0.293    1.268    2.927    2.341    0.000    6.244 
#    0.000    1.951    0.000    0.000    0.000    0.000 
#    0.000    0.000    0.000    0.000    0.000    0.000 
#
# Total GULP energy -228372.156117 kJ/mol
# GULP energy per Si atom -5570.052588 kJ/mol
# Density = 1.795922 g / cm^3
# Si number density = 18.000192 Si / 1000 Ang^3
#
#
#
# Elastic Constant Matrix: (Units=GPa)
#
#
# Indices 1 2 3 4 5 6 
#
# 1 87.8182 51.0722 44.4473 0.0000 0.0000 0.0000
# 2 51.0722 131.5624 50.5388 0.0000 0.0000 0.0000
# 3 44.4473 50.5388 55.8880 0.0000 0.0000 0.0000
# 4 0.0000 0.0000 0.0000 -26.4816 0.0000 0.0000
# 5 0.0000 0.0000 0.0000 0.0000 28.8954 0.0000
# 6 0.0000 0.0000 0.0000 0.0000 0.0000 19.6778
#
#
#
# Elastic Compliance Matrix: (Units=1/GPa)
#
#
# Indices 1 2 3 4 5 6 
#
# 1 0.019573 -0.002480 -0.013324 0.000000 0.000000 0.000000
# 2 -0.002480 0.011961 -0.008844 0.000000 0.000000 0.000000
# 3 -0.013324 -0.008844 0.036486 0.000000 0.000000 0.000000
# 4 0.000000 0.000000 0.000000 -0.037762 0.000000 0.000000
# 5 0.000000 0.000000 0.000000 0.000000 0.034608 0.000000
# 6 0.000000 0.000000 0.000000 0.000000 0.000000 0.050819
#
#
# Mechanical properties :
#
#
# Convention : Reuss Voigt Hill
#
# Bulk Modulus (GPa) = 53.40303 63.04280 58.22292
# Shear Modulus (GPa) = 29.20200 13.03234 21.11717
#
# Velocity S-wave (km/s) = 4.03217 2.69366 3.42886
# Velocity P-wave (km/s) = 7.17010 6.69133 6.93485
#
# Compressibility (1/GPa) = 0.01872553
#
# Stress axis : x y z
#
# Youngs Moduli (GPa) = 51.09107 83.60510 27.40742
#
# Poissons Ratio (x) = 0.20734 0.36516
# Poissons Ratio (y) = 0.12671 0.24239
# Poissons Ratio (z) = 0.68072 0.73939
#
# Static dielectric constant tensor:
#      x y z
#    x 1.595950 0.000000 0.000000 
#    y 0.000000 1.632100 0.000000 
#    z 0.000000 0.000000 1.635810 
# 
# From -- ./inp_files/13916.got.cif
#   From: 2010.05.17/outbox.cif.g08.bks.cpg/sg65_7_cif.got.tgz:13916.got - 2010.06.03 17:01:31.
