data_PCOD9489516
_publ_section_title
;
Structure prediction by ZEFSAII (Michael W. Deem and Ramdas Pophale) SiO2 
 PCOD9489516
Probable space group: C M M M
;
_chemical_formula_sum "Si O2"
_cell_formula_units_Z 64
_cell_length_a 18.421366
_cell_length_b 7.863068
_cell_length_c 21.351550
_cell_angle_alpha 90.000000
_cell_angle_beta 90.000000
_cell_angle_gamma 90.000000
_cell_volume 3092.738998
_symmetry_space_group_name_H-M "C M M M"
_symmetry_group_IT_number 65
_symmetry_cell_setting 'orthorhombic'
loop_
_space_group_symop_operation_xyz
x,y,z
-x,-y,z
x,-y,-z
-x,y,-z
-x,-y,-z
x,y,-z
-x,y,z
x,-y,z
1/2+x,1/2+y,z
1/2-x,1/2-y,z
1/2+x,1/2-y,-z
1/2-x,1/2+y,-z
1/2-x,1/2-y,-z
1/2+x,1/2+y,-z
1/2-x,1/2+y,z
1/2+x,1/2-y,z
loop_
_atom_site_type_symbol
_atom_site_label
_atom_site_fract_x
_atom_site_fract_y
_atom_site_fract_z
Si Si1 0.665626 0.702639 0.124856
Si Si2 0.584078 0.291626 0.000000
Si Si3 0.584011 0.208202 0.500000
Si Si4 0.582446 0.796079 0.748862
Si Si5 0.834463 0.294925 0.374531
O O1 0.660689 0.500000 0.123515
O O2 0.750000 0.750000 0.124997
O O3 0.625737 0.761264 0.187662
O O4 0.625295 0.767565 0.062469
O O5 0.585205 0.500000 0.000000
O O6 0.500000 0.239878 0.000000
O O7 0.500000 0.260541 0.500000
O O8 0.625465 0.265337 0.437463
O O9 0.584655 0.000000 0.500000
O O10 0.500000 0.729747 0.751909
O O11 0.625513 0.730737 0.688042
O O12 0.578121 0.000000 0.742212
O O13 0.839603 0.500000 0.374376
O O14 0.750000 0.250000 0.374550
#
# Coordination Sequence:
#
# PCOD9489516 Si02
#       5
#    16   8   8  16  16
#     4  11  22  37  58  82 110 144 181 221 267 319
#     4   9  19  36  57  81 108 139 178 223 268 316
#     4   9  17  32  55  79 102 135 180 222 262 313
#     4  10  21  37  56  80 110 142 179 224 271 320
#     4  10  20  34  54  79 107 140 177 219 266 316
#
# _framework density 20.693632000000001
#
# number of rings (size 3 to 8) (size 9 to 14) (size 15 to 20)
#    0.000    2.000    0.000    3.750    0.000    7.500 
#    0.000    1.875    0.000    7.500    0.000    0.000 
#    0.000    0.000    0.000    0.000    0.000    0.000 
#
# Total GULP energy -178862.899326 kJ/mol
# GULP energy per Si atom -5589.465604 kJ/mol
# Density = 2.064653 g / cm^3
# Si number density = 20.693632 Si / 1000 Ang^3
#
#
#
# Elastic Constant Matrix: (Units=GPa)
#
#
# Indices 1 2 3 4 5 6 
#
# 1 249.6426 3.0789 159.0540 0.0000 0.0000 0.0000
# 2 3.0789 23.6080 8.3564 0.0000 0.0000 0.0000
# 3 159.0540 8.3564 257.2980 0.0000 0.0000 0.0000
# 4 0.0000 0.0000 0.0000 121.4409 0.0000 0.0000
# 5 0.0000 0.0000 0.0000 0.0000 49.1590 0.0000
# 6 0.0000 0.0000 0.0000 0.0000 0.0000 16.9353
#
#
#
# Elastic Compliance Matrix: (Units=1/GPa)
#
#
# Indices 1 2 3 4 5 6 
#
# 1 0.006617 0.000592 -0.004109 0.000000 0.000000 0.000000
# 2 0.000592 0.042904 -0.001759 0.000000 0.000000 0.000000
# 3 -0.004109 -0.001759 0.006484 0.000000 0.000000 0.000000
# 4 0.000000 0.000000 0.000000 0.008234 0.000000 0.000000
# 5 0.000000 0.000000 0.000000 0.000000 0.020342 0.000000
# 6 0.000000 0.000000 0.000000 0.000000 0.000000 0.059048
#
#
# Mechanical properties :
#
#
# Convention : Reuss Voigt Hill
#
# Bulk Modulus (GPa) = 22.00182 96.83637 59.41909
# Shear Modulus (GPa) = 29.52751 61.51101 45.51926
#
# Velocity S-wave (km/s) = 3.78152 5.45794 4.69516
# Velocity P-wave (km/s) = 5.45176 9.30675 7.62684
#
# Compressibility (1/GPa) = 0.04545079
#
# Stress axis : x y z
#
# Youngs Moduli (GPa) = 151.13354 23.30784 154.22552
#
# Poissons Ratio (x) = -0.01379 0.63378
# Poissons Ratio (y) = -0.08942 0.27131
# Poissons Ratio (z) = 0.62107 0.04100
#
# Static dielectric constant tensor:
#      x y z
#    x 1.683850 0.000000 0.000000 
#    y 0.000000 1.766440 0.000000 
#    z 0.000000 0.000000 1.716690 
# 
# From -- ./inp_files/58776.got.cif
#   From: 2010.05.17/outbox.cif.g08.bks.cpg/sg65_30_cif.got.tgz:58776.got - 2010.06.03 17:01:31.
