data_PCOD9489779
_publ_section_title
;
Structure prediction by ZEFSAII (Michael W. Deem and Ramdas Pophale) SiO2 
 PCOD9489779
Probable space group: C M M M
;
_chemical_formula_sum "Si O2"
_cell_formula_units_Z 88
_cell_length_a 19.118502
_cell_length_b 22.910008
_cell_length_c 10.849904
_cell_angle_alpha 90.000000
_cell_angle_beta 90.000000
_cell_angle_gamma 90.000000
_cell_volume 4752.312568
_symmetry_space_group_name_H-M "C M M M"
_symmetry_group_IT_number 65
_symmetry_cell_setting 'orthorhombic'
loop_
_space_group_symop_operation_xyz
x,y,z
-x,-y,z
x,-y,-z
-x,y,-z
-x,-y,-z
x,y,-z
-x,y,z
x,-y,z
1/2+x,1/2+y,z
1/2-x,1/2-y,z
1/2+x,1/2-y,-z
1/2-x,1/2+y,-z
1/2-x,1/2-y,-z
1/2+x,1/2+y,-z
1/2-x,1/2+y,z
1/2+x,1/2-y,z
loop_
_atom_site_type_symbol
_atom_site_label
_atom_site_fract_x
_atom_site_fract_y
_atom_site_fract_z
Si Si1 0.919690 0.569681 0.500000
Si Si2 0.309617 0.069462 0.000000
Si Si3 0.643562 0.570788 0.000000
Si Si4 0.656014 0.878013 0.738147
Si Si5 0.580467 0.348055 0.789203
Si Si6 0.080147 0.283127 0.868691
Si Si7 0.784105 0.812723 0.646636
O O1 0.920327 0.500000 0.500000
O O2 0.881181 0.590454 0.624392
O O3 0.000000 0.591106 0.500000
O O4 0.343823 0.090674 0.871140
O O5 0.226680 0.085517 0.000000
O O6 0.313213 0.000000 0.000000
O O7 0.608077 0.601346 0.119529
O O8 0.635746 0.500000 0.000000
O O9 0.618119 0.816026 0.759693
O O10 0.734677 0.862795 0.701538
O O11 0.500000 0.359886 0.749462
O O12 0.579194 0.286252 0.860449
O O13 0.637814 0.331110 0.686333
O O14 0.000000 0.303265 0.868005
O O15 0.113840 0.298649 0.000000
O O16 0.779317 0.812244 0.500000
O O17 0.750000 0.750000 0.688826
#
# Coordination Sequence:
#
# PCOD9489779 Si02
#       7
#     8   8   8  16  16  16  16
#     4  11  26  46  65  88 125 175 221 258 304 372
#     4  11  24  38  61  94 122 156 210 269 312 361
#     4  11  23  39  61  90 122 161 210 256 312 384
#     4  12  21  40  65  90 123 162 210 255 314 377
#     4  11  22  38  61  89 125 163 203 256 316 376
#     4  10  20  34  57  91 125 156 194 250 315 375
#     4  11  23  39  60  91 125 161 204 255 315 381
#
# _framework density 18.517299999999999
#
# number of rings (size 3 to 8) (size 9 to 14) (size 15 to 20)
#    0.000    1.000    6.364    1.364    0.000    1.091 
#    0.000    2.727    0.000    2.182    0.000    1.273 
#    0.000    0.000    0.000    0.000    0.000    0.000 
#
# Total GULP energy -245152.733300 kJ/mol
# GULP energy per Si atom -5571.653030 kJ/mol
# Density = 1.847515 g / cm^3
# Si number density = 18.517300 Si / 1000 Ang^3
#
#
#
# Elastic Constant Matrix: (Units=GPa)
#
#
# Indices 1 2 3 4 5 6 
#
# 1 78.0740 27.5800 41.1965 0.0000 0.0000 0.0000
# 2 27.5800 74.3172 36.5438 0.0000 0.0000 0.0000
# 3 41.1965 36.5438 107.7857 0.0000 0.0000 0.0000
# 4 0.0000 0.0000 0.0000 27.0330 0.0000 0.0000
# 5 0.0000 0.0000 0.0000 0.0000 72.6730 0.0000
# 6 0.0000 0.0000 0.0000 0.0000 0.0000 22.2980
#
#
#
# Elastic Compliance Matrix: (Units=1/GPa)
#
#
# Indices 1 2 3 4 5 6 
#
# 1 0.016853 -0.003705 -0.005185 0.000000 0.000000 0.000000
# 2 -0.003705 0.016962 -0.004335 0.000000 0.000000 0.000000
# 3 -0.005185 -0.004335 0.012729 0.000000 0.000000 0.000000
# 4 0.000000 0.000000 0.000000 0.036992 0.000000 0.000000
# 5 0.000000 0.000000 0.000000 0.000000 0.013760 0.000000
# 6 0.000000 0.000000 0.000000 0.000000 0.000000 0.044847
#
#
# Mechanical properties :
#
#
# Convention : Reuss Voigt Hill
#
# Bulk Modulus (GPa) = 49.76420 52.31308 51.03864
# Shear Modulus (GPa) = 28.52379 34.72455 31.62417
#
# Velocity S-wave (km/s) = 3.92903 4.33511 4.13706
# Velocity P-wave (km/s) = 6.89317 7.30547 7.10231
#
# Compressibility (1/GPa) = 0.02009477
#
# Stress axis : x y z
#
# Youngs Moduli (GPa) = 59.33606 58.95429 78.55888
#
# Poissons Ratio (x) = 0.21840 0.40736
# Poissons Ratio (y) = 0.21982 0.34055
# Poissons Ratio (z) = 0.30768 0.25557
#
# Static dielectric constant tensor:
#      x y z
#    x 1.670400 0.000000 0.000000 
#    y 0.000000 1.636260 0.000000 
#    z 0.000000 0.000000 1.637800 
# 
# From -- ./inp_files/11896.got.cif
#   From: 2010.05.17/outbox.cif.g08.bks.cpg/sg65_6_cif.got.tgz:11896.got - 2010.06.03 17:01:31.
