data_PCOD9489917
_publ_section_title
;
Structure prediction by ZEFSAII (Michael W. Deem and Ramdas Pophale) SiO2 
 PCOD9489917
Probable space group: C M M M
;
_chemical_formula_sum "Si O2"
_cell_formula_units_Z 80
_cell_length_a 17.548054
_cell_length_b 27.490650
_cell_length_c 7.452099
_cell_angle_alpha 90.000000
_cell_angle_beta 90.000000
_cell_angle_gamma 90.000000
_cell_volume 3594.947783
_symmetry_space_group_name_H-M "C M M M"
_symmetry_group_IT_number 65
_symmetry_cell_setting 'orthorhombic'
loop_
_space_group_symop_operation_xyz
x,y,z
-x,-y,z
x,-y,-z
-x,y,-z
-x,-y,-z
x,y,-z
-x,y,z
x,-y,z
1/2+x,1/2+y,z
1/2-x,1/2-y,z
1/2+x,1/2-y,-z
1/2-x,1/2+y,-z
1/2-x,1/2-y,-z
1/2+x,1/2+y,-z
1/2-x,1/2+y,z
1/2+x,1/2-y,z
loop_
_atom_site_type_symbol
_atom_site_label
_atom_site_fract_x
_atom_site_fract_y
_atom_site_fract_z
Si Si1 0.854829 0.883701 0.289190
Si Si2 0.412066 0.000000 0.219346
Si Si3 0.500000 0.444023 0.720310
Si Si4 0.814751 0.593184 0.216658
Si Si5 0.824789 0.223518 0.710661
Si Si6 0.414703 0.816842 0.783430
O O1 0.871627 0.877669 0.500000
O O2 0.773028 0.909359 0.271378
O O3 0.844796 0.829209 0.212186
O O4 0.924600 0.915368 0.218072
O O5 0.366117 0.047928 0.276140
O O6 0.500000 0.000000 0.277264
O O7 0.413027 0.000000 0.000000
O O8 0.500000 0.500000 0.777946
O O9 0.500000 0.444893 0.500000
O O10 0.853153 0.643588 0.279856
O O11 0.816252 0.593579 0.000000
O O12 0.808443 0.215432 0.500000
O O13 0.750000 0.250000 0.789350
O O14 0.891482 0.262824 0.727234
O O15 0.500000 0.829600 0.724249
O O16 0.414031 0.818073 0.000000
#
# Coordination Sequence:
#
# PCOD9489917 Si02
#       6
#    16   8   8  16  16  16
#     4  10  21  37  57  81 109 142 183 226 273 328
#     4   9  18  34  57  82 109 142 180 219 263 319
#     4   9  20  38  59  81 105 141 189 236 277 324
#     4  10  20  35  57  82 109 142 180 222 269 323
#     4  10  20  35  54  79 110 144 181 223 273 328
#     4  10  21  35  53  80 113 147 183 221 265 320
#
# _framework density 22.253454000000001
#
# number of rings (size 3 to 8) (size 9 to 14) (size 15 to 20)
#    0.000    2.200    2.000    0.600    2.800    4.000 
#    0.000    0.500    0.000    3.000    0.000    0.000 
#    0.000    0.000    0.000    0.000    0.000    0.000 
#
# Total GULP energy -223533.052590 kJ/mol
# GULP energy per Si atom -5588.326315 kJ/mol
# Density = 2.220280 g / cm^3
# Si number density = 22.253454 Si / 1000 Ang^3
#
#
#
# Elastic Constant Matrix: (Units=GPa)
#
#
# Indices 1 2 3 4 5 6 
#
# 1 196.6325 107.8660 -6.2870 0.0000 0.0000 0.0000
# 2 107.8660 184.8431 7.4550 0.0000 0.0000 0.0000
# 3 -6.2870 7.4550 65.4382 0.0000 0.0000 0.0000
# 4 0.0000 0.0000 0.0000 3.3587 0.0000 0.0000
# 5 0.0000 0.0000 0.0000 0.0000 19.2322 0.0000
# 6 0.0000 0.0000 0.0000 0.0000 0.0000 38.4390
#
#
#
# Elastic Compliance Matrix: (Units=1/GPa)
#
#
# Indices 1 2 3 4 5 6 
#
# 1 0.007579 -0.004472 0.001238 0.000000 0.000000 0.000000
# 2 -0.004472 0.008074 -0.001350 0.000000 0.000000 0.000000
# 3 0.001238 -0.001350 0.015554 0.000000 0.000000 0.000000
# 4 0.000000 0.000000 0.000000 0.297730 0.000000 0.000000
# 5 0.000000 0.000000 0.000000 0.000000 0.051996 0.000000
# 6 0.000000 0.000000 0.000000 0.000000 0.000000 0.026015
#
#
# Mechanical properties :
#
#
# Convention : Reuss Voigt Hill
#
# Bulk Modulus (GPa) = 45.37520 73.88688 59.63104
# Shear Modulus (GPa) = 11.80739 34.73130 23.26934
#
# Velocity S-wave (km/s) = 2.30595 3.95487 3.23716
# Velocity P-wave (km/s) = 5.24636 7.35726 6.38958
#
# Compressibility (1/GPa) = 0.02203847
#
# Stress axis : x y z
#
# Youngs Moduli (GPa) = 131.94968 123.84896 64.29114
#
# Poissons Ratio (x) = 0.55391 -0.07957
# Poissons Ratio (y) = 0.59014 0.08676
# Poissons Ratio (z) = -0.16331 0.16714
#
# Static dielectric constant tensor:
#      x y z
#    x 1.785940 0.000000 0.000000 
#    y 0.000000 1.798000 0.000000 
#    z 0.000000 0.000000 1.841720 
# 
# From -- ./inp_files/9730.got.cif
#   From: 2010.05.17/outbox.cif.g08.bks.cpg/sg65_5_cif.got.tgz:9730.got - 2010.06.03 17:01:31.
