data_PCOD9489345
_publ_section_title
;
Structure prediction by ZEFSAII (Michael W. Deem and Ramdas Pophale) SiO2 
 PCOD9489345
Probable space group: C M M M
;
_chemical_formula_sum "Si O2"
_cell_formula_units_Z 80
_cell_length_a 8.750117
_cell_length_b 27.533098
_cell_length_c 15.324115
_cell_angle_alpha 90.000000
_cell_angle_beta 90.000000
_cell_angle_gamma 90.000000
_cell_volume 3691.852515
_symmetry_space_group_name_H-M "C M M M"
_symmetry_group_IT_number 65
_symmetry_cell_setting 'orthorhombic'
loop_
_space_group_symop_operation_xyz
x,y,z
-x,-y,z
x,-y,-z
-x,y,-z
-x,-y,-z
x,y,-z
-x,y,z
x,-y,z
1/2+x,1/2+y,z
1/2-x,1/2-y,z
1/2+x,1/2-y,-z
1/2-x,1/2+y,-z
1/2-x,1/2-y,-z
1/2+x,1/2+y,-z
1/2-x,1/2+y,z
1/2+x,1/2-y,z
loop_
_atom_site_type_symbol
_atom_site_label
_atom_site_fract_x
_atom_site_fract_y
_atom_site_fract_z
Si Si1 0.826149 0.908495 0.900494
Si Si2 0.500000 0.942298 0.101848
Si Si3 0.328383 0.899974 0.604533
Si Si4 0.324250 0.500000 0.606851
Si Si5 0.321386 0.297742 0.138189
Si Si6 0.317343 0.699932 0.338576
O O1 0.665968 0.926853 0.859698
O O2 0.805324 0.850328 0.903413
O O3 0.000000 0.917292 0.863118
O O4 0.830979 0.927827 0.000000
O O5 0.500000 0.000000 0.100375
O O6 0.500000 0.924062 0.000000
O O7 0.336613 0.905142 0.500000
O O8 0.500000 0.894760 0.639268
O O9 0.236337 0.850817 0.621767
O O10 0.253949 0.950091 0.637068
O O11 0.500000 0.500000 0.633407
O O12 0.319884 0.500000 0.500000
O O13 0.500000 0.287815 0.143202
O O14 0.250000 0.250000 0.097031
O O15 0.263161 0.302023 0.237721
O O16 0.500000 0.702555 0.342156
O O17 0.250000 0.750000 0.377218
#
# Coordination Sequence:
#
# PCOD9489345 Si02
#       6
#    16   8  16   8  16  16
#     4   9  18  33  52  77 108 137 172 219 264 309
#     4   9  18  32  52  78 104 136 177 217 264 314
#     4  10  20  34  53  77 104 133 168 212 257 305
#     4   9  17  31  53  79 103 131 166 203 254 309
#     4   9  19  33  51  75 101 136 172 206 255 309
#     4  10  20  35  53  74 102 136 175 213 255 310
#
# _framework density 21.669339999999998
#
# number of rings (size 3 to 8) (size 9 to 14) (size 15 to 20)
#    0.000    2.600    0.000    1.500    1.400    4.400 
#    0.000    2.000    2.200    0.000    0.000    0.000 
#    0.000    0.000    0.000    0.000    0.000    0.000 
#
# Total GULP energy -222939.438378 kJ/mol
# GULP energy per Si atom -5573.485959 kJ/mol
# Density = 2.162002 g / cm^3
# Si number density = 21.669340 Si / 1000 Ang^3
#
#
#
# Elastic Constant Matrix: (Units=GPa)
#
#
# Indices 1 2 3 4 5 6 
#
# 1 156.4235 85.0610 12.4935 0.0000 0.0000 0.0000
# 2 85.0610 146.7896 9.5407 0.0000 0.0000 0.0000
# 3 12.4935 9.5407 21.0287 0.0000 0.0000 0.0000
# 4 0.0000 0.0000 0.0000 9.2707 0.0000 0.0000
# 5 0.0000 0.0000 0.0000 0.0000 25.0248 0.0000
# 6 0.0000 0.0000 0.0000 0.0000 0.0000 43.3511
#
#
#
# Elastic Compliance Matrix: (Units=1/GPa)
#
#
# Indices 1 2 3 4 5 6 
#
# 1 0.009546 -0.005320 -0.003258 0.000000 0.000000 0.000000
# 2 -0.005320 0.009984 -0.001369 0.000000 0.000000 0.000000
# 3 -0.003258 -0.001369 0.050111 0.000000 0.000000 0.000000
# 4 0.000000 0.000000 0.000000 0.107867 0.000000 0.000000
# 5 0.000000 0.000000 0.000000 0.000000 0.039960 0.000000
# 6 0.000000 0.000000 0.000000 0.000000 0.000000 0.023067
#
#
# Mechanical properties :
#
#
# Convention : Reuss Voigt Hill
#
# Bulk Modulus (GPa) = 20.10167 59.82579 39.96373
# Shear Modulus (GPa) = 18.04977 30.00578 24.02778
#
# Velocity S-wave (km/s) = 2.88924 3.72521 3.33353
# Velocity P-wave (km/s) = 4.51962 6.79495 5.77054
#
# Compressibility (1/GPa) = 0.04974712
#
# Stress axis : x y z
#
# Youngs Moduli (GPa) = 104.75582 100.15790 19.95583
#
# Poissons Ratio (x) = 0.53283 0.06501
# Poissons Ratio (y) = 0.55729 0.02732
# Poissons Ratio (z) = 0.34127 0.13713
#
# Static dielectric constant tensor:
#      x y z
#    x 1.800570 0.000000 0.000000 
#    y 0.000000 1.770130 0.000000 
#    z 0.000000 0.000000 1.851400 
# 
# From -- ./inp_files/49951.got.cif
#   From: 2010.05.17/outbox.cif.g08.bks.cpg/sg65_25_cif.got.tgz:49951.got - 2010.06.03 17:01:31.
