data_PCOD9489414
_publ_section_title
;
Structure prediction by ZEFSAII (Michael W. Deem and Ramdas Pophale) SiO2 
 PCOD9489414
Probable space group: C M M M
;
_chemical_formula_sum "Si O2"
_cell_formula_units_Z 96
_cell_length_a 8.769096
_cell_length_b 24.026677
_cell_length_c 25.958035
_cell_angle_alpha 90.000000
_cell_angle_beta 90.000000
_cell_angle_gamma 90.000000
_cell_volume 5469.156467
_symmetry_space_group_name_H-M "C M M M"
_symmetry_group_IT_number 65
_symmetry_cell_setting 'orthorhombic'
loop_
_space_group_symop_operation_xyz
x,y,z
-x,-y,z
x,-y,-z
-x,y,-z
-x,-y,-z
x,y,-z
-x,y,z
x,-y,z
1/2+x,1/2+y,z
1/2-x,1/2-y,z
1/2+x,1/2-y,-z
1/2-x,1/2+y,-z
1/2-x,1/2-y,-z
1/2+x,1/2+y,-z
1/2-x,1/2+y,z
1/2+x,1/2-y,z
loop_
_atom_site_type_symbol
_atom_site_label
_atom_site_fract_x
_atom_site_fract_y
_atom_site_fract_z
Si Si1 0.683320 0.618806 0.842791
Si Si2 0.183621 0.435235 0.440656
Si Si3 0.678149 0.000000 0.174065
Si Si4 0.682091 0.811935 0.746853
Si Si5 0.321722 0.384143 0.657808
Si Si6 0.316359 0.688446 0.057363
Si Si7 0.174441 0.000000 0.281375
O O1 0.500000 0.619645 0.838145
O O2 0.742351 0.556018 0.845147
O O3 0.752309 0.650128 0.793196
O O4 0.730352 0.650464 0.894933
O O5 0.223539 0.422584 0.500000
O O6 0.228605 0.500000 0.430891
O O7 0.257662 0.394594 0.399169
O O8 0.000000 0.432907 0.436051
O O9 0.705987 0.000000 0.235497
O O10 0.500000 0.000000 0.162098
O O11 0.500000 0.810023 0.750401
O O12 0.750000 0.750000 0.751156
O O13 0.733096 0.840273 0.693204
O O14 0.500000 0.369231 0.656593
O O15 0.307940 0.444351 0.685533
O O16 0.500000 0.691796 0.058320
O O17 0.250000 0.750000 0.064050
O O18 0.270980 0.668395 0.000000
O O19 0.000000 0.000000 0.260125
#
# Coordination Sequence:
#
# PCOD9489414 Si02
#       7
#    16  16   8  16  16  16   8
#     4  11  22  38  59  83 115 149 184 230 279 332
#     4   9  18  32  51  78 113 150 187 228 274 325
#     4  12  24  36  55  82 113 151 190 226 275 338
#     4  12  25  40  58  82 112 146 186 230 278 334
#     4  11  21  35  56  82 113 148 185 229 278 331
#     4   9  19  36  59  85 111 144 186 231 280 330
#     4  10  20  34  53  78 113 149 184 224 275 332
#
# _framework density 17.552980999999999
#
# number of rings (size 3 to 8) (size 9 to 14) (size 15 to 20)
#    0.000    1.500    2.500    4.250    0.000    3.667 
#    0.000    1.250    0.000    3.000    0.000    0.000 
#    0.000    0.000    0.000    0.000    0.000    0.000 
#
# Total GULP energy -268096.658511 kJ/mol
# GULP energy per Si atom -5585.347052 kJ/mol
# Density = 1.751303 g / cm^3
# Si number density = 17.552981 Si / 1000 Ang^3
#
#
#
# Elastic Constant Matrix: (Units=GPa)
#
#
# Indices 1 2 3 4 5 6 
#
# 1 84.6211 45.8331 51.8242 0.0000 0.0000 0.0000
# 2 45.8331 111.2104 65.5775 0.0000 0.0000 0.0000
# 3 51.8242 65.5775 139.6018 0.0000 0.0000 0.0000
# 4 0.0000 0.0000 0.0000 14.9610 0.0000 0.0000
# 5 0.0000 0.0000 0.0000 0.0000 23.4909 0.0000
# 6 0.0000 0.0000 0.0000 0.0000 0.0000 27.0834
#
#
#
# Elastic Compliance Matrix: (Units=1/GPa)
#
#
# Indices 1 2 3 4 5 6 
#
# 1 0.016767 -0.004481 -0.004120 0.000000 0.000000 0.000000
# 2 -0.004481 0.013635 -0.004741 0.000000 0.000000 0.000000
# 3 -0.004120 -0.004741 0.010920 0.000000 0.000000 0.000000
# 4 0.000000 0.000000 0.000000 0.066841 0.000000 0.000000
# 5 0.000000 0.000000 0.000000 0.000000 0.042570 0.000000
# 6 0.000000 0.000000 0.000000 0.000000 0.000000 0.036923
#
#
# Mechanical properties :
#
#
# Convention : Reuss Voigt Hill
#
# Bulk Modulus (GPa) = 68.31641 73.54477 70.93059
# Shear Modulus (GPa) = 22.80834 24.58697 23.69765
#
# Velocity S-wave (km/s) = 3.60863 3.74669 3.67831
# Velocity P-wave (km/s) = 7.50783 7.79145 7.65095
#
# Compressibility (1/GPa) = 0.01463777
#
# Stress axis : x y z
#
# Youngs Moduli (GPa) = 59.63948 73.34293 91.57756
#
# Poissons Ratio (x) = 0.32866 0.37726
# Poissons Ratio (y) = 0.26726 0.43419
# Poissons Ratio (z) = 0.24569 0.34774
#
# Static dielectric constant tensor:
#      x y z
#    x 1.598640 0.000000 0.000000 
#    y 0.000000 1.576240 0.000000 
#    z 0.000000 0.000000 1.601160 
# 
# From -- ./inp_files/67895.got.cif
#   From: 2010.05.17/outbox.cif.g08.bks.cpg/sg65_34_cif.got.tgz:67895.got - 2010.06.03 17:01:31.
