data_PCOD9489788
_publ_section_title
;
Structure prediction by ZEFSAII (Michael W. Deem and Ramdas Pophale) SiO2 
 PCOD9489788
Probable space group: C M M M
;
_chemical_formula_sum "Si O2"
_cell_formula_units_Z 68
_cell_length_a 21.261538
_cell_length_b 19.258463
_cell_length_c 7.247261
_cell_angle_alpha 90.000000
_cell_angle_beta 90.000000
_cell_angle_gamma 90.000000
_cell_volume 2967.496413
_symmetry_space_group_name_H-M "C M M M"
_symmetry_group_IT_number 65
_symmetry_cell_setting 'orthorhombic'
loop_
_space_group_symop_operation_xyz
x,y,z
-x,-y,z
x,-y,-z
-x,y,-z
-x,-y,-z
x,y,-z
-x,y,z
x,-y,z
1/2+x,1/2+y,z
1/2-x,1/2-y,z
1/2+x,1/2-y,-z
1/2-x,1/2+y,-z
1/2-x,1/2-y,-z
1/2+x,1/2+y,-z
1/2-x,1/2+y,z
1/2+x,1/2-y,z
loop_
_atom_site_type_symbol
_atom_site_label
_atom_site_fract_x
_atom_site_fract_y
_atom_site_fract_z
Si Si1 0.614144 0.710613 0.776784
Si Si2 0.805527 0.666259 0.209308
Si Si3 0.500000 0.261945 0.500000
Si Si4 0.430024 0.081319 0.277377
Si Si5 0.688595 0.578816 0.776033
O O1 0.673770 0.758595 0.719891
O O2 0.555030 0.735166 0.660839
O O3 0.631717 0.630993 0.733748
O O4 0.606074 0.717621 0.000000
O O5 0.871244 0.624198 0.208123
O O6 0.752285 0.616705 0.290931
O O7 0.784599 0.678231 0.000000
O O8 0.429541 0.086826 0.500000
O O9 0.500000 0.104146 0.217999
O O10 0.423415 0.000000 0.230088
O O11 0.682729 0.500000 0.710340
O O12 0.691810 0.575123 0.000000
#
# Coordination Sequence:
#
# PCOD9489788 Si02
#       5
#    16  16   4  16  16
#     4  10  23  42  65  95 128 164 211 264 317 373
#     4  10  20  34  59  90 122 159 204 254 308 373
#     4  12  26  44  67  92 125 170 212 262 320 384
#     4   9  19  33  48  73 115 163 206 250 301 361
#     4   9  18  38  66  92 124 166 208 258 321 379
#
# _framework density 22.914940999999999
#
# number of rings (size 3 to 8) (size 9 to 14) (size 15 to 20)
#    0.000    2.353    0.000    2.471    3.294    4.706 
#    2.118    4.118    0.000    2.824    0.000    0.000 
#    0.000    0.000    0.000    0.000    0.000    0.000 
#
# Total GULP energy -189499.697911 kJ/mol
# GULP energy per Si atom -5573.520527 kJ/mol
# Density = 2.286279 g / cm^3
# Si number density = 22.914941 Si / 1000 Ang^3
#
#
#
# Elastic Constant Matrix: (Units=GPa)
#
#
# Indices 1 2 3 4 5 6 
#
# 1 55.5823 8.6499 13.9863 0.0000 0.0000 0.0000
# 2 8.6499 116.9171 11.1364 0.0000 0.0000 0.0000
# 3 13.9863 11.1364 121.2270 0.0000 0.0000 0.0000
# 4 0.0000 0.0000 0.0000 -558.0502 0.0000 0.0000
# 5 0.0000 0.0000 0.0000 0.0000 46.7908 0.0000
# 6 0.0000 0.0000 0.0000 0.0000 0.0000 15.7657
#
#
#
# Elastic Compliance Matrix: (Units=1/GPa)
#
#
# Indices 1 2 3 4 5 6 
#
# 1 0.018691 -0.001188 -0.002047 0.000000 0.000000 0.000000
# 2 -0.001188 0.008704 -0.000663 0.000000 0.000000 0.000000
# 3 -0.002047 -0.000663 0.008546 0.000000 0.000000 0.000000
# 4 0.000000 0.000000 0.000000 -0.001792 0.000000 0.000000
# 5 0.000000 0.000000 0.000000 0.000000 0.021372 0.000000
# 6 0.000000 0.000000 0.000000 0.000000 0.000000 0.063429
#
#
# Mechanical properties :
#
#
# Convention : Reuss Voigt Hill
#
# Bulk Modulus (GPa) = 35.52901 40.14129 37.83515
# Shear Modulus (GPa) = 36.73023 -81.76849 -22.51913
#
# Velocity S-wave (km/s) = 4.00796 -5.98005 -3.13825
# Velocity P-wave (km/s) = 6.07920 5.48869 1.84811
#
# Compressibility (1/GPa) = 0.02814602
#
# Stress axis : x y z
#
# Youngs Moduli (GPa) = 53.50060 114.88899 117.01302
#
# Poissons Ratio (x) = 0.13647 0.23957
# Poissons Ratio (y) = 0.06355 0.07753
# Poissons Ratio (z) = 0.10953 0.07612
#
# Static dielectric constant tensor:
#      x y z
#    x 1.811780 0.000000 0.000000 
#    y 0.000000 1.882040 0.000000 
#    z 0.000000 0.000000 1.878450 
# 
# From -- ./inp_files/8939.got.cif
#   From: 2010.05.17/outbox.cif.g08.bks.cpg/sg65_5_cif.got.tgz:8939.got - 2010.06.03 17:01:31.
