data_PCOD9489312
_publ_section_title
;
Structure prediction by ZEFSAII (Michael W. Deem and Ramdas Pophale) SiO2 
 PCOD9489312
Probable space group: C M M M
;
_chemical_formula_sum "Si O2"
_cell_formula_units_Z 96
_cell_length_a 18.383336
_cell_length_b 20.846225
_cell_length_c 14.226181
_cell_angle_alpha 90.000000
_cell_angle_beta 90.000000
_cell_angle_gamma 90.000000
_cell_volume 5451.802016
_symmetry_space_group_name_H-M "C M M M"
_symmetry_group_IT_number 65
_symmetry_cell_setting 'orthorhombic'
loop_
_space_group_symop_operation_xyz
x,y,z
-x,-y,z
x,-y,-z
-x,y,-z
-x,-y,-z
x,y,-z
-x,y,z
x,-y,z
1/2+x,1/2+y,z
1/2-x,1/2-y,z
1/2+x,1/2-y,-z
1/2-x,1/2+y,-z
1/2-x,1/2-y,-z
1/2+x,1/2+y,-z
1/2-x,1/2+y,z
1/2+x,1/2-y,z
loop_
_atom_site_type_symbol
_atom_site_label
_atom_site_fract_x
_atom_site_fract_y
_atom_site_fract_z
Si Si1 0.587936 0.790982 0.599717
Si Si2 0.206300 0.184253 0.111178
Si Si3 0.085988 0.570332 0.666294
Si Si4 0.668533 0.424365 0.389015
Si Si5 0.913125 0.820818 0.266378
Si Si6 0.779329 0.571997 0.220319
O O1 0.616060 0.766356 0.500000
O O2 0.500000 0.786573 0.598689
O O3 0.604910 0.865837 0.609580
O O4 0.611270 0.745505 0.683563
O O5 0.250000 0.250000 0.132270
O O6 0.132050 0.177043 0.170360
O O7 0.254535 0.125185 0.148030
O O8 0.193687 0.181641 0.000000
O O9 0.101205 0.500000 0.622337
O O10 0.135182 0.573955 0.758660
O O11 0.000000 0.572931 0.684900
O O12 0.679043 0.409115 0.500000
O O13 0.647935 0.500000 0.384178
O O14 0.610717 0.377869 0.337565
O O15 0.739540 0.417208 0.321779
O O16 0.000000 0.821628 0.253133
O O17 0.758818 0.500000 0.190147
#
# Coordination Sequence:
#
# PCOD9489312 Si02
#       6
#    16  16  16  16  16  16
#     4   9  17  28  43  67 100 134 164 195 235 283
#     4  10  21  37  56  76  98 127 165 207 253 307
#     4   9  17  29  47  71  99 134 173 209 245 286
#     4   9  18  32  50  74 105 140 174 205 240 288
#     4  10  20  34  53  76 102 131 165 208 254 296
#     4   9  18  33  52  74 102 135 169 205 247 297
#
# _framework density 17.608857
#
# number of rings (size 3 to 8) (size 9 to 14) (size 15 to 20)
#    0.000    2.667    0.000    1.500    0.000    3.000 
#    0.000    4.167    0.000    7.000    0.000    7.000 
#    0.000    0.000    0.000    0.000    0.000    0.333 
#
# Total GULP energy -267249.831457 kJ/mol
# GULP energy per Si atom -5567.704822 kJ/mol
# Density = 1.756878 g / cm^3
# Si number density = 17.608857 Si / 1000 Ang^3
#
#
#
# Elastic Constant Matrix: (Units=GPa)
#
#
# Indices 1 2 3 4 5 6 
#
# 1 35.4950 26.5771 22.1174 0.0000 0.0000 0.0000
# 2 26.5771 98.4193 53.6972 0.0000 0.0000 0.0000
# 3 22.1174 53.6972 88.5500 0.0000 0.0000 0.0000
# 4 0.0000 0.0000 0.0000 23.2132 0.0000 0.0000
# 5 0.0000 0.0000 0.0000 0.0000 9.3615 0.0000
# 6 0.0000 0.0000 0.0000 0.0000 0.0000 22.6402
#
#
#
# Elastic Compliance Matrix: (Units=1/GPa)
#
#
# Indices 1 2 3 4 5 6 
#
# 1 0.036578 -0.007312 -0.004702 0.000000 0.000000 0.000000
# 2 -0.007312 0.016646 -0.008268 0.000000 0.000000 0.000000
# 3 -0.004702 -0.008268 0.017481 0.000000 0.000000 0.000000
# 4 0.000000 0.000000 0.000000 0.043079 0.000000 0.000000
# 5 0.000000 0.000000 0.000000 0.000000 0.106821 0.000000
# 6 0.000000 0.000000 0.000000 0.000000 0.000000 0.044169
#
#
# Mechanical properties :
#
#
# Convention : Reuss Voigt Hill
#
# Bulk Modulus (GPa) = 33.17733 47.47195 40.32464
# Shear Modulus (GPa) = 15.85363 19.04782 17.45073
#
# Velocity S-wave (km/s) = 3.00379 3.29252 3.15146
# Velocity P-wave (km/s) = 5.55990 6.43987 6.01600
#
# Compressibility (1/GPa) = 0.03014107
#
# Stress axis : x y z
#
# Youngs Moduli (GPa) = 27.33896 60.07411 57.20417
#
# Poissons Ratio (x) = 0.43926 0.26898
# Poissons Ratio (y) = 0.19990 0.47296
# Poissons Ratio (z) = 0.12855 0.49669
#
# Static dielectric constant tensor:
#      x y z
#    x 1.609820 0.000000 0.000000 
#    y 0.000000 1.627920 0.000000 
#    z 0.000000 0.000000 1.580460 
# 
# From -- ./inp_files/29036.got.cif
#   From: 2010.05.17/outbox.cif.g08.bks.cpg/sg65_15_cif.got.tgz:29036.got - 2010.06.03 17:01:31.
