data_PCOD9489285
_publ_section_title
;
Structure prediction by ZEFSAII (Michael W. Deem and Ramdas Pophale) SiO2 
 PCOD9489285
Probable space group: C M M M
;
_chemical_formula_sum "Si O2"
_cell_formula_units_Z 112
_cell_length_a 18.530838
_cell_length_b 14.347222
_cell_length_c 26.231803
_cell_angle_alpha 90.000000
_cell_angle_beta 90.000000
_cell_angle_gamma 90.000000
_cell_volume 6974.145760
_symmetry_space_group_name_H-M "C M M M"
_symmetry_group_IT_number 65
_symmetry_cell_setting 'orthorhombic'
loop_
_space_group_symop_operation_xyz
x,y,z
-x,-y,z
x,-y,-z
-x,y,-z
-x,-y,-z
x,y,-z
-x,y,z
x,-y,z
1/2+x,1/2+y,z
1/2-x,1/2-y,z
1/2+x,1/2-y,-z
1/2-x,1/2+y,-z
1/2-x,1/2-y,-z
1/2+x,1/2+y,-z
1/2-x,1/2+y,z
1/2+x,1/2-y,z
loop_
_atom_site_type_symbol
_atom_site_label
_atom_site_fract_x
_atom_site_fract_y
_atom_site_fract_z
Si Si1 0.914131 0.396009 0.292359
Si Si2 0.680805 0.610571 0.638918
Si Si3 0.330086 0.719757 0.746171
Si Si4 0.158211 0.605848 0.596949
Si Si5 0.414400 0.285478 0.557349
Si Si6 0.414671 0.387528 0.166888
Si Si7 0.912716 0.889438 0.054824
O O1 0.894287 0.500000 0.273645
O O2 0.875903 0.313187 0.262887
O O3 0.887513 0.391008 0.350723
O O4 0.000000 0.386238 0.290496
O O5 0.673110 0.500000 0.647281
O O6 0.675577 0.664883 0.692319
O O7 0.759415 0.626295 0.613449
O O8 0.621268 0.649467 0.600030
O O9 0.250000 0.750000 0.761477
O O10 0.368792 0.657374 0.788351
O O11 0.154658 0.500000 0.576556
O O12 0.125236 0.685782 0.562056
O O13 0.403706 0.322617 0.500000
O O14 0.500000 0.274498 0.565956
O O15 0.500000 0.365498 0.172975
O O16 0.408885 0.500000 0.168189
O O17 0.389720 0.354038 0.110409
O O18 0.000000 0.882342 0.055094
O O19 0.896433 0.000000 0.054334
O O20 0.887273 0.850276 0.000000
#
# Coordination Sequence:
#
# PCOD9489285 Si02
#       7
#    16  16  16  16  16  16  16
#     4  10  20  34  53  74  96 125 163 205 245 285
#     4  11  23  39  57  75  98 132 168 199 237 291
#     4  12  21  33  52  74 104 135 165 202 243 299
#     4  10  20  37  58  79  98 123 162 205 245 286
#     4  11  24  40  57  79 105 129 157 196 243 297
#     4   9  18  30  46  74 107 136 168 207 251 297
#     4   7  10  20  40  65  95 131 169 208 248 288
#
# _framework density 16.059315000000002
#
# number of rings (size 3 to 8) (size 9 to 14) (size 15 to 20)
#    0.000    2.000    2.857    3.000    0.000    4.000 
#    0.000    2.857    0.000    0.429    0.000    0.000 
#    0.000    0.571    0.000    5.286    0.000    0.286 
#
# Total GULP energy -312199.901051 kJ/mol
# GULP energy per Si atom -5574.998233 kJ/mol
# Density = 1.602276 g / cm^3
# Si number density = 16.059315 Si / 1000 Ang^3
#
#
#
# Elastic Constant Matrix: (Units=GPa)
#
#
# Indices 1 2 3 4 5 6 
#
# 1 77.2828 40.0722 48.6495 0.0000 0.0000 0.0000
# 2 40.0722 63.8298 24.5097 0.0000 0.0000 0.0000
# 3 48.6495 24.5097 79.7820 0.0000 0.0000 0.0000
# 4 0.0000 0.0000 0.0000 -33.7578 0.0000 0.0000
# 5 0.0000 0.0000 0.0000 0.0000 10.1960 0.0000
# 6 0.0000 0.0000 0.0000 0.0000 0.0000 20.5016
#
#
#
# Elastic Compliance Matrix: (Units=1/GPa)
#
#
# Indices 1 2 3 4 5 6 
#
# 1 0.027470 -0.012260 -0.012984 0.000000 0.000000 0.000000
# 2 -0.012260 0.023233 0.000338 0.000000 0.000000 0.000000
# 3 -0.012984 0.000338 0.020348 0.000000 0.000000 0.000000
# 4 0.000000 0.000000 0.000000 -0.029623 0.000000 0.000000
# 5 0.000000 0.000000 0.000000 0.000000 0.098078 0.000000
# 6 0.000000 0.000000 0.000000 0.000000 0.000000 0.048777
#
#
# Mechanical properties :
#
#
# Convention : Reuss Voigt Hill
#
# Bulk Modulus (GPa) = 47.08203 49.70638 48.39420
# Shear Modulus (GPa) = 20.39363 6.56551 13.47957
#
# Velocity S-wave (km/s) = 3.56742 2.02414 2.90032
# Velocity P-wave (km/s) = 6.80808 6.04002 6.43552
#
# Compressibility (1/GPa) = 0.02123953
#
# Stress axis : x y z
#
# Youngs Moduli (GPa) = 36.40334 43.04135 49.14533
#
# Poissons Ratio (x) = 0.52768 0.63812
# Poissons Ratio (y) = 0.44630 -0.01662
# Poissons Ratio (z) = 0.47267 -0.01456
#
# Static dielectric constant tensor:
#      x y z
#    x 1.529270 0.000000 0.000000 
#    y 0.000000 1.547790 0.000000 
#    z 0.000000 0.000000 1.532010 
# 
# From -- ./inp_files/70056.got.cif
#   From: 2010.05.17/outbox.cif.g08.bks.cpg/sg65_36_cif.got.tgz:70056.got - 2010.06.03 17:01:31.
