data_PCOD9489970
_publ_section_title
;
Structure prediction by ZEFSAII (Michael W. Deem and Ramdas Pophale) SiO2 
 PCOD9489970
Probable space group: C M M M
;
_chemical_formula_sum "Si O2"
_cell_formula_units_Z 80
_cell_length_a 13.614547
_cell_length_b 18.611025
_cell_length_c 15.342374
_cell_angle_alpha 90.000000
_cell_angle_beta 90.000000
_cell_angle_gamma 90.000000
_cell_volume 3887.461074
_symmetry_space_group_name_H-M "C M M M"
_symmetry_group_IT_number 65
_symmetry_cell_setting 'orthorhombic'
loop_
_space_group_symop_operation_xyz
x,y,z
-x,-y,z
x,-y,-z
-x,y,-z
-x,-y,-z
x,y,-z
-x,y,z
x,-y,z
1/2+x,1/2+y,z
1/2-x,1/2-y,z
1/2+x,1/2-y,-z
1/2-x,1/2+y,-z
1/2-x,1/2-y,-z
1/2+x,1/2+y,-z
1/2-x,1/2+y,z
1/2+x,1/2-y,z
loop_
_atom_site_type_symbol
_atom_site_label
_atom_site_fract_x
_atom_site_fract_y
_atom_site_fract_z
Si Si1 0.797165 0.172914 0.096966
Si Si2 0.392091 0.639185 0.722160
Si Si3 0.179511 0.581119 0.332370
Si Si4 0.108270 0.582918 0.133998
Si Si5 0.364087 0.768548 0.596312
O O1 0.750000 0.250000 0.118552
O O2 0.867529 0.150360 0.175809
O O3 0.702181 0.121759 0.095348
O O4 0.841815 0.175224 0.000000
O O5 0.500000 0.604679 0.711274
O O6 0.296165 0.598697 0.682761
O O7 0.398290 0.716409 0.673538
O O8 0.169095 0.500000 0.367155
O O9 0.128019 0.583983 0.237819
O O10 0.131328 0.646580 0.385165
O O11 0.107861 0.500000 0.106877
O O12 0.000000 0.613960 0.114746
O O13 0.401778 0.751089 0.500000
O O14 0.250000 0.750000 0.593754
#
# Coordination Sequence:
#
# PCOD9489970 Si02
#       5
#    16  16  16  16  16
#     4  10  21  35  51  76 109 142 181 229 275 320
#     4  10  20  35  55  77 107 148 186 220 263 319
#     4   9  18  33  53  79 110 142 180 224 266 315
#     4   9  18  34  56  79 105 141 181 221 270 324
#     4   9  18  33  53  77 105 139 178 218 264 317
#
# _framework density 20.578983999999998
#
# number of rings (size 3 to 8) (size 9 to 14) (size 15 to 20)
#    0.000    2.600    0.000    3.000    0.000    5.600 
#    0.000    3.000    0.000    0.000    0.000   15.400 
#    0.000    0.000    0.000    0.000    0.000    0.200 
#
# Total GULP energy -222922.668129 kJ/mol
# GULP energy per Si atom -5573.066703 kJ/mol
# Density = 2.053214 g / cm^3
# Si number density = 20.578984 Si / 1000 Ang^3
#
#
#
# Elastic Constant Matrix: (Units=GPa)
#
#
# Indices 1 2 3 4 5 6 
#
# 1 105.3331 -1.1933 18.1435 0.0000 0.0000 0.0000
# 2 -1.1933 79.8097 7.2367 0.0000 0.0000 0.0000
# 3 18.1435 7.2367 65.8388 0.0000 0.0000 0.0000
# 4 0.0000 0.0000 0.0000 31.9050 0.0000 0.0000
# 5 0.0000 0.0000 0.0000 0.0000 9.9490 0.0000
# 6 0.0000 0.0000 0.0000 0.0000 0.0000 2.6924
#
#
#
# Elastic Compliance Matrix: (Units=1/GPa)
#
#
# Indices 1 2 3 4 5 6 
#
# 1 0.009980 0.000403 -0.002794 0.000000 0.000000 0.000000
# 2 0.000403 0.012672 -0.001504 0.000000 0.000000 0.000000
# 3 -0.002794 -0.001504 0.016124 0.000000 0.000000 0.000000
# 4 0.000000 0.000000 0.000000 0.031343 0.000000 0.000000
# 5 0.000000 0.000000 0.000000 0.000000 0.100512 0.000000
# 6 0.000000 0.000000 0.000000 0.000000 0.000000 0.371414
#
#
# Mechanical properties :
#
#
# Convention : Reuss Voigt Hill
#
# Bulk Modulus (GPa) = 32.27418 33.26172 32.76795
# Shear Modulus (GPa) = 8.92595 24.02893 16.47744
#
# Velocity S-wave (km/s) = 2.08490 3.42079 2.83272
# Velocity P-wave (km/s) = 4.63820 5.63919 5.16301
#
# Compressibility (1/GPa) = 0.03098452
#
# Stress axis : x y z
#
# Youngs Moduli (GPa) = 100.20460 78.91303 62.01953
#
# Poissons Ratio (x) = -0.03177 0.17331
# Poissons Ratio (y) = -0.04034 0.09327
# Poissons Ratio (z) = 0.28001 0.11867
#
# Static dielectric constant tensor:
#      x y z
#    x 1.749860 0.000000 0.000000 
#    y 0.000000 1.759830 0.000000 
#    z 0.000000 0.000000 1.761540 
# 
# From -- ./inp_files/43883.got.cif
#   From: 2010.05.17/outbox.cif.g08.bks.cpg/sg65_22_cif.got.tgz:43883.got - 2010.06.03 17:01:31.
