data_PCOD9489583
_publ_section_title
;
Structure prediction by ZEFSAII (Michael W. Deem and Ramdas Pophale) SiO2 
 PCOD9489583
Probable space group: C M M M
;
_chemical_formula_sum "Si O2"
_cell_formula_units_Z 88
_cell_length_a 18.468837
_cell_length_b 9.033050
_cell_length_c 29.812422
_cell_angle_alpha 90.000000
_cell_angle_beta 90.000000
_cell_angle_gamma 90.000000
_cell_volume 4973.604218
_symmetry_space_group_name_H-M "C M M M"
_symmetry_group_IT_number 65
_symmetry_cell_setting 'orthorhombic'
loop_
_space_group_symop_operation_xyz
x,y,z
-x,-y,z
x,-y,-z
-x,y,-z
-x,-y,-z
x,y,-z
-x,y,z
x,-y,z
1/2+x,1/2+y,z
1/2-x,1/2-y,z
1/2+x,1/2-y,-z
1/2-x,1/2+y,-z
1/2-x,1/2-y,-z
1/2+x,1/2+y,-z
1/2-x,1/2+y,z
1/2+x,1/2-y,z
loop_
_atom_site_type_symbol
_atom_site_label
_atom_site_fract_x
_atom_site_fract_y
_atom_site_fract_z
Si Si1 0.911879 0.172281 0.826859
Si Si2 0.170991 0.823322 0.000000
Si Si3 0.913185 0.823605 0.271872
Si Si4 0.828929 0.321534 0.549568
Si Si5 0.415328 0.177882 0.637457
Si Si6 0.087047 0.325858 0.081367
O O1 0.886273 0.223447 0.777517
O O2 0.890317 0.269890 0.869262
O O3 0.000000 0.174676 0.825480
O O4 0.891181 0.000000 0.833280
O O5 0.250000 0.750000 0.000000
O O6 0.127484 0.766573 0.956542
O O7 0.176475 0.000000 0.000000
O O8 0.884511 0.745654 0.316485
O O9 0.000000 0.795948 0.271737
O O10 0.902932 0.000000 0.275051
O O11 0.859572 0.284513 0.500000
O O12 0.822793 0.500000 0.551500
O O13 0.750000 0.250000 0.552388
O O14 0.875426 0.273211 0.592255
O O15 0.500000 0.218543 0.633934
O O16 0.411089 0.000000 0.640409
O O17 0.102069 0.500000 0.075902
O O18 0.000000 0.305116 0.077271
#
# Coordination Sequence:
#
# PCOD9489583 Si02
#       6
#    16   8  16  16  16  16
#     4   8  14  26  45  70  99 130 163 197 237 285
#     4  12  25  40  57  75 101 137 173 208 251 302
#     4   8  14  25  42  66  97 129 158 191 233 281
#     4   9  18  32  48  65  87 118 155 193 234 281
#     4   9  17  28  44  68  95 121 151 190 236 284
#     4  10  20  34  54  81 109 134 166 209 250 289
#
# _framework density 17.693407000000001
#
# number of rings (size 3 to 8) (size 9 to 14) (size 15 to 20)
#    0.000    2.909    0.000    2.727    0.000    4.000 
#    0.000    5.455    0.000    1.091    0.000    7.636 
#    0.000    0.000    0.000    0.000    0.000    0.000 
#
# Total GULP energy -245095.153111 kJ/mol
# GULP energy per Si atom -5570.344389 kJ/mol
# Density = 1.765314 g / cm^3
# Si number density = 17.693407 Si / 1000 Ang^3
#
#
#
# Elastic Constant Matrix: (Units=GPa)
#
#
# Indices 1 2 3 4 5 6 
#
# 1 24.9688 29.3743 49.7418 0.0000 0.0000 0.0000
# 2 29.3743 59.2191 68.6317 0.0000 0.0000 0.0000
# 3 49.7418 68.6317 200.6460 0.0000 0.0000 0.0000
# 4 0.0000 0.0000 0.0000 34.2205 0.0000 0.0000
# 5 0.0000 0.0000 0.0000 0.0000 -11.7315 0.0000
# 6 0.0000 0.0000 0.0000 0.0000 0.0000 17.6530
#
#
#
# Elastic Compliance Matrix: (Units=1/GPa)
#
#
# Indices 1 2 3 4 5 6 
#
# 1 0.119569 -0.041346 -0.015499 0.000000 0.000000 0.000000
# 2 -0.041346 0.042275 -0.004210 0.000000 0.000000 0.000000
# 3 -0.015499 -0.004210 0.010266 0.000000 0.000000 0.000000
# 4 0.000000 0.000000 0.000000 0.029222 0.000000 0.000000
# 5 0.000000 0.000000 0.000000 0.000000 -0.085241 0.000000
# 6 0.000000 0.000000 0.000000 0.000000 0.000000 0.056648
#
#
# Mechanical properties :
#
#
# Convention : Reuss Voigt Hill
#
# Bulk Modulus (GPa) = 20.00081 64.48104 42.24092
# Shear Modulus (GPa) = 16.05052 17.16749 16.60900
#
# Velocity S-wave (km/s) = 3.01516 3.11830 3.06716
# Velocity P-wave (km/s) = 4.84254 7.03475 6.03895
#
# Compressibility (1/GPa) = 0.04999798
#
# Stress axis : x y z
#
# Youngs Moduli (GPa) = 8.36340 23.65482 97.40520
#
# Poissons Ratio (x) = 0.97804 1.50972
# Poissons Ratio (y) = 0.34580 0.41008
# Poissons Ratio (z) = 0.12963 0.09959
#
# Static dielectric constant tensor:
#      x y z
#    x 1.585360 0.000000 0.000000 
#    y 0.000000 1.590530 0.000000 
#    z 0.000000 0.000000 1.637350 
# 
# From -- ./inp_files/77885.got.cif
#   From: 2010.05.17/outbox.cif.g08.bks.cpg/sg65_39_cif.got.tgz:77885.got - 2010.06.03 17:01:31.
