data_PCOD9489514
_publ_section_title
;
Structure prediction by ZEFSAII (Michael W. Deem and Ramdas Pophale) SiO2 
 PCOD9489514
Probable space group: C M M M
;
_chemical_formula_sum "Si O2"
_cell_formula_units_Z 96
_cell_length_a 15.133046
_cell_length_b 15.031892
_cell_length_c 22.448620
_cell_angle_alpha 90.000000
_cell_angle_beta 90.000000
_cell_angle_gamma 90.000000
_cell_volume 5106.574209
_symmetry_space_group_name_H-M "C M M M"
_symmetry_group_IT_number 65
_symmetry_cell_setting 'orthorhombic'
loop_
_space_group_symop_operation_xyz
x,y,z
-x,-y,z
x,-y,-z
-x,y,-z
-x,-y,-z
x,y,-z
-x,y,z
x,-y,z
1/2+x,1/2+y,z
1/2-x,1/2-y,z
1/2+x,1/2-y,-z
1/2-x,1/2+y,-z
1/2-x,1/2-y,-z
1/2+x,1/2+y,-z
1/2-x,1/2+y,z
1/2+x,1/2-y,z
loop_
_atom_site_type_symbol
_atom_site_label
_atom_site_fract_x
_atom_site_fract_y
_atom_site_fract_z
Si Si1 0.095189 0.852509 0.500000
Si Si2 0.711946 0.904239 0.500000
Si Si3 0.896545 0.711253 0.067567
Si Si4 0.599419 0.194884 0.407852
Si Si5 0.102730 0.395747 0.284900
Si Si6 0.789593 0.604251 0.833365
Si Si7 0.099546 0.898448 0.122848
O O1 0.183640 0.906969 0.500000
O O2 0.098787 0.790407 0.440458
O O3 0.000000 0.897229 0.500000
O O4 0.676109 0.854489 0.557324
O O5 0.670165 0.000000 0.500000
O O6 0.834548 0.663678 0.115596
O O7 0.892032 0.818027 0.076301
O O8 0.000000 0.686533 0.077224
O O9 0.871907 0.687912 0.000000
O O10 0.500000 0.158504 0.420632
O O11 0.613646 0.174357 0.338577
O O12 0.117691 0.500000 0.304000
O O13 0.166378 0.375387 0.229936
O O14 0.000000 0.391165 0.265385
O O15 0.808534 0.500000 0.845987
O O16 0.683429 0.614240 0.834003
O O17 0.000000 0.890410 0.149063
O O18 0.106238 0.000000 0.099032
#
# Coordination Sequence:
#
# PCOD9489514 Si02
#       7
#     8   8  16  16  16  16  16
#     4   9  19  35  51  71 102 137 175 212 244 287
#     4  11  20  30  49  75 105 137 167 203 248 300
#     4  10  21  36  54  77 104 133 168 211 259 313
#     4   9  17  31  53  78 102 128 162 209 256 294
#     4   9  17  30  50  78 109 135 162 201 252 308
#     4  10  20  34  54  79 107 138 169 205 254 313
#     4   9  19  36  55  74  98 131 173 219 261 298
#
# _framework density 18.799295999999998
#
# number of rings (size 3 to 8) (size 9 to 14) (size 15 to 20)
#    0.000    2.500    0.000    3.250    0.000    4.500 
#    0.000    7.500    0.000    3.000    0.000    2.333 
#    0.000    0.000    0.000    0.000    0.000    0.000 
#
# Total GULP energy -267253.882074 kJ/mol
# GULP energy per Si atom -5567.789210 kJ/mol
# Density = 1.875651 g / cm^3
# Si number density = 18.799296 Si / 1000 Ang^3
#
#
#
# Elastic Constant Matrix: (Units=GPa)
#
#
# Indices 1 2 3 4 5 6 
#
# 1 115.6888 38.3224 60.7409 0.0000 0.0000 0.0000
# 2 38.3224 60.4769 39.7573 0.0000 0.0000 0.0000
# 3 60.7409 39.7573 102.3591 0.0000 0.0000 0.0000
# 4 0.0000 0.0000 0.0000 -81.2662 0.0000 0.0000
# 5 0.0000 0.0000 0.0000 0.0000 13.9914 0.0000
# 6 0.0000 0.0000 0.0000 0.0000 0.0000 1.7734
#
#
#
# Elastic Compliance Matrix: (Units=1/GPa)
#
#
# Indices 1 2 3 4 5 6 
#
# 1 0.013364 -0.004371 -0.006233 0.000000 0.000000 0.000000
# 2 -0.004371 0.023635 -0.006586 0.000000 0.000000 0.000000
# 3 -0.006233 -0.006586 0.016026 0.000000 0.000000 0.000000
# 4 0.000000 0.000000 0.000000 -0.012305 0.000000 0.000000
# 5 0.000000 0.000000 0.000000 0.000000 0.071472 0.000000
# 6 0.000000 0.000000 0.000000 0.000000 0.000000 0.563896
#
#
# Mechanical properties :
#
#
# Convention : Reuss Voigt Hill
#
# Bulk Modulus (GPa) = 53.63279 61.79625 57.71452
# Shear Modulus (GPa) = 6.97658 -3.78667 1.59496
#
# Velocity S-wave (km/s) = 1.92851 -1.42079 0.92209
# Velocity P-wave (km/s) = 5.79223 5.50013 5.64807
#
# Compressibility (1/GPa) = 0.01864531
#
# Stress axis : x y z
#
# Youngs Moduli (GPa) = 74.82664 42.31053 62.39807
#
# Poissons Ratio (x) = 0.18495 0.38891
# Poissons Ratio (y) = 0.32708 0.41096
# Poissons Ratio (z) = 0.46637 0.27866
#
# Static dielectric constant tensor:
#      x y z
#    x 1.670230 0.000000 0.000000 
#    y 0.000000 1.665370 0.000000 
#    z 0.000000 0.000000 1.624050 
# 
# From -- ./inp_files/69905.got.cif
#   From: 2010.05.17/outbox.cif.g08.bks.cpg/sg65_35_cif.got.tgz:69905.got - 2010.06.03 17:01:31.
