data_PCOD9489935
_publ_section_title
;
Structure prediction by ZEFSAII (Michael W. Deem and Ramdas Pophale) SiO2 
 PCOD9489935
Probable space group: C M M M
;
_chemical_formula_sum "Si O2"
_cell_formula_units_Z 72
_cell_length_a 16.612365
_cell_length_b 15.341609
_cell_length_c 15.067039
_cell_angle_alpha 90.000000
_cell_angle_beta 90.000000
_cell_angle_gamma 90.000000
_cell_volume 3839.991713
_symmetry_space_group_name_H-M "C M M M"
_symmetry_group_IT_number 65
_symmetry_cell_setting 'orthorhombic'
loop_
_space_group_symop_operation_xyz
x,y,z
-x,-y,z
x,-y,-z
-x,y,-z
-x,-y,-z
x,y,-z
-x,y,z
x,-y,z
1/2+x,1/2+y,z
1/2-x,1/2-y,z
1/2+x,1/2-y,-z
1/2-x,1/2+y,-z
1/2-x,1/2-y,-z
1/2+x,1/2+y,-z
1/2-x,1/2+y,z
1/2+x,1/2-y,z
loop_
_atom_site_type_symbol
_atom_site_label
_atom_site_fract_x
_atom_site_fract_y
_atom_site_fract_z
Si Si1 0.092190 0.394444 0.694766
Si Si2 0.097273 0.400944 0.500000
Si Si3 0.245029 0.352755 0.814906
Si Si4 0.589513 0.398963 0.830903
Si Si5 0.089950 0.771871 0.000000
Si Si6 0.810575 0.593850 0.000000
O O1 0.088967 0.500000 0.689947
O O2 0.115888 0.361131 0.596009
O O3 0.162823 0.371029 0.762289
O O4 0.000000 0.365968 0.717268
O O5 0.129976 0.500000 0.500000
O O6 0.000000 0.407192 0.500000
O O7 0.250000 0.250000 0.828951
O O8 0.330200 0.382730 0.773170
O O9 0.238842 0.401272 0.909205
O O10 0.500000 0.382997 0.791390
O O11 0.590028 0.500000 0.859627
O O12 0.597875 0.333104 0.913878
O O13 0.143294 0.685812 0.000000
O O14 0.000000 0.736791 0.000000
O O15 0.855168 0.500000 0.000000
#
# Coordination Sequence:
#
# PCOD9489935 Si02
#       6
#    16   8  16  16   8   8
#     4   9  18  34  58  87 114 142 180 224 277 340
#     4   7  12  28  55  84 113 141 173 221 272 326
#     4  12  23  37  54  77 112 150 183 235 284 329
#     4  10  20  35  55  75  99 138 188 237 278 318
#     4  10  20  36  54  76 102 134 186 240 283 328
#     4  12  24  38  53  73 110 153 191 231 281 335
#
# _framework density 18.750042000000001
#
# number of rings (size 3 to 8) (size 9 to 14) (size 15 to 20)
#    0.000    1.889    2.222    4.667    0.000    3.333 
#    0.000    0.556    0.000    0.000    0.000    0.778 
#    0.000    4.444    0.000    0.000    0.000    0.667 
#
# Total GULP energy -200437.596894 kJ/mol
# GULP energy per Si atom -5567.711025 kJ/mol
# Density = 1.870737 g / cm^3
# Si number density = 18.750042 Si / 1000 Ang^3
#
#
#
# Elastic Constant Matrix: (Units=GPa)
#
#
# Indices 1 2 3 4 5 6 
#
# 1 157.3001 28.0584 51.4579 0.0000 0.0000 0.0000
# 2 28.0584 93.8611 -0.0402 0.0000 0.0000 0.0000
# 3 51.4579 -0.0402 77.1686 0.0000 0.0000 0.0000
# 4 0.0000 0.0000 0.0000 10.1064 0.0000 0.0000
# 5 0.0000 0.0000 0.0000 0.0000 5.1046 0.0000
# 6 0.0000 0.0000 0.0000 0.0000 0.0000 30.0169
#
#
#
# Elastic Compliance Matrix: (Units=1/GPa)
#
#
# Indices 1 2 3 4 5 6 
#
# 1 0.008727 -0.002611 -0.005821 0.000000 0.000000 0.000000
# 2 -0.002611 0.011435 0.001747 0.000000 0.000000 0.000000
# 3 -0.005821 0.001747 0.016841 0.000000 0.000000 0.000000
# 4 0.000000 0.000000 0.000000 0.098947 0.000000 0.000000
# 5 0.000000 0.000000 0.000000 0.000000 0.195903 0.000000
# 6 0.000000 0.000000 0.000000 0.000000 0.000000 0.033315
#
#
# Mechanical properties :
#
#
# Convention : Reuss Voigt Hill
#
# Bulk Modulus (GPa) = 42.31241 54.14247 48.22744
# Shear Modulus (GPa) = 12.93940 25.63581 19.28760
#
# Velocity S-wave (km/s) = 2.62982 3.70163 3.21077
# Velocity P-wave (km/s) = 5.64242 6.87081 6.28669
#
# Compressibility (1/GPa) = 0.02363373
#
# Stress axis : x y z
#
# Youngs Moduli (GPa) = 114.58298 87.44761 59.37859
#
# Poissons Ratio (x) = 0.22836 0.34564
# Poissons Ratio (y) = 0.29922 -0.10375
# Poissons Ratio (z) = 0.66698 -0.15280
#
# Static dielectric constant tensor:
#      x y z
#    x 1.722820 0.000000 0.000000 
#    y 0.000000 1.652620 0.000000 
#    z 0.000000 0.000000 1.687960 
# 
# From -- ./inp_files/42207.got.cif
#   From: 2010.05.17/outbox.cif.g08.bks.cpg/sg65_22_cif.got.tgz:42207.got - 2010.06.03 17:01:31.
