data_PCOD9489636
_publ_section_title
;
Structure prediction by ZEFSAII (Michael W. Deem and Ramdas Pophale) SiO2 
 PCOD9489636
Probable space group: C M M M
;
_chemical_formula_sum "Si O2"
_cell_formula_units_Z 58
_cell_length_a 8.783269
_cell_length_b 16.143666
_cell_length_c 21.879697
_cell_angle_alpha 90.000000
_cell_angle_beta 90.000000
_cell_angle_gamma 90.000000
_cell_volume 3102.413282
_symmetry_space_group_name_H-M "C M M M"
_symmetry_group_IT_number 65
_symmetry_cell_setting 'orthorhombic'
loop_
_space_group_symop_operation_xyz
x,y,z
-x,-y,z
x,-y,-z
-x,y,-z
-x,-y,-z
x,y,-z
-x,y,z
x,-y,z
1/2+x,1/2+y,z
1/2-x,1/2-y,z
1/2+x,1/2-y,-z
1/2-x,1/2+y,-z
1/2-x,1/2-y,-z
1/2+x,1/2+y,-z
1/2-x,1/2+y,z
1/2+x,1/2-y,z
loop_
_atom_site_type_symbol
_atom_site_label
_atom_site_fract_x
_atom_site_fract_y
_atom_site_fract_z
Si Si1 0.168250 0.500000 0.873456
Si Si2 0.500000 0.000000 0.000000
Si Si3 0.181341 0.403912 0.301632
Si Si4 0.180501 0.163083 0.818136
Si Si5 0.316163 0.842407 0.433426
O O1 0.130012 0.500000 0.945206
O O2 0.253310 0.416635 0.853420
O O3 0.000000 0.500000 0.842347
O O4 0.206600 0.500000 0.286618
O O5 0.269686 0.349779 0.252359
O O6 0.229817 0.388500 0.371593
O O7 0.000000 0.386628 0.297124
O O8 0.250000 0.250000 0.840333
O O9 0.000000 0.165325 0.823152
O O10 0.270881 0.878102 0.500000
O O11 0.500000 0.839028 0.432925
O O12 0.250000 0.750000 0.430322
#
# Coordination Sequence:
#
# PCOD9489636 Si02
#       5
#     8   2  16  16  16
#     4  10  21  45  71  99 132 167 205 249 312 364
#     4   8  24  44  82  96 140 170 200 252 312 352
#     4  10  20  34  54  83 117 160 207 266 325 378
#     4  12  24  39  65  98 132 172 215 264 313 371
#     4   9  18  32  49  71 104 149 204 262 322 384
#
# _framework density 18.695125000000001
#
# number of rings (size 3 to 8) (size 9 to 14) (size 15 to 20)
#    0.414    1.379    1.379    3.724    0.000    3.862 
#    0.000    4.828    0.000    0.000    0.000    5.793 
#    0.000    0.000    0.000    0.000    0.000    0.000 
#
# Total GULP energy -161539.377254 kJ/mol
# GULP energy per Si atom -5570.323354 kJ/mol
# Density = 1.865257 g / cm^3
# Si number density = 18.695125 Si / 1000 Ang^3
#
#
#
# Elastic Constant Matrix: (Units=GPa)
#
#
# Indices 1 2 3 4 5 6 
#
# 1 90.0543 65.0273 35.4618 0.0000 0.0000 0.0000
# 2 65.0273 125.1973 52.4310 0.0000 0.0000 0.0000
# 3 35.4618 52.4310 127.2055 0.0000 0.0000 0.0000
# 4 0.0000 0.0000 0.0000 3.7973 0.0000 0.0000
# 5 0.0000 0.0000 0.0000 0.0000 17.2357 0.0000
# 6 0.0000 0.0000 0.0000 0.0000 0.0000 26.7524
#
#
#
# Elastic Compliance Matrix: (Units=1/GPa)
#
#
# Indices 1 2 3 4 5 6 
#
# 1 0.017974 -0.008747 -0.001405 0.000000 0.000000 0.000000
# 2 -0.008747 0.013911 -0.003295 0.000000 0.000000 0.000000
# 3 -0.001405 -0.003295 0.009611 0.000000 0.000000 0.000000
# 4 0.000000 0.000000 0.000000 0.263348 0.000000 0.000000
# 5 0.000000 0.000000 0.000000 0.000000 0.058019 0.000000
# 6 0.000000 0.000000 0.000000 0.000000 0.000000 0.037380
#
#
# Mechanical properties :
#
#
# Convention : Reuss Voigt Hill
#
# Bulk Modulus (GPa) = 68.49021 72.03304 70.26162
# Shear Modulus (GPa) = 11.57395 22.19287 16.88341
#
# Velocity S-wave (km/s) = 2.49085 3.44916 3.00841
# Velocity P-wave (km/s) = 6.70726 7.38081 7.05208
#
# Compressibility (1/GPa) = 0.01460063
#
# Stress axis : x y z
#
# Youngs Moduli (GPa) = 55.63577 71.88759 104.04485
#
# Poissons Ratio (x) = 0.62881 0.14622
# Poissons Ratio (y) = 0.48665 0.34284
# Poissons Ratio (z) = 0.07819 0.23688
#
# Static dielectric constant tensor:
#      x y z
#    x 1.631760 0.000000 0.000000 
#    y 0.000000 1.642370 0.000000 
#    z 0.000000 0.000000 1.665440 
# 
# From -- ./inp_files/66673.got.cif
#   From: 2010.05.17/outbox.cif.g08.bks.cpg/sg65_34_cif.got.tgz:66673.got - 2010.06.03 17:01:31.
