data_PCOD9489099
_publ_section_title
;
Structure prediction by ZEFSAII (Michael W. Deem and Ramdas Pophale) SiO2 
 PCOD9489099
Probable space group: C M M M
;
_chemical_formula_sum "Si O2"
_cell_formula_units_Z 104
_cell_length_a 25.495831
_cell_length_b 8.335576
_cell_length_c 28.522480
_cell_angle_alpha 90.000000
_cell_angle_beta 90.000000
_cell_angle_gamma 90.000000
_cell_volume 6061.666958
_symmetry_space_group_name_H-M "C M M M"
_symmetry_group_IT_number 65
_symmetry_cell_setting 'orthorhombic'
loop_
_space_group_symop_operation_xyz
x,y,z
-x,-y,z
x,-y,-z
-x,y,-z
-x,-y,-z
x,y,-z
-x,y,z
x,-y,z
1/2+x,1/2+y,z
1/2-x,1/2-y,z
1/2+x,1/2-y,-z
1/2-x,1/2+y,-z
1/2-x,1/2-y,-z
1/2+x,1/2+y,-z
1/2-x,1/2+y,z
1/2+x,1/2-y,z
loop_
_atom_site_type_symbol
_atom_site_label
_atom_site_fract_x
_atom_site_fract_y
_atom_site_fract_z
Si Si1 0.000000 0.307573 0.297142
Si Si2 0.560100 0.806629 0.053549
Si Si3 0.413246 0.805319 0.372952
Si Si4 0.605871 0.691677 0.854236
Si Si5 0.000000 0.696522 0.446177
Si Si6 0.691059 0.191574 0.781037
Si Si7 0.190792 0.694108 0.674222
Si Si8 0.500000 0.690962 0.807200
O O1 0.949247 0.266210 0.328041
O O2 0.000000 0.500000 0.290544
O O3 0.000000 0.224810 0.247554
O O4 0.500000 0.752164 0.064505
O O5 0.600828 0.745455 0.091994
O O6 0.559741 0.000000 0.054697
O O7 0.571521 0.757095 0.000000
O O8 0.447816 0.751574 0.417581
O O9 0.354314 0.749498 0.361789
O O10 0.411312 0.000000 0.376033
O O11 0.605785 0.500000 0.853083
O O12 0.653280 0.748951 0.821938
O O13 0.552627 0.757213 0.830294
O O14 0.000000 0.500000 0.445385
O O15 0.000000 0.748051 0.500000
O O16 0.750000 0.250000 0.789446
O O17 0.676896 0.245903 0.727768
O O18 0.689710 0.000000 0.780623
O O19 0.190727 0.500000 0.673813
O O20 0.250000 0.750000 0.664057
O O21 0.500000 0.500000 0.814970
#
# Coordination Sequence:
#
# PCOD9489099 Si02
#       8
#     8  16  16  16   8  16  16   8
#     4   9  16  27  44  62  84 117 152 187 230 281
#     4   9  18  33  52  73  96 123 159 201 241 284
#     4   8  14  25  41  63  89 116 151 194 235 276
#     4  11  21  33  48  70 100 130 158 192 236 286
#     4   8  13  22  40  66  93 120 151 192 242 286
#     4  10  20  34  51  71  94 126 164 199 236 281
#     4   9  17  29  45  65  91 122 156 192 230 273
#     4  10  21  31  40  65 102 130 152 187 234 278
#
# _framework density 17.156995999999999
#
# number of rings (size 3 to 8) (size 9 to 14) (size 15 to 20)
#    0.000    2.692    0.769    3.231    0.000    3.385 
#    0.000    1.538    0.000    0.923    0.000    0.000 
#    0.000   10.462    0.000    0.000    0.000    0.000 
#
# Total GULP energy -289760.746701 kJ/mol
# GULP energy per Si atom -5572.322052 kJ/mol
# Density = 1.711795 g / cm^3
# Si number density = 17.156996 Si / 1000 Ang^3
#
#
#
# Elastic Constant Matrix: (Units=GPa)
#
#
# Indices 1 2 3 4 5 6 
#
# 1 121.7911 16.8571 81.5754 0.0000 0.0000 0.0000
# 2 16.8571 13.3334 14.0760 0.0000 0.0000 0.0000
# 3 81.5754 14.0760 126.8487 0.0000 0.0000 0.0000
# 4 0.0000 0.0000 0.0000 3.9605 0.0000 0.0000
# 5 0.0000 0.0000 0.0000 0.0000 19.4490 0.0000
# 6 0.0000 0.0000 0.0000 0.0000 0.0000 19.4055
#
#
#
# Elastic Compliance Matrix: (Units=1/GPa)
#
#
# Indices 1 2 3 4 5 6 
#
# 1 0.015587 -0.010335 -0.008877 0.000000 0.000000 0.000000
# 2 -0.010335 0.091804 -0.003541 0.000000 0.000000 0.000000
# 3 -0.008877 -0.003541 0.013985 0.000000 0.000000 0.000000
# 4 0.000000 0.000000 0.000000 0.252492 0.000000 0.000000
# 5 0.000000 0.000000 0.000000 0.000000 0.051417 0.000000
# 6 0.000000 0.000000 0.000000 0.000000 0.000000 0.051532
#
#
# Mechanical properties :
#
#
# Convention : Reuss Voigt Hill
#
# Bulk Modulus (GPa) = 13.18037 54.11003 33.64520
# Shear Modulus (GPa) = 9.13054 18.52732 13.82893
#
# Velocity S-wave (km/s) = 2.30940 3.28970 2.84213
# Velocity P-wave (km/s) = 3.84837 6.78499 5.51571
#
# Compressibility (1/GPa) = 0.07587039
#
# Stress axis : x y z
#
# Youngs Moduli (GPa) = 64.15563 10.89278 71.50448
#
# Poissons Ratio (x) = 0.11257 0.63475
# Poissons Ratio (y) = 0.66304 0.25319
# Poissons Ratio (z) = 0.56952 0.03857
#
# Static dielectric constant tensor:
#      x y z
#    x 1.580190 0.000000 0.000000 
#    y 0.000000 1.590740 0.000000 
#    z 0.000000 0.000000 1.580850 
# 
# From -- ./inp_files/78313.got.cif
#   From: 2010.05.17/outbox.cif.g08.bks.cpg/sg65_40_cif.got.tgz:78313.got - 2010.06.03 17:01:31.
