data_PCOD9489559
_publ_section_title
;
Structure prediction by ZEFSAII (Michael W. Deem and Ramdas Pophale) SiO2 
 PCOD9489559
Probable space group: C M M M
;
_chemical_formula_sum "Si O2"
_cell_formula_units_Z 88
_cell_length_a 29.566568
_cell_length_b 7.947418
_cell_length_c 18.675568
_cell_angle_alpha 90.000000
_cell_angle_beta 90.000000
_cell_angle_gamma 90.000000
_cell_volume 4388.345278
_symmetry_space_group_name_H-M "C M M M"
_symmetry_group_IT_number 65
_symmetry_cell_setting 'orthorhombic'
loop_
_space_group_symop_operation_xyz
x,y,z
-x,-y,z
x,-y,-z
-x,y,-z
-x,-y,-z
x,y,-z
-x,y,z
x,-y,z
1/2+x,1/2+y,z
1/2-x,1/2-y,z
1/2+x,1/2-y,-z
1/2-x,1/2+y,-z
1/2-x,1/2-y,-z
1/2+x,1/2+y,-z
1/2-x,1/2+y,z
1/2+x,1/2-y,z
loop_
_atom_site_type_symbol
_atom_site_label
_atom_site_fract_x
_atom_site_fract_y
_atom_site_fract_z
Si Si1 0.050132 0.702815 0.186477
Si Si2 0.357021 0.202485 0.579130
Si Si3 0.302504 0.703435 0.000000
Si Si4 0.853647 0.798435 0.858606
Si Si5 0.302085 0.299632 0.281834
Si Si6 0.949783 0.294694 0.352933
O O1 0.050085 0.500000 0.186099
O O2 0.093123 0.761735 0.142187
O O3 0.056118 0.755606 0.269730
O O4 0.000000 0.759544 0.163112
O O5 0.344289 0.264567 0.500000
O O6 0.322882 0.244493 0.642698
O O7 0.407109 0.264160 0.601522
O O8 0.359378 0.000000 0.576050
O O9 0.250000 0.750000 0.000000
O O10 0.327597 0.766107 0.071526
O O11 0.305438 0.500000 0.000000
O O12 0.831264 0.731023 0.785153
O O13 0.848197 0.000000 0.857929
O O14 0.304999 0.500000 0.279725
O O15 0.250000 0.250000 0.274478
O O16 0.949597 0.500000 0.354258
O O17 0.000000 0.241226 0.376697
#
# Coordination Sequence:
#
# PCOD9489559 Si02
#       6
#    16  16   8  16  16  16
#     4   9  17  31  55  84 112 145 184 223 263 313
#     4  10  20  34  54  80 109 142 180 223 271 320
#     4  10  22  40  59  84 115 143 180 227 277 328
#     4  10  21  37  58  84 112 143 178 221 272 327
#     4  11  23  38  57  79 103 137 180 224 273 326
#     4   8  14  27  49  78 109 139 174 217 262 309
#
# _framework density 20.053118000000001
#
# number of rings (size 3 to 8) (size 9 to 14) (size 15 to 20)
#    0.000    2.364    1.818    2.182    0.000    2.909 
#    0.000    2.273    0.000    3.273    0.000    1.273 
#    0.000    0.000    0.000    0.000    0.000    0.000 
#
# Total GULP energy -245565.672255 kJ/mol
# GULP energy per Si atom -5581.038006 kJ/mol
# Density = 2.000748 g / cm^3
# Si number density = 20.053118 Si / 1000 Ang^3
#
#
#
# Elastic Constant Matrix: (Units=GPa)
#
#
# Indices 1 2 3 4 5 6 
#
# 1 161.6555 2.4426 91.4758 0.0000 0.0000 0.0000
# 2 2.4426 15.6383 12.9814 0.0000 0.0000 0.0000
# 3 91.4758 12.9814 137.8162 0.0000 0.0000 0.0000
# 4 0.0000 0.0000 0.0000 11.5026 0.0000 0.0000
# 5 0.0000 0.0000 0.0000 0.0000 18.5870 0.0000
# 6 0.0000 0.0000 0.0000 0.0000 0.0000 15.7431
#
#
#
# Elastic Compliance Matrix: (Units=1/GPa)
#
#
# Indices 1 2 3 4 5 6 
#
# 1 0.010174 0.004357 -0.007163 0.000000 0.000000 0.000000
# 2 0.004357 0.071236 -0.009602 0.000000 0.000000 0.000000
# 3 -0.007163 -0.009602 0.012915 0.000000 0.000000 0.000000
# 4 0.000000 0.000000 0.000000 0.086937 0.000000 0.000000
# 5 0.000000 0.000000 0.000000 0.000000 0.053801 0.000000
# 6 0.000000 0.000000 0.000000 0.000000 0.000000 0.063520
#
#
# Mechanical properties :
#
#
# Convention : Reuss Voigt Hill
#
# Bulk Modulus (GPa) = 14.38681 58.76776 36.57729
# Shear Modulus (GPa) = 14.42720 23.04721 18.73721
#
# Velocity S-wave (km/s) = 2.68517 3.39382 3.06008
# Velocity P-wave (km/s) = 4.09920 6.68783 5.54664
#
# Compressibility (1/GPa) = 0.06950811
#
# Stress axis : x y z
#
# Youngs Moduli (GPa) = 98.29413 14.03794 77.42921
#
# Poissons Ratio (x) = -0.06116 0.55464
# Poissons Ratio (y) = -0.42828 0.74347
# Poissons Ratio (z) = 0.70409 0.13479
#
# Static dielectric constant tensor:
#      x y z
#    x 1.664040 0.000000 0.000000 
#    y 0.000000 1.729550 0.000000 
#    z 0.000000 0.000000 1.712300 
# 
# From -- ./inp_files/50452.got.cif
#   From: 2010.05.17/outbox.cif.g08.bks.cpg/sg65_26_cif.got.tgz:50452.got - 2010.06.03 17:01:31.
