data_PCOD9489166
_publ_section_title
;
Structure prediction by ZEFSAII (Michael W. Deem and Ramdas Pophale) SiO2 
 PCOD9489166
Probable space group: C M M M
;
_chemical_formula_sum "Si O2"
_cell_formula_units_Z 104
_cell_length_a 31.975543
_cell_length_b 8.813783
_cell_length_c 19.419493
_cell_angle_alpha 90.000000
_cell_angle_beta 90.000000
_cell_angle_gamma 90.000000
_cell_volume 5472.908272
_symmetry_space_group_name_H-M "C M M M"
_symmetry_group_IT_number 65
_symmetry_cell_setting 'orthorhombic'
loop_
_space_group_symop_operation_xyz
x,y,z
-x,-y,z
x,-y,-z
-x,y,-z
-x,-y,-z
x,y,-z
-x,y,z
x,-y,z
1/2+x,1/2+y,z
1/2-x,1/2-y,z
1/2+x,1/2-y,-z
1/2-x,1/2+y,-z
1/2-x,1/2-y,-z
1/2+x,1/2+y,-z
1/2-x,1/2+y,z
1/2+x,1/2-y,z
loop_
_atom_site_type_symbol
_atom_site_label
_atom_site_fract_x
_atom_site_fract_y
_atom_site_fract_z
Si Si1 0.500000 0.314406 0.580886
Si Si2 0.952618 0.819363 0.082346
Si Si3 0.927680 0.828211 0.314785
Si Si4 0.114304 0.680501 0.817323
Si Si5 0.295384 0.317997 0.215159
Si Si6 0.710321 0.172746 0.634698
Si Si7 0.642499 0.337050 0.573369
O O1 0.500000 0.500000 0.577843
O O2 0.500000 0.264561 0.500000
O O3 0.538509 0.268344 0.630270
O O4 0.915047 0.733417 0.119772
O O5 0.000000 0.773217 0.104580
O O6 0.948759 0.000000 0.096068
O O7 0.950459 0.798431 0.000000
O O8 0.912799 0.733060 0.249382
O O9 0.887544 0.840948 0.362776
O O10 0.940245 0.000000 0.292396
O O11 0.119843 0.500000 0.816083
O O12 0.160852 0.756022 0.816849
O O13 0.294305 0.500000 0.209776
O O14 0.250000 0.250000 0.190536
O O15 0.297884 0.265463 0.295000
O O16 0.750000 0.250000 0.600978
O O17 0.672278 0.196672 0.583978
O O18 0.717565 0.000000 0.653423
O O19 0.619775 0.330000 0.500000
O O20 0.665973 0.500000 0.574192
#
# Coordination Sequence:
#
# PCOD9489166 Si02
#       7
#     8  16  16  16  16  16  16
#     4   9  18  34  57  83 108 143 196 253 307 362
#     4   9  20  41  68  96 127 165 207 247 292 349
#     4  10  20  35  56  81 110 147 193 247 297 352
#     4  12  24  37  58  91 128 164 201 246 296 355
#     4  11  21  37  60  86 117 154 198 249 302 358
#     4  11  21  34  52  74 103 140 181 232 291 352
#     4  10  20  34  52  73 101 141 188 239 295 352
#
# _framework density 19.002693000000001
#
# number of rings (size 3 to 8) (size 9 to 14) (size 15 to 20)
#    0.000    1.615    1.538    6.000    1.077    3.077 
#    0.000    0.769    0.000    2.308    0.000    0.000 
#    0.000    0.000    0.000    0.000    0.000    0.000 
#
# Total GULP energy -289687.783531 kJ/mol
# GULP energy per Si atom -5570.918914 kJ/mol
# Density = 1.895944 g / cm^3
# Si number density = 19.002693 Si / 1000 Ang^3
#
#
#
# Elastic Constant Matrix: (Units=GPa)
#
#
# Indices 1 2 3 4 5 6 
#
# 1 121.0289 56.8120 38.9367 0.0000 0.0000 0.0000
# 2 56.8120 123.0431 33.1256 0.0000 0.0000 0.0000
# 3 38.9367 33.1256 58.4407 0.0000 0.0000 0.0000
# 4 0.0000 0.0000 0.0000 -21.6468 0.0000 0.0000
# 5 0.0000 0.0000 0.0000 0.0000 63.4872 0.0000
# 6 0.0000 0.0000 0.0000 0.0000 0.0000 22.3406
#
#
#
# Elastic Compliance Matrix: (Units=1/GPa)
#
#
# Indices 1 2 3 4 5 6 
#
# 1 0.011974 -0.003990 -0.005717 0.000000 0.000000 0.000000
# 2 -0.003990 0.010920 -0.003532 0.000000 0.000000 0.000000
# 3 -0.005717 -0.003532 0.022922 0.000000 0.000000 0.000000
# 4 0.000000 0.000000 0.000000 -0.046196 0.000000 0.000000
# 5 0.000000 0.000000 0.000000 0.000000 0.015751 0.000000
# 6 0.000000 0.000000 0.000000 0.000000 0.000000 0.044762
#
#
# Mechanical properties :
#
#
# Convention : Reuss Voigt Hill
#
# Bulk Modulus (GPa) = 51.70481 62.25126 56.97804
# Shear Modulus (GPa) = 53.73114 24.41209 39.07162
#
# Velocity S-wave (km/s) = 5.32324 3.58811 4.53935
# Velocity P-wave (km/s) = 8.06541 7.07081 7.58443
#
# Compressibility (1/GPa) = 0.01934056
#
# Stress axis : x y z
#
# Youngs Moduli (GPa) = 83.51094 91.57322 43.62658
#
# Poissons Ratio (x) = 0.36537 0.24939
# Poissons Ratio (y) = 0.33320 0.15407
# Poissons Ratio (z) = 0.47739 0.32339
#
# Static dielectric constant tensor:
#      x y z
#    x 1.767490 0.000000 0.000000 
#    y 0.000000 1.696430 0.000000 
#    z 0.000000 0.000000 1.641740 
# 
# From -- ./inp_files/66324.got.cif
#   From: 2010.05.17/outbox.cif.g08.bks.cpg/sg65_34_cif.got.tgz:66324.got - 2010.06.03 17:01:31.
