data_PCOD9489173
_publ_section_title
;
Structure prediction by ZEFSAII (Michael W. Deem and Ramdas Pophale) SiO2 
 PCOD9489173
Probable space group: C M M M
;
_chemical_formula_sum "Si O2"
_cell_formula_units_Z 64
_cell_length_a 7.519785
_cell_length_b 25.584475
_cell_length_c 13.299630
_cell_angle_alpha 90.000000
_cell_angle_beta 90.000000
_cell_angle_gamma 90.000000
_cell_volume 2558.712509
_symmetry_space_group_name_H-M "C M M M"
_symmetry_group_IT_number 65
_symmetry_cell_setting 'orthorhombic'
loop_
_space_group_symop_operation_xyz
x,y,z
-x,-y,z
x,-y,-z
-x,y,-z
-x,-y,-z
x,y,-z
-x,y,z
x,-y,z
1/2+x,1/2+y,z
1/2-x,1/2-y,z
1/2+x,1/2-y,-z
1/2-x,1/2+y,-z
1/2-x,1/2-y,-z
1/2+x,1/2+y,-z
1/2-x,1/2+y,z
1/2+x,1/2-y,z
loop_
_atom_site_type_symbol
_atom_site_label
_atom_site_fract_x
_atom_site_fract_y
_atom_site_fract_z
Si Si1 0.706928 0.171655 0.607264
Si Si2 0.205765 0.080023 0.892508
Si Si3 0.288177 0.193096 0.171813
Si Si4 0.216201 0.056882 0.330466
O O1 0.786982 0.187679 0.500000
O O2 0.500000 0.187005 0.606565
O O3 0.783753 0.191503 0.712884
O O4 0.716741 0.108640 0.615460
O O5 0.211731 0.142984 0.883965
O O6 0.278627 0.060578 0.786030
O O7 0.000000 0.063464 0.893532
O O8 0.285685 0.064583 0.000000
O O9 0.500000 0.185203 0.174485
O O10 0.250000 0.250000 0.128615
O O11 0.000000 0.060075 0.331493
O O12 0.266293 0.000000 0.371174
#
# Coordination Sequence:
#
# PCOD9489173 Si02
#       4
#    16  16  16  16
#     4   9  19  35  52  71  97 129 164 200 239 286
#     4   9  18  33  52  73  98 129 164 200 239 285
#     4  10  20  34  52  73  98 127 160 200 244 289
#     4   9  18  32  50  74 102 129 160 200 243 285
#
# _framework density 25.01258
#
# number of rings (size 3 to 8) (size 9 to 14) (size 15 to 20)
#    0.000    2.750    0.000    0.750    0.000    4.500 
#    0.000    5.000    0.000    0.000    0.000    7.000 
#    0.000    0.000    0.000    0.000    0.000    0.000 
#
# Total GULP energy -178789.779872 kJ/mol
# GULP energy per Si atom -5587.180621 kJ/mol
# Density = 2.495565 g / cm^3
# Si number density = 25.012580 Si / 1000 Ang^3
#
#
#
# Elastic Constant Matrix: (Units=GPa)
#
#
# Indices 1 2 3 4 5 6 
#
# 1 81.7978 -11.1895 4.0927 0.0000 0.0000 0.0000
# 2 -11.1895 138.1924 -5.0861 0.0000 0.0000 0.0000
# 3 4.0927 -5.0861 128.6675 0.0000 0.0000 0.0000
# 4 0.0000 0.0000 0.0000 -22.5003 0.0000 0.0000
# 5 0.0000 0.0000 0.0000 0.0000 5.3982 0.0000
# 6 0.0000 0.0000 0.0000 0.0000 0.0000 11.0034
#
#
#
# Elastic Compliance Matrix: (Units=1/GPa)
#
#
# Indices 1 2 3 4 5 6 
#
# 1 0.012378 0.000989 -0.000355 0.000000 0.000000 0.000000
# 2 0.000989 0.007326 0.000258 0.000000 0.000000 0.000000
# 3 -0.000355 0.000258 0.007793 0.000000 0.000000 0.000000
# 4 0.000000 0.000000 0.000000 -0.044444 0.000000 0.000000
# 5 0.000000 0.000000 0.000000 0.000000 0.185247 0.000000
# 6 0.000000 0.000000 0.000000 0.000000 0.000000 0.090881
#
#
# Mechanical properties :
#
#
# Convention : Reuss Voigt Hill
#
# Bulk Modulus (GPa) = 34.14936 36.03241 35.09088
# Shear Modulus (GPa) = 18.71550 22.83629 20.77589
#
# Velocity S-wave (km/s) = 2.73837 3.02485 2.88517
# Velocity P-wave (km/s) = 4.86629 5.16107 5.01584
#
# Compressibility (1/GPa) = 0.02928313
#
# Stress axis : x y z
#
# Youngs Moduli (GPa) = 80.78629 136.50226 128.31282
#
# Poissons Ratio (x) = -0.13503 0.04550
# Poissons Ratio (y) = -0.07992 -0.03312
# Poissons Ratio (z) = 0.02865 -0.03523
#
# Static dielectric constant tensor:
#      x y z
#    x 1.949880 0.000000 0.000000 
#    y 0.000000 1.942130 0.000000 
#    z 0.000000 0.000000 2.011720 
# 
# From -- ./inp_files/20922.got.cif
#   From: 2010.05.17/outbox.cif.g08.bks.cpg/sg65_11_cif.got.tgz:20922.got - 2010.06.03 17:01:31.
