data_PCOD9489394
_publ_section_title
;
Structure prediction by ZEFSAII (Michael W. Deem and Ramdas Pophale) SiO2 
 PCOD9489394
Probable space group: C M M M
;
_chemical_formula_sum "Si O2"
_cell_formula_units_Z 80
_cell_length_a 8.994902
_cell_length_b 19.746073
_cell_length_c 26.388746
_cell_angle_alpha 90.000000
_cell_angle_beta 90.000000
_cell_angle_gamma 90.000000
_cell_volume 4687.010508
_symmetry_space_group_name_H-M "C M M M"
_symmetry_group_IT_number 65
_symmetry_cell_setting 'orthorhombic'
loop_
_space_group_symop_operation_xyz
x,y,z
-x,-y,z
x,-y,-z
-x,y,-z
-x,-y,-z
x,y,-z
-x,y,z
x,-y,z
1/2+x,1/2+y,z
1/2-x,1/2-y,z
1/2+x,1/2-y,-z
1/2-x,1/2+y,-z
1/2-x,1/2-y,-z
1/2+x,1/2+y,-z
1/2-x,1/2+y,z
1/2+x,1/2-y,z
loop_
_atom_site_type_symbol
_atom_site_label
_atom_site_fract_x
_atom_site_fract_y
_atom_site_fract_z
Si Si1 0.320978 0.421097 0.395501
Si Si2 0.828863 0.082220 0.000000
Si Si3 0.171772 0.417650 0.500000
Si Si4 0.321451 0.322900 0.694764
Si Si5 0.821466 0.176166 0.811140
Si Si6 0.822954 0.419298 0.105466
O O1 0.500000 0.418243 0.399622
O O2 0.279638 0.500000 0.388369
O O3 0.251304 0.395968 0.448225
O O4 0.273818 0.376737 0.347443
O O5 0.744904 0.102421 0.948716
O O6 0.000000 0.105166 0.000000
O O7 0.829560 0.000000 0.000000
O O8 0.179191 0.500000 0.500000
O O9 0.000000 0.397507 0.500000
O O10 0.500000 0.316749 0.692008
O O11 0.250000 0.250000 0.684957
O O12 0.285387 0.342799 0.752711
O O13 0.750000 0.250000 0.820240
O O14 0.754318 0.122636 0.850115
O O15 0.000000 0.179814 0.816249
O O16 0.795549 0.500000 0.111448
O O17 0.000000 0.408691 0.105735
#
# Coordination Sequence:
#
# PCOD9489394 Si02
#       6
#    16   8   8  16  16  16
#     4   9  17  31  51  73  97 127 163 201 242 290
#     4   9  17  31  52  77 104 135 170 207 251 301
#     4   9  17  29  46  71 100 127 157 197 246 293
#     4   9  19  34  52  73  98 130 165 203 247 295
#     4  10  20  35  54  75 102 136 172 210 254 303
#     4  10  20  34  53  78 107 137 170 209 252 299
#
# _framework density 17.068449000000001
#
# number of rings (size 3 to 8) (size 9 to 14) (size 15 to 20)
#    0.000    2.600    0.000    1.800    0.000    6.000 
#    0.000    3.000    0.000    2.400    0.000    0.000 
#    0.000    0.000    0.000    0.000    0.000    0.000 
#
# Total GULP energy -223048.523952 kJ/mol
# GULP energy per Si atom -5576.213099 kJ/mol
# Density = 1.702960 g / cm^3
# Si number density = 17.068449 Si / 1000 Ang^3
#
#
#
# Elastic Constant Matrix: (Units=GPa)
#
#
# Indices 1 2 3 4 5 6 
#
# 1 69.4353 48.6670 75.8999 0.0000 0.0000 0.0000
# 2 48.6670 65.3318 94.3120 0.0000 0.0000 0.0000
# 3 75.8999 94.3120 186.2788 0.0000 0.0000 0.0000
# 4 0.0000 0.0000 0.0000 -31.2664 0.0000 0.0000
# 5 0.0000 0.0000 0.0000 0.0000 23.4704 0.0000
# 6 0.0000 0.0000 0.0000 0.0000 0.0000 25.3037
#
#
#
# Elastic Compliance Matrix: (Units=1/GPa)
#
#
# Indices 1 2 3 4 5 6 
#
# 1 0.030725 -0.017893 -0.003460 0.000000 0.000000 0.000000
# 2 -0.017893 0.067296 -0.026781 0.000000 0.000000 0.000000
# 3 -0.003460 -0.026781 0.020337 0.000000 0.000000 0.000000
# 4 0.000000 0.000000 0.000000 -0.031983 0.000000 0.000000
# 5 0.000000 0.000000 0.000000 0.000000 0.042607 0.000000
# 6 0.000000 0.000000 0.000000 0.000000 0.000000 0.039520
#
#
# Mechanical properties :
#
#
# Convention : Reuss Voigt Hill
#
# Bulk Modulus (GPa) = 45.26888 84.31150 64.79019
# Shear Modulus (GPa) = 18.37334 10.31269 14.34302
#
# Velocity S-wave (km/s) = 3.28449 2.46071 2.90198
# Velocity P-wave (km/s) = 6.40026 7.58794 7.01926
#
# Compressibility (1/GPa) = 0.02209023
#
# Stress axis : x y z
#
# Youngs Moduli (GPa) = 32.54667 14.85968 49.17123
#
# Poissons Ratio (x) = 0.26589 0.17012
# Poissons Ratio (y) = 0.58237 1.31686
# Poissons Ratio (z) = 0.11260 0.39796
#
# Static dielectric constant tensor:
#      x y z
#    x 1.569410 0.000000 0.000000 
#    y 0.000000 1.553020 0.000000 
#    z 0.000000 0.000000 1.569550 
# 
# From -- ./inp_files/67350.got.cif
#   From: 2010.05.17/outbox.cif.g08.bks.cpg/sg65_34_cif.got.tgz:67350.got - 2010.06.03 17:01:31.
