data_PCOD9489883
_publ_section_title
;
Structure prediction by ZEFSAII (Michael W. Deem and Ramdas Pophale) SiO2 
 PCOD9489883
Probable space group: C M M M
;
_chemical_formula_sum "Si O2"
_cell_formula_units_Z 80
_cell_length_a 18.975374
_cell_length_b 8.626757
_cell_length_c 27.178957
_cell_angle_alpha 90.000000
_cell_angle_beta 90.000000
_cell_angle_gamma 90.000000
_cell_volume 4449.084927
_symmetry_space_group_name_H-M "C M M M"
_symmetry_group_IT_number 65
_symmetry_cell_setting 'orthorhombic'
loop_
_space_group_symop_operation_xyz
x,y,z
-x,-y,z
x,-y,-z
-x,y,-z
-x,-y,-z
x,y,-z
-x,y,z
x,-y,z
1/2+x,1/2+y,z
1/2-x,1/2-y,z
1/2+x,1/2-y,-z
1/2-x,1/2+y,-z
1/2-x,1/2-y,-z
1/2+x,1/2+y,-z
1/2-x,1/2+y,z
1/2+x,1/2-y,z
loop_
_atom_site_type_symbol
_atom_site_label
_atom_site_fract_x
_atom_site_fract_y
_atom_site_fract_z
Si Si1 0.081014 0.186356 0.709367
Si Si2 0.171135 0.186900 0.803402
Si Si3 0.914822 0.316205 0.606383
Si Si4 0.329409 0.185391 0.091245
Si Si5 0.917171 0.185996 0.000000
Si Si6 0.416681 0.811241 0.500000
O O1 0.124804 0.236844 0.756808
O O2 0.110844 0.239917 0.656691
O O3 0.000000 0.241563 0.713253
O O4 0.080040 0.000000 0.709397
O O5 0.250000 0.250000 0.796873
O O6 0.145426 0.252847 0.855631
O O7 0.172119 0.000000 0.806000
O O8 0.902367 0.500000 0.609253
O O9 0.887660 0.258632 0.553024
O O10 0.000000 0.293451 0.605401
O O11 0.250000 0.250000 0.083985
O O12 0.378787 0.245928 0.047867
O O13 0.326671 0.000000 0.091491
O O14 0.000000 0.224254 0.000000
O O15 0.909736 0.000000 0.000000
O O16 0.500000 0.772372 0.500000
O O17 0.413196 0.000000 0.500000
#
# Coordination Sequence:
#
# PCOD9489883 Si02
#       6
#    16  16  16  16   8   8
#     4   9  18  31  46  67  97 129 159 196 246 300
#     4  10  20  35  54  75 100 132 170 208 248 294
#     4   8  13  22  38  60  87 120 157 195 236 286
#     4  11  22  38  60  83 108 137 174 215 253 298
#     4  11  24  41  60  83 113 145 174 207 252 301
#     4   7  10  18  33  55  84 117 152 191 235 283
#
# _framework density 17.981225999999999
#
# number of rings (size 3 to 8) (size 9 to 14) (size 15 to 20)
#    0.000    2.600    0.000    5.400    0.000    3.200 
#    0.000    2.500    0.000    3.000    0.000    0.700 
#    0.000    0.000    0.000    0.000    0.000    0.000 
#
# Total GULP energy -222922.413766 kJ/mol
# GULP energy per Si atom -5573.060344 kJ/mol
# Density = 1.794030 g / cm^3
# Si number density = 17.981226 Si / 1000 Ang^3
#
#
#
# Elastic Constant Matrix: (Units=GPa)
#
#
# Indices 1 2 3 4 5 6 
#
# 1 40.0711 25.0639 76.7488 0.0000 0.0000 0.0000
# 2 25.0639 57.2616 54.4910 0.0000 0.0000 0.0000
# 3 76.7488 54.4910 235.9494 0.0000 0.0000 0.0000
# 4 0.0000 0.0000 0.0000 33.8480 0.0000 0.0000
# 5 0.0000 0.0000 0.0000 0.0000 222.9052 0.0000
# 6 0.0000 0.0000 0.0000 0.0000 0.0000 18.4120
#
#
#
# Elastic Compliance Matrix: (Units=1/GPa)
#
#
# Indices 1 2 3 4 5 6 
#
# 1 0.071938 -0.011817 -0.020671 0.000000 0.000000 0.000000
# 2 -0.011817 0.024324 -0.001774 0.000000 0.000000 0.000000
# 3 -0.020671 -0.001774 0.011371 0.000000 0.000000 0.000000
# 4 0.000000 0.000000 0.000000 0.029544 0.000000 0.000000
# 5 0.000000 0.000000 0.000000 0.000000 0.004486 0.000000
# 6 0.000000 0.000000 0.000000 0.000000 0.000000 0.054313
#
#
# Mechanical properties :
#
#
# Convention : Reuss Voigt Hill
#
# Bulk Modulus (GPa) = 25.56875 71.76549 48.66712
# Shear Modulus (GPa) = 18.01570 66.83160 42.42365
#
# Velocity S-wave (km/s) = 3.16874 6.10312 4.86256
# Velocity P-wave (km/s) = 5.25723 9.46901 7.65835
#
# Compressibility (1/GPa) = 0.03911024
#
# Stress axis : x y z
#
# Youngs Moduli (GPa) = 13.90089 41.11155 87.93977
#
# Poissons Ratio (x) = 0.48584 1.81776
# Poissons Ratio (y) = 0.16427 0.15596
# Poissons Ratio (z) = 0.28734 0.07291
#
# Static dielectric constant tensor:
#      x y z
#    x 1.598490 0.000000 0.000000 
#    y 0.000000 1.609260 0.000000 
#    z 0.000000 0.000000 1.650500 
# 
# From -- ./inp_files/75057.got.cif
#   From: 2010.05.17/outbox.cif.g08.bks.cpg/sg65_38_cif.got.tgz:75057.got - 2010.06.03 17:01:31.
