data_PCOD9489813
_publ_section_title
;
Structure prediction by ZEFSAII (Michael W. Deem and Ramdas Pophale) SiO2 
 PCOD9489813
Probable space group: C M M M
;
_chemical_formula_sum "Si O2"
_cell_formula_units_Z 120
_cell_length_a 30.030361
_cell_length_b 14.898395
_cell_length_c 14.094787
_cell_angle_alpha 90.000000
_cell_angle_beta 90.000000
_cell_angle_gamma 90.000000
_cell_volume 6306.066622
_symmetry_space_group_name_H-M "C M M M"
_symmetry_group_IT_number 65
_symmetry_cell_setting 'orthorhombic'
loop_
_space_group_symop_operation_xyz
x,y,z
-x,-y,z
x,-y,-z
-x,y,-z
-x,-y,-z
x,y,-z
-x,y,z
x,-y,z
1/2+x,1/2+y,z
1/2-x,1/2-y,z
1/2+x,1/2-y,-z
1/2-x,1/2+y,-z
1/2-x,1/2-y,-z
1/2+x,1/2+y,-z
1/2-x,1/2+y,z
1/2+x,1/2-y,z
loop_
_atom_site_type_symbol
_atom_site_label
_atom_site_fract_x
_atom_site_fract_y
_atom_site_fract_z
Si Si1 0.000000 0.897820 0.614438
Si Si2 0.410230 0.287081 0.386915
Si Si3 0.051380 0.216508 0.885593
Si Si4 0.448828 0.100234 0.384696
Si Si5 0.401863 0.900705 0.115422
Si Si6 0.803779 0.647420 0.888617
Si Si7 0.705985 0.363404 0.888641
Si Si8 0.378785 0.399548 0.230879
O O1 0.955959 0.840869 0.636683
O O2 0.000000 0.904448 0.500000
O O3 0.000000 0.000000 0.652203
O O4 0.402753 0.292940 0.500000
O O5 0.418115 0.183802 0.358939
O O6 0.374215 0.336703 0.323008
O O7 0.067178 0.317053 0.858565
O O8 0.084422 0.147025 0.836073
O O9 0.000000 0.201978 0.859759
O O10 0.055374 0.208619 0.000000
O O11 0.450536 0.101982 0.500000
O O12 0.500000 0.114183 0.352690
O O13 0.434385 0.000000 0.357318
O O14 0.351059 0.885401 0.150353
O O15 0.417797 0.000000 0.142342
O O16 0.400147 0.898611 0.000000
O O17 0.755787 0.614820 0.852480
O O18 0.801422 0.755500 0.884618
O O19 0.803901 0.622551 0.000000
O O20 0.666742 0.402818 0.827178
O O21 0.702665 0.388100 0.000000
O O22 0.392287 0.500000 0.258360
#
# Coordination Sequence:
#
# PCOD9489813 Si02
#       8
#     8  16  16  16  16  16  16  16
#     4   9  16  28  47  67  90 128 177 226 275 317
#     4  10  20  35  52  73 103 136 173 226 282 323
#     4  10  22  39  53  69 105 150 186 223 262 307
#     4   8  13  25  49  77  99 121 155 207 278 346
#     4   9  16  29  53  81 106 137 178 218 263 321
#     4   8  14  28  54  83 109 138 167 210 276 335
#     4   9  17  32  54  80 111 142 172 216 275 329
#     4  12  25  36  52  76 104 144 192 232 266 314
#
# _framework density 19.029295999999999
#
# number of rings (size 3 to 8) (size 9 to 14) (size 15 to 20)
#    0.000    2.600    2.000    2.000    0.933    2.933 
#    0.000    4.000    0.000    0.000    0.000    1.867 
#    0.000    0.000    0.000    0.000    0.000    0.000 
#
# Total GULP energy -334764.950582 kJ/mol
# GULP energy per Si atom -5579.415843 kJ/mol
# Density = 1.898598 g / cm^3
# Si number density = 19.029296 Si / 1000 Ang^3
#
#
#
# Elastic Constant Matrix: (Units=GPa)
#
#
# Indices 1 2 3 4 5 6 
#
# 1 67.5278 24.7735 21.9485 0.0000 0.0000 0.0000
# 2 24.7735 128.4273 18.2984 0.0000 0.0000 0.0000
# 3 21.9485 18.2984 68.0748 0.0000 0.0000 0.0000
# 4 0.0000 0.0000 0.0000 28.4150 0.0000 0.0000
# 5 0.0000 0.0000 0.0000 0.0000 11.3171 0.0000
# 6 0.0000 0.0000 0.0000 0.0000 0.0000 -3.8785
#
#
#
# Elastic Compliance Matrix: (Units=1/GPa)
#
#
# Indices 1 2 3 4 5 6 
#
# 1 0.017371 -0.002655 -0.004887 0.000000 0.000000 0.000000
# 2 -0.002655 0.008502 -0.001430 0.000000 0.000000 0.000000
# 3 -0.004887 -0.001430 0.016650 0.000000 0.000000 0.000000
# 4 0.000000 0.000000 0.000000 0.035193 0.000000 0.000000
# 5 0.000000 0.000000 0.000000 0.000000 0.088362 0.000000
# 6 0.000000 0.000000 0.000000 0.000000 0.000000 -0.257835
#
#
# Mechanical properties :
#
#
# Convention : Reuss Voigt Hill
#
# Bulk Modulus (GPa) = 40.68263 43.78561 42.23412
# Shear Modulus (GPa) = -76.19515 20.43802 -27.87857
#
# Velocity S-wave (km/s) = -6.33466 3.28079 -3.83173
# Velocity P-wave (km/s) = 5.66379 6.11645 1.63287
#
# Compressibility (1/GPa) = 0.02458051
#
# Stress axis : x y z
#
# Youngs Moduli (GPa) = 57.56704 117.61606 60.06115
#
# Poissons Ratio (x) = 0.31222 0.29353
# Poissons Ratio (y) = 0.15281 0.08586
# Poissons Ratio (z) = 0.28134 0.16813
#
# Static dielectric constant tensor:
#      x y z
#    x 1.660670 0.000000 0.000000 
#    y 0.000000 1.698000 0.000000 
#    z 0.000000 0.000000 1.692790 
# 
# From -- ./inp_files/48108.got.cif
#   From: 2010.05.17/outbox.cif.g08.bks.cpg/sg65_25_cif.got.tgz:48108.got - 2010.06.03 17:01:31.
