data_PCOD9489472
_publ_section_title
;
Structure prediction by ZEFSAII (Michael W. Deem and Ramdas Pophale) SiO2 
 PCOD9489472
Probable space group: C M M M
;
_chemical_formula_sum "Si O2"
_cell_formula_units_Z 104
_cell_length_a 20.884079
_cell_length_b 25.124378
_cell_length_c 10.172483
_cell_angle_alpha 90.000000
_cell_angle_beta 90.000000
_cell_angle_gamma 90.000000
_cell_volume 5337.496693
_symmetry_space_group_name_H-M "C M M M"
_symmetry_group_IT_number 65
_symmetry_cell_setting 'orthorhombic'
loop_
_space_group_symop_operation_xyz
x,y,z
-x,-y,z
x,-y,-z
-x,y,-z
-x,-y,-z
x,y,-z
-x,y,z
x,-y,z
1/2+x,1/2+y,z
1/2-x,1/2-y,z
1/2+x,1/2-y,-z
1/2-x,1/2+y,-z
1/2-x,1/2-y,-z
1/2+x,1/2+y,-z
1/2-x,1/2+y,z
1/2+x,1/2-y,z
loop_
_atom_site_type_symbol
_atom_site_label
_atom_site_fract_x
_atom_site_fract_y
_atom_site_fract_z
Si Si1 0.255201 0.605420 0.852486
Si Si2 0.073091 0.772336 0.659375
Si Si3 0.000000 0.934845 0.351557
Si Si4 0.076232 0.649315 0.647464
Si Si5 0.120110 0.559640 0.847957
Si Si6 0.786995 0.194002 0.344777
Si Si7 0.602766 0.436310 0.144672
O O1 0.197028 0.564500 0.843815
O O2 0.251607 0.650178 0.741958
O O3 0.323241 0.576946 0.838698
O O4 0.252410 0.629247 0.000000
O O5 0.071190 0.775350 0.500000
O O6 0.087114 0.710213 0.690926
O O7 0.138180 0.802431 0.700160
O O8 0.000000 0.786025 0.704672
O O9 0.939188 0.917149 0.266632
O O10 0.000000 0.914453 0.500000
O O11 0.000000 0.000000 0.358243
O O12 0.104268 0.642184 0.500000
O O13 0.097091 0.605249 0.750612
O O14 0.000000 0.644856 0.635807
O O15 0.099633 0.500000 0.810725
O O16 0.100420 0.569031 0.000000
O O17 0.786382 0.180916 0.500000
O O18 0.750000 0.250000 0.329993
O O19 0.594540 0.500000 0.141850
O O20 0.582032 0.416151 0.000000
#
# Coordination Sequence:
#
# PCOD9489472 Si02
#       7
#    16  16   8  16  16  16  16
#     4  10  21  36  53  75 102 134 174 220 264 306
#     4   8  15  31  54  77 103 136 173 212 259 317
#     4   9  17  29  47  73 101 127 161 207 253 295
#     4   9  18  34  57  82 106 136 175 216 257 307
#     4  10  21  36  53  75 106 143 179 215 259 313
#     4  10  20  34  54  78 103 134 174 217 262 319
#     4   9  17  32  53  72  95 133 175 209 250 308
#
# _framework density 19.48479
#
# number of rings (size 3 to 8) (size 9 to 14) (size 15 to 20)
#    0.000    2.692    0.000    2.538    0.000    6.462 
#    1.385    2.308    0.000    3.692    0.000    0.000 
#    0.000    0.000    0.000    0.000    0.000    0.000 
#
# Total GULP energy -289937.671826 kJ/mol
# GULP energy per Si atom -5575.724458 kJ/mol
# Density = 1.944044 g / cm^3
# Si number density = 19.484790 Si / 1000 Ang^3
#
#
#
# Elastic Constant Matrix: (Units=GPa)
#
#
# Indices 1 2 3 4 5 6 
#
# 1 29.4411 2.7931 4.9312 0.0000 0.0000 0.0000
# 2 2.7931 42.3630 19.0122 0.0000 0.0000 0.0000
# 3 4.9312 19.0122 66.3472 0.0000 0.0000 0.0000
# 4 0.0000 0.0000 0.0000 19.4616 0.0000 0.0000
# 5 0.0000 0.0000 0.0000 0.0000 25.9554 0.0000
# 6 0.0000 0.0000 0.0000 0.0000 0.0000 24.9215
#
#
#
# Elastic Compliance Matrix: (Units=1/GPa)
#
#
# Indices 1 2 3 4 5 6 
#
# 1 0.034455 -0.001288 -0.002192 0.000000 0.000000 0.000000
# 2 -0.001288 0.027137 -0.007681 0.000000 0.000000 0.000000
# 3 -0.002192 -0.007681 0.017436 0.000000 0.000000 0.000000
# 4 0.000000 0.000000 0.000000 0.051383 0.000000 0.000000
# 5 0.000000 0.000000 0.000000 0.000000 0.038528 0.000000
# 6 0.000000 0.000000 0.000000 0.000000 0.000000 0.040126
#
#
# Mechanical properties :
#
#
# Convention : Reuss Voigt Hill
#
# Bulk Modulus (GPa) = 17.63423 21.29160 19.46292
# Shear Modulus (GPa) = 19.97689 21.49538 20.73614
#
# Velocity S-wave (km/s) = 3.20544 3.32503 3.26578
# Velocity P-wave (km/s) = 4.77176 5.06874 4.92249
#
# Compressibility (1/GPa) = 0.05670788
#
# Stress axis : x y z
#
# Youngs Moduli (GPa) = 29.02301 36.84947 57.35241
#
# Poissons Ratio (x) = 0.04747 0.12570
# Poissons Ratio (y) = 0.03739 0.44050
# Poissons Ratio (z) = 0.06361 0.28303
#
# Static dielectric constant tensor:
#      x y z
#    x 1.717010 0.000000 0.000000 
#    y 0.000000 1.680750 0.000000 
#    z 0.000000 0.000000 1.707970 
# 
# From -- ./inp_files/12390.got.cif
#   From: 2010.05.17/outbox.cif.g08.bks.cpg/sg65_7_cif.got.tgz:12390.got - 2010.06.03 17:01:31.
