data_PCOD9489848
_publ_section_title
;
Structure prediction by ZEFSAII (Michael W. Deem and Ramdas Pophale) SiO2 
 PCOD9489848
Probable space group: C M M M
;
_chemical_formula_sum "Si O2"
_cell_formula_units_Z 88
_cell_length_a 9.417054
_cell_length_b 28.556124
_cell_length_c 17.822896
_cell_angle_alpha 90.000000
_cell_angle_beta 90.000000
_cell_angle_gamma 90.000000
_cell_volume 4792.836267
_symmetry_space_group_name_H-M "C M M M"
_symmetry_group_IT_number 65
_symmetry_cell_setting 'orthorhombic'
loop_
_space_group_symop_operation_xyz
x,y,z
-x,-y,z
x,-y,-z
-x,y,-z
-x,-y,-z
x,y,-z
-x,y,z
x,-y,z
1/2+x,1/2+y,z
1/2-x,1/2-y,z
1/2+x,1/2-y,-z
1/2-x,1/2+y,-z
1/2-x,1/2-y,-z
1/2+x,1/2+y,-z
1/2-x,1/2+y,z
1/2+x,1/2-y,z
loop_
_atom_site_type_symbol
_atom_site_label
_atom_site_fract_x
_atom_site_fract_y
_atom_site_fract_z
Si Si1 0.664318 0.384375 0.610329
Si Si2 0.331368 0.053195 0.500000
Si Si3 0.168231 0.443396 0.912767
Si Si4 0.336548 0.797507 0.000000
Si Si5 0.668637 0.299734 0.500000
Si Si6 0.165984 0.115679 0.213343
Si Si7 0.168322 0.299254 0.837172
O O1 0.500000 0.391968 0.588061
O O2 0.768888 0.419828 0.570521
O O3 0.698822 0.332917 0.573555
O O4 0.671041 0.395538 0.698507
O O5 0.500000 0.054746 0.500000
O O6 0.282841 0.000000 0.500000
O O7 0.181825 0.500000 0.906818
O O8 0.258725 0.418728 0.846873
O O9 0.000000 0.431785 0.903597
O O10 0.206674 0.431069 0.000000
O O11 0.250000 0.750000 0.000000
O O12 0.311797 0.821243 0.920992
O O13 0.500000 0.783138 0.000000
O O14 0.500000 0.290026 0.500000
O O15 0.750000 0.250000 0.500000
O O16 0.251614 0.164328 0.213474
O O17 0.000000 0.121597 0.192181
O O18 0.250000 0.250000 0.835017
O O19 0.000000 0.293922 0.823502
#
# Coordination Sequence:
#
# PCOD9489848 Si02
#       7
#    16   8  16   8   8  16  16
#     4   9  21  40  57  80 118 155 189 226 273 341
#     4  10  21  37  61  91 116 140 178 228 280 337
#     4   9  20  40  62  82 109 149 195 242 296 355
#     4   8  16  30  48  68  93 130 177 226 272 321
#     4   9  18  36  60  82 107 146 188 226 269 324
#     4  11  23  37  56  85 117 152 193 238 287 341
#     4  10  20  35  53  76 108 148 191 236 284 336
#
# _framework density 18.360735999999999
#
# number of rings (size 3 to 8) (size 9 to 14) (size 15 to 20)
#    0.000    2.455    0.000    2.455    1.273    6.545 
#    0.000    6.364    0.000    0.000    0.000    0.000 
#    0.000    0.000    0.000    0.000    0.000    0.000 
#
# Total GULP energy -244945.175247 kJ/mol
# GULP energy per Si atom -5566.935801 kJ/mol
# Density = 1.831895 g / cm^3
# Si number density = 18.360736 Si / 1000 Ang^3
#
#
#
# Elastic Constant Matrix: (Units=GPa)
#
#
# Indices 1 2 3 4 5 6 
#
# 1 80.8652 53.4527 52.0220 0.0000 0.0000 0.0000
# 2 53.4527 97.1022 36.6112 0.0000 0.0000 0.0000
# 3 52.0220 36.6112 99.0909 0.0000 0.0000 0.0000
# 4 0.0000 0.0000 0.0000 6.5011 0.0000 0.0000
# 5 0.0000 0.0000 0.0000 0.0000 35.5522 0.0000
# 6 0.0000 0.0000 0.0000 0.0000 0.0000 31.4614
#
#
#
# Elastic Compliance Matrix: (Units=1/GPa)
#
#
# Indices 1 2 3 4 5 6 
#
# 1 0.025295 -0.010361 -0.009452 0.000000 0.000000 0.000000
# 2 -0.010361 0.016209 -0.000549 0.000000 0.000000 0.000000
# 3 -0.009452 -0.000549 0.015257 0.000000 0.000000 0.000000
# 4 0.000000 0.000000 0.000000 0.153821 0.000000 0.000000
# 5 0.000000 0.000000 0.000000 0.000000 0.028128 0.000000
# 6 0.000000 0.000000 0.000000 0.000000 0.000000 0.031785
#
#
# Mechanical properties :
#
#
# Convention : Reuss Voigt Hill
#
# Bulk Modulus (GPa) = 62.35551 62.35891 62.35721
# Shear Modulus (GPa) = 15.79456 23.70111 19.74784
#
# Velocity S-wave (km/s) = 2.93616 3.59675 3.28311
# Velocity P-wave (km/s) = 6.74758 7.16141 6.95757
#
# Compressibility (1/GPa) = 0.01603708
#
# Stress axis : x y z
#
# Youngs Moduli (GPa) = 39.53282 61.69412 65.54421
#
# Poissons Ratio (x) = 0.63921 0.61952
# Poissons Ratio (y) = 0.40959 0.03601
# Poissons Ratio (z) = 0.37366 0.03389
#
# Static dielectric constant tensor:
#      x y z
#    x 1.599110 0.000000 0.000000 
#    y 0.000000 1.623020 0.000000 
#    z 0.000000 0.000000 1.723460 
# 
# From -- ./inp_files/50486.got.cif
#   From: 2010.05.17/outbox.cif.g08.bks.cpg/sg65_26_cif.got.tgz:50486.got - 2010.06.03 17:01:31.
