data_PCOD9489227
_publ_section_title
;
Structure prediction by ZEFSAII (Michael W. Deem and Ramdas Pophale) SiO2 
 PCOD9489227
Probable space group: C M M M
;
_chemical_formula_sum "Si O2"
_cell_formula_units_Z 72
_cell_length_a 9.115126
_cell_length_b 17.842650
_cell_length_c 24.051428
_cell_angle_alpha 90.000000
_cell_angle_beta 90.000000
_cell_angle_gamma 90.000000
_cell_volume 3911.676217
_symmetry_space_group_name_H-M "C M M M"
_symmetry_group_IT_number 65
_symmetry_cell_setting 'orthorhombic'
loop_
_space_group_symop_operation_xyz
x,y,z
-x,-y,z
x,-y,-z
-x,y,-z
-x,-y,-z
x,y,-z
-x,y,z
x,-y,z
1/2+x,1/2+y,z
1/2-x,1/2-y,z
1/2+x,1/2-y,-z
1/2-x,1/2+y,-z
1/2-x,1/2-y,-z
1/2+x,1/2+y,-z
1/2-x,1/2+y,z
1/2+x,1/2-y,z
loop_
_atom_site_type_symbol
_atom_site_label
_atom_site_fract_x
_atom_site_fract_y
_atom_site_fract_z
Si Si1 0.669184 0.590522 0.266956
Si Si2 0.325713 0.169416 0.165079
Si Si3 0.828562 0.089999 0.935994
Si Si4 0.321258 0.913139 0.500000
Si Si5 0.170672 0.408422 0.378983
O O1 0.500000 0.613624 0.260102
O O2 0.674456 0.500000 0.265297
O O3 0.766371 0.622406 0.217368
O O4 0.732308 0.614936 0.326765
O O5 0.500000 0.175754 0.166861
O O6 0.250000 0.250000 0.167409
O O7 0.273101 0.129371 0.108640
O O8 0.000000 0.108513 0.924974
O O9 0.815121 0.000000 0.931435
O O10 0.795949 0.110580 0.000000
O O11 0.500000 0.913991 0.500000
O O12 0.278051 0.880859 0.560026
O O13 0.272369 0.000000 0.500000
O O14 0.173802 0.500000 0.381136
O O15 0.000000 0.387609 0.370590
#
# Coordination Sequence:
#
# PCOD9489227 Si02
#       5
#    16  16  16   8  16
#     4  10  20  34  52  75 105 139 175 217 264 313
#     4  12  25  39  56  78 106 140 178 220 264 310
#     4   9  19  38  63  88 114 143 173 208 253 304
#     4   7  10  18  35  61  94 129 164 207 256 303
#     4   8  13  23  41  66  96 131 171 212 256 306
#
# _framework density 18.406433
#
# number of rings (size 3 to 8) (size 9 to 14) (size 15 to 20)
#    0.000    2.556    0.000    5.333    0.000    5.333 
#    0.000    1.667    0.000    3.333    0.000    0.778 
#    0.000    0.000    0.000    0.000    0.000    0.000 
#
# Total GULP energy -200777.680816 kJ/mol
# GULP energy per Si atom -5577.157800 kJ/mol
# Density = 1.836454 g / cm^3
# Si number density = 18.406433 Si / 1000 Ang^3
#
#
#
# Elastic Constant Matrix: (Units=GPa)
#
#
# Indices 1 2 3 4 5 6 
#
# 1 134.9115 33.0077 97.2751 0.0000 0.0000 0.0000
# 2 33.0077 17.4014 35.3930 0.0000 0.0000 0.0000
# 3 97.2751 35.3930 153.8752 0.0000 0.0000 0.0000
# 4 0.0000 0.0000 0.0000 -13.3064 0.0000 0.0000
# 5 0.0000 0.0000 0.0000 0.0000 28.1080 0.0000
# 6 0.0000 0.0000 0.0000 0.0000 0.0000 17.7917
#
#
#
# Elastic Compliance Matrix: (Units=1/GPa)
#
#
# Indices 1 2 3 4 5 6 
#
# 1 0.016338 -0.018760 -0.006013 0.000000 0.000000 0.000000
# 2 -0.018760 0.129525 -0.017933 0.000000 0.000000 0.000000
# 3 -0.006013 -0.017933 0.014425 0.000000 0.000000 0.000000
# 4 0.000000 0.000000 0.000000 -0.075152 0.000000 0.000000
# 5 0.000000 0.000000 0.000000 0.000000 0.035577 0.000000
# 6 0.000000 0.000000 0.000000 0.000000 0.000000 0.056206
#
#
# Mechanical properties :
#
#
# Convention : Reuss Voigt Hill
#
# Bulk Modulus (GPa) = 13.35541 70.83774 42.09657
# Shear Modulus (GPa) = 17.40402 15.88613 16.64508
#
# Velocity S-wave (km/s) = 3.07830 2.94100 3.01043
# Velocity P-wave (km/s) = 4.46163 7.07824 5.91640
#
# Compressibility (1/GPa) = 0.07487604
#
# Stress axis : x y z
#
# Youngs Moduli (GPa) = 61.20759 7.72051 69.32414
#
# Poissons Ratio (x) = 0.14483 0.41687
# Poissons Ratio (y) = 1.14824 1.24318
# Poissons Ratio (z) = 0.36806 0.13845
#
# Static dielectric constant tensor:
#      x y z
#    x 1.612530 0.000000 0.000000 
#    y 0.000000 1.628890 0.000000 
#    z 0.000000 0.000000 1.651940 
# 
# From -- ./inp_files/67009.got.cif
#   From: 2010.05.17/outbox.cif.g08.bks.cpg/sg65_34_cif.got.tgz:67009.got - 2010.06.03 17:01:31.
