data_PCOD9489896
_publ_section_title
;
Structure prediction by ZEFSAII (Michael W. Deem and Ramdas Pophale) SiO2 
 PCOD9489896
Probable space group: C M M M
;
_chemical_formula_sum "Si O2"
_cell_formula_units_Z 104
_cell_length_a 20.063687
_cell_length_b 7.967188
_cell_length_c 36.055930
_cell_angle_alpha 90.000000
_cell_angle_beta 90.000000
_cell_angle_gamma 90.000000
_cell_volume 5763.582463
_symmetry_space_group_name_H-M "C M M M"
_symmetry_group_IT_number 65
_symmetry_cell_setting 'orthorhombic'
loop_
_space_group_symop_operation_xyz
x,y,z
-x,-y,z
x,-y,-z
-x,y,-z
-x,-y,-z
x,y,-z
-x,y,z
x,-y,z
1/2+x,1/2+y,z
1/2-x,1/2-y,z
1/2+x,1/2-y,-z
1/2-x,1/2+y,-z
1/2-x,1/2-y,-z
1/2+x,1/2+y,-z
1/2-x,1/2+y,z
1/2+x,1/2-y,z
loop_
_atom_site_type_symbol
_atom_site_label
_atom_site_fract_x
_atom_site_fract_y
_atom_site_fract_z
Si Si1 0.326235 0.297327 0.958157
Si Si2 0.674444 0.700073 0.252185
Si Si3 0.825735 0.798533 0.335611
Si Si4 0.920205 0.801295 0.403259
Si Si5 0.075518 0.300538 0.187244
Si Si6 0.575879 0.701165 0.105672
Si Si7 0.580735 0.000000 0.457799
O O1 0.330141 0.500000 0.958545
O O2 0.250000 0.250000 0.950115
O O3 0.376082 0.233489 0.926571
O O4 0.342295 0.237981 0.000000
O O5 0.671354 0.500000 0.253746
O O6 0.750000 0.750000 0.242618
O O7 0.660552 0.766901 0.293915
O O8 0.622832 0.757150 0.221272
O O9 0.750000 0.750000 0.345548
O O10 0.879032 0.749692 0.366666
O O11 0.828338 0.000000 0.333879
O O12 0.901180 0.669567 0.435460
O O13 0.000000 0.787438 0.397075
O O14 0.906781 0.000000 0.411464
O O15 0.071855 0.500000 0.184703
O O16 0.100328 0.237013 0.147304
O O17 0.000000 0.233493 0.192678
O O18 0.500000 0.766882 0.102721
O O19 0.572819 0.500000 0.101640
O O20 0.500000 0.000000 0.459285
O O21 0.605792 0.000000 0.500000
#
# Coordination Sequence:
#
# PCOD9489896 Si02
#       7
#    16  16  16  16  16  16   8
#     4   9  18  32  50  73  99 125 156 198 246 297
#     4  10  20  35  54  76 104 134 172 215 256 308
#     4   9  19  33  52  77 102 136 172 209 259 311
#     4   9  18  33  52  78 108 137 176 221 264 315
#     4  10  21  36  52  73 102 135 171 211 256 303
#     4   9  18  33  52  72  95 127 166 203 245 299
#     4   9  18  32  52  80 108 138 177 219 269 319
#
# _framework density 18.044332000000001
#
# number of rings (size 3 to 8) (size 9 to 14) (size 15 to 20)
#    0.000    2.692    0.000    0.923    1.077    4.000 
#    0.000    6.154    0.000    0.462    0.000    4.308 
#    0.000    0.000    0.000    0.000    0.000    0.000 
#
# Total GULP energy -289830.278007 kJ/mol
# GULP energy per Si atom -5573.659192 kJ/mol
# Density = 1.800326 g / cm^3
# Si number density = 18.044332 Si / 1000 Ang^3
#
#
#
# Elastic Constant Matrix: (Units=GPa)
#
#
# Indices 1 2 3 4 5 6 
#
# 1 73.1049 22.7496 95.2614 0.0000 0.0000 0.0000
# 2 22.7496 41.0942 37.4308 0.0000 0.0000 0.0000
# 3 95.2614 37.4308 165.1538 0.0000 0.0000 0.0000
# 4 0.0000 0.0000 0.0000 17.1220 0.0000 0.0000
# 5 0.0000 0.0000 0.0000 0.0000 134.5506 0.0000
# 6 0.0000 0.0000 0.0000 0.0000 0.0000 21.1885
#
#
#
# Elastic Compliance Matrix: (Units=1/GPa)
#
#
# Indices 1 2 3 4 5 6 
#
# 1 0.055198 -0.001962 -0.031394 0.000000 0.000000 0.000000
# 2 -0.001962 0.030734 -0.005834 0.000000 0.000000 0.000000
# 3 -0.031394 -0.005834 0.025485 0.000000 0.000000 0.000000
# 4 0.000000 0.000000 0.000000 0.058404 0.000000 0.000000
# 5 0.000000 0.000000 0.000000 0.000000 0.007432 0.000000
# 6 0.000000 0.000000 0.000000 0.000000 0.000000 0.047195
#
#
# Mechanical properties :
#
#
# Convention : Reuss Voigt Hill
#
# Bulk Modulus (GPa) = 30.26820 65.58182 47.92501
# Shear Modulus (GPa) = 15.93159 42.83298 29.38228
#
# Velocity S-wave (km/s) = 2.97461 4.87741 4.03965
# Velocity P-wave (km/s) = 5.34869 8.25485 6.95525
#
# Compressibility (1/GPa) = 0.03303797
#
# Stress axis : x y z
#
# Youngs Moduli (GPa) = 18.11658 32.53674 39.23847
#
# Poissons Ratio (x) = 0.06385 1.23184
# Poissons Ratio (y) = 0.03555 0.22891
# Poissons Ratio (z) = 0.56875 0.18982
#
# Static dielectric constant tensor:
#      x y z
#    x 1.597360 0.000000 0.000000 
#    y 0.000000 1.637260 0.000000 
#    z 0.000000 0.000000 1.625280 
# 
# From -- ./inp_files/78179.got.cif
#   From: 2010.05.17/outbox.cif.g08.bks.cpg/sg65_40_cif.got.tgz:78179.got - 2010.06.03 17:01:31.
