data_PCOD9489045
_publ_section_title
;
Structure prediction by ZEFSAII (Michael W. Deem and Ramdas Pophale) SiO2 
 PCOD9489045
Probable space group: C M M M
;
_chemical_formula_sum "Si O2"
_cell_formula_units_Z 80
_cell_length_a 18.682092
_cell_length_b 16.959214
_cell_length_c 17.280271
_cell_angle_alpha 90.000000
_cell_angle_beta 90.000000
_cell_angle_gamma 90.000000
_cell_volume 5474.970404
_symmetry_space_group_name_H-M "C M M M"
_symmetry_group_IT_number 65
_symmetry_cell_setting 'orthorhombic'
loop_
_space_group_symop_operation_xyz
x,y,z
-x,-y,z
x,-y,-z
-x,y,-z
-x,-y,-z
x,y,-z
-x,y,z
x,-y,z
1/2+x,1/2+y,z
1/2-x,1/2-y,z
1/2+x,1/2-y,-z
1/2-x,1/2+y,-z
1/2-x,1/2-y,-z
1/2+x,1/2+y,-z
1/2-x,1/2+y,z
1/2+x,1/2-y,z
loop_
_atom_site_type_symbol
_atom_site_label
_atom_site_fract_x
_atom_site_fract_y
_atom_site_fract_z
Si Si1 0.583077 0.698790 0.408978
Si Si2 0.649360 0.150828 0.326536
Si Si3 0.085306 0.404245 0.828830
Si Si4 0.215701 0.093523 0.590497
Si Si5 0.085173 0.500000 0.412263
Si Si6 0.913311 0.590720 0.000000
O O1 0.587239 0.721962 0.500000
O O2 0.500000 0.683754 0.391050
O O3 0.614633 0.769531 0.358277
O O4 0.634940 0.624004 0.399093
O O5 0.632213 0.136927 0.236742
O O6 0.731251 0.141435 0.353720
O O7 0.611312 0.077519 0.369330
O O8 0.093521 0.500000 0.824564
O O9 0.000000 0.389276 0.816253
O O10 0.105989 0.376684 0.915657
O O11 0.234906 0.108752 0.500000
O O12 0.222446 0.000000 0.604380
O O13 0.112470 0.500000 0.500000
O O14 0.000000 0.500000 0.413272
O O15 0.888462 0.500000 0.000000
O O16 0.000000 0.588646 0.000000
#
# Coordination Sequence:
#
# PCOD9489045 Si02
#       6
#    16  16  16  16   8   8
#     4  10  21  34  47  64  87 117 154 193 227 259
#     4  12  19  28  44  66  93 117 146 181 222 271
#     4   9  15  24  38  59  88 121 153 181 211 259
#     4  10  20  34  49  64  85 117 155 191 227 264
#     4  11  20  26  36  57  90 126 150 171 203 252
#     4   7  12  22  36  54  81 118 154 182 209 247
#
# _framework density 14.611950999999999
#
# number of rings (size 3 to 8) (size 9 to 14) (size 15 to 20)
#    0.000    2.000    2.000    5.400    0.000    3.600 
#    0.000    2.000    0.000    0.000    0.000    2.800 
#    0.000    0.000    0.000    0.000    0.000   19.600 
#
# Total GULP energy -222955.293939 kJ/mol
# GULP energy per Si atom -5573.882348 kJ/mol
# Density = 1.457869 g / cm^3
# Si number density = 14.611951 Si / 1000 Ang^3
#
#
#
# Elastic Constant Matrix: (Units=GPa)
#
#
# Indices 1 2 3 4 5 6 
#
# 1 91.3905 21.4456 42.7878 0.0000 0.0000 0.0000
# 2 21.4456 21.7993 19.9482 0.0000 0.0000 0.0000
# 3 42.7878 19.9482 107.8753 0.0000 0.0000 0.0000
# 4 0.0000 0.0000 0.0000 5.9723 0.0000 0.0000
# 5 0.0000 0.0000 0.0000 0.0000 18.0531 0.0000
# 6 0.0000 0.0000 0.0000 0.0000 0.0000 5.8388
#
#
#
# Elastic Compliance Matrix: (Units=1/GPa)
#
#
# Indices 1 2 3 4 5 6 
#
# 1 0.015551 -0.011620 -0.004019 0.000000 0.000000 0.000000
# 2 -0.011620 0.063900 -0.007207 0.000000 0.000000 0.000000
# 3 -0.004019 -0.007207 0.012197 0.000000 0.000000 0.000000
# 4 0.000000 0.000000 0.000000 0.167439 0.000000 0.000000
# 5 0.000000 0.000000 0.000000 0.000000 0.055392 0.000000
# 6 0.000000 0.000000 0.000000 0.000000 0.000000 0.171269
#
#
# Mechanical properties :
#
#
# Convention : Reuss Voigt Hill
#
# Bulk Modulus (GPa) = 21.76089 43.26980 32.51535
# Shear Modulus (GPa) = 9.14480 15.09841 12.12160
#
# Velocity S-wave (km/s) = 2.50440 3.21797 2.88335
# Velocity P-wave (km/s) = 4.82572 6.59424 5.77804
#
# Compressibility (1/GPa) = 0.04595401
#
# Stress axis : x y z
#
# Youngs Moduli (GPa) = 64.30613 15.64944 81.98813
#
# Poissons Ratio (x) = 0.18185 0.32953
# Poissons Ratio (y) = 0.74726 0.59090
# Poissons Ratio (z) = 0.25846 0.11279
#
# Static dielectric constant tensor:
#      x y z
#    x 1.499690 0.000000 0.000000 
#    y 0.000000 1.462820 0.000000 
#    z 0.000000 0.000000 1.501630 
# 
# From -- ./inp_files/54430.got.cif
#   From: 2010.05.17/outbox.cif.g08.bks.cpg/sg65_28_cif.got.tgz:54430.got - 2010.06.03 17:01:31.
