data_PCOD9489584
_publ_section_title
;
Structure prediction by ZEFSAII (Michael W. Deem and Ramdas Pophale) SiO2 
 PCOD9489584
Probable space group: C M M M
;
_chemical_formula_sum "Si O2"
_cell_formula_units_Z 104
_cell_length_a 27.094406
_cell_length_b 7.786639
_cell_length_c 23.147948
_cell_angle_alpha 90.000000
_cell_angle_beta 90.000000
_cell_angle_gamma 90.000000
_cell_volume 4883.623479
_symmetry_space_group_name_H-M "C M M M"
_symmetry_group_IT_number 65
_symmetry_cell_setting 'orthorhombic'
loop_
_space_group_symop_operation_xyz
x,y,z
-x,-y,z
x,-y,-z
-x,y,-z
-x,-y,-z
x,y,-z
-x,y,z
x,-y,z
1/2+x,1/2+y,z
1/2-x,1/2-y,z
1/2+x,1/2-y,-z
1/2-x,1/2+y,-z
1/2-x,1/2-y,-z
1/2+x,1/2+y,-z
1/2-x,1/2+y,z
1/2+x,1/2-y,z
loop_
_atom_site_type_symbol
_atom_site_label
_atom_site_fract_x
_atom_site_fract_y
_atom_site_fract_z
Si Si1 0.444948 0.791569 0.881964
Si Si2 0.694704 0.293287 0.433373
Si Si3 0.904822 0.302179 0.759853
Si Si4 0.597337 0.701798 0.629713
Si Si5 0.157472 0.796375 0.063036
Si Si6 0.000000 0.789275 0.433167
Si Si7 0.804620 0.205633 0.815438
O O1 0.500000 0.739314 0.899514
O O2 0.433558 0.732349 0.816156
O O3 0.400267 0.729566 0.921841
O O4 0.442839 0.000000 0.881818
O O5 0.689189 0.231787 0.500000
O O6 0.692470 0.500000 0.434867
O O7 0.750000 0.250000 0.413124
O O8 0.649732 0.228336 0.393586
O O9 0.919483 0.500000 0.753575
O O10 0.910631 0.217706 0.698002
O O11 0.847524 0.287443 0.777523
O O12 0.598658 0.500000 0.615702
O O13 0.549688 0.774505 0.597329
O O14 0.186988 0.729480 0.118662
O O15 0.166774 0.000000 0.060816
O O16 0.169205 0.722428 0.000000
O O17 0.000000 0.743979 0.500000
O O18 0.000000 0.000000 0.429410
O O19 0.750000 0.250000 0.795956
O O20 0.811740 0.000000 0.814323
#
# Coordination Sequence:
#
# PCOD9489584 Si02
#       7
#    16  16  16  16  16   8  16
#     4   9  19  35  53  73 100 137 177 218 265 315
#     4   9  18  33  53  76 103 135 171 213 261 313
#     4  10  21  36  54  76 105 140 178 220 267 316
#     4  10  20  34  54  81 109 139 179 226 272 326
#     4   9  19  35  53  77 108 138 172 216 264 317
#     4   9  18  34  57  83 111 145 184 227 278 335
#     4  10  20  36  57  79 107 141 178 219 266 319
#
# _framework density 21.295663999999999
#
# number of rings (size 3 to 8) (size 9 to 14) (size 15 to 20)
#    0.000    2.538    0.000    1.385    1.077    5.538 
#    0.000    3.077    0.000    1.846    0.000    0.000 
#    0.000    0.000    0.000    0.000    0.000    0.000 
#
# Total GULP energy -290226.466090 kJ/mol
# GULP energy per Si atom -5581.278194 kJ/mol
# Density = 2.124719 g / cm^3
# Si number density = 21.295664 Si / 1000 Ang^3
#
#
#
# Elastic Constant Matrix: (Units=GPa)
#
#
# Indices 1 2 3 4 5 6 
#
# 1 49.1224 -2.5805 8.4027 0.0000 0.0000 0.0000
# 2 -2.5805 29.6740 -1.7567 0.0000 0.0000 0.0000
# 3 8.4027 -1.7567 78.5869 0.0000 0.0000 0.0000
# 4 0.0000 0.0000 0.0000 -0.4819 0.0000 0.0000
# 5 0.0000 0.0000 0.0000 0.0000 -2.3144 0.0000
# 6 0.0000 0.0000 0.0000 0.0000 0.0000 16.9546
#
#
#
# Elastic Compliance Matrix: (Units=1/GPa)
#
#
# Indices 1 2 3 4 5 6 
#
# 1 0.020820 0.001681 -0.002189 0.000000 0.000000 0.000000
# 2 0.001681 0.033880 0.000578 0.000000 0.000000 0.000000
# 3 -0.002189 0.000578 0.012972 0.000000 0.000000 0.000000
# 4 0.000000 0.000000 0.000000 -2.074963 0.000000 0.000000
# 5 0.000000 0.000000 0.000000 0.000000 -0.432081 0.000000
# 6 0.000000 0.000000 0.000000 0.000000 0.000000 0.058981
#
#
# Mechanical properties :
#
#
# Convention : Reuss Voigt Hill
#
# Bulk Modulus (GPa) = 14.74672 18.39046 16.56859
# Shear Modulus (GPa) = -2.12051 13.05285 5.46617
#
# Velocity S-wave (km/s) = -0.99895 2.47844 1.60386
# Velocity P-wave (km/s) = 2.36838 4.10423 3.35067
#
# Compressibility (1/GPa) = 0.06781170
#
# Stress axis : x y z
#
# Youngs Moduli (GPa) = 48.03083 29.51601 77.09103
#
# Poissons Ratio (x) = -0.04962 0.16872
# Poissons Ratio (y) = -0.08074 -0.04453
# Poissons Ratio (z) = 0.10512 -0.01705
#
# Static dielectric constant tensor:
#      x y z
#    x 1.758980 0.000000 0.000000 
#    y 0.000000 1.796980 0.000000 
#    z 0.000000 0.000000 1.757810 
# 
# From -- ./inp_files/60382.got.cif
#   From: 2010.05.17/outbox.cif.g08.bks.cpg/sg65_31_cif.got.tgz:60382.got - 2010.06.03 17:01:31.
