data_PCOD9489093
_publ_section_title
;
Structure prediction by ZEFSAII (Michael W. Deem and Ramdas Pophale) SiO2 
 PCOD9489093
Probable space group: C M M M
;
_chemical_formula_sum "Si O2"
_cell_formula_units_Z 104
_cell_length_a 24.515643
_cell_length_b 28.990810
_cell_length_c 9.067442
_cell_angle_alpha 90.000000
_cell_angle_beta 90.000000
_cell_angle_gamma 90.000000
_cell_volume 6444.488075
_symmetry_space_group_name_H-M "C M M M"
_symmetry_group_IT_number 65
_symmetry_cell_setting 'orthorhombic'
loop_
_space_group_symop_operation_xyz
x,y,z
-x,-y,z
x,-y,-z
-x,y,-z
-x,-y,-z
x,y,-z
-x,y,z
x,-y,z
1/2+x,1/2+y,z
1/2-x,1/2-y,z
1/2+x,1/2-y,-z
1/2-x,1/2+y,-z
1/2-x,1/2-y,-z
1/2+x,1/2+y,-z
1/2-x,1/2+y,z
1/2+x,1/2-y,z
loop_
_atom_site_type_symbol
_atom_site_label
_atom_site_fract_x
_atom_site_fract_y
_atom_site_fract_z
Si Si1 0.849625 0.446535 0.822909
Si Si2 0.934657 0.000000 0.326203
Si Si3 0.566276 0.774583 0.330218
Si Si4 0.063236 0.630560 0.822612
Si Si5 0.234004 0.055099 0.674240
Si Si6 0.563829 0.319737 0.176560
Si Si7 0.625445 0.413906 0.822825
O O1 0.863232 0.500000 0.789509
O O2 0.897732 0.411657 0.780877
O O3 0.793331 0.434861 0.741392
O O4 0.841499 0.443292 0.000000
O O5 0.909600 0.954978 0.249227
O O6 0.920184 0.000000 0.500000
O O7 0.000000 0.000000 0.312675
O O8 0.583243 0.775760 0.500000
O O9 0.500000 0.774116 0.324921
O O10 0.582606 0.821305 0.247340
O O11 0.583636 0.727124 0.253200
O O12 0.000000 0.622520 0.779031
O O13 0.064235 0.634903 0.000000
O O14 0.232419 0.064687 0.500000
O O15 0.186150 0.081236 0.759239
O O16 0.224508 0.000000 0.694390
O O17 0.500000 0.327309 0.215975
O O18 0.598327 0.364874 0.215125
O O19 0.566093 0.313508 0.000000
O O20 0.625489 0.418916 0.000000
#
# Coordination Sequence:
#
# PCOD9489093 Si02
#       7
#    16   8  16  16  16  16  16
#     4   9  18  32  51  75 102 132 168 205 241 289
#     4  11  23  35  47  69 103 137 166 203 254 305
#     4   9  17  29  47  71  98 130 166 201 239 291
#     4   9  17  30  50  76 105 135 163 197 244 293
#     4  10  20  34  51  70  96 130 170 210 250 296
#     4   9  18  32  49  71  98 127 162 204 250 298
#     4  11  21  33  52  73  96 129 169 212 253 298
#
# _framework density 16.137822
#
# number of rings (size 3 to 8) (size 9 to 14) (size 15 to 20)
#    0.000    2.385    0.769    2.077    0.000    5.846 
#    0.000    3.077    0.000    0.923    0.000   10.769 
#    0.000    0.000    0.000    0.000    0.000    0.000 
#
# Total GULP energy -290018.053639 kJ/mol
# GULP energy per Si atom -5577.270262 kJ/mol
# Density = 1.610109 g / cm^3
# Si number density = 16.137822 Si / 1000 Ang^3
#
#
#
# Elastic Constant Matrix: (Units=GPa)
#
#
# Indices 1 2 3 4 5 6 
#
# 1 93.7527 85.8888 51.3588 0.0000 0.0000 0.0000
# 2 85.8888 148.2789 65.9602 0.0000 0.0000 0.0000
# 3 51.3588 65.9602 56.9334 0.0000 0.0000 0.0000
# 4 0.0000 0.0000 0.0000 12.5253 0.0000 0.0000
# 5 0.0000 0.0000 0.0000 0.0000 19.5183 0.0000
# 6 0.0000 0.0000 0.0000 0.0000 0.0000 7.0180
#
#
#
# Elastic Compliance Matrix: (Units=1/GPa)
#
#
# Indices 1 2 3 4 5 6 
#
# 1 0.026502 -0.009731 -0.012633 0.000000 0.000000 0.000000
# 2 -0.009731 0.017489 -0.011484 0.000000 0.000000 0.000000
# 3 -0.012633 -0.011484 0.042264 0.000000 0.000000 0.000000
# 4 0.000000 0.000000 0.000000 0.079838 0.000000 0.000000
# 5 0.000000 0.000000 0.000000 0.000000 0.051234 0.000000
# 6 0.000000 0.000000 0.000000 0.000000 0.000000 0.142491
#
#
# Mechanical properties :
#
#
# Convention : Reuss Voigt Hill
#
# Bulk Modulus (GPa) = 53.87861 78.37563 66.12712
# Shear Modulus (GPa) = 11.52872 14.19614 12.86243
#
# Velocity S-wave (km/s) = 2.67571 2.96916 2.82625
# Velocity P-wave (km/s) = 6.55781 7.77344 7.19136
#
# Compressibility (1/GPa) = 0.01856024
#
# Stress axis : x y z
#
# Youngs Moduli (GPa) = 37.73340 57.17838 23.66067
#
# Poissons Ratio (x) = 0.55642 0.29889
# Poissons Ratio (y) = 0.36720 0.27171
# Poissons Ratio (z) = 0.47667 0.65661
#
# Static dielectric constant tensor:
#      x y z
#    x 1.523740 0.000000 0.000000 
#    y 0.000000 1.522300 0.000000 
#    z 0.000000 0.000000 1.537120 
# 
# From -- ./inp_files/14806.got.cif
#   From: 2010.05.17/outbox.cif.g08.bks.cpg/sg65_8_cif.got.tgz:14806.got - 2010.06.03 17:01:31.
