data_PCOD9489415
_publ_section_title
;
Structure prediction by ZEFSAII (Michael W. Deem and Ramdas Pophale) SiO2 
 PCOD9489415
Probable space group: C M M M
;
_chemical_formula_sum "Si O2"
_cell_formula_units_Z 104
_cell_length_a 33.396846
_cell_length_b 8.788347
_cell_length_c 21.128427
_cell_angle_alpha 90.000000
_cell_angle_beta 90.000000
_cell_angle_gamma 90.000000
_cell_volume 6201.258217
_symmetry_space_group_name_H-M "C M M M"
_symmetry_group_IT_number 65
_symmetry_cell_setting 'orthorhombic'
loop_
_space_group_symop_operation_xyz
x,y,z
-x,-y,z
x,-y,-z
-x,y,-z
-x,-y,-z
x,y,-z
-x,y,z
x,-y,z
1/2+x,1/2+y,z
1/2-x,1/2-y,z
1/2+x,1/2-y,-z
1/2-x,1/2+y,-z
1/2-x,1/2-y,-z
1/2+x,1/2+y,-z
1/2-x,1/2+y,z
1/2+x,1/2-y,z
loop_
_atom_site_type_symbol
_atom_site_label
_atom_site_fract_x
_atom_site_fract_y
_atom_site_fract_z
Si Si1 0.371859 0.680707 0.175615
Si Si2 0.338167 0.182842 0.370007
Si Si3 0.584507 0.682204 0.691588
Si Si4 0.575295 0.820009 0.926048
Si Si5 0.000000 0.179838 0.855361
Si Si6 0.207173 0.818333 0.749832
Si Si7 0.705302 0.816569 0.500000
Si Si8 0.000000 0.681394 0.285072
O O1 0.376103 0.500000 0.163563
O O2 0.399404 0.716773 0.237081
O O3 0.386587 0.774229 0.115750
O O4 0.326688 0.712016 0.197584
O O5 0.381919 0.251224 0.355274
O O6 0.309246 0.244364 0.314750
O O7 0.319256 0.227819 0.437219
O O8 0.340287 0.000000 0.366745
O O9 0.583082 0.500000 0.685802
O O10 0.540644 0.752731 0.684695
O O11 0.538611 0.728600 0.895375
O O12 0.567243 0.000000 0.920230
O O13 0.579863 0.783823 0.000000
O O14 0.000000 0.264413 0.788096
O O15 0.000000 0.000000 0.843215
O O16 0.250000 0.750000 0.765922
O O17 0.209533 0.000000 0.741198
O O18 0.750000 0.750000 0.500000
O O19 0.708603 0.000000 0.500000
O O20 0.000000 0.500000 0.288005
#
# Coordination Sequence:
#
# PCOD9489415 Si02
#       8
#    16  16  16  16   8  16   8   8
#     4   9  19  34  52  73 101 134 170 213 264 318
#     4  10  20  35  54  79 111 146 181 217 262 314
#     4  10  20  35  54  79 108 139 177 222 266 313
#     4  11  23  36  51  74 104 137 176 219 263 317
#     4  12  23  35  52  75 105 141 177 216 261 315
#     4  10  20  34  53  79 107 134 171 218 266 318
#     4  10  22  36  54  81 114 149 184 220 261 314
#     4  12  22  33  55  81 107 141 177 220 268 312
#
# _framework density 16.770790000000002
#
# number of rings (size 3 to 8) (size 9 to 14) (size 15 to 20)
#    0.000    1.692    1.538    4.846    0.000    7.692 
#    0.000    0.000    0.000    0.923    0.000    3.231 
#    0.000    0.000    0.000    0.000    0.000    0.000 
#
# Total GULP energy -290428.702003 kJ/mol
# GULP energy per Si atom -5585.167346 kJ/mol
# Density = 1.673262 g / cm^3
# Si number density = 16.770790 Si / 1000 Ang^3
#
#
#
# Elastic Constant Matrix: (Units=GPa)
#
#
# Indices 1 2 3 4 5 6 
#
# 1 145.4951 53.5422 48.5359 0.0000 0.0000 0.0000
# 2 53.5422 68.3789 36.0082 0.0000 0.0000 0.0000
# 3 48.5359 36.0082 80.8318 0.0000 0.0000 0.0000
# 4 0.0000 0.0000 0.0000 18.1482 0.0000 0.0000
# 5 0.0000 0.0000 0.0000 0.0000 17.0701 0.0000
# 6 0.0000 0.0000 0.0000 0.0000 0.0000 34.5052
#
#
#
# Elastic Compliance Matrix: (Units=1/GPa)
#
#
# Indices 1 2 3 4 5 6 
#
# 1 0.010322 -0.006295 -0.003393 0.000000 0.000000 0.000000
# 2 -0.006295 0.022946 -0.006442 0.000000 0.000000 0.000000
# 3 -0.003393 -0.006442 0.017279 0.000000 0.000000 0.000000
# 4 0.000000 0.000000 0.000000 0.055102 0.000000 0.000000
# 5 0.000000 0.000000 0.000000 0.000000 0.058582 0.000000
# 6 0.000000 0.000000 0.000000 0.000000 0.000000 0.028981
#
#
# Mechanical properties :
#
#
# Convention : Reuss Voigt Hill
#
# Bulk Modulus (GPa) = 54.68815 63.43094 59.05954
# Shear Modulus (GPa) = 21.59203 24.38600 22.98902
#
# Velocity S-wave (km/s) = 3.59204 3.81737 3.70642
# Velocity P-wave (km/s) = 7.06283 7.57193 7.32181
#
# Compressibility (1/GPa) = 0.01828550
#
# Stress axis : x y z
#
# Youngs Moduli (GPa) = 96.88304 43.58087 57.87519
#
# Poissons Ratio (x) = 0.27435 0.19640
# Poissons Ratio (y) = 0.60989 0.37282
# Poissons Ratio (z) = 0.32877 0.28074
#
# Static dielectric constant tensor:
#      x y z
#    x 1.567710 0.000000 0.000000 
#    y 0.000000 1.560910 0.000000 
#    z 0.000000 0.000000 1.543300 
# 
# From -- ./inp_files/66452.got.cif
#   From: 2010.05.17/outbox.cif.g08.bks.cpg/sg65_34_cif.got.tgz:66452.got - 2010.06.03 17:01:31.
