data_PCOD9489378
_publ_section_title
;
Structure prediction by ZEFSAII (Michael W. Deem and Ramdas Pophale) SiO2 
 PCOD9489378
Probable space group: C M M M
;
_chemical_formula_sum "Si O2"
_cell_formula_units_Z 120
_cell_length_a 8.865100
_cell_length_b 28.812292
_cell_length_c 27.276510
_cell_angle_alpha 90.000000
_cell_angle_beta 90.000000
_cell_angle_gamma 90.000000
_cell_volume 6967.071194
_symmetry_space_group_name_H-M "C M M M"
_symmetry_group_IT_number 65
_symmetry_cell_setting 'orthorhombic'
loop_
_space_group_symop_operation_xyz
x,y,z
-x,-y,z
x,-y,-z
-x,y,-z
-x,-y,-z
x,y,-z
-x,y,z
x,-y,z
1/2+x,1/2+y,z
1/2-x,1/2-y,z
1/2+x,1/2-y,-z
1/2-x,1/2+y,-z
1/2-x,1/2-y,-z
1/2+x,1/2+y,-z
1/2-x,1/2+y,z
1/2+x,1/2-y,z
loop_
_atom_site_type_symbol
_atom_site_label
_atom_site_fract_x
_atom_site_fract_y
_atom_site_fract_z
Si Si1 0.318969 0.893043 0.093125
Si Si2 0.666303 0.446612 0.441637
Si Si3 0.322068 0.444601 0.000000
Si Si4 0.180271 0.946178 0.297226
Si Si5 0.325832 0.879578 0.622401
Si Si6 0.679272 0.299618 0.058258
Si Si7 0.180880 0.198526 0.443766
Si Si8 0.178788 0.445849 0.808427
O O1 0.500000 0.893383 0.089638
O O2 0.252130 0.922851 0.048359
O O3 0.256396 0.841354 0.086965
O O4 0.275510 0.915069 0.145270
O O5 0.668026 0.445582 0.500000
O O6 0.500000 0.428016 0.425880
O O7 0.673257 0.500000 0.425895
O O8 0.801023 0.417600 0.420082
O O9 0.304054 0.500000 0.000000
O O10 0.500000 0.433222 0.000000
O O11 0.250479 0.906568 0.331883
O O12 0.231222 0.937201 0.241439
O O13 0.000000 0.945021 0.301526
O O14 0.228929 0.000000 0.308765
O O15 0.500000 0.869877 0.632380
O O16 0.245986 0.834623 0.598645
O O17 0.500000 0.299267 0.065815
O O18 0.750000 0.250000 0.070966
O O19 0.706900 0.307375 0.000000
O O20 0.216629 0.181817 0.500000
O O21 0.500000 0.299561 0.440159
O O22 0.250000 0.250000 0.439434
O O23 0.199165 0.500000 0.821694
O O24 0.000000 0.438719 0.799012
#
# Coordination Sequence:
#
# PCOD9489378 Si02
#       8
#    16  16   8  16  16  16  16  16
#     4  11  21  34  55  80 109 144 181 221 272 330
#     4   9  18  32  48  68  99 138 175 211 255 308
#     4  11  23  35  48  73 110 147 183 223 265 315
#     4  10  21  37  57  80 106 140 183 228 274 324
#     4  12  23  33  51  78 107 139 176 219 266 316
#     4  10  20  34  53  77 108 142 180 223 266 313
#     4  10  21  38  59  82 110 143 180 223 270 323
#     4   9  19  36  56  79 108 142 180 222 269 324
#
# _framework density 17.223880999999999
#
# number of rings (size 3 to 8) (size 9 to 14) (size 15 to 20)
#    0.000    1.800    0.667    4.600    0.000    8.000 
#    0.000    2.000    0.000    0.800    0.000    1.867 
#    0.000    0.000    0.000    0.000    0.000    0.000 
#
# Total GULP energy -334899.173786 kJ/mol
# GULP energy per Si atom -5581.652896 kJ/mol
# Density = 1.718468 g / cm^3
# Si number density = 17.223881 Si / 1000 Ang^3
#
#
#
# Elastic Constant Matrix: (Units=GPa)
#
#
# Indices 1 2 3 4 5 6 
#
# 1 80.0904 56.3863 55.1067 0.0000 0.0000 0.0000
# 2 56.3863 105.7569 72.7018 0.0000 0.0000 0.0000
# 3 55.1067 72.7018 121.0195 0.0000 0.0000 0.0000
# 4 0.0000 0.0000 0.0000 33.2518 0.0000 0.0000
# 5 0.0000 0.0000 0.0000 0.0000 25.1464 0.0000
# 6 0.0000 0.0000 0.0000 0.0000 0.0000 30.9689
#
#
#
# Elastic Compliance Matrix: (Units=1/GPa)
#
#
# Indices 1 2 3 4 5 6 
#
# 1 0.021614 -0.008105 -0.004973 0.000000 0.000000 0.000000
# 2 -0.008105 0.019147 -0.007812 0.000000 0.000000 0.000000
# 3 -0.004973 -0.007812 0.015220 0.000000 0.000000 0.000000
# 4 0.000000 0.000000 0.000000 0.030074 0.000000 0.000000
# 5 0.000000 0.000000 0.000000 0.000000 0.039767 0.000000
# 6 0.000000 0.000000 0.000000 0.000000 0.000000 0.032290
#
#
# Mechanical properties :
#
#
# Convention : Reuss Voigt Hill
#
# Bulk Modulus (GPa) = 70.41384 75.02848 72.72116
# Shear Modulus (GPa) = 24.43475 26.05156 25.24315
#
# Velocity S-wave (km/s) = 3.77059 3.89334 3.83246
# Velocity P-wave (km/s) = 7.74124 7.99163 7.86743
#
# Compressibility (1/GPa) = 0.01420175
#
# Stress axis : x y z
#
# Youngs Moduli (GPa) = 46.26664 52.22635 65.70135
#
# Poissons Ratio (x) = 0.42332 0.32671
# Poissons Ratio (y) = 0.37501 0.51325
# Poissons Ratio (z) = 0.23007 0.40799
#
# Static dielectric constant tensor:
#      x y z
#    x 1.591390 0.000000 0.000000 
#    y 0.000000 1.579990 0.000000 
#    z 0.000000 0.000000 1.576430 
# 
# From -- ./inp_files/73883.got.cif
#   From: 2010.05.17/outbox.cif.g08.bks.cpg/sg65_37_cif.got.tgz:73883.got - 2010.06.03 17:01:31.
