data_PCOD9489439
_publ_section_title
;
Structure prediction by ZEFSAII (Michael W. Deem and Ramdas Pophale) SiO2 
 PCOD9489439
Probable space group: C M M M
;
_chemical_formula_sum "Si O2"
_cell_formula_units_Z 96
_cell_length_a 15.133213
_cell_length_b 21.493260
_cell_length_c 15.827586
_cell_angle_alpha 90.000000
_cell_angle_beta 90.000000
_cell_angle_gamma 90.000000
_cell_volume 5148.113570
_symmetry_space_group_name_H-M "C M M M"
_symmetry_group_IT_number 65
_symmetry_cell_setting 'orthorhombic'
loop_
_space_group_symop_operation_xyz
x,y,z
-x,-y,z
x,-y,-z
-x,y,-z
-x,-y,-z
x,y,-z
-x,y,z
x,-y,z
1/2+x,1/2+y,z
1/2-x,1/2-y,z
1/2+x,1/2-y,-z
1/2-x,1/2+y,-z
1/2-x,1/2-y,-z
1/2+x,1/2+y,-z
1/2-x,1/2+y,z
1/2+x,1/2-y,z
loop_
_atom_site_type_symbol
_atom_site_label
_atom_site_fract_x
_atom_site_fract_y
_atom_site_fract_z
Si Si1 0.737217 0.072134 0.402747
Si Si2 0.902559 0.840717 0.598817
Si Si3 0.101679 0.603055 0.255606
Si Si4 0.357018 0.752218 0.739759
Si Si5 0.283949 0.930180 0.096409
Si Si6 0.326263 0.303859 0.906993
O O1 0.711221 0.087153 0.500000
O O2 0.821707 0.113918 0.379755
O O3 0.659815 0.082492 0.335719
O O4 0.763028 0.000000 0.400639
O O5 0.894076 0.824309 0.500000
O O6 0.894979 0.780978 0.657812
O O7 0.000000 0.869433 0.610443
O O8 0.111444 0.677615 0.251347
O O9 0.143750 0.576902 0.169395
O O10 0.000000 0.585097 0.264419
O O11 0.250000 0.750000 0.731692
O O12 0.381065 0.714362 0.824643
O O13 0.217816 0.871655 0.105986
O O14 0.244498 0.000000 0.104097
O O15 0.319230 0.925056 0.000000
O O16 0.250000 0.250000 0.909548
O O17 0.368962 0.302980 0.000000
#
# Coordination Sequence:
#
# PCOD9489439 Si02
#       6
#    16  16  16  16  16  16
#     4  10  22  40  60  82 110 147 191 234 280 343
#     4  10  21  37  59  86 113 141 179 236 300 350
#     4  12  24  37  55  82 116 155 195 234 281 337
#     4  11  19  35  58  82 110 149 189 234 285 342
#     4  10  20  34  53  81 115 150 192 240 286 337
#     4   9  16  31  57  81 107 149 194 236 287 341
#
# _framework density 18.647606
#
# number of rings (size 3 to 8) (size 9 to 14) (size 15 to 20)
#    0.000    1.667    5.000    1.000    0.000    3.333 
#    0.000    3.333    0.000    1.500    0.000    0.000 
#    0.000    0.000    0.000   33.333    0.000    0.500 
#
# Total GULP energy -267716.039024 kJ/mol
# GULP energy per Si atom -5577.417480 kJ/mol
# Density = 1.860516 g / cm^3
# Si number density = 18.647606 Si / 1000 Ang^3
#
#
#
# Elastic Constant Matrix: (Units=GPa)
#
#
# Indices 1 2 3 4 5 6 
#
# 1 39.3867 7.9846 26.7534 0.0000 0.0000 0.0000
# 2 7.9846 116.6778 32.6559 0.0000 0.0000 0.0000
# 3 26.7534 32.6559 74.7557 0.0000 0.0000 0.0000
# 4 0.0000 0.0000 0.0000 29.1013 0.0000 0.0000
# 5 0.0000 0.0000 0.0000 0.0000 10.1976 0.0000
# 6 0.0000 0.0000 0.0000 0.0000 0.0000 -8.1044
#
#
#
# Elastic Compliance Matrix: (Units=1/GPa)
#
#
# Indices 1 2 3 4 5 6 
#
# 1 0.033695 0.001218 -0.012591 0.000000 0.000000 0.000000
# 2 0.001218 0.009808 -0.004721 0.000000 0.000000 0.000000
# 3 -0.012591 -0.004721 0.019945 0.000000 0.000000 0.000000
# 4 0.000000 0.000000 0.000000 0.034363 0.000000 0.000000
# 5 0.000000 0.000000 0.000000 0.000000 0.098062 0.000000
# 6 0.000000 0.000000 0.000000 0.000000 0.000000 -0.123389
#
#
# Mechanical properties :
#
#
# Convention : Reuss Voigt Hill
#
# Bulk Modulus (GPa) = 31.98812 40.62311 36.30561
# Shear Modulus (GPa) = 43.44416 17.13399 30.28908
#
# Velocity S-wave (km/s) = 4.83198 3.03451 4.03462
# Velocity P-wave (km/s) = 6.95140 5.84034 6.41995
#
# Compressibility (1/GPa) = 0.03126161
#
# Stress axis : x y z
#
# Youngs Moduli (GPa) = 29.67843 101.95289 50.13809
#
# Poissons Ratio (x) = -0.12419 0.63127
# Poissons Ratio (y) = -0.03615 0.23668
# Poissons Ratio (z) = 0.37367 0.48128
#
# Static dielectric constant tensor:
#      x y z
#    x 1.639270 0.000000 0.000000 
#    y 0.000000 1.643680 0.000000 
#    z 0.000000 0.000000 1.668140 
# 
# From -- ./inp_files/40331.got.cif
#   From: 2010.05.17/outbox.cif.g08.bks.cpg/sg65_21_cif.got.tgz:40331.got - 2010.06.03 17:01:31.
