data_PCOD9489423
_publ_section_title
;
Structure prediction by ZEFSAII (Michael W. Deem and Ramdas Pophale) SiO2 
 PCOD9489423
Probable space group: C M M M
;
_chemical_formula_sum "Si O2"
_cell_formula_units_Z 88
_cell_length_a 18.179596
_cell_length_b 8.033899
_cell_length_c 30.265237
_cell_angle_alpha 90.000000
_cell_angle_beta 90.000000
_cell_angle_gamma 90.000000
_cell_volume 4420.329813
_symmetry_space_group_name_H-M "C M M M"
_symmetry_group_IT_number 65
_symmetry_cell_setting 'orthorhombic'
loop_
_space_group_symop_operation_xyz
x,y,z
-x,-y,z
x,-y,-z
-x,y,-z
-x,-y,-z
x,y,-z
-x,y,z
x,-y,z
1/2+x,1/2+y,z
1/2-x,1/2-y,z
1/2+x,1/2-y,-z
1/2-x,1/2+y,-z
1/2-x,1/2-y,-z
1/2+x,1/2+y,-z
1/2-x,1/2+y,z
1/2+x,1/2-y,z
loop_
_atom_site_type_symbol
_atom_site_label
_atom_site_fract_x
_atom_site_fract_y
_atom_site_fract_z
Si Si1 0.087298 0.200124 0.952239
Si Si2 0.334463 0.307868 0.400193
Si Si3 0.414202 0.000000 0.552877
Si Si4 0.414573 0.197043 0.856700
Si Si5 0.914895 0.305888 0.684534
Si Si6 0.834124 0.807163 0.769851
O O1 0.115736 0.269808 0.906011
O O2 0.000000 0.241656 0.952745
O O3 0.093084 0.000000 0.950762
O O4 0.117714 0.256897 0.000000
O O5 0.340369 0.500000 0.415669
O O6 0.250000 0.250000 0.399187
O O7 0.367928 0.294968 0.350994
O O8 0.377319 0.168522 0.428529
O O9 0.500000 0.000000 0.565703
O O10 0.408325 0.000000 0.500000
O O11 0.500000 0.255806 0.855083
O O12 0.368140 0.280308 0.818210
O O13 0.414514 0.000000 0.848969
O O14 0.911255 0.500000 0.671448
O O15 0.881414 0.288224 0.733195
O O16 0.000000 0.253517 0.684327
O O17 0.750000 0.750000 0.769135
O O18 0.837662 0.000000 0.758068
#
# Coordination Sequence:
#
# PCOD9489423 Si02
#       6
#    16  16   8  16  16  16
#     4   8  14  26  46  73 104 139 180 229 284 343
#     4  12  24  44  71 104 140 184 231 282 340 404
#     4  11  26  48  72 104 145 185 233 291 345 401
#     4  10  20  34  53  79 112 146 186 236 292 354
#     4  11  23  41  66  95 131 168 209 262 319 381
#     4  12  25  40  58  82 114 155 201 249 303 368
#
# _framework density 19.908016
#
# number of rings (size 3 to 8) (size 9 to 14) (size 15 to 20)
#    0.000    1.364    1.818    4.909    0.000    6.909 
#    0.000    2.727    0.000    0.545    0.000    0.000 
#    0.000    0.000    0.000    0.000    0.000    0.000 
#
# Total GULP energy -245828.281896 kJ/mol
# GULP energy per Si atom -5587.006407 kJ/mol
# Density = 1.986270 g / cm^3
# Si number density = 19.908016 Si / 1000 Ang^3
#
#
#
# Elastic Constant Matrix: (Units=GPa)
#
#
# Indices 1 2 3 4 5 6 
#
# 1 117.3966 43.1510 48.3572 0.0000 0.0000 0.0000
# 2 43.1510 100.4688 33.5305 0.0000 0.0000 0.0000
# 3 48.3572 33.5305 99.9716 0.0000 0.0000 0.0000
# 4 0.0000 0.0000 0.0000 16.8729 0.0000 0.0000
# 5 0.0000 0.0000 0.0000 0.0000 -22.5253 0.0000
# 6 0.0000 0.0000 0.0000 0.0000 0.0000 23.4181
#
#
#
# Elastic Compliance Matrix: (Units=1/GPa)
#
#
# Indices 1 2 3 4 5 6 
#
# 1 0.011645 -0.003515 -0.004454 0.000000 0.000000 0.000000
# 2 -0.003515 0.012269 -0.002415 0.000000 0.000000 0.000000
# 3 -0.004454 -0.002415 0.012967 0.000000 0.000000 0.000000
# 4 0.000000 0.000000 0.000000 0.059267 0.000000 0.000000
# 5 0.000000 0.000000 0.000000 0.000000 -0.044395 0.000000
# 6 0.000000 0.000000 0.000000 0.000000 0.000000 0.042702
#
#
# Mechanical properties :
#
#
# Convention : Reuss Voigt Hill
#
# Bulk Modulus (GPa) = 62.05887 63.10160 62.58023
# Shear Modulus (GPa) = 41.46188 16.40638 28.93413
#
# Velocity S-wave (km/s) = 4.56858 2.87384 3.81647
# Velocity P-wave (km/s) = 7.68568 6.54044 7.13607
#
# Compressibility (1/GPa) = 0.01611373
#
# Stress axis : x y z
#
# Youngs Moduli (GPa) = 85.87634 81.50682 77.11856
#
# Poissons Ratio (x) = 0.28649 0.34346
# Poissons Ratio (y) = 0.30185 0.18622
# Poissons Ratio (z) = 0.38247 0.19682
#
# Static dielectric constant tensor:
#      x y z
#    x 1.647830 0.000000 0.000000 
#    y 0.000000 1.707710 0.000000 
#    z 0.000000 0.000000 1.704030 
# 
# From -- ./inp_files/77848.got.cif
#   From: 2010.05.17/outbox.cif.g08.bks.cpg/sg65_39_cif.got.tgz:77848.got - 2010.06.03 17:01:31.
