data_PCOD9489402
_publ_section_title
;
Structure prediction by ZEFSAII (Michael W. Deem and Ramdas Pophale) SiO2 
 PCOD9489402
Probable space group: C M M M
;
_chemical_formula_sum "Si O2"
_cell_formula_units_Z 104
_cell_length_a 28.209454
_cell_length_b 8.786697
_cell_length_c 23.767224
_cell_angle_alpha 90.000000
_cell_angle_beta 90.000000
_cell_angle_gamma 90.000000
_cell_volume 5891.132492
_symmetry_space_group_name_H-M "C M M M"
_symmetry_group_IT_number 65
_symmetry_cell_setting 'orthorhombic'
loop_
_space_group_symop_operation_xyz
x,y,z
-x,-y,z
x,-y,-z
-x,y,-z
-x,-y,-z
x,y,-z
-x,y,z
x,-y,z
1/2+x,1/2+y,z
1/2-x,1/2-y,z
1/2+x,1/2-y,-z
1/2-x,1/2+y,-z
1/2-x,1/2-y,-z
1/2+x,1/2+y,-z
1/2-x,1/2+y,z
1/2+x,1/2-y,z
loop_
_atom_site_type_symbol
_atom_site_label
_atom_site_fract_x
_atom_site_fract_y
_atom_site_fract_z
Si Si1 0.802298 0.683492 0.818779
Si Si2 0.642005 0.322406 0.714151
Si Si3 0.944285 0.818107 0.000000
Si Si4 0.553861 0.674464 0.205985
Si Si5 0.869725 0.682865 0.591438
Si Si6 0.446359 0.815287 0.500000
Si Si7 0.698489 0.318706 0.500000
Si Si8 0.107387 0.678591 0.107570
O O1 0.800664 0.500000 0.817187
O O2 0.750000 0.750000 0.829283
O O3 0.822371 0.745011 0.759017
O O4 0.841453 0.728430 0.866501
O O5 0.655089 0.500000 0.707521
O O6 0.590554 0.314365 0.743400
O O7 0.636657 0.242413 0.654321
O O8 0.914716 0.762033 0.945967
O O9 0.000000 0.764720 0.000000
O O10 0.945907 0.000000 0.000000
O O11 0.500000 0.701435 0.222965
O O12 0.557314 0.500000 0.183678
O O13 0.570909 0.788557 0.158140
O O14 0.867209 0.500000 0.590762
O O15 0.917138 0.728156 0.556262
O O16 0.828461 0.754438 0.554106
O O17 0.500000 0.758065 0.500000
O O18 0.447628 0.000000 0.500000
O O19 0.698464 0.500000 0.500000
O O20 0.750000 0.250000 0.500000
O O21 0.110698 0.500000 0.095215
#
# Coordination Sequence:
#
# PCOD9489402 Si02
#       8
#    16  16   8  16  16   8   8  16
#     4  10  21  38  59  82 108 140 179 222 271 323
#     4  10  20  34  53  78 108 141 177 218 264 313
#     4  11  23  37  56  83 114 149 186 221 262 315
#     4   9  18  33  52  75 107 145 180 215 260 314
#     4  10  20  35  54  78 108 138 174 219 263 312
#     4   8  16  32  53  75 102 140 180 218 264 315
#     4  11  22  38  58  78 101 130 166 208 261 318
#     4  10  21  36  55  81 111 141 179 226 269 314
#
# _framework density 17.653652000000001
#
# number of rings (size 3 to 8) (size 9 to 14) (size 15 to 20)
#    0.000    2.154    0.000    3.692    0.000    6.462 
#    0.000    3.462    0.000    7.846    0.000    0.000 
#    0.000    0.000    0.000    0.000    0.000    0.000 
#
# Total GULP energy -289993.229635 kJ/mol
# GULP energy per Si atom -5576.792878 kJ/mol
# Density = 1.761347 g / cm^3
# Si number density = 17.653652 Si / 1000 Ang^3
#
#
#
# Elastic Constant Matrix: (Units=GPa)
#
#
# Indices 1 2 3 4 5 6 
#
# 1 151.3142 50.6112 62.8659 0.0000 0.0000 0.0000
# 2 50.6112 81.4054 55.4593 0.0000 0.0000 0.0000
# 3 62.8659 55.4593 129.1491 0.0000 0.0000 0.0000
# 4 0.0000 0.0000 0.0000 40.9262 0.0000 0.0000
# 5 0.0000 0.0000 0.0000 0.0000 5.4249 0.0000
# 6 0.0000 0.0000 0.0000 0.0000 0.0000 25.3822
#
#
#
# Elastic Compliance Matrix: (Units=1/GPa)
#
#
# Indices 1 2 3 4 5 6 
#
# 1 0.009007 -0.003693 -0.002798 0.000000 0.000000 0.000000
# 2 -0.003693 0.018879 -0.006309 0.000000 0.000000 0.000000
# 3 -0.002798 -0.006309 0.011814 0.000000 0.000000 0.000000
# 4 0.000000 0.000000 0.000000 0.024434 0.000000 0.000000
# 5 0.000000 0.000000 0.000000 0.000000 0.184335 0.000000
# 6 0.000000 0.000000 0.000000 0.000000 0.000000 0.039398
#
#
# Mechanical properties :
#
#
# Convention : Reuss Voigt Hill
#
# Bulk Modulus (GPa) = 70.92980 77.74907 74.33943
# Shear Modulus (GPa) = 15.71503 27.20881 21.46192
#
# Velocity S-wave (km/s) = 2.98683 3.93014 3.49050
# Velocity P-wave (km/s) = 7.22223 8.04560 7.64501
#
# Compressibility (1/GPa) = 0.01409845
#
# Stress axis : x y z
#
# Youngs Moduli (GPa) = 111.02927 52.97018 84.64311
#
# Poissons Ratio (x) = 0.19563 0.23685
# Poissons Ratio (y) = 0.41006 0.53402
# Poissons Ratio (z) = 0.31068 0.33419
#
# Static dielectric constant tensor:
#      x y z
#    x 1.592070 0.000000 0.000000 
#    y 0.000000 1.606670 0.000000 
#    z 0.000000 0.000000 1.527450 
# 
# From -- ./inp_files/65975.got.cif
#   From: 2010.05.17/outbox.cif.g08.bks.cpg/sg65_33_cif.got.tgz:65975.got - 2010.06.03 17:01:31.
