data_PCOD9489654
_publ_section_title
;
Structure prediction by ZEFSAII (Michael W. Deem and Ramdas Pophale) SiO2 
 PCOD9489654
Probable space group: C M M M
;
_chemical_formula_sum "Si O2"
_cell_formula_units_Z 96
_cell_length_a 26.263725
_cell_length_b 17.450048
_cell_length_c 12.120587
_cell_angle_alpha 90.000000
_cell_angle_beta 90.000000
_cell_angle_gamma 90.000000
_cell_volume 5554.904558
_symmetry_space_group_name_H-M "C M M M"
_symmetry_group_IT_number 65
_symmetry_cell_setting 'orthorhombic'
loop_
_space_group_symop_operation_xyz
x,y,z
-x,-y,z
x,-y,-z
-x,y,-z
-x,-y,-z
x,y,-z
-x,y,z
x,-y,z
1/2+x,1/2+y,z
1/2-x,1/2-y,z
1/2+x,1/2-y,-z
1/2-x,1/2+y,-z
1/2-x,1/2-y,-z
1/2+x,1/2+y,-z
1/2-x,1/2+y,z
1/2+x,1/2-y,z
loop_
_atom_site_type_symbol
_atom_site_label
_atom_site_fract_x
_atom_site_fract_y
_atom_site_fract_z
Si Si1 0.159099 0.825854 0.129920
Si Si2 0.599303 0.906806 0.500000
Si Si3 0.557266 0.092692 0.737468
Si Si4 0.217136 0.406724 0.500000
Si Si5 0.752166 0.909746 0.261042
Si Si6 0.654368 0.143024 0.871290
Si Si7 0.943066 0.089142 0.133820
O O1 0.204085 0.863717 0.198939
O O2 0.161175 0.734427 0.138271
O O3 0.104246 0.858469 0.167697
O O4 0.165478 0.845996 0.000000
O O5 0.572064 0.882917 0.387050
O O6 0.658158 0.881767 0.500000
O O7 0.599057 0.000000 0.500000
O O8 0.500000 0.117667 0.764769
O O9 0.599903 0.121619 0.820900
O O10 0.558386 0.000000 0.739086
O O11 0.216039 0.500000 0.500000
O O12 0.244188 0.383221 0.387080
O O13 0.698754 0.897327 0.198152
O O14 0.764402 0.000000 0.260623
O O15 0.657703 0.121827 0.000000
O O16 0.000000 0.112070 0.171460
O O17 0.934660 0.000000 0.164835
O O18 0.944077 0.091388 0.000000
#
# Coordination Sequence:
#
# PCOD9489654 Si02
#       7
#    16   8  16   8  16  16  16
#     4  10  21  35  51  75 108 141 173 209 255 314
#     4   9  15  32  56  78 101 128 171 226 273 307
#     4  10  20  34  55  80 103 134 179 223 261 307
#     4   9  18  33  56  80 101 128 167 218 271 317
#     4  11  21  36  57  78 101 132 174 220 263 310
#     4  11  23  36  49  71 109 147 174 208 259 315
#     4   8  14  27  49  75  99 125 164 211 252 293
#
# _framework density 17.282025999999998
#
# number of rings (size 3 to 8) (size 9 to 14) (size 15 to 20)
#    0.000    2.167    1.667    2.750    0.000    6.333 
#    0.000    5.000    0.000    0.000    0.000    0.583 
#    0.000    3.333    0.000    0.000    0.000    0.000 
#
# Total GULP energy -267796.443729 kJ/mol
# GULP energy per Si atom -5579.092578 kJ/mol
# Density = 1.724269 g / cm^3
# Si number density = 17.282026 Si / 1000 Ang^3
#
#
#
# Elastic Constant Matrix: (Units=GPa)
#
#
# Indices 1 2 3 4 5 6 
#
# 1 108.9780 19.4001 48.7612 0.0000 0.0000 0.0000
# 2 19.4001 21.9077 23.8281 0.0000 0.0000 0.0000
# 3 48.7612 23.8281 104.0485 0.0000 0.0000 0.0000
# 4 0.0000 0.0000 0.0000 8.1145 0.0000 0.0000
# 5 0.0000 0.0000 0.0000 0.0000 26.5025 0.0000
# 6 0.0000 0.0000 0.0000 0.0000 0.0000 3.9163
#
#
#
# Elastic Compliance Matrix: (Units=1/GPa)
#
#
# Indices 1 2 3 4 5 6 
#
# 1 0.012194 -0.006103 -0.004317 0.000000 0.000000 0.000000
# 2 -0.006103 0.063842 -0.011760 0.000000 0.000000 0.000000
# 3 -0.004317 -0.011760 0.014327 0.000000 0.000000 0.000000
# 4 0.000000 0.000000 0.000000 0.123237 0.000000 0.000000
# 5 0.000000 0.000000 0.000000 0.000000 0.037732 0.000000
# 6 0.000000 0.000000 0.000000 0.000000 0.000000 0.255343
#
#
# Mechanical properties :
#
#
# Convention : Reuss Voigt Hill
#
# Bulk Modulus (GPa) = 21.73794 46.54589 34.14191
# Shear Modulus (GPa) = 8.82816 17.23630 13.03223
#
# Velocity S-wave (km/s) = 2.26261 3.16152 2.74905
# Velocity P-wave (km/s) = 4.40812 6.34969 5.46580
#
# Compressibility (1/GPa) = 0.04600252
#
# Stress axis : x y z
#
# Youngs Moduli (GPa) = 82.00594 15.66379 69.79709
#
# Poissons Ratio (x) = 0.09560 0.30132
# Poissons Ratio (y) = 0.50048 0.82083
# Poissons Ratio (z) = 0.35402 0.18421
#
# Static dielectric constant tensor:
#      x y z
#    x 1.581770 0.000000 0.000000 
#    y 0.000000 1.578870 0.000000 
#    z 0.000000 0.000000 1.576620 
# 
# From -- ./inp_files/30856.got.cif
#   From: 2010.05.17/outbox.cif.g08.bks.cpg/sg65_16_cif.got.tgz:30856.got - 2010.06.03 17:01:31.
