data_PCOD9489890
_publ_section_title
;
Structure prediction by ZEFSAII (Michael W. Deem and Ramdas Pophale) SiO2 
 PCOD9489890
Probable space group: C M M M
;
_chemical_formula_sum "Si O2"
_cell_formula_units_Z 88
_cell_length_a 19.575325
_cell_length_b 8.690334
_cell_length_c 29.000061
_cell_angle_alpha 90.000000
_cell_angle_beta 90.000000
_cell_angle_gamma 90.000000
_cell_volume 4933.377637
_symmetry_space_group_name_H-M "C M M M"
_symmetry_group_IT_number 65
_symmetry_cell_setting 'orthorhombic'
loop_
_space_group_symop_operation_xyz
x,y,z
-x,-y,z
x,-y,-z
-x,y,-z
-x,-y,-z
x,y,-z
-x,y,z
x,-y,z
1/2+x,1/2+y,z
1/2-x,1/2-y,z
1/2+x,1/2-y,-z
1/2-x,1/2+y,-z
1/2-x,1/2-y,-z
1/2+x,1/2+y,-z
1/2-x,1/2+y,z
1/2+x,1/2-y,z
loop_
_atom_site_type_symbol
_atom_site_label
_atom_site_fract_x
_atom_site_fract_y
_atom_site_fract_z
Si Si1 0.673461 0.186474 0.000000
Si Si2 0.419574 0.684704 0.552732
Si Si3 0.921107 0.185399 0.184793
Si Si4 0.174065 0.682910 0.632317
Si Si5 0.173829 0.185137 0.269728
Si Si6 0.578942 0.185598 0.085208
O O1 0.750000 0.250000 0.000000
O O2 0.630226 0.235442 0.955000
O O3 0.676163 0.000000 0.000000
O O4 0.401226 0.726772 0.500000
O O5 0.500000 0.718313 0.559057
O O6 0.411149 0.500000 0.557120
O O7 0.374143 0.767658 0.590538
O O8 0.873741 0.233385 0.227217
O O9 0.900389 0.253239 0.135405
O O10 0.000000 0.230631 0.192930
O O11 0.918528 0.000000 0.181885
O O12 0.178346 0.500000 0.636144
O O13 0.250000 0.750000 0.624850
O O14 0.148768 0.752195 0.680980
O O15 0.250000 0.250000 0.263175
O O16 0.176104 0.000000 0.271600
O O17 0.500000 0.234446 0.076362
O O18 0.579070 0.000000 0.086040
#
# Coordination Sequence:
#
# PCOD9489890 Si02
#       6
#     8  16  16  16  16  16
#     4  10  21  35  51  75 105 134 168 208 252 302
#     4   9  19  37  59  81 107 140 176 215 263 317
#     4   9  19  35  54  77 103 132 169 211 255 305
#     4  11  22  36  55  79 108 141 179 221 263 311
#     4  10  20  35  54  75 103 138 173 212 259 310
#     4   9  18  34  55  75  98 132 171 210 251 297
#
# _framework density 17.837678
#
# number of rings (size 3 to 8) (size 9 to 14) (size 15 to 20)
#    0.000    2.364    0.000    4.091    0.000    5.818 
#    0.000    6.364    0.000    2.727    0.000    0.000 
#    0.000    0.000    0.000    0.000    0.000    0.000 
#
# Total GULP energy -245562.191420 kJ/mol
# GULP energy per Si atom -5580.958896 kJ/mol
# Density = 1.779708 g / cm^3
# Si number density = 17.837678 Si / 1000 Ang^3
#
#
#
# Elastic Constant Matrix: (Units=GPa)
#
#
# Indices 1 2 3 4 5 6 
#
# 1 83.9188 38.0679 107.1924 0.0000 0.0000 0.0000
# 2 38.0679 50.1941 57.0158 0.0000 0.0000 0.0000
# 3 107.1924 57.0158 192.4812 0.0000 0.0000 0.0000
# 4 0.0000 0.0000 0.0000 32.1036 0.0000 0.0000
# 5 0.0000 0.0000 0.0000 0.0000 50.0179 0.0000
# 6 0.0000 0.0000 0.0000 0.0000 0.0000 28.0606
#
#
#
# Elastic Compliance Matrix: (Units=1/GPa)
#
#
# Indices 1 2 3 4 5 6 
#
# 1 0.043430 -0.008236 -0.021746 0.000000 0.000000 0.000000
# 2 -0.008236 0.031587 -0.004770 0.000000 0.000000 0.000000
# 3 -0.021746 -0.004770 0.018719 0.000000 0.000000 0.000000
# 4 0.000000 0.000000 0.000000 0.031149 0.000000 0.000000
# 5 0.000000 0.000000 0.000000 0.000000 0.019993 0.000000
# 6 0.000000 0.000000 0.000000 0.000000 0.000000 0.035637
#
#
# Mechanical properties :
#
#
# Convention : Reuss Voigt Hill
#
# Bulk Modulus (GPa) = 41.26929 81.23847 61.25388
# Shear Modulus (GPa) = 19.37264 30.32428 24.84846
#
# Velocity S-wave (km/s) = 3.29911 4.12759 3.73638
# Velocity P-wave (km/s) = 6.13990 8.26790 7.28205
#
# Compressibility (1/GPa) = 0.02423109
#
# Stress axis : x y z
#
# Youngs Moduli (GPa) = 23.02581 31.65843 53.42250
#
# Poissons Ratio (x) = 0.26074 1.16174
# Poissons Ratio (y) = 0.18964 0.25483
# Poissons Ratio (z) = 0.50072 0.15101
#
# Static dielectric constant tensor:
#      x y z
#    x 1.590290 0.000000 0.000000 
#    y 0.000000 1.604620 0.000000 
#    z 0.000000 0.000000 1.595050 
# 
# From -- ./inp_files/77977.got.cif
#   From: 2010.05.17/outbox.cif.g08.bks.cpg/sg65_39_cif.got.tgz:77977.got - 2010.06.03 17:01:31.
