data_PCOD9489748
_publ_section_title
;
Structure prediction by ZEFSAII (Michael W. Deem and Ramdas Pophale) SiO2 
 PCOD9489748
Probable space group: C M M M
;
_chemical_formula_sum "Si O2"
_cell_formula_units_Z 88
_cell_length_a 23.048678
_cell_length_b 23.095975
_cell_length_c 8.762592
_cell_angle_alpha 90.000000
_cell_angle_beta 90.000000
_cell_angle_gamma 90.000000
_cell_volume 4664.605416
_symmetry_space_group_name_H-M "C M M M"
_symmetry_group_IT_number 65
_symmetry_cell_setting 'orthorhombic'
loop_
_space_group_symop_operation_xyz
x,y,z
-x,-y,z
x,-y,-z
-x,y,-z
-x,-y,-z
x,y,-z
-x,y,z
x,-y,z
1/2+x,1/2+y,z
1/2-x,1/2-y,z
1/2+x,1/2-y,-z
1/2-x,1/2+y,-z
1/2-x,1/2-y,-z
1/2+x,1/2+y,-z
1/2-x,1/2+y,z
1/2+x,1/2-y,z
loop_
_atom_site_type_symbol
_atom_site_label
_atom_site_fract_x
_atom_site_fract_y
_atom_site_fract_z
Si Si1 0.435935 0.711864 0.683645
Si Si2 0.711497 0.000000 0.827185
Si Si3 0.500000 0.932202 0.183026
Si Si4 0.842112 0.873622 0.816584
Si Si5 0.351758 0.500000 0.172317
Si Si6 0.784576 0.621385 0.318815
Si Si7 0.409318 0.842488 0.316505
O O1 0.428961 0.709028 0.500000
O O2 0.500000 0.689109 0.723169
O O3 0.385442 0.675400 0.760868
O O4 0.433464 0.779597 0.726054
O O5 0.781590 0.000000 0.838496
O O6 0.696987 0.942524 0.736180
O O7 0.688105 0.000000 0.000000
O O8 0.444664 0.895103 0.241560
O O9 0.500000 0.000000 0.233353
O O10 0.500000 0.932140 0.000000
O O11 0.863881 0.937088 0.757129
O O12 0.776410 0.863643 0.759300
O O13 0.840582 0.876934 0.000000
O O14 0.376143 0.500000 0.000000
O O15 0.775749 0.622320 0.500000
O O16 0.840858 0.658876 0.279384
O O17 0.414919 0.849298 0.500000
#
# Coordination Sequence:
#
# PCOD9489748 Si02
#       7
#    16   8   8  16   8  16  16
#     4  10  21  40  62  81 109 151 198 244 292 345
#     4   9  17  31  51  77 117 155 183 226 291 347
#     4  11  25  41  59  89 123 156 197 248 299 341
#     4  10  20  36  59  86 118 152 188 235 296 353
#     4   7  14  31  52  76 108 147 179 213 268 336
#     4  10  20  34  56  86 114 149 198 241 284 344
#     4  10  22  41  62  83 113 157 202 243 287 345
#
# _framework density 18.865475
#
# number of rings (size 3 to 8) (size 9 to 14) (size 15 to 20)
#    0.000    2.273    0.909    2.727    1.273    4.000 
#    0.000    5.455    0.000    2.727    0.000    0.000 
#    0.000    0.000    0.000    0.000    0.000    0.000 
#
# Total GULP energy -245303.336528 kJ/mol
# GULP energy per Si atom -5575.075830 kJ/mol
# Density = 1.882254 g / cm^3
# Si number density = 18.865475 Si / 1000 Ang^3
#
#
#
# Elastic Constant Matrix: (Units=GPa)
#
#
# Indices 1 2 3 4 5 6 
#
# 1 124.7438 66.2926 45.3502 0.0000 0.0000 0.0000
# 2 66.2926 103.7969 30.9359 0.0000 0.0000 0.0000
# 3 45.3502 30.9359 40.6845 0.0000 0.0000 0.0000
# 4 0.0000 0.0000 0.0000 24.6494 0.0000 0.0000
# 5 0.0000 0.0000 0.0000 0.0000 8.2825 0.0000
# 6 0.0000 0.0000 0.0000 0.0000 0.0000 42.5730
#
#
#
# Elastic Compliance Matrix: (Units=1/GPa)
#
#
# Indices 1 2 3 4 5 6 
#
# 1 0.016237 -0.006434 -0.013207 0.000000 0.000000 0.000000
# 2 -0.006434 0.015007 -0.004239 0.000000 0.000000 0.000000
# 3 -0.013207 -0.004239 0.042524 0.000000 0.000000 0.000000
# 4 0.000000 0.000000 0.000000 0.040569 0.000000 0.000000
# 5 0.000000 0.000000 0.000000 0.000000 0.120736 0.000000
# 6 0.000000 0.000000 0.000000 0.000000 0.000000 0.023489
#
#
# Mechanical properties :
#
#
# Convention : Reuss Voigt Hill
#
# Bulk Modulus (GPa) = 38.44953 61.59807 50.02380
# Shear Modulus (GPa) = 15.87350 23.54410 19.70880
#
# Velocity S-wave (km/s) = 2.90384 3.53654 3.23569
# Velocity P-wave (km/s) = 5.62745 7.02839 6.36657
#
# Compressibility (1/GPa) = 0.02600812
#
# Stress axis : x y z
#
# Youngs Moduli (GPa) = 61.58845 66.63614 23.51621
#
# Poissons Ratio (x) = 0.42873 0.31057
# Poissons Ratio (y) = 0.39626 0.09969
# Poissons Ratio (z) = 0.81337 0.28249
#
# Static dielectric constant tensor:
#      x y z
#    x 1.645940 0.000000 0.000000 
#    y 0.000000 1.685880 0.000000 
#    z 0.000000 0.000000 1.643090 
# 
# From -- ./inp_files/14073.got.cif
#   From: 2010.05.17/outbox.cif.g08.bks.cpg/sg65_8_cif.got.tgz:14073.got - 2010.06.03 17:01:31.
