data_PCOD9489420
_publ_section_title
;
Structure prediction by ZEFSAII (Michael W. Deem and Ramdas Pophale) SiO2 
 PCOD9489420
Probable space group: C M M M
;
_chemical_formula_sum "Si O2"
_cell_formula_units_Z 88
_cell_length_a 25.020620
_cell_length_b 14.534597
_cell_length_c 14.370398
_cell_angle_alpha 90.000000
_cell_angle_beta 90.000000
_cell_angle_gamma 90.000000
_cell_volume 5226.005448
_symmetry_space_group_name_H-M "C M M M"
_symmetry_group_IT_number 65
_symmetry_cell_setting 'orthorhombic'
loop_
_space_group_symop_operation_xyz
x,y,z
-x,-y,z
x,-y,-z
-x,y,-z
-x,-y,-z
x,y,-z
-x,y,z
x,-y,z
1/2+x,1/2+y,z
1/2-x,1/2-y,z
1/2+x,1/2-y,-z
1/2-x,1/2+y,-z
1/2-x,1/2-y,-z
1/2+x,1/2+y,-z
1/2-x,1/2+y,z
1/2+x,1/2-y,z
loop_
_atom_site_type_symbol
_atom_site_label
_atom_site_fract_x
_atom_site_fract_y
_atom_site_fract_z
Si Si1 0.500000 0.387924 0.606448
Si Si2 0.105208 0.607433 0.397908
Si Si3 0.810997 0.230776 0.392131
Si Si4 0.435374 0.707983 0.108244
Si Si5 0.062756 0.397985 0.195903
Si Si6 0.393295 0.609454 0.716820
O O1 0.500000 0.500000 0.606986
O O2 0.500000 0.356762 0.500000
O O3 0.554092 0.359322 0.658359
O O4 0.079783 0.625024 0.500000
O O5 0.120893 0.500000 0.396857
O O6 0.155504 0.674610 0.389732
O O7 0.070149 0.621390 0.305842
O O8 0.811653 0.197892 0.500000
O O9 0.750000 0.250000 0.365421
O O10 0.842381 0.160047 0.326791
O O11 0.500000 0.701092 0.122492
O O12 0.417325 0.810965 0.137824
O O13 0.406008 0.639195 0.178081
O O14 0.424979 0.691198 0.000000
O O15 0.085862 0.500000 0.176207
O O16 0.000000 0.403144 0.175937
O O17 0.388298 0.500000 0.708685
#
# Coordination Sequence:
#
# PCOD9489420 Si02
#       6
#     8  16  16  16  16  16
#     4   9  18  32  51  77 110 143 175 217 269 327
#     4   9  17  30  49  73 102 134 167 207 258 317
#     4  10  21  36  54  78 109 144 183 221 263 321
#     4  10  20  34  53  79 111 145 183 227 279 335
#     4   9  17  30  49  75 106 137 173 216 264 319
#     4  11  21  35  54  80 112 146 188 231 276 328
#
# _framework density 16.838865999999999
#
# number of rings (size 3 to 8) (size 9 to 14) (size 15 to 20)
#    0.000    2.273    2.727    0.545    0.000    2.909 
#    0.000    6.364    0.000    0.545    0.000    0.000 
#    0.000    0.000    0.000    0.000    0.000    0.000 
#
# Total GULP energy -245228.899733 kJ/mol
# GULP energy per Si atom -5573.384085 kJ/mol
# Density = 1.680054 g / cm^3
# Si number density = 16.838866 Si / 1000 Ang^3
#
#
#
# Elastic Constant Matrix: (Units=GPa)
#
#
# Indices 1 2 3 4 5 6 
#
# 1 59.2397 33.3456 38.6851 0.0000 0.0000 0.0000
# 2 33.3456 68.9597 41.0882 0.0000 0.0000 0.0000
# 3 38.6851 41.0882 107.5668 0.0000 0.0000 0.0000
# 4 0.0000 0.0000 0.0000 19.8724 0.0000 0.0000
# 5 0.0000 0.0000 0.0000 0.0000 16.6057 0.0000
# 6 0.0000 0.0000 0.0000 0.0000 0.0000 12.7659
#
#
#
# Elastic Compliance Matrix: (Units=1/GPa)
#
#
# Indices 1 2 3 4 5 6 
#
# 1 0.025738 -0.008972 -0.005829 0.000000 0.000000 0.000000
# 2 -0.008972 0.021902 -0.005139 0.000000 0.000000 0.000000
# 3 -0.005829 -0.005139 0.013356 0.000000 0.000000 0.000000
# 4 0.000000 0.000000 0.000000 0.050321 0.000000 0.000000
# 5 0.000000 0.000000 0.000000 0.000000 0.060220 0.000000
# 6 0.000000 0.000000 0.000000 0.000000 0.000000 0.078334
#
#
# Mechanical properties :
#
#
# Convention : Reuss Voigt Hill
#
# Bulk Modulus (GPa) = 47.36136 51.33379 49.34757
# Shear Modulus (GPa) = 16.84695 18.02529 17.43612
#
# Velocity S-wave (km/s) = 3.16647 3.27533 3.22136
# Velocity P-wave (km/s) = 6.44639 6.69740 6.57310
#
# Compressibility (1/GPa) = 0.02111426
#
# Stress axis : x y z
#
# Youngs Moduli (GPa) = 38.85373 45.65795 74.87303
#
# Poissons Ratio (x) = 0.40966 0.43643
# Poissons Ratio (y) = 0.34861 0.38479
# Poissons Ratio (z) = 0.22648 0.23465
#
# Static dielectric constant tensor:
#      x y z
#    x 1.536600 0.000000 0.000000 
#    y 0.000000 1.600950 0.000000 
#    z 0.000000 0.000000 1.575850 
# 
# From -- ./inp_files/40597.got.cif
#   From: 2010.05.17/outbox.cif.g08.bks.cpg/sg65_21_cif.got.tgz:40597.got - 2010.06.03 17:01:31.
