data_PCOD9489805
_publ_section_title
;
Structure prediction by ZEFSAII (Michael W. Deem and Ramdas Pophale) SiO2 
 PCOD9489805
Probable space group: C M M M
;
_chemical_formula_sum "Si O2"
_cell_formula_units_Z 104
_cell_length_a 18.399960
_cell_length_b 13.503589
_cell_length_c 25.621724
_cell_angle_alpha 90.000000
_cell_angle_beta 90.000000
_cell_angle_gamma 90.000000
_cell_volume 6366.114399
_symmetry_space_group_name_H-M "C M M M"
_symmetry_group_IT_number 65
_symmetry_cell_setting 'orthorhombic'
loop_
_space_group_symop_operation_xyz
x,y,z
-x,-y,z
x,-y,-z
-x,y,-z
-x,-y,-z
x,y,-z
-x,y,z
x,-y,z
1/2+x,1/2+y,z
1/2-x,1/2-y,z
1/2+x,1/2-y,-z
1/2-x,1/2+y,-z
1/2-x,1/2-y,-z
1/2+x,1/2+y,-z
1/2-x,1/2+y,z
1/2+x,1/2-y,z
loop_
_atom_site_type_symbol
_atom_site_label
_atom_site_fract_x
_atom_site_fract_y
_atom_site_fract_z
Si Si1 0.500000 0.387772 0.563084
Si Si2 0.750000 0.750000 0.638665
Si Si3 0.347642 0.118707 0.890513
Si Si4 0.582182 0.765175 0.199081
Si Si5 0.786093 0.114172 0.181722
Si Si6 0.085454 0.620516 0.000000
Si Si7 0.658504 0.380078 0.561103
Si Si8 0.171162 0.383420 0.277251
O O1 0.500000 0.500000 0.583988
O O2 0.500000 0.395200 0.500000
O O3 0.577393 0.343032 0.576069
O O4 0.711556 0.671618 0.600867
O O5 0.802791 0.685252 0.675428
O O6 0.405577 0.164370 0.850688
O O7 0.267595 0.141724 0.866556
O O8 0.370343 0.151780 0.948311
O O9 0.352559 0.000000 0.888543
O O10 0.500000 0.728044 0.201958
O O11 0.643733 0.681254 0.191237
O O12 0.603023 0.831552 0.249180
O O13 0.734414 0.120856 0.232755
O O14 0.807552 0.000000 0.174816
O O15 0.084208 0.500000 0.000000
O O16 0.000000 0.651766 0.000000
O O17 0.672435 0.356586 0.500000
O O18 0.659725 0.500000 0.565022
O O19 0.160333 0.500000 0.289746
#
# Coordination Sequence:
#
# PCOD9489805 Si02
#       8
#     8   8  16  16  16   8  16  16
#     4   7  12  28  50  70  95 125 159 197 238 281
#     4  12  19  32  50  78 104 131 168 204 256 298
#     4   9  17  30  51  74 100 133 166 206 257 310
#     4  11  20  33  52  73  98 131 171 209 254 311
#     4   9  18  35  53  69  94 130 170 206 249 308
#     4   9  16  26  43  76 112 132 161 215 268 306
#     4   9  18  32  52  77 103 133 167 205 248 296
#     4  10  20  35  52  70  97 131 167 207 248 299
#
# _framework density 16.336496
#
# number of rings (size 3 to 8) (size 9 to 14) (size 15 to 20)
#    0.000    2.462    1.538    4.846    0.000    2.154 
#    1.385    1.538    0.000    0.000    0.000    0.000 
#    0.000    9.846    0.000    0.000    0.000    0.000 
#
# Total GULP energy -289471.016920 kJ/mol
# GULP energy per Si atom -5566.750325 kJ/mol
# Density = 1.629931 g / cm^3
# Si number density = 16.336496 Si / 1000 Ang^3
#
#
#
# Elastic Constant Matrix: (Units=GPa)
#
#
# Indices 1 2 3 4 5 6 
#
# 1 83.0096 25.4581 30.4937 0.0000 0.0000 0.0000
# 2 25.4581 65.6791 27.4129 0.0000 0.0000 0.0000
# 3 30.4937 27.4129 94.7021 0.0000 0.0000 0.0000
# 4 0.0000 0.0000 0.0000 54.4745 0.0000 0.0000
# 5 0.0000 0.0000 0.0000 0.0000 16.7896 0.0000
# 6 0.0000 0.0000 0.0000 0.0000 0.0000 17.1666
#
#
#
# Elastic Compliance Matrix: (Units=1/GPa)
#
#
# Indices 1 2 3 4 5 6 
#
# 1 0.014620 -0.004211 -0.003489 0.000000 0.000000 0.000000
# 2 -0.004211 0.018531 -0.004008 0.000000 0.000000 0.000000
# 3 -0.003489 -0.004008 0.012843 0.000000 0.000000 0.000000
# 4 0.000000 0.000000 0.000000 0.018357 0.000000 0.000000
# 5 0.000000 0.000000 0.000000 0.000000 0.059561 0.000000
# 6 0.000000 0.000000 0.000000 0.000000 0.000000 0.058253
#
#
# Mechanical properties :
#
#
# Convention : Reuss Voigt Hill
#
# Bulk Modulus (GPa) = 44.29029 45.56891 44.92960
# Shear Modulus (GPa) = 23.46263 28.35455 25.90859
#
# Velocity S-wave (km/s) = 3.79385 4.17064 3.98670
# Velocity P-wave (km/s) = 6.80890 7.15170 6.98240
#
# Compressibility (1/GPa) = 0.02257831
#
# Stress axis : x y z
#
# Youngs Moduli (GPa) = 68.40062 53.96490 77.86371
#
# Poissons Ratio (x) = 0.22723 0.27164
# Poissons Ratio (y) = 0.28802 0.31209
# Poissons Ratio (z) = 0.23863 0.21630
#
# Static dielectric constant tensor:
#      x y z
#    x 1.564430 0.000000 0.000000 
#    y 0.000000 1.557250 0.000000 
#    z 0.000000 0.000000 1.545800 
# 
# From -- ./inp_files/70569.got.cif
#   From: 2010.05.17/outbox.cif.g08.bks.cpg/sg65_36_cif.got.tgz:70569.got - 2010.06.03 17:01:31.
