data_PCOD9489367
_publ_section_title
;
Structure prediction by ZEFSAII (Michael W. Deem and Ramdas Pophale) SiO2 
 PCOD9489367
Probable space group: C M M M
;
_chemical_formula_sum "Si O2"
_cell_formula_units_Z 88
_cell_length_a 18.500071
_cell_length_b 28.761632
_cell_length_c 8.950879
_cell_angle_alpha 90.000000
_cell_angle_beta 90.000000
_cell_angle_gamma 90.000000
_cell_volume 4762.693204
_symmetry_space_group_name_H-M "C M M M"
_symmetry_group_IT_number 65
_symmetry_cell_setting 'orthorhombic'
loop_
_space_group_symop_operation_xyz
x,y,z
-x,-y,z
x,-y,-z
-x,y,-z
-x,-y,-z
x,y,-z
-x,y,z
x,-y,z
1/2+x,1/2+y,z
1/2-x,1/2-y,z
1/2+x,1/2-y,-z
1/2-x,1/2+y,-z
1/2-x,1/2-y,-z
1/2+x,1/2+y,-z
1/2-x,1/2+y,z
1/2+x,1/2-y,z
loop_
_atom_site_type_symbol
_atom_site_label
_atom_site_fract_x
_atom_site_fract_y
_atom_site_fract_z
Si Si1 0.000000 0.943268 0.327138
Si Si2 0.416451 0.856113 0.178284
Si Si3 0.724020 0.886758 0.322454
Si Si4 0.149923 0.944024 0.173750
Si Si5 0.415070 0.245257 0.671972
Si Si6 0.794615 0.797983 0.826871
O O1 0.073967 0.928218 0.246642
O O2 0.000000 0.928824 0.500000
O O3 0.000000 0.000000 0.323553
O O4 0.500000 0.869791 0.207432
O O5 0.355627 0.888820 0.249635
O O6 0.406116 0.804769 0.248651
O O7 0.406048 0.853146 0.000000
O O8 0.719008 0.889402 0.500000
O O9 0.781156 0.923755 0.259254
O O10 0.756648 0.837380 0.269724
O O11 0.151215 0.000000 0.181270
O O12 0.152285 0.930290 0.000000
O O13 0.389648 0.242140 0.500000
O O14 0.500000 0.255364 0.671684
O O15 0.371803 0.284349 0.760288
O O16 0.750000 0.750000 0.818916
O O17 0.797851 0.812424 0.000000
#
# Coordination Sequence:
#
# PCOD9489367 Si02
#       6
#     8  16  16  16  16  16
#     4   9  17  33  59  89 119 149 185 229 277 329
#     4  10  20  35  56  81 110 146 189 232 275 332
#     4  12  24  37  58  85 115 148 186 234 285 337
#     4  10  21  39  63  88 116 150 189 231 277 334
#     4  10  20  34  53  77 106 142 185 231 279 329
#     4  11  22  36  55  78 109 149 189 230 276 330
#
# _framework density 18.476941
#
# number of rings (size 3 to 8) (size 9 to 14) (size 15 to 20)
#    0.000    1.545    1.818    4.091    0.000    5.091 
#    1.636    0.000    0.000    0.545    0.000    3.818 
#    0.000    0.000    0.000    0.000    0.000    0.000 
#
# Total GULP energy -245804.762329 kJ/mol
# GULP energy per Si atom -5586.471871 kJ/mol
# Density = 1.843489 g / cm^3
# Si number density = 18.476941 Si / 1000 Ang^3
#
#
#
# Elastic Constant Matrix: (Units=GPa)
#
#
# Indices 1 2 3 4 5 6 
#
# 1 133.2893 24.6523 70.8650 0.0000 0.0000 0.0000
# 2 24.6523 24.2851 21.7413 0.0000 0.0000 0.0000
# 3 70.8650 21.7413 144.0696 0.0000 0.0000 0.0000
# 4 0.0000 0.0000 0.0000 23.3669 0.0000 0.0000
# 5 0.0000 0.0000 0.0000 0.0000 34.3254 0.0000
# 6 0.0000 0.0000 0.0000 0.0000 0.0000 28.9060
#
#
#
# Elastic Compliance Matrix: (Units=1/GPa)
#
#
# Indices 1 2 3 4 5 6 
#
# 1 0.011216 -0.007454 -0.004392 0.000000 0.000000 0.000000
# 2 -0.007454 0.052563 -0.004266 0.000000 0.000000 0.000000
# 3 -0.004392 -0.004266 0.009745 0.000000 0.000000 0.000000
# 4 0.000000 0.000000 0.000000 0.042796 0.000000 0.000000
# 5 0.000000 0.000000 0.000000 0.000000 0.029133 0.000000
# 6 0.000000 0.000000 0.000000 0.000000 0.000000 0.034595
#
#
# Mechanical properties :
#
#
# Convention : Reuss Voigt Hill
#
# Bulk Modulus (GPa) = 24.21254 59.57346 41.89300
# Shear Modulus (GPa) = 22.12013 29.61200 25.86607
#
# Velocity S-wave (km/s) = 3.46378 4.00765 3.74560
# Velocity P-wave (km/s) = 5.39719 7.32987 6.43649
#
# Compressibility (1/GPa) = 0.04130092
#
# Stress axis : x y z
#
# Youngs Moduli (GPa) = 89.15638 19.02483 102.61364
#
# Poissons Ratio (x) = 0.14180 0.45070
# Poissons Ratio (y) = 0.66454 0.43773
# Poissons Ratio (z) = 0.39160 0.08116
#
# Static dielectric constant tensor:
#      x y z
#    x 1.657490 0.000000 0.000000 
#    y 0.000000 1.622050 0.000000 
#    z 0.000000 0.000000 1.623780 
# 
# From -- ./inp_files/10000.got.cif
#   From: 2010.05.17/outbox.cif.g08.bks.cpg/sg65_5_cif.got.tgz:10000.got - 2010.06.03 17:01:31.
