data_PCOD9489543
_publ_section_title
;
Structure prediction by ZEFSAII (Michael W. Deem and Ramdas Pophale) SiO2 
 PCOD9489543
Probable space group: C M M M
;
_chemical_formula_sum "Si O2"
_cell_formula_units_Z 104
_cell_length_a 9.162677
_cell_length_b 19.079591
_cell_length_c 34.193861
_cell_angle_alpha 90.000000
_cell_angle_beta 90.000000
_cell_angle_gamma 90.000000
_cell_volume 5977.775212
_symmetry_space_group_name_H-M "C M M M"
_symmetry_group_IT_number 65
_symmetry_cell_setting 'orthorhombic'
loop_
_space_group_symop_operation_xyz
x,y,z
-x,-y,z
x,-y,-z
-x,y,-z
-x,-y,-z
x,y,-z
-x,y,z
x,-y,z
1/2+x,1/2+y,z
1/2-x,1/2-y,z
1/2+x,1/2-y,-z
1/2-x,1/2+y,-z
1/2-x,1/2-y,-z
1/2+x,1/2+y,-z
1/2-x,1/2+y,z
1/2+x,1/2-y,z
loop_
_atom_site_type_symbol
_atom_site_label
_atom_site_fract_x
_atom_site_fract_y
_atom_site_fract_z
Si Si1 0.332232 0.585202 0.655580
Si Si2 0.324188 0.174398 0.500000
Si Si3 0.671512 0.915652 0.264900
Si Si4 0.173157 0.175107 0.109118
Si Si5 0.674246 0.325568 0.800941
Si Si6 0.172606 0.416246 0.955688
Si Si7 0.825148 0.582491 0.575597
O O1 0.500000 0.608613 0.657676
O O2 0.331976 0.500000 0.655705
O O3 0.242089 0.606935 0.693801
O O4 0.256341 0.605718 0.614983
O O5 0.500000 0.182217 0.500000
O O6 0.250000 0.250000 0.500000
O O7 0.284762 0.129494 0.538461
O O8 0.500000 0.898439 0.263851
O O9 0.756083 0.878862 0.229688
O O10 0.685592 0.000000 0.262029
O O11 0.250000 0.250000 0.103931
O O12 0.201169 0.152151 0.154003
O O13 0.237166 0.122405 0.077413
O O14 0.000000 0.182777 0.104416
O O15 0.500000 0.319801 0.795360
O O16 0.750000 0.250000 0.795769
O O17 0.190925 0.500000 0.952937
O O18 0.000000 0.401356 0.950913
O O19 0.214325 0.394993 0.000000
O O20 0.792187 0.500000 0.568279
O O21 0.000000 0.587229 0.581474
#
# Coordination Sequence:
#
# PCOD9489543 Si02
#       7
#    16   8  16  16  16  16  16
#     4   9  17  30  50  77 106 133 165 211 262 304
#     4  10  21  35  51  73 103 136 166 204 254 302
#     4  10  20  34  54  80 108 139 175 213 256 308
#     4  10  21  36  55  78 104 137 176 217 260 307
#     4  10  21  37  55  76 105 139 175 216 261 309
#     4   9  19  36  56  78 106 139 173 212 260 311
#     4   9  17  32  54  76  98 129 171 212 250 299
#
# _framework density 17.397777999999999
#
# number of rings (size 3 to 8) (size 9 to 14) (size 15 to 20)
#    0.000    2.462    0.000    2.538    0.000    7.692 
#    0.000    4.615    0.000    4.154    0.000    0.000 
#    0.000    0.000    0.000    0.000    0.000    0.000 
#
# Total GULP energy -290121.790350 kJ/mol
# GULP energy per Si atom -5579.265199 kJ/mol
# Density = 1.735818 g / cm^3
# Si number density = 17.397778 Si / 1000 Ang^3
#
#
#
# Elastic Constant Matrix: (Units=GPa)
#
#
# Indices 1 2 3 4 5 6 
#
# 1 104.0317 52.2774 102.9576 0.0000 0.0000 0.0000
# 2 52.2774 49.7766 72.6861 0.0000 0.0000 0.0000
# 3 102.9576 72.6861 176.8172 0.0000 0.0000 0.0000
# 4 0.0000 0.0000 0.0000 -89.0170 0.0000 0.0000
# 5 0.0000 0.0000 0.0000 0.0000 35.4030 0.0000
# 6 0.0000 0.0000 0.0000 0.0000 0.0000 31.0643
#
#
#
# Elastic Compliance Matrix: (Units=1/GPa)
#
#
# Indices 1 2 3 4 5 6 
#
# 1 0.025574 -0.012794 -0.009632 0.000000 0.000000 0.000000
# 2 -0.012794 0.056660 -0.015842 0.000000 0.000000 0.000000
# 3 -0.009632 -0.015842 0.017777 0.000000 0.000000 0.000000
# 4 0.000000 0.000000 0.000000 -0.011234 0.000000 0.000000
# 5 0.000000 0.000000 0.000000 0.000000 0.028246 0.000000
# 6 0.000000 0.000000 0.000000 0.000000 0.000000 0.032191
#
#
# Mechanical properties :
#
#
# Convention : Reuss Voigt Hill
#
# Bulk Modulus (GPa) = 42.59950 87.38528 64.99239
# Shear Modulus (GPa) = 21.40641 2.33703 11.87172
#
# Velocity S-wave (km/s) = 3.51153 1.16026 2.61505
# Velocity P-wave (km/s) = 6.40155 7.22024 6.82318
#
# Compressibility (1/GPa) = 0.02347445
#
# Stress axis : x y z
#
# Youngs Moduli (GPa) = 39.10197 17.64923 56.25374
#
# Poissons Ratio (x) = 0.22580 0.54184
# Poissons Ratio (y) = 0.50026 0.89118
# Poissons Ratio (z) = 0.37664 0.27960
#
# Static dielectric constant tensor:
#      x y z
#    x 1.579690 0.000000 0.000000 
#    y 0.000000 1.565360 0.000000 
#    z 0.000000 0.000000 1.577920 
# 
# From -- ./inp_files/73343.got.cif
#   From: 2010.05.17/outbox.cif.g08.bks.cpg/sg65_37_cif.got.tgz:73343.got - 2010.06.03 17:01:31.
