data_PCOD9489668
_publ_section_title
;
Structure prediction by ZEFSAII (Michael W. Deem and Ramdas Pophale) SiO2 
 PCOD9489668
Probable space group: C M M M
;
_chemical_formula_sum "Si O2"
_cell_formula_units_Z 96
_cell_length_a 21.982147
_cell_length_b 20.267733
_cell_length_c 11.894246
_cell_angle_alpha 90.000000
_cell_angle_beta 90.000000
_cell_angle_gamma 90.000000
_cell_volume 5299.223036
_symmetry_space_group_name_H-M "C M M M"
_symmetry_group_IT_number 65
_symmetry_cell_setting 'orthorhombic'
loop_
_space_group_symop_operation_xyz
x,y,z
-x,-y,z
x,-y,-z
-x,y,-z
-x,-y,-z
x,y,-z
-x,y,z
x,-y,z
1/2+x,1/2+y,z
1/2-x,1/2-y,z
1/2+x,1/2-y,-z
1/2-x,1/2+y,-z
1/2-x,1/2-y,-z
1/2+x,1/2+y,-z
1/2-x,1/2+y,z
1/2+x,1/2-y,z
loop_
_atom_site_type_symbol
_atom_site_label
_atom_site_fract_x
_atom_site_fract_y
_atom_site_fract_z
Si Si1 0.144016 0.629986 0.133974
Si Si2 0.747151 0.419237 0.729669
Si Si3 0.500000 0.578010 0.627543
Si Si4 0.430676 0.000000 0.863292
Si Si5 0.124654 0.861172 0.635523
Si Si6 0.194596 0.426702 0.500000
Si Si7 0.065331 0.619517 0.500000
Si Si8 0.928327 0.722062 0.705059
O O1 0.212814 0.614347 0.173027
O O2 0.105570 0.565102 0.170850
O O3 0.110081 0.690889 0.192979
O O4 0.141135 0.635921 0.000000
O O5 0.746828 0.500000 0.741622
O O6 0.680442 0.390243 0.706738
O O7 0.782582 0.397411 0.615926
O O8 0.500000 0.500000 0.622549
O O9 0.500000 0.606120 0.500000
O O10 0.436463 0.601694 0.675147
O O11 0.500000 0.000000 0.822233
O O12 0.432383 0.000000 0.000000
O O13 0.135067 0.872146 0.500000
O O14 0.107907 0.785187 0.657910
O O15 0.221187 0.500000 0.500000
O O16 0.122636 0.427106 0.500000
O O17 0.069641 0.667191 0.392389
O O18 0.000000 0.585950 0.500000
O O19 0.000000 0.737467 0.731397
#
# Coordination Sequence:
#
# PCOD9489668 Si02
#       8
#    16  16   8   8  16   8   8  16
#     4  11  23  40  62  87 120 162 210 258 302 355
#     4  11  22  38  60  89 124 159 200 252 311 365
#     4   9  18  32  56  90 123 152 199 252 301 361
#     4   9  18  36  62  87 109 146 201 255 306 351
#     4  11  21  36  60  89 123 164 199 244 308 377
#     4  10  20  36  53  80 121 157 198 247 299 364
#     4  10  20  34  55  81 116 164 201 242 293 366
#     4  11  22  38  59  87 124 160 201 249 305 366
#
# _framework density 18.115863000000001
#
# number of rings (size 3 to 8) (size 9 to 14) (size 15 to 20)
#    0.000    1.500    5.000    1.000    0.000    2.500 
#    0.000    3.333    0.000    0.000    0.000    0.000 
#    0.000    2.667    0.000    0.000    0.000    0.000 
#
# Total GULP energy -267580.345352 kJ/mol
# GULP energy per Si atom -5574.590528 kJ/mol
# Density = 1.807463 g / cm^3
# Si number density = 18.115863 Si / 1000 Ang^3
#
#
#
# Elastic Constant Matrix: (Units=GPa)
#
#
# Indices 1 2 3 4 5 6 
#
# 1 148.5332 24.6091 32.9598 0.0000 0.0000 0.0000
# 2 24.6091 41.5377 14.8549 0.0000 0.0000 0.0000
# 3 32.9598 14.8549 69.9391 0.0000 0.0000 0.0000
# 4 0.0000 0.0000 0.0000 18.3776 0.0000 0.0000
# 5 0.0000 0.0000 0.0000 0.0000 27.6826 0.0000
# 6 0.0000 0.0000 0.0000 0.0000 0.0000 30.9422
#
#
#
# Elastic Compliance Matrix: (Units=1/GPa)
#
#
# Indices 1 2 3 4 5 6 
#
# 1 0.008005 -0.003672 -0.002992 0.000000 0.000000 0.000000
# 2 -0.003672 0.027738 -0.004161 0.000000 0.000000 0.000000
# 3 -0.002992 -0.004161 0.016592 0.000000 0.000000 0.000000
# 4 0.000000 0.000000 0.000000 0.054414 0.000000 0.000000
# 5 0.000000 0.000000 0.000000 0.000000 0.036124 0.000000
# 6 0.000000 0.000000 0.000000 0.000000 0.000000 0.032318
#
#
# Mechanical properties :
#
#
# Convention : Reuss Voigt Hill
#
# Bulk Modulus (GPa) = 32.59035 44.98419 38.78727
# Shear Modulus (GPa) = 24.14632 27.90623 26.02628
#
# Velocity S-wave (km/s) = 3.65483 3.92909 3.79444
# Velocity P-wave (km/s) = 5.98660 6.74307 6.37606
#
# Compressibility (1/GPa) = 0.03068393
#
# Stress axis : x y z
#
# Youngs Moduli (GPa) = 124.92230 36.05130 60.26943
#
# Poissons Ratio (x) = 0.13239 0.18035
# Poissons Ratio (y) = 0.45876 0.25077
# Poissons Ratio (z) = 0.37382 0.15001
#
# Static dielectric constant tensor:
#      x y z
#    x 1.646180 0.000000 0.000000 
#    y 0.000000 1.627540 0.000000 
#    z 0.000000 0.000000 1.626770 
# 
# From -- ./inp_files/29132.got.cif
#   From: 2010.05.17/outbox.cif.g08.bks.cpg/sg65_15_cif.got.tgz:29132.got - 2010.06.03 17:01:31.
