data_PCOD9489183
_publ_section_title
;
Structure prediction by ZEFSAII (Michael W. Deem and Ramdas Pophale) SiO2 
 PCOD9489183
Probable space group: C M M M
;
_chemical_formula_sum "Si O2"
_cell_formula_units_Z 96
_cell_length_a 7.732525
_cell_length_b 25.728105
_cell_length_c 19.429661
_cell_angle_alpha 90.000000
_cell_angle_beta 90.000000
_cell_angle_gamma 90.000000
_cell_volume 3865.399228
_symmetry_space_group_name_H-M "C M M M"
_symmetry_group_IT_number 65
_symmetry_cell_setting 'orthorhombic'
loop_
_space_group_symop_operation_xyz
x,y,z
-x,-y,z
x,-y,-z
-x,y,-z
-x,-y,-z
x,y,-z
-x,y,z
x,-y,z
1/2+x,1/2+y,z
1/2-x,1/2-y,z
1/2+x,1/2-y,-z
1/2-x,1/2+y,-z
1/2-x,1/2-y,-z
1/2+x,1/2+y,-z
1/2-x,1/2+y,z
1/2+x,1/2-y,z
loop_
_atom_site_type_symbol
_atom_site_label
_atom_site_fract_x
_atom_site_fract_y
_atom_site_fract_z
Si Si1 0.705966 0.192960 0.723066
Si Si2 0.796137 0.082691 0.223519
Si Si3 0.789932 0.056857 0.376595
Si Si4 0.297458 0.167826 0.573586
Si Si5 0.801541 0.079473 0.923621
Si Si6 0.310173 0.193939 0.918197
O O1 0.500000 0.186199 0.720005
O O2 0.750000 0.250000 0.748211
O O3 0.776966 0.145002 0.766856
O O4 0.778861 0.188835 0.644898
O O5 0.730562 0.061300 0.296589
O O6 0.722669 0.063345 0.150175
O O7 0.000000 0.070268 0.221236
O O8 0.717607 0.105609 0.417637
O O9 0.000000 0.061300 0.376974
O O10 0.743751 0.000000 0.403356
O O11 0.220311 0.183595 0.500000
O O12 0.500000 0.181887 0.572629
O O13 0.802671 0.142195 0.914865
O O14 0.000000 0.061474 0.926206
O O15 0.724355 0.068286 0.000000
O O16 0.500000 0.181916 0.888733
O O17 0.250000 0.250000 0.892611
O O18 0.328597 0.201113 0.000000
#
# Coordination Sequence:
#
# PCOD9489183 Si02
#       6
#    16  16  16  16  16  16
#     4  10  20  34  52  73  99 133 171 206 240 282
#     4   9  18  33  51  70  95 128 165 205 248 294
#     4   9  18  33  53  76 101 130 164 201 243 292
#     4   9  19  35  53  76 106 135 164 200 240 284
#     4   9  17  29  45  64  86 115 153 197 245 293
#     4   9  16  25  37  54  78 108 142 181 226 276
#
# _framework density 24.835726000000001
#
# number of rings (size 3 to 8) (size 9 to 14) (size 15 to 20)
#    0.000    2.833    0.000    1.000    0.000    5.333 
#    0.000    1.667    0.000    0.500    0.000    3.500 
#    0.000    0.000    0.000   12.500    0.000   13.000 
#
# Total GULP energy -267851.796297 kJ/mol
# GULP energy per Si atom -5580.245756 kJ/mol
# Density = 2.477920 g / cm^3
# Si number density = 24.835726 Si / 1000 Ang^3
#
#
#
# Elastic Constant Matrix: (Units=GPa)
#
#
# Indices 1 2 3 4 5 6 
#
# 1 55.6497 -6.3315 -0.2578 0.0000 0.0000 0.0000
# 2 -6.3315 100.3951 -6.4168 0.0000 0.0000 0.0000
# 3 -0.2578 -6.4168 199.1499 0.0000 0.0000 0.0000
# 4 0.0000 0.0000 0.0000 14.8731 0.0000 0.0000
# 5 0.0000 0.0000 0.0000 0.0000 50.2357 0.0000
# 6 0.0000 0.0000 0.0000 0.0000 0.0000 -4.3954
#
#
#
# Elastic Compliance Matrix: (Units=1/GPa)
#
#
# Indices 1 2 3 4 5 6 
#
# 1 0.018100 0.001145 0.000060 0.000000 0.000000 0.000000
# 2 0.001145 0.010054 0.000325 0.000000 0.000000 0.000000
# 3 0.000060 0.000325 0.005032 0.000000 0.000000 0.000000
# 4 0.000000 0.000000 0.000000 0.067236 0.000000 0.000000
# 5 0.000000 0.000000 0.000000 0.000000 0.019906 0.000000
# 6 0.000000 0.000000 0.000000 0.000000 0.000000 -0.227512
#
#
# Mechanical properties :
#
#
# Convention : Reuss Voigt Hill
#
# Bulk Modulus (GPa) = 27.58778 36.57586 32.08182
# Shear Modulus (GPa) = -50.93532 36.68939 -7.12297
#
# Velocity S-wave (km/s) = -4.53359 3.84771 -1.69536
# Velocity P-wave (km/s) = 4.03390 5.87358 3.01883
#
# Compressibility (1/GPa) = 0.03624793
#
# Stress axis : x y z
#
# Youngs Moduli (GPa) = 55.24816 99.46615 198.73184
#
# Poissons Ratio (x) = -0.11392 -0.01199
# Poissons Ratio (y) = -0.06328 -0.06467
# Poissons Ratio (z) = -0.00333 -0.03237
#
# Static dielectric constant tensor:
#      x y z
#    x 1.968690 0.000000 0.000000 
#    y 0.000000 1.958150 0.000000 
#    z 0.000000 0.000000 2.048700 
# 
# From -- ./inp_files/60206.got.cif
#   From: 2010.05.17/outbox.cif.g08.bks.cpg/sg65_31_cif.got.tgz:60206.got - 2010.06.03 17:01:31.
