data_PCOD9489701
_publ_section_title
;
Structure prediction by ZEFSAII (Michael W. Deem and Ramdas Pophale) SiO2 
 PCOD9489701
Probable space group: C M M M
;
_chemical_formula_sum "Si O2"
_cell_formula_units_Z 104
_cell_length_a 29.685244
_cell_length_b 8.775413
_cell_length_c 20.710302
_cell_angle_alpha 90.000000
_cell_angle_beta 90.000000
_cell_angle_gamma 90.000000
_cell_volume 5395.039389
_symmetry_space_group_name_H-M "C M M M"
_symmetry_group_IT_number 65
_symmetry_cell_setting 'orthorhombic'
loop_
_space_group_symop_operation_xyz
x,y,z
-x,-y,z
x,-y,-z
-x,y,-z
-x,-y,-z
x,y,-z
-x,y,z
x,-y,z
1/2+x,1/2+y,z
1/2-x,1/2-y,z
1/2+x,1/2-y,-z
1/2-x,1/2+y,-z
1/2-x,1/2-y,-z
1/2+x,1/2+y,-z
1/2-x,1/2+y,z
1/2+x,1/2-y,z
loop_
_atom_site_type_symbol
_atom_site_label
_atom_site_fract_x
_atom_site_fract_y
_atom_site_fract_z
Si Si1 0.894353 0.683354 0.121975
Si Si2 0.859376 0.181438 0.570754
Si Si3 0.701106 0.182398 0.682691
Si Si4 0.201352 0.316792 0.831783
Si Si5 0.947194 0.183170 0.000000
Si Si6 0.948485 0.681602 0.616023
Si Si7 0.447164 0.679044 0.758135
O O1 0.896864 0.500000 0.119605
O O2 0.841529 0.727941 0.125169
O O3 0.921463 0.753493 0.062495
O O4 0.917326 0.743175 0.187373
O O5 0.841225 0.227112 0.500000
O O6 0.833859 0.257119 0.630490
O O7 0.911089 0.232590 0.575330
O O8 0.855945 0.000000 0.576483
O O9 0.750000 0.250000 0.666990
O O10 0.691252 0.228196 0.757050
O O11 0.702207 0.000000 0.680461
O O12 0.204692 0.500000 0.833067
O O13 0.250000 0.250000 0.849722
O O14 0.000000 0.228788 0.000000
O O15 0.945621 0.000000 0.000000
O O16 0.942008 0.500000 0.611850
O O17 0.942363 0.736297 0.689941
O O18 0.000000 0.716582 0.597353
O O19 0.500000 0.688819 0.776870
O O20 0.435937 0.500000 0.750898
#
# Coordination Sequence:
#
# PCOD9489701 Si02
#       7
#    16  16  16  16   8  16  16
#     4  11  22  37  59  87 118 152 192 236 283 333
#     4  11  24  39  55  78 109 147 191 236 286 347
#     4  10  20  37  61  87 116 148 184 231 286 342
#     4   9  20  37  59  88 116 143 181 229 279 334
#     4  11  25  43  60  83 118 159 202 239 276 331
#     4  10  21  37  57  81 109 143 186 236 289 344
#     4  10  20  34  55  84 115 147 185 230 282 340
#
# _framework density 19.276966999999999
#
# number of rings (size 3 to 8) (size 9 to 14) (size 15 to 20)
#    0.000    1.769    0.000    3.923    0.000    9.231 
#    0.000    1.923    0.000    0.000    0.000    0.000 
#    0.000    0.000    0.000    0.000    0.000    0.000 
#
# Total GULP energy -290573.393085 kJ/mol
# GULP energy per Si atom -5587.949867 kJ/mol
# Density = 1.923309 g / cm^3
# Si number density = 19.276967 Si / 1000 Ang^3
#
#
#
# Elastic Constant Matrix: (Units=GPa)
#
#
# Indices 1 2 3 4 5 6 
#
# 1 120.7417 34.6970 59.4268 0.0000 0.0000 0.0000
# 2 34.6970 45.9387 15.1046 0.0000 0.0000 0.0000
# 3 59.4268 15.1046 47.4563 0.0000 0.0000 0.0000
# 4 0.0000 0.0000 0.0000 11.5567 0.0000 0.0000
# 5 0.0000 0.0000 0.0000 0.0000 24.0504 0.0000
# 6 0.0000 0.0000 0.0000 0.0000 0.0000 36.3950
#
#
#
# Elastic Compliance Matrix: (Units=1/GPa)
#
#
# Indices 1 2 3 4 5 6 
#
# 1 0.024833 -0.009529 -0.028064 0.000000 0.000000 0.000000
# 2 -0.009529 0.027969 0.003030 0.000000 0.000000 0.000000
# 3 -0.028064 0.003030 0.055251 0.000000 0.000000 0.000000
# 4 0.000000 0.000000 0.000000 0.086530 0.000000 0.000000
# 5 0.000000 0.000000 0.000000 0.000000 0.041579 0.000000
# 6 0.000000 0.000000 0.000000 0.000000 0.000000 0.027476
#
#
# Mechanical properties :
#
#
# Convention : Reuss Voigt Hill
#
# Bulk Modulus (GPa) = 25.68894 48.06595 36.87745
# Shear Modulus (GPa) = 14.46178 21.39431 17.92805
#
# Velocity S-wave (km/s) = 2.74197 3.33504 3.05294
# Velocity P-wave (km/s) = 4.83525 6.31019 5.62131
#
# Compressibility (1/GPa) = 0.03892725
#
# Stress axis : x y z
#
# Youngs Moduli (GPa) = 40.26902 35.75421 18.09934
#
# Poissons Ratio (x) = 0.34069 0.50794
# Poissons Ratio (y) = 0.38371 -0.05485
# Poissons Ratio (z) = 1.13011 -0.10834
#
# Static dielectric constant tensor:
#      x y z
#    x 1.677930 0.000000 0.000000 
#    y 0.000000 1.642140 0.000000 
#    z 0.000000 0.000000 1.671410 
# 
# From -- ./inp_files/66329.got.cif
#   From: 2010.05.17/outbox.cif.g08.bks.cpg/sg65_34_cif.got.tgz:66329.got - 2010.06.03 17:01:31.
