data_PCOD9489179
_publ_section_title
;
Structure prediction by ZEFSAII (Michael W. Deem and Ramdas Pophale) SiO2 
 PCOD9489179
Probable space group: C M M M
;
_chemical_formula_sum "Si O2"
_cell_formula_units_Z 96
_cell_length_a 8.691442
_cell_length_b 28.124990
_cell_length_c 24.100514
_cell_angle_alpha 90.000000
_cell_angle_beta 90.000000
_cell_angle_gamma 90.000000
_cell_volume 5891.291582
_symmetry_space_group_name_H-M "C M M M"
_symmetry_group_IT_number 65
_symmetry_cell_setting 'orthorhombic'
loop_
_space_group_symop_operation_xyz
x,y,z
-x,-y,z
x,-y,-z
-x,y,-z
-x,-y,-z
x,y,-z
-x,y,z
x,-y,z
1/2+x,1/2+y,z
1/2-x,1/2-y,z
1/2+x,1/2-y,-z
1/2-x,1/2+y,-z
1/2-x,1/2-y,-z
1/2+x,1/2+y,-z
1/2-x,1/2+y,z
1/2+x,1/2-y,z
loop_
_atom_site_type_symbol
_atom_site_label
_atom_site_fract_x
_atom_site_fract_y
_atom_site_fract_z
Si Si1 0.816344 0.857503 0.166125
Si Si2 0.815518 0.555212 0.772060
Si Si3 0.816915 0.109341 0.667028
Si Si4 0.815181 0.555364 0.564481
Si Si5 0.684062 0.197665 0.271801
Si Si6 0.683917 0.197473 0.935403
O O1 0.754311 0.909565 0.182151
O O2 0.747430 0.822625 0.213335
O O3 0.758959 0.839278 0.106924
O O4 0.000000 0.856469 0.169560
O O5 0.780066 0.500000 0.781356
O O6 0.747276 0.573018 0.713555
O O7 0.000000 0.561113 0.770424
O O8 0.768037 0.089518 0.607480
O O9 0.742263 0.159941 0.682560
O O10 0.000000 0.112695 0.672223
O O11 0.778686 0.565054 0.500000
O O12 0.775719 0.500000 0.575761
O O13 0.000000 0.559730 0.571110
O O14 0.500000 0.198403 0.270220
O O15 0.750000 0.250000 0.281342
O O16 0.500000 0.198080 0.928108
O O17 0.750000 0.250000 0.923523
O O18 0.717725 0.186821 0.000000
#
# Coordination Sequence:
#
# PCOD9489179 Si02
#       6
#    16  16  16  16  16  16
#     4  11  21  33  51  75 103 132 164 202 246 294
#     4  10  20  34  52  73  99 132 168 204 245 293
#     4  11  21  32  49  75 104 132 164 202 247 295
#     4   9  18  33  52  73  99 133 170 205 244 291
#     4  11  21  35  53  73 100 131 166 204 245 293
#     4  10  20  34  52  74 101 132 166 203 244 291
#
# _framework density 16.295238000000001
#
# number of rings (size 3 to 8) (size 9 to 14) (size 15 to 20)
#    0.000    1.667    0.000    9.000    0.000    5.000 
#    0.000    0.833    0.000    1.000    0.000    3.500 
#    0.000    0.000    0.000    0.000    0.000    0.000 
#
# Total GULP energy -268130.066716 kJ/mol
# GULP energy per Si atom -5586.043057 kJ/mol
# Density = 1.625815 g / cm^3
# Si number density = 16.295238 Si / 1000 Ang^3
#
#
#
# Elastic Constant Matrix: (Units=GPa)
#
#
# Indices 1 2 3 4 5 6 
#
# 1 131.7652 79.7158 59.4684 0.0000 0.0000 0.0000
# 2 79.7158 144.0259 76.9589 0.0000 0.0000 0.0000
# 3 59.4684 76.9589 86.3553 0.0000 0.0000 0.0000
# 4 0.0000 0.0000 0.0000 20.3438 0.0000 0.0000
# 5 0.0000 0.0000 0.0000 0.0000 22.2155 0.0000
# 6 0.0000 0.0000 0.0000 0.0000 0.0000 28.1138
#
#
#
# Elastic Compliance Matrix: (Units=1/GPa)
#
#
# Indices 1 2 3 4 5 6 
#
# 1 0.012293 -0.004354 -0.004585 0.000000 0.000000 0.000000
# 2 -0.004354 0.014797 -0.010189 0.000000 0.000000 0.000000
# 3 -0.004585 -0.010189 0.023818 0.000000 0.000000 0.000000
# 4 0.000000 0.000000 0.000000 0.049155 0.000000 0.000000
# 5 0.000000 0.000000 0.000000 0.000000 0.045014 0.000000
# 6 0.000000 0.000000 0.000000 0.000000 0.000000 0.035570
#
#
# Mechanical properties :
#
#
# Convention : Reuss Voigt Hill
#
# Bulk Modulus (GPa) = 79.03938 88.27030 83.65484
# Shear Modulus (GPa) = 22.40947 23.86816 23.13882
#
# Velocity S-wave (km/s) = 3.71241 3.83133 3.77234
# Velocity P-wave (km/s) = 8.18449 8.59413 8.39181
#
# Compressibility (1/GPa) = 0.01265192
#
# Stress axis : x y z
#
# Youngs Moduli (GPa) = 81.34982 67.58007 41.98465
#
# Poissons Ratio (x) = 0.29421 0.19252
# Poissons Ratio (y) = 0.35416 0.42779
# Poissons Ratio (z) = 0.37302 0.68858
#
# Static dielectric constant tensor:
#      x y z
#    x 1.542660 0.000000 0.000000 
#    y 0.000000 1.529920 0.000000 
#    z 0.000000 0.000000 1.533830 
# 
# From -- ./inp_files/68056.got.cif
#   From: 2010.05.17/outbox.cif.g08.bks.cpg/sg65_35_cif.got.tgz:68056.got - 2010.06.03 17:01:31.
