data_PCOD9489042
_publ_section_title
;
Structure prediction by ZEFSAII (Michael W. Deem and Ramdas Pophale) SiO2 
 PCOD9489042
Probable space group: C M M M
;
_chemical_formula_sum "Si O2"
_cell_formula_units_Z 64
_cell_length_a 8.069852
_cell_length_b 29.088566
_cell_length_c 18.723112
_cell_angle_alpha 90.000000
_cell_angle_beta 90.000000
_cell_angle_gamma 90.000000
_cell_volume 4395.071222
_symmetry_space_group_name_H-M "C M M M"
_symmetry_group_IT_number 65
_symmetry_cell_setting 'orthorhombic'
loop_
_space_group_symop_operation_xyz
x,y,z
-x,-y,z
x,-y,-z
-x,y,-z
-x,-y,-z
x,y,-z
-x,y,z
x,-y,z
1/2+x,1/2+y,z
1/2-x,1/2-y,z
1/2+x,1/2-y,-z
1/2-x,1/2+y,-z
1/2-x,1/2-y,-z
1/2+x,1/2+y,-z
1/2-x,1/2+y,z
1/2+x,1/2-y,z
loop_
_atom_site_type_symbol
_atom_site_label
_atom_site_fract_x
_atom_site_fract_y
_atom_site_fract_z
Si Si1 0.000000 0.055105 0.658674
Si Si2 0.313021 0.944117 0.082747
Si Si3 0.190110 0.799820 0.586671
Si Si4 0.500000 0.443977 0.824476
Si Si5 0.815540 0.601730 0.413747
O O1 0.835398 0.074440 0.621000
O O2 0.000000 0.069269 0.741791
O O3 0.000000 0.000000 0.654527
O O4 0.500000 0.929550 0.102890
O O5 0.165413 0.928495 0.134011
O O6 0.312550 0.000000 0.084341
O O7 0.282933 0.931128 0.000000
O O8 0.194660 0.797990 0.500000
O O9 0.250000 0.750000 0.612360
O O10 0.295292 0.844470 0.606542
O O11 0.000000 0.807619 0.607768
O O12 0.500000 0.500000 0.826552
O O13 0.800873 0.598861 0.500000
O O14 0.000000 0.585445 0.393801
#
# Coordination Sequence:
#
# PCOD9489042 Si02
#       5
#     8  16  16   8  16
#     4  11  23  35  45  59  83 119 159 195 224 253
#     4   8  13  22  38  59  80 101 129 169 213 254
#     4   9  15  25  44  69  91 105 122 162 223 283
#     4   9  17  27  39  55  77 107 143 179 213 250
#     4  10  20  34  49  63  81 107 145 193 236 272
#
# _framework density 14.561767
#
# number of rings (size 3 to 8) (size 9 to 14) (size 15 to 20)
#    0.000    2.750    1.250    2.250    0.000    7.000 
#    0.000    3.750    0.000    0.000    0.000    0.000 
#    0.000    0.000    0.000    0.000    0.000    5.000 
#
# Total GULP energy -178150.766602 kJ/mol
# GULP energy per Si atom -5567.211456 kJ/mol
# Density = 1.452862 g / cm^3
# Si number density = 14.561767 Si / 1000 Ang^3
#
#
#
# Elastic Constant Matrix: (Units=GPa)
#
#
# Indices 1 2 3 4 5 6 
#
# 1 150.5006 35.3508 64.3004 0.0000 0.0000 0.0000
# 2 35.3508 43.0101 20.8942 0.0000 0.0000 0.0000
# 3 64.3004 20.8942 56.6976 0.0000 0.0000 0.0000
# 4 0.0000 0.0000 0.0000 -1.8771 0.0000 0.0000
# 5 0.0000 0.0000 0.0000 0.0000 6.4032 0.0000
# 6 0.0000 0.0000 0.0000 0.0000 0.0000 16.6507
#
#
#
# Elastic Compliance Matrix: (Units=1/GPa)
#
#
# Indices 1 2 3 4 5 6 
#
# 1 0.013563 -0.004477 -0.013732 0.000000 0.000000 0.000000
# 2 -0.004477 0.029798 -0.005904 0.000000 0.000000 0.000000
# 3 -0.013732 -0.005904 0.035386 0.000000 0.000000 0.000000
# 4 0.000000 0.000000 0.000000 -0.532731 0.000000 0.000000
# 5 0.000000 0.000000 0.000000 0.000000 0.156172 0.000000
# 6 0.000000 0.000000 0.000000 0.000000 0.000000 0.060057
#
#
# Mechanical properties :
#
#
# Convention : Reuss Voigt Hill
#
# Bulk Modulus (GPa) = 32.76332 54.58879 43.67606
# Shear Modulus (GPa) = -27.87753 12.87956 -7.49898
#
# Velocity S-wave (km/s) = -4.38017 2.97724 -2.27177
# Velocity P-wave (km/s) = 1.74149 7.02764 4.81430
#
# Compressibility (1/GPa) = 0.03052194
#
# Stress axis : x y z
#
# Youngs Moduli (GPa) = 73.73112 33.55917 28.25952
#
# Poissons Ratio (x) = 0.15023 0.38805
# Poissons Ratio (y) = 0.33007 0.16685
# Poissons Ratio (z) = 1.01246 0.19814
#
# Static dielectric constant tensor:
#      x y z
#    x 1.508250 0.000000 0.000000 
#    y 0.000000 1.476430 0.000000 
#    z 0.000000 0.000000 1.465730 
# 
# From -- ./inp_files/36335.got.cif
#   From: 2010.05.17/outbox.cif.g08.bks.cpg/sg65_19_cif.got.tgz:36335.got - 2010.06.03 17:01:31.
