data_PCOD9489371
_publ_section_title
;
Structure prediction by ZEFSAII (Michael W. Deem and Ramdas Pophale) SiO2 
 PCOD9489371
Probable space group: C M M M
;
_chemical_formula_sum "Si O2"
_cell_formula_units_Z 104
_cell_length_a 30.453445
_cell_length_b 23.950896
_cell_length_c 8.422566
_cell_angle_alpha 90.000000
_cell_angle_beta 90.000000
_cell_angle_gamma 90.000000
_cell_volume 6143.312624
_symmetry_space_group_name_H-M "C M M M"
_symmetry_group_IT_number 65
_symmetry_cell_setting 'orthorhombic'
loop_
_space_group_symop_operation_xyz
x,y,z
-x,-y,z
x,-y,-z
-x,y,-z
-x,-y,-z
x,y,-z
-x,y,z
x,-y,z
1/2+x,1/2+y,z
1/2-x,1/2-y,z
1/2+x,1/2-y,-z
1/2-x,1/2+y,-z
1/2-x,1/2-y,-z
1/2+x,1/2+y,-z
1/2-x,1/2+y,z
1/2+x,1/2-y,z
loop_
_atom_site_type_symbol
_atom_site_label
_atom_site_fract_x
_atom_site_fract_y
_atom_site_fract_z
Si Si1 0.626343 0.436058 0.188767
Si Si2 0.450186 0.642331 0.312195
Si Si3 0.550341 0.236090 0.187259
Si Si4 0.688986 0.935627 0.188709
Si Si5 0.595882 0.880031 0.189616
Si Si6 0.781327 0.064553 0.311275
Si Si7 0.448018 0.065575 0.500000
O O1 0.622112 0.500000 0.251449
O O2 0.585608 0.398613 0.239815
O O3 0.673113 0.411742 0.246284
O O4 0.627608 0.438721 0.000000
O O5 0.450714 0.633555 0.500000
O O6 0.500000 0.633012 0.250300
O O7 0.439179 0.706968 0.277470
O O8 0.500000 0.218928 0.229402
O O9 0.583314 0.184849 0.210875
O O10 0.550475 0.249272 0.000000
O O11 0.646327 0.897863 0.215772
O O12 0.734190 0.912257 0.260147
O O13 0.681477 0.000000 0.246945
O O14 0.695070 0.938851 0.000000
O O15 0.570308 0.910291 0.333291
O O16 0.585464 0.893668 0.000000
O O17 0.783658 0.064411 0.500000
O O18 0.780326 0.000000 0.252303
O O19 0.500000 0.074655 0.500000
O O20 0.438277 0.000000 0.500000
#
# Coordination Sequence:
#
# PCOD9489371 Si02
#       7
#    16  16  16  16  16  16   8
#     4  10  20  34  53  77 107 141 174 209 255 316
#     4  10  21  35  53  78 106 137 173 217 265 311
#     4   9  18  34  55  76  99 133 180 227 268 314
#     4   9  17  30  49  74 104 137 175 219 267 320
#     4  10  21  36  55  78 106 143 184 230 278 324
#     4   9  17  29  48  74 103 136 172 212 259 312
#     4  11  24  36  50  76 108 143 181 225 278 337
#
# _framework density 16.928978000000001
#
# number of rings (size 3 to 8) (size 9 to 14) (size 15 to 20)
#    0.000    2.385    0.000    2.308    2.154    5.846 
#    0.000    2.308    0.000    0.923    0.000    6.462 
#    0.000    0.000    0.000    0.000    0.000    0.000 
#
# Total GULP energy -289624.756130 kJ/mol
# GULP energy per Si atom -5569.706849 kJ/mol
# Density = 1.689045 g / cm^3
# Si number density = 16.928978 Si / 1000 Ang^3
#
#
#
# Elastic Constant Matrix: (Units=GPa)
#
#
# Indices 1 2 3 4 5 6 
#
# 1 182.2401 64.9057 75.4463 0.0000 0.0000 0.0000
# 2 64.9057 56.7872 31.3599 0.0000 0.0000 0.0000
# 3 75.4463 31.3599 65.7429 0.0000 0.0000 0.0000
# 4 0.0000 0.0000 0.0000 23.6691 0.0000 0.0000
# 5 0.0000 0.0000 0.0000 0.0000 31.5197 0.0000
# 6 0.0000 0.0000 0.0000 0.0000 0.0000 20.2161
#
#
#
# Elastic Compliance Matrix: (Units=1/GPa)
#
#
# Indices 1 2 3 4 5 6 
#
# 1 0.013216 -0.009137 -0.010808 0.000000 0.000000 0.000000
# 2 -0.009137 0.030224 -0.003932 0.000000 0.000000 0.000000
# 3 -0.010808 -0.003932 0.029490 0.000000 0.000000 0.000000
# 4 0.000000 0.000000 0.000000 0.042249 0.000000 0.000000
# 5 0.000000 0.000000 0.000000 0.000000 0.031726 0.000000
# 6 0.000000 0.000000 0.000000 0.000000 0.000000 0.049465
#
#
# Mechanical properties :
#
#
# Convention : Reuss Voigt Hill
#
# Bulk Modulus (GPa) = 39.72037 72.02155 55.87096
# Shear Modulus (GPa) = 19.80077 23.95154 21.87615
#
# Velocity S-wave (km/s) = 3.42371 3.76550 3.59866
# Velocity P-wave (km/s) = 6.25643 7.84481 7.09521
#
# Compressibility (1/GPa) = 0.02517600
#
# Stress axis : x y z
#
# Youngs Moduli (GPa) = 75.66676 33.08668 33.90999
#
# Poissons Ratio (x) = 0.30230 0.36651
# Poissons Ratio (y) = 0.69133 0.13333
# Poissons Ratio (z) = 0.81783 0.13009
#
# Static dielectric constant tensor:
#      x y z
#    x 1.586190 0.000000 0.000000 
#    y 0.000000 1.559730 0.000000 
#    z 0.000000 0.000000 1.584710 
# 
# From -- ./inp_files/16757.got.cif
#   From: 2010.05.17/outbox.cif.g08.bks.cpg/sg65_9_cif.got.tgz:16757.got - 2010.06.03 17:01:31.
