data_PCOD9489687
_publ_section_title
;
Structure prediction by ZEFSAII (Michael W. Deem and Ramdas Pophale) SiO2 
 PCOD9489687
Probable space group: C M M M
;
_chemical_formula_sum "Si O2"
_cell_formula_units_Z 104
_cell_length_a 20.987681
_cell_length_b 8.916666
_cell_length_c 30.605244
_cell_angle_alpha 90.000000
_cell_angle_beta 90.000000
_cell_angle_gamma 90.000000
_cell_volume 5727.469696
_symmetry_space_group_name_H-M "C M M M"
_symmetry_group_IT_number 65
_symmetry_cell_setting 'orthorhombic'
loop_
_space_group_symop_operation_xyz
x,y,z
-x,-y,z
x,-y,-z
-x,y,-z
-x,-y,-z
x,y,-z
-x,y,z
x,-y,z
1/2+x,1/2+y,z
1/2-x,1/2-y,z
1/2+x,1/2-y,-z
1/2-x,1/2+y,-z
1/2-x,1/2-y,-z
1/2+x,1/2+y,-z
1/2-x,1/2+y,z
1/2+x,1/2-y,z
loop_
_atom_site_type_symbol
_atom_site_label
_atom_site_fract_x
_atom_site_fract_y
_atom_site_fract_z
Si Si1 0.926500 0.319130 0.295929
Si Si2 0.818062 0.821410 0.051905
Si Si3 0.314248 0.819554 0.639519
Si Si4 0.133178 0.319330 0.450479
Si Si5 0.922869 0.171221 0.795636
Si Si6 0.000000 0.168905 0.447332
Si Si7 0.925205 0.679665 0.887342
O O1 0.926183 0.500000 0.292597
O O2 0.876830 0.274943 0.333343
O O3 0.905195 0.250436 0.249655
O O4 0.000000 0.273470 0.305012
O O5 0.750000 0.750000 0.064985
O O6 0.876895 0.750720 0.078031
O O7 0.816152 0.000000 0.058955
O O8 0.825968 0.793542 0.000000
O O9 0.250000 0.750000 0.658145
O O10 0.321941 0.770902 0.589001
O O11 0.310330 0.000000 0.640532
O O12 0.148628 0.267369 0.500000
O O13 0.131531 0.500000 0.451409
O O14 0.063595 0.259537 0.437295
O O15 0.905890 0.261287 0.839275
O O16 0.000000 0.167801 0.795205
O O17 0.899738 0.000000 0.797640
O O18 0.000000 0.157366 0.500000
O O19 0.000000 0.000000 0.429347
O O20 0.921435 0.500000 0.888671
O O21 0.000000 0.721516 0.894827
#
# Coordination Sequence:
#
# PCOD9489687 Si02
#       7
#    16  16  16  16  16   8  16
#     4   9  18  34  56  78 101 134 175 216 260 318
#     4  10  21  37  56  78 109 150 193 236 281 329
#     4  10  22  37  54  76 106 140 174 215 263 312
#     4   9  18  33  53  75 101 137 177 212 253 310
#     4   9  17  31  53  81 110 137 171 220 274 325
#     4   9  17  29  47  75 105 129 159 207 259 295
#     4  10  20  34  55  83 114 147 184 228 277 328
#
# _framework density 18.158107000000001
#
# number of rings (size 3 to 8) (size 9 to 14) (size 15 to 20)
#    0.000    2.538    0.000    1.615    1.077    6.462 
#    0.000    2.308    0.000    1.846    0.000    0.000 
#    0.000    0.000    0.000    0.000    0.000    0.000 
#
# Total GULP energy -289908.181237 kJ/mol
# GULP energy per Si atom -5575.157331 kJ/mol
# Density = 1.811678 g / cm^3
# Si number density = 18.158107 Si / 1000 Ang^3
#
#
#
# Elastic Constant Matrix: (Units=GPa)
#
#
# Indices 1 2 3 4 5 6 
#
# 1 111.6293 39.0231 73.2122 0.0000 0.0000 0.0000
# 2 39.0231 36.0748 46.3888 0.0000 0.0000 0.0000
# 3 73.2122 46.3888 110.4408 0.0000 0.0000 0.0000
# 4 0.0000 0.0000 0.0000 20.3744 0.0000 0.0000
# 5 0.0000 0.0000 0.0000 0.0000 1.5245 0.0000
# 6 0.0000 0.0000 0.0000 0.0000 0.0000 25.4158
#
#
#
# Elastic Compliance Matrix: (Units=1/GPa)
#
#
# Indices 1 2 3 4 5 6 
#
# 1 0.016957 -0.008455 -0.007690 0.000000 0.000000 0.000000
# 2 -0.008455 0.064493 -0.021485 0.000000 0.000000 0.000000
# 3 -0.007690 -0.021485 0.023177 0.000000 0.000000 0.000000
# 4 0.000000 0.000000 0.000000 0.049081 0.000000 0.000000
# 5 0.000000 0.000000 0.000000 0.000000 0.655969 0.000000
# 6 0.000000 0.000000 0.000000 0.000000 0.000000 0.039346
#
#
# Mechanical properties :
#
#
# Convention : Reuss Voigt Hill
#
# Bulk Modulus (GPa) = 34.04993 63.93257 48.99125
# Shear Modulus (GPa) = 5.35292 16.09765 10.72528
#
# Velocity S-wave (km/s) = 1.71882 2.98069 2.43299
# Velocity P-wave (km/s) = 4.76778 6.86522 5.91029
#
# Compressibility (1/GPa) = 0.02936863
#
# Stress axis : x y z
#
# Youngs Moduli (GPa) = 58.97220 15.50556 43.14713
#
# Poissons Ratio (x) = 0.13109 0.33179
# Poissons Ratio (y) = 0.49859 0.92700
# Poissons Ratio (z) = 0.45349 0.33313
#
# Static dielectric constant tensor:
#      x y z
#    x 1.605650 0.000000 0.000000 
#    y 0.000000 1.618730 0.000000 
#    z 0.000000 0.000000 1.624940 
# 
# From -- ./inp_files/78251.got.cif
#   From: 2010.05.17/outbox.cif.g08.bks.cpg/sg65_40_cif.got.tgz:78251.got - 2010.06.03 17:01:31.
