data_PCOD9489097
_publ_section_title
;
Structure prediction by ZEFSAII (Michael W. Deem and Ramdas Pophale) SiO2 
 PCOD9489097
Probable space group: C M M M
;
_chemical_formula_sum "Si O2"
_cell_formula_units_Z 104
_cell_length_a 30.033003
_cell_length_b 7.591212
_cell_length_c 20.901293
_cell_angle_alpha 90.000000
_cell_angle_beta 90.000000
_cell_angle_gamma 90.000000
_cell_volume 4765.220846
_symmetry_space_group_name_H-M "C M M M"
_symmetry_group_IT_number 65
_symmetry_cell_setting 'orthorhombic'
loop_
_space_group_symop_operation_xyz
x,y,z
-x,-y,z
x,-y,-z
-x,y,-z
-x,-y,-z
x,y,-z
-x,y,z
x,-y,z
1/2+x,1/2+y,z
1/2-x,1/2-y,z
1/2+x,1/2-y,-z
1/2-x,1/2+y,-z
1/2-x,1/2-y,-z
1/2+x,1/2+y,-z
1/2-x,1/2+y,z
1/2+x,1/2-y,z
loop_
_atom_site_type_symbol
_atom_site_label
_atom_site_fract_x
_atom_site_fract_y
_atom_site_fract_z
Si Si1 0.549547 0.293420 0.336972
Si Si2 0.200021 0.209957 0.113308
Si Si3 0.199988 0.789505 0.258988
Si Si4 0.697643 0.288770 0.500000
Si Si5 0.551564 0.212249 0.809499
Si Si6 0.357603 0.283188 0.623007
Si Si7 0.605088 0.794085 0.931140
O O1 0.500000 0.215592 0.345252
O O2 0.546381 0.500000 0.352463
O O3 0.561415 0.280900 0.261525
O O4 0.591248 0.222643 0.376663
O O5 0.250000 0.250000 0.090370
O O6 0.196049 0.279261 0.186569
O O7 0.158293 0.282731 0.075142
O O8 0.195360 0.000000 0.113727
O O9 0.250000 0.750000 0.281549
O O10 0.165245 0.723830 0.310922
O O11 0.195048 0.000000 0.255028
O O12 0.693561 0.500000 0.500000
O O13 0.750000 0.250000 0.500000
O O14 0.672107 0.225005 0.436666
O O15 0.500000 0.255240 0.823815
O O16 0.582785 0.279715 0.866680
O O17 0.555460 0.000000 0.805515
O O18 0.357573 0.500000 0.623348
O O19 0.592403 0.000000 0.932088
O O20 0.591575 0.717076 0.000000
#
# Coordination Sequence:
#
# PCOD9489097 Si02
#       7
#    16  16  16   8  16  16  16
#     4   9  17  31  52  75  98 126 162 202 245 293
#     4  10  20  34  52  72  95 125 162 206 253 298
#     4   9  17  29  46  68  93 119 152 195 241 287
#     4  10  20  34  51  71 101 137 170 202 237 284
#     4   9  18  33  53  77 103 129 160 202 250 296
#     4   9  17  30  48  71  99 130 161 197 241 283
#     4  10  21  35  50  70  97 129 164 200 241 295
#
# _framework density 21.824801999999998
#
# number of rings (size 3 to 8) (size 9 to 14) (size 15 to 20)
#    0.000    2.615    0.000    1.846    0.000    3.385 
#    0.000    3.462    0.000    2.308    0.000    3.231 
#    0.000    3.077    0.000    0.000    0.000    0.000 
#
# Total GULP energy -290280.201375 kJ/mol
# GULP energy per Si atom -5582.311565 kJ/mol
# Density = 2.177513 g / cm^3
# Si number density = 21.824802 Si / 1000 Ang^3
#
#
#
# Elastic Constant Matrix: (Units=GPa)
#
#
# Indices 1 2 3 4 5 6 
#
# 1 137.1543 -5.8735 64.7549 0.0000 0.0000 0.0000
# 2 -5.8735 49.8233 -2.1942 0.0000 0.0000 0.0000
# 3 64.7549 -2.1942 56.7295 0.0000 0.0000 0.0000
# 4 0.0000 0.0000 0.0000 5.9721 0.0000 0.0000
# 5 0.0000 0.0000 0.0000 0.0000 34.7852 0.0000
# 6 0.0000 0.0000 0.0000 0.0000 0.0000 15.8854
#
#
#
# Elastic Compliance Matrix: (Units=1/GPa)
#
#
# Indices 1 2 3 4 5 6 
#
# 1 0.015870 0.001075 -0.018074 0.000000 0.000000 0.000000
# 2 0.001075 0.020178 -0.000447 0.000000 0.000000 0.000000
# 3 -0.018074 -0.000447 0.038241 0.000000 0.000000 0.000000
# 4 0.000000 0.000000 0.000000 0.167444 0.000000 0.000000
# 5 0.000000 0.000000 0.000000 0.000000 0.028748 0.000000
# 6 0.000000 0.000000 0.000000 0.000000 0.000000 0.062951
#
#
# Mechanical properties :
#
#
# Convention : Reuss Voigt Hill
#
# Bulk Modulus (GPa) = 25.38179 39.67572 32.52875
# Shear Modulus (GPa) = 13.10766 23.79654 18.45210
#
# Velocity S-wave (km/s) = 2.45334 3.30562 2.91084
# Velocity P-wave (km/s) = 4.43624 5.72609 5.12193
#
# Compressibility (1/GPa) = 0.03939832
#
# Stress axis : x y z
#
# Youngs Moduli (GPa) = 63.01042 49.55891 26.14985
#
# Poissons Ratio (x) = -0.05327 0.47263
# Poissons Ratio (y) = -0.06773 0.01168
# Poissons Ratio (z) = 1.13885 0.02213
#
# Static dielectric constant tensor:
#      x y z
#    x 1.808990 0.000000 0.000000 
#    y 0.000000 1.818530 0.000000 
#    z 0.000000 0.000000 1.795210 
# 
# From -- ./inp_files/65850.got.cif
#   From: 2010.05.17/outbox.cif.g08.bks.cpg/sg65_33_cif.got.tgz:65850.got - 2010.06.03 17:01:31.
