data_PCOD9489658
_publ_section_title
;
Structure prediction by ZEFSAII (Michael W. Deem and Ramdas Pophale) SiO2 
 PCOD9489658
Probable space group: C M M M
;
_chemical_formula_sum "Si O2"
_cell_formula_units_Z 88
_cell_length_a 30.460844
_cell_length_b 9.610163
_cell_length_c 17.064554
_cell_angle_alpha 90.000000
_cell_angle_beta 90.000000
_cell_angle_gamma 90.000000
_cell_volume 4995.369621
_symmetry_space_group_name_H-M "C M M M"
_symmetry_group_IT_number 65
_symmetry_cell_setting 'orthorhombic'
loop_
_space_group_symop_operation_xyz
x,y,z
-x,-y,z
x,-y,-z
-x,y,-z
-x,-y,-z
x,y,-z
-x,y,z
x,-y,z
1/2+x,1/2+y,z
1/2-x,1/2-y,z
1/2+x,1/2-y,-z
1/2-x,1/2+y,-z
1/2-x,1/2-y,-z
1/2+x,1/2+y,-z
1/2-x,1/2+y,z
1/2+x,1/2-y,z
loop_
_atom_site_type_symbol
_atom_site_label
_atom_site_fract_x
_atom_site_fract_y
_atom_site_fract_z
Si Si1 0.205657 0.834549 0.908791
Si Si2 0.123249 0.163913 0.373899
Si Si3 0.449579 0.668131 0.500000
Si Si4 0.619798 0.662761 0.187586
Si Si5 0.209749 0.658095 0.593516
Si Si6 0.051034 0.334057 0.090388
O O1 0.250000 0.750000 0.893583
O O2 0.166793 0.796221 0.849318
O O3 0.213889 0.000000 0.901421
O O4 0.192528 0.808418 0.000000
O O5 0.080283 0.204935 0.424375
O O6 0.117247 0.176129 0.280951
O O7 0.164505 0.259505 0.395187
O O8 0.132563 0.000000 0.391859
O O9 0.452599 0.500000 0.500000
O O10 0.500000 0.720911 0.500000
O O11 0.613674 0.500000 0.167767
O O12 0.582610 0.753025 0.147399
O O13 0.216569 0.647012 0.500000
O O14 0.208696 0.500000 0.625000
O O15 0.250000 0.750000 0.626215
O O16 0.056228 0.500000 0.098639
O O17 0.000000 0.301034 0.104717
O O18 0.061063 0.298231 0.000000
#
# Coordination Sequence:
#
# PCOD9489658 Si02
#       6
#    16  16   8  16  16  16
#     4   9  18  33  51  72 102 138 176 215 256 307
#     4  10  20  35  55  79 109 142 180 225 272 326
#     4   9  18  34  56  77 100 137 180 221 268 323
#     4  10  21  34  52  81 111 140 176 224 275 321
#     4  10  20  34  55  80 106 138 177 220 269 322
#     4   9  19  36  56  78 106 141 180 221 269 327
#
# _framework density 17.616315
#
# number of rings (size 3 to 8) (size 9 to 14) (size 15 to 20)
#    0.000    2.455    0.909    1.636    0.000    5.091 
#    0.000    6.364    0.000    1.091    0.000    0.000 
#    0.000    0.000    0.000    0.000    0.000    0.000 
#
# Total GULP energy -245361.370267 kJ/mol
# GULP energy per Si atom -5576.394779 kJ/mol
# Density = 1.757622 g / cm^3
# Si number density = 17.616315 Si / 1000 Ang^3
#
#
#
# Elastic Constant Matrix: (Units=GPa)
#
#
# Indices 1 2 3 4 5 6 
#
# 1 123.3165 63.6504 63.2060 0.0000 0.0000 0.0000
# 2 63.6504 66.5147 40.2521 0.0000 0.0000 0.0000
# 3 63.2060 40.2521 80.7406 0.0000 0.0000 0.0000
# 4 0.0000 0.0000 0.0000 19.4683 0.0000 0.0000
# 5 0.0000 0.0000 0.0000 0.0000 108.2051 0.0000
# 6 0.0000 0.0000 0.0000 0.0000 0.0000 35.7256
#
#
#
# Elastic Compliance Matrix: (Units=1/GPa)
#
#
# Indices 1 2 3 4 5 6 
#
# 1 0.019381 -0.013411 -0.008486 0.000000 0.000000 0.000000
# 2 -0.013411 0.030809 -0.004861 0.000000 0.000000 0.000000
# 3 -0.008486 -0.004861 0.021452 0.000000 0.000000 0.000000
# 4 0.000000 0.000000 0.000000 0.051365 0.000000 0.000000
# 5 0.000000 0.000000 0.000000 0.000000 0.009242 0.000000
# 6 0.000000 0.000000 0.000000 0.000000 0.000000 0.027991
#
#
# Mechanical properties :
#
#
# Convention : Reuss Voigt Hill
#
# Bulk Modulus (GPa) = 55.16947 67.19874 61.18410
# Shear Modulus (GPa) = 22.74809 39.57735 31.16272
#
# Velocity S-wave (km/s) = 3.59738 4.74501 4.21047
# Velocity P-wave (km/s) = 6.97424 8.26127 7.64489
#
# Compressibility (1/GPa) = 0.01812597
#
# Stress axis : x y z
#
# Youngs Moduli (GPa) = 51.59742 32.45767 46.61572
#
# Poissons Ratio (x) = 0.43528 0.39559
# Poissons Ratio (y) = 0.69196 0.22661
# Poissons Ratio (z) = 0.43786 0.15778
#
# Static dielectric constant tensor:
#      x y z
#    x 1.579580 0.000000 0.000000 
#    y 0.000000 1.593250 0.000000 
#    z 0.000000 0.000000 1.588490 
# 
# From -- ./inp_files/58033.got.cif
#   From: 2010.05.17/outbox.cif.g08.bks.cpg/sg65_30_cif.got.tgz:58033.got - 2010.06.03 17:01:31.
