data_PCOD9489200
_publ_section_title
;
Structure prediction by ZEFSAII (Michael W. Deem and Ramdas Pophale) SiO2 
 PCOD9489200
Probable space group: C M M M
;
_chemical_formula_sum "Si O2"
_cell_formula_units_Z 72
_cell_length_a 19.215744
_cell_length_b 7.741955
_cell_length_c 24.039847
_cell_angle_alpha 90.000000
_cell_angle_beta 90.000000
_cell_angle_gamma 90.000000
_cell_volume 3576.346144
_symmetry_space_group_name_H-M "C M M M"
_symmetry_group_IT_number 65
_symmetry_cell_setting 'orthorhombic'
loop_
_space_group_symop_operation_xyz
x,y,z
-x,-y,z
x,-y,-z
-x,y,-z
-x,-y,-z
x,y,-z
-x,y,z
x,-y,z
1/2+x,1/2+y,z
1/2-x,1/2-y,z
1/2+x,1/2-y,-z
1/2-x,1/2+y,-z
1/2-x,1/2-y,-z
1/2+x,1/2+y,-z
1/2-x,1/2+y,z
1/2+x,1/2-y,z
loop_
_atom_site_type_symbol
_atom_site_label
_atom_site_fract_x
_atom_site_fract_y
_atom_site_fract_z
Si Si1 0.078927 0.294496 0.395657
Si Si2 0.330461 0.707884 0.834667
Si Si3 0.668471 0.791597 0.500000
Si Si4 0.669263 0.705961 0.710237
Si Si5 0.580906 0.289195 0.938646
O O1 0.073577 0.500000 0.404501
O O2 0.127810 0.226378 0.445330
O O3 0.117685 0.268687 0.337299
O O4 0.000000 0.224573 0.396261
O O5 0.338191 0.500000 0.833379
O O6 0.250000 0.750000 0.844556
O O7 0.347750 0.772795 0.772453
O O8 0.376126 0.774209 0.885801
O O9 0.750000 0.750000 0.500000
O O10 0.664641 0.000000 0.500000
O O11 0.664295 0.500000 0.711508
O O12 0.750000 0.750000 0.698039
O O13 0.500000 0.241081 0.933701
O O14 0.583500 0.500000 0.938262
O O15 0.606253 0.233914 0.000000
#
# Coordination Sequence:
#
# PCOD9489200 Si02
#       5
#    16  16   8  16  16
#     4  10  21  37  56  78 105 135 167 205 249 296
#     4   9  18  31  48  71  98 127 160 201 246 290
#     4  10  21  37  57  79 103 134 169 204 246 294
#     4  10  20  34  52  74 102 135 170 208 250 298
#     4   8  14  26  45  68  93 123 161 202 242 287
#
# _framework density 20.132280999999999
#
# number of rings (size 3 to 8) (size 9 to 14) (size 15 to 20)
#    0.000    2.667    0.000    2.333    0.000    6.667 
#    0.000    2.222    0.000    2.667    0.000    1.556 
#    0.000    0.000    0.000    0.000    0.000    0.000 
#
# Total GULP energy -200847.706271 kJ/mol
# GULP energy per Si atom -5579.102952 kJ/mol
# Density = 2.008646 g / cm^3
# Si number density = 20.132281 Si / 1000 Ang^3
#
#
#
# Elastic Constant Matrix: (Units=GPa)
#
#
# Indices 1 2 3 4 5 6 
#
# 1 149.9140 3.5393 139.7212 0.0000 0.0000 0.0000
# 2 3.5393 31.1230 4.5159 0.0000 0.0000 0.0000
# 3 139.7212 4.5159 207.5876 0.0000 0.0000 0.0000
# 4 0.0000 0.0000 0.0000 -62.6266 0.0000 0.0000
# 5 0.0000 0.0000 0.0000 0.0000-1542.0799 0.0000
# 6 0.0000 0.0000 0.0000 0.0000 0.0000 19.0720
#
#
#
# Elastic Compliance Matrix: (Units=1/GPa)
#
#
# Indices 1 2 3 4 5 6 
#
# 1 0.017901 -0.000288 -0.012042 0.000000 0.000000 0.000000
# 2 -0.000288 0.032237 -0.000507 0.000000 0.000000 0.000000
# 3 -0.012042 -0.000507 0.012934 0.000000 0.000000 0.000000
# 4 0.000000 0.000000 0.000000 -0.015968 0.000000 0.000000
# 5 0.000000 0.000000 0.000000 0.000000 -0.000648 0.000000
# 6 0.000000 0.000000 0.000000 0.000000 0.000000 0.052433
#
#
# Mechanical properties :
#
#
# Convention : Reuss Voigt Hill
#
# Bulk Modulus (GPa) = 26.74104 76.01973 51.38039
# Shear Modulus (GPa) = 36.48871 -301.07034 -132.29082
#
# Velocity S-wave (km/s) = 4.26190 -12.24217 -8.11501
# Velocity P-wave (km/s) = 6.12617 12.72735 7.88846
#
# Compressibility (1/GPa) = 0.03739570
#
# Stress axis : x y z
#
# Youngs Moduli (GPa) = 55.86357 31.02029 77.31834
#
# Poissons Ratio (x) = 0.00895 0.93108
# Poissons Ratio (y) = 0.01611 0.03921
# Poissons Ratio (z) = 0.67272 0.01573
#
# Static dielectric constant tensor:
#      x y z
#    x 1.664870 0.000000 0.000000 
#    y 0.000000 1.751370 0.000000 
#    z 0.000000 0.000000 1.732370 
# 
# From -- ./inp_files/59252.got.cif
#   From: 2010.05.17/outbox.cif.g08.bks.cpg/sg65_30_cif.got.tgz:59252.got - 2010.06.03 17:01:31.
