data_PCOD9489796
_publ_section_title
;
Structure prediction by ZEFSAII (Michael W. Deem and Ramdas Pophale) SiO2 
 PCOD9489796
Probable space group: C M M M
;
_chemical_formula_sum "Si O2"
_cell_formula_units_Z 88
_cell_length_a 29.247816
_cell_length_b 8.098016
_cell_length_c 22.080915
_cell_angle_alpha 90.000000
_cell_angle_beta 90.000000
_cell_angle_gamma 90.000000
_cell_volume 5229.848862
_symmetry_space_group_name_H-M "C M M M"
_symmetry_group_IT_number 65
_symmetry_cell_setting 'orthorhombic'
loop_
_space_group_symop_operation_xyz
x,y,z
-x,-y,z
x,-y,-z
-x,y,-z
-x,-y,-z
x,y,-z
-x,y,z
x,-y,z
1/2+x,1/2+y,z
1/2-x,1/2-y,z
1/2+x,1/2-y,-z
1/2-x,1/2+y,-z
1/2-x,1/2-y,-z
1/2+x,1/2+y,-z
1/2-x,1/2+y,z
1/2+x,1/2-y,z
loop_
_atom_site_type_symbol
_atom_site_label
_atom_site_fract_x
_atom_site_fract_y
_atom_site_fract_z
Si Si1 0.553163 0.699060 0.432838
Si Si2 0.302388 0.302966 0.367731
Si Si3 0.444787 0.802880 0.934875
Si Si4 0.053281 0.702498 0.802693
Si Si5 0.803203 0.199180 0.500000
Si Si6 0.392072 0.804169 0.686180
O O1 0.569251 0.755100 0.500000
O O2 0.500000 0.750541 0.426171
O O3 0.554129 0.500000 0.434053
O O4 0.581988 0.751873 0.375066
O O5 0.302850 0.500000 0.369991
O O6 0.250000 0.250000 0.358122
O O7 0.319315 0.240385 0.434377
O O8 0.339296 0.245713 0.319490
O O9 0.500000 0.785855 0.934169
O O10 0.429660 0.739853 0.869040
O O11 0.435580 0.000000 0.935729
O O12 0.428559 0.734467 0.000000
O O13 0.054163 0.500000 0.803719
O O14 0.082707 0.762278 0.745950
O O15 0.000000 0.748858 0.794969
O O16 0.750000 0.250000 0.500000
O O17 0.808235 0.000000 0.500000
O O18 0.394638 0.000000 0.689436
#
# Coordination Sequence:
#
# PCOD9489796 Si02
#       6
#    16  16  16  16   8  16
#     4   9  19  35  50  62  81 113 153 194 229 258
#     4  10  20  35  51  67  86 110 141 181 227 274
#     4   7   9  15  30  52  79 114 151 180 208 244
#     4   8  14  24  37  57  89 123 151 181 214 249
#     4   8  16  30  48  64  77  96 123 164 216 263
#     4  11  21  30  44  67  92 119 147 178 221 272
#
# _framework density 16.82649
#
# number of rings (size 3 to 8) (size 9 to 14) (size 15 to 20)
#    0.000    3.091    0.000    3.818    1.273    2.182 
#    0.000    0.909    0.000    0.000    0.000    0.000 
#    0.000    3.636    0.000   21.818    0.000   18.545 
#
# Total GULP energy -244942.566635 kJ/mol
# GULP energy per Si atom -5566.876514 kJ/mol
# Density = 1.678819 g / cm^3
# Si number density = 16.826490 Si / 1000 Ang^3
#
#
#
# Elastic Constant Matrix: (Units=GPa)
#
#
# Indices 1 2 3 4 5 6 
#
# 1 67.4694 6.3196 74.2771 0.0000 0.0000 0.0000
# 2 6.3196 11.1253 12.2881 0.0000 0.0000 0.0000
# 3 74.2771 12.2881 169.2389 0.0000 0.0000 0.0000
# 4 0.0000 0.0000 0.0000 -58.8973 0.0000 0.0000
# 5 0.0000 0.0000 0.0000 0.0000 11.8812 0.0000
# 6 0.0000 0.0000 0.0000 0.0000 0.0000 18.1392
#
#
#
# Elastic Compliance Matrix: (Units=1/GPa)
#
#
# Indices 1 2 3 4 5 6 
#
# 1 0.028747 -0.002603 -0.012428 0.000000 0.000000 0.000000
# 2 -0.002603 0.097958 -0.005970 0.000000 0.000000 0.000000
# 3 -0.012428 -0.005970 0.011797 0.000000 0.000000 0.000000
# 4 0.000000 0.000000 0.000000 -0.016979 0.000000 0.000000
# 5 0.000000 0.000000 0.000000 0.000000 0.084167 0.000000
# 6 0.000000 0.000000 0.000000 0.000000 0.000000 0.055129
#
#
# Mechanical properties :
#
#
# Convention : Reuss Voigt Hill
#
# Bulk Modulus (GPa) = 10.36265 48.17814 29.27040
# Shear Modulus (GPa) = 14.92591 4.55452 9.74021
#
# Velocity S-wave (km/s) = 2.98157 1.64701 2.40857
# Velocity P-wave (km/s) = 4.24557 5.68430 5.01678
#
# Compressibility (1/GPa) = 0.09650039
#
# Stress axis : x y z
#
# Youngs Moduli (GPa) = 34.78612 10.20843 84.76932
#
# Poissons Ratio (x) = 0.02657 1.05350
# Poissons Ratio (y) = 0.09054 0.50609
# Poissons Ratio (z) = 0.43232 0.06095
#
# Static dielectric constant tensor:
#      x y z
#    x 1.557090 0.000000 0.000000 
#    y 0.000000 1.622340 0.000000 
#    z 0.000000 0.000000 1.632920 
# 
# From -- ./inp_files/60670.got.cif
#   From: 2010.05.17/outbox.cif.g08.bks.cpg/sg65_31_cif.got.tgz:60670.got - 2010.06.03 17:01:31.
