data_PCOD9489872
_publ_section_title
;
Structure prediction by ZEFSAII (Michael W. Deem and Ramdas Pophale) SiO2 
 PCOD9489872
Probable space group: C M M M
;
_chemical_formula_sum "Si O2"
_cell_formula_units_Z 104
_cell_length_a 33.627381
_cell_length_b 19.401760
_cell_length_c 9.176787
_cell_angle_alpha 90.000000
_cell_angle_beta 90.000000
_cell_angle_gamma 90.000000
_cell_volume 5987.214589
_symmetry_space_group_name_H-M "C M M M"
_symmetry_group_IT_number 65
_symmetry_cell_setting 'orthorhombic'
loop_
_space_group_symop_operation_xyz
x,y,z
-x,-y,z
x,-y,-z
-x,y,-z
-x,-y,-z
x,y,-z
-x,y,z
x,-y,z
1/2+x,1/2+y,z
1/2-x,1/2-y,z
1/2+x,1/2-y,-z
1/2-x,1/2+y,-z
1/2-x,1/2-y,-z
1/2+x,1/2+y,-z
1/2-x,1/2+y,z
1/2+x,1/2-y,z
loop_
_atom_site_type_symbol
_atom_site_label
_atom_site_fract_x
_atom_site_fract_y
_atom_site_fract_z
Si Si1 0.182007 0.416067 0.667443
Si Si2 0.238449 0.916072 0.832329
Si Si3 0.500000 0.420841 0.677943
Si Si4 0.046915 0.689995 0.674572
Si Si5 0.100541 0.581614 0.173075
Si Si6 0.656765 0.418546 0.675055
Si Si7 0.078104 0.837884 0.677316
O O1 0.180565 0.393042 0.500000
O O2 0.182973 0.500000 0.666951
O O3 0.222215 0.392638 0.746950
O O4 0.142150 0.396447 0.752935
O O5 0.197579 0.897109 0.752484
O O6 0.239480 0.000000 0.831718
O O7 0.239073 0.893628 0.000000
O O8 0.500000 0.500000 0.723763
O O9 0.500000 0.419688 0.500000
O O10 0.539891 0.382046 0.725295
O O11 0.051494 0.681256 0.500000
O O12 0.065307 0.625332 0.756908
O O13 0.070521 0.759016 0.719578
O O14 0.000000 0.699391 0.703029
O O15 0.095249 0.500000 0.201035
O O16 0.102632 0.591572 0.000000
O O17 0.661317 0.412306 0.500000
O O18 0.649397 0.500000 0.705167
O O19 0.619168 0.373174 0.723337
O O20 0.078052 0.839436 0.500000
#
# Coordination Sequence:
#
# PCOD9489872 Si02
#       7
#    16  16   8  16  16  16  16
#     4   9  16  28  49  76 103 129 160 200 247 300
#     4   9  16  26  42  67 101 138 171 204 246 294
#     4   9  14  22  42  72 102 131 166 212 261 299
#     4  10  20  35  54  74 100 134 170 208 253 306
#     4  10  21  36  54  77 103 129 161 204 252 303
#     4   9  16  26  43  70 102 135 173 214 252 291
#     4   9  16  28  45  69 101 134 169 211 256 299
#
# _framework density 17.370346999999999
#
# number of rings (size 3 to 8) (size 9 to 14) (size 15 to 20)
#    0.000    2.692    0.769    1.846    0.000    7.077 
#    0.000    2.308    0.000    0.923    0.000    6.462 
#    0.000    3.692    0.000    0.000    0.000    0.000 
#
# Total GULP energy -289883.175371 kJ/mol
# GULP energy per Si atom -5574.676449 kJ/mol
# Density = 1.733081 g / cm^3
# Si number density = 17.370347 Si / 1000 Ang^3
#
#
#
# Elastic Constant Matrix: (Units=GPa)
#
#
# Indices 1 2 3 4 5 6 
#
# 1 89.8083 44.7579 47.9635 0.0000 0.0000 0.0000
# 2 44.7579 53.9590 38.8907 0.0000 0.0000 0.0000
# 3 47.9635 38.8907 59.4379 0.0000 0.0000 0.0000
# 4 0.0000 0.0000 0.0000 8.3888 0.0000 0.0000
# 5 0.0000 0.0000 0.0000 0.0000 -10.8108 0.0000
# 6 0.0000 0.0000 0.0000 0.0000 0.0000 -9.5028
#
#
#
# Elastic Compliance Matrix: (Units=1/GPa)
#
#
# Indices 1 2 3 4 5 6 
#
# 1 0.022307 -0.010464 -0.011154 0.000000 0.000000 0.000000
# 2 -0.010464 0.039981 -0.017716 0.000000 0.000000 0.000000
# 3 -0.011154 -0.017716 0.037416 0.000000 0.000000 0.000000
# 4 0.000000 0.000000 0.000000 0.119207 0.000000 0.000000
# 5 0.000000 0.000000 0.000000 0.000000 -0.092500 0.000000
# 6 0.000000 0.000000 0.000000 0.000000 0.000000 -0.105232
#
#
# Mechanical properties :
#
#
# Convention : Reuss Voigt Hill
#
# Bulk Modulus (GPa) = 47.53574 51.82549 49.68062
# Shear Modulus (GPa) = 46.79080 2.38789 24.58935
#
# Velocity S-wave (km/s) = 5.19573 1.17375 3.76652
# Velocity P-wave (km/s) = 7.96364 5.63359 6.89771
#
# Compressibility (1/GPa) = 0.02103680
#
# Stress axis : x y z
#
# Youngs Moduli (GPa) = 44.82992 25.01199 26.72621
#
# Poissons Ratio (x) = 0.26172 0.29810
# Poissons Ratio (y) = 0.46909 0.47348
# Poissons Ratio (z) = 0.50002 0.44311
#
# Static dielectric constant tensor:
#      x y z
#    x 1.574820 0.000000 0.000000 
#    y 0.000000 1.581080 0.000000 
#    z 0.000000 0.000000 1.579400 
# 
# From -- ./inp_files/18661.got.cif
#   From: 2010.05.17/outbox.cif.g08.bks.cpg/sg65_10_cif.got.tgz:18661.got - 2010.06.03 17:01:31.
