data_PCOD9489760
_publ_section_title
;
Structure prediction by ZEFSAII (Michael W. Deem and Ramdas Pophale) SiO2 
 PCOD9489760
Probable space group: C M M M
;
_chemical_formula_sum "Si O2"
_cell_formula_units_Z 112
_cell_length_a 25.806353
_cell_length_b 14.290905
_cell_length_c 15.365055
_cell_angle_alpha 90.000000
_cell_angle_beta 90.000000
_cell_angle_gamma 90.000000
_cell_volume 5666.572961
_symmetry_space_group_name_H-M "C M M M"
_symmetry_group_IT_number 65
_symmetry_cell_setting 'orthorhombic'
loop_
_space_group_symop_operation_xyz
x,y,z
-x,-y,z
x,-y,-z
-x,y,-z
-x,-y,-z
x,y,-z
-x,y,z
x,-y,z
1/2+x,1/2+y,z
1/2-x,1/2-y,z
1/2+x,1/2-y,-z
1/2-x,1/2+y,-z
1/2-x,1/2-y,-z
1/2+x,1/2+y,-z
1/2-x,1/2+y,z
1/2+x,1/2-y,z
loop_
_atom_site_type_symbol
_atom_site_label
_atom_site_fract_x
_atom_site_fract_y
_atom_site_fract_z
Si Si1 0.938199 0.275988 0.404090
Si Si2 0.780463 0.388207 0.215068
Si Si3 0.369672 0.202572 0.900117
Si Si4 0.136610 0.892228 0.633109
Si Si5 0.562036 0.893536 0.236370
Si Si6 0.243391 0.613346 0.594523
Si Si7 0.661274 0.393947 0.164647
O O1 0.930502 0.318737 0.500000
O O2 0.905448 0.181086 0.398785
O O3 0.921260 0.343097 0.325534
O O4 0.000000 0.257788 0.394329
O O5 0.789186 0.500000 0.215668
O O6 0.821094 0.338915 0.153112
O O7 0.782407 0.353288 0.315512
O O8 0.722394 0.374417 0.179102
O O9 0.418058 0.163997 0.845999
O O10 0.364364 0.314147 0.892567
O O11 0.369841 0.172674 0.000000
O O12 0.194976 0.868136 0.602435
O O13 0.137946 0.889262 0.738095
O O14 0.126509 0.000000 0.607131
O O15 0.500000 0.896122 0.236923
O O16 0.581679 0.000000 0.232912
O O17 0.224160 0.646795 0.500000
O O18 0.238760 0.500000 0.595678
O O19 0.655665 0.500000 0.131957
#
# Coordination Sequence:
#
# PCOD9489760 Si02
#       7
#    16  16  16  16  16  16  16
#     4  10  20  34  56  87 119 152 193 237 284 342
#     4   9  19  34  54  85 124 156 189 238 287 338
#     4  12  24  39  63  89 113 145 192 249 301 349
#     4   9  16  30  54  83 119 160 197 234 277 331
#     4  10  23  44  65  85 114 150 190 241 297 351
#     4   8  14  27  50  79 114 159 199 228 269 330
#     4   9  19  37  59  84 119 160 193 226 281 350
#
# _framework density 19.765032000000001
#
# number of rings (size 3 to 8) (size 9 to 14) (size 15 to 20)
#    0.000    2.429    1.429    3.000    0.000    4.286 
#    0.000    5.000    0.000    3.857    0.000    1.000 
#    0.000    0.000    0.000    0.000    0.000    0.000 
#
# Total GULP energy -312773.615723 kJ/mol
# GULP energy per Si atom -5585.243138 kJ/mol
# Density = 1.972005 g / cm^3
# Si number density = 19.765032 Si / 1000 Ang^3
#
#
#
# Elastic Constant Matrix: (Units=GPa)
#
#
# Indices 1 2 3 4 5 6 
#
# 1 34.2926 15.6542 29.3723 0.0000 0.0000 0.0000
# 2 15.6542 63.5750 35.2211 0.0000 0.0000 0.0000
# 3 29.3723 35.2211 141.6602 0.0000 0.0000 0.0000
# 4 0.0000 0.0000 0.0000 11.9543 0.0000 0.0000
# 5 0.0000 0.0000 0.0000 0.0000 69.0283 0.0000
# 6 0.0000 0.0000 0.0000 0.0000 0.0000 22.5676
#
#
#
# Elastic Compliance Matrix: (Units=1/GPa)
#
#
# Indices 1 2 3 4 5 6 
#
# 1 0.037133 -0.005657 -0.006293 0.000000 0.000000 0.000000
# 2 -0.005657 0.019104 -0.003577 0.000000 0.000000 0.000000
# 3 -0.006293 -0.003577 0.009253 0.000000 0.000000 0.000000
# 4 0.000000 0.000000 0.000000 0.083652 0.000000 0.000000
# 5 0.000000 0.000000 0.000000 0.000000 0.014487 0.000000
# 6 0.000000 0.000000 0.000000 0.000000 0.000000 0.044311
#
#
# Mechanical properties :
#
#
# Convention : Reuss Voigt Hill
#
# Bulk Modulus (GPa) = 29.03870 44.44700 36.74285
# Shear Modulus (GPa) = 19.96223 31.32871 25.64547
#
# Velocity S-wave (km/s) = 3.18146 3.98560 3.60601
# Velocity P-wave (km/s) = 5.31220 6.61184 5.99733
#
# Compressibility (1/GPa) = 0.03443681
#
# Stress axis : x y z
#
# Youngs Moduli (GPa) = 26.93020 52.34497 108.07043
#
# Poissons Ratio (x) = 0.29612 0.68006
# Poissons Ratio (y) = 0.15235 0.38656
# Poissons Ratio (z) = 0.16946 0.18723
#
# Static dielectric constant tensor:
#      x y z
#    x 1.684880 0.000000 0.000000 
#    y 0.000000 1.724330 0.000000 
#    z 0.000000 0.000000 1.702340 
# 
# From -- ./inp_files/47034.got.cif
#   From: 2010.05.17/outbox.cif.g08.bks.cpg/sg65_24_cif.got.tgz:47034.got - 2010.06.03 17:01:31.
