data_PCOD9489451
_publ_section_title
;
Structure prediction by ZEFSAII (Michael W. Deem and Ramdas Pophale) SiO2 
 PCOD9489451
Probable space group: C M M M
;
_chemical_formula_sum "Si O2"
_cell_formula_units_Z 96
_cell_length_a 22.717694
_cell_length_b 16.529691
_cell_length_c 15.510092
_cell_angle_alpha 90.000000
_cell_angle_beta 90.000000
_cell_angle_gamma 90.000000
_cell_volume 5824.294874
_symmetry_space_group_name_H-M "C M M M"
_symmetry_group_IT_number 65
_symmetry_cell_setting 'orthorhombic'
loop_
_space_group_symop_operation_xyz
x,y,z
-x,-y,z
x,-y,-z
-x,y,-z
-x,-y,-z
x,y,-z
-x,y,z
x,-y,z
1/2+x,1/2+y,z
1/2-x,1/2-y,z
1/2+x,1/2-y,-z
1/2-x,1/2+y,-z
1/2-x,1/2-y,-z
1/2+x,1/2+y,-z
1/2-x,1/2+y,z
1/2+x,1/2-y,z
loop_
_atom_site_type_symbol
_atom_site_label
_atom_site_fract_x
_atom_site_fract_y
_atom_site_fract_z
Si Si1 0.117907 0.171547 0.333550
Si Si2 0.149629 0.651013 0.605030
Si Si3 0.933606 0.903276 0.168910
Si Si4 0.741631 0.597972 0.275970
Si Si5 0.566087 0.000000 0.396450
Si Si6 0.305108 0.597728 0.094843
Si Si7 0.935387 0.904554 0.500000
O O1 0.124225 0.264246 0.361526
O O2 0.074956 0.150110 0.254556
O O3 0.180991 0.135047 0.309508
O O4 0.096793 0.123471 0.415751
O O5 0.160471 0.653207 0.500000
O O6 0.207048 0.631473 0.662719
O O7 0.103404 0.579626 0.624372
O O8 0.874518 0.884336 0.113976
O O9 0.000000 0.890869 0.132761
O O10 0.929538 0.000000 0.189818
O O11 0.741770 0.500000 0.281371
O O12 0.737653 0.621655 0.174113
O O13 0.500000 0.000000 0.360345
O O14 0.561401 0.000000 0.500000
O O15 0.302193 0.500000 0.092946
O O16 0.288986 0.628806 0.000000
O O17 0.000000 0.866919 0.500000
O O18 0.939520 0.000000 0.500000
#
# Coordination Sequence:
#
# PCOD9489451 Si02
#       7
#    16  16  16  16   8  16   8
#     4  11  21  33  48  72 101 139 179 219 259 305
#     4  11  22  37  52  76 102 134 180 227 265 319
#     4   9  17  30  48  72 105 142 177 212 254 307
#     4  10  20  34  54  75 106 139 172 215 269 317
#     4   9  20  38  56  72  97 133 173 226 276 308
#     4   8  15  29  50  78 106 134 170 211 256 313
#     4  11  22  34  47  69 103 141 180 213 248 303
#
# _framework density 16.482680999999999
#
# number of rings (size 3 to 8) (size 9 to 14) (size 15 to 20)
#    0.000    2.167    1.667    3.500    1.167    3.667 
#    0.000    1.667    0.000    8.000    0.000    0.000 
#    0.000    1.333    0.000    0.000    0.000    0.667 
#
# Total GULP energy -267249.694081 kJ/mol
# GULP energy per Si atom -5567.701960 kJ/mol
# Density = 1.644517 g / cm^3
# Si number density = 16.482681 Si / 1000 Ang^3
#
#
#
# Elastic Constant Matrix: (Units=GPa)
#
#
# Indices 1 2 3 4 5 6 
#
# 1 70.5599 12.4792 27.8731 0.0000 0.0000 0.0000
# 2 12.4792 65.0254 22.4346 0.0000 0.0000 0.0000
# 3 27.8731 22.4346 102.9970 0.0000 0.0000 0.0000
# 4 0.0000 0.0000 0.0000 40.0684 0.0000 0.0000
# 5 0.0000 0.0000 0.0000 0.0000 8.8057 0.0000
# 6 0.0000 0.0000 0.0000 0.0000 0.0000 2.6422
#
#
#
# Elastic Compliance Matrix: (Units=1/GPa)
#
#
# Indices 1 2 3 4 5 6 
#
# 1 0.016043 -0.001709 -0.003969 0.000000 0.000000 0.000000
# 2 -0.001709 0.016810 -0.003199 0.000000 0.000000 0.000000
# 3 -0.003969 -0.003199 0.011480 0.000000 0.000000 0.000000
# 4 0.000000 0.000000 0.000000 0.024957 0.000000 0.000000
# 5 0.000000 0.000000 0.000000 0.000000 0.113562 0.000000
# 6 0.000000 0.000000 0.000000 0.000000 0.000000 0.378467
#
#
# Mechanical properties :
#
#
# Convention : Reuss Voigt Hill
#
# Bulk Modulus (GPa) = 37.62525 40.46178 39.04352
# Shear Modulus (GPa) = 8.50436 22.02298 15.26367
#
# Velocity S-wave (km/s) = 2.27393 3.65927 3.04640
# Velocity P-wave (km/s) = 5.45629 6.51576 6.00941
#
# Compressibility (1/GPa) = 0.02657789
#
# Stress axis : x y z
#
# Youngs Moduli (GPa) = 62.33406 59.48716 87.10843
#
# Poissons Ratio (x) = 0.10169 0.34574
# Poissons Ratio (y) = 0.10655 0.27866
# Poissons Ratio (z) = 0.24741 0.19030
#
# Static dielectric constant tensor:
#      x y z
#    x 1.566810 0.000000 0.000000 
#    y 0.000000 1.549970 0.000000 
#    z 0.000000 0.000000 1.571540 
# 
# From -- ./inp_files/45670.got.cif
#   From: 2010.05.17/outbox.cif.g08.bks.cpg/sg65_23_cif.got.tgz:45670.got - 2010.06.03 17:01:31.
