data_PCOD9489476
_publ_section_title
;
Structure prediction by ZEFSAII (Michael W. Deem and Ramdas Pophale) SiO2 
 PCOD9489476
Probable space group: C M M M
;
_chemical_formula_sum "Si O2"
_cell_formula_units_Z 80
_cell_length_a 8.764062
_cell_length_b 14.934908
_cell_length_c 27.453710
_cell_angle_alpha 90.000000
_cell_angle_beta 90.000000
_cell_angle_gamma 90.000000
_cell_volume 3593.428722
_symmetry_space_group_name_H-M "C M M M"
_symmetry_group_IT_number 65
_symmetry_cell_setting 'orthorhombic'
loop_
_space_group_symop_operation_xyz
x,y,z
-x,-y,z
x,-y,-z
-x,y,-z
-x,-y,-z
x,y,-z
-x,y,z
x,-y,z
1/2+x,1/2+y,z
1/2-x,1/2-y,z
1/2+x,1/2-y,-z
1/2-x,1/2+y,-z
1/2-x,1/2-y,-z
1/2+x,1/2+y,-z
1/2-x,1/2+y,z
1/2+x,1/2-y,z
loop_
_atom_site_type_symbol
_atom_site_label
_atom_site_fract_x
_atom_site_fract_y
_atom_site_fract_z
Si Si1 0.176749 0.152200 0.704390
Si Si2 0.827826 0.896810 0.406038
Si Si3 0.174375 0.610052 0.000000
Si Si4 0.000000 0.605821 0.558066
Si Si5 0.680336 0.150774 0.199395
Si Si6 0.831561 0.105780 0.901335
O O1 0.250000 0.250000 0.696287
O O2 0.184224 0.103962 0.652612
O O3 0.257624 0.107452 0.750749
O O4 0.000000 0.163480 0.717475
O O5 0.665269 0.856675 0.424160
O O6 0.000000 0.859286 0.417839
O O7 0.830411 0.000000 0.423755
O O8 0.255157 0.640978 0.950507
O O9 0.174735 0.500000 0.000000
O O10 0.000000 0.638961 0.000000
O O11 0.000000 0.500000 0.573313
O O12 0.000000 0.610199 0.500000
O O13 0.500000 0.151625 0.200815
O O14 0.750000 0.250000 0.201227
O O15 0.736181 0.114350 0.147850
O O16 0.000000 0.145634 0.893819
O O17 0.847172 0.000000 0.909666
#
# Coordination Sequence:
#
# PCOD9489476 Si02
#       6
#    16  16   8   8  16  16
#     4  10  20  34  54  78 103 140 178 213 263 318
#     4   9  19  34  53  80 110 140 179 224 266 313
#     4   9  17  31  52  77 104 133 172 215 257 315
#     4   9  18  32  54  82 110 142 177 218 270 318
#     4  11  22  36  54  76 106 139 176 218 264 318
#     4  10  20  35  55  78 105 138 174 215 264 314
#
# _framework density 22.262858999999999
#
# number of rings (size 3 to 8) (size 9 to 14) (size 15 to 20)
#    0.000    2.200    0.000    4.500    2.800    3.600 
#    0.000    4.500    0.000    0.600    0.000    0.000 
#    0.000    0.000    0.000    0.000    0.000    0.000 
#
# Total GULP energy -223176.367411 kJ/mol
# GULP energy per Si atom -5579.409185 kJ/mol
# Density = 2.221219 g / cm^3
# Si number density = 22.262859 Si / 1000 Ang^3
#
#
#
# Elastic Constant Matrix: (Units=GPa)
#
#
# Indices 1 2 3 4 5 6 
#
# 1 254.2680 10.8342 78.6092 0.0000 0.0000 0.0000
# 2 10.8342 37.4942 -4.6006 0.0000 0.0000 0.0000
# 3 78.6092 -4.6006 85.7560 0.0000 0.0000 0.0000
# 4 0.0000 0.0000 0.0000 11.9580 0.0000 0.0000
# 5 0.0000 0.0000 0.0000 0.0000 119.1852 0.0000
# 6 0.0000 0.0000 0.0000 0.0000 0.0000 15.8334
#
#
#
# Elastic Compliance Matrix: (Units=1/GPa)
#
#
# Indices 1 2 3 4 5 6 
#
# 1 0.005678 -0.002294 -0.005328 0.000000 0.000000 0.000000
# 2 -0.002294 0.027775 0.003593 0.000000 0.000000 0.000000
# 3 -0.005328 0.003593 0.016737 0.000000 0.000000 0.000000
# 4 0.000000 0.000000 0.000000 0.083626 0.000000 0.000000
# 5 0.000000 0.000000 0.000000 0.000000 0.008390 0.000000
# 6 0.000000 0.000000 0.000000 0.000000 0.000000 0.063158
#
#
# Mechanical properties :
#
#
# Convention : Reuss Voigt Hill
#
# Bulk Modulus (GPa) = 23.73483 60.80042 42.26762
# Shear Modulus (GPa) = 21.98140 48.90702 35.44421
#
# Velocity S-wave (km/s) = 3.14563 4.69209 3.99441
# Velocity P-wave (km/s) = 4.88648 7.53152 6.34828
#
# Compressibility (1/GPa) = 0.04213218
#
# Stress axis : x y z
#
# Youngs Moduli (GPa) = 176.12791 36.00406 59.74660
#
# Poissons Ratio (x) = 0.08260 0.31831
# Poissons Ratio (y) = 0.40409 -0.21468
# Poissons Ratio (z) = 0.93834 -0.12937
#
# Static dielectric constant tensor:
#      x y z
#    x 1.828540 0.000000 0.000000 
#    y 0.000000 1.862480 0.000000 
#    z 0.000000 0.000000 1.822880 
# 
# From -- ./inp_files/72892.got.cif
#   From: 2010.05.17/outbox.cif.g08.bks.cpg/sg65_37_cif.got.tgz:72892.got - 2010.06.03 17:01:31.
