data_PCOD9489010
_publ_section_title
;
Structure prediction by ZEFSAII (Michael W. Deem and Ramdas Pophale) SiO2 
 PCOD9489010
Probable space group: C M M M
;
_chemical_formula_sum "Si O2"
_cell_formula_units_Z 112
_cell_length_a 14.952963
_cell_length_b 14.335585
_cell_length_c 26.092834
_cell_angle_alpha 90.000000
_cell_angle_beta 90.000000
_cell_angle_gamma 90.000000
_cell_volume 5593.246122
_symmetry_space_group_name_H-M "C M M M"
_symmetry_group_IT_number 65
_symmetry_cell_setting 'orthorhombic'
loop_
_space_group_symop_operation_xyz
x,y,z
-x,-y,z
x,-y,-z
-x,y,-z
-x,-y,-z
x,y,-z
-x,y,z
x,-y,z
1/2+x,1/2+y,z
1/2-x,1/2-y,z
1/2+x,1/2-y,-z
1/2-x,1/2+y,-z
1/2-x,1/2-y,-z
1/2+x,1/2+y,-z
1/2-x,1/2+y,z
1/2+x,1/2-y,z
loop_
_atom_site_type_symbol
_atom_site_label
_atom_site_fract_x
_atom_site_fract_y
_atom_site_fract_z
Si Si1 0.648672 0.275300 0.655469
Si Si2 0.787514 0.889162 0.150295
Si Si3 0.600793 0.609631 0.753578
Si Si4 0.402797 0.108714 0.407502
Si Si5 0.895231 0.798414 0.942608
Si Si6 0.203583 0.111307 0.443273
Si Si7 0.899515 0.393153 0.107072
O O1 0.750000 0.250000 0.669983
O O2 0.607339 0.333094 0.701403
O O3 0.601605 0.179265 0.639989
O O4 0.655916 0.336193 0.603250
O O5 0.830865 0.856187 0.203171
O O6 0.834921 0.842466 0.101558
O O7 0.681192 0.875667 0.146299
O O8 0.805040 0.000000 0.147383
O O9 0.500000 0.616452 0.774593
O O10 0.618678 0.500000 0.742677
O O11 0.500000 0.121500 0.433444
O O12 0.310982 0.127629 0.438172
O O13 0.397451 0.000000 0.392277
O O14 0.890846 0.686497 0.935574
O O15 0.000000 0.824703 0.935793
O O16 0.867247 0.824885 0.000000
O O17 0.174392 0.141370 0.500000
O O18 0.189782 0.000000 0.438800
O O19 0.890100 0.500000 0.088352
O O20 0.000000 0.383994 0.128931
#
# Coordination Sequence:
#
# PCOD9489010 Si02
#       7
#    16  16  16  16  16  16  16
#     4  10  20  33  55  81 107 141 180 222 270 326
#     4  10  21  37  58  83 112 145 182 227 278 330
#     4  10  21  38  60  83 107 139 182 229 274 325
#     4   9  18  32  50  75 106 138 176 221 267 320
#     4  10  21  36  56  83 114 148 185 226 273 327
#     4   9  18  33  53  77 106 140 178 222 272 324
#     4   9  19  36  57  81 109 143 185 229 272 323
#
# _framework density 20.024149000000001
#
# number of rings (size 3 to 8) (size 9 to 14) (size 15 to 20)
#    0.000    2.429    0.000    1.714    0.000    7.143 
#    0.000    5.000    0.000    5.571    0.000   19.000 
#    0.000    0.000    0.000    0.000    0.000    0.000 
#
# Total GULP energy -312373.182185 kJ/mol
# GULP energy per Si atom -5578.092539 kJ/mol
# Density = 1.997857 g / cm^3
# Si number density = 20.024149 Si / 1000 Ang^3
#
#
#
# Elastic Constant Matrix: (Units=GPa)
#
#
# Indices 1 2 3 4 5 6 
#
# 1 71.0917 21.2083 46.6613 0.0000 0.0000 0.0000
# 2 21.2083 56.7984 42.0520 0.0000 0.0000 0.0000
# 3 46.6613 42.0520 118.2579 0.0000 0.0000 0.0000
# 4 0.0000 0.0000 0.0000 21.1874 0.0000 0.0000
# 5 0.0000 0.0000 0.0000 0.0000 -0.0611 0.0000
# 6 0.0000 0.0000 0.0000 0.0000 0.0000 22.1747
#
#
#
# Elastic Compliance Matrix: (Units=1/GPa)
#
#
# Indices 1 2 3 4 5 6 
#
# 1 0.019168 -0.002114 -0.006811 0.000000 0.000000 0.000000
# 2 -0.002114 0.024131 -0.007747 0.000000 0.000000 0.000000
# 3 -0.006811 -0.007747 0.013898 0.000000 0.000000 0.000000
# 4 0.000000 0.000000 0.000000 0.047198 0.000000 0.000000
# 5 0.000000 0.000000 0.000000 0.000000-16.359548 0.000000
# 6 0.000000 0.000000 0.000000 0.000000 0.000000 0.045096
#
#
# Mechanical properties :
#
#
# Convention : Reuss Voigt Hill
#
# Bulk Modulus (GPa) = 41.92404 51.77681 46.85043
# Shear Modulus (GPa) = -0.30924 17.74196 8.71636
#
# Velocity S-wave (km/s) = -0.39341 2.97985 2.08863
# Velocity P-wave (km/s) = 4.55805 6.14432 5.40964
#
# Compressibility (1/GPa) = 0.02385266
#
# Stress axis : x y z
#
# Youngs Moduli (GPa) = 52.17133 41.44048 71.95139
#
# Poissons Ratio (x) = 0.08762 0.49007
# Poissons Ratio (y) = 0.11031 0.55738
# Poissons Ratio (z) = 0.35535 0.32102
#
# Static dielectric constant tensor:
#      x y z
#    x 1.742580 0.000000 0.000000 
#    y 0.000000 1.724100 0.000000 
#    z 0.000000 0.000000 1.662570 
# 
# From -- ./inp_files/69980.got.cif
#   From: 2010.05.17/outbox.cif.g08.bks.cpg/sg65_35_cif.got.tgz:69980.got - 2010.06.03 17:01:31.
