data_PCOD9489777
_publ_section_title
;
Structure prediction by ZEFSAII (Michael W. Deem and Ramdas Pophale) SiO2 
 PCOD9489777
Probable space group: C M M M
;
_chemical_formula_sum "Si O2"
_cell_formula_units_Z 120
_cell_length_a 29.910948
_cell_length_b 14.796157
_cell_length_c 13.802623
_cell_angle_alpha 90.000000
_cell_angle_beta 90.000000
_cell_angle_gamma 90.000000
_cell_volume 6108.586594
_symmetry_space_group_name_H-M "C M M M"
_symmetry_group_IT_number 65
_symmetry_cell_setting 'orthorhombic'
loop_
_space_group_symop_operation_xyz
x,y,z
-x,-y,z
x,-y,-z
-x,y,-z
-x,-y,-z
x,y,-z
-x,y,z
x,-y,z
1/2+x,1/2+y,z
1/2-x,1/2-y,z
1/2+x,1/2-y,-z
1/2-x,1/2+y,-z
1/2-x,1/2-y,-z
1/2+x,1/2+y,-z
1/2-x,1/2+y,z
1/2+x,1/2-y,z
loop_
_atom_site_type_symbol
_atom_site_label
_atom_site_fract_x
_atom_site_fract_y
_atom_site_fract_z
Si Si1 0.608494 0.726765 0.110590
Si Si2 0.204573 0.307377 0.104788
Si Si3 0.101137 0.205651 0.319392
Si Si4 0.630045 0.895306 0.386388
Si Si5 0.053461 0.892561 0.500000
Si Si6 0.049571 0.599802 0.884086
Si Si7 0.182292 0.901534 0.386286
Si Si8 0.773679 0.650864 0.311772
O O1 0.661857 0.741540 0.116074
O O2 0.591026 0.678091 0.207930
O O3 0.587048 0.825536 0.125230
O O4 0.597632 0.695540 0.000000
O O5 0.250000 0.250000 0.100503
O O6 0.209954 0.364747 0.201674
O O7 0.198808 0.354130 0.000000
O O8 0.102344 0.314385 0.335100
O O9 0.073313 0.156472 0.404088
O O10 0.151870 0.172579 0.336308
O O11 0.618803 0.891318 0.500000
O O12 0.682467 0.869233 0.374270
O O13 0.623729 0.000000 0.354025
O O14 0.000000 0.883963 0.500000
O O15 0.064461 0.000000 0.500000
O O16 0.060253 0.500000 0.845665
O O17 0.000000 0.627240 0.847288
O O18 0.045357 0.591687 0.000000
O O19 0.185000 0.880659 0.500000
O O20 0.231571 0.906528 0.344057
O O21 0.160458 0.000000 0.374774
O O22 0.750000 0.750000 0.319401
#
# Coordination Sequence:
#
# PCOD9489777 Si02
#       8
#    16  16  16  16   8  16  16  16
#     4  10  20  34  57  88 120 162 212 252 301 368
#     4   9  17  31  49  73 112 162 213 258 301 356
#     4  12  21  40  66  90 123 161 204 256 310 373
#     4  11  22  35  53  83 125 168 203 247 309 368
#     4  11  26  48  75 102 123 151 197 253 315 381
#     4   8  15  30  52  79 113 151 196 254 306 345
#     4  11  22  36  58  85 111 147 202 266 322 368
#     4  11  19  32  52  80 115 160 206 256 309 359
#
# _framework density 19.644477999999999
#
# number of rings (size 3 to 8) (size 9 to 14) (size 15 to 20)
#    0.000    1.667    4.000    2.400    0.000    2.667 
#    0.000    0.000    0.000    4.800    0.000    0.933 
#    0.000    0.000    0.000    0.000    0.000    0.000 
#
# Total GULP energy -334086.317812 kJ/mol
# GULP energy per Si atom -5568.105297 kJ/mol
# Density = 1.959977 g / cm^3
# Si number density = 19.644478 Si / 1000 Ang^3
#
#
#
# Elastic Constant Matrix: (Units=GPa)
#
#
# Indices 1 2 3 4 5 6 
#
# 1 54.3617 16.2193 9.6379 0.0000 0.0000 0.0000
# 2 16.2193 77.4286 38.0865 0.0000 0.0000 0.0000
# 3 9.6379 38.0865 140.4529 0.0000 0.0000 0.0000
# 4 0.0000 0.0000 0.0000 -94.4381 0.0000 0.0000
# 5 0.0000 0.0000 0.0000 0.0000 -63.4841 0.0000
# 6 0.0000 0.0000 0.0000 0.0000 0.0000 90.4097
#
#
#
# Elastic Compliance Matrix: (Units=1/GPa)
#
#
# Indices 1 2 3 4 5 6 
#
# 1 0.019630 -0.003980 -0.000268 0.000000 0.000000 0.000000
# 2 -0.003980 0.015710 -0.003987 0.000000 0.000000 0.000000
# 3 -0.000268 -0.003987 0.008219 0.000000 0.000000 0.000000
# 4 0.000000 0.000000 0.000000 -0.010589 0.000000 0.000000
# 5 0.000000 0.000000 0.000000 0.000000 -0.015752 0.000000
# 6 0.000000 0.000000 0.000000 0.000000 0.000000 0.011061
#
#
# Mechanical properties :
#
#
# Convention : Reuss Voigt Hill
#
# Bulk Modulus (GPa) = 36.91439 44.45896 40.68668
# Shear Modulus (GPa) = 92.97213 0.38412 46.67813
#
# Velocity S-wave (km/s) = 6.88695 0.44268 4.87986
# Velocity P-wave (km/s) = 9.05937 4.78980 7.24618
#
# Compressibility (1/GPa) = 0.02708971
#
# Stress axis : x y z
#
# Youngs Moduli (GPa) = 50.94152 63.65341 121.66436
#
# Poissons Ratio (x) = 0.25337 0.03257
# Poissons Ratio (y) = 0.20277 0.48507
# Poissons Ratio (z) = 0.01364 0.25378
#
# Static dielectric constant tensor:
#      x y z
#    x 1.677730 0.000000 0.000000 
#    y 0.000000 1.733780 0.000000 
#    z 0.000000 0.000000 1.756450 
# 
# From -- ./inp_files/48117.got.cif
#   From: 2010.05.17/outbox.cif.g08.bks.cpg/sg65_25_cif.got.tgz:48117.got - 2010.06.03 17:01:31.
