data_PCOD9489624
_publ_section_title
;
Structure prediction by ZEFSAII (Michael W. Deem and Ramdas Pophale) SiO2 
 PCOD9489624
Probable space group: C M M M
;
_chemical_formula_sum "Si O2"
_cell_formula_units_Z 120
_cell_length_a 27.950910
_cell_length_b 27.774449
_cell_length_c 8.830835
_cell_angle_alpha 90.000000
_cell_angle_beta 90.000000
_cell_angle_gamma 90.000000
_cell_volume 6855.563756
_symmetry_space_group_name_H-M "C M M M"
_symmetry_group_IT_number 65
_symmetry_cell_setting 'orthorhombic'
loop_
_space_group_symop_operation_xyz
x,y,z
-x,-y,z
x,-y,-z
-x,y,-z
-x,-y,-z
x,y,-z
-x,y,z
x,-y,z
1/2+x,1/2+y,z
1/2-x,1/2-y,z
1/2+x,1/2-y,-z
1/2-x,1/2+y,-z
1/2-x,1/2-y,-z
1/2+x,1/2+y,-z
1/2-x,1/2+y,z
1/2+x,1/2-y,z
loop_
_atom_site_type_symbol
_atom_site_label
_atom_site_fract_x
_atom_site_fract_y
_atom_site_fract_z
Si Si1 0.736704 0.696518 0.682113
Si Si2 0.863714 0.147727 0.318784
Si Si3 0.782010 0.396306 0.181994
Si Si4 0.943788 0.500000 0.680946
Si Si5 0.943339 0.317398 0.319273
Si Si6 0.556031 0.713210 0.819197
Si Si7 0.183082 0.054971 0.182985
Si Si8 0.890266 0.591295 0.818002
O O1 0.741063 0.694862 0.500000
O O2 0.750000 0.750000 0.733575
O O3 0.682573 0.680778 0.720561
O O4 0.770830 0.656184 0.752083
O O5 0.867972 0.146287 0.500000
O O6 0.910029 0.172036 0.246426
O O7 0.851220 0.094885 0.255737
O O8 0.737540 0.430326 0.226744
O O9 0.834597 0.413094 0.228024
O O10 0.781474 0.393600 0.000000
O O11 0.938149 0.500000 0.500000
O O12 0.919671 0.547235 0.749848
O O13 0.000000 0.500000 0.715874
O O14 0.936461 0.318063 0.500000
O O15 0.931265 0.264691 0.254837
O O16 0.912312 0.358950 0.242671
O O17 0.000000 0.325866 0.288681
O O18 0.500000 0.704122 0.785156
O O19 0.561412 0.716444 0.000000
O O20 0.173033 0.000000 0.227212
O O21 0.179864 0.058278 0.000000
O O22 0.893030 0.590392 0.000000
#
# Coordination Sequence:
#
# PCOD9489624 Si02
#       8
#    16  16  16   8  16  16  16  16
#     4   9  19  34  51  75 109 147 182 219 265 318
#     4  10  20  34  54  82 114 147 182 224 275 328
#     4   9  20  35  52  79 108 140 180 222 270 322
#     4  11  25  43  59  77 103 141 189 237 290 345
#     4  10  21  37  56  78 107 144 184 226 275 331
#     4  10  21  37  58  84 114 147 185 227 269 321
#     4   9  18  35  59  80 106 145 184 224 270 326
#     4  11  23  37  57  83 109 139 181 233 285 335
#
# _framework density 17.50403
#
# number of rings (size 3 to 8) (size 9 to 14) (size 15 to 20)
#    0.000    2.200    0.000    2.200    2.800    5.867 
#    0.000    0.000    0.000    0.400    0.000    2.800 
#    0.000    0.000    0.000    0.000    0.000    0.000 
#
# Total GULP energy -335001.455663 kJ/mol
# GULP energy per Si atom -5583.357594 kJ/mol
# Density = 1.746419 g / cm^3
# Si number density = 17.504030 Si / 1000 Ang^3
#
#
#
# Elastic Constant Matrix: (Units=GPa)
#
#
# Indices 1 2 3 4 5 6 
#
# 1 106.4598 81.5253 49.1351 0.0000 0.0000 0.0000
# 2 81.5253 151.6415 43.8395 0.0000 0.0000 0.0000
# 3 49.1351 43.8395 35.6380 0.0000 0.0000 0.0000
# 4 0.0000 0.0000 0.0000 41.7525 0.0000 0.0000
# 5 0.0000 0.0000 0.0000 0.0000 24.3964 0.0000
# 6 0.0000 0.0000 0.0000 0.0000 0.0000 17.8270
#
#
#
# Elastic Compliance Matrix: (Units=1/GPa)
#
#
# Indices 1 2 3 4 5 6 
#
# 1 0.029268 -0.006315 -0.032584 0.000000 0.000000 0.000000
# 2 -0.006315 0.011597 -0.005559 0.000000 0.000000 0.000000
# 3 -0.032584 -0.005559 0.079823 0.000000 0.000000 0.000000
# 4 0.000000 0.000000 0.000000 0.023951 0.000000 0.000000
# 5 0.000000 0.000000 0.000000 0.000000 0.040990 0.000000
# 6 0.000000 0.000000 0.000000 0.000000 0.000000 0.056095
#
#
# Mechanical properties :
#
#
# Convention : Reuss Voigt Hill
#
# Bulk Modulus (GPa) = 31.47488 71.41546 51.44517
# Shear Modulus (GPa) = 14.65289 24.74446 19.69867
#
# Velocity S-wave (km/s) = 2.89643 3.76392 3.35831
# Velocity P-wave (km/s) = 5.40429 7.73159 6.67023
#
# Compressibility (1/GPa) = 0.03177137
#
# Stress axis : x y z
#
# Youngs Moduli (GPa) = 34.16703 86.23263 12.52769
#
# Poissons Ratio (x) = 0.54455 0.40821
# Poissons Ratio (y) = 0.21576 0.06964
# Poissons Ratio (z) = 1.11331 0.47935
#
# Static dielectric constant tensor:
#      x y z
#    x 1.591690 0.000000 0.000000 
#    y 0.000000 1.566020 0.000000 
#    z 0.000000 0.000000 1.583770 
# 
# From -- ./inp_files/17098.got.cif
#   From: 2010.05.17/outbox.cif.g08.bks.cpg/sg65_9_cif.got.tgz:17098.got - 2010.06.03 17:01:31.
