data_PCOD9489347
_publ_section_title
;
Structure prediction by ZEFSAII (Michael W. Deem and Ramdas Pophale) SiO2 
 PCOD9489347
Probable space group: C M M M
;
_chemical_formula_sum "Si O2"
_cell_formula_units_Z 104
_cell_length_a 32.273866
_cell_length_b 7.750995
_cell_length_c 20.262427
_cell_angle_alpha 90.000000
_cell_angle_beta 90.000000
_cell_angle_gamma 90.000000
_cell_volume 5068.738794
_symmetry_space_group_name_H-M "C M M M"
_symmetry_group_IT_number 65
_symmetry_cell_setting 'orthorhombic'
loop_
_space_group_symop_operation_xyz
x,y,z
-x,-y,z
x,-y,-z
-x,y,-z
-x,-y,-z
x,y,-z
-x,y,z
x,-y,z
1/2+x,1/2+y,z
1/2-x,1/2-y,z
1/2+x,1/2-y,-z
1/2-x,1/2+y,-z
1/2-x,1/2-y,-z
1/2+x,1/2+y,-z
1/2-x,1/2+y,z
1/2+x,1/2-y,z
loop_
_atom_site_type_symbol
_atom_site_label
_atom_site_fract_x
_atom_site_fract_y
_atom_site_fract_z
Si Si1 0.837615 0.796230 0.072570
Si Si2 0.796704 0.295450 0.207410
Si Si3 0.409151 0.204152 0.425603
Si Si4 0.432209 0.799179 0.927430
Si Si5 0.000000 0.205478 0.422259
Si Si6 0.544929 0.211158 0.215521
Si Si7 0.873150 0.711999 0.294151
O O1 0.807612 0.760233 0.133084
O O2 0.882398 0.708682 0.081791
O O3 0.845789 0.000000 0.071556
O O4 0.821469 0.744569 0.000000
O O5 0.800400 0.500000 0.208458
O O6 0.750000 0.250000 0.225591
O O7 0.832205 0.226970 0.256468
O O8 0.406629 0.278587 0.500000
O O9 0.455982 0.226496 0.397983
O O10 0.378361 0.271172 0.369638
O O11 0.402232 0.000000 0.431313
O O12 0.451432 0.727802 0.860448
O O13 0.444534 0.000000 0.930108
O O14 0.441518 0.722942 0.000000
O O15 0.000000 0.255423 0.500000
O O16 0.000000 0.000000 0.417120
O O17 0.500000 0.263502 0.242938
O O18 0.585688 0.266930 0.254528
O O19 0.545955 0.000000 0.215074
O O20 0.873011 0.500000 0.294376
#
# Coordination Sequence:
#
# PCOD9489347 Si02
#       7
#    16  16  16  16   8  16  16
#     4  10  20  34  53  77 104 135 170 210 257 309
#     4  11  22  38  58  79 103 132 169 212 261 312
#     4   9  17  30  51  77 103 136 178 217 253 300
#     4   9  16  28  47  70  98 134 174 215 256 299
#     4   9  17  29  45  71 109 145 174 209 254 301
#     4   9  16  26  44  72 102 133 169 210 255 299
#     4   9  18  32  51  76 105 134 166 211 260 304
#
# _framework density 20.517925000000002
#
# number of rings (size 3 to 8) (size 9 to 14) (size 15 to 20)
#    0.000    2.538    1.538    1.154    1.077    2.462 
#    0.000    3.077    0.000    0.923    0.000    2.154 
#    0.000    0.000    0.000    0.000    0.000    0.154 
#
# Total GULP energy -290127.643947 kJ/mol
# GULP energy per Si atom -5579.377768 kJ/mol
# Density = 2.047122 g / cm^3
# Si number density = 20.517925 Si / 1000 Ang^3
#
#
#
# Elastic Constant Matrix: (Units=GPa)
#
#
# Indices 1 2 3 4 5 6 
#
# 1 133.6610 2.1371 80.8247 0.0000 0.0000 0.0000
# 2 2.1371 32.8521 4.7240 0.0000 0.0000 0.0000
# 3 80.8247 4.7240 136.0403 0.0000 0.0000 0.0000
# 4 0.0000 0.0000 0.0000 0.2414 0.0000 0.0000
# 5 0.0000 0.0000 0.0000 0.0000 13.4318 0.0000
# 6 0.0000 0.0000 0.0000 0.0000 0.0000 7.1704
#
#
#
# Elastic Compliance Matrix: (Units=1/GPa)
#
#
# Indices 1 2 3 4 5 6 
#
# 1 0.011678 0.000239 -0.006947 0.000000 0.000000 0.000000
# 2 0.000239 0.030597 -0.001205 0.000000 0.000000 0.000000
# 3 -0.006947 -0.001205 0.011520 0.000000 0.000000 0.000000
# 4 0.000000 0.000000 0.000000 4.142543 0.000000 0.000000
# 5 0.000000 0.000000 0.000000 0.000000 0.074450 0.000000
# 6 0.000000 0.000000 0.000000 0.000000 0.000000 0.139462
#
#
# Mechanical properties :
#
#
# Convention : Reuss Voigt Hill
#
# Bulk Modulus (GPa) = 26.33582 53.10278 39.71930
# Shear Modulus (GPa) = 1.12645 18.49323 9.80984
#
# Velocity S-wave (km/s) = 0.74175 3.00546 2.18895
# Velocity P-wave (km/s) = 3.68741 6.16288 5.07829
#
# Compressibility (1/GPa) = 0.03797109
#
# Stress axis : x y z
#
# Youngs Moduli (GPa) = 85.62746 32.68282 86.80684
#
# Poissons Ratio (x) = -0.00782 0.60303
# Poissons Ratio (y) = -0.02048 0.10457
# Poissons Ratio (z) = 0.59483 0.03937
#
# Static dielectric constant tensor:
#      x y z
#    x 1.686920 0.000000 0.000000 
#    y 0.000000 1.752440 0.000000 
#    z 0.000000 0.000000 1.786460 
# 
# From -- ./inp_files/66368.got.cif
#   From: 2010.05.17/outbox.cif.g08.bks.cpg/sg65_34_cif.got.tgz:66368.got - 2010.06.03 17:01:31.
