data_PCOD9489831
_publ_section_title
;
Structure prediction by ZEFSAII (Michael W. Deem and Ramdas Pophale) SiO2 
 PCOD9489831
Probable space group: C M M M
;
_chemical_formula_sum "Si O2"
_cell_formula_units_Z 72
_cell_length_a 15.652902
_cell_length_b 14.051038
_cell_length_c 18.234075
_cell_angle_alpha 90.000000
_cell_angle_beta 90.000000
_cell_angle_gamma 90.000000
_cell_volume 4010.393718
_symmetry_space_group_name_H-M "C M M M"
_symmetry_group_IT_number 65
_symmetry_cell_setting 'orthorhombic'
loop_
_space_group_symop_operation_xyz
x,y,z
-x,-y,z
x,-y,-z
-x,y,-z
-x,-y,-z
x,y,-z
-x,y,z
x,-y,z
1/2+x,1/2+y,z
1/2-x,1/2-y,z
1/2+x,1/2-y,-z
1/2-x,1/2+y,-z
1/2-x,1/2-y,-z
1/2+x,1/2+y,-z
1/2-x,1/2+y,z
1/2+x,1/2-y,z
loop_
_atom_site_type_symbol
_atom_site_label
_atom_site_fract_x
_atom_site_fract_y
_atom_site_fract_z
Si Si1 0.597394 0.884107 0.916252
Si Si2 0.217208 0.613736 0.785124
Si Si3 0.899922 0.395632 0.500000
Si Si4 0.595371 0.387726 0.732648
Si Si5 0.655966 0.779511 0.359640
O O1 0.500000 0.856214 0.895729
O O2 0.668015 0.852812 0.857831
O O3 0.598457 0.000000 0.916843
O O4 0.613611 0.853068 0.000000
O O5 0.207799 0.500000 0.780970
O O6 0.319291 0.633141 0.780764
O O7 0.171835 0.659137 0.714230
O O8 0.857049 0.500000 0.500000
O O9 0.880626 0.339306 0.574197
O O10 0.000000 0.408031 0.500000
O O11 0.500000 0.373911 0.765261
O O12 0.601416 0.500000 0.712304
O O13 0.605194 0.314776 0.665041
O O14 0.750000 0.750000 0.384276
#
# Coordination Sequence:
#
# PCOD9489831 Si02
#       5
#    16  16   8  16  16
#     4   8  14  25  43  71 106 138 166 200 246 301
#     4   9  17  30  51  77 102 130 165 205 252 305
#     4  11  23  36  51  75 107 135 158 195 252 312
#     4   9  18  33  52  72  95 128 173 218 252 287
#     4  10  20  35  53  73  98 131 169 208 248 295
#
# _framework density 17.953348999999999
#
# number of rings (size 3 to 8) (size 9 to 14) (size 15 to 20)
#    0.000    2.778    0.000    2.333    0.000    2.667 
#    0.000    2.778    0.000    8.667    0.000    4.667 
#    0.000    0.000    0.000    0.000    0.000    0.000 
#
# Total GULP energy -200406.222077 kJ/mol
# GULP energy per Si atom -5566.839502 kJ/mol
# Density = 1.791249 g / cm^3
# Si number density = 17.953349 Si / 1000 Ang^3
#
#
#
# Elastic Constant Matrix: (Units=GPa)
#
#
# Indices 1 2 3 4 5 6 
#
# 1 127.8302 44.0306 91.9950 0.0000 0.0000 0.0000
# 2 44.0306 70.0363 48.0913 0.0000 0.0000 0.0000
# 3 91.9950 48.0913 115.6055 0.0000 0.0000 0.0000
# 4 0.0000 0.0000 0.0000 21.6655 0.0000 0.0000
# 5 0.0000 0.0000 0.0000 0.0000 32.3855 0.0000
# 6 0.0000 0.0000 0.0000 0.0000 0.0000 17.5645
#
#
#
# Elastic Compliance Matrix: (Units=1/GPa)
#
#
# Indices 1 2 3 4 5 6 
#
# 1 0.018532 -0.002134 -0.013860 0.000000 0.000000 0.000000
# 2 -0.002134 0.020234 -0.006719 0.000000 0.000000 0.000000
# 3 -0.013860 -0.006719 0.022474 0.000000 0.000000 0.000000
# 4 0.000000 0.000000 0.000000 0.046156 0.000000 0.000000
# 5 0.000000 0.000000 0.000000 0.000000 0.030878 0.000000
# 6 0.000000 0.000000 0.000000 0.000000 0.000000 0.056933
#
#
# Mechanical properties :
#
#
# Convention : Reuss Voigt Hill
#
# Bulk Modulus (GPa) = 63.23138 75.74509 69.48824
# Shear Modulus (GPa) = 20.33318 22.94678 21.63998
#
# Velocity S-wave (km/s) = 3.36900 3.57898 3.47557
# Velocity P-wave (km/s) = 7.10140 7.70456 7.40912
#
# Compressibility (1/GPa) = 0.01581493
#
# Stress axis : x y z
#
# Youngs Moduli (GPa) = 53.96027 49.42290 44.49572
#
# Poissons Ratio (x) = 0.10547 0.61669
# Poissons Ratio (y) = 0.11515 0.29896
# Poissons Ratio (z) = 0.74786 0.33207
#
# Static dielectric constant tensor:
#      x y z
#    x 1.634840 0.000000 0.000000 
#    y 0.000000 1.674970 0.000000 
#    z 0.000000 0.000000 1.592620 
# 
# From -- ./inp_files/52717.got.cif
#   From: 2010.05.17/outbox.cif.g08.bks.cpg/sg65_27_cif.got.tgz:52717.got - 2010.06.03 17:01:31.
