data_PCOD9489276
_publ_section_title
;
Structure prediction by ZEFSAII (Michael W. Deem and Ramdas Pophale) SiO2 
 PCOD9489276
Probable space group: C M M M
;
_chemical_formula_sum "Si O2"
_cell_formula_units_Z 116
_cell_length_a 28.455574
_cell_length_b 26.439520
_cell_length_c 9.392459
_cell_angle_alpha 90.000000
_cell_angle_beta 90.000000
_cell_angle_gamma 90.000000
_cell_volume 7066.432664
_symmetry_space_group_name_H-M "C M M M"
_symmetry_group_IT_number 65
_symmetry_cell_setting 'orthorhombic'
loop_
_space_group_symop_operation_xyz
x,y,z
-x,-y,z
x,-y,-z
-x,y,-z
-x,-y,-z
x,y,-z
-x,y,z
x,-y,z
1/2+x,1/2+y,z
1/2-x,1/2-y,z
1/2+x,1/2-y,-z
1/2-x,1/2+y,-z
1/2-x,1/2-y,-z
1/2+x,1/2+y,-z
1/2-x,1/2+y,z
1/2+x,1/2-y,z
loop_
_atom_site_type_symbol
_atom_site_label
_atom_site_fract_x
_atom_site_fract_y
_atom_site_fract_z
Si Si1 0.188324 0.303457 0.840715
Si Si2 0.288420 0.352777 0.833109
Si Si3 0.359223 0.715293 0.330027
Si Si4 0.742970 0.059149 0.339403
Si Si5 0.445464 0.245978 0.167573
Si Si6 0.644018 0.910523 0.766093
Si Si7 0.636661 0.000000 0.000000
Si Si8 0.446687 0.858269 0.663554
O O1 0.243178 0.315683 0.819361
O O2 0.167670 0.265978 0.723797
O O3 0.161721 0.357249 0.832872
O O4 0.182056 0.281665 0.000000
O O5 0.330087 0.330417 0.738998
O O6 0.270253 0.406015 0.772100
O O7 0.300168 0.355914 0.000000
O O8 0.361060 0.713009 0.500000
O O9 0.410277 0.719879 0.258164
O O10 0.759839 0.068957 0.500000
O O11 0.687876 0.073370 0.331684
O O12 0.747960 0.000000 0.306610
O O13 0.500000 0.260767 0.182661
O O14 0.441265 0.189299 0.231214
O O15 0.433480 0.246018 0.000000
O O16 0.637813 0.955273 0.877676
O O17 0.594534 0.897906 0.692533
O O18 0.442636 0.840112 0.500000
O O19 0.500000 0.878370 0.682371
#
# Coordination Sequence:
#
# PCOD9489276 Si02
#       8
#    16  16  16  16  16  16   4  16
#     4  10  20  34  53  73 102 138 174 219 267 324
#     4  10  22  36  54  77 108 144 179 222 264 314
#     4  12  23  34  53  80 112 142 173 216 268 327
#     4  10  21  36  56  79 107 141 182 224 267 318
#     4  10  21  36  56  80 107 140 179 219 264 325
#     4  11  21  35  56  75 102 131 178 227 278 325
#     4  12  24  36  55  82  98 136 182 238 275 336
#     4  10  21  37  56  77 100 130 172 224 285 342
#
# _framework density 16.415638000000001
#
# number of rings (size 3 to 8) (size 9 to 14) (size 15 to 20)
#    0.000    1.517    2.759    2.897    1.931    5.517 
#    0.000    0.690    0.000    0.828    0.000    0.000 
#    0.000    0.552    0.000    5.793    0.000    2.483 
#
# Total GULP energy -323209.860440 kJ/mol
# GULP energy per Si atom -5572.583801 kJ/mol
# Density = 1.637827 g / cm^3
# Si number density = 16.415638 Si / 1000 Ang^3
#
#
#
# Elastic Constant Matrix: (Units=GPa)
#
#
# Indices 1 2 3 4 5 6 
#
# 1 87.6992 39.7037 61.5801 0.0000 0.0000 0.0000
# 2 39.7037 60.9367 47.7111 0.0000 0.0000 0.0000
# 3 61.5801 47.7111 145.8314 0.0000 0.0000 0.0000
# 4 0.0000 0.0000 0.0000 23.8377 0.0000 0.0000
# 5 0.0000 0.0000 0.0000 0.0000 15.3666 0.0000
# 6 0.0000 0.0000 0.0000 0.0000 0.0000 13.8691
#
#
#
# Elastic Compliance Matrix: (Units=1/GPa)
#
#
# Indices 1 2 3 4 5 6 
#
# 1 0.018777 -0.008101 -0.005278 0.000000 0.000000 0.000000
# 2 -0.008101 0.025557 -0.004940 0.000000 0.000000 0.000000
# 3 -0.005278 -0.004940 0.010702 0.000000 0.000000 0.000000
# 4 0.000000 0.000000 0.000000 0.041950 0.000000 0.000000
# 5 0.000000 0.000000 0.000000 0.000000 0.065076 0.000000
# 6 0.000000 0.000000 0.000000 0.000000 0.000000 0.072103
#
#
# Mechanical properties :
#
#
# Convention : Reuss Voigt Hill
#
# Bulk Modulus (GPa) = 54.35969 65.82856 60.09412
# Shear Modulus (GPa) = 18.05461 20.31284 19.18372
#
# Velocity S-wave (km/s) = 3.31998 3.52150 3.42222
# Velocity P-wave (km/s) = 6.91974 7.53145 7.23207
#
# Compressibility (1/GPa) = 0.01839598
#
# Stress axis : x y z
#
# Youngs Moduli (GPa) = 53.25793 39.12807 93.43648
#
# Poissons Ratio (x) = 0.31699 0.49319
# Poissons Ratio (y) = 0.43146 0.46162
# Poissons Ratio (z) = 0.28111 0.19331
#
# Static dielectric constant tensor:
#      x y z
#    x 1.574150 0.000000 0.000000 
#    y 0.000000 1.532330 0.000000 
#    z 0.000000 0.000000 1.564030 
# 
# From -- ./inp_files/18931.got.cif
#   From: 2010.05.17/outbox.cif.g08.bks.cpg/sg65_10_cif.got.tgz:18931.got - 2010.06.03 17:01:31.
