data_PCOD9489199
_publ_section_title
;
Structure prediction by ZEFSAII (Michael W. Deem and Ramdas Pophale) SiO2 
 PCOD9489199
Probable space group: C M M M
;
_chemical_formula_sum "Si O2"
_cell_formula_units_Z 104
_cell_length_a 8.903127
_cell_length_b 21.587387
_cell_length_c 30.449192
_cell_angle_alpha 90.000000
_cell_angle_beta 90.000000
_cell_angle_gamma 90.000000
_cell_volume 5852.190010
_symmetry_space_group_name_H-M "C M M M"
_symmetry_group_IT_number 65
_symmetry_cell_setting 'orthorhombic'
loop_
_space_group_symop_operation_xyz
x,y,z
-x,-y,z
x,-y,-z
-x,y,-z
-x,-y,-z
x,y,-z
-x,y,z
x,-y,z
1/2+x,1/2+y,z
1/2-x,1/2-y,z
1/2+x,1/2-y,-z
1/2-x,1/2+y,-z
1/2-x,1/2-y,-z
1/2+x,1/2+y,-z
1/2-x,1/2+y,z
1/2+x,1/2-y,z
loop_
_atom_site_type_symbol
_atom_site_label
_atom_site_fract_x
_atom_site_fract_y
_atom_site_fract_z
Si Si1 0.168255 0.500000 0.447649
Si Si2 0.181252 0.429684 0.202022
Si Si3 0.179196 0.871018 0.449662
Si Si4 0.680159 0.570408 0.105091
Si Si5 0.319019 0.180617 0.732358
Si Si6 0.821969 0.684241 0.052486
Si Si7 0.678599 0.815779 0.636296
O O1 0.149438 0.500000 0.500000
O O2 0.264243 0.560276 0.438605
O O3 0.000000 0.500000 0.427900
O O4 0.216307 0.500000 0.218570
O O5 0.256923 0.423534 0.154481
O O6 0.227182 0.372073 0.232841
O O7 0.000000 0.426599 0.197397
O O8 0.228068 0.855562 0.500000
O O9 0.250559 0.833815 0.410037
O O10 0.000000 0.866709 0.448831
O O11 0.500000 0.575477 0.105233
O O12 0.719085 0.500000 0.089955
O O13 0.749359 0.625190 0.076122
O O14 0.500000 0.188359 0.734612
O O15 0.250000 0.250000 0.739068
O O16 0.286994 0.152627 0.683316
O O17 0.750000 0.750000 0.066559
O O18 0.000000 0.685655 0.061031
O O19 0.798474 0.678826 0.000000
O O20 0.500000 0.815050 0.630892
O O21 0.750000 0.750000 0.645339
#
# Coordination Sequence:
#
# PCOD9489199 Si02
#       7
#     8  16  16  16  16  16  16
#     4   9  17  31  51  73  97 127 163 203 245 291
#     4   9  18  35  57  79 107 141 179 224 273 324
#     4  10  20  34  52  74 102 135 169 208 255 306
#     4  10  21  36  55  81 113 148 186 229 277 327
#     4   9  19  35  55  79 104 137 176 216 268 322
#     4  10  21  37  57  81 111 148 190 235 281 329
#     4  10  20  35  53  75 102 133 170 212 259 311
#
# _framework density 17.771124
#
# number of rings (size 3 to 8) (size 9 to 14) (size 15 to 20)
#    0.000    2.385    0.000    2.077    0.000    6.154 
#    1.385    3.077    0.000    0.000    0.000    0.000 
#    0.000    0.000    0.000    0.000    0.000    0.000 
#
# Total GULP energy -289469.010206 kJ/mol
# GULP energy per Si atom -5566.711735 kJ/mol
# Density = 1.773068 g / cm^3
# Si number density = 17.771124 Si / 1000 Ang^3
#
#
#
# Elastic Constant Matrix: (Units=GPa)
#
#
# Indices 1 2 3 4 5 6 
#
# 1 59.5312 49.3990 50.5516 0.0000 0.0000 0.0000
# 2 49.3990 124.2146 76.8420 0.0000 0.0000 0.0000
# 3 50.5516 76.8420 82.7338 0.0000 0.0000 0.0000
# 4 0.0000 0.0000 0.0000 95.3952 0.0000 0.0000
# 5 0.0000 0.0000 0.0000 0.0000 15.0952 0.0000
# 6 0.0000 0.0000 0.0000 0.0000 0.0000 37.4229
#
#
#
# Elastic Compliance Matrix: (Units=1/GPa)
#
#
# Indices 1 2 3 4 5 6 
#
# 1 0.035051 -0.001623 -0.019909 0.000000 0.000000 0.000000
# 2 -0.001623 0.018998 -0.016654 0.000000 0.000000 0.000000
# 3 -0.019909 -0.016654 0.039719 0.000000 0.000000 0.000000
# 4 0.000000 0.000000 0.000000 0.010483 0.000000 0.000000
# 5 0.000000 0.000000 0.000000 0.000000 0.066246 0.000000
# 6 0.000000 0.000000 0.000000 0.000000 0.000000 0.026722
#
#
# Mechanical properties :
#
#
# Convention : Reuss Voigt Hill
#
# Bulk Modulus (GPa) = 57.48156 68.89608 63.18882
# Shear Modulus (GPa) = 17.89617 35.56180 26.72898
#
# Velocity S-wave (km/s) = 3.17683 4.47822 3.88244
# Velocity P-wave (km/s) = 6.77289 8.09889 7.46539
#
# Compressibility (1/GPa) = 0.01739688
#
# Stress axis : x y z
#
# Youngs Moduli (GPa) = 28.53007 52.63578 25.17673
#
# Poissons Ratio (x) = 0.08544 0.50124
# Poissons Ratio (y) = 0.04631 0.41928
# Poissons Ratio (z) = 0.56800 0.87658
#
# Static dielectric constant tensor:
#      x y z
#    x 1.605740 0.000000 0.000000 
#    y 0.000000 1.415120 0.000000 
#    z 0.000000 0.000000 1.624560 
# 
# From -- ./inp_files/73339.got.cif
#   From: 2010.05.17/outbox.cif.g08.bks.cpg/sg65_37_cif.got.tgz:73339.got - 2010.06.03 17:01:31.
