data_PCOD9489943
_publ_section_title
;
Structure prediction by ZEFSAII (Michael W. Deem and Ramdas Pophale) SiO2 
 PCOD9489943
Probable space group: C M M M
;
_chemical_formula_sum "Si O2"
_cell_formula_units_Z 88
_cell_length_a 17.458882
_cell_length_b 31.198642
_cell_length_c 8.272551
_cell_angle_alpha 90.000000
_cell_angle_beta 90.000000
_cell_angle_gamma 90.000000
_cell_volume 4506.004007
_symmetry_space_group_name_H-M "C M M M"
_symmetry_group_IT_number 65
_symmetry_cell_setting 'orthorhombic'
loop_
_space_group_symop_operation_xyz
x,y,z
-x,-y,z
x,-y,-z
-x,y,-z
-x,-y,-z
x,y,-z
-x,y,z
x,-y,z
1/2+x,1/2+y,z
1/2-x,1/2-y,z
1/2+x,1/2-y,-z
1/2-x,1/2+y,-z
1/2-x,1/2-y,-z
1/2+x,1/2+y,-z
1/2-x,1/2+y,z
1/2+x,1/2-y,z
loop_
_atom_site_type_symbol
_atom_site_label
_atom_site_fract_x
_atom_site_fract_y
_atom_site_fract_z
Si Si1 0.134758 0.387977 0.189260
Si Si2 0.912200 0.047090 0.803002
Si Si3 0.410687 0.295857 0.805139
Si Si4 0.000000 0.450412 0.307845
Si Si5 0.192904 0.124721 0.801554
Si Si6 0.091490 0.702978 0.681779
O O1 0.074655 0.422142 0.260321
O O2 0.221431 0.385795 0.255044
O O3 0.107408 0.339162 0.215026
O O4 0.138370 0.397787 0.000000
O O5 0.860274 0.085653 0.749062
O O6 0.000000 0.052562 0.752280
O O7 0.885253 0.000000 0.752387
O O8 0.912146 0.047675 0.000000
O O9 0.500000 0.303302 0.751370
O O10 0.350153 0.331769 0.749799
O O11 0.383777 0.248625 0.752525
O O12 0.412882 0.297216 0.000000
O O13 0.000000 0.500000 0.244106
O O14 0.000000 0.453310 0.500000
O O15 0.195545 0.126264 0.000000
O O16 0.121779 0.696839 0.500000
O O17 0.000000 0.706261 0.672788
#
# Coordination Sequence:
#
# PCOD9489943 Si02
#       6
#    16  16  16   8  16  16
#     4  11  22  36  58  84 110 140 178 225 279 333
#     4   8  13  23  42  68 101 142 179 209 253 316
#     4   9  17  31  53  79 110 149 189 225 265 317
#     4  11  25  45  65  83 107 141 183 231 284 341
#     4   9  18  30  46  76 113 143 175 225 277 322
#     4  10  20  35  55  76 105 144 187 230 274 326
#
# _framework density 19.529499999999999
#
# number of rings (size 3 to 8) (size 9 to 14) (size 15 to 20)
#    0.000    2.455    0.909    2.455    0.000    5.091 
#    0.000    7.273    0.000    0.000    0.000    0.000 
#    0.000    0.000    0.000   18.545    0.000   16.727 
#
# Total GULP energy -245197.651462 kJ/mol
# GULP energy per Si atom -5572.673897 kJ/mol
# Density = 1.948505 g / cm^3
# Si number density = 19.529500 Si / 1000 Ang^3
#
#
#
# Elastic Constant Matrix: (Units=GPa)
#
#
# Indices 1 2 3 4 5 6 
#
# 1 83.1188 84.1109 10.6263 0.0000 0.0000 0.0000
# 2 84.1109 174.0778 5.0058 0.0000 0.0000 0.0000
# 3 10.6263 5.0058 11.8470 0.0000 0.0000 0.0000
# 4 0.0000 0.0000 0.0000 8.3047 0.0000 0.0000
# 5 0.0000 0.0000 0.0000 0.0000 0.4526 0.0000
# 6 0.0000 0.0000 0.0000 0.0000 0.0000 23.2474
#
#
#
# Elastic Compliance Matrix: (Units=1/GPa)
#
#
# Indices 1 2 3 4 5 6 
#
# 1 0.027232 -0.012609 -0.019098 0.000000 0.000000 0.000000
# 2 -0.012609 0.011653 0.006386 0.000000 0.000000 0.000000
# 3 -0.019098 0.006386 0.098841 0.000000 0.000000 0.000000
# 4 0.000000 0.000000 0.000000 0.120414 0.000000 0.000000
# 5 0.000000 0.000000 0.000000 0.000000 2.209242 0.000000
# 6 0.000000 0.000000 0.000000 0.000000 0.000000 0.043016
#
#
# Mechanical properties :
#
#
# Convention : Reuss Voigt Hill
#
# Bulk Modulus (GPa) = 11.48319 52.05883 31.77101
# Shear Modulus (GPa) = 1.93045 17.68765 9.80905
#
# Velocity S-wave (km/s) = 0.99530 3.01273 2.24357
# Velocity P-wave (km/s) = 2.68580 6.23028 4.79739
#
# Compressibility (1/GPa) = 0.08708384
#
# Stress axis : x y z
#
# Youngs Moduli (GPa) = 36.72201 85.81365 10.11724
#
# Poissons Ratio (x) = 1.08199 0.19322
# Poissons Ratio (y) = 0.46301 -0.06460
# Poissons Ratio (z) = 0.70132 -0.54796
#
# Static dielectric constant tensor:
#      x y z
#    x 1.703670 0.000000 0.000000 
#    y 0.000000 1.678950 0.000000 
#    z 0.000000 0.000000 1.705640 
# 
# From -- ./inp_files/10094.got.cif
#   From: 2010.05.17/outbox.cif.g08.bks.cpg/sg65_6_cif.got.tgz:10094.got - 2010.06.03 17:01:31.
