data_PCOD9489465
_publ_section_title
;
Structure prediction by ZEFSAII (Michael W. Deem and Ramdas Pophale) SiO2 
 PCOD9489465
Probable space group: C M M M
;
_chemical_formula_sum "Si O2"
_cell_formula_units_Z 112
_cell_length_a 14.186646
_cell_length_b 18.517700
_cell_length_c 24.175676
_cell_angle_alpha 90.000000
_cell_angle_beta 90.000000
_cell_angle_gamma 90.000000
_cell_volume 6351.048109
_symmetry_space_group_name_H-M "C M M M"
_symmetry_group_IT_number 65
_symmetry_cell_setting 'orthorhombic'
loop_
_space_group_symop_operation_xyz
x,y,z
-x,-y,z
x,-y,-z
-x,y,-z
-x,-y,-z
x,y,-z
-x,y,z
x,-y,z
1/2+x,1/2+y,z
1/2-x,1/2-y,z
1/2+x,1/2-y,-z
1/2-x,1/2+y,-z
1/2-x,1/2-y,-z
1/2+x,1/2+y,-z
1/2-x,1/2+y,z
1/2+x,1/2-y,z
loop_
_atom_site_type_symbol
_atom_site_label
_atom_site_fract_x
_atom_site_fract_y
_atom_site_fract_z
Si Si1 0.886996 0.687923 0.264891
Si Si2 0.610947 0.687458 0.353724
Si Si3 0.716519 0.086242 0.651646
Si Si4 0.203679 0.418117 0.935720
Si Si5 0.613301 0.204575 0.138142
Si Si6 0.613333 0.184345 0.435952
Si Si7 0.109146 0.159165 0.063646
O O1 0.870756 0.759803 0.301438
O O2 0.833891 0.622469 0.295082
O O3 0.856880 0.700484 0.201920
O O4 0.000000 0.674507 0.266566
O O5 0.500000 0.669833 0.355044
O O6 0.678306 0.618958 0.351046
O O7 0.633911 0.739156 0.406055
O O8 0.662184 0.121457 0.599344
O O9 0.713457 0.000000 0.652169
O O10 0.179594 0.500000 0.921804
O O11 0.153656 0.361568 0.896429
O O12 0.315955 0.404691 0.931363
O O13 0.178125 0.404743 0.000000
O O14 0.500000 0.201049 0.137361
O O15 0.637756 0.278463 0.106402
O O16 0.640768 0.184265 0.500000
O O17 0.500000 0.175102 0.432111
O O18 0.000000 0.138961 0.072895
O O19 0.116024 0.186753 0.000000
#
# Coordination Sequence:
#
# PCOD9489465 Si02
#       7
#    16  16  16  16  16  16  16
#     4   9  19  36  56  75  96 127 168 211 252 296
#     4   9  19  36  55  75 101 134 173 212 247 290
#     4  11  22  33  50  78 109 138 166 203 252 301
#     4  10  21  34  48  71 103 135 164 196 241 300
#     4  10  20  34  54  77  98 125 164 208 252 297
#     4   9  18  34  57  81 103 133 174 215 252 291
#     4   9  18  33  53  75  97 124 163 210 252 289
#
# _framework density 17.634884
#
# number of rings (size 3 to 8) (size 9 to 14) (size 15 to 20)
#    0.000    2.429    0.000    3.857    0.000    8.286 
#    0.000    4.286    0.000    0.000    0.000    9.000 
#    0.000    0.000    0.000    0.000    0.000    0.000 
#
# Total GULP energy -312501.897884 kJ/mol
# GULP energy per Si atom -5580.391034 kJ/mol
# Density = 1.759475 g / cm^3
# Si number density = 17.634884 Si / 1000 Ang^3
#
#
#
# Elastic Constant Matrix: (Units=GPa)
#
#
# Indices 1 2 3 4 5 6 
#
# 1 44.0498 20.3865 12.8635 0.0000 0.0000 0.0000
# 2 20.3865 66.2713 22.3797 0.0000 0.0000 0.0000
# 3 12.8635 22.3797 69.2889 0.0000 0.0000 0.0000
# 4 0.0000 0.0000 0.0000 209.8020 0.0000 0.0000
# 5 0.0000 0.0000 0.0000 0.0000 14.2722 0.0000
# 6 0.0000 0.0000 0.0000 0.0000 0.0000 10.8582
#
#
#
# Elastic Compliance Matrix: (Units=1/GPa)
#
#
# Indices 1 2 3 4 5 6 
#
# 1 0.026882 -0.007390 -0.002604 0.000000 0.000000 0.000000
# 2 -0.007390 0.018969 -0.004755 0.000000 0.000000 0.000000
# 3 -0.002604 -0.004755 0.016451 0.000000 0.000000 0.000000
# 4 0.000000 0.000000 0.000000 0.004766 0.000000 0.000000
# 5 0.000000 0.000000 0.000000 0.000000 0.070066 0.000000
# 6 0.000000 0.000000 0.000000 0.000000 0.000000 0.092096
#
#
# Mechanical properties :
#
#
# Convention : Reuss Voigt Hill
#
# Bulk Modulus (GPa) = 30.48326 32.31880 31.40103
# Shear Modulus (GPa) = 18.54168 55.25185 36.89676
#
# Velocity S-wave (km/s) = 3.24608 5.60348 4.57909
# Velocity P-wave (km/s) = 5.60113 7.76091 6.76773
#
# Compressibility (1/GPa) = 0.03280489
#
# Stress axis : x y z
#
# Youngs Moduli (GPa) = 37.19938 52.71893 60.78506
#
# Poissons Ratio (x) = 0.38961 0.15827
# Poissons Ratio (y) = 0.27491 0.28901
# Poissons Ratio (z) = 0.09686 0.25066
#
# Static dielectric constant tensor:
#      x y z
#    x 1.633570 0.000000 0.000000 
#    y 0.000000 1.547670 0.000000 
#    z 0.000000 0.000000 1.601360 
# 
# From -- ./inp_files/69987.got.cif
#   From: 2010.05.17/outbox.cif.g08.bks.cpg/sg65_35_cif.got.tgz:69987.got - 2010.06.03 17:01:31.
