data_PCOD9489552
_publ_section_title
;
Structure prediction by ZEFSAII (Michael W. Deem and Ramdas Pophale) SiO2 
 PCOD9489552
Probable space group: C M M M
;
_chemical_formula_sum "Si O2"
_cell_formula_units_Z 96
_cell_length_a 27.920813
_cell_length_b 20.200955
_cell_length_c 8.897347
_cell_angle_alpha 90.000000
_cell_angle_beta 90.000000
_cell_angle_gamma 90.000000
_cell_volume 5018.344710
_symmetry_space_group_name_H-M "C M M M"
_symmetry_group_IT_number 65
_symmetry_cell_setting 'orthorhombic'
loop_
_space_group_symop_operation_xyz
x,y,z
-x,-y,z
x,-y,-z
-x,y,-z
-x,-y,-z
x,y,-z
-x,y,z
x,-y,z
1/2+x,1/2+y,z
1/2-x,1/2-y,z
1/2+x,1/2-y,-z
1/2-x,1/2+y,-z
1/2-x,1/2-y,-z
1/2+x,1/2+y,-z
1/2-x,1/2+y,z
1/2+x,1/2-y,z
loop_
_atom_site_type_symbol
_atom_site_label
_atom_site_fract_x
_atom_site_fract_y
_atom_site_fract_z
Si Si1 0.359835 0.579177 0.825510
Si Si2 0.055681 0.573537 0.682989
Si Si3 0.607131 0.794086 0.680142
Si Si4 0.554416 0.339807 0.319859
Si Si5 0.257811 0.577010 0.679558
Si Si6 0.708060 0.800590 0.820388
O O1 0.366692 0.500000 0.815939
O O2 0.405806 0.615489 0.758873
O O3 0.311241 0.594883 0.735721
O O4 0.352871 0.597259 0.000000
O O5 0.056509 0.574348 0.500000
O O6 0.071561 0.500000 0.730724
O O7 0.087411 0.634994 0.733543
O O8 0.000000 0.582142 0.726371
O O9 0.614538 0.797163 0.500000
O O10 0.568743 0.736440 0.708610
O O11 0.657110 0.777790 0.757843
O O12 0.557060 0.350146 0.500000
O O13 0.500000 0.353338 0.271263
O O14 0.255343 0.582371 0.500000
O O15 0.249218 0.500000 0.720986
O O16 0.221148 0.627715 0.753983
O O17 0.750000 0.750000 0.774087
O O18 0.706997 0.803389 0.000000
#
# Coordination Sequence:
#
# PCOD9489552 Si02
#       6
#    16  16  16  16  16  16
#     4  10  21  37  57  81 110 143 178 220 273 331
#     4   8  14  27  50  79 108 137 170 210 256 306
#     4  10  20  34  54  80 109 140 179 227 272 315
#     4  10  21  36  55  80 110 145 185 230 277 322
#     4  10  21  38  61  86 110 140 181 227 275 328
#     4  11  24  39  55  78 110 147 185 224 270 327
#
# _framework density 19.129812999999999
#
# number of rings (size 3 to 8) (size 9 to 14) (size 15 to 20)
#    0.000    2.167    0.000    3.500    0.000   10.000 
#    0.000    3.333    0.000    1.500    0.000    1.167 
#    0.000    0.000    0.000    0.000    0.000    0.000 
#
# Total GULP energy -268085.646162 kJ/mol
# GULP energy per Si atom -5585.117628 kJ/mol
# Density = 1.908627 g / cm^3
# Si number density = 19.129813 Si / 1000 Ang^3
#
#
#
# Elastic Constant Matrix: (Units=GPa)
#
#
# Indices 1 2 3 4 5 6 
#
# 1 30.1618 -9.2334 4.0698 0.0000 0.0000 0.0000
# 2 -9.2334 27.8831 12.3846 0.0000 0.0000 0.0000
# 3 4.0698 12.3846 19.3002 0.0000 0.0000 0.0000
# 4 0.0000 0.0000 0.0000 21.6131 0.0000 0.0000
# 5 0.0000 0.0000 0.0000 0.0000 -64.0051 0.0000
# 6 0.0000 0.0000 0.0000 0.0000 0.0000 38.3177
#
#
#
# Elastic Compliance Matrix: (Units=1/GPa)
#
#
# Indices 1 2 3 4 5 6 
#
# 1 0.044911 0.026684 -0.026593 0.000000 0.000000 0.000000
# 2 0.026684 0.066014 -0.047987 0.000000 0.000000 0.000000
# 3 -0.026593 -0.047987 0.088212 0.000000 0.000000 0.000000
# 4 0.000000 0.000000 0.000000 0.046268 0.000000 0.000000
# 5 0.000000 0.000000 0.000000 0.000000 -0.015624 0.000000
# 6 0.000000 0.000000 0.000000 0.000000 0.000000 0.026098
#
#
# Mechanical properties :
#
#
# Convention : Reuss Voigt Hill
#
# Bulk Modulus (GPa) = 9.67616 10.19854 9.93735
# Shear Modulus (GPa) = 12.94933 3.86008 8.40471
#
# Velocity S-wave (km/s) = 2.60459 1.42205 2.09834
# Velocity P-wave (km/s) = 3.75690 2.83533 3.32817
#
# Compressibility (1/GPa) = 0.10334678
#
# Stress axis : x y z
#
# Youngs Moduli (GPa) = 22.26605 15.14826 11.33627
#
# Poissons Ratio (x) = -0.40421 0.30146
# Poissons Ratio (y) = -0.59414 0.54399
# Poissons Ratio (z) = 0.59212 0.72691
#
# Static dielectric constant tensor:
#      x y z
#    x 1.631010 0.000000 0.000000 
#    y 0.000000 1.677730 0.000000 
#    z 0.000000 0.000000 1.644470 
# 
# From -- ./inp_files/12306.got.cif
#   From: 2010.05.17/outbox.cif.g08.bks.cpg/sg65_7_cif.got.tgz:12306.got - 2010.06.03 17:01:31.
