data_PCOD9489604
_publ_section_title
;
Structure prediction by ZEFSAII (Michael W. Deem and Ramdas Pophale) SiO2 
 PCOD9489604
Probable space group: C M M M
;
_chemical_formula_sum "Si O2"
_cell_formula_units_Z 88
_cell_length_a 24.724275
_cell_length_b 8.879495
_cell_length_c 23.098539
_cell_angle_alpha 90.000000
_cell_angle_beta 90.000000
_cell_angle_gamma 90.000000
_cell_volume 5071.031915
_symmetry_space_group_name_H-M "C M M M"
_symmetry_group_IT_number 65
_symmetry_cell_setting 'orthorhombic'
loop_
_space_group_symop_operation_xyz
x,y,z
-x,-y,z
x,-y,-z
-x,y,-z
-x,-y,-z
x,y,-z
-x,y,z
x,-y,z
1/2+x,1/2+y,z
1/2-x,1/2-y,z
1/2+x,1/2-y,-z
1/2-x,1/2+y,-z
1/2-x,1/2-y,-z
1/2+x,1/2+y,-z
1/2-x,1/2+y,z
1/2+x,1/2-y,z
loop_
_atom_site_type_symbol
_atom_site_label
_atom_site_fract_x
_atom_site_fract_y
_atom_site_fract_z
Si Si1 0.809759 0.819675 0.000000
Si Si2 0.000000 0.681029 0.930847
Si Si3 0.000000 0.670312 0.430148
Si Si4 0.308548 0.179018 0.339674
Si Si5 0.190066 0.319547 0.205435
Si Si6 0.885879 0.181597 0.891134
Si Si7 0.887612 0.820128 0.432823
O O1 0.750000 0.750000 0.000000
O O2 0.845698 0.778239 0.944302
O O3 0.803488 0.000000 0.000000
O O4 0.054834 0.749649 0.903405
O O5 0.000000 0.500000 0.924004
O O6 0.000000 0.715041 0.000000
O O7 0.946383 0.759960 0.415026
O O8 0.000000 0.500000 0.407180
O O9 0.000000 0.661261 0.500000
O O10 0.250000 0.250000 0.347655
O O11 0.323956 0.210005 0.272821
O O12 0.346557 0.250133 0.387681
O O13 0.306683 0.000000 0.346854
O O14 0.192853 0.500000 0.196601
O O15 0.250000 0.250000 0.194073
O O16 0.144635 0.246821 0.164848
O O17 0.890039 0.000000 0.888174
O O18 0.877306 0.774356 0.500000
O O19 0.886109 0.000000 0.430866
#
# Coordination Sequence:
#
# PCOD9489604 Si02
#       7
#     8   8   8  16  16  16  16
#     4  10  22  35  52  81 113 142 176 220 267 316
#     4  11  23  39  60  85 114 153 190 228 278 333
#     4   9  17  31  52  77 106 141 179 219 269 326
#     4  10  21  37  57  80 110 147 186 230 279 335
#     4  10  21  38  59  84 112 145 187 232 280 334
#     4  11  22  38  59  83 113 149 186 228 275 328
#     4  10  20  34  54  81 112 145 184 231 281 335
#
# _framework density 17.353470000000002
#
# number of rings (size 3 to 8) (size 9 to 14) (size 15 to 20)
#    0.000    1.818    0.909    3.273    0.000    8.000 
#    0.000    0.909    0.000    5.455    0.000    0.000 
#    0.000    0.000    0.000    0.000    0.000    0.000 
#
# Total GULP energy -245617.199598 kJ/mol
# GULP energy per Si atom -5582.209082 kJ/mol
# Density = 1.731397 g / cm^3
# Si number density = 17.353470 Si / 1000 Ang^3
#
#
#
# Elastic Constant Matrix: (Units=GPa)
#
#
# Indices 1 2 3 4 5 6 
#
# 1 171.0936 80.4647 115.2164 0.0000 0.0000 0.0000
# 2 80.4647 90.0379 77.1014 0.0000 0.0000 0.0000
# 3 115.2164 77.1014 125.4079 0.0000 0.0000 0.0000
# 4 0.0000 0.0000 0.0000 28.9720 0.0000 0.0000
# 5 0.0000 0.0000 0.0000 0.0000 -48.7592 0.0000
# 6 0.0000 0.0000 0.0000 0.0000 0.0000 39.6134
#
#
#
# Elastic Compliance Matrix: (Units=1/GPa)
#
#
# Indices 1 2 3 4 5 6 
#
# 1 0.015856 -0.003581 -0.012366 0.000000 0.000000 0.000000
# 2 -0.003581 0.024263 -0.011627 0.000000 0.000000 0.000000
# 3 -0.012366 -0.011627 0.026484 0.000000 0.000000 0.000000
# 4 0.000000 0.000000 0.000000 0.034516 0.000000 0.000000
# 5 0.000000 0.000000 0.000000 0.000000 -0.020509 0.000000
# 6 0.000000 0.000000 0.000000 0.000000 0.000000 0.025244
#
#
# Mechanical properties :
#
#
# Convention : Reuss Voigt Hill
#
# Bulk Modulus (GPa) = 87.30130 103.56715 95.43423
# Shear Modulus (GPa) = 30.33579 11.54901 20.94240
#
# Velocity S-wave (km/s) = 4.18558 2.58256 3.47769
# Velocity P-wave (km/s) = 8.58928 8.28875 8.44035
#
# Compressibility (1/GPa) = 0.01145458
#
# Stress axis : x y z
#
# Youngs Moduli (GPa) = 63.06573 41.21431 37.75917
#
# Poissons Ratio (x) = 0.14759 0.46694
# Poissons Ratio (y) = 0.22585 0.43903
# Poissons Ratio (z) = 0.77988 0.47921
#
# Static dielectric constant tensor:
#      x y z
#    x 1.552330 0.000000 0.000000 
#    y 0.000000 1.581510 0.000000 
#    z 0.000000 0.000000 1.588380 
# 
# From -- ./inp_files/65240.got.cif
#   From: 2010.05.17/outbox.cif.g08.bks.cpg/sg65_33_cif.got.tgz:65240.got - 2010.06.03 17:01:31.
