data_PCOD9489076
_publ_section_title
;
Structure prediction by ZEFSAII (Michael W. Deem and Ramdas Pophale) SiO2 
 PCOD9489076
Probable space group: C M M M
;
_chemical_formula_sum "Si O2"
_cell_formula_units_Z 104
_cell_length_a 9.289808
_cell_length_b 27.328109
_cell_length_c 27.151751
_cell_angle_alpha 90.000000
_cell_angle_beta 90.000000
_cell_angle_gamma 90.000000
_cell_volume 6893.093376
_symmetry_space_group_name_H-M "C M M M"
_symmetry_group_IT_number 65
_symmetry_cell_setting 'orthorhombic'
loop_
_space_group_symop_operation_xyz
x,y,z
-x,-y,z
x,-y,-z
-x,y,-z
-x,-y,-z
x,y,-z
-x,y,z
x,-y,z
1/2+x,1/2+y,z
1/2-x,1/2-y,z
1/2+x,1/2-y,-z
1/2-x,1/2+y,-z
1/2-x,1/2-y,-z
1/2+x,1/2+y,-z
1/2-x,1/2+y,z
1/2+x,1/2-y,z
loop_
_atom_site_type_symbol
_atom_site_label
_atom_site_fract_x
_atom_site_fract_y
_atom_site_fract_z
Si Si1 0.827726 0.054354 0.604109
Si Si2 0.672431 0.656683 0.556397
Si Si3 0.329540 0.941452 0.803169
Si Si4 0.829234 0.701671 0.648831
Si Si5 0.171313 0.402336 0.697200
Si Si6 0.834149 0.940408 0.098025
Si Si7 0.166059 0.440334 0.000000
O O1 0.794027 0.099542 0.568004
O O2 0.752742 0.066152 0.656026
O O3 0.000000 0.055008 0.610902
O O4 0.786698 0.000000 0.586621
O O5 0.707054 0.668437 0.500000
O O6 0.500000 0.663382 0.563589
O O7 0.759861 0.687820 0.596084
O O8 0.500000 0.932830 0.810958
O O9 0.284246 0.915833 0.752446
O O10 0.242347 0.925423 0.851299
O O11 0.310544 0.000000 0.797069
O O12 0.750000 0.750000 0.667471
O O13 0.804688 0.654300 0.683156
O O14 0.000000 0.709404 0.644188
O O15 0.000000 0.412076 0.693256
O O16 0.747768 0.924542 0.049494
O O17 0.000000 0.924985 0.096062
O O18 0.832128 0.000000 0.097722
O O19 0.167179 0.500000 0.000000
O O20 0.000000 0.424979 0.000000
#
# Coordination Sequence:
#
# PCOD9489076 Si02
#       7
#    16  16  16  16  16  16   8
#     4   9  17  28  43  64  88 113 140 169 202 241
#     4   9  18  32  48  66  88 112 138 168 202 243
#     4   9  16  26  40  58  81 109 140 171 203 241
#     4  10  20  34  51  68  85 106 134 169 211 257
#     4   9  18  31  46  63  83 109 140 173 208 249
#     4   9  16  24  34  51  76 106 141 179 214 244
#     4   9  15  23  35  49  69 103 146 185 216 245
#
# _framework density 15.087565
#
# number of rings (size 3 to 8) (size 9 to 14) (size 15 to 20)
#    0.000    2.846    0.000    1.615    0.000    5.846 
#    0.000    3.077    0.000    0.000    0.000    4.308 
#    0.000    0.000    0.000    0.692    0.000    8.385 
#
# Total GULP energy -289747.989254 kJ/mol
# GULP energy per Si atom -5572.076716 kJ/mol
# Density = 1.505323 g / cm^3
# Si number density = 15.087565 Si / 1000 Ang^3
#
#
#
# Elastic Constant Matrix: (Units=GPa)
#
#
# Indices 1 2 3 4 5 6 
#
# 1 54.5398 16.0669 42.5689 0.0000 0.0000 0.0000
# 2 16.0669 31.5059 0.3998 0.0000 0.0000 0.0000
# 3 42.5689 0.3998 99.0049 0.0000 0.0000 0.0000
# 4 0.0000 0.0000 0.0000 8.1526 0.0000 0.0000
# 5 0.0000 0.0000 0.0000 0.0000 23.8307 0.0000
# 6 0.0000 0.0000 0.0000 0.0000 0.0000 15.8897
#
#
#
# Elastic Compliance Matrix: (Units=1/GPa)
#
#
# Indices 1 2 3 4 5 6 
#
# 1 0.035440 -0.017880 -0.015166 0.000000 0.000000 0.000000
# 2 -0.017880 0.040763 0.007523 0.000000 0.000000 0.000000
# 3 -0.015166 0.007523 0.016591 0.000000 0.000000 0.000000
# 4 0.000000 0.000000 0.000000 0.122661 0.000000 0.000000
# 5 0.000000 0.000000 0.000000 0.000000 0.041963 0.000000
# 6 0.000000 0.000000 0.000000 0.000000 0.000000 0.062934
#
#
# Mechanical properties :
#
#
# Convention : Reuss Voigt Hill
#
# Bulk Modulus (GPa) = 23.95322 33.68020 28.81671
# Shear Modulus (GPa) = 12.97648 17.97558 15.47603
#
# Velocity S-wave (km/s) = 2.93589 3.45544 3.20620
# Velocity P-wave (km/s) = 5.23481 6.18803 5.73127
#
# Compressibility (1/GPa) = 0.04174805
#
# Stress axis : x y z
#
# Youngs Moduli (GPa) = 28.21704 24.53200 60.27412
#
# Poissons Ratio (x) = 0.43864 0.91410
# Poissons Ratio (y) = 0.50453 -0.45347
# Poissons Ratio (z) = 0.42793 -0.18456
#
# Static dielectric constant tensor:
#      x y z
#    x 1.502780 0.000000 0.000000 
#    y 0.000000 1.495850 0.000000 
#    z 0.000000 0.000000 1.484470 
# 
# From -- ./inp_files/68192.got.cif
#   From: 2010.05.17/outbox.cif.g08.bks.cpg/sg65_35_cif.got.tgz:68192.got - 2010.06.03 17:01:31.
