data_PCOD9489576
_publ_section_title
;
Structure prediction by ZEFSAII (Michael W. Deem and Ramdas Pophale) SiO2 
 PCOD9489576
Probable space group: C M M M
;
_chemical_formula_sum "Si O2"
_cell_formula_units_Z 88
_cell_length_a 18.737150
_cell_length_b 10.320507
_cell_length_c 25.706628
_cell_angle_alpha 90.000000
_cell_angle_beta 90.000000
_cell_angle_gamma 90.000000
_cell_volume 4971.067717
_symmetry_space_group_name_H-M "C M M M"
_symmetry_group_IT_number 65
_symmetry_cell_setting 'orthorhombic'
loop_
_space_group_symop_operation_xyz
x,y,z
-x,-y,z
x,-y,-z
-x,y,-z
-x,-y,-z
x,y,-z
-x,y,z
x,-y,z
1/2+x,1/2+y,z
1/2-x,1/2-y,z
1/2+x,1/2-y,-z
1/2-x,1/2+y,-z
1/2-x,1/2-y,-z
1/2+x,1/2+y,-z
1/2-x,1/2+y,z
1/2+x,1/2-y,z
loop_
_atom_site_type_symbol
_atom_site_label
_atom_site_fract_x
_atom_site_fract_y
_atom_site_fract_z
Si Si1 0.414591 0.153155 0.559611
Si Si2 0.921039 0.500000 0.175026
Si Si3 0.819763 0.657638 0.000000
Si Si4 0.335789 0.250384 0.657938
Si Si5 0.914012 0.000000 0.160193
Si Si6 0.582986 0.240641 0.902848
Si Si7 0.342841 0.500000 0.725834
Si Si8 0.171815 0.500000 0.274969
O O1 0.395946 0.187081 0.500000
O O2 0.500000 0.166771 0.565193
O O3 0.374122 0.235321 0.602816
O O4 0.397815 0.000000 0.566899
O O5 0.915093 0.625825 0.139112
O O6 0.862675 0.500000 0.218932
O O7 0.000000 0.500000 0.199427
O O8 0.750000 0.750000 0.000000
O O9 0.866625 0.697973 0.050132
O O10 0.806580 0.500000 0.000000
O O11 0.250000 0.250000 0.650338
O O12 0.359671 0.374180 0.691211
O O13 0.351491 0.124978 0.692747
O O14 0.895179 0.127065 0.126332
O O15 0.878425 0.000000 0.217245
O O16 0.000000 0.000000 0.167105
O O17 0.500000 0.254876 0.920249
O O18 0.257065 0.500000 0.731607
#
# Coordination Sequence:
#
# PCOD9489576 Si02
#       8
#    16   8   8  16   8  16   8   8
#     4   9  18  34  57  83 109 141 188 244 292 334
#     4  10  20  35  59  89 112 144 196 246 286 331
#     4  12  27  43  64  94 124 153 192 243 293 347
#     4  10  20  35  54  80 113 152 191 232 281 347
#     4  10  22  39  59  87 118 154 196 236 284 345
#     4  10  22  41  65  88 118 157 196 239 288 339
#     4  10  22  36  54  80 120 157 187 229 288 343
#     4  10  20  34  54  80 112 151 195 235 282 335
#
# _framework density 17.702435000000001
#
# number of rings (size 3 to 8) (size 9 to 14) (size 15 to 20)
#    0.000    2.000    1.818    1.909    1.273    3.636 
#    0.000    1.818    0.000    1.091    0.000    0.000 
#    0.000    0.000    0.000    0.000    0.000    0.000 
#
# Total GULP energy -245532.828973 kJ/mol
# GULP energy per Si atom -5580.291568 kJ/mol
# Density = 1.766214 g / cm^3
# Si number density = 17.702435 Si / 1000 Ang^3
#
#
#
# Elastic Constant Matrix: (Units=GPa)
#
#
# Indices 1 2 3 4 5 6 
#
# 1 49.0768 44.7701 61.9888 0.0000 0.0000 0.0000
# 2 44.7701 161.4855 73.4167 0.0000 0.0000 0.0000
# 3 61.9888 73.4167 134.3230 0.0000 0.0000 0.0000
# 4 0.0000 0.0000 0.0000 23.4005 0.0000 0.0000
# 5 0.0000 0.0000 0.0000 0.0000 41.9420 0.0000
# 6 0.0000 0.0000 0.0000 0.0000 0.0000 -7.7384
#
#
#
# Elastic Compliance Matrix: (Units=1/GPa)
#
#
# Indices 1 2 3 4 5 6 
#
# 1 0.051302 -0.004603 -0.021159 0.000000 0.000000 0.000000
# 2 -0.004603 0.008653 -0.002605 0.000000 0.000000 0.000000
# 3 -0.021159 -0.002605 0.018634 0.000000 0.000000 0.000000
# 4 0.000000 0.000000 0.000000 0.042734 0.000000 0.000000
# 5 0.000000 0.000000 0.000000 0.000000 0.023842 0.000000
# 6 0.000000 0.000000 0.000000 0.000000 0.000000 -0.129225
#
#
# Mechanical properties :
#
#
# Convention : Reuss Voigt Hill
#
# Bulk Modulus (GPa) = 45.76037 78.35961 62.05999
# Shear Modulus (GPa) = 62.53199 22.50148 42.51673
#
# Velocity S-wave (km/s) = 5.94984 3.56911 4.90608
# Velocity P-wave (km/s) = 8.55025 7.83235 8.19916
#
# Compressibility (1/GPa) = 0.02185297
#
# Stress axis : x y z
#
# Youngs Moduli (GPa) = 19.49254 115.56583 53.66677
#
# Poissons Ratio (x) = 0.53196 1.13555
# Poissons Ratio (y) = 0.08973 0.13981
# Poissons Ratio (z) = 0.41245 0.30107
#
# Static dielectric constant tensor:
#      x y z
#    x 1.599280 0.000000 0.000000 
#    y 0.000000 1.604000 0.000000 
#    z 0.000000 0.000000 1.566620 
# 
# From -- ./inp_files/67730.got.cif
#   From: 2010.05.17/outbox.cif.g08.bks.cpg/sg65_34_cif.got.tgz:67730.got - 2010.06.03 17:01:31.
