data_PCOD9489716
_publ_section_title
;
Structure prediction by ZEFSAII (Michael W. Deem and Ramdas Pophale) SiO2 
 PCOD9489716
Probable space group: C M M M
;
_chemical_formula_sum "Si O2"
_cell_formula_units_Z 88
_cell_length_a 8.000330
_cell_length_b 24.899077
_cell_length_c 19.158369
_cell_angle_alpha 90.000000
_cell_angle_beta 90.000000
_cell_angle_gamma 90.000000
_cell_volume 3816.363058
_symmetry_space_group_name_H-M "C M M M"
_symmetry_group_IT_number 65
_symmetry_cell_setting 'orthorhombic'
loop_
_space_group_symop_operation_xyz
x,y,z
-x,-y,z
x,-y,-z
-x,y,-z
-x,-y,-z
x,y,-z
-x,y,z
x,-y,z
1/2+x,1/2+y,z
1/2-x,1/2-y,z
1/2+x,1/2-y,-z
1/2-x,1/2+y,-z
1/2-x,1/2-y,-z
1/2+x,1/2+y,-z
1/2-x,1/2+y,z
1/2+x,1/2-y,z
loop_
_atom_site_type_symbol
_atom_site_label
_atom_site_fract_x
_atom_site_fract_y
_atom_site_fract_z
Si Si1 0.310860 0.810703 0.919531
Si Si2 0.692186 0.673175 0.577634
Si Si3 0.691309 0.057949 0.415997
Si Si4 0.796451 0.192297 0.726459
Si Si5 0.814248 0.898525 0.825983
Si Si6 0.302642 0.000000 0.081820
O O1 0.500000 0.815758 0.891116
O O2 0.250000 0.750000 0.917152
O O3 0.186719 0.849698 0.880690
O O4 0.316845 0.827088 0.000000
O O5 0.766886 0.682298 0.500000
O O6 0.500000 0.691217 0.574302
O O7 0.696107 0.609539 0.593775
O O8 0.773707 0.695372 0.647531
O O9 0.682437 0.053667 0.500000
O O10 0.500000 0.067122 0.391852
O O11 0.749415 0.000000 0.388559
O O12 0.750000 0.250000 0.760364
O O13 0.736566 0.136120 0.761582
O O14 0.000000 0.189410 0.725905
O O15 0.740532 0.948163 0.869910
O O16 0.000000 0.915242 0.804595
O O17 0.500000 0.000000 0.073595
O O18 0.234079 0.000000 0.000000
#
# Coordination Sequence:
#
# PCOD9489716 Si02
#       6
#    16  16  16  16  16   8
#     4  10  20  34  55  86 122 157 196 243 291 344
#     4   9  18  34  55  80 112 151 199 253 308 365
#     4   8  14  26  45  71 104 139 178 230 290 350
#     4  10  23  41  60  86 119 158 204 255 309 364
#     4  11  23  40  62  88 121 160 200 244 298 361
#     4  11  25  45  69  97 128 161 200 246 293 349
#
# _framework density 23.058600999999999
#
# number of rings (size 3 to 8) (size 9 to 14) (size 15 to 20)
#    0.000    2.273    0.000    3.000    0.000    8.364 
#    1.636    1.818    0.000    0.000    0.000    0.000 
#    0.000    0.000    0.000    0.000    0.000    0.000 
#
# Total GULP energy -244964.899753 kJ/mol
# GULP energy per Si atom -5567.384085 kJ/mol
# Density = 2.300612 g / cm^3
# Si number density = 23.058601 Si / 1000 Ang^3
#
#
#
# Elastic Constant Matrix: (Units=GPa)
#
#
# Indices 1 2 3 4 5 6 
#
# 1 41.6155 -0.3830 8.0512 0.0000 0.0000 0.0000
# 2 -0.3830 111.5377 36.3113 0.0000 0.0000 0.0000
# 3 8.0512 36.3113 132.5345 0.0000 0.0000 0.0000
# 4 0.0000 0.0000 0.0000 18.0163 0.0000 0.0000
# 5 0.0000 0.0000 0.0000 0.0000 1.7968 0.0000
# 6 0.0000 0.0000 0.0000 0.0000 0.0000 14.5492
#
#
#
# Elastic Compliance Matrix: (Units=1/GPa)
#
#
# Indices 1 2 3 4 5 6 
#
# 1 0.024354 0.000621 -0.001650 0.000000 0.000000 0.000000
# 2 0.000621 0.009859 -0.002739 0.000000 0.000000 0.000000
# 3 -0.001650 -0.002739 0.008396 0.000000 0.000000 0.000000
# 4 0.000000 0.000000 0.000000 0.055505 0.000000 0.000000
# 5 0.000000 0.000000 0.000000 0.000000 0.556534 0.000000
# 6 0.000000 0.000000 0.000000 0.000000 0.000000 0.068732
#
#
# Mechanical properties :
#
#
# Convention : Reuss Voigt Hill
#
# Bulk Modulus (GPa) = 28.51122 41.51630 35.01376
# Shear Modulus (GPa) = 6.73303 22.98635 14.85969
#
# Velocity S-wave (km/s) = 1.71064 3.16074 2.54132
# Velocity P-wave (km/s) = 4.03649 5.60037 4.88147
#
# Compressibility (1/GPa) = 0.03507391
#
# Stress axis : x y z
#
# Youngs Moduli (GPa) = 41.06039 101.42633 119.10695
#
# Poissons Ratio (x) = -0.06295 0.19647
# Poissons Ratio (y) = -0.02548 0.32623
# Poissons Ratio (z) = 0.06773 0.27780
#
# Static dielectric constant tensor:
#      x y z
#    x 1.890920 0.000000 0.000000 
#    y 0.000000 1.882920 0.000000 
#    z 0.000000 0.000000 1.957540 
# 
# From -- ./inp_files/59847.got.cif
#   From: 2010.05.17/outbox.cif.g08.bks.cpg/sg65_30_cif.got.tgz:59847.got - 2010.06.03 17:01:31.
