data_PCOD9489847
_publ_section_title
;
Structure prediction by ZEFSAII (Michael W. Deem and Ramdas Pophale) SiO2 
 PCOD9489847
Probable space group: C M M M
;
_chemical_formula_sum "Si O2"
_cell_formula_units_Z 72
_cell_length_a 19.133305
_cell_length_b 14.296125
_cell_length_c 12.984975
_cell_angle_alpha 90.000000
_cell_angle_beta 90.000000
_cell_angle_gamma 90.000000
_cell_volume 3551.807739
_symmetry_space_group_name_H-M "C M M M"
_symmetry_group_IT_number 65
_symmetry_cell_setting 'orthorhombic'
loop_
_space_group_symop_operation_xyz
x,y,z
-x,-y,z
x,-y,-z
-x,y,-z
-x,-y,-z
x,y,-z
-x,y,z
x,-y,z
1/2+x,1/2+y,z
1/2-x,1/2-y,z
1/2+x,1/2-y,-z
1/2-x,1/2+y,-z
1/2-x,1/2-y,-z
1/2+x,1/2+y,-z
1/2-x,1/2+y,z
1/2+x,1/2-y,z
loop_
_atom_site_type_symbol
_atom_site_label
_atom_site_fract_x
_atom_site_fract_y
_atom_site_fract_z
Si Si1 0.579876 0.261217 0.838860
Si Si2 0.084097 0.604289 0.000000
Si Si3 0.369918 0.257300 0.388118
Si Si4 0.210413 0.888544 0.111876
Si Si5 0.255953 0.110820 0.335171
O O1 0.500000 0.284838 0.867424
O O2 0.585057 0.253768 0.715376
O O3 0.636475 0.337136 0.874340
O O4 0.599133 0.165779 0.898885
O O5 0.115506 0.500000 0.000000
O O6 0.000000 0.594330 0.000000
O O7 0.404839 0.262179 0.500000
O O8 0.319915 0.166394 0.383754
O O9 0.315960 0.344392 0.376698
O O10 0.255273 0.866033 0.212778
O O11 0.199814 0.000000 0.114155
O O12 0.240753 0.863201 0.000000
O O13 0.258828 0.000000 0.350392
#
# Coordination Sequence:
#
# PCOD9489847 Si02
#       5
#    16   8  16  16  16
#     4  10  20  35  53  76 106 139 175 215 259 305
#     4   9  18  34  53  70  95 133 174 212 250 297
#     4  10  21  35  52  78 105 136 179 217 257 310
#     4   9  17  31  53  81 111 138 166 206 260 320
#     4   9  18  34  54  77 105 137 173 215 263 311
#
# _framework density 20.271367999999999
#
# number of rings (size 3 to 8) (size 9 to 14) (size 15 to 20)
#    0.000    2.556    1.111    1.333    0.000    3.556 
#    2.000    3.333    0.000    0.000    0.000   10.889 
#    0.000    0.000    0.000    0.000    0.000    0.000 
#
# Total GULP energy -200998.565570 kJ/mol
# GULP energy per Si atom -5583.293488 kJ/mol
# Density = 2.022523 g / cm^3
# Si number density = 20.271368 Si / 1000 Ang^3
#
#
#
# Elastic Constant Matrix: (Units=GPa)
#
#
# Indices 1 2 3 4 5 6 
#
# 1 50.0013 8.8173 6.8302 0.0000 0.0000 0.0000
# 2 8.8173 94.4174 12.5045 0.0000 0.0000 0.0000
# 3 6.8302 12.5045 171.0780 0.0000 0.0000 0.0000
# 4 0.0000 0.0000 0.0000 18.2022 0.0000 0.0000
# 5 0.0000 0.0000 0.0000 0.0000 8.3190 0.0000
# 6 0.0000 0.0000 0.0000 0.0000 0.0000 15.6331
#
#
#
# Elastic Compliance Matrix: (Units=1/GPa)
#
#
# Indices 1 2 3 4 5 6 
#
# 1 0.020413 -0.001816 -0.000682 0.000000 0.000000 0.000000
# 2 -0.001816 0.010856 -0.000721 0.000000 0.000000 0.000000
# 3 -0.000682 -0.000721 0.005925 0.000000 0.000000 0.000000
# 4 0.000000 0.000000 0.000000 0.054938 0.000000 0.000000
# 5 0.000000 0.000000 0.000000 0.000000 0.120207 0.000000
# 6 0.000000 0.000000 0.000000 0.000000 0.000000 0.063967
#
#
# Mechanical properties :
#
#
# Convention : Reuss Voigt Hill
#
# Bulk Modulus (GPa) = 32.51388 41.31119 36.91254
# Shear Modulus (GPa) = 17.06502 27.58717 22.32609
#
# Velocity S-wave (km/s) = 2.90458 3.69303 3.32228
# Velocity P-wave (km/s) = 5.22713 6.21353 5.74155
#
# Compressibility (1/GPa) = 0.03075609
#
# Stress axis : x y z
#
# Youngs Moduli (GPa) = 48.98858 92.11205 168.76998
#
# Poissons Ratio (x) = 0.16727 0.11514
# Poissons Ratio (y) = 0.08896 0.12169
# Poissons Ratio (z) = 0.03342 0.06641
#
# Static dielectric constant tensor:
#      x y z
#    x 1.702000 0.000000 0.000000 
#    y 0.000000 1.690360 0.000000 
#    z 0.000000 0.000000 1.787110 
# 
# From -- ./inp_files/24486.got.cif
#   From: 2010.05.17/outbox.cif.g08.bks.cpg/sg65_13_cif.got.tgz:24486.got - 2010.06.03 17:01:31.
