data_PCOD9489808
_publ_section_title
;
Structure prediction by ZEFSAII (Michael W. Deem and Ramdas Pophale) SiO2 
 PCOD9489808
Probable space group: C M M M
;
_chemical_formula_sum "Si O2"
_cell_formula_units_Z 80
_cell_length_a 8.966484
_cell_length_b 28.530791
_cell_length_c 18.873087
_cell_angle_alpha 90.000000
_cell_angle_beta 90.000000
_cell_angle_gamma 90.000000
_cell_volume 4828.129744
_symmetry_space_group_name_H-M "C M M M"
_symmetry_group_IT_number 65
_symmetry_cell_setting 'orthorhombic'
loop_
_space_group_symop_operation_xyz
x,y,z
-x,-y,z
x,-y,-z
-x,y,-z
-x,-y,-z
x,y,-z
-x,y,z
x,-y,z
1/2+x,1/2+y,z
1/2-x,1/2-y,z
1/2+x,1/2-y,-z
1/2-x,1/2+y,-z
1/2-x,1/2-y,-z
1/2+x,1/2+y,-z
1/2-x,1/2+y,z
1/2+x,1/2-y,z
loop_
_atom_site_type_symbol
_atom_site_label
_atom_site_fract_x
_atom_site_fract_y
_atom_site_fract_z
Si Si1 0.820957 0.801662 0.343845
Si Si2 0.321308 0.890596 0.287983
Si Si3 0.678197 0.301265 0.500000
Si Si4 0.679145 0.054607 0.854122
Si Si5 0.823979 0.056545 0.580384
Si Si6 0.173180 0.943096 0.000000
O O1 0.750000 0.750000 0.336901
O O2 0.752109 0.839417 0.291395
O O3 0.781989 0.821192 0.423277
O O4 0.000000 0.798707 0.338048
O O5 0.500000 0.886985 0.290646
O O6 0.277715 0.916943 0.215719
O O7 0.264486 0.919927 0.355806
O O8 0.500000 0.297038 0.500000
O O9 0.750000 0.250000 0.500000
O O10 0.500000 0.056184 0.860726
O O11 0.749744 0.072554 0.927237
O O12 0.722272 0.000000 0.844650
O O13 0.777528 0.070084 0.500000
O O14 0.000000 0.068627 0.587026
O O15 0.811568 0.000000 0.584966
O O16 0.000000 0.930704 0.000000
O O17 0.185804 0.000000 0.000000
#
# Coordination Sequence:
#
# PCOD9489808 Si02
#       6
#    16  16   8  16  16   8
#     4  10  20  35  52  71  96 128 166 212 262 309
#     4  11  22  33  49  75 102 132 170 209 251 300
#     4   8  16  30  48  66  85 114 153 200 252 301
#     4   9  18  33  51  72 103 139 169 199 241 294
#     4   9  19  35  51  67  93 132 174 213 253 296
#     4   9  17  29  49  77 104 129 162 203 245 291
#
# _framework density 16.569562999999999
#
# number of rings (size 3 to 8) (size 9 to 14) (size 15 to 20)
#    0.000    2.500    0.000    2.700    1.400    5.200 
#    0.000    3.000    0.000    0.000    0.000    0.700 
#    0.000    0.000    0.000    0.000    0.000    0.000 
#
# Total GULP energy -223045.000175 kJ/mol
# GULP energy per Si atom -5576.125004 kJ/mol
# Density = 1.653185 g / cm^3
# Si number density = 16.569563 Si / 1000 Ang^3
#
#
#
# Elastic Constant Matrix: (Units=GPa)
#
#
# Indices 1 2 3 4 5 6 
#
# 1 45.4115 37.9725 58.1082 0.0000 0.0000 0.0000
# 2 37.9725 72.6358 68.9872 0.0000 0.0000 0.0000
# 3 58.1082 68.9872 152.4204 0.0000 0.0000 0.0000
# 4 0.0000 0.0000 0.0000 17.4429 0.0000 0.0000
# 5 0.0000 0.0000 0.0000 0.0000 22.3160 0.0000
# 6 0.0000 0.0000 0.0000 0.0000 0.0000 24.6786
#
#
#
# Elastic Compliance Matrix: (Units=1/GPa)
#
#
# Indices 1 2 3 4 5 6 
#
# 1 0.050078 -0.014115 -0.012703 0.000000 0.000000 0.000000
# 2 -0.014115 0.028126 -0.007349 0.000000 0.000000 0.000000
# 3 -0.012703 -0.007349 0.014730 0.000000 0.000000 0.000000
# 4 0.000000 0.000000 0.000000 0.057330 0.000000 0.000000
# 5 0.000000 0.000000 0.000000 0.000000 0.044811 0.000000
# 6 0.000000 0.000000 0.000000 0.000000 0.000000 0.040521
#
#
# Mechanical properties :
#
#
# Convention : Reuss Voigt Hill
#
# Bulk Modulus (GPa) = 40.64996 66.73376 53.69186
# Shear Modulus (GPa) = 16.01892 19.91417 17.96655
#
# Velocity S-wave (km/s) = 3.11266 3.47054 3.29646
# Velocity P-wave (km/s) = 6.12408 7.51145 6.85296
#
# Compressibility (1/GPa) = 0.02460027
#
# Stress axis : x y z
#
# Youngs Moduli (GPa) = 19.96869 35.55391 67.88855
#
# Poissons Ratio (x) = 0.50184 0.86240
# Poissons Ratio (y) = 0.28186 0.49892
# Poissons Ratio (z) = 0.25367 0.26129
#
# Static dielectric constant tensor:
#      x y z
#    x 1.555060 0.000000 0.000000 
#    y 0.000000 1.558240 0.000000 
#    z 0.000000 0.000000 1.560010 
# 
# From -- ./inp_files/49925.got.cif
#   From: 2010.05.17/outbox.cif.g08.bks.cpg/sg65_25_cif.got.tgz:49925.got - 2010.06.03 17:01:31.
