data_PCOD9489016
_publ_section_title
;
Structure prediction by ZEFSAII (Michael W. Deem and Ramdas Pophale) SiO2 
 PCOD9489016
Probable space group: C M M M
;
_chemical_formula_sum "Si O2"
_cell_formula_units_Z 80
_cell_length_a 8.217486
_cell_length_b 27.682759
_cell_length_c 20.212332
_cell_angle_alpha 90.000000
_cell_angle_beta 90.000000
_cell_angle_gamma 90.000000
_cell_volume 4597.955544
_symmetry_space_group_name_H-M "C M M M"
_symmetry_group_IT_number 65
_symmetry_cell_setting 'orthorhombic'
loop_
_space_group_symop_operation_xyz
x,y,z
-x,-y,z
x,-y,-z
-x,y,-z
-x,-y,-z
x,y,-z
-x,y,z
x,-y,z
1/2+x,1/2+y,z
1/2-x,1/2-y,z
1/2+x,1/2-y,-z
1/2-x,1/2+y,-z
1/2-x,1/2-y,-z
1/2+x,1/2+y,-z
1/2-x,1/2+y,z
1/2+x,1/2-y,z
loop_
_atom_site_type_symbol
_atom_site_label
_atom_site_fract_x
_atom_site_fract_y
_atom_site_fract_z
Si Si1 0.000000 0.556626 0.420789
Si Si2 0.690521 0.304905 0.000000
Si Si3 0.803296 0.445235 0.790643
Si Si4 0.692485 0.850916 0.864216
Si Si5 0.307198 0.697144 0.269568
Si Si6 0.808646 0.098890 0.344528
O O1 0.166146 0.580960 0.393307
O O2 0.000000 0.500000 0.400199
O O3 0.000000 0.558954 0.500000
O O4 0.750000 0.250000 0.000000
O O5 0.743089 0.331567 0.933143
O O6 0.500000 0.303000 0.000000
O O7 0.771232 0.500000 0.811188
O O8 0.750868 0.404465 0.842839
O O9 0.715416 0.432824 0.721922
O O10 0.000000 0.440324 0.779891
O O11 0.500000 0.852801 0.870287
O O12 0.733858 0.816867 0.801749
O O13 0.500000 0.697804 0.261288
O O14 0.250000 0.750000 0.290815
O O15 0.270696 0.653765 0.320622
O O16 0.000000 0.095965 0.365819
#
# Coordination Sequence:
#
# PCOD9489016 Si02
#       6
#     8   8  16  16  16  16
#     4  11  24  40  60  86 118 155 191 229 276 335
#     4  12  24  38  53  68  97 139 178 223 275 338
#     4   9  17  32  56  82 109 141 179 226 276 326
#     4  10  20  34  52  76 108 139 180 226 276 329
#     4  10  20  33  55  86 113 144 184 233 284 332
#     4  10  21  36  57  87 118 150 188 234 282 334
#
# _framework density 17.399038000000001
#
# number of rings (size 3 to 8) (size 9 to 14) (size 15 to 20)
#    0.000    1.900    1.000    3.300    2.800    2.800 
#    0.000    1.500    0.000    3.600    0.000    0.000 
#    0.000    0.000    0.000    0.000    0.000    0.000 
#
# Total GULP energy -223158.302772 kJ/mol
# GULP energy per Si atom -5578.957569 kJ/mol
# Density = 1.735944 g / cm^3
# Si number density = 17.399038 Si / 1000 Ang^3
#
#
#
# Elastic Constant Matrix: (Units=GPa)
#
#
# Indices 1 2 3 4 5 6 
#
# 1 88.2626 49.6852 55.9969 0.0000 0.0000 0.0000
# 2 49.6852 132.0624 49.9667 0.0000 0.0000 0.0000
# 3 55.9969 49.9667 82.9668 0.0000 0.0000 0.0000
# 4 0.0000 0.0000 0.0000 13.5248 0.0000 0.0000
# 5 0.0000 0.0000 0.0000 0.0000 18.3188 0.0000
# 6 0.0000 0.0000 0.0000 0.0000 0.0000 24.3014
#
#
#
# Elastic Compliance Matrix: (Units=1/GPa)
#
#
# Indices 1 2 3 4 5 6 
#
# 1 0.020846 -0.003263 -0.012105 0.000000 0.000000 0.000000
# 2 -0.003263 0.010318 -0.004011 0.000000 0.000000 0.000000
# 3 -0.012105 -0.004011 0.022639 0.000000 0.000000 0.000000
# 4 0.000000 0.000000 0.000000 0.073938 0.000000 0.000000
# 5 0.000000 0.000000 0.000000 0.000000 0.054589 0.000000
# 6 0.000000 0.000000 0.000000 0.000000 0.000000 0.041150
#
#
# Mechanical properties :
#
#
# Convention : Reuss Voigt Hill
#
# Bulk Modulus (GPa) = 66.47019 68.28770 67.37895
# Shear Modulus (GPa) = 18.70891 21.07187 19.89039
#
# Velocity S-wave (km/s) = 3.28271 3.48385 3.38478
# Velocity P-wave (km/s) = 7.25635 7.45092 7.35427
#
# Compressibility (1/GPa) = 0.01504434
#
# Stress axis : x y z
#
# Youngs Moduli (GPa) = 47.97026 96.92220 44.17221
#
# Poissons Ratio (x) = 0.31626 0.53469
# Poissons Ratio (y) = 0.15653 0.17719
# Poissons Ratio (z) = 0.58066 0.38880
#
# Static dielectric constant tensor:
#      x y z
#    x 1.600820 0.000000 0.000000 
#    y 0.000000 1.517470 0.000000 
#    z 0.000000 0.000000 1.481450 
# 
# From -- ./inp_files/60067.got.cif
#   From: 2010.05.17/outbox.cif.g08.bks.cpg/sg65_31_cif.got.tgz:60067.got - 2010.06.03 17:01:31.
