data_PCOD9489656
_publ_section_title
;
Structure prediction by ZEFSAII (Michael W. Deem and Ramdas Pophale) SiO2 
 PCOD9489656
Probable space group: C M M M
;
_chemical_formula_sum "Si O2"
_cell_formula_units_Z 64
_cell_length_a 33.174486
_cell_length_b 13.985323
_cell_length_c 7.498147
_cell_angle_alpha 90.000000
_cell_angle_beta 90.000000
_cell_angle_gamma 90.000000
_cell_volume 3478.809555
_symmetry_space_group_name_H-M "C M M M"
_symmetry_group_IT_number 65
_symmetry_cell_setting 'orthorhombic'
loop_
_space_group_symop_operation_xyz
x,y,z
-x,-y,z
x,-y,-z
-x,y,-z
-x,-y,-z
x,y,-z
-x,y,z
x,-y,z
1/2+x,1/2+y,z
1/2-x,1/2-y,z
1/2+x,1/2-y,-z
1/2-x,1/2+y,-z
1/2-x,1/2-y,-z
1/2+x,1/2+y,-z
1/2-x,1/2+y,z
1/2+x,1/2-y,z
loop_
_atom_site_type_symbol
_atom_site_label
_atom_site_fract_x
_atom_site_fract_y
_atom_site_fract_z
Si Si1 0.645428 0.614424 0.500000
Si Si2 0.738742 0.384637 0.500000
Si Si3 0.045883 0.608657 0.782861
Si Si4 0.302888 0.112818 0.791355
Si Si5 0.618949 0.757067 0.212978
O O1 0.642879 0.500000 0.500000
O O2 0.692559 0.645501 0.500000
O O3 0.625357 0.662086 0.326856
O O4 0.737058 0.500000 0.500000
O O5 0.765293 0.357197 0.329274
O O6 0.055784 0.500000 0.726297
O O7 0.079184 0.685004 0.729002
O O8 0.000000 0.630058 0.727337
O O9 0.046288 0.607778 0.000000
O O10 0.342634 0.174140 0.753661
O O11 0.311156 0.000000 0.757661
O O12 0.293157 0.123150 0.000000
O O13 0.617055 0.739387 0.000000
#
# Coordination Sequence:
#
# PCOD9489656 Si02
#       5
#     8   8  16  16  16
#     4  11  25  41  53  68  95 135 186 236 269 293
#     4   9  19  35  51  68  97 137 176 217 264 307
#     4   8  14  28  54  87 119 144 162 189 241 313
#     4   9  17  30  51  80 110 135 161 200 255 320
#     4  10  20  34  55  80 105 137 173 209 254 308
#
# _framework density 18.397098
#
# number of rings (size 3 to 8) (size 9 to 14) (size 15 to 20)
#    0.000    2.750    0.000    2.250    0.000    6.500 
#    0.000    7.500    0.000    3.000    0.000    3.500 
#    0.000    0.000    0.000    0.000    0.000    0.000 
#
# Total GULP energy -178634.761434 kJ/mol
# GULP energy per Si atom -5582.336295 kJ/mol
# Density = 1.835522 g / cm^3
# Si number density = 18.397098 Si / 1000 Ang^3
#
#
#
# Elastic Constant Matrix: (Units=GPa)
#
#
# Indices 1 2 3 4 5 6 
#
# 1 125.7191 74.8583 48.7255 0.0000 0.0000 0.0000
# 2 74.8583 122.4578 55.4013 0.0000 0.0000 0.0000
# 3 48.7255 55.4013 68.5474 0.0000 0.0000 0.0000
# 4 0.0000 0.0000 0.0000 25.9647 0.0000 0.0000
# 5 0.0000 0.0000 0.0000 0.0000 15.9055 0.0000
# 6 0.0000 0.0000 0.0000 0.0000 0.0000 30.9188
#
#
#
# Elastic Compliance Matrix: (Units=1/GPa)
#
#
# Indices 1 2 3 4 5 6 
#
# 1 0.013355 -0.006099 -0.004563 0.000000 0.000000 0.000000
# 2 -0.006099 0.015659 -0.008320 0.000000 0.000000 0.000000
# 3 -0.004563 -0.008320 0.024557 0.000000 0.000000 0.000000
# 4 0.000000 0.000000 0.000000 0.038514 0.000000 0.000000
# 5 0.000000 0.000000 0.000000 0.000000 0.062871 0.000000
# 6 0.000000 0.000000 0.000000 0.000000 0.000000 0.032343
#
#
# Mechanical properties :
#
#
# Convention : Reuss Voigt Hill
#
# Bulk Modulus (GPa) = 64.08374 74.96606 69.52490
# Shear Modulus (GPa) = 21.69530 23.74040 22.71785
#
# Velocity S-wave (km/s) = 3.43779 3.59617 3.51787
# Velocity P-wave (km/s) = 7.11808 7.62106 7.37386
#
# Compressibility (1/GPa) = 0.01560458
#
# Stress axis : x y z
#
# Youngs Moduli (GPa) = 74.88091 63.86277 40.72199
#
# Poissons Ratio (x) = 0.38950 0.18583
# Poissons Ratio (y) = 0.45670 0.33881
# Poissons Ratio (z) = 0.34171 0.53135
#
# Static dielectric constant tensor:
#      x y z
#    x 1.613020 0.000000 0.000000 
#    y 0.000000 1.619060 0.000000 
#    z 0.000000 0.000000 1.668670 
# 
# From -- ./inp_files/15641.got.cif
#   From: 2010.05.17/outbox.cif.g08.bks.cpg/sg65_8_cif.got.tgz:15641.got - 2010.06.03 17:01:31.
