data_PCOD9489724
_publ_section_title
;
Structure prediction by ZEFSAII (Michael W. Deem and Ramdas Pophale) SiO2 
 PCOD9489724
Probable space group: C M M M
;
_chemical_formula_sum "Si O2"
_cell_formula_units_Z 104
_cell_length_a 28.729030
_cell_length_b 20.809908
_cell_length_c 7.511218
_cell_angle_alpha 90.000000
_cell_angle_beta 90.000000
_cell_angle_gamma 90.000000
_cell_volume 4490.570198
_symmetry_space_group_name_H-M "C M M M"
_symmetry_group_IT_number 65
_symmetry_cell_setting 'orthorhombic'
loop_
_space_group_symop_operation_xyz
x,y,z
-x,-y,z
x,-y,-z
-x,y,-z
-x,-y,-z
x,y,-z
-x,y,z
x,-y,z
1/2+x,1/2+y,z
1/2-x,1/2-y,z
1/2+x,1/2-y,-z
1/2-x,1/2+y,-z
1/2-x,1/2-y,-z
1/2+x,1/2+y,-z
1/2-x,1/2+y,z
1/2+x,1/2-y,z
loop_
_atom_site_type_symbol
_atom_site_label
_atom_site_fract_x
_atom_site_fract_y
_atom_site_fract_z
Si Si1 0.795972 0.212769 0.296245
Si Si2 0.401277 0.701749 0.794926
Si Si3 0.000000 0.427612 0.712421
Si Si4 0.415007 0.164284 0.788898
Si Si5 0.659757 0.069657 0.216569
Si Si6 0.268336 0.570542 0.215543
Si Si7 0.445268 0.571680 0.216534
O O1 0.800371 0.234641 0.500000
O O2 0.750000 0.250000 0.221765
O O3 0.846531 0.219754 0.208844
O O4 0.788526 0.136064 0.289473
O O5 0.425123 0.765123 0.714171
O O6 0.414677 0.632109 0.718500
O O7 0.416515 0.696451 0.000000
O O8 0.955580 0.386802 0.768470
O O9 0.000000 0.500000 0.784143
O O10 0.000000 0.431096 0.500000
O O11 0.369240 0.129429 0.714826
O O12 0.407670 0.173479 0.000000
O O13 0.713759 0.072151 0.263057
O O14 0.640578 0.000000 0.273650
O O15 0.657883 0.070538 0.000000
O O16 0.286884 0.500000 0.269918
O O17 0.272387 0.573586 0.000000
O O18 0.500000 0.581951 0.259002
O O19 0.431736 0.500000 0.279747
O O20 0.441919 0.568960 0.000000
#
# Coordination Sequence:
#
# PCOD9489724 Si02
#       7
#    16  16   8  16  16  16  16
#     4  11  24  39  54  77 116 161 197 233 283 348
#     4  10  21  35  58  88 112 142 190 243 288 335
#     4  11  25  41  55  77 112 151 184 216 265 331
#     4  10  20  34  56  83 108 137 179 235 285 327
#     4   8  14  27  49  76 103 132 171 222 281 335
#     4   9  18  34  58  85 110 140 184 239 291 336
#     4   8  15  30  54  84 117 147 176 222 286 349
#
# _framework density 23.159644
#
# number of rings (size 3 to 8) (size 9 to 14) (size 15 to 20)
#    0.000    2.538    0.000    3.462    1.077    5.231 
#    0.000    2.308    0.000    0.923    0.000    1.077 
#    0.000    0.000    0.000    0.000    0.000    0.000 
#
# Total GULP energy -290169.607531 kJ/mol
# GULP energy per Si atom -5580.184760 kJ/mol
# Density = 2.310693 g / cm^3
# Si number density = 23.159644 Si / 1000 Ang^3
#
#
#
# Elastic Constant Matrix: (Units=GPa)
#
#
# Indices 1 2 3 4 5 6 
#
# 1 43.7024 57.5145 -5.9079 0.0000 0.0000 0.0000
# 2 57.5145 209.2981 7.8650 0.0000 0.0000 0.0000
# 3 -5.9079 7.8650 62.0727 0.0000 0.0000 0.0000
# 4 0.0000 0.0000 0.0000 28.6662 0.0000 0.0000
# 5 0.0000 0.0000 0.0000 0.0000 48.5096 0.0000
# 6 0.0000 0.0000 0.0000 0.0000 0.0000 39.6075
#
#
#
# Elastic Compliance Matrix: (Units=1/GPa)
#
#
# Indices 1 2 3 4 5 6 
#
# 1 0.037253 -0.010420 0.004866 0.000000 0.000000 0.000000
# 2 -0.010420 0.007715 -0.001969 0.000000 0.000000 0.000000
# 3 0.004866 -0.001969 0.016823 0.000000 0.000000 0.000000
# 4 0.000000 0.000000 0.000000 0.034884 0.000000 0.000000
# 5 0.000000 0.000000 0.000000 0.000000 0.020614 0.000000
# 6 0.000000 0.000000 0.000000 0.000000 0.000000 0.025248
#
#
# Mechanical properties :
#
#
# Convention : Reuss Voigt Hill
#
# Bulk Modulus (GPa) = 21.39293 48.22404 34.80849
# Shear Modulus (GPa) = 28.87414 40.39677 34.63546
#
# Velocity S-wave (km/s) = 3.53476 4.18098 3.87138
# Velocity P-wave (km/s) = 5.09083 6.64644 5.91995
#
# Compressibility (1/GPa) = 0.04674440
#
# Stress axis : x y z
#
# Youngs Moduli (GPa) = 26.84359 129.61401 59.44314
#
# Poissons Ratio (x) = 1.35056 -0.28924
# Poissons Ratio (y) = 0.27971 0.11706
# Poissons Ratio (z) = -0.13062 0.25525
#
# Static dielectric constant tensor:
#      x y z
#    x 1.919320 0.000000 0.000000 
#    y 0.000000 1.932990 0.000000 
#    z 0.000000 0.000000 1.894230 
# 
# From -- ./inp_files/16451.got.cif
#   From: 2010.05.17/outbox.cif.g08.bks.cpg/sg65_9_cif.got.tgz:16451.got - 2010.06.03 17:01:31.
