data_PCOD9489482
_publ_section_title
;
Structure prediction by ZEFSAII (Michael W. Deem and Ramdas Pophale) SiO2 
 PCOD9489482
Probable space group: C M M M
;
_chemical_formula_sum "Si O2"
_cell_formula_units_Z 72
_cell_length_a 19.305999
_cell_length_b 8.398338
_cell_length_c 25.312340
_cell_angle_alpha 90.000000
_cell_angle_beta 90.000000
_cell_angle_gamma 90.000000
_cell_volume 4104.099904
_symmetry_space_group_name_H-M "C M M M"
_symmetry_group_IT_number 65
_symmetry_cell_setting 'orthorhombic'
loop_
_space_group_symop_operation_xyz
x,y,z
-x,-y,z
x,-y,-z
-x,y,-z
-x,-y,-z
x,y,-z
-x,y,z
x,-y,z
1/2+x,1/2+y,z
1/2-x,1/2-y,z
1/2+x,1/2-y,-z
1/2-x,1/2+y,-z
1/2-x,1/2-y,-z
1/2+x,1/2+y,-z
1/2-x,1/2+y,z
1/2+x,1/2-y,z
loop_
_atom_site_type_symbol
_atom_site_label
_atom_site_fract_x
_atom_site_fract_y
_atom_site_fract_z
Si Si1 0.083419 0.185431 0.872601
Si Si2 0.671685 0.812246 0.654576
Si Si3 0.327631 0.312230 0.232215
Si Si4 0.079880 0.191852 0.558609
Si Si5 0.584054 0.000000 0.939404
O O1 0.121958 0.214399 0.817119
O O2 0.103920 0.333533 0.910572
O O3 0.000000 0.191977 0.866440
O O4 0.099536 0.000000 0.889295
O O5 0.750000 0.750000 0.649859
O O6 0.646532 0.762292 0.712927
O O7 0.625799 0.748029 0.606934
O O8 0.672962 0.000000 0.651756
O O9 0.322156 0.500000 0.241094
O O10 0.250000 0.250000 0.221075
O O11 0.103759 0.244963 0.500000
O O12 0.000000 0.243442 0.565002
O O13 0.080312 0.000000 0.558427
O O14 0.500000 0.000000 0.939807
O O15 0.608211 0.000000 0.000000
#
# Coordination Sequence:
#
# PCOD9489482 Si02
#       5
#    16  16  16  16   8
#     4   9  19  34  53  80 109 140 180 222 265 318
#     4  11  22  35  53  77 106 137 175 220 263 315
#     4  10  20  34  54  78 104 140 176 214 266 317
#     4   9  19  37  58  77 101 136 174 214 266 322
#     4   9  18  32  54  82 110 142 176 220 270 311
#
# _framework density 17.543433
#
# number of rings (size 3 to 8) (size 9 to 14) (size 15 to 20)
#    0.000    2.333    0.000    4.667    3.111    2.667 
#    0.000    5.556    0.000    0.667    0.000    0.000 
#    0.000    0.000    0.000    0.000    0.000    0.000 
#
# Total GULP energy -200671.058502 kJ/mol
# GULP energy per Si atom -5574.196070 kJ/mol
# Density = 1.750350 g / cm^3
# Si number density = 17.543433 Si / 1000 Ang^3
#
#
#
# Elastic Constant Matrix: (Units=GPa)
#
#
# Indices 1 2 3 4 5 6 
#
# 1 31.3882 37.4542 52.8081 0.0000 0.0000 0.0000
# 2 37.4542 115.1520 87.5148 0.0000 0.0000 0.0000
# 3 52.8081 87.5148 144.6134 0.0000 0.0000 0.0000
# 4 0.0000 0.0000 0.0000 22.5719 0.0000 0.0000
# 5 0.0000 0.0000 0.0000 0.0000 27.9807 0.0000
# 6 0.0000 0.0000 0.0000 0.0000 0.0000 24.2743
#
#
#
# Elastic Compliance Matrix: (Units=1/GPa)
#
#
# Indices 1 2 3 4 5 6 
#
# 1 0.086069 -0.007607 -0.026826 0.000000 0.000000 0.000000
# 2 -0.007607 0.016752 -0.007360 0.000000 0.000000 0.000000
# 3 -0.026826 -0.007360 0.021165 0.000000 0.000000 0.000000
# 4 0.000000 0.000000 0.000000 0.044303 0.000000 0.000000
# 5 0.000000 0.000000 0.000000 0.000000 0.035739 0.000000
# 6 0.000000 0.000000 0.000000 0.000000 0.000000 0.041196
#
#
# Mechanical properties :
#
#
# Convention : Reuss Voigt Hill
#
# Bulk Modulus (GPa) = 24.75246 71.85643 48.30445
# Shear Modulus (GPa) = 14.60808 22.52381 18.56595
#
# Velocity S-wave (km/s) = 2.88875 3.58703 3.25666
# Velocity P-wave (km/s) = 5.02657 7.62914 6.46027
#
# Compressibility (1/GPa) = 0.04040002
#
# Stress axis : x y z
#
# Youngs Moduli (GPa) = 11.61854 59.69514 47.24806
#
# Poissons Ratio (x) = 0.45411 1.26749
# Poissons Ratio (y) = 0.08838 0.34773
# Poissons Ratio (z) = 0.31168 0.43934
#
# Static dielectric constant tensor:
#      x y z
#    x 1.606410 0.000000 0.000000 
#    y 0.000000 1.611860 0.000000 
#    z 0.000000 0.000000 1.596030 
# 
# From -- ./inp_files/74996.got.cif
#   From: 2010.05.17/outbox.cif.g08.bks.cpg/sg65_38_cif.got.tgz:74996.got - 2010.06.03 17:01:31.
