data_PCOD9489138
_publ_section_title
;
Structure prediction by ZEFSAII (Michael W. Deem and Ramdas Pophale) SiO2 
 PCOD9489138
Probable space group: C M M M
;
_chemical_formula_sum "Si O2"
_cell_formula_units_Z 72
_cell_length_a 7.990094
_cell_length_b 14.413223
_cell_length_c 27.649812
_cell_angle_alpha 90.000000
_cell_angle_beta 90.000000
_cell_angle_gamma 90.000000
_cell_volume 3184.235482
_symmetry_space_group_name_H-M "C M M M"
_symmetry_group_IT_number 65
_symmetry_cell_setting 'orthorhombic'
loop_
_space_group_symop_operation_xyz
x,y,z
-x,-y,z
x,-y,-z
-x,y,-z
-x,-y,-z
x,y,-z
-x,y,z
x,-y,z
1/2+x,1/2+y,z
1/2-x,1/2-y,z
1/2+x,1/2-y,-z
1/2-x,1/2+y,-z
1/2-x,1/2-y,-z
1/2+x,1/2+y,-z
1/2-x,1/2+y,z
1/2+x,1/2-y,z
loop_
_atom_site_type_symbol
_atom_site_label
_atom_site_fract_x
_atom_site_fract_y
_atom_site_fract_z
Si Si1 0.500000 0.885542 0.284303
Si Si2 0.180143 0.893216 0.658534
Si Si3 0.200580 0.357897 0.447057
Si Si4 0.296731 0.393941 0.000000
Si Si5 0.806726 0.113749 0.106188
Si Si6 0.000000 0.613319 0.173050
O O1 0.663782 0.853015 0.312931
O O2 0.500000 0.856816 0.228633
O O3 0.500000 0.000000 0.285738
O O4 0.217293 0.895430 0.601350
O O5 0.000000 0.848599 0.666873
O O6 0.169607 0.000000 0.674625
O O7 0.251664 0.394776 0.500000
O O8 0.250000 0.250000 0.447264
O O9 0.000000 0.368704 0.443158
O O10 0.250218 0.355192 0.052327
O O11 0.234957 0.500000 0.000000
O O12 0.500000 0.396096 0.000000
O O13 0.667996 0.142451 0.144844
O O14 0.000000 0.141906 0.115392
O O15 0.809077 0.000000 0.105199
O O16 0.000000 0.500000 0.172811
#
# Coordination Sequence:
#
# PCOD9489138 Si02
#       6
#     8  16  16   8  16   8
#     4   9  18  32  44  60  86 114 153 197 233 271
#     4  10  20  34  52  71  94 127 161 193 234 281
#     4  10  20  34  53  77 104 128 152 188 232 279
#     4   7  10  17  27  39  60  89 121 164 217 268
#     4   8  13  20  29  43  64  91 126 171 222 269
#     4   9  16  23  34  50  68  95 134 182 227 265
#
# _framework density 22.611393
#
# number of rings (size 3 to 8) (size 9 to 14) (size 15 to 20)
#    0.000    3.000    1.111    2.000    0.000    3.111 
#    0.000    8.889    0.000    0.000    0.000    0.000 
#    0.000    0.000    0.000    0.000    0.000    0.000 
#
# Total GULP energy -200938.037982 kJ/mol
# GULP energy per Si atom -5581.612166 kJ/mol
# Density = 2.255993 g / cm^3
# Si number density = 22.611393 Si / 1000 Ang^3
#
#
#
# Elastic Constant Matrix: (Units=GPa)
#
#
# Indices 1 2 3 4 5 6 
#
# 1 184.0576 12.7230 124.1180 0.0000 0.0000 0.0000
# 2 12.7230 67.1198 3.3102 0.0000 0.0000 0.0000
# 3 124.1180 3.3102 191.1292 0.0000 0.0000 0.0000
# 4 0.0000 0.0000 0.0000 39.1819 0.0000 0.0000
# 5 0.0000 0.0000 0.0000 0.0000 -0.4832 0.0000
# 6 0.0000 0.0000 0.0000 0.0000 0.0000 10.8470
#
#
#
# Elastic Compliance Matrix: (Units=1/GPa)
#
#
# Indices 1 2 3 4 5 6 
#
# 1 0.009824 -0.001549 -0.006353 0.000000 0.000000 0.000000
# 2 -0.001549 0.015156 0.000743 0.000000 0.000000 0.000000
# 3 -0.006353 0.000743 0.009345 0.000000 0.000000 0.000000
# 4 0.000000 0.000000 0.000000 0.025522 0.000000 0.000000
# 5 0.000000 0.000000 0.000000 0.000000 -2.069532 0.000000
# 6 0.000000 0.000000 0.000000 0.000000 0.000000 0.092191
#
#
# Mechanical properties :
#
#
# Convention : Reuss Voigt Hill
#
# Bulk Modulus (GPa) = 49.98089 80.28988 65.13539
# Shear Modulus (GPa) = -2.63642 30.05284 13.70821
#
# Velocity S-wave (km/s) = -1.08097 3.64964 2.46489
# Velocity P-wave (km/s) = 4.53809 7.30380 6.08029
#
# Compressibility (1/GPa) = 0.02000765
#
# Stress axis : x y z
#
# Youngs Moduli (GPa) = 101.78916 65.98184 107.01187
#
# Poissons Ratio (x) = 0.10220 0.67984
# Poissons Ratio (y) = 0.15766 -0.07955
# Poissons Ratio (z) = 0.64666 -0.04905
#
# Static dielectric constant tensor:
#      x y z
#    x 1.823930 0.000000 0.000000 
#    y 0.000000 1.895180 0.000000 
#    z 0.000000 0.000000 1.805450 
# 
# From -- ./inp_files/67267.got.cif
#   From: 2010.05.17/outbox.cif.g08.bks.cpg/sg65_34_cif.got.tgz:67267.got - 2010.06.03 17:01:31.
