data_PCOD9489783
_publ_section_title
;
Structure prediction by ZEFSAII (Michael W. Deem and Ramdas Pophale) SiO2 
 PCOD9489783
Probable space group: C M M M
;
_chemical_formula_sum "Si O2"
_cell_formula_units_Z 80
_cell_length_a 9.681258
_cell_length_b 24.837529
_cell_length_c 14.723810
_cell_angle_alpha 90.000000
_cell_angle_beta 90.000000
_cell_angle_gamma 90.000000
_cell_volume 3540.465655
_symmetry_space_group_name_H-M "C M M M"
_symmetry_group_IT_number 65
_symmetry_cell_setting 'orthorhombic'
loop_
_space_group_symop_operation_xyz
x,y,z
-x,-y,z
x,-y,-z
-x,y,-z
-x,-y,-z
x,y,-z
-x,y,z
x,-y,z
1/2+x,1/2+y,z
1/2-x,1/2-y,z
1/2+x,1/2-y,-z
1/2-x,1/2+y,-z
1/2-x,1/2-y,-z
1/2+x,1/2+y,-z
1/2-x,1/2+y,z
1/2+x,1/2-y,z
loop_
_atom_site_type_symbol
_atom_site_label
_atom_site_fract_x
_atom_site_fract_y
_atom_site_fract_z
Si Si1 0.000000 0.791759 0.610669
Si Si2 0.843462 0.103299 0.894523
Si Si3 0.000000 0.333349 0.388786
Si Si4 0.154635 0.000000 0.686723
Si Si5 0.785536 0.882314 0.390651
Si Si6 0.341224 0.801286 0.888655
Si Si7 0.335148 0.000000 0.145567
O O1 0.000000 0.729532 0.641099
O O2 0.126438 0.830067 0.638576
O O3 0.000000 0.788923 0.500000
O O4 0.747518 0.148883 0.852400
O O5 0.748829 0.050799 0.892032
O O6 0.000000 0.098044 0.857204
O O7 0.860952 0.117831 0.000000
O O8 0.132233 0.367528 0.360384
O O9 0.000000 0.331319 0.500000
O O10 0.164579 0.058184 0.637711
O O11 0.289646 0.000000 0.749839
O O12 0.000000 0.000000 0.729918
O O13 0.790881 0.882511 0.500000
O O14 0.500000 0.800102 0.857959
O O15 0.250000 0.750000 0.864881
O O16 0.347511 0.803659 0.000000
O O17 0.500000 0.000000 0.129388
#
# Coordination Sequence:
#
# PCOD9489783 Si02
#       7
#     8  16   8   8  16  16   8
#     4   9  16  31  55  87 119 150 191 236 292 351
#     4  10  20  37  62  90 118 148 186 235 290 351
#     4   9  18  31  53  87 123 150 183 242 300 349
#     4  12  25  41  58  79 113 159 203 246 294 349
#     4  10  20  34  58  88 119 156 196 242 292 347
#     4   9  16  27  48  82 120 153 185 225 277 335
#     4  12  27  42  59  82 110 151 193 242 292 349
#
# _framework density 22.595897000000001
#
# number of rings (size 3 to 8) (size 9 to 14) (size 15 to 20)
#    0.000    2.000    1.000    3.300    1.400    7.600 
#    0.000    1.500    0.000    2.400    0.000    0.000 
#    0.000    0.000    0.000    0.000    0.000    0.000 
#
# Total GULP energy -223145.716688 kJ/mol
# GULP energy per Si atom -5578.642917 kJ/mol
# Density = 2.254447 g / cm^3
# Si number density = 22.595897 Si / 1000 Ang^3
#
#
#
# Elastic Constant Matrix: (Units=GPa)
#
#
# Indices 1 2 3 4 5 6 
#
# 1 255.1822 96.8313 10.5992 0.0000 0.0000 0.0000
# 2 96.8313 190.3118 8.5684 0.0000 0.0000 0.0000
# 3 10.5992 8.5684 40.4303 0.0000 0.0000 0.0000
# 4 0.0000 0.0000 0.0000 -3.5721 0.0000 0.0000
# 5 0.0000 0.0000 0.0000 0.0000 13.5985 0.0000
# 6 0.0000 0.0000 0.0000 0.0000 0.0000 19.5206
#
#
#
# Elastic Compliance Matrix: (Units=1/GPa)
#
#
# Indices 1 2 3 4 5 6 
#
# 1 0.004879 -0.002448 -0.000760 0.000000 0.000000 0.000000
# 2 -0.002448 0.006534 -0.000743 0.000000 0.000000 0.000000
# 3 -0.000760 -0.000743 0.025091 0.000000 0.000000 0.000000
# 4 0.000000 0.000000 0.000000 -0.279951 0.000000 0.000000
# 5 0.000000 0.000000 0.000000 0.000000 0.073537 0.000000
# 6 0.000000 0.000000 0.000000 0.000000 0.000000 0.051228
#
#
# Mechanical properties :
#
#
# Convention : Reuss Voigt Hill
#
# Bulk Modulus (GPa) = 34.96408 79.76912 57.36660
# Shear Modulus (GPa) = -49.38519 30.57110 -9.40705
#
# Velocity S-wave (km/s) = -4.68009 3.68224 -2.04260
# Velocity P-wave (km/s) = 3.70096 7.31147 4.45873
#
# Compressibility (1/GPa) = 0.02860078
#
# Stress axis : x y z
#
# Youngs Moduli (GPa) = 204.94186 153.05134 39.85541
#
# Poissons Ratio (x) = 0.37474 0.03030
# Poissons Ratio (y) = 0.50179 0.02961
# Poissons Ratio (z) = 0.15582 0.11369
#
# Static dielectric constant tensor:
#      x y z
#    x 1.848590 0.000000 0.000000 
#    y 0.000000 1.757740 0.000000 
#    z 0.000000 0.000000 1.936750 
# 
# From -- ./inp_files/59713.got.cif
#   From: 2010.05.17/outbox.cif.g08.bks.cpg/sg65_30_cif.got.tgz:59713.got - 2010.06.03 17:01:31.
