data_PCOD9489464
_publ_section_title
;
Structure prediction by ZEFSAII (Michael W. Deem and Ramdas Pophale) SiO2 
 PCOD9489464
Probable space group: C M M M
;
_chemical_formula_sum "Si O2"
_cell_formula_units_Z 80
_cell_length_a 16.219429
_cell_length_b 9.322120
_cell_length_c 28.234326
_cell_angle_alpha 90.000000
_cell_angle_beta 90.000000
_cell_angle_gamma 90.000000
_cell_volume 4269.014943
_symmetry_space_group_name_H-M "C M M M"
_symmetry_group_IT_number 65
_symmetry_cell_setting 'orthorhombic'
loop_
_space_group_symop_operation_xyz
x,y,z
-x,-y,z
x,-y,-z
-x,y,-z
-x,-y,-z
x,y,-z
-x,y,z
x,-y,z
1/2+x,1/2+y,z
1/2-x,1/2-y,z
1/2+x,1/2-y,-z
1/2-x,1/2+y,-z
1/2-x,1/2-y,-z
1/2+x,1/2+y,-z
1/2-x,1/2+y,z
1/2+x,1/2-y,z
loop_
_atom_site_type_symbol
_atom_site_label
_atom_site_fract_x
_atom_site_fract_y
_atom_site_fract_z
Si Si1 0.163118 0.673037 0.000000
Si Si2 0.163062 0.329811 0.277756
Si Si3 0.500000 0.174616 0.554833
Si Si4 0.401023 0.836647 0.102377
Si Si5 0.661955 0.171589 0.612901
Si Si6 0.402299 0.339962 0.191101
O O1 0.250000 0.750000 0.000000
O O2 0.118948 0.712218 0.049173
O O3 0.170108 0.500000 0.000000
O O4 0.169927 0.500000 0.270479
O O5 0.250000 0.250000 0.273661
O O6 0.136041 0.306306 0.332151
O O7 0.109428 0.258179 0.237005
O O8 0.500000 0.217960 0.500000
O O9 0.585053 0.219719 0.580535
O O10 0.500000 0.000000 0.556900
O O11 0.500000 0.841558 0.106505
O O12 0.367656 0.735836 0.144022
O O13 0.370335 0.000000 0.108701
O O14 0.750000 0.250000 0.604745
O O15 0.674384 0.000000 0.606310
O O16 0.500000 0.353234 0.183727
O O17 0.367807 0.500000 0.198284
#
# Coordination Sequence:
#
# PCOD9489464 Si02
#       6
#     8  16   8  16  16  16
#     4  10  21  35  53  77 101 128 166 212 262 314
#     4  10  20  34  54  77 106 141 181 223 270 325
#     4   9  18  34  57  85 115 151 193 234 281 338
#     4   9  18  35  56  75  98 133 176 216 257 309
#     4   9  19  35  56  82 113 149 191 236 283 338
#     4  10  21  35  52  78 109 138 173 217 266 319
#
# _framework density 18.739685000000001
#
# number of rings (size 3 to 8) (size 9 to 14) (size 15 to 20)
#    0.000    2.500    0.000    1.500    1.400    5.200 
#    0.000    2.500    0.000    3.600    0.000    0.000 
#    0.000    0.000    0.000    0.000    0.000    0.000 
#
# Total GULP energy -222953.822355 kJ/mol
# GULP energy per Si atom -5573.845559 kJ/mol
# Density = 1.869703 g / cm^3
# Si number density = 18.739685 Si / 1000 Ang^3
#
#
#
# Elastic Constant Matrix: (Units=GPa)
#
#
# Indices 1 2 3 4 5 6 
#
# 1 52.5840 34.4577 61.6742 0.0000 0.0000 0.0000
# 2 34.4577 79.4064 74.5637 0.0000 0.0000 0.0000
# 3 61.6742 74.5637 144.7309 0.0000 0.0000 0.0000
# 4 0.0000 0.0000 0.0000 -26.2432 0.0000 0.0000
# 5 0.0000 0.0000 0.0000 0.0000 121.2605 0.0000
# 6 0.0000 0.0000 0.0000 0.0000 0.0000 25.6867
#
#
#
# Elastic Compliance Matrix: (Units=1/GPa)
#
#
# Indices 1 2 3 4 5 6 
#
# 1 0.038274 -0.002506 -0.015019 0.000000 0.000000 0.000000
# 2 -0.002506 0.024559 -0.011585 0.000000 0.000000 0.000000
# 3 -0.015019 -0.011585 0.019278 0.000000 0.000000 0.000000
# 4 0.000000 0.000000 0.000000 -0.038105 0.000000 0.000000
# 5 0.000000 0.000000 0.000000 0.000000 0.008247 0.000000
# 6 0.000000 0.000000 0.000000 0.000000 0.000000 0.038931
#
#
# Mechanical properties :
#
#
# Convention : Reuss Voigt Hill
#
# Bulk Modulus (GPa) = 41.85470 68.67918 55.26694
# Shear Modulus (GPa) = 31.77298 31.20920 31.49109
#
# Velocity S-wave (km/s) = 4.12210 4.08537 4.10378
# Velocity P-wave (km/s) = 6.71110 7.67999 7.21184
#
# Compressibility (1/GPa) = 0.02389218
#
# Stress axis : x y z
#
# Youngs Moduli (GPa) = 26.12711 40.71811 51.87352
#
# Poissons Ratio (x) = 0.10204 0.77908
# Poissons Ratio (y) = 0.06547 0.60094
# Poissons Ratio (z) = 0.39240 0.47171
#
# Static dielectric constant tensor:
#      x y z
#    x 1.652510 0.000000 0.000000 
#    y 0.000000 1.652990 0.000000 
#    z 0.000000 0.000000 1.664710 
# 
# From -- ./inp_files/75093.got.cif
#   From: 2010.05.17/outbox.cif.g08.bks.cpg/sg65_38_cif.got.tgz:75093.got - 2010.06.03 17:01:31.
