data_PCOD9489801
_publ_section_title
;
Structure prediction by ZEFSAII (Michael W. Deem and Ramdas Pophale) SiO2 
 PCOD9489801
Probable space group: C M M M
;
_chemical_formula_sum "Si O2"
_cell_formula_units_Z 96
_cell_length_a 14.039268
_cell_length_b 14.257848
_cell_length_c 22.592431
_cell_angle_alpha 90.000000
_cell_angle_beta 90.000000
_cell_angle_gamma 90.000000
_cell_volume 4522.321247
_symmetry_space_group_name_H-M "C M M M"
_symmetry_group_IT_number 65
_symmetry_cell_setting 'orthorhombic'
loop_
_space_group_symop_operation_xyz
x,y,z
-x,-y,z
x,-y,-z
-x,y,-z
-x,-y,-z
x,y,-z
-x,y,z
x,-y,z
1/2+x,1/2+y,z
1/2-x,1/2-y,z
1/2+x,1/2-y,-z
1/2-x,1/2+y,-z
1/2-x,1/2-y,-z
1/2+x,1/2+y,-z
1/2-x,1/2+y,z
1/2+x,1/2-y,z
loop_
_atom_site_type_symbol
_atom_site_label
_atom_site_fract_x
_atom_site_fract_y
_atom_site_fract_z
Si Si1 0.849614 0.500000 0.563003
Si Si2 0.386262 0.800735 0.741899
Si Si3 0.807716 0.158513 0.433491
Si Si4 0.389883 0.210141 0.117445
Si Si5 0.388351 0.605351 0.312082
Si Si6 0.607056 0.000000 0.303625
Si Si7 0.291813 0.392498 0.070498
O O1 0.901531 0.500000 0.500000
O O2 0.777559 0.585716 0.562859
O O3 0.900342 0.500000 0.625537
O O4 0.500000 0.799595 0.726769
O O5 0.376768 0.803757 0.812463
O O6 0.348943 0.699501 0.719414
O O7 0.349158 0.899484 0.715195
O O8 0.849073 0.170284 0.500000
O O9 0.750000 0.250000 0.415121
O O10 0.877536 0.125289 0.382225
O O11 0.500000 0.192945 0.102207
O O12 0.360263 0.316554 0.101158
O O13 0.315132 0.142666 0.084734
O O14 0.500000 0.600994 0.296461
O O15 0.348887 0.500000 0.299927
O O16 0.500000 0.000000 0.276912
O O17 0.305850 0.500000 0.089892
O O18 0.306823 0.387539 0.000000
#
# Coordination Sequence:
#
# PCOD9489801 Si02
#       7
#     8  16  16  16  16   8  16
#     4  10  20  35  51  74 106 142 190 241 297 358
#     4   9  20  37  57  84 117 153 196 248 300 355
#     4  10  20  35  52  73 106 142 180 233 291 351
#     4  10  21  40  65  90 125 171 210 255 316 374
#     4  10  20  36  57  81 111 146 188 239 294 353
#     4  10  20  37  58  81 114 152 198 256 304 353
#     4  10  23  42  62  94 134 164 208 267 308 364
#
# _framework density 21.228035999999999
#
# number of rings (size 3 to 8) (size 9 to 14) (size 15 to 20)
#    0.000    2.167    0.833    2.000    1.167    3.167 
#    9.000    4.167    0.000    6.000    0.000    0.000 
#    0.000    0.000    0.000    0.000    0.000    0.000 
#
# Total GULP energy -267736.004657 kJ/mol
# GULP energy per Si atom -5577.833430 kJ/mol
# Density = 2.117972 g / cm^3
# Si number density = 21.228036 Si / 1000 Ang^3
#
#
#
# Elastic Constant Matrix: (Units=GPa)
#
#
# Indices 1 2 3 4 5 6 
#
# 1 41.3099 9.9959 5.4363 0.0000 0.0000 0.0000
# 2 9.9959 180.5737 34.8634 0.0000 0.0000 0.0000
# 3 5.4363 34.8634 61.2999 0.0000 0.0000 0.0000
# 4 0.0000 0.0000 0.0000 -31.7903 0.0000 0.0000
# 5 0.0000 0.0000 0.0000 0.0000 22.5255 0.0000
# 6 0.0000 0.0000 0.0000 0.0000 0.0000 20.9299
#
#
#
# Elastic Compliance Matrix: (Units=1/GPa)
#
#
# Indices 1 2 3 4 5 6 
#
# 1 0.024672 -0.001060 -0.001585 0.000000 0.000000 0.000000
# 2 -0.001060 0.006267 -0.003470 0.000000 0.000000 0.000000
# 3 -0.001585 -0.003470 0.018427 0.000000 0.000000 0.000000
# 4 0.000000 0.000000 0.000000 -0.031456 0.000000 0.000000
# 5 0.000000 0.000000 0.000000 0.000000 0.044394 0.000000
# 6 0.000000 0.000000 0.000000 0.000000 0.000000 0.047779
#
#
# Mechanical properties :
#
#
# Convention : Reuss Voigt Hill
#
# Bulk Modulus (GPa) = 26.92797 42.64163 34.78480
# Shear Modulus (GPa) = 37.12185 17.85888 27.49037
#
# Velocity S-wave (km/s) = 4.18630 2.90364 3.60252
# Velocity P-wave (km/s) = 6.00662 5.60112 5.80741
#
# Compressibility (1/GPa) = 0.03713611
#
# Stress axis : x y z
#
# Youngs Moduli (GPa) = 40.53127 159.57818 54.26713
#
# Poissons Ratio (x) = 0.16910 0.08603
# Poissons Ratio (y) = 0.04295 0.18831
# Poissons Ratio (z) = 0.06426 0.55374
#
# Static dielectric constant tensor:
#      x y z
#    x 1.771160 0.000000 0.000000 
#    y 0.000000 1.763850 0.000000 
#    z 0.000000 0.000000 1.753470 
# 
# From -- ./inp_files/69915.got.cif
#   From: 2010.05.17/outbox.cif.g08.bks.cpg/sg65_35_cif.got.tgz:69915.got - 2010.06.03 17:01:31.
