data_PCOD9489260
_publ_section_title
;
Structure prediction by ZEFSAII (Michael W. Deem and Ramdas Pophale) SiO2 
 PCOD9489260
Probable space group: C M M M
;
_chemical_formula_sum "Si O2"
_cell_formula_units_Z 96
_cell_length_a 20.195676
_cell_length_b 14.115592
_cell_length_c 17.412387
_cell_angle_alpha 90.000000
_cell_angle_beta 90.000000
_cell_angle_gamma 90.000000
_cell_volume 4963.817464
_symmetry_space_group_name_H-M "C M M M"
_symmetry_group_IT_number 65
_symmetry_cell_setting 'orthorhombic'
loop_
_space_group_symop_operation_xyz
x,y,z
-x,-y,z
x,-y,-z
-x,y,-z
-x,-y,-z
x,y,-z
-x,y,z
x,-y,z
1/2+x,1/2+y,z
1/2-x,1/2-y,z
1/2+x,1/2-y,-z
1/2-x,1/2+y,-z
1/2-x,1/2-y,-z
1/2+x,1/2+y,-z
1/2-x,1/2+y,z
1/2+x,1/2-y,z
loop_
_atom_site_type_symbol
_atom_site_label
_atom_site_fract_x
_atom_site_fract_y
_atom_site_fract_z
Si Si1 0.427781 0.702040 0.272276
Si Si2 0.143623 0.114342 0.413898
Si Si3 0.926469 0.387079 0.908999
Si Si4 0.318137 0.217834 0.810118
Si Si5 0.714074 0.886859 0.350218
Si Si6 0.928818 0.610350 0.637782
O O1 0.500000 0.670218 0.245753
O O2 0.407596 0.652876 0.351785
O O3 0.365373 0.695119 0.216297
O O4 0.431589 0.814086 0.293442
O O5 0.128297 0.146144 0.500000
O O6 0.218192 0.144825 0.390302
O O7 0.142379 0.000000 0.412754
O O8 0.925831 0.500000 0.898626
O O9 0.865708 0.343390 0.863394
O O10 0.000000 0.352579 0.883927
O O11 0.920881 0.367992 0.000000
O O12 0.250000 0.250000 0.848256
O O13 0.295355 0.162667 0.732359
O O14 0.644585 0.871660 0.396223
O O15 0.720202 0.000000 0.339313
O O16 0.927475 0.500000 0.662515
O O17 0.000000 0.622573 0.595771
#
# Coordination Sequence:
#
# PCOD9489260 Si02
#       6
#    16  16  16  16  16  16
#     4  10  20  34  52  77 105 134 176 225 269 319
#     4  10  21  37  55  73  95 132 182 234 284 322
#     4   9  19  36  57  82 112 146 183 220 260 312
#     4  11  19  31  51  81 112 143 174 207 265 321
#     4   9  17  31  50  73 102 133 173 219 261 315
#     4   8  15  28  47  70  96 125 157 199 254 315
#
# _framework density 19.339953000000001
#
# number of rings (size 3 to 8) (size 9 to 14) (size 15 to 20)
#    0.000    2.500    1.667    1.500    0.000    2.333 
#    0.000   14.167    0.000    3.000    0.000    8.167 
#    0.000    0.000    0.000   11.000    0.000    0.000 
#
# Total GULP energy -267319.701652 kJ/mol
# GULP energy per Si atom -5569.160451 kJ/mol
# Density = 1.929593 g / cm^3
# Si number density = 19.339953 Si / 1000 Ang^3
#
#
#
# Elastic Constant Matrix: (Units=GPa)
#
#
# Indices 1 2 3 4 5 6 
#
# 1 154.7703 21.5287 41.4326 0.0000 0.0000 0.0000
# 2 21.5287 31.5364 20.5313 0.0000 0.0000 0.0000
# 3 41.4326 20.5313 62.5666 0.0000 0.0000 0.0000
# 4 0.0000 0.0000 0.0000 15.1648 0.0000 0.0000
# 5 0.0000 0.0000 0.0000 0.0000 -2.2988 0.0000
# 6 0.0000 0.0000 0.0000 0.0000 0.0000 25.1944
#
#
#
# Elastic Compliance Matrix: (Units=1/GPa)
#
#
# Indices 1 2 3 4 5 6 
#
# 1 0.008013 -0.002563 -0.004465 0.000000 0.000000 0.000000
# 2 -0.002563 0.041144 -0.011804 0.000000 0.000000 0.000000
# 3 -0.004465 -0.011804 0.022813 0.000000 0.000000 0.000000
# 4 0.000000 0.000000 0.000000 0.065942 0.000000 0.000000
# 5 0.000000 0.000000 0.000000 0.000000 -0.435000 0.000000
# 6 0.000000 0.000000 0.000000 0.000000 0.000000 0.039691
#
#
# Mechanical properties :
#
#
# Convention : Reuss Voigt Hill
#
# Bulk Modulus (GPa) = 29.14983 46.20651 37.67817
# Shear Modulus (GPa) = -24.00433 18.63746 -2.68344
#
# Velocity S-wave (km/s) = -3.52686 3.10768 -1.17920
# Velocity P-wave (km/s) = 1.21652 6.06799 4.20361
#
# Compressibility (1/GPa) = 0.03430552
#
# Stress axis : x y z
#
# Youngs Moduli (GPa) = 124.79558 24.30480 43.83370
#
# Poissons Ratio (x) = 0.06230 0.19573
# Poissons Ratio (y) = 0.31987 0.51742
# Poissons Ratio (z) = 0.55725 0.28690
#
# Static dielectric constant tensor:
#      x y z
#    x 1.766200 0.000000 0.000000 
#    y 0.000000 1.700740 0.000000 
#    z 0.000000 0.000000 1.674820 
# 
# From -- ./inp_files/44130.got.cif
#   From: 2010.05.17/outbox.cif.g08.bks.cpg/sg65_23_cif.got.tgz:44130.got - 2010.06.03 17:01:31.
