data_PCOD9489792
_publ_section_title
;
Structure prediction by ZEFSAII (Michael W. Deem and Ramdas Pophale) SiO2 
 PCOD9489792
Probable space group: C M M M
;
_chemical_formula_sum "Si O2"
_cell_formula_units_Z 80
_cell_length_a 28.789276
_cell_length_b 7.479309
_cell_length_c 25.524564
_cell_angle_alpha 90.000000
_cell_angle_beta 90.000000
_cell_angle_gamma 90.000000
_cell_volume 5496.048439
_symmetry_space_group_name_H-M "C M M M"
_symmetry_group_IT_number 65
_symmetry_cell_setting 'orthorhombic'
loop_
_space_group_symop_operation_xyz
x,y,z
-x,-y,z
x,-y,-z
-x,y,-z
-x,-y,-z
x,y,-z
-x,y,z
x,-y,z
1/2+x,1/2+y,z
1/2-x,1/2-y,z
1/2+x,1/2-y,-z
1/2-x,1/2+y,-z
1/2-x,1/2-y,-z
1/2+x,1/2+y,-z
1/2-x,1/2+y,z
1/2+x,1/2-y,z
loop_
_atom_site_type_symbol
_atom_site_label
_atom_site_fract_x
_atom_site_fract_y
_atom_site_fract_z
Si Si1 0.443753 0.500000 0.682149
Si Si2 0.056375 0.000000 0.196205
Si Si3 0.302804 0.213356 0.559734
Si Si4 0.447431 0.216301 0.500000
Si Si5 0.556728 0.793877 0.885748
Si Si6 0.053590 0.281900 0.000000
Si Si7 0.896903 0.283810 0.608369
O O1 0.500000 0.500000 0.677668
O O2 0.430229 0.500000 0.743313
O O3 0.422389 0.672877 0.653221
O O4 0.071484 0.170851 0.162196
O O5 0.000000 0.000000 0.196072
O O6 0.308819 0.284169 0.500000
O O7 0.250000 0.250000 0.575936
O O8 0.343255 0.271093 0.598970
O O9 0.308431 0.000000 0.555984
O O10 0.500000 0.283030 0.500000
O O11 0.421361 0.264474 0.446843
O O12 0.448635 0.000000 0.500000
O O13 0.500000 0.789270 0.887902
O O14 0.573342 0.729737 0.943365
O O15 0.570057 0.000000 0.878476
O O16 0.052965 0.500000 0.000000
O O17 0.000000 0.221410 0.000000
O O18 0.900279 0.500000 0.615944
#
# Coordination Sequence:
#
# PCOD9489792 Si02
#       7
#     8   8  16   8  16   8  16
#     4  11  24  35  45  63  85 116 161 195 215 247
#     4   9  18  29  37  51  73 102 145 185 213 247
#     4   9  17  30  49  72  93 110 127 158 213 279
#     4   9  16  29  48  63  80 108 138 170 210 255
#     4   8  13  22  36  52  73  99 129 172 222 259
#     4   7  10  17  31  53  74  93 123 166 217 266
#     4  10  20  35  50  65  88 112 139 176 221 266
#
# _framework density 14.555911999999999
#
# number of rings (size 3 to 8) (size 9 to 14) (size 15 to 20)
#    0.000    3.000    1.000    1.800    1.400    2.800 
#    0.000    5.000    0.000    0.000    0.000    0.000 
#    0.000    0.000    0.000    0.000    0.000    0.000 
#
# Total GULP energy -222691.742664 kJ/mol
# GULP energy per Si atom -5567.293567 kJ/mol
# Density = 1.452278 g / cm^3
# Si number density = 14.555912 Si / 1000 Ang^3
#
#
#
# Elastic Constant Matrix: (Units=GPa)
#
#
# Indices 1 2 3 4 5 6 
#
# 1 66.7337 19.8528 38.7584 0.0000 0.0000 0.0000
# 2 19.8528 72.3878 54.7203 0.0000 0.0000 0.0000
# 3 38.7584 54.7203 142.5046 0.0000 0.0000 0.0000
# 4 0.0000 0.0000 0.0000 20.4227 0.0000 0.0000
# 5 0.0000 0.0000 0.0000 0.0000 0.3790 0.0000
# 6 0.0000 0.0000 0.0000 0.0000 0.0000 14.0771
#
#
#
# Elastic Compliance Matrix: (Units=1/GPa)
#
#
# Indices 1 2 3 4 5 6 
#
# 1 0.017950 -0.001736 -0.004215 0.000000 0.000000 0.000000
# 2 -0.001736 0.019632 -0.007066 0.000000 0.000000 0.000000
# 3 -0.004215 -0.007066 0.010877 0.000000 0.000000 0.000000
# 4 0.000000 0.000000 0.000000 0.048965 0.000000 0.000000
# 5 0.000000 0.000000 0.000000 0.000000 2.638815 0.000000
# 6 0.000000 0.000000 0.000000 0.000000 0.000000 0.071037
#
#
# Mechanical properties :
#
#
# Convention : Reuss Voigt Hill
#
# Bulk Modulus (GPa) = 44.59651 56.47658 50.53654
# Shear Modulus (GPa) = 1.76008 18.19539 9.97773
#
# Velocity S-wave (km/s) = 1.10082 3.53942 2.62100
# Velocity P-wave (km/s) = 5.68510 7.45569 6.62977
#
# Compressibility (1/GPa) = 0.02242328
#
# Stress axis : x y z
#
# Youngs Moduli (GPa) = 55.71145 50.93619 91.93564
#
# Poissons Ratio (x) = 0.08845 0.38752
# Poissons Ratio (y) = 0.09674 0.64965
# Poissons Ratio (z) = 0.23483 0.35993
#
# Static dielectric constant tensor:
#      x y z
#    x 1.470590 0.000000 0.000000 
#    y 0.000000 1.535080 0.000000 
#    z 0.000000 0.000000 1.482290 
# 
# From -- ./inp_files/65703.got.cif
#   From: 2010.05.17/outbox.cif.g08.bks.cpg/sg65_33_cif.got.tgz:65703.got - 2010.06.03 17:01:31.
