data_PCOD9489632
_publ_section_title
;
Structure prediction by ZEFSAII (Michael W. Deem and Ramdas Pophale) SiO2 
 PCOD9489632
Probable space group: C M M M
;
_chemical_formula_sum "Si O2"
_cell_formula_units_Z 88
_cell_length_a 8.360200
_cell_length_b 30.457337
_cell_length_c 19.547314
_cell_angle_alpha 90.000000
_cell_angle_beta 90.000000
_cell_angle_gamma 90.000000
_cell_volume 4977.321398
_symmetry_space_group_name_H-M "C M M M"
_symmetry_group_IT_number 65
_symmetry_cell_setting 'orthorhombic'
loop_
_space_group_symop_operation_xyz
x,y,z
-x,-y,z
x,-y,-z
-x,y,-z
-x,-y,-z
x,y,-z
-x,y,z
x,-y,z
1/2+x,1/2+y,z
1/2-x,1/2-y,z
1/2+x,1/2-y,-z
1/2-x,1/2+y,-z
1/2-x,1/2-y,-z
1/2+x,1/2+y,-z
1/2-x,1/2+y,z
1/2+x,1/2-y,z
loop_
_atom_site_type_symbol
_atom_site_label
_atom_site_fract_x
_atom_site_fract_y
_atom_site_fract_z
Si Si1 0.818698 0.052737 0.500000
Si Si2 0.809912 0.448597 0.649280
Si Si3 0.188782 0.432645 0.000000
Si Si4 0.190615 0.328163 0.000000
Si Si5 0.191955 0.120848 0.761116
Si Si6 0.808261 0.299029 0.847845
Si Si7 0.190805 0.954283 0.854882
O O1 0.730461 0.063204 0.570639
O O2 0.000000 0.070378 0.500000
O O3 0.828720 0.000000 0.500000
O O4 0.751606 0.500000 0.661131
O O5 0.739073 0.409103 0.695538
O O6 0.000000 0.449374 0.659451
O O7 0.268921 0.452088 0.066471
O O8 0.213067 0.380389 0.000000
O O9 0.000000 0.441646 0.000000
O O10 0.252436 0.311155 0.925730
O O11 0.000000 0.318821 0.000000
O O12 0.253857 0.167963 0.787163
O O13 0.257242 0.088821 0.820654
O O14 0.000000 0.123967 0.760794
O O15 0.750000 0.250000 0.833319
O O16 0.000000 0.300908 0.850469
O O17 0.000000 0.953737 0.845087
O O18 0.254213 0.000000 0.825089
#
# Coordination Sequence:
#
# PCOD9489632 Si02
#       7
#     8  16   8   8  16  16  16
#     4   9  17  31  53  81 114 151 188 223 257 303
#     4  10  20  34  54  82 116 152 186 222 264 310
#     4  11  20  33  50  70  94 128 172 218 265 313
#     4   9  19  35  55  75 100 129 167 223 281 333
#     4  11  22  36  54  77 105 140 179 221 269 322
#     4  11  22  39  58  79 104 133 173 224 281 337
#     4  10  21  35  49  68  98 135 174 216 261 312
#
# _framework density 17.680192000000002
#
# number of rings (size 3 to 8) (size 9 to 14) (size 15 to 20)
#    0.000    1.727    1.818    3.273    0.000    5.091 
#    0.000    1.364    0.000    0.000    0.000    0.636 
#    0.000    0.000    0.000    0.000    0.000    0.000 
#
# Total GULP energy -245059.975435 kJ/mol
# GULP energy per Si atom -5569.544896 kJ/mol
# Density = 1.763995 g / cm^3
# Si number density = 17.680192 Si / 1000 Ang^3
#
#
#
# Elastic Constant Matrix: (Units=GPa)
#
#
# Indices 1 2 3 4 5 6 
#
# 1 43.8556 29.6639 14.7961 0.0000 0.0000 0.0000
# 2 29.6639 119.5705 56.6533 0.0000 0.0000 0.0000
# 3 14.7961 56.6533 114.5044 0.0000 0.0000 0.0000
# 4 0.0000 0.0000 0.0000 40.4547 0.0000 0.0000
# 5 0.0000 0.0000 0.0000 0.0000 18.2495 0.0000
# 6 0.0000 0.0000 0.0000 0.0000 0.0000 19.0454
#
#
#
# Elastic Compliance Matrix: (Units=1/GPa)
#
#
# Indices 1 2 3 4 5 6 
#
# 1 0.027405 -0.006689 -0.000232 0.000000 0.000000 0.000000
# 2 -0.006689 0.012557 -0.005348 0.000000 0.000000 0.000000
# 3 -0.000232 -0.005348 0.011409 0.000000 0.000000 0.000000
# 4 0.000000 0.000000 0.000000 0.024719 0.000000 0.000000
# 5 0.000000 0.000000 0.000000 0.000000 0.054796 0.000000
# 6 0.000000 0.000000 0.000000 0.000000 0.000000 0.052506
#
#
# Mechanical properties :
#
#
# Convention : Reuss Voigt Hill
#
# Bulk Modulus (GPa) = 37.26779 53.35079 45.30929
# Shear Modulus (GPa) = 23.05480 27.33773 25.19626
#
# Velocity S-wave (km/s) = 3.61500 3.93649 3.77916
# Velocity P-wave (km/s) = 6.20877 7.13458 6.68772
#
# Compressibility (1/GPa) = 0.02683282
#
# Stress axis : x y z
#
# Youngs Moduli (GPa) = 36.49014 79.63805 87.64668
#
# Poissons Ratio (x) = 0.53270 0.02031
# Poissons Ratio (y) = 0.24408 0.46877
# Poissons Ratio (z) = 0.00845 0.42594
#
# Static dielectric constant tensor:
#      x y z
#    x 1.611610 0.000000 0.000000 
#    y 0.000000 1.470800 0.000000 
#    z 0.000000 0.000000 1.620240 
# 
# From -- ./inp_files/50475.got.cif
#   From: 2010.05.17/outbox.cif.g08.bks.cpg/sg65_26_cif.got.tgz:50475.got - 2010.06.03 17:01:31.
