data_PCOD9489647
_publ_section_title
;
Structure prediction by ZEFSAII (Michael W. Deem and Ramdas Pophale) SiO2 
 PCOD9489647
Probable space group: C M M M
;
_chemical_formula_sum "Si O2"
_cell_formula_units_Z 56
_cell_length_a 24.323102
_cell_length_b 12.901159
_cell_length_c 7.836617
_cell_angle_alpha 90.000000
_cell_angle_beta 90.000000
_cell_angle_gamma 90.000000
_cell_volume 2459.100685
_symmetry_space_group_name_H-M "C M M M"
_symmetry_group_IT_number 65
_symmetry_cell_setting 'orthorhombic'
loop_
_space_group_symop_operation_xyz
x,y,z
-x,-y,z
x,-y,-z
-x,y,-z
-x,-y,-z
x,y,-z
-x,y,z
x,-y,z
1/2+x,1/2+y,z
1/2-x,1/2-y,z
1/2+x,1/2-y,-z
1/2-x,1/2+y,-z
1/2-x,1/2-y,-z
1/2+x,1/2+y,-z
1/2-x,1/2+y,z
1/2+x,1/2-y,z
loop_
_atom_site_type_symbol
_atom_site_label
_atom_site_fract_x
_atom_site_fract_y
_atom_site_fract_z
Si Si1 0.206010 0.113854 0.803323
Si Si2 0.063462 0.277503 0.703541
Si Si3 0.434514 0.615795 0.000000
Si Si4 0.822811 0.661567 0.307039
O O1 0.186138 0.213518 0.700174
O O2 0.272581 0.117980 0.800332
O O3 0.189061 0.000000 0.741290
O O4 0.188608 0.128209 0.000000
O O5 0.067174 0.253722 0.500000
O O6 0.113714 0.355958 0.741514
O O7 0.000000 0.310570 0.735683
O O8 0.075887 0.181182 0.828459
O O9 0.411632 0.500000 0.000000
O O10 0.500000 0.605546 0.000000
O O11 0.814518 0.625700 0.500000
#
# Coordination Sequence:
#
# PCOD9489647 Si02
#       4
#    16  16   8  16
#     4  10  21  35  53  77 105 137 172 217 267 313
#     4   9  19  34  51  75 105 137 174 214 260 313
#     4   9  18  30  46  69  97 137 179 211 253 304
#     4  10  20  34  55  78 103 138 175 216 262 312
#
# _framework density 22.772549999999999
#
# number of rings (size 3 to 8) (size 9 to 14) (size 15 to 20)
#    0.000    2.429    0.000    3.429    4.000    4.000 
#    0.000    5.714    0.000    0.857    0.000    6.000 
#    0.000    0.000    0.000    0.000    0.000    0.000 
#
# Total GULP energy -156183.779024 kJ/mol
# GULP energy per Si atom -5577.992108 kJ/mol
# Density = 2.272072 g / cm^3
# Si number density = 22.772550 Si / 1000 Ang^3
#
#
#
# Elastic Constant Matrix: (Units=GPa)
#
#
# Indices 1 2 3 4 5 6 
#
# 1 149.9503 -3.8046 18.7807 0.0000 0.0000 0.0000
# 2 -3.8046 61.7803 -0.8080 0.0000 0.0000 0.0000
# 3 18.7807 -0.8080 59.2072 0.0000 0.0000 0.0000
# 4 0.0000 0.0000 0.0000 28.3972 0.0000 0.0000
# 5 0.0000 0.0000 0.0000 0.0000 39.4900 0.0000
# 6 0.0000 0.0000 0.0000 0.0000 0.0000 15.8098
#
#
#
# Elastic Compliance Matrix: (Units=1/GPa)
#
#
# Indices 1 2 3 4 5 6 
#
# 1 0.006955 0.000400 -0.002201 0.000000 0.000000 0.000000
# 2 0.000400 0.016212 0.000095 0.000000 0.000000 0.000000
# 3 -0.002201 0.000095 0.017589 0.000000 0.000000 0.000000
# 4 0.000000 0.000000 0.000000 0.035215 0.000000 0.000000
# 5 0.000000 0.000000 0.000000 0.000000 0.025323 0.000000
# 6 0.000000 0.000000 0.000000 0.000000 0.000000 0.063252
#
#
# Mechanical properties :
#
#
# Convention : Reuss Voigt Hill
#
# Bulk Modulus (GPa) = 26.77883 33.25266 30.01575
# Shear Modulus (GPa) = 27.71521 33.85737 30.78629
#
# Velocity S-wave (km/s) = 3.49240 3.86004 3.68081
# Velocity P-wave (km/s) = 5.29597 5.87370 5.59230
#
# Compressibility (1/GPa) = 0.03734293
#
# Stress axis : x y z
#
# Youngs Moduli (GPa) = 143.78922 61.68179 56.85324
#
# Poissons Ratio (x) = -0.02464 0.12511
# Poissons Ratio (y) = -0.05744 -0.00537
# Poissons Ratio (z) = 0.31642 -0.00583
#
# Static dielectric constant tensor:
#      x y z
#    x 1.925650 0.000000 0.000000 
#    y 0.000000 1.828530 0.000000 
#    z 0.000000 0.000000 1.780560 
# 
# From -- ./inp_files/6574.got.cif
#   From: 2010.05.17/outbox.cif.g08.bks.cpg/sg65_4_cif.got.tgz:6574.got - 2010.06.03 17:01:31.
