data_PCOD9489615
_publ_section_title
;
Structure prediction by ZEFSAII (Michael W. Deem and Ramdas Pophale) SiO2 
 PCOD9489615
Probable space group: C M M M
;
_chemical_formula_sum "Si O2"
_cell_formula_units_Z 112
_cell_length_a 28.347571
_cell_length_b 14.273393
_cell_length_c 13.776744
_cell_angle_alpha 90.000000
_cell_angle_beta 90.000000
_cell_angle_gamma 90.000000
_cell_volume 5574.291346
_symmetry_space_group_name_H-M "C M M M"
_symmetry_group_IT_number 65
_symmetry_cell_setting 'orthorhombic'
loop_
_space_group_symop_operation_xyz
x,y,z
-x,-y,z
x,-y,-z
-x,y,-z
-x,-y,-z
x,y,-z
-x,y,z
x,-y,z
1/2+x,1/2+y,z
1/2-x,1/2-y,z
1/2+x,1/2-y,-z
1/2-x,1/2+y,-z
1/2-x,1/2-y,-z
1/2+x,1/2+y,-z
1/2-x,1/2+y,z
1/2+x,1/2-y,z
loop_
_atom_site_type_symbol
_atom_site_label
_atom_site_fract_x
_atom_site_fract_y
_atom_site_fract_z
Si Si1 0.367977 0.389032 0.609562
Si Si2 0.306297 0.749299 0.113378
Si Si3 0.827787 0.602372 0.726176
Si Si4 0.445829 0.713748 0.733095
Si Si5 0.113464 0.107940 0.885747
Si Si6 0.736688 0.641657 0.611017
Si Si7 0.420531 0.110578 0.386695
O O1 0.365881 0.352777 0.500000
O O2 0.374303 0.500000 0.608788
O O3 0.411446 0.341081 0.660460
O O4 0.316076 0.368880 0.651020
O O5 0.250000 0.750000 0.131405
O O6 0.328895 0.820636 0.190184
O O7 0.333910 0.651069 0.125064
O O8 0.312904 0.777039 0.000000
O O9 0.839636 0.500000 0.766896
O O10 0.776281 0.599550 0.679130
O O11 0.865026 0.621108 0.639854
O O12 0.500000 0.683509 0.731088
O O13 0.422030 0.680896 0.834007
O O14 0.443773 0.820416 0.692512
O O15 0.110233 0.000000 0.848549
O O16 0.103243 0.105418 0.000000
O O17 0.737646 0.604805 0.500000
O O18 0.750000 0.750000 0.606406
O O19 0.429844 0.135293 0.500000
O O20 0.432646 0.000000 0.375488
#
# Coordination Sequence:
#
# PCOD9489615 Si02
#       7
#    16  16  16  16  16  16  16
#     4  10  22  38  55  82 123 167 209 253 309 375
#     4  10  22  40  61  91 130 167 207 252 304 373
#     4  11  21  34  59  92 125 163 207 254 305 368
#     4  12  25  42  65  91 121 158 208 267 322 373
#     4  10  23  45  71  96 126 165 209 261 318 373
#     4  10  20  34  54  81 119 167 212 252 297 356
#     4  10  22  41  65  96 132 167 208 257 310 375
#
# _framework density 20.092238999999999
#
# number of rings (size 3 to 8) (size 9 to 14) (size 15 to 20)
#    0.000    1.571    1.429    3.000    2.000    6.286 
#    0.000    3.571    0.000    0.429    0.000    1.000 
#    0.000    0.000    0.000    0.000    0.000    0.000 
#
# Total GULP energy -312570.933971 kJ/mol
# GULP energy per Si atom -5581.623821 kJ/mol
# Density = 2.004651 g / cm^3
# Si number density = 20.092239 Si / 1000 Ang^3
#
#
#
# Elastic Constant Matrix: (Units=GPa)
#
#
# Indices 1 2 3 4 5 6 
#
# 1 120.1287 24.0554 16.6018 0.0000 0.0000 0.0000
# 2 24.0554 113.9383 37.0876 0.0000 0.0000 0.0000
# 3 16.6018 37.0876 97.4536 0.0000 0.0000 0.0000
# 4 0.0000 0.0000 0.0000 38.8277 0.0000 0.0000
# 5 0.0000 0.0000 0.0000 0.0000 36.3895 0.0000
# 6 0.0000 0.0000 0.0000 0.0000 0.0000 8.7462
#
#
#
# Elastic Compliance Matrix: (Units=1/GPa)
#
#
# Indices 1 2 3 4 5 6 
#
# 1 0.008760 -0.001557 -0.000900 0.000000 0.000000 0.000000
# 2 -0.001557 0.010294 -0.003652 0.000000 0.000000 0.000000
# 3 -0.000900 -0.003652 0.011805 0.000000 0.000000 0.000000
# 4 0.000000 0.000000 0.000000 0.025755 0.000000 0.000000
# 5 0.000000 0.000000 0.000000 0.000000 0.027480 0.000000
# 6 0.000000 0.000000 0.000000 0.000000 0.000000 0.114336
#
#
# Mechanical properties :
#
#
# Convention : Reuss Voigt Hill
#
# Bulk Modulus (GPa) = 53.64470 54.11225 53.87847
# Shear Modulus (GPa) = 23.05609 33.71106 28.38358
#
# Velocity S-wave (km/s) = 3.39117 4.10056 3.76262
# Velocity P-wave (km/s) = 6.48772 7.02921 6.76389
#
# Compressibility (1/GPa) = 0.01864117
#
# Stress axis : x y z
#
# Youngs Moduli (GPa) = 114.14879 97.14183 84.71257
#
# Poissons Ratio (x) = 0.15121 0.07624
# Poissons Ratio (y) = 0.17769 0.30941
# Poissons Ratio (z) = 0.10273 0.35481
#
# Static dielectric constant tensor:
#      x y z
#    x 1.698960 0.000000 0.000000 
#    y 0.000000 1.590780 0.000000 
#    z 0.000000 0.000000 1.739240 
# 
# From -- ./inp_files/47074.got.cif
#   From: 2010.05.17/outbox.cif.g08.bks.cpg/sg65_24_cif.got.tgz:47074.got - 2010.06.03 17:01:31.
