data_PCOD9489539
_publ_section_title
;
Structure prediction by ZEFSAII (Michael W. Deem and Ramdas Pophale) SiO2 
 PCOD9489539
Probable space group: C M M M
;
_chemical_formula_sum "Si O2"
_cell_formula_units_Z 96
_cell_length_a 8.542229
_cell_length_b 29.494592
_cell_length_c 21.229337
_cell_angle_alpha 90.000000
_cell_angle_beta 90.000000
_cell_angle_gamma 90.000000
_cell_volume 5348.722098
_symmetry_space_group_name_H-M "C M M M"
_symmetry_group_IT_number 65
_symmetry_cell_setting 'orthorhombic'
loop_
_space_group_symop_operation_xyz
x,y,z
-x,-y,z
x,-y,-z
-x,y,-z
-x,-y,-z
x,y,-z
-x,y,z
x,-y,z
1/2+x,1/2+y,z
1/2-x,1/2-y,z
1/2+x,1/2-y,-z
1/2-x,1/2+y,-z
1/2-x,1/2-y,-z
1/2+x,1/2+y,-z
1/2-x,1/2+y,z
1/2+x,1/2-y,z
loop_
_atom_site_type_symbol
_atom_site_label
_atom_site_fract_x
_atom_site_fract_y
_atom_site_fract_z
Si Si1 0.188053 0.140689 0.810520
Si Si2 0.313172 0.449170 0.614165
Si Si3 0.811019 0.199775 0.928449
Si Si4 0.188719 0.698857 0.307244
Si Si5 0.314043 0.051356 0.244339
Si Si6 0.311738 0.855138 0.431233
O O1 0.239743 0.164338 0.875437
O O2 0.249308 0.170406 0.752004
O O3 0.252059 0.090208 0.801083
O O4 0.000000 0.139979 0.808709
O O5 0.500000 0.446977 0.607449
O O6 0.261371 0.500000 0.594798
O O7 0.267836 0.443766 0.687650
O O8 0.237983 0.407193 0.578295
O O9 0.750000 0.250000 0.912893
O O10 0.000000 0.201071 0.927935
O O11 0.760108 0.188916 0.000000
O O12 0.250000 0.750000 0.304492
O O13 0.243234 0.674398 0.371805
O O14 0.000000 0.698712 0.305773
O O15 0.500000 0.056954 0.253974
O O16 0.284706 0.000000 0.222000
O O17 0.256417 0.839065 0.500000
O O18 0.500000 0.853211 0.430482
#
# Coordination Sequence:
#
# PCOD9489539 Si02
#       6
#    16  16  16  16  16  16
#     4  11  21  34  57  85 112 142 179 223 268 317
#     4  10  20  34  54  80 108 137 174 221 271 323
#     4   9  19  35  54  80 114 149 183 219 262 314
#     4  11  23  38  56  78 106 139 179 227 271 320
#     4  10  20  34  54  80 110 143 178 219 268 321
#     4  10  22  39  56  75 103 142 183 222 270 326
#
# _framework density 17.948211000000001
#
# number of rings (size 3 to 8) (size 9 to 14) (size 15 to 20)
#    0.000    1.833    1.667    2.500    0.000    6.333 
#    0.000    1.667    0.000    0.500    0.000    3.500 
#    0.000    0.000    0.000    0.000    0.000    0.000 
#
# Total GULP energy -268035.510957 kJ/mol
# GULP energy per Si atom -5584.073145 kJ/mol
# Density = 1.790736 g / cm^3
# Si number density = 17.948211 Si / 1000 Ang^3
#
#
#
# Elastic Constant Matrix: (Units=GPa)
#
#
# Indices 1 2 3 4 5 6 
#
# 1 11.5129 9.1288 7.9501 0.0000 0.0000 0.0000
# 2 9.1288 101.5063 51.8363 0.0000 0.0000 0.0000
# 3 7.9501 51.8363 91.5486 0.0000 0.0000 0.0000
# 4 0.0000 0.0000 0.0000 17.4113 0.0000 0.0000
# 5 0.0000 0.0000 0.0000 0.0000 20.3164 0.0000
# 6 0.0000 0.0000 0.0000 0.0000 0.0000 31.4388
#
#
#
# Elastic Compliance Matrix: (Units=1/GPa)
#
#
# Indices 1 2 3 4 5 6 
#
# 1 0.095005 -0.006093 -0.004800 0.000000 0.000000 0.000000
# 2 -0.006093 0.014250 -0.007539 0.000000 0.000000 0.000000
# 3 -0.004800 -0.007539 0.015609 0.000000 0.000000 0.000000
# 4 0.000000 0.000000 0.000000 0.057434 0.000000 0.000000
# 5 0.000000 0.000000 0.000000 0.000000 0.049221 0.000000
# 6 0.000000 0.000000 0.000000 0.000000 0.000000 0.031808
#
#
# Mechanical properties :
#
#
# Convention : Reuss Voigt Hill
#
# Bulk Modulus (GPa) = 11.36380 38.04423 24.70402
# Shear Modulus (GPa) = 15.17339 22.87682 19.02510
#
# Velocity S-wave (km/s) = 2.91073 3.57403 3.25930
# Velocity P-wave (km/s) = 4.20019 6.18662 5.28753
#
# Compressibility (1/GPa) = 0.08799873
#
# Stress axis : x y z
#
# Youngs Moduli (GPa) = 10.52576 70.17730 64.06598
#
# Poissons Ratio (x) = 0.42756 0.30755
# Poissons Ratio (y) = 0.06413 0.48301
# Poissons Ratio (z) = 0.05053 0.52909
#
# Static dielectric constant tensor:
#      x y z
#    x 1.612680 0.000000 0.000000 
#    y 0.000000 1.600420 0.000000 
#    z 0.000000 0.000000 1.618030 
# 
# From -- ./inp_files/60151.got.cif
#   From: 2010.05.17/outbox.cif.g08.bks.cpg/sg65_31_cif.got.tgz:60151.got - 2010.06.03 17:01:31.
