data_PCOD9489080
_publ_section_title
;
Structure prediction by ZEFSAII (Michael W. Deem and Ramdas Pophale) SiO2 
 PCOD9489080
Probable space group: C M M M
;
_chemical_formula_sum "Si O2"
_cell_formula_units_Z 80
_cell_length_a 9.028406
_cell_length_b 28.942141
_cell_length_c 21.587969
_cell_angle_alpha 90.000000
_cell_angle_beta 90.000000
_cell_angle_gamma 90.000000
_cell_volume 5640.966511
_symmetry_space_group_name_H-M "C M M M"
_symmetry_group_IT_number 65
_symmetry_cell_setting 'orthorhombic'
loop_
_space_group_symop_operation_xyz
x,y,z
-x,-y,z
x,-y,-z
-x,y,-z
-x,-y,-z
x,y,-z
-x,y,z
x,-y,z
1/2+x,1/2+y,z
1/2-x,1/2-y,z
1/2+x,1/2-y,-z
1/2-x,1/2+y,-z
1/2-x,1/2-y,-z
1/2+x,1/2+y,-z
1/2-x,1/2+y,z
1/2+x,1/2-y,z
loop_
_atom_site_type_symbol
_atom_site_label
_atom_site_fract_x
_atom_site_fract_y
_atom_site_fract_z
Si Si1 0.329517 0.556249 0.500000
Si Si2 0.324831 0.555349 0.000000
Si Si3 0.171199 0.556247 0.374720
Si Si4 0.819642 0.553230 0.238725
Si Si5 0.178683 0.607615 0.884642
Si Si6 0.175246 0.201027 0.925711
O O1 0.319386 0.500000 0.500000
O O2 0.500000 0.569059 0.500000
O O3 0.254633 0.571988 0.436175
O O4 0.247436 0.577002 0.060234
O O5 0.310003 0.500000 0.000000
O O6 0.500000 0.567133 0.000000
O O7 0.174003 0.500000 0.374064
O O8 0.231061 0.569652 0.306847
O O9 0.000000 0.570257 0.379625
O O10 0.771895 0.500000 0.228709
O O11 0.778789 0.584880 0.181006
O O12 0.000000 0.552393 0.241648
O O13 0.243687 0.658760 0.892476
O O14 0.000000 0.608067 0.889785
O O15 0.250000 0.250000 0.910442
O O16 0.000000 0.201636 0.912500
O O17 0.192771 0.193987 0.000000
#
# Coordination Sequence:
#
# PCOD9489080 Si02
#       6
#     8   8  16  16  16  16
#     4   9  15  21  31  51  77 101 132 175 214 245
#     4  11  23  35  44  59  86 117 149 183 215 249
#     4   8  13  23  38  53  72 103 141 175 206 241
#     4   8  15  27  42  61  84 111 146 182 210 245
#     4  11  20  31  49  68  86 110 142 179 221 262
#     4  10  20  34  51  68  88 108 134 173 218 266
#
# _framework density 14.181965999999999
#
# number of rings (size 3 to 8) (size 9 to 14) (size 15 to 20)
#    0.000    2.600    1.000    3.600    0.000    3.600 
#    0.000    2.000    0.000    4.800    0.000    0.000 
#    0.000    0.000    0.000    0.900    0.000   10.100 
#
# Total GULP energy -222849.658415 kJ/mol
# GULP energy per Si atom -5571.241460 kJ/mol
# Density = 1.414969 g / cm^3
# Si number density = 14.181966 Si / 1000 Ang^3
#
#
#
# Elastic Constant Matrix: (Units=GPa)
#
#
# Indices 1 2 3 4 5 6 
#
# 1 70.4942 39.8577 61.7678 0.0000 0.0000 0.0000
# 2 39.8577 73.4038 58.6634 0.0000 0.0000 0.0000
# 3 61.7678 58.6634 151.0397 0.0000 0.0000 0.0000
# 4 0.0000 0.0000 0.0000 2.4215 0.0000 0.0000
# 5 0.0000 0.0000 0.0000 0.0000 2.2756 0.0000
# 6 0.0000 0.0000 0.0000 0.0000 0.0000 18.0103
#
#
#
# Elastic Compliance Matrix: (Units=1/GPa)
#
#
# Indices 1 2 3 4 5 6 
#
# 1 0.024838 -0.007786 -0.007134 0.000000 0.000000 0.000000
# 2 -0.007786 0.022196 -0.005437 0.000000 0.000000 0.000000
# 3 -0.007134 -0.005437 0.011650 0.000000 0.000000 0.000000
# 4 0.000000 0.000000 0.000000 0.412967 0.000000 0.000000
# 5 0.000000 0.000000 0.000000 0.000000 0.439447 0.000000
# 6 0.000000 0.000000 0.000000 0.000000 0.000000 0.055524
#
#
# Mechanical properties :
#
#
# Convention : Reuss Voigt Hill
#
# Bulk Modulus (GPa) = 55.64417 68.39062 62.01740
# Shear Modulus (GPa) = 4.93425 13.51807 9.22616
#
# Velocity S-wave (km/s) = 1.86730 3.09072 2.55337
# Velocity P-wave (km/s) = 6.63100 7.81442 7.24690
#
# Compressibility (1/GPa) = 0.01797134
#
# Stress axis : x y z
#
# Youngs Moduli (GPa) = 40.26036 45.05315 85.83901
#
# Poissons Ratio (x) = 0.35078 0.61234
# Poissons Ratio (y) = 0.31346 0.46669
# Poissons Ratio (z) = 0.28720 0.24494
#
# Static dielectric constant tensor:
#      x y z
#    x 1.474400 0.000000 0.000000 
#    y 0.000000 1.438930 0.000000 
#    z 0.000000 0.000000 1.478370 
# 
# From -- ./inp_files/60069.got.cif
#   From: 2010.05.17/outbox.cif.g08.bks.cpg/sg65_31_cif.got.tgz:60069.got - 2010.06.03 17:01:31.
