data_PCOD9489250
_publ_section_title
;
Structure prediction by ZEFSAII (Michael W. Deem and Ramdas Pophale) SiO2 
 PCOD9489250
Probable space group: C M M M
;
_chemical_formula_sum "Si O2"
_cell_formula_units_Z 96
_cell_length_a 23.171040
_cell_length_b 7.875802
_cell_length_c 24.626179
_cell_angle_alpha 90.000000
_cell_angle_beta 90.000000
_cell_angle_gamma 90.000000
_cell_volume 4494.044289
_symmetry_space_group_name_H-M "C M M M"
_symmetry_group_IT_number 65
_symmetry_cell_setting 'orthorhombic'
loop_
_space_group_symop_operation_xyz
x,y,z
-x,-y,z
x,-y,-z
-x,y,-z
-x,-y,-z
x,y,-z
-x,y,z
x,-y,z
1/2+x,1/2+y,z
1/2-x,1/2-y,z
1/2+x,1/2-y,-z
1/2-x,1/2+y,-z
1/2-x,1/2-y,-z
1/2+x,1/2+y,-z
1/2-x,1/2+y,z
1/2+x,1/2-y,z
loop_
_atom_site_type_symbol
_atom_site_label
_atom_site_fract_x
_atom_site_fract_y
_atom_site_fract_z
Si Si1 0.000000 0.301242 0.185455
Si Si2 0.373764 0.798213 0.832896
Si Si3 0.500000 0.694670 0.305748
Si Si4 0.436543 0.204315 0.564596
Si Si5 0.183041 0.704903 0.058471
Si Si6 0.685587 0.805138 0.393848
Si Si7 0.127136 0.201703 0.292215
O O1 0.058763 0.272058 0.154519
O O2 0.000000 0.500000 0.203367
O O3 0.000000 0.191328 0.239545
O O4 0.340453 0.726451 0.884468
O O5 0.364355 0.731681 0.771797
O O6 0.362645 0.000000 0.829161
O O7 0.500000 0.500000 0.323944
O O8 0.564359 0.772389 0.313338
O O9 0.438338 0.231953 0.500000
O O10 0.500000 0.264776 0.586690
O O11 0.374264 0.275947 0.583435
O O12 0.436628 0.000000 0.573526
O O13 0.176068 0.500000 0.059717
O O14 0.250000 0.750000 0.057387
O O15 0.158139 0.763656 0.000000
O O16 0.750000 0.750000 0.409629
O O17 0.676337 0.782825 0.329316
O O18 0.682613 0.000000 0.410098
O O19 0.126533 0.000000 0.301180
#
# Coordination Sequence:
#
# PCOD9489250 Si02
#       7
#     8  16   8  16  16  16  16
#     4   8  14  26  45  68  94 123 159 202 245 299
#     4   9  17  31  50  72  99 132 170 212 258 312
#     4   8  16  30  48  71  98 132 170 213 261 306
#     4   8  16  34  60  88 114 142 183 231 273 318
#     4   9  18  32  49  69  93 122 160 207 257 309
#     4  11  23  37  55  81 115 151 186 226 274 325
#     4  10  20  34  52  76 107 142 179 219 267 321
#
# _framework density 21.361604
#
# number of rings (size 3 to 8) (size 9 to 14) (size 15 to 20)
#    0.000    2.833    0.000    1.500    1.167    2.333 
#    0.000    2.083    0.000    4.000    0.000    4.667 
#    0.000    9.333    0.000    0.000    0.000    0.000 
#
# Total GULP energy -267283.487760 kJ/mol
# GULP energy per Si atom -5568.405995 kJ/mol
# Density = 2.131298 g / cm^3
# Si number density = 21.361604 Si / 1000 Ang^3
#
#
#
# Elastic Constant Matrix: (Units=GPa)
#
#
# Indices 1 2 3 4 5 6 
#
# 1 140.8676 21.7940 52.0016 0.0000 0.0000 0.0000
# 2 21.7940 26.8951 8.1806 0.0000 0.0000 0.0000
# 3 52.0016 8.1806 60.1745 0.0000 0.0000 0.0000
# 4 0.0000 0.0000 0.0000 8.4877 0.0000 0.0000
# 5 0.0000 0.0000 0.0000 0.0000 37.9205 0.0000
# 6 0.0000 0.0000 0.0000 0.0000 0.0000 20.4643
#
#
#
# Elastic Compliance Matrix: (Units=1/GPa)
#
#
# Indices 1 2 3 4 5 6 
#
# 1 0.011426 -0.006525 -0.008987 0.000000 0.000000 0.000000
# 2 -0.006525 0.042512 -0.000140 0.000000 0.000000 0.000000
# 3 -0.008987 -0.000140 0.024404 0.000000 0.000000 0.000000
# 4 0.000000 0.000000 0.000000 0.117817 0.000000 0.000000
# 5 0.000000 0.000000 0.000000 0.000000 0.026371 0.000000
# 6 0.000000 0.000000 0.000000 0.000000 0.000000 0.048866
#
#
# Mechanical properties :
#
#
# Convention : Reuss Voigt Hill
#
# Bulk Modulus (GPa) = 21.26019 43.54330 32.40174
# Shear Modulus (GPa) = 15.70453 23.10523 19.40488
#
# Velocity S-wave (km/s) = 2.71435 3.29237 3.01724
# Velocity P-wave (km/s) = 4.44947 5.90602 5.22871
#
# Compressibility (1/GPa) = 0.04703628
#
# Stress axis : x y z
#
# Youngs Moduli (GPa) = 87.51972 23.52288 40.97719
#
# Poissons Ratio (x) = 0.15349 0.36826
# Poissons Ratio (y) = 0.57109 0.00575
# Poissons Ratio (z) = 0.78654 0.00330
#
# Static dielectric constant tensor:
#      x y z
#    x 1.985700 0.000000 0.000000 
#    y 0.000000 1.799210 0.000000 
#    z 0.000000 0.000000 1.827420 
# 
# From -- ./inp_files/75731.got.cif
#   From: 2010.05.17/outbox.cif.g08.bks.cpg/sg65_38_cif.got.tgz:75731.got - 2010.06.03 17:01:31.
