data_PCOD9489659
_publ_section_title
;
Structure prediction by ZEFSAII (Michael W. Deem and Ramdas Pophale) SiO2 
 PCOD9489659
Probable space group: C M M M
;
_chemical_formula_sum "Si O2"
_cell_formula_units_Z 80
_cell_length_a 17.854833
_cell_length_b 27.061322
_cell_length_c 7.512091
_cell_angle_alpha 90.000000
_cell_angle_beta 90.000000
_cell_angle_gamma 90.000000
_cell_volume 3629.657462
_symmetry_space_group_name_H-M "C M M M"
_symmetry_group_IT_number 65
_symmetry_cell_setting 'orthorhombic'
loop_
_space_group_symop_operation_xyz
x,y,z
-x,-y,z
x,-y,-z
-x,y,-z
-x,-y,-z
x,y,-z
-x,y,z
x,-y,z
1/2+x,1/2+y,z
1/2-x,1/2-y,z
1/2+x,1/2-y,-z
1/2-x,1/2+y,-z
1/2-x,1/2-y,-z
1/2+x,1/2+y,-z
1/2-x,1/2+y,z
1/2+x,1/2-y,z
loop_
_atom_site_type_symbol
_atom_site_label
_atom_site_fract_x
_atom_site_fract_y
_atom_site_fract_z
Si Si1 0.312819 0.089475 0.710192
Si Si2 0.082898 0.680333 0.214754
Si Si3 0.914305 0.500000 0.718513
Si Si4 0.329185 0.726319 0.785027
Si Si5 0.000000 0.057750 0.718104
Si Si6 0.150481 0.888673 0.289720
O O1 0.305499 0.079748 0.500000
O O2 0.353583 0.141859 0.730909
O O3 0.229056 0.090939 0.785924
O O4 0.368527 0.047811 0.780235
O O5 0.106978 0.735110 0.271296
O O6 0.000000 0.666530 0.279401
O O7 0.081458 0.679933 0.000000
O O8 0.916303 0.500000 0.500000
O O9 0.000000 0.500000 0.777970
O O10 0.250000 0.750000 0.724710
O O11 0.345202 0.670578 0.728284
O O12 0.326594 0.725501 0.000000
O O13 0.925142 0.086265 0.780230
O O14 0.000000 0.059052 0.500000
O O15 0.000000 0.000000 0.769061
O O16 0.150761 0.899568 0.500000
#
# Coordination Sequence:
#
# PCOD9489659 Si02
#       6
#    16  16   8  16   8  16
#     4  10  20  34  55  80 106 139 179 222 267 317
#     4  10  21  36  54  78 109 144 181 216 261 323
#     4   9  18  32  51  76 106 134 167 213 265 315
#     4  10  20  36  56  77 107 147 182 219 273 331
#     4   9  20  38  59  83 115 149 185 236 293 340
#     4  10  21  35  55  83 109 140 184 229 273 323
#
# _framework density 22.040647
#
# number of rings (size 3 to 8) (size 9 to 14) (size 15 to 20)
#    0.000    2.200    2.000    0.600    2.800    2.400 
#    0.000    0.500    0.000    3.000    0.000    0.000 
#    0.000    0.000    0.000    0.000    0.000    0.000 
#
# Total GULP energy -223438.478769 kJ/mol
# GULP energy per Si atom -5585.961969 kJ/mol
# Density = 2.199048 g / cm^3
# Si number density = 22.040647 Si / 1000 Ang^3
#
#
#
# Elastic Constant Matrix: (Units=GPa)
#
#
# Indices 1 2 3 4 5 6 
#
# 1 237.1032 107.9001 9.6834 0.0000 0.0000 0.0000
# 2 107.9001 145.9925 -5.5931 0.0000 0.0000 0.0000
# 3 9.6834 -5.5931 56.3965 0.0000 0.0000 0.0000
# 4 0.0000 0.0000 0.0000 27.0059 0.0000 0.0000
# 5 0.0000 0.0000 0.0000 0.0000 6.3213 0.0000
# 6 0.0000 0.0000 0.0000 0.0000 0.0000 39.4165
#
#
#
# Elastic Compliance Matrix: (Units=1/GPa)
#
#
# Indices 1 2 3 4 5 6 
#
# 1 0.006495 -0.004862 -0.001597 0.000000 0.000000 0.000000
# 2 -0.004862 0.010515 0.001878 0.000000 0.000000 0.000000
# 3 -0.001597 0.001878 0.018192 0.000000 0.000000 0.000000
# 4 0.000000 0.000000 0.000000 0.037029 0.000000 0.000000
# 5 0.000000 0.000000 0.000000 0.000000 0.158196 0.000000
# 6 0.000000 0.000000 0.000000 0.000000 0.000000 0.025370
#
#
# Mechanical properties :
#
#
# Convention : Reuss Voigt Hill
#
# Bulk Modulus (GPa) = 38.40387 73.71920 56.06154
# Shear Modulus (GPa) = 18.27216 36.38219 27.32717
#
# Velocity S-wave (km/s) = 2.88240 4.06727 3.52498
# Velocity P-wave (km/s) = 5.34224 7.45496 6.48521
#
# Compressibility (1/GPa) = 0.02603904
#
# Stress axis : x y z
#
# Youngs Moduli (GPa) = 153.95828 95.10407 54.96895
#
# Poissons Ratio (x) = 0.46237 0.08781
# Poissons Ratio (y) = 0.74850 -0.10321
# Poissons Ratio (z) = 0.24593 -0.17856
#
# Static dielectric constant tensor:
#      x y z
#    x 1.807370 0.000000 0.000000 
#    y 0.000000 1.768450 0.000000 
#    z 0.000000 0.000000 1.835080 
# 
# From -- ./inp_files/9721.got.cif
#   From: 2010.05.17/outbox.cif.g08.bks.cpg/sg65_5_cif.got.tgz:9721.got - 2010.06.03 17:01:31.
