data_PCOD9489835
_publ_section_title
;
Structure prediction by ZEFSAII (Michael W. Deem and Ramdas Pophale) SiO2 
 PCOD9489835
Probable space group: C M M M
;
_chemical_formula_sum "Si O2"
_cell_formula_units_Z 96
_cell_length_a 8.124611
_cell_length_b 26.592118
_cell_length_c 24.370439
_cell_angle_alpha 90.000000
_cell_angle_beta 90.000000
_cell_angle_gamma 90.000000
_cell_volume 5265.248320
_symmetry_space_group_name_H-M "C M M M"
_symmetry_group_IT_number 65
_symmetry_cell_setting 'orthorhombic'
loop_
_space_group_symop_operation_xyz
x,y,z
-x,-y,z
x,-y,-z
-x,y,-z
-x,-y,-z
x,y,-z
-x,y,z
x,-y,z
1/2+x,1/2+y,z
1/2-x,1/2-y,z
1/2+x,1/2-y,-z
1/2-x,1/2+y,-z
1/2-x,1/2-y,-z
1/2+x,1/2+y,-z
1/2-x,1/2+y,z
1/2+x,1/2-y,z
loop_
_atom_site_type_symbol
_atom_site_label
_atom_site_fract_x
_atom_site_fract_y
_atom_site_fract_z
Si Si1 0.298649 0.500000 0.630750
Si Si2 0.298578 0.598231 0.563088
Si Si3 0.299368 0.058785 0.939121
Si Si4 0.803106 0.000000 0.756689
Si Si5 0.803994 0.805476 0.242856
Si Si6 0.301371 0.305645 0.631647
Si Si7 0.696292 0.902001 0.175542
O O1 0.500000 0.500000 0.631411
O O2 0.246809 0.549869 0.598246
O O3 0.242640 0.500000 0.693786
O O4 0.245219 0.595180 0.500000
O O5 0.500000 0.598248 0.562935
O O6 0.243987 0.649423 0.592706
O O7 0.500000 0.060389 0.939439
O O8 0.240206 0.089782 0.886609
O O9 0.254808 0.000000 0.931598
O O10 0.244061 0.074776 0.000000
O O11 0.748245 0.950073 0.788477
O O12 0.000000 0.000000 0.755027
O O13 0.750000 0.750000 0.224370
O O14 0.741125 0.812759 0.305535
O O15 0.750093 0.850656 0.204099
O O16 0.000000 0.806119 0.245588
O O17 0.500000 0.307430 0.632624
O O18 0.250000 0.250000 0.613395
O O19 0.500000 0.902132 0.172961
#
# Coordination Sequence:
#
# PCOD9489835 Si02
#       7
#     8  16  16   8  16  16  16
#     4   9  17  29  44  64  93 128 162 197 242 294
#     4   9  16  27  45  68  92 120 157 200 243 290
#     4   8  14  27  48  73 102 135 168 203 245 293
#     4  11  21  32  48  73 106 139 168 205 254 302
#     4  10  20  35  53  74 102 136 170 207 252 303
#     4   9  18  32  49  70  96 124 157 197 245 296
#     4  11  20  32  52  79 106 132 169 212 251 299
#
# _framework density 18.232759000000001
#
# number of rings (size 3 to 8) (size 9 to 14) (size 15 to 20)
#    0.000    2.500    0.833    3.000    0.000    4.667 
#    0.000    0.000    0.000    3.000    0.000    0.000 
#    0.000    5.333    0.000    0.000    0.000    0.000 
#
# Total GULP energy -267796.106384 kJ/mol
# GULP energy per Si atom -5579.085550 kJ/mol
# Density = 1.819126 g / cm^3
# Si number density = 18.232759 Si / 1000 Ang^3
#
#
#
# Elastic Constant Matrix: (Units=GPa)
#
#
# Indices 1 2 3 4 5 6 
#
# 1 18.4193 13.8585 14.3238 0.0000 0.0000 0.0000
# 2 13.8585 160.8093 112.8053 0.0000 0.0000 0.0000
# 3 14.3238 112.8053 165.5586 0.0000 0.0000 0.0000
# 4 0.0000 0.0000 0.0000 7.0942 0.0000 0.0000
# 5 0.0000 0.0000 0.0000 0.0000 9.6894 0.0000
# 6 0.0000 0.0000 0.0000 0.0000 0.0000 27.5245
#
#
#
# Elastic Compliance Matrix: (Units=1/GPa)
#
#
# Indices 1 2 3 4 5 6 
#
# 1 0.058893 -0.002876 -0.003136 0.000000 0.000000 0.000000
# 2 -0.002876 0.012053 -0.007963 0.000000 0.000000 0.000000
# 3 -0.003136 -0.007963 0.011737 0.000000 0.000000 0.000000
# 4 0.000000 0.000000 0.000000 0.140961 0.000000 0.000000
# 5 0.000000 0.000000 0.000000 0.000000 0.103205 0.000000
# 6 0.000000 0.000000 0.000000 0.000000 0.000000 0.036331
#
#
# Mechanical properties :
#
#
# Convention : Reuss Voigt Hill
#
# Bulk Modulus (GPa) = 18.27046 69.64027 43.95536
# Shear Modulus (GPa) = 12.21375 22.44825 17.33100
#
# Velocity S-wave (km/s) = 2.59101 3.51266 3.08643
# Velocity P-wave (km/s) = 4.35816 7.39796 6.07138
#
# Compressibility (1/GPa) = 0.05473316
#
# Stress axis : x y z
#
# Youngs Moduli (GPa) = 16.97994 82.97012 85.19772
#
# Poissons Ratio (x) = 0.23858 0.26718
# Poissons Ratio (y) = 0.04883 0.67846
# Poissons Ratio (z) = 0.05325 0.66072
#
# Static dielectric constant tensor:
#      x y z
#    x 1.652100 0.000000 0.000000 
#    y 0.000000 1.582140 0.000000 
#    z 0.000000 0.000000 1.644410 
# 
# From -- ./inp_files/67875.got.cif
#   From: 2010.05.17/outbox.cif.g08.bks.cpg/sg65_34_cif.got.tgz:67875.got - 2010.06.03 17:01:31.
