data_PCOD9489575
_publ_section_title
;
Structure prediction by ZEFSAII (Michael W. Deem and Ramdas Pophale) SiO2 
 PCOD9489575
Probable space group: C M M M
;
_chemical_formula_sum "Si O2"
_cell_formula_units_Z 104
_cell_length_a 19.741570
_cell_length_b 32.139687
_cell_length_c 8.524748
_cell_angle_alpha 90.000000
_cell_angle_beta 90.000000
_cell_angle_gamma 90.000000
_cell_volume 5408.849292
_symmetry_space_group_name_H-M "C M M M"
_symmetry_group_IT_number 65
_symmetry_cell_setting 'orthorhombic'
loop_
_space_group_symop_operation_xyz
x,y,z
-x,-y,z
x,-y,-z
-x,y,-z
-x,-y,-z
x,y,-z
-x,y,z
x,-y,z
1/2+x,1/2+y,z
1/2-x,1/2-y,z
1/2+x,1/2-y,-z
1/2-x,1/2+y,-z
1/2-x,1/2-y,-z
1/2+x,1/2+y,-z
1/2-x,1/2+y,z
1/2+x,1/2-y,z
loop_
_atom_site_type_symbol
_atom_site_label
_atom_site_fract_x
_atom_site_fract_y
_atom_site_fract_z
Si Si1 0.710581 0.791314 0.812445
Si Si2 0.077036 0.421292 0.812818
Si Si3 0.082474 0.000000 0.179627
Si Si4 0.710620 0.371443 0.309534
Si Si5 0.576541 0.588958 0.311545
Si Si6 0.213150 0.454843 0.312019
Si Si7 0.577090 0.172145 0.686907
O O1 0.750000 0.750000 0.759084
O O2 0.753244 0.831585 0.760839
O O3 0.635589 0.797016 0.742499
O O4 0.705190 0.790299 0.000000
O O5 0.134772 0.448040 0.731027
O O6 0.087657 0.372907 0.766594
O O7 0.000000 0.432187 0.766296
O O8 0.082814 0.425556 0.000000
O O9 0.101426 0.957039 0.262788
O O10 0.000000 0.000000 0.182436
O O11 0.104769 0.000000 0.000000
O O12 0.715179 0.369135 0.500000
O O13 0.632207 0.377404 0.263309
O O14 0.747906 0.413805 0.255838
O O15 0.573864 0.589330 0.500000
O O16 0.500000 0.595453 0.251187
O O17 0.220650 0.455214 0.500000
O O18 0.236495 0.500000 0.251516
O O19 0.582551 0.166198 0.500000
O O20 0.500000 0.185628 0.723202
#
# Coordination Sequence:
#
# PCOD9489575 Si02
#       7
#    16  16   8  16  16  16  16
#     4  11  24  41  62  89 119 151 188 232 287 347
#     4  10  20  34  54  80 112 151 193 238 284 332
#     4   9  17  29  47  75 109 145 188 233 276 329
#     4  10  21  37  59  83 111 149 190 237 287 338
#     4   9  18  33  54  79 108 146 190 234 283 338
#     4  10  21  35  52  78 113 153 195 236 283 339
#     4  10  20  36  61  90 117 149 191 236 283 337
#
# _framework density 19.22775
#
# number of rings (size 3 to 8) (size 9 to 14) (size 15 to 20)
#    0.000    2.077    1.538    1.615    1.077    5.231 
#    0.000    2.308    0.000    2.769    0.000    0.000 
#    0.000    0.000    0.000    0.000    0.000    0.000 
#
# Total GULP energy -290302.022265 kJ/mol
# GULP energy per Si atom -5582.731197 kJ/mol
# Density = 1.918399 g / cm^3
# Si number density = 19.227750 Si / 1000 Ang^3
#
#
#
# Elastic Constant Matrix: (Units=GPa)
#
#
# Indices 1 2 3 4 5 6 
#
# 1 101.5241 54.0772 7.0700 0.0000 0.0000 0.0000
# 2 54.0772 105.1062 8.7016 0.0000 0.0000 0.0000
# 3 7.0700 8.7016 6.7738 0.0000 0.0000 0.0000
# 4 0.0000 0.0000 0.0000 28.8615 0.0000 0.0000
# 5 0.0000 0.0000 0.0000 0.0000 18.8396 0.0000
# 6 0.0000 0.0000 0.0000 0.0000 0.0000 28.0555
#
#
#
# Elastic Compliance Matrix: (Units=1/GPa)
#
#
# Indices 1 2 3 4 5 6 
#
# 1 0.013776 -0.006599 -0.005901 0.000000 0.000000 0.000000
# 2 -0.006599 0.013808 -0.010850 0.000000 0.000000 0.000000
# 3 -0.005901 -0.010850 0.167725 0.000000 0.000000 0.000000
# 4 0.000000 0.000000 0.000000 0.034648 0.000000 0.000000
# 5 0.000000 0.000000 0.000000 0.000000 0.053080 0.000000
# 6 0.000000 0.000000 0.000000 0.000000 0.000000 0.035644
#
#
# Mechanical properties :
#
#
# Convention : Reuss Voigt Hill
#
# Bulk Modulus (GPa) = 6.72906 39.23353 22.98129
# Shear Modulus (GPa) = 12.05061 24.72165 18.38613
#
# Velocity S-wave (km/s) = 2.50617 3.58959 3.09565
# Velocity P-wave (km/s) = 3.44700 6.13426 4.97549
#
# Compressibility (1/GPa) = 0.14860914
#
# Stress axis : x y z
#
# Youngs Moduli (GPa) = 72.59051 72.42336 5.96213
#
# Poissons Ratio (x) = 0.47793 0.03518
# Poissons Ratio (y) = 0.47904 0.06469
# Poissons Ratio (z) = 0.42836 0.78577
#
# Static dielectric constant tensor:
#      x y z
#    x 1.709740 0.000000 0.000000 
#    y 0.000000 1.647910 0.000000 
#    z 0.000000 0.000000 1.652940 
# 
# From -- ./inp_files/12418.got.cif
#   From: 2010.05.17/outbox.cif.g08.bks.cpg/sg65_7_cif.got.tgz:12418.got - 2010.06.03 17:01:31.
