data_PCOD9489734
_publ_section_title
;
Structure prediction by ZEFSAII (Michael W. Deem and Ramdas Pophale) SiO2 
 PCOD9489734
Probable space group: C M M M
;
_chemical_formula_sum "Si O2"
_cell_formula_units_Z 72
_cell_length_a 17.247550
_cell_length_b 20.698414
_cell_length_c 12.019630
_cell_angle_alpha 90.000000
_cell_angle_beta 90.000000
_cell_angle_gamma 90.000000
_cell_volume 4290.971014
_symmetry_space_group_name_H-M "C M M M"
_symmetry_group_IT_number 65
_symmetry_cell_setting 'orthorhombic'
loop_
_space_group_symop_operation_xyz
x,y,z
-x,-y,z
x,-y,-z
-x,y,-z
-x,-y,-z
x,y,-z
-x,y,z
x,-y,z
1/2+x,1/2+y,z
1/2-x,1/2-y,z
1/2+x,1/2-y,-z
1/2-x,1/2+y,-z
1/2-x,1/2-y,-z
1/2+x,1/2+y,-z
1/2-x,1/2+y,z
1/2+x,1/2-y,z
loop_
_atom_site_type_symbol
_atom_site_label
_atom_site_fract_x
_atom_site_fract_y
_atom_site_fract_z
Si Si1 0.910701 0.170835 0.500000
Si Si2 0.911227 0.258133 0.718444
Si Si3 0.265359 0.573937 0.500000
Si Si4 0.593859 0.000000 0.865212
Si Si5 0.804581 0.814091 0.125654
Si Si6 0.314075 0.889152 0.268722
O O1 0.902112 0.216757 0.606761
O O2 0.841008 0.119680 0.500000
O O3 0.000000 0.145037 0.500000
O O4 0.881574 0.211829 0.816401
O O5 0.861331 0.323008 0.713303
O O6 0.000000 0.276140 0.733784
O O7 0.291070 0.500000 0.500000
O O8 0.214461 0.585855 0.388666
O O9 0.633975 0.061138 0.803205
O O10 0.500000 0.000000 0.849930
O O11 0.607906 0.000000 0.000000
O O12 0.750000 0.750000 0.124225
O O13 0.761176 0.868095 0.197557
O O14 0.816034 0.835796 0.000000
#
# Coordination Sequence:
#
# PCOD9489734 Si02
#       6
#     8  16   8   8  16  16
#     4  10  21  38  59  86 115 145 185 236 299 352
#     4  10  20  34  56  84 115 148 185 234 292 344
#     4  12  23  38  61  87 110 150 191 238 288 344
#     4  11  24  41  59  81 117 163 200 230 273 333
#     4   9  18  32  53  80 108 142 188 236 280 329
#     4  11  21  37  57  84 114 151 195 240 280 338
#
# _framework density 16.779418
#
# number of rings (size 3 to 8) (size 9 to 14) (size 15 to 20)
#    0.000    1.667    3.333    2.000    0.000    2.444 
#    0.000    2.222    0.000    0.000    0.000    0.000 
#    0.000    7.111    0.000    0.000    0.000    0.000 
#
# Total GULP energy -200752.460389 kJ/mol
# GULP energy per Si atom -5576.457233 kJ/mol
# Density = 1.674123 g / cm^3
# Si number density = 16.779418 Si / 1000 Ang^3
#
#
#
# Elastic Constant Matrix: (Units=GPa)
#
#
# Indices 1 2 3 4 5 6 
#
# 1 80.1003 50.9698 42.7187 0.0000 0.0000 0.0000
# 2 50.9698 80.5533 37.7308 0.0000 0.0000 0.0000
# 3 42.7187 37.7308 135.8964 0.0000 0.0000 0.0000
# 4 0.0000 0.0000 0.0000 18.7356 0.0000 0.0000
# 5 0.0000 0.0000 0.0000 0.0000 8.8924 0.0000
# 6 0.0000 0.0000 0.0000 0.0000 0.0000 27.7491
#
#
#
# Elastic Compliance Matrix: (Units=1/GPa)
#
#
# Indices 1 2 3 4 5 6 
#
# 1 0.022299 -0.012445 -0.003554 0.000000 0.000000 0.000000
# 2 -0.012445 0.021215 -0.001978 0.000000 0.000000 0.000000
# 3 -0.003554 -0.001978 0.009025 0.000000 0.000000 0.000000
# 4 0.000000 0.000000 0.000000 0.053374 0.000000 0.000000
# 5 0.000000 0.000000 0.000000 0.000000 0.112456 0.000000
# 6 0.000000 0.000000 0.000000 0.000000 0.000000 0.036037
#
#
# Mechanical properties :
#
#
# Convention : Reuss Voigt Hill
#
# Bulk Modulus (GPa) = 60.29779 62.15426 61.22602
# Shear Modulus (GPa) = 16.89823 22.08414 19.49118
#
# Velocity S-wave (km/s) = 3.17690 3.63181 3.41194
# Velocity P-wave (km/s) = 7.03353 7.39656 7.21732
#
# Compressibility (1/GPa) = 0.01658436
#
# Stress axis : x y z
#
# Youngs Moduli (GPa) = 44.84554 47.13634 110.80181
#
# Poissons Ratio (x) = 0.58659 0.39383
# Poissons Ratio (y) = 0.55809 0.21920
# Poissons Ratio (z) = 0.15940 0.09325
#
# Static dielectric constant tensor:
#      x y z
#    x 1.552920 0.000000 0.000000 
#    y 0.000000 1.542400 0.000000 
#    z 0.000000 0.000000 1.576170 
# 
# From -- ./inp_files/26361.got.cif
#   From: 2010.05.17/outbox.cif.g08.bks.cpg/sg65_14_cif.got.tgz:26361.got - 2010.06.03 17:01:31.
