data_PCOD9489519
_publ_section_title
;
Structure prediction by ZEFSAII (Michael W. Deem and Ramdas Pophale) SiO2 
 PCOD9489519
Probable space group: C M M M
;
_chemical_formula_sum "Si O2"
_cell_formula_units_Z 96
_cell_length_a 18.333443
_cell_length_b 26.390267
_cell_length_c 11.739537
_cell_angle_alpha 90.000000
_cell_angle_beta 90.000000
_cell_angle_gamma 90.000000
_cell_volume 5679.875100
_symmetry_space_group_name_H-M "C M M M"
_symmetry_group_IT_number 65
_symmetry_cell_setting 'orthorhombic'
loop_
_space_group_symop_operation_xyz
x,y,z
-x,-y,z
x,-y,-z
-x,y,-z
-x,-y,-z
x,y,-z
-x,y,z
x,-y,z
1/2+x,1/2+y,z
1/2-x,1/2-y,z
1/2+x,1/2-y,-z
1/2-x,1/2+y,-z
1/2-x,1/2-y,-z
1/2+x,1/2+y,-z
1/2-x,1/2+y,z
1/2+x,1/2-y,z
loop_
_atom_site_type_symbol
_atom_site_label
_atom_site_fract_x
_atom_site_fract_y
_atom_site_fract_z
Si Si1 0.582925 0.203194 0.741696
Si Si2 0.083506 0.082619 0.868537
Si Si3 0.296781 0.940946 0.500000
Si Si4 0.126269 0.199436 0.132588
Si Si5 0.414502 0.150800 0.500000
Si Si6 0.725981 0.443603 0.743794
Si Si7 0.781979 0.654727 0.134386
O O1 0.500000 0.188319 0.769654
O O2 0.592636 0.261817 0.777433
O O3 0.596317 0.185797 0.611718
O O4 0.644059 0.175752 0.815332
O O5 0.090557 0.143771 0.862651
O O6 0.141250 0.060939 0.779258
O O7 0.000000 0.067625 0.849079
O O8 0.103413 0.068798 0.000000
O O9 0.360005 0.897765 0.500000
O O10 0.246795 0.935161 0.612213
O O11 0.324246 0.000000 0.500000
O O12 0.211801 0.190291 0.158979
O O13 0.119281 0.217374 0.000000
O O14 0.500000 0.134326 0.500000
O O15 0.751107 0.500000 0.774324
O O16 0.765060 0.399884 0.814115
O O17 0.785979 0.651120 0.000000
#
# Coordination Sequence:
#
# PCOD9489519 Si02
#       7
#    16  16   8  16   8  16  16
#     4  11  21  34  53  76 107 140 175 221 267 313
#     4   9  18  33  54  81 113 147 182 219 261 316
#     4  10  20  39  62  77  96 137 188 228 269 326
#     4   9  18  33  53  78 108 144 183 215 250 308
#     4  10  22  39  56  79 106 135 179 231 275 319
#     4  10  20  35  56  79 104 137 179 227 274 318
#     4  10  20  34  54  79 108 140 178 219 262 323
#
# _framework density 16.901779999999999
#
# number of rings (size 3 to 8) (size 9 to 14) (size 15 to 20)
#    0.000    2.167    1.667    3.000    0.000    5.167 
#    0.000    6.250    0.000    2.000    0.000    1.167 
#    0.000    0.000    0.000    0.000    0.000    0.000 
#
# Total GULP energy -267586.299533 kJ/mol
# GULP energy per Si atom -5574.714574 kJ/mol
# Density = 1.686331 g / cm^3
# Si number density = 16.901780 Si / 1000 Ang^3
#
#
#
# Elastic Constant Matrix: (Units=GPa)
#
#
# Indices 1 2 3 4 5 6 
#
# 1 82.6754 23.9662 47.6370 0.0000 0.0000 0.0000
# 2 23.9662 58.7254 28.3430 0.0000 0.0000 0.0000
# 3 47.6370 28.3430 66.1124 0.0000 0.0000 0.0000
# 4 0.0000 0.0000 0.0000 27.7207 0.0000 0.0000
# 5 0.0000 0.0000 0.0000 0.0000 26.2382 0.0000
# 6 0.0000 0.0000 0.0000 0.0000 0.0000 10.1897
#
#
#
# Elastic Compliance Matrix: (Units=1/GPa)
#
#
# Indices 1 2 3 4 5 6 
#
# 1 0.020798 -0.001583 -0.014308 0.000000 0.000000 0.000000
# 2 -0.001583 0.021591 -0.008116 0.000000 0.000000 0.000000
# 3 -0.014308 -0.008116 0.028914 0.000000 0.000000 0.000000
# 4 0.000000 0.000000 0.000000 0.036074 0.000000 0.000000
# 5 0.000000 0.000000 0.000000 0.000000 0.038112 0.000000
# 6 0.000000 0.000000 0.000000 0.000000 0.000000 0.098138
#
#
# Mechanical properties :
#
#
# Convention : Reuss Voigt Hill
#
# Bulk Modulus (GPa) = 42.93405 45.26730 44.10068
# Shear Modulus (GPa) = 16.69980 20.00087 18.35033
#
# Velocity S-wave (km/s) = 3.14674 3.44373 3.29858
# Velocity P-wave (km/s) = 6.21770 6.53093 6.37624
#
# Compressibility (1/GPa) = 0.02329153
#
# Stress axis : x y z
#
# Youngs Moduli (GPa) = 48.08115 46.31477 34.58475
#
# Poissons Ratio (x) = 0.07329 0.49482
# Poissons Ratio (y) = 0.07609 0.28069
# Poissons Ratio (z) = 0.68793 0.37590
#
# Static dielectric constant tensor:
#      x y z
#    x 1.580590 0.000000 0.000000 
#    y 0.000000 1.590940 0.000000 
#    z 0.000000 0.000000 1.551330 
# 
# From -- ./inp_files/27171.got.cif
#   From: 2010.05.17/outbox.cif.g08.bks.cpg/sg65_14_cif.got.tgz:27171.got - 2010.06.03 17:01:31.
