data_PCOD9489181
_publ_section_title
;
Structure prediction by ZEFSAII (Michael W. Deem and Ramdas Pophale) SiO2 
 PCOD9489181
Probable space group: C M M M
;
_chemical_formula_sum "Si O2"
_cell_formula_units_Z 96
_cell_length_a 26.255456
_cell_length_b 7.823612
_cell_length_c 19.383256
_cell_angle_alpha 90.000000
_cell_angle_beta 90.000000
_cell_angle_gamma 90.000000
_cell_volume 3981.563085
_symmetry_space_group_name_H-M "C M M M"
_symmetry_group_IT_number 65
_symmetry_cell_setting 'orthorhombic'
loop_
_space_group_symop_operation_xyz
x,y,z
-x,-y,z
x,-y,-z
-x,y,-z
-x,-y,-z
x,y,-z
-x,y,z
x,-y,z
1/2+x,1/2+y,z
1/2-x,1/2-y,z
1/2+x,1/2-y,-z
1/2-x,1/2+y,-z
1/2-x,1/2-y,-z
1/2+x,1/2+y,-z
1/2-x,1/2+y,z
1/2+x,1/2-y,z
loop_
_atom_site_type_symbol
_atom_site_label
_atom_site_fract_x
_atom_site_fract_y
_atom_site_fract_z
Si Si1 0.444721 0.706523 0.224769
Si Si2 0.194728 0.199067 0.122576
Si Si3 0.169110 0.302590 0.577164
Si Si4 0.444337 0.305464 0.417844
Si Si5 0.413126 0.709726 0.074633
Si Si6 0.165920 0.297586 0.275669
O O1 0.500000 0.761448 0.250449
O O2 0.442996 0.500000 0.225159
O O3 0.440151 0.762351 0.145008
O O4 0.394734 0.766156 0.264990
O O5 0.250000 0.250000 0.097492
O O6 0.145050 0.272749 0.085409
O O7 0.190112 0.230337 0.204903
O O8 0.190207 0.000000 0.111498
O O9 0.179752 0.227704 0.500000
O O10 0.185740 0.500000 0.574273
O O11 0.107806 0.297715 0.588473
O O12 0.186173 0.224933 0.650886
O O13 0.447952 0.323208 0.500000
O O14 0.500000 0.238308 0.396255
O O15 0.438188 0.500000 0.389424
O O16 0.414601 0.500000 0.074547
O O17 0.432684 0.764824 0.000000
O O18 0.174380 0.500000 0.277408
#
# Coordination Sequence:
#
# PCOD9489181 Si02
#       6
#    16  16  16  16  16  16
#     4   9  18  32  50  73 103 141 181 217 252 292
#     4  10  20  35  56  80 105 133 165 202 247 301
#     4   9  18  31  46  65  89 119 157 203 256 307
#     4   8  14  24  37  55  81 113 149 189 234 285
#     4   8  15  29  50  78 109 137 168 207 248 292
#     4  10  20  34  52  73  99 132 170 213 258 305
#
# _framework density 24.111132000000001
#
# number of rings (size 3 to 8) (size 9 to 14) (size 15 to 20)
#    0.000    3.000    0.000    2.500    0.000    3.333 
#    0.000    6.667    0.000   12.500    0.000    4.667 
#    0.000    0.000    0.000    0.000    0.000    0.000 
#
# Total GULP energy -267578.324289 kJ/mol
# GULP energy per Si atom -5574.548423 kJ/mol
# Density = 2.405625 g / cm^3
# Si number density = 24.111132 Si / 1000 Ang^3
#
#
#
# Elastic Constant Matrix: (Units=GPa)
#
#
# Indices 1 2 3 4 5 6 
#
# 1 65.3343 -5.5475 -4.9240 0.0000 0.0000 0.0000
# 2 -5.5475 25.4382 -17.5711 0.0000 0.0000 0.0000
# 3 -4.9240 -17.5711 163.6249 0.0000 0.0000 0.0000
# 4 0.0000 0.0000 0.0000 10.7231 0.0000 0.0000
# 5 0.0000 0.0000 0.0000 0.0000 -23.2524 0.0000
# 6 0.0000 0.0000 0.0000 0.0000 0.0000 17.9390
#
#
#
# Elastic Compliance Matrix: (Units=1/GPa)
#
#
# Indices 1 2 3 4 5 6 
#
# 1 0.015719 0.004055 0.000909 0.000000 0.000000 0.000000
# 2 0.004055 0.043507 0.004794 0.000000 0.000000 0.000000
# 3 0.000909 0.004794 0.006654 0.000000 0.000000 0.000000
# 4 0.000000 0.000000 0.000000 0.093257 0.000000 0.000000
# 5 0.000000 0.000000 0.000000 0.000000 -0.043006 0.000000
# 6 0.000000 0.000000 0.000000 0.000000 0.000000 0.055744
#
#
# Mechanical properties :
#
#
# Convention : Reuss Voigt Hill
#
# Bulk Modulus (GPa) = 11.71027 22.03472 16.87249
# Shear Modulus (GPa) = 27.65136 19.91128 23.78132
#
# Velocity S-wave (km/s) = 3.39016 2.87681 3.14398
# Velocity P-wave (km/s) = 4.49351 4.49371 4.49361
#
# Compressibility (1/GPa) = 0.08539513
#
# Stress axis : x y z
#
# Youngs Moduli (GPa) = 63.61847 22.98495 150.29244
#
# Poissons Ratio (x) = -0.09321 -0.13654
# Poissons Ratio (y) = -0.25800 -0.72051
# Poissons Ratio (z) = -0.05780 -0.11019
#
# Static dielectric constant tensor:
#      x y z
#    x 1.939180 0.000000 0.000000 
#    y 0.000000 1.907520 0.000000 
#    z 0.000000 0.000000 1.989810 
# 
# From -- ./inp_files/65759.got.cif
#   From: 2010.05.17/outbox.cif.g08.bks.cpg/sg65_33_cif.got.tgz:65759.got - 2010.06.03 17:01:31.
