data_PCOD9489932
_publ_section_title
;
Structure prediction by ZEFSAII (Michael W. Deem and Ramdas Pophale) SiO2 
 PCOD9489932
Probable space group: C M M M
;
_chemical_formula_sum "Si O2"
_cell_formula_units_Z 96
_cell_length_a 19.798093
_cell_length_b 8.079201
_cell_length_c 31.890411
_cell_angle_alpha 90.000000
_cell_angle_beta 90.000000
_cell_angle_gamma 90.000000
_cell_volume 5100.959664
_symmetry_space_group_name_H-M "C M M M"
_symmetry_group_IT_number 65
_symmetry_cell_setting 'orthorhombic'
loop_
_space_group_symop_operation_xyz
x,y,z
-x,-y,z
x,-y,-z
-x,y,-z
-x,-y,-z
x,y,-z
-x,y,z
x,-y,z
1/2+x,1/2+y,z
1/2-x,1/2-y,z
1/2+x,1/2-y,-z
1/2-x,1/2+y,-z
1/2-x,1/2-y,-z
1/2+x,1/2+y,-z
1/2-x,1/2+y,z
1/2+x,1/2-y,z
loop_
_atom_site_type_symbol
_atom_site_label
_atom_site_fract_x
_atom_site_fract_y
_atom_site_fract_z
Si Si1 0.579549 0.699136 0.954734
Si Si2 0.325834 0.699892 0.452175
Si Si3 0.076739 0.199045 0.378880
Si Si4 0.826315 0.300091 0.790893
Si Si5 0.077247 0.698739 0.135428
Si Si6 0.673488 0.198029 0.695691
O O1 0.500000 0.747146 0.954663
O O2 0.582375 0.500000 0.954245
O O3 0.607107 0.761200 0.910483
O O4 0.607801 0.755660 0.000000
O O5 0.337144 0.758323 0.500000
O O6 0.328396 0.500000 0.452649
O O7 0.250000 0.750000 0.439566
O O8 0.380840 0.761195 0.419003
O O9 0.119461 0.238714 0.337503
O O10 0.000000 0.262466 0.377289
O O11 0.073463 0.000000 0.382521
O O12 0.829854 0.500000 0.790327
O O13 0.750000 0.250000 0.801337
O O14 0.877867 0.238392 0.826131
O O15 0.840264 0.241900 0.743305
O O16 0.074172 0.500000 0.138639
O O17 0.000000 0.762652 0.137600
O O18 0.750000 0.250000 0.684514
O O19 0.671118 0.000000 0.695766
#
# Coordination Sequence:
#
# PCOD9489932 Si02
#       6
#    16  16  16  16  16  16
#     4   8  14  25  41  63  92 123 154 189 230 277
#     4   9  18  33  53  75  99 131 170 208 246 290
#     4  10  21  35  51  75 106 135 165 205 250 294
#     4   9  19  34  51  71  95 125 159 196 238 285
#     4   9  17  29  46  69  95 121 152 192 236 280
#     4  10  20  35  55  75  97 129 168 206 246 295
#
# _framework density 18.819987999999999
#
# number of rings (size 3 to 8) (size 9 to 14) (size 15 to 20)
#    0.000    2.833    0.000    1.500    0.000    5.000 
#    0.000    5.000    0.000    2.500    0.000    3.500 
#    0.000    0.000    0.000    0.000    0.000    0.000 
#
# Total GULP energy -267537.878671 kJ/mol
# GULP energy per Si atom -5573.705806 kJ/mol
# Density = 1.877715 g / cm^3
# Si number density = 18.819988 Si / 1000 Ang^3
#
#
#
# Elastic Constant Matrix: (Units=GPa)
#
#
# Indices 1 2 3 4 5 6 
#
# 1 125.0658 7.7885 116.5025 0.0000 0.0000 0.0000
# 2 7.7885 8.8427 9.3237 0.0000 0.0000 0.0000
# 3 116.5025 9.3237 160.7750 0.0000 0.0000 0.0000
# 4 0.0000 0.0000 0.0000 107.9434 0.0000 0.0000
# 5 0.0000 0.0000 0.0000 0.0000 32.5926 0.0000
# 6 0.0000 0.0000 0.0000 0.0000 0.0000 19.3009
#
#
#
# Elastic Compliance Matrix: (Units=1/GPa)
#
#
# Indices 1 2 3 4 5 6 
#
# 1 0.024682 -0.003069 -0.017707 0.000000 0.000000 0.000000
# 2 -0.003069 0.120835 -0.004784 0.000000 0.000000 0.000000
# 3 -0.017707 -0.004784 0.019328 0.000000 0.000000 0.000000
# 4 0.000000 0.000000 0.000000 0.009264 0.000000 0.000000
# 5 0.000000 0.000000 0.000000 0.000000 0.030682 0.000000
# 6 0.000000 0.000000 0.000000 0.000000 0.000000 0.051811
#
#
# Mechanical properties :
#
#
# Convention : Reuss Voigt Hill
#
# Bulk Modulus (GPa) = 8.79308 62.43477 35.61393
# Shear Modulus (GPa) = 14.46635 42.70530 28.58582
#
# Velocity S-wave (km/s) = 2.77550 4.76872 3.90154
# Velocity P-wave (km/s) = 3.86698 7.97294 6.26583
#
# Compressibility (1/GPa) = 0.11372573
#
# Stress axis : x y z
#
# Youngs Moduli (GPa) = 40.51616 8.27574 51.73760
#
# Poissons Ratio (x) = 0.02540 0.91612
# Poissons Ratio (y) = 0.12435 0.24749
# Poissons Ratio (z) = 0.71742 0.03959
#
# Static dielectric constant tensor:
#      x y z
#    x 1.634950 0.000000 0.000000 
#    y 0.000000 1.669800 0.000000 
#    z 0.000000 0.000000 1.684930 
# 
# From -- ./inp_files/75369.got.cif
#   From: 2010.05.17/outbox.cif.g08.bks.cpg/sg65_38_cif.got.tgz:75369.got - 2010.06.03 17:01:31.
