data_PCOD9489960
_publ_section_title
;
Structure prediction by ZEFSAII (Michael W. Deem and Ramdas Pophale) SiO2 
 PCOD9489960
Probable space group: C M M M
;
_chemical_formula_sum "Si O2"
_cell_formula_units_Z 88
_cell_length_a 15.277654
_cell_length_b 9.150176
_cell_length_c 29.379892
_cell_angle_alpha 90.000000
_cell_angle_beta 90.000000
_cell_angle_gamma 90.000000
_cell_volume 4107.109793
_symmetry_space_group_name_H-M "C M M M"
_symmetry_group_IT_number 65
_symmetry_cell_setting 'orthorhombic'
loop_
_space_group_symop_operation_xyz
x,y,z
-x,-y,z
x,-y,-z
-x,y,-z
-x,-y,-z
x,y,-z
-x,y,z
x,-y,z
1/2+x,1/2+y,z
1/2-x,1/2-y,z
1/2+x,1/2-y,-z
1/2-x,1/2+y,-z
1/2-x,1/2-y,-z
1/2+x,1/2+y,-z
1/2-x,1/2+y,z
1/2+x,1/2-y,z
loop_
_atom_site_type_symbol
_atom_site_label
_atom_site_fract_x
_atom_site_fract_y
_atom_site_fract_z
Si Si1 0.392538 0.667339 0.641086
Si Si2 0.603914 0.163554 0.729954
Si Si3 0.893233 0.330145 0.449483
Si Si4 0.103156 0.664162 0.910530
Si Si5 0.607712 0.668400 0.000000
Si Si6 0.156076 0.825355 0.179676
O O1 0.500000 0.669144 0.641243
O O2 0.365113 0.500000 0.646200
O O3 0.361820 0.763673 0.683743
O O4 0.363767 0.734128 0.592956
O O5 0.500000 0.149077 0.723588
O O6 0.615941 0.266689 0.773356
O O7 0.640305 0.000000 0.738043
O O8 0.865320 0.280971 0.500000
O O9 0.868441 0.500000 0.443459
O O10 0.000000 0.326730 0.449315
O O11 0.140467 0.500000 0.904463
O O12 0.111415 0.760136 0.865267
O O13 0.000000 0.647880 0.918889
O O14 0.138253 0.747558 0.954771
O O15 0.635712 0.500000 0.000000
O O16 0.500000 0.667102 0.000000
O O17 0.250000 0.750000 0.178599
O O18 0.157949 0.000000 0.178600
#
# Coordination Sequence:
#
# PCOD9489960 Si02
#       6
#    16  16  16  16   8  16
#     4   9  16  25  39  62  91 123 162 207 253 302
#     4  10  20  35  55  77 102 134 173 216 262 312
#     4   8  13  21  33  51  80 120 161 199 245 302
#     4  10  20  36  59  86 115 146 180 217 259 307
#     4   9  17  31  54  85 116 145 180 219 257 299
#     4  12  25  40  57  78 107 140 176 218 265 315
#
# _framework density 21.426259999999999
#
# number of rings (size 3 to 8) (size 9 to 14) (size 15 to 20)
#    0.000    2.273    0.000    4.636    0.000    8.000 
#    0.000    2.273    0.000    0.000    0.000    0.000 
#    0.000    0.727    0.000    2.727    0.000    6.364 
#
# Total GULP energy -245721.673474 kJ/mol
# GULP energy per Si atom -5584.583488 kJ/mol
# Density = 2.137749 g / cm^3
# Si number density = 21.426260 Si / 1000 Ang^3
#
#
#
# Elastic Constant Matrix: (Units=GPa)
#
#
# Indices 1 2 3 4 5 6 
#
# 1 23.1614 9.3107 0.7616 0.0000 0.0000 0.0000
# 2 9.3107 218.0440 117.5307 0.0000 0.0000 0.0000
# 3 0.7616 117.5307 193.8792 0.0000 0.0000 0.0000
# 4 0.0000 0.0000 0.0000 180.4648 0.0000 0.0000
# 5 0.0000 0.0000 0.0000 0.0000 -15.0687 0.0000
# 6 0.0000 0.0000 0.0000 0.0000 0.0000 13.1432
#
#
#
# Elastic Compliance Matrix: (Units=1/GPa)
#
#
# Indices 1 2 3 4 5 6 
#
# 1 0.044199 -0.002664 0.001442 0.000000 0.000000 0.000000
# 2 -0.002664 0.006973 -0.004216 0.000000 0.000000 0.000000
# 3 0.001442 -0.004216 0.007708 0.000000 0.000000 0.000000
# 4 0.000000 0.000000 0.000000 0.005541 0.000000 0.000000
# 5 0.000000 0.000000 0.000000 0.000000 -0.066363 0.000000
# 6 0.000000 0.000000 0.000000 0.000000 0.000000 0.076085
#
#
# Mechanical properties :
#
#
# Convention : Reuss Voigt Hill
#
# Bulk Modulus (GPa) = 20.83274 76.69897 48.76585
# Shear Modulus (GPa) = 49.49384 56.20661 52.85022
#
# Velocity S-wave (km/s) = 4.81142 5.12733 4.97189
# Velocity P-wave (km/s) = 6.37263 8.42182 7.46785
#
# Compressibility (1/GPa) = 0.04800136
#
# Stress axis : x y z
#
# Youngs Moduli (GPa) = 22.62496 143.41487 129.73129
#
# Poissons Ratio (x) = 0.38211 -0.18701
# Poissons Ratio (y) = 0.06028 0.54701
# Poissons Ratio (z) = -0.03261 0.60470
#
# Static dielectric constant tensor:
#      x y z
#    x 1.902990 0.000000 0.000000 
#    y 0.000000 1.750100 0.000000 
#    z 0.000000 0.000000 1.830310 
# 
# From -- ./inp_files/77798.got.cif
#   From: 2010.05.17/outbox.cif.g08.bks.cpg/sg65_39_cif.got.tgz:77798.got - 2010.06.03 17:01:31.
