data_PCOD9489526
_publ_section_title
;
Structure prediction by ZEFSAII (Michael W. Deem and Ramdas Pophale) SiO2 
 PCOD9489526
Probable space group: C M M M
;
_chemical_formula_sum "Si O2"
_cell_formula_units_Z 80
_cell_length_a 15.589871
_cell_length_b 24.448984
_cell_length_c 12.847667
_cell_angle_alpha 90.000000
_cell_angle_beta 90.000000
_cell_angle_gamma 90.000000
_cell_volume 4896.971872
_symmetry_space_group_name_H-M "C M M M"
_symmetry_group_IT_number 65
_symmetry_cell_setting 'orthorhombic'
loop_
_space_group_symop_operation_xyz
x,y,z
-x,-y,z
x,-y,-z
-x,y,-z
-x,-y,-z
x,y,-z
-x,y,z
x,-y,z
1/2+x,1/2+y,z
1/2-x,1/2-y,z
1/2+x,1/2-y,-z
1/2-x,1/2+y,-z
1/2-x,1/2-y,-z
1/2+x,1/2+y,-z
1/2-x,1/2+y,z
1/2+x,1/2-y,z
loop_
_atom_site_type_symbol
_atom_site_label
_atom_site_fract_x
_atom_site_fract_y
_atom_site_fract_z
Si Si1 0.000000 0.741995 0.251822
Si Si2 0.103179 0.000000 0.121616
Si Si3 0.839295 0.782073 0.877505
Si Si4 0.500000 0.128947 0.623843
Si Si5 0.837936 0.105487 0.751265
Si Si6 0.500000 0.354375 0.623805
Si Si7 0.175882 0.435223 0.376166
O O1 0.916048 0.750547 0.180640
O O2 0.000000 0.684363 0.310139
O O3 0.000000 0.791945 0.334562
O O4 0.138664 0.053498 0.178565
O O5 0.000000 0.000000 0.129402
O O6 0.126270 0.000000 0.000000
O O7 0.750000 0.750000 0.866270
O O8 0.830949 0.841068 0.823399
O O9 0.858699 0.787944 0.000000
O O10 0.500000 0.141699 0.500000
O O11 0.584945 0.093422 0.645617
O O12 0.751409 0.092954 0.688524
O O13 0.915999 0.116926 0.671782
O O14 0.500000 0.356456 0.500000
O O15 0.192587 0.429577 0.500000
O O16 0.172420 0.500000 0.352873
#
# Coordination Sequence:
#
# PCOD9489526 Si02
#       7
#     8   8  16   8  16   8  16
#     4  10  20  35  55  77 105 139 175 218 268 319
#     4  11  22  36  54  79 106 139 177 216 261 315
#     4  10  21  36  55  79 104 134 176 222 267 316
#     4  10  20  35  55  80 106 142 182 225 268 313
#     4  11  20  36  54  79 108 142 175 214 264 318
#     4  10  21  34  51  77 110 140 171 209 259 319
#     4  10  20  34  54  79 110 142 182 222 263 315
#
# _framework density 16.336627
#
# number of rings (size 3 to 8) (size 9 to 14) (size 15 to 20)
#    0.000    1.700    2.000    3.300    0.000    1.200 
#    0.000    0.500    0.000    9.600    0.000    0.700 
#    0.000    0.000    0.000    0.000    0.000    0.000 
#
# Total GULP energy -223366.141625 kJ/mol
# GULP energy per Si atom -5584.153541 kJ/mol
# Density = 1.629944 g / cm^3
# Si number density = 16.336627 Si / 1000 Ang^3
#
#
#
# Elastic Constant Matrix: (Units=GPa)
#
#
# Indices 1 2 3 4 5 6 
#
# 1 143.0593 66.9146 84.2811 0.0000 0.0000 0.0000
# 2 66.9146 108.0578 70.8041 0.0000 0.0000 0.0000
# 3 84.2811 70.8041 131.3858 0.0000 0.0000 0.0000
# 4 0.0000 0.0000 0.0000 25.1783 0.0000 0.0000
# 5 0.0000 0.0000 0.0000 0.0000 30.4912 0.0000
# 6 0.0000 0.0000 0.0000 0.0000 0.0000 24.5367
#
#
#
# Elastic Compliance Matrix: (Units=1/GPa)
#
#
# Indices 1 2 3 4 5 6 
#
# 1 0.012138 -0.003733 -0.005775 0.000000 0.000000 0.000000
# 2 -0.003733 0.015454 -0.005934 0.000000 0.000000 0.000000
# 3 -0.005775 -0.005934 0.014513 0.000000 0.000000 0.000000
# 4 0.000000 0.000000 0.000000 0.039717 0.000000 0.000000
# 5 0.000000 0.000000 0.000000 0.000000 0.032796 0.000000
# 6 0.000000 0.000000 0.000000 0.000000 0.000000 0.040755
#
#
# Mechanical properties :
#
#
# Convention : Reuss Voigt Hill
#
# Bulk Modulus (GPa) = 89.10342 91.83362 90.46852
# Shear Modulus (GPa) = 26.31625 26.74145 26.52885
#
# Velocity S-wave (km/s) = 4.01792 4.05025 4.03412
# Velocity P-wave (km/s) = 8.72843 8.84353 8.78617
#
# Compressibility (1/GPa) = 0.01122291
#
# Stress axis : x y z
#
# Youngs Moduli (GPa) = 82.38479 64.70939 68.90245
#
# Poissons Ratio (x) = 0.24153 0.39790
# Poissons Ratio (y) = 0.30751 0.40884
# Poissons Ratio (z) = 0.47576 0.38396
#
# Static dielectric constant tensor:
#      x y z
#    x 1.524830 0.000000 0.000000 
#    y 0.000000 1.519780 0.000000 
#    z 0.000000 0.000000 1.520050 
# 
# From -- ./inp_files/25061.got.cif
#   From: 2010.05.17/outbox.cif.g08.bks.cpg/sg65_13_cif.got.tgz:25061.got - 2010.06.03 17:01:31.
