data_PCOD9489833
_publ_section_title
;
Structure prediction by ZEFSAII (Michael W. Deem and Ramdas Pophale) SiO2 
 PCOD9489833
Probable space group: C M M M
;
_chemical_formula_sum "Si O2"
_cell_formula_units_Z 104
_cell_length_a 8.505223
_cell_length_b 27.183024
_cell_length_c 23.235399
_cell_angle_alpha 90.000000
_cell_angle_beta 90.000000
_cell_angle_gamma 90.000000
_cell_volume 5371.970364
_symmetry_space_group_name_H-M "C M M M"
_symmetry_group_IT_number 65
_symmetry_cell_setting 'orthorhombic'
loop_
_space_group_symop_operation_xyz
x,y,z
-x,-y,z
x,-y,-z
-x,y,-z
-x,-y,-z
x,y,-z
-x,y,z
x,-y,z
1/2+x,1/2+y,z
1/2-x,1/2-y,z
1/2+x,1/2-y,-z
1/2-x,1/2+y,-z
1/2-x,1/2-y,-z
1/2+x,1/2+y,-z
1/2-x,1/2+y,z
1/2+x,1/2-y,z
loop_
_atom_site_type_symbol
_atom_site_label
_atom_site_fract_x
_atom_site_fract_y
_atom_site_fract_z
Si Si1 0.690562 0.598869 0.868485
Si Si2 0.308185 0.500000 0.065970
Si Si3 0.313177 0.300777 0.321567
Si Si4 0.811545 0.695938 0.932793
Si Si5 0.189741 0.902323 0.263562
Si Si6 0.310765 0.053512 0.377995
Si Si7 0.190090 0.345293 0.435388
O O1 0.500000 0.600884 0.869728
O O2 0.742200 0.550549 0.903614
O O3 0.750848 0.649882 0.895630
O O4 0.739129 0.591267 0.802137
O O5 0.500000 0.500000 0.067518
O O6 0.257809 0.500000 0.000000
O O7 0.500000 0.299679 0.323413
O O8 0.250000 0.250000 0.297470
O O9 0.263752 0.347677 0.284245
O O10 0.249692 0.309302 0.385939
O O11 0.750000 0.750000 0.914415
O O12 0.000000 0.696681 0.930683
O O13 0.762452 0.689102 0.000000
O O14 0.259781 0.937738 0.312097
O O15 0.000000 0.906485 0.266144
O O16 0.500000 0.053962 0.380424
O O17 0.256344 0.100042 0.415554
O O18 0.255047 0.000000 0.398009
O O19 0.243381 0.334061 0.500000
O O20 0.000000 0.344658 0.434851
#
# Coordination Sequence:
#
# PCOD9489833 Si02
#       7
#    16   8  16  16  16  16  16
#     4  10  20  35  56  82 110 144 186 228 270 321
#     4   9  18  32  53  81 111 145 182 221 266 318
#     4  10  20  35  53  74 101 135 172 213 263 315
#     4  10  21  37  57  81 109 142 179 222 273 326
#     4   9  20  35  52  76 104 136 175 217 260 308
#     4   9  18  32  51  75 103 136 172 213 260 308
#     4   9  18  33  52  75 103 134 171 214 259 310
#
# _framework density 19.359749999999998
#
# number of rings (size 3 to 8) (size 9 to 14) (size 15 to 20)
#    0.000    2.538    0.000    1.385    1.077    4.615 
#    0.000    3.462    0.000    1.385    0.000    4.308 
#    0.000    0.000    0.000    0.000    0.000    0.000 
#
# Total GULP energy -290124.170964 kJ/mol
# GULP energy per Si atom -5579.310980 kJ/mol
# Density = 1.931569 g / cm^3
# Si number density = 19.359750 Si / 1000 Ang^3
#
#
#
# Elastic Constant Matrix: (Units=GPa)
#
#
# Indices 1 2 3 4 5 6 
#
# 1 7.5086 9.4365 7.6536 0.0000 0.0000 0.0000
# 2 9.4365 78.6670 3.7878 0.0000 0.0000 0.0000
# 3 7.6536 3.7878 78.5699 0.0000 0.0000 0.0000
# 4 0.0000 0.0000 0.0000 1.8378 0.0000 0.0000
# 5 0.0000 0.0000 0.0000 0.0000 20.7125 0.0000
# 6 0.0000 0.0000 0.0000 0.0000 0.0000 20.1020
#
#
#
# Elastic Compliance Matrix: (Units=1/GPa)
#
#
# Indices 1 2 3 4 5 6 
#
# 1 0.174964 -0.020214 -0.016069 0.000000 0.000000 0.000000
# 2 -0.020214 0.015077 0.001242 0.000000 0.000000 0.000000
# 3 -0.016069 0.001242 0.014233 0.000000 0.000000 0.000000
# 4 0.000000 0.000000 0.000000 0.544130 0.000000 0.000000
# 5 0.000000 0.000000 0.000000 0.000000 0.048280 0.000000
# 6 0.000000 0.000000 0.000000 0.000000 0.000000 0.049746
#
#
# Mechanical properties :
#
#
# Convention : Reuss Voigt Hill
#
# Bulk Modulus (GPa) = 7.45199 22.94459 15.19829
# Shear Modulus (GPa) = 5.20160 18.12162 11.66161
#
# Velocity S-wave (km/s) = 1.64093 3.06281 2.45697
# Velocity P-wave (km/s) = 2.72906 4.93813 3.98954
#
# Compressibility (1/GPa) = 0.13419238
#
# Stress axis : x y z
#
# Youngs Moduli (GPa) = 5.71545 66.32724 70.25945
#
# Poissons Ratio (x) = 1.34074 1.12901
# Poissons Ratio (y) = 0.11553 -0.08728
# Poissons Ratio (z) = 0.09184 -0.08239
#
# Static dielectric constant tensor:
#      x y z
#    x 1.661730 0.000000 0.000000 
#    y 0.000000 1.672150 0.000000 
#    z 0.000000 0.000000 1.661360 
# 
# From -- ./inp_files/60407.got.cif
#   From: 2010.05.17/outbox.cif.g08.bks.cpg/sg65_31_cif.got.tgz:60407.got - 2010.06.03 17:01:31.
