data_PCOD9489582
_publ_section_title
;
Structure prediction by ZEFSAII (Michael W. Deem and Ramdas Pophale) SiO2 
 PCOD9489582
Probable space group: C M M M
;
_chemical_formula_sum "Si O2"
_cell_formula_units_Z 56
_cell_length_a 8.963951
_cell_length_b 34.463358
_cell_length_c 10.397242
_cell_angle_alpha 90.000000
_cell_angle_beta 90.000000
_cell_angle_gamma 90.000000
_cell_volume 3211.997642
_symmetry_space_group_name_H-M "C M M M"
_symmetry_group_IT_number 65
_symmetry_cell_setting 'orthorhombic'
loop_
_space_group_symop_operation_xyz
x,y,z
-x,-y,z
x,-y,-z
-x,y,-z
-x,-y,-z
x,y,-z
-x,y,z
x,-y,z
1/2+x,1/2+y,z
1/2-x,1/2-y,z
1/2+x,1/2-y,-z
1/2-x,1/2+y,-z
1/2-x,1/2-y,-z
1/2+x,1/2+y,-z
1/2-x,1/2+y,z
1/2+x,1/2-y,z
loop_
_atom_site_type_symbol
_atom_site_label
_atom_site_fract_x
_atom_site_fract_y
_atom_site_fract_z
Si Si1 0.321738 0.791980 0.000000
Si Si2 0.179310 0.580295 0.150705
Si Si3 0.678758 0.293041 0.500000
Si Si4 0.180265 0.337602 0.739708
Si Si5 0.171886 0.000000 0.843745
O O1 0.250000 0.750000 0.000000
O O2 0.282195 0.815443 0.128117
O O3 0.500000 0.787973 0.000000
O O4 0.220764 0.617461 0.235886
O O5 0.248864 0.539827 0.196030
O O6 0.000000 0.577180 0.152213
O O7 0.221899 0.586949 0.000000
O O8 0.500000 0.289926 0.500000
O O9 0.750000 0.250000 0.500000
O O10 0.736949 0.316647 0.376278
O O11 0.000000 0.335419 0.720691
O O12 0.000000 0.000000 0.804737
O O13 0.178657 0.000000 0.000000
#
# Coordination Sequence:
#
# PCOD9489582 Si02
#       5
#     8  16   8  16   8
#     4  10  20  34  54  81 108 135 173 222 277 328
#     4   9  16  30  53  80 109 143 181 221 268 324
#     4  12  26  42  58  79 108 147 190 228 273 330
#     4  10  20  37  59  82 110 142 181 229 276 327
#     4   9  17  27  43  74 115 150 179 218 264 316
#
# _framework density 17.434633999999999
#
# number of rings (size 3 to 8) (size 9 to 14) (size 15 to 20)
#    0.000    2.143    1.429    2.571    0.000    6.286 
#    0.000    0.000    0.000    0.857    0.000    6.000 
#    0.000    0.000    0.000    0.000    0.000    0.000 
#
# Total GULP energy -156236.873967 kJ/mol
# GULP energy per Si atom -5579.888356 kJ/mol
# Density = 1.739495 g / cm^3
# Si number density = 17.434634 Si / 1000 Ang^3
#
#
#
# Elastic Constant Matrix: (Units=GPa)
#
#
# Indices 1 2 3 4 5 6 
#
# 1 58.1502 75.6494 54.6247 0.0000 0.0000 0.0000
# 2 75.6494 210.4604 81.1685 0.0000 0.0000 0.0000
# 3 54.6247 81.1685 111.1162 0.0000 0.0000 0.0000
# 4 0.0000 0.0000 0.0000 8.4601 0.0000 0.0000
# 5 0.0000 0.0000 0.0000 0.0000 17.3336 0.0000
# 6 0.0000 0.0000 0.0000 0.0000 0.0000 30.6054
#
#
#
# Elastic Compliance Matrix: (Units=1/GPa)
#
#
# Indices 1 2 3 4 5 6 
#
# 1 0.043776 -0.010352 -0.013958 0.000000 0.000000 0.000000
# 2 -0.010352 0.009063 -0.001531 0.000000 0.000000 0.000000
# 3 -0.013958 -0.001531 0.016980 0.000000 0.000000 0.000000
# 4 0.000000 0.000000 0.000000 0.118202 0.000000 0.000000
# 5 0.000000 0.000000 0.000000 0.000000 0.057691 0.000000
# 6 0.000000 0.000000 0.000000 0.000000 0.000000 0.032674
#
#
# Mechanical properties :
#
#
# Convention : Reuss Voigt Hill
#
# Bulk Modulus (GPa) = 55.13924 89.17911 72.15918
# Shear Modulus (GPa) = 14.87586 22.49876 18.68731
#
# Velocity S-wave (km/s) = 2.92419 3.59620 3.27746
# Velocity P-wave (km/s) = 6.56476 8.27678 7.46998
#
# Compressibility (1/GPa) = 0.01813590
#
# Stress axis : x y z
#
# Youngs Moduli (GPa) = 22.84356 110.33807 58.89189
#
# Poissons Ratio (x) = 1.14220 0.82204
# Poissons Ratio (y) = 0.23647 0.09019
# Poissons Ratio (z) = 0.31886 0.16898
#
# Static dielectric constant tensor:
#      x y z
#    x 1.584380 0.000000 0.000000 
#    y 0.000000 1.593490 0.000000 
#    z 0.000000 0.000000 1.580210 
# 
# From -- ./inp_files/20826.got.cif
#   From: 2010.05.17/outbox.cif.g08.bks.cpg/sg65_11_cif.got.tgz:20826.got - 2010.06.03 17:01:31.
