data_PCOD9489014
_publ_section_title
;
Structure prediction by ZEFSAII (Michael W. Deem and Ramdas Pophale) SiO2 
 PCOD9489014
Probable space group: C M M M
;
_chemical_formula_sum "Si O2"
_cell_formula_units_Z 88
_cell_length_a 22.132533
_cell_length_b 14.899953
_cell_length_c 14.137555
_cell_angle_alpha 90.000000
_cell_angle_beta 90.000000
_cell_angle_gamma 90.000000
_cell_volume 4662.193842
_symmetry_space_group_name_H-M "C M M M"
_symmetry_group_IT_number 65
_symmetry_cell_setting 'orthorhombic'
loop_
_space_group_symop_operation_xyz
x,y,z
-x,-y,z
x,-y,-z
-x,y,-z
-x,-y,-z
x,y,-z
-x,y,z
x,-y,z
1/2+x,1/2+y,z
1/2-x,1/2-y,z
1/2+x,1/2-y,-z
1/2-x,1/2+y,-z
1/2-x,1/2-y,-z
1/2+x,1/2+y,-z
1/2-x,1/2+y,z
1/2+x,1/2-y,z
loop_
_atom_site_type_symbol
_atom_site_label
_atom_site_fract_x
_atom_site_fract_y
_atom_site_fract_z
Si Si1 0.760164 0.348941 0.203553
Si Si2 0.892147 0.708457 0.794663
Si Si3 0.643426 0.599028 0.112599
Si Si4 0.068928 0.796487 0.391344
Si Si5 0.693811 0.606626 0.394391
Si Si6 0.000000 0.602385 0.887616
O O1 0.750000 0.250000 0.163893
O O2 0.832032 0.353216 0.204366
O O3 0.714251 0.405813 0.141177
O O4 0.733352 0.353434 0.309832
O O5 0.881033 0.810248 0.836127
O O6 0.914926 0.723557 0.687671
O O7 0.942336 0.657602 0.853326
O O8 0.617284 0.500000 0.139884
O O9 0.636288 0.609326 0.000000
O O10 0.071595 0.763695 0.500000
O O11 0.123235 0.868242 0.382206
O O12 0.000000 0.829361 0.375393
O O13 0.711870 0.637123 0.500000
O O14 0.700443 0.500000 0.389395
O O15 0.000000 0.500000 0.850826
O O16 0.000000 0.598666 0.000000
#
# Coordination Sequence:
#
# PCOD9489014 Si02
#       6
#    16  16  16  16  16   8
#     4  10  20  33  55  85 115 157 198 245 296 356
#     4  11  22  40  63  89 118 160 205 251 304 361
#     4  10  21  37  59  90 125 156 191 243 305 368
#     4  10  20  35  59  88 119 158 200 238 294 360
#     4  10  20  34  54  85 123 157 196 246 298 360
#     4  11  26  46  66  88 118 159 210 262 302 346
#
# _framework density 18.875235
#
# number of rings (size 3 to 8) (size 9 to 14) (size 15 to 20)
#    0.000    1.727    4.545    1.091    0.000    6.909 
#    0.000    4.091    0.000    2.727    0.000    0.000 
#    0.000    0.000    0.000    0.000    0.000    0.000 
#
# Total GULP energy -244967.674240 kJ/mol
# GULP energy per Si atom -5567.447142 kJ/mol
# Density = 1.883227 g / cm^3
# Si number density = 18.875235 Si / 1000 Ang^3
#
#
#
# Elastic Constant Matrix: (Units=GPa)
#
#
# Indices 1 2 3 4 5 6 
#
# 1 128.9257 33.8099 30.8307 0.0000 0.0000 0.0000
# 2 33.8099 98.7661 28.1452 0.0000 0.0000 0.0000
# 3 30.8307 28.1452 75.5499 0.0000 0.0000 0.0000
# 4 0.0000 0.0000 0.0000 33.1840 0.0000 0.0000
# 5 0.0000 0.0000 0.0000 0.0000 -46.3234 0.0000
# 6 0.0000 0.0000 0.0000 0.0000 0.0000 9.6496
#
#
#
# Elastic Compliance Matrix: (Units=1/GPa)
#
#
# Indices 1 2 3 4 5 6 
#
# 1 0.009034 -0.002284 -0.002835 0.000000 0.000000 0.000000
# 2 -0.002284 0.011905 -0.003503 0.000000 0.000000 0.000000
# 3 -0.002835 -0.003503 0.015698 0.000000 0.000000 0.000000
# 4 0.000000 0.000000 0.000000 0.030135 0.000000 0.000000
# 5 0.000000 0.000000 0.000000 0.000000 -0.021587 0.000000
# 6 0.000000 0.000000 0.000000 0.000000 0.000000 0.103631
#
#
# Mechanical properties :
#
#
# Convention : Reuss Voigt Hill
#
# Bulk Modulus (GPa) = 51.56871 54.31260 52.94065
# Shear Modulus (GPa) = 28.98136 13.33245 21.15690
#
# Velocity S-wave (km/s) = 3.92269 2.66060 3.35159
# Velocity P-wave (km/s) = 6.92075 6.18671 6.56400
#
# Compressibility (1/GPa) = 0.01939161
#
# Stress axis : x y z
#
# Youngs Moduli (GPa) = 110.69886 83.99737 63.70097
#
# Poissons Ratio (x) = 0.19188 0.18062
# Poissons Ratio (y) = 0.25288 0.22314
# Poissons Ratio (z) = 0.31388 0.29423
#
# Static dielectric constant tensor:
#      x y z
#    x 1.680700 0.000000 0.000000 
#    y 0.000000 1.666970 0.000000 
#    z 0.000000 0.000000 1.673120 
# 
# From -- ./inp_files/44017.got.cif
#   From: 2010.05.17/outbox.cif.g08.bks.cpg/sg65_23_cif.got.tgz:44017.got - 2010.06.03 17:01:31.
