data_PCOD9489089
_publ_section_title
;
Structure prediction by ZEFSAII (Michael W. Deem and Ramdas Pophale) SiO2 
 PCOD9489089
Probable space group: C M M M
;
_chemical_formula_sum "Si O2"
_cell_formula_units_Z 104
_cell_length_a 8.104959
_cell_length_b 29.571454
_cell_length_c 23.923175
_cell_angle_alpha 90.000000
_cell_angle_beta 90.000000
_cell_angle_gamma 90.000000
_cell_volume 5733.797069
_symmetry_space_group_name_H-M "C M M M"
_symmetry_group_IT_number 65
_symmetry_cell_setting 'orthorhombic'
loop_
_space_group_symop_operation_xyz
x,y,z
-x,-y,z
x,-y,-z
-x,y,-z
-x,-y,-z
x,y,-z
-x,y,z
x,-y,z
1/2+x,1/2+y,z
1/2-x,1/2-y,z
1/2+x,1/2-y,-z
1/2-x,1/2+y,-z
1/2-x,1/2-y,-z
1/2+x,1/2+y,-z
1/2-x,1/2+y,z
1/2+x,1/2-y,z
loop_
_atom_site_type_symbol
_atom_site_label
_atom_site_fract_x
_atom_site_fract_y
_atom_site_fract_z
Si Si1 0.196114 0.142645 0.668169
Si Si2 0.803105 0.698030 0.222780
Si Si3 0.699366 0.197750 0.000000
Si Si4 0.301365 0.949711 0.281854
Si Si5 0.797913 0.353933 0.111263
Si Si6 0.800445 0.801421 0.436821
Si Si7 0.201216 0.449465 0.152317
O O1 0.248093 0.172194 0.721621
O O2 0.247028 0.091269 0.679664
O O3 0.262181 0.165049 0.611202
O O4 0.000000 0.144168 0.665009
O O5 0.750000 0.750000 0.223344
O O6 0.742592 0.672601 0.166906
O O7 0.000000 0.696188 0.221304
O O8 0.750000 0.250000 0.000000
O O9 0.757237 0.171847 0.055692
O O10 0.500000 0.196257 0.000000
O O11 0.500000 0.949968 0.281106
O O12 0.249363 0.942091 0.217194
O O13 0.244588 0.000000 0.298510
O O14 0.745368 0.406260 0.116603
O O15 0.000000 0.353703 0.111118
O O16 0.742399 0.811660 0.500000
O O17 0.750000 0.750000 0.423453
O O18 0.000000 0.803125 0.437421
O O19 0.255361 0.500000 0.135352
O O20 0.000000 0.449831 0.151610
#
# Coordination Sequence:
#
# PCOD9489089 Si02
#       7
#    16  16   8  16  16  16  16
#     4  11  21  32  50  77 104 130 163 206 252 297
#     4  11  21  33  48  69 100 132 164 205 254 301
#     4  10  20  34  51  69  93 127 170 208 243 288
#     4   9  17  31  52  75 101 134 167 200 246 302
#     4   9  17  30  48  70  96 128 162 204 247 292
#     4   9  19  35  52  71  98 133 170 205 245 294
#     4   8  13  25  47  72  96 123 155 192 242 298
#
# _framework density 18.138068000000001
#
# number of rings (size 3 to 8) (size 9 to 14) (size 15 to 20)
#    0.000    2.462    1.538    2.769    0.000    2.769 
#    0.000    1.154    0.000    2.769    0.000    3.231 
#    0.000    0.615    0.000    0.000    0.000    0.000 
#
# Total GULP energy -290049.908420 kJ/mol
# GULP energy per Si atom -5577.882854 kJ/mol
# Density = 1.809679 g / cm^3
# Si number density = 18.138068 Si / 1000 Ang^3
#
#
#
# Elastic Constant Matrix: (Units=GPa)
#
#
# Indices 1 2 3 4 5 6 
#
# 1 12.0541 11.5147 11.5261 0.0000 0.0000 0.0000
# 2 11.5147 195.9651 112.0513 0.0000 0.0000 0.0000
# 3 11.5261 112.0513 136.3953 0.0000 0.0000 0.0000
# 4 0.0000 0.0000 0.0000 33.8313 0.0000 0.0000
# 5 0.0000 0.0000 0.0000 0.0000 5.9182 0.0000
# 6 0.0000 0.0000 0.0000 0.0000 0.0000 23.0691
#
#
#
# Elastic Compliance Matrix: (Units=1/GPa)
#
#
# Indices 1 2 3 4 5 6 
#
# 1 0.090582 -0.001783 -0.006190 0.000000 0.000000 0.000000
# 2 -0.001783 0.009659 -0.007784 0.000000 0.000000 0.000000
# 3 -0.006190 -0.007784 0.014249 0.000000 0.000000 0.000000
# 4 0.000000 0.000000 0.000000 0.029558 0.000000 0.000000
# 5 0.000000 0.000000 0.000000 0.000000 0.168970 0.000000
# 6 0.000000 0.000000 0.000000 0.000000 0.000000 0.043348
#
#
# Mechanical properties :
#
#
# Convention : Reuss Voigt Hill
#
# Bulk Modulus (GPa) = 12.05172 68.28873 40.17022
# Shear Modulus (GPa) = 12.03259 26.51854 19.27556
#
# Velocity S-wave (km/s) = 2.57843 3.82781 3.26346
# Velocity P-wave (km/s) = 3.93995 7.56752 6.03285
#
# Compressibility (1/GPa) = 0.08297573
#
# Stress axis : x y z
#
# Youngs Moduli (GPa) = 11.03977 103.53523 70.17855
#
# Poissons Ratio (x) = 0.18463 0.43438
# Poissons Ratio (y) = 0.01969 0.54627
# Poissons Ratio (z) = 0.06833 0.80592
#
# Static dielectric constant tensor:
#      x y z
#    x 1.654370 0.000000 0.000000 
#    y 0.000000 1.616270 0.000000 
#    z 0.000000 0.000000 1.619650 
# 
# From -- ./inp_files/60854.got.cif
#   From: 2010.05.17/outbox.cif.g08.bks.cpg/sg65_31_cif.got.tgz:60854.got - 2010.06.03 17:01:31.
