data_PCOD9489434
_publ_section_title
;
Structure prediction by ZEFSAII (Michael W. Deem and Ramdas Pophale) SiO2 
 PCOD9489434
Probable space group: C M M M
;
_chemical_formula_sum "Si O2"
_cell_formula_units_Z 96
_cell_length_a 15.083374
_cell_length_b 20.134732
_cell_length_c 15.088892
_cell_angle_alpha 90.000000
_cell_angle_beta 90.000000
_cell_angle_gamma 90.000000
_cell_volume 4582.491870
_symmetry_space_group_name_H-M "C M M M"
_symmetry_group_IT_number 65
_symmetry_cell_setting 'orthorhombic'
loop_
_space_group_symop_operation_xyz
x,y,z
-x,-y,z
x,-y,-z
-x,y,-z
-x,-y,-z
x,y,-z
-x,y,z
x,-y,z
1/2+x,1/2+y,z
1/2-x,1/2-y,z
1/2+x,1/2-y,-z
1/2-x,1/2+y,-z
1/2-x,1/2-y,-z
1/2+x,1/2+y,-z
1/2-x,1/2+y,z
1/2+x,1/2-y,z
loop_
_atom_site_type_symbol
_atom_site_label
_atom_site_fract_x
_atom_site_fract_y
_atom_site_fract_z
Si Si1 0.847075 0.218235 0.897609
Si Si2 0.399410 0.576778 0.392254
Si Si3 0.607975 0.923595 0.094316
Si Si4 0.263349 0.828938 0.600132
Si Si5 0.395825 0.572078 0.107023
Si Si6 0.601995 0.825786 0.758122
O O1 0.750000 0.250000 0.900635
O O2 0.848553 0.140882 0.870769
O O3 0.893641 0.259810 0.819365
O O4 0.883811 0.223579 0.000000
O O5 0.402119 0.577521 0.500000
O O6 0.500000 0.593307 0.361728
O O7 0.380188 0.500000 0.366204
O O8 0.323504 0.629830 0.368308
O O9 0.500000 0.921199 0.093587
O O10 0.638054 0.881901 0.175952
O O11 0.633683 0.000000 0.098929
O O12 0.639425 0.895536 0.000000
O O13 0.284478 0.852939 0.500000
O O14 0.250000 0.750000 0.594152
O O15 0.341222 0.832293 0.670583
O O16 0.500000 0.577828 0.131008
O O17 0.363024 0.500000 0.140306
O O18 0.391905 0.568960 0.000000
O O19 0.500000 0.838039 0.736617
#
# Coordination Sequence:
#
# PCOD9489434 Si02
#       6
#    16  16  16  16  16  16
#     4  10  20  34  53  80 115 152 193 246 308 370
#     4   8  15  32  62  96 122 146 185 243 311 376
#     4   8  15  30  52  78 110 149 193 239 285 336
#     4  10  22  39  58  84 121 161 200 247 306 370
#     4   8  14  27  50  79 109 141 177 222 285 361
#     4  11  22  35  55  82 114 157 207 252 295 353
#
# _framework density 20.949300999999998
#
# number of rings (size 3 to 8) (size 9 to 14) (size 15 to 20)
#    0.000    2.833    0.000    3.000    0.000    3.333 
#    0.000    2.500    0.000    6.000    0.000   14.000 
#    0.000    2.000    0.000    7.333    0.000    0.667 
#
# Total GULP energy -267709.561802 kJ/mol
# GULP energy per Si atom -5577.282538 kJ/mol
# Density = 2.090162 g / cm^3
# Si number density = 20.949301 Si / 1000 Ang^3
#
#
#
# Elastic Constant Matrix: (Units=GPa)
#
#
# Indices 1 2 3 4 5 6 
#
# 1 106.9166 55.5240 56.8889 0.0000 0.0000 0.0000
# 2 55.5240 138.5403 41.6520 0.0000 0.0000 0.0000
# 3 56.8889 41.6520 120.7297 0.0000 0.0000 0.0000
# 4 0.0000 0.0000 0.0000 -17.7938 0.0000 0.0000
# 5 0.0000 0.0000 0.0000 0.0000 47.4371 0.0000
# 6 0.0000 0.0000 0.0000 0.0000 0.0000 29.0828
#
#
#
# Elastic Compliance Matrix: (Units=1/GPa)
#
#
# Indices 1 2 3 4 5 6 
#
# 1 0.014341 -0.004146 -0.005327 0.000000 0.000000 0.000000
# 2 -0.004146 0.009252 -0.001238 0.000000 0.000000 0.000000
# 3 -0.005327 -0.001238 0.011220 0.000000 0.000000 0.000000
# 4 0.000000 0.000000 0.000000 -0.056199 0.000000 0.000000
# 5 0.000000 0.000000 0.000000 0.000000 0.021081 0.000000
# 6 0.000000 0.000000 0.000000 0.000000 0.000000 0.034385
#
#
# Mechanical properties :
#
#
# Convention : Reuss Voigt Hill
#
# Bulk Modulus (GPa) = 74.68076 74.92403 74.80240
# Shear Modulus (GPa) = 83.38232 25.88668 54.63450
#
# Velocity S-wave (km/s) = 6.31572 3.51904 5.11234
# Velocity P-wave (km/s) = 9.42922 7.23558 8.40428
#
# Compressibility (1/GPa) = 0.01339033
#
# Stress axis : x y z
#
# Youngs Moduli (GPa) = 69.73232 108.08480 89.12350
#
# Poissons Ratio (x) = 0.44810 0.47477
# Poissons Ratio (y) = 0.28910 0.11037
# Poissons Ratio (z) = 0.37147 0.13385
#
# Static dielectric constant tensor:
#      x y z
#    x 1.773820 0.000000 0.000000 
#    y 0.000000 1.756520 0.000000 
#    z 0.000000 0.000000 1.801120 
# 
# From -- ./inp_files/40349.got.cif
#   From: 2010.05.17/outbox.cif.g08.bks.cpg/sg65_21_cif.got.tgz:40349.got - 2010.06.03 17:01:31.
