data_PCOD9489145
_publ_section_title
;
Structure prediction by ZEFSAII (Michael W. Deem and Ramdas Pophale) SiO2 
 PCOD9489145
Probable space group: C M M M
;
_chemical_formula_sum "Si O2"
_cell_formula_units_Z 80
_cell_length_a 18.076835
_cell_length_b 9.092469
_cell_length_c 26.880554
_cell_angle_alpha 90.000000
_cell_angle_beta 90.000000
_cell_angle_gamma 90.000000
_cell_volume 4418.170160
_symmetry_space_group_name_H-M "C M M M"
_symmetry_group_IT_number 65
_symmetry_cell_setting 'orthorhombic'
loop_
_space_group_symop_operation_xyz
x,y,z
-x,-y,z
x,-y,-z
-x,y,-z
-x,-y,-z
x,y,-z
-x,y,z
x,-y,z
1/2+x,1/2+y,z
1/2-x,1/2-y,z
1/2+x,1/2-y,-z
1/2-x,1/2+y,-z
1/2-x,1/2-y,-z
1/2+x,1/2+y,-z
1/2-x,1/2+y,z
1/2+x,1/2-y,z
loop_
_atom_site_type_symbol
_atom_site_label
_atom_site_fract_x
_atom_site_fract_y
_atom_site_fract_z
Si Si1 0.670367 0.176957 0.154380
Si Si2 0.590021 0.328137 0.555135
Si Si3 0.589267 0.669767 0.244487
Si Si4 0.085697 0.678665 0.944801
Si Si5 0.090286 0.331247 0.345157
O O1 0.750000 0.250000 0.159284
O O2 0.620730 0.233585 0.199815
O O3 0.634214 0.225343 0.101880
O O4 0.674908 0.000000 0.155142
O O5 0.614247 0.278313 0.500000
O O6 0.500000 0.321690 0.555174
O O7 0.609415 0.500000 0.561067
O O8 0.615869 0.235376 0.602316
O O9 0.500000 0.674379 0.243069
O O10 0.612514 0.500000 0.239391
O O11 0.613159 0.735068 0.297749
O O12 0.086291 0.500000 0.944964
O O13 0.000000 0.723352 0.938285
O O14 0.110537 0.727016 0.000000
O O15 0.113293 0.500000 0.339312
O O16 0.000000 0.328765 0.345934
#
# Coordination Sequence:
#
# PCOD9489145 Si02
#       5
#    16  16  16  16  16
#     4  11  22  35  52  75 104 136 170 208 251 299
#     4   8  13  21  33  51  80 119 158 195 240 294
#     4  10  20  34  52  72  96 128 167 211 257 305
#     4   8  15  30  53  79 104 132 168 207 246 291
#     4   9  16  25  39  61  88 119 158 202 247 297
#
# _framework density 18.107043000000001
#
# number of rings (size 3 to 8) (size 9 to 14) (size 15 to 20)
#    0.000    2.800    0.000    3.600    0.000    5.200 
#    0.000    2.000    0.000    1.800    0.000    7.000 
#    0.000    0.800    0.000    3.000    0.000    7.000 
#
# Total GULP energy -222949.326917 kJ/mol
# GULP energy per Si atom -5573.733173 kJ/mol
# Density = 1.806583 g / cm^3
# Si number density = 18.107043 Si / 1000 Ang^3
#
#
#
# Elastic Constant Matrix: (Units=GPa)
#
#
# Indices 1 2 3 4 5 6 
#
# 1 14.8361 18.5441 26.7086 0.0000 0.0000 0.0000
# 2 18.5441 80.0626 56.6531 0.0000 0.0000 0.0000
# 3 26.7086 56.6531 148.3912 0.0000 0.0000 0.0000
# 4 0.0000 0.0000 0.0000 21.4042 0.0000 0.0000
# 5 0.0000 0.0000 0.0000 0.0000 -6.8877 0.0000
# 6 0.0000 0.0000 0.0000 0.0000 0.0000 12.1853
#
#
#
# Elastic Compliance Matrix: (Units=1/GPa)
#
#
# Indices 1 2 3 4 5 6 
#
# 1 0.113167 -0.016166 -0.014197 0.000000 0.000000 0.000000
# 2 -0.016166 0.019423 -0.004506 0.000000 0.000000 0.000000
# 3 -0.014197 -0.004506 0.011014 0.000000 0.000000 0.000000
# 4 0.000000 0.000000 0.000000 0.046720 0.000000 0.000000
# 5 0.000000 0.000000 0.000000 0.000000 -0.145186 0.000000
# 6 0.000000 0.000000 0.000000 0.000000 0.000000 0.082066
#
#
# Mechanical properties :
#
#
# Convention : Reuss Voigt Hill
#
# Bulk Modulus (GPa) = 13.53777 49.67795 31.60786
# Shear Modulus (GPa) = 22.56698 14.76596 18.66647
#
# Velocity S-wave (km/s) = 3.53414 2.85876 3.21424
# Velocity P-wave (km/s) = 4.91389 6.19612 5.59188
#
# Compressibility (1/GPa) = 0.07386740
#
# Stress axis : x y z
#
# Youngs Moduli (GPa) = 8.83652 51.48603 90.79042
#
# Poissons Ratio (x) = 0.83231 1.28894
# Poissons Ratio (y) = 0.14285 0.40907
# Poissons Ratio (z) = 0.12545 0.23198
#
# Static dielectric constant tensor:
#      x y z
#    x 1.608620 0.000000 0.000000 
#    y 0.000000 1.609440 0.000000 
#    z 0.000000 0.000000 1.625640 
# 
# From -- ./inp_files/72738.got.cif
#   From: 2010.05.17/outbox.cif.g08.bks.cpg/sg65_37_cif.got.tgz:72738.got - 2010.06.03 17:01:31.
