data_PCOD9489961
_publ_section_title
;
Structure prediction by ZEFSAII (Michael W. Deem and Ramdas Pophale) SiO2 
 PCOD9489961
Probable space group: C M M M
;
_chemical_formula_sum "Si O2"
_cell_formula_units_Z 88
_cell_length_a 17.848808
_cell_length_b 8.927477
_cell_length_c 29.733200
_cell_angle_alpha 90.000000
_cell_angle_beta 90.000000
_cell_angle_gamma 90.000000
_cell_volume 4737.831488
_symmetry_space_group_name_H-M "C M M M"
_symmetry_group_IT_number 65
_symmetry_cell_setting 'orthorhombic'
loop_
_space_group_symop_operation_xyz
x,y,z
-x,-y,z
x,-y,-z
-x,y,-z
-x,-y,-z
x,y,-z
-x,y,z
x,-y,z
1/2+x,1/2+y,z
1/2-x,1/2-y,z
1/2+x,1/2-y,-z
1/2-x,1/2+y,-z
1/2-x,1/2-y,-z
1/2+x,1/2+y,-z
1/2-x,1/2+y,z
1/2+x,1/2-y,z
loop_
_atom_site_type_symbol
_atom_site_label
_atom_site_fract_x
_atom_site_fract_y
_atom_site_fract_z
Si Si1 0.089336 0.177817 0.092316
Si Si2 0.833592 0.179524 0.450592
Si Si3 0.408651 0.172324 0.815311
Si Si4 0.590422 0.327878 0.723315
Si Si5 0.168281 0.818719 0.000000
Si Si6 0.832853 0.321751 0.639514
O O1 0.116716 0.261772 0.136956
O O2 0.126487 0.227376 0.045768
O O3 0.000000 0.199987 0.088551
O O4 0.102142 0.000000 0.098113
O O5 0.867948 0.209728 0.500000
O O6 0.750000 0.250000 0.452149
O O7 0.868393 0.252966 0.406195
O O8 0.828600 0.000000 0.445166
O O9 0.500000 0.177628 0.815990
O O10 0.384690 0.267459 0.772042
O O11 0.386226 0.000000 0.810203
O O12 0.500000 0.323303 0.722582
O O13 0.614195 0.500000 0.716884
O O14 0.621769 0.227099 0.683329
O O15 0.250000 0.750000 0.000000
O O16 0.170652 0.000000 0.000000
O O17 0.827253 0.500000 0.635596
O O18 0.750000 0.250000 0.643649
#
# Coordination Sequence:
#
# PCOD9489961 Si02
#       6
#    16  16  16  16   8  16
#     4   9  17  32  54  76  97 126 167 209 246 287
#     4   9  16  27  45  69  97 129 167 210 254 300
#     4   9  17  30  50  77 104 128 161 207 254 297
#     4  10  20  35  55  77 103 136 172 209 253 306
#     4  10  21  35  51  73 103 136 166 200 244 296
#     4  11  21  33  51  75 105 136 169 211 256 304
#
# _framework density 18.573896999999999
#
# number of rings (size 3 to 8) (size 9 to 14) (size 15 to 20)
#    0.000    2.364    0.000    4.636    0.000    6.182 
#    0.000    0.909    0.000    5.455    0.000    3.818 
#    0.000    0.000    0.000    0.000    0.000    0.000 
#
# Total GULP energy -245389.593836 kJ/mol
# GULP energy per Si atom -5577.036224 kJ/mol
# Density = 1.853162 g / cm^3
# Si number density = 18.573897 Si / 1000 Ang^3
#
#
#
# Elastic Constant Matrix: (Units=GPa)
#
#
# Indices 1 2 3 4 5 6 
#
# 1 5.7033 19.4882 20.5744 0.0000 0.0000 0.0000
# 2 19.4882 110.3849 68.4612 0.0000 0.0000 0.0000
# 3 20.5744 68.4612 173.6115 0.0000 0.0000 0.0000
# 4 0.0000 0.0000 0.0000 31.3823 0.0000 0.0000
# 5 0.0000 0.0000 0.0000 0.0000 21.8909 0.0000
# 6 0.0000 0.0000 0.0000 0.0000 0.0000 19.9633
#
#
#
# Elastic Compliance Matrix: (Units=1/GPa)
#
#
# Indices 1 2 3 4 5 6 
#
# 1 0.583628 -0.079612 -0.037771 0.000000 0.000000 0.000000
# 2 -0.079612 0.022852 0.000423 0.000000 0.000000 0.000000
# 3 -0.037771 0.000423 0.010069 0.000000 0.000000 0.000000
# 4 0.000000 0.000000 0.000000 0.031865 0.000000 0.000000
# 5 0.000000 0.000000 0.000000 0.000000 0.045681 0.000000
# 6 0.000000 0.000000 0.000000 0.000000 0.000000 0.050092
#
#
# Mechanical properties :
#
#
# Convention : Reuss Voigt Hill
#
# Bulk Modulus (GPa) = 2.61349 56.30524 29.45937
# Shear Modulus (GPa) = 4.52223 26.72569 15.62396
#
# Velocity S-wave (km/s) = 1.56205 3.79738 2.90345
# Velocity P-wave (km/s) = 2.15951 7.04321 5.20914
#
# Compressibility (1/GPa) = 0.38262967
#
# Stress axis : x y z
#
# Youngs Moduli (GPa) = 1.71342 43.75988 99.31293
#
# Poissons Ratio (x) = 3.48383 3.75112
# Poissons Ratio (y) = 0.13641 -0.04205
# Poissons Ratio (z) = 0.06472 -0.01853
#
# Static dielectric constant tensor:
#      x y z
#    x 1.631100 0.000000 0.000000 
#    y 0.000000 1.626470 0.000000 
#    z 0.000000 0.000000 1.666460 
# 
# From -- ./inp_files/77815.got.cif
#   From: 2010.05.17/outbox.cif.g08.bks.cpg/sg65_39_cif.got.tgz:77815.got - 2010.06.03 17:01:31.
