data_PCOD9489911
_publ_section_title
;
Structure prediction by ZEFSAII (Michael W. Deem and Ramdas Pophale) SiO2 
 PCOD9489911
Probable space group: C M M M
;
_chemical_formula_sum "Si O2"
_cell_formula_units_Z 104
_cell_length_a 16.424346
_cell_length_b 19.915275
_cell_length_c 16.375398
_cell_angle_alpha 90.000000
_cell_angle_beta 90.000000
_cell_angle_gamma 90.000000
_cell_volume 5356.316823
_symmetry_space_group_name_H-M "C M M M"
_symmetry_group_IT_number 65
_symmetry_cell_setting 'orthorhombic'
loop_
_space_group_symop_operation_xyz
x,y,z
-x,-y,z
x,-y,-z
-x,y,-z
-x,-y,-z
x,y,-z
-x,y,z
x,-y,z
1/2+x,1/2+y,z
1/2-x,1/2-y,z
1/2+x,1/2-y,-z
1/2-x,1/2+y,-z
1/2-x,1/2-y,-z
1/2+x,1/2+y,-z
1/2-x,1/2+y,z
1/2+x,1/2-y,z
loop_
_atom_site_type_symbol
_atom_site_label
_atom_site_fract_x
_atom_site_fract_y
_atom_site_fract_z
Si Si1 0.659440 0.716886 0.592176
Si Si2 0.158694 0.576246 0.803080
Si Si3 0.500000 0.080307 0.909774
Si Si4 0.161218 0.715989 0.252737
Si Si5 0.096537 0.216050 0.907765
Si Si6 0.094232 0.074644 0.401375
Si Si7 0.674088 0.426534 0.902893
O O1 0.624990 0.723360 0.500000
O O2 0.750000 0.750000 0.587513
O O3 0.617113 0.754544 0.667548
O O4 0.652223 0.637972 0.615940
O O5 0.148648 0.500000 0.772138
O O6 0.165818 0.636117 0.739284
O O7 0.240219 0.578296 0.857055
O O8 0.081197 0.593764 0.859353
O O9 0.500000 0.000000 0.919499
O O10 0.500000 0.111897 0.000000
O O11 0.250000 0.750000 0.251003
O O12 0.125597 0.736795 0.165237
O O13 0.122141 0.139674 0.885686
O O14 0.000000 0.219905 0.911579
O O15 0.128792 0.231175 0.000000
O O16 0.092667 0.070434 0.500000
O O17 0.000000 0.087545 0.375486
O O18 0.118404 0.000000 0.370658
O O19 0.637166 0.500000 0.882362
O O20 0.688873 0.426313 0.000000
#
# Coordination Sequence:
#
# PCOD9489911 Si02
#       7
#    16  16   8  16  16  16  16
#     4   9  19  36  57  82 115 149 185 231 281 337
#     4  10  20  35  54  77 107 143 185 232 281 333
#     4   9  18  32  52  80 109 137 178 233 285 327
#     4  11  22  38  56  80 109 147 186 226 278 335
#     4  10  22  37  53  80 115 149 186 229 277 332
#     4   8  14  28  53  84 115 145 178 224 285 343
#     4   9  17  32  55  79 106 147 192 229 271 329
#
# _framework density 19.416328
#
# number of rings (size 3 to 8) (size 9 to 14) (size 15 to 20)
#    0.000    2.538    1.538    0.923    1.077    4.308 
#    0.000    5.385    0.000    1.385    0.000    0.000 
#    0.000    1.846    0.000    0.308    0.000    0.000 
#
# Total GULP energy -289558.422165 kJ/mol
# GULP energy per Si atom -5568.431195 kJ/mol
# Density = 1.937214 g / cm^3
# Si number density = 19.416328 Si / 1000 Ang^3
#
#
#
# Elastic Constant Matrix: (Units=GPa)
#
#
# Indices 1 2 3 4 5 6 
#
# 1 39.4052 25.2595 18.7572 0.0000 0.0000 0.0000
# 2 25.2595 169.4055 55.7793 0.0000 0.0000 0.0000
# 3 18.7572 55.7793 67.7246 0.0000 0.0000 0.0000
# 4 0.0000 0.0000 0.0000 14.8861 0.0000 0.0000
# 5 0.0000 0.0000 0.0000 0.0000 16.9590 0.0000
# 6 0.0000 0.0000 0.0000 0.0000 0.0000 27.4535
#
#
#
# Elastic Compliance Matrix: (Units=1/GPa)
#
#
# Indices 1 2 3 4 5 6 
#
# 1 0.029913 -0.002377 -0.006327 0.000000 0.000000 0.000000
# 2 -0.002377 0.008288 -0.006168 0.000000 0.000000 0.000000
# 3 -0.006327 -0.006168 0.021598 0.000000 0.000000 0.000000
# 4 0.000000 0.000000 0.000000 0.067177 0.000000 0.000000
# 5 0.000000 0.000000 0.000000 0.000000 0.058966 0.000000
# 6 0.000000 0.000000 0.000000 0.000000 0.000000 0.036425
#
#
# Mechanical properties :
#
#
# Convention : Reuss Voigt Hill
#
# Bulk Modulus (GPa) = 33.27219 52.90304 43.08762
# Shear Modulus (GPa) = 19.07455 23.64236 21.35846
#
# Velocity S-wave (km/s) = 3.13772 3.49327 3.32026
# Velocity P-wave (km/s) = 5.50459 6.60125 6.07770
#
# Compressibility (1/GPa) = 0.03005513
#
# Stress axis : x y z
#
# Youngs Moduli (GPa) = 33.43062 120.65109 46.30005
#
# Poissons Ratio (x) = 0.28678 0.29294
# Poissons Ratio (y) = 0.07946 0.28559
# Poissons Ratio (z) = 0.21152 0.74419
#
# Static dielectric constant tensor:
#      x y z
#    x 1.674650 0.000000 0.000000 
#    y 0.000000 1.733200 0.000000 
#    z 0.000000 0.000000 1.741560 
# 
# From -- ./inp_files/54563.got.cif
#   From: 2010.05.17/outbox.cif.g08.bks.cpg/sg65_28_cif.got.tgz:54563.got - 2010.06.03 17:01:31.
