data_PCOD9489966
_publ_section_title
;
Structure prediction by ZEFSAII (Michael W. Deem and Ramdas Pophale) SiO2 
 PCOD9489966
Probable space group: C M M M
;
_chemical_formula_sum "Si O2"
_cell_formula_units_Z 96
_cell_length_a 17.238455
_cell_length_b 14.852875
_cell_length_c 20.908369
_cell_angle_alpha 90.000000
_cell_angle_beta 90.000000
_cell_angle_gamma 90.000000
_cell_volume 5353.391706
_symmetry_space_group_name_H-M "C M M M"
_symmetry_group_IT_number 65
_symmetry_cell_setting 'orthorhombic'
loop_
_space_group_symop_operation_xyz
x,y,z
-x,-y,z
x,-y,-z
-x,y,-z
-x,-y,-z
x,y,-z
-x,y,z
x,-y,z
1/2+x,1/2+y,z
1/2-x,1/2-y,z
1/2+x,1/2-y,-z
1/2-x,1/2+y,-z
1/2-x,1/2-y,-z
1/2+x,1/2+y,-z
1/2-x,1/2+y,z
1/2+x,1/2-y,z
loop_
_atom_site_type_symbol
_atom_site_label
_atom_site_fract_x
_atom_site_fract_y
_atom_site_fract_z
Si Si1 0.905400 0.792606 0.070128
Si Si2 0.407865 0.394921 0.575375
Si Si3 0.405490 0.100035 0.881573
Si Si4 0.593613 0.393752 0.199275
Si Si5 0.660991 0.723248 0.685029
Si Si6 0.092833 0.401596 0.267030
O O1 0.880354 0.688946 0.081079
O O2 0.882293 0.852671 0.130697
O O3 0.000000 0.793011 0.070322
O O4 0.880048 0.824338 0.000000
O O5 0.394171 0.379782 0.500000
O O6 0.500000 0.381991 0.587330
O O7 0.390786 0.500000 0.589240
O O8 0.360273 0.329950 0.620957
O O9 0.500000 0.099659 0.883664
O O10 0.382529 0.111286 0.807077
O O11 0.380530 0.000000 0.903289
O O12 0.500000 0.381447 0.205699
O O13 0.609678 0.500000 0.202713
O O14 0.634278 0.339154 0.255844
O O15 0.750000 0.750000 0.689353
O O16 0.616835 0.817815 0.691013
O O17 0.121656 0.500000 0.288435
O O18 0.000000 0.404506 0.265403
#
# Coordination Sequence:
#
# PCOD9489966 Si02
#       6
#    16  16  16  16  16  16
#     4   9  16  26  44  73 105 132 169 230 293 337
#     4   9  19  38  64  90 114 144 183 223 262 309
#     4   8  13  23  41  65  94 128 168 216 266 315
#     4  10  20  35  55  77 104 141 186 232 277 329
#     4  12  23  33  53  82 115 144 176 220 271 319
#     4   9  17  31  51  72  98 136 180 221 261 312
#
# _framework density 17.932556999999999
#
# number of rings (size 3 to 8) (size 9 to 14) (size 15 to 20)
#    0.000    2.500    1.667    3.500    0.000    3.667 
#    0.000    3.333    0.000    1.000    0.000    2.333 
#    0.000    0.000    0.000    0.000    0.000    0.000 
#
# Total GULP energy -267637.730285 kJ/mol
# GULP energy per Si atom -5575.786048 kJ/mol
# Density = 1.789174 g / cm^3
# Si number density = 17.932557 Si / 1000 Ang^3
#
#
#
# Elastic Constant Matrix: (Units=GPa)
#
#
# Indices 1 2 3 4 5 6 
#
# 1 27.1215 43.5673 35.6168 0.0000 0.0000 0.0000
# 2 43.5673 132.8316 75.2004 0.0000 0.0000 0.0000
# 3 35.6168 75.2004 84.6066 0.0000 0.0000 0.0000
# 4 0.0000 0.0000 0.0000 13.5542 0.0000 0.0000
# 5 0.0000 0.0000 0.0000 0.0000 -2.0055 0.0000
# 6 0.0000 0.0000 0.0000 0.0000 0.0000 2.0973
#
#
#
# Elastic Compliance Matrix: (Units=1/GPa)
#
#
# Indices 1 2 3 4 5 6 
#
# 1 0.100217 -0.018087 -0.026112 0.000000 0.000000 0.000000
# 2 -0.018087 0.018418 -0.008756 0.000000 0.000000 0.000000
# 3 -0.026112 -0.008756 0.030594 0.000000 0.000000 0.000000
# 4 0.000000 0.000000 0.000000 0.073778 0.000000 0.000000
# 5 0.000000 0.000000 0.000000 0.000000 -0.498630 0.000000
# 6 0.000000 0.000000 0.000000 0.000000 0.000000 0.476801
#
#
# Mechanical properties :
#
#
# Convention : Reuss Voigt Hill
#
# Bulk Modulus (GPa) = 23.08470 61.48096 42.28283
# Shear Modulus (GPa) = 15.55071 8.74087 12.14579
#
# Velocity S-wave (km/s) = 2.94798 2.21018 2.60533
# Velocity P-wave (km/s) = 4.94858 6.39313 5.71667
#
# Compressibility (1/GPa) = 0.04331874
#
# Stress axis : x y z
#
# Youngs Moduli (GPa) = 9.97833 54.29529 32.68578
#
# Poissons Ratio (x) = 0.98205 0.85349
# Poissons Ratio (y) = 0.18048 0.28620
# Poissons Ratio (z) = 0.26055 0.47541
#
# Static dielectric constant tensor:
#      x y z
#    x 1.599780 0.000000 0.000000 
#    y 0.000000 1.663780 0.000000 
#    z 0.000000 0.000000 1.607560 
# 
# From -- ./inp_files/54479.got.cif
#   From: 2010.05.17/outbox.cif.g08.bks.cpg/sg65_28_cif.got.tgz:54479.got - 2010.06.03 17:01:31.
