data_PCOD9489106
_publ_section_title
;
Structure prediction by ZEFSAII (Michael W. Deem and Ramdas Pophale) SiO2 
 PCOD9489106
Probable space group: C M M M
;
_chemical_formula_sum "Si O2"
_cell_formula_units_Z 72
_cell_length_a 8.976644
_cell_length_b 14.807117
_cell_length_c 24.430700
_cell_angle_alpha 90.000000
_cell_angle_beta 90.000000
_cell_angle_gamma 90.000000
_cell_volume 3247.285108
_symmetry_space_group_name_H-M "C M M M"
_symmetry_group_IT_number 65
_symmetry_cell_setting 'orthorhombic'
loop_
_space_group_symop_operation_xyz
x,y,z
-x,-y,z
x,-y,-z
-x,y,-z
-x,-y,-z
x,y,-z
-x,y,z
x,-y,z
1/2+x,1/2+y,z
1/2-x,1/2-y,z
1/2+x,1/2-y,-z
1/2-x,1/2+y,-z
1/2-x,1/2-y,-z
1/2+x,1/2+y,-z
1/2-x,1/2+y,z
1/2+x,1/2-y,z
loop_
_atom_site_type_symbol
_atom_site_label
_atom_site_fract_x
_atom_site_fract_y
_atom_site_fract_z
Si Si1 0.670530 0.389223 0.111972
Si Si2 0.321453 0.149463 0.560351
Si Si3 0.834580 0.606243 0.220462
Si Si4 0.177682 0.849276 0.668450
Si Si5 0.829604 0.610393 0.000000
O O1 0.500000 0.359400 0.114323
O O2 0.669791 0.500000 0.112420
O O3 0.759290 0.357423 0.165494
O O4 0.746993 0.361646 0.055350
O O5 0.294557 0.108593 0.500000
O O6 0.500000 0.155506 0.567973
O O7 0.250000 0.250000 0.557621
O O8 0.247096 0.106023 0.613832
O O9 0.852013 0.500000 0.210427
O O10 0.731919 0.612945 0.273755
O O11 0.000000 0.645429 0.230784
O O12 0.250000 0.750000 0.668741
O O13 0.000000 0.847511 0.664562
O O14 0.830508 0.500000 0.000000
O O15 0.000000 0.640967 0.000000
#
# Coordination Sequence:
#
# PCOD9489106 Si02
#       5
#    16  16  16  16   8
#     4   9  16  26  41  63  91 122 157 197 241 287
#     4   9  16  27  45  69  96 124 156 196 241 286
#     4  10  20  34  51  71  98 131 165 201 244 294
#     4  11  21  33  51  74 101 130 163 202 242 287
#     4   9  15  23  37  59  88 121 156 195 240 285
#
# _framework density 22.172369
#
# number of rings (size 3 to 8) (size 9 to 14) (size 15 to 20)
#    0.000    2.333    0.000    5.667    0.000    6.667 
#    0.000    0.000    0.000    0.667    0.000    5.444 
#    0.000    0.000    0.000    0.000    0.000    0.000 
#
# Total GULP energy -201007.270576 kJ/mol
# GULP energy per Si atom -5583.535294 kJ/mol
# Density = 2.212190 g / cm^3
# Si number density = 22.172369 Si / 1000 Ang^3
#
#
#
# Elastic Constant Matrix: (Units=GPa)
#
#
# Indices 1 2 3 4 5 6 
#
# 1 212.4671 12.5578 120.3160 0.0000 0.0000 0.0000
# 2 12.5578 48.3060 10.7870 0.0000 0.0000 0.0000
# 3 120.3160 10.7870 241.6566 0.0000 0.0000 0.0000
# 4 0.0000 0.0000 0.0000 1.5559 0.0000 0.0000
# 5 0.0000 0.0000 0.0000 0.0000 -57.1372 0.0000
# 6 0.0000 0.0000 0.0000 0.0000 0.0000 7.9014
#
#
#
# Elastic Compliance Matrix: (Units=1/GPa)
#
#
# Indices 1 2 3 4 5 6 
#
# 1 0.006601 -0.000992 -0.003242 0.000000 0.000000 0.000000
# 2 -0.000992 0.021059 -0.000446 0.000000 0.000000 0.000000
# 3 -0.003242 -0.000446 0.005772 0.000000 0.000000 0.000000
# 4 0.000000 0.000000 0.000000 0.642718 0.000000 0.000000
# 5 0.000000 0.000000 0.000000 0.000000 -0.017502 0.000000
# 6 0.000000 0.000000 0.000000 0.000000 0.000000 0.126561
#
#
# Mechanical properties :
#
#
# Convention : Reuss Voigt Hill
#
# Bulk Modulus (GPa) = 41.54299 87.75016 64.64658
# Shear Modulus (GPa) = 6.22980 14.38195 10.30587
#
# Velocity S-wave (km/s) = 1.67804 2.54961 2.15828
# Velocity P-wave (km/s) = 4.74673 6.95195 5.95236
#
# Compressibility (1/GPa) = 0.02407145
#
# Stress axis : x y z
#
# Youngs Moduli (GPa) = 151.48407 47.48595 173.23993
#
# Poissons Ratio (x) = 0.04711 0.56171
# Poissons Ratio (y) = 0.15028 0.07728
# Poissons Ratio (z) = 0.49117 0.02118
#
# Static dielectric constant tensor:
#      x y z
#    x 1.769610 0.000000 0.000000 
#    y 0.000000 1.917670 0.000000 
#    z 0.000000 0.000000 1.841650 
# 
# From -- ./inp_files/64983.got.cif
#   From: 2010.05.17/outbox.cif.g08.bks.cpg/sg65_33_cif.got.tgz:64983.got - 2010.06.03 17:01:31.
