data_PCOD9489160
_publ_section_title
;
Structure prediction by ZEFSAII (Michael W. Deem and Ramdas Pophale) SiO2 
 PCOD9489160
Probable space group: C M M M
;
_chemical_formula_sum "Si O2"
_cell_formula_units_Z 104
_cell_length_a 19.937516
_cell_length_b 8.842699
_cell_length_c 34.091146
_cell_angle_alpha 90.000000
_cell_angle_beta 90.000000
_cell_angle_gamma 90.000000
_cell_volume 6010.318567
_symmetry_space_group_name_H-M "C M M M"
_symmetry_group_IT_number 65
_symmetry_cell_setting 'orthorhombic'
loop_
_space_group_symop_operation_xyz
x,y,z
-x,-y,z
x,-y,-z
-x,y,-z
-x,-y,-z
x,y,-z
-x,y,z
x,-y,z
1/2+x,1/2+y,z
1/2-x,1/2-y,z
1/2+x,1/2-y,-z
1/2-x,1/2+y,-z
1/2-x,1/2-y,-z
1/2+x,1/2+y,-z
1/2-x,1/2+y,z
1/2+x,1/2-y,z
loop_
_atom_site_type_symbol
_atom_site_label
_atom_site_fract_x
_atom_site_fract_y
_atom_site_fract_z
Si Si1 0.922114 0.818524 0.692798
Si Si2 0.918559 0.174467 0.000000
Si Si3 0.676294 0.817615 0.152354
Si Si4 0.077625 0.681859 0.081860
Si Si5 0.676766 0.319159 0.454746
Si Si6 0.176475 0.182130 0.763761
Si Si7 0.421457 0.180576 0.390863
O O1 0.874732 0.778117 0.729090
O O2 0.901613 0.740305 0.652184
O O3 0.000000 0.778960 0.700694
O O4 0.918563 0.000000 0.687554
O O5 0.897400 0.252963 0.040404
O O6 0.000000 0.182905 0.000000
O O7 0.898606 0.000000 0.000000
O O8 0.750000 0.750000 0.144269
O O9 0.624701 0.774762 0.118068
O O10 0.654933 0.750985 0.194441
O O11 0.680258 0.000000 0.154700
O O12 0.077788 0.500000 0.079191
O O13 0.000000 0.730184 0.087935
O O14 0.659341 0.280969 0.500000
O O15 0.680041 0.500000 0.451408
O O16 0.750000 0.250000 0.446760
O O17 0.623494 0.253962 0.424397
O O18 0.250000 0.250000 0.755421
O O19 0.180742 0.000000 0.766838
O O20 0.500000 0.220458 0.396310
O O21 0.415141 0.000000 0.392146
#
# Coordination Sequence:
#
# PCOD9489160 Si02
#       7
#    16   8  16  16  16  16  16
#     4   9  19  36  55  75 102 136 173 213 257 304
#     4   9  17  29  48  75 102 127 159 203 250 291
#     4  10  20  34  52  73 100 133 166 203 248 297
#     4   9  18  33  52  73  98 130 166 202 244 295
#     4  10  21  37  57  80 107 140 177 218 263 310
#     4  10  20  34  53  75 100 132 168 207 252 301
#     4  10  21  36  55  80 109 141 176 215 260 309
#
# _framework density 17.303574999999999
#
# number of rings (size 3 to 8) (size 9 to 14) (size 15 to 20)
#    0.000    2.385    0.000    3.000    0.000    6.769 
#    0.000    3.462    0.000    0.000    0.000    0.000 
#    0.000    0.000    0.000    0.000    0.000    0.000 
#
# Total GULP energy -290139.425674 kJ/mol
# GULP energy per Si atom -5579.604340 kJ/mol
# Density = 1.726419 g / cm^3
# Si number density = 17.303575 Si / 1000 Ang^3
#
#
#
# Elastic Constant Matrix: (Units=GPa)
#
#
# Indices 1 2 3 4 5 6 
#
# 1 83.0568 45.6305 112.5822 0.0000 0.0000 0.0000
# 2 45.6305 51.1292 68.4651 0.0000 0.0000 0.0000
# 3 112.5822 68.4651 189.6680 0.0000 0.0000 0.0000
# 4 0.0000 0.0000 0.0000 26.6289 0.0000 0.0000
# 5 0.0000 0.0000 0.0000 0.0000 71.1914 0.0000
# 6 0.0000 0.0000 0.0000 0.0000 0.0000 25.4113
#
#
#
# Elastic Compliance Matrix: (Units=1/GPa)
#
#
# Indices 1 2 3 4 5 6 
#
# 1 0.065412 -0.012360 -0.034365 0.000000 0.000000 0.000000
# 2 -0.012360 0.040193 -0.007172 0.000000 0.000000 0.000000
# 3 -0.034365 -0.007172 0.028260 0.000000 0.000000 0.000000
# 4 0.000000 0.000000 0.000000 0.037553 0.000000 0.000000
# 5 0.000000 0.000000 0.000000 0.000000 0.014047 0.000000
# 6 0.000000 0.000000 0.000000 0.000000 0.000000 0.039353
#
#
# Mechanical properties :
#
#
# Convention : Reuss Voigt Hill
#
# Bulk Modulus (GPa) = 38.35851 86.35663 62.35757
# Shear Modulus (GPa) = 14.64979 31.12473 22.88726
#
# Velocity S-wave (km/s) = 2.91285 4.24576 3.64083
# Velocity P-wave (km/s) = 5.79043 8.60526 7.33415
#
# Compressibility (1/GPa) = 0.02606983
#
# Stress axis : x y z
#
# Youngs Moduli (GPa) = 15.28763 24.88014 35.38613
#
# Poissons Ratio (x) = 0.30752 1.21606
# Poissons Ratio (y) = 0.18896 0.25378
# Poissons Ratio (z) = 0.52537 0.17843
#
# Static dielectric constant tensor:
#      x y z
#    x 1.570680 0.000000 0.000000 
#    y 0.000000 1.579250 0.000000 
#    z 0.000000 0.000000 1.567410 
# 
# From -- ./inp_files/78162.got.cif
#   From: 2010.05.17/outbox.cif.g08.bks.cpg/sg65_40_cif.got.tgz:78162.got - 2010.06.03 17:01:31.
