data_PCOD9489385
_publ_section_title
;
Structure prediction by ZEFSAII (Michael W. Deem and Ramdas Pophale) SiO2 
 PCOD9489385
Probable space group: C M M M
;
_chemical_formula_sum "Si O2"
_cell_formula_units_Z 112
_cell_length_a 15.929510
_cell_length_b 23.641706
_cell_length_c 15.263143
_cell_angle_alpha 90.000000
_cell_angle_beta 90.000000
_cell_angle_gamma 90.000000
_cell_volume 5748.111744
_symmetry_space_group_name_H-M "C M M M"
_symmetry_group_IT_number 65
_symmetry_cell_setting 'orthorhombic'
loop_
_space_group_symop_operation_xyz
x,y,z
-x,-y,z
x,-y,-z
-x,y,-z
-x,-y,-z
x,y,-z
-x,y,z
x,-y,z
1/2+x,1/2+y,z
1/2-x,1/2-y,z
1/2+x,1/2-y,-z
1/2-x,1/2+y,-z
1/2-x,1/2-y,-z
1/2+x,1/2+y,-z
1/2-x,1/2+y,z
1/2+x,1/2-y,z
loop_
_atom_site_type_symbol
_atom_site_label
_atom_site_fract_x
_atom_site_fract_y
_atom_site_fract_z
Si Si1 0.907309 0.862700 0.711039
Si Si2 0.096431 0.294130 0.839691
Si Si3 0.300540 0.890005 0.097061
Si Si4 0.345287 0.241290 0.656431
Si Si5 0.739492 0.065609 0.285155
Si Si6 0.404811 0.124411 0.600363
Si Si7 0.371478 0.326257 0.094134
O O1 0.889461 0.802034 0.665408
O O2 0.827724 0.903006 0.695378
O O3 0.907920 0.851073 0.816062
O O4 0.000000 0.883617 0.685583
O O5 0.116909 0.353267 0.884339
O O6 0.154903 0.284236 0.755235
O O7 0.113323 0.240503 0.900755
O O8 0.000000 0.291659 0.809800
O O9 0.280654 0.928033 0.181226
O O10 0.226087 0.843169 0.096798
O O11 0.301812 0.916390 0.000000
O O12 0.250000 0.250000 0.626242
O O13 0.391108 0.192198 0.603487
O O14 0.665015 0.095871 0.338691
O O15 0.744447 0.000000 0.308183
O O16 0.395254 0.105328 0.500000
O O17 0.500000 0.111929 0.629842
O O18 0.403437 0.347707 0.000000
#
# Coordination Sequence:
#
# PCOD9489385 Si02
#       7
#    16  16  16  16  16  16  16
#     4  10  20  35  58  89 124 164 204 244 296 361
#     4  11  19  27  47  79 117 156 193 236 290 359
#     4  10  20  34  53  77 110 155 202 246 297 353
#     4  11  18  35  61  91 128 158 186 232 300 368
#     4  11  24  43  63  85 118 162 209 259 305 345
#     4  11  24  43  69  98 123 151 193 246 305 366
#     4   9  17  29  46  75 115 156 198 243 291 347
#
# _framework density 19.484660000000002
#
# number of rings (size 3 to 8) (size 9 to 14) (size 15 to 20)
#    0.000    1.571    2.857    5.143    0.000    4.571 
#    0.000    0.714    0.000    0.429    0.000    7.000 
#    0.000    0.000    0.000    0.000    0.000    0.000 
#
# Total GULP energy -312457.822115 kJ/mol
# GULP energy per Si atom -5579.603966 kJ/mol
# Density = 1.944031 g / cm^3
# Si number density = 19.484660 Si / 1000 Ang^3
#
#
#
# Elastic Constant Matrix: (Units=GPa)
#
#
# Indices 1 2 3 4 5 6 
#
# 1 128.3015 50.1375 34.7191 0.0000 0.0000 0.0000
# 2 50.1375 97.4309 23.6454 0.0000 0.0000 0.0000
# 3 34.7191 23.6454 59.5046 0.0000 0.0000 0.0000
# 4 0.0000 0.0000 0.0000 5.9612 0.0000 0.0000
# 5 0.0000 0.0000 0.0000 0.0000 23.5454 0.0000
# 6 0.0000 0.0000 0.0000 0.0000 0.0000 -1.2350
#
#
#
# Elastic Compliance Matrix: (Units=1/GPa)
#
#
# Indices 1 2 3 4 5 6 
#
# 1 0.010748 -0.004437 -0.004508 0.000000 0.000000 0.000000
# 2 -0.004437 0.013191 -0.002653 0.000000 0.000000 0.000000
# 3 -0.004508 -0.002653 0.020490 0.000000 0.000000 0.000000
# 4 0.000000 0.000000 0.000000 0.167752 0.000000 0.000000
# 5 0.000000 0.000000 0.000000 0.000000 0.042471 0.000000
# 6 0.000000 0.000000 0.000000 0.000000 0.000000 -0.809734
#
#
# Mechanical properties :
#
#
# Convention : Reuss Voigt Hill
#
# Bulk Modulus (GPa) = 47.09624 55.80456 51.45040
# Shear Modulus (GPa) = -9.52726 17.43665 3.95469
#
# Velocity S-wave (km/s) = -2.21365 2.99472 1.42620
# Velocity P-wave (km/s) = 4.20592 6.37654 5.40139
#
# Compressibility (1/GPa) = 0.02123312
#
# Stress axis : x y z
#
# Youngs Moduli (GPa) = 93.04220 75.81137 48.80458
#
# Poissons Ratio (x) = 0.33635 0.22001
# Poissons Ratio (y) = 0.41280 0.12947
# Poissons Ratio (z) = 0.41943 0.20112
#
# Static dielectric constant tensor:
#      x y z
#    x 1.699320 0.000000 0.000000 
#    y 0.000000 1.651970 0.000000 
#    z 0.000000 0.000000 1.714300 
# 
# From -- ./inp_files/40777.got.cif
#   From: 2010.05.17/outbox.cif.g08.bks.cpg/sg65_21_cif.got.tgz:40777.got - 2010.06.03 17:01:31.
