data_PCOD9489046
_publ_section_title
;
Structure prediction by ZEFSAII (Michael W. Deem and Ramdas Pophale) SiO2 
 PCOD9489046
Probable space group: C M M M
;
_chemical_formula_sum "Si O2"
_cell_formula_units_Z 128
_cell_length_a 14.704085
_cell_length_b 23.059055
_cell_length_c 23.470154
_cell_angle_alpha 90.000000
_cell_angle_beta 90.000000
_cell_angle_gamma 90.000000
_cell_volume 7957.844508
_symmetry_space_group_name_H-M "C M M M"
_symmetry_group_IT_number 65
_symmetry_cell_setting 'orthorhombic'
loop_
_space_group_symop_operation_xyz
x,y,z
-x,-y,z
x,-y,-z
-x,y,-z
-x,-y,-z
x,y,-z
-x,y,z
x,-y,z
1/2+x,1/2+y,z
1/2-x,1/2-y,z
1/2+x,1/2-y,-z
1/2-x,1/2+y,-z
1/2-x,1/2-y,-z
1/2+x,1/2+y,-z
1/2-x,1/2+y,z
1/2+x,1/2-y,z
loop_
_atom_site_type_symbol
_atom_site_label
_atom_site_fract_x
_atom_site_fract_y
_atom_site_fract_z
Si Si1 0.395132 0.429350 0.435228
Si Si2 0.749464 0.936829 0.060947
Si Si3 0.279220 0.430277 0.329422
Si Si4 0.108348 0.067111 0.784592
Si Si5 0.392572 0.887242 0.139661
Si Si6 0.891514 0.146527 0.893462
Si Si7 0.394978 0.930629 0.735071
Si Si8 0.109967 0.725847 0.066042
O O1 0.372948 0.411492 0.500000
O O2 0.500000 0.413025 0.422751
O O3 0.393421 0.500000 0.434667
O O4 0.326776 0.407667 0.386607
O O5 0.674653 0.931448 0.109372
O O6 0.828534 0.890401 0.065375
O O7 0.792797 0.000000 0.063720
O O8 0.701463 0.930311 0.000000
O O9 0.277318 0.500000 0.335542
O O10 0.340233 0.418662 0.273688
O O11 0.177118 0.412774 0.312885
O O12 0.127441 0.115212 0.832759
O O13 0.000000 0.067178 0.774997
O O14 0.132978 0.000000 0.801150
O O15 0.500000 0.898001 0.129338
O O16 0.379056 0.894229 0.207175
O O17 0.366684 0.827090 0.108099
O O18 0.865733 0.213339 0.904050
O O19 0.000000 0.141028 0.903837
O O20 0.500000 0.923437 0.718155
O O21 0.381839 0.000000 0.747626
O O22 0.000000 0.725302 0.062359
O O23 0.143210 0.721237 0.000000
#
# Coordination Sequence:
#
# PCOD9489046 Si02
#       8
#    16  16  16  16  16  16  16  16
#     4   8  13  21  35  58  88 121 154 181 204 236
#     4  11  23  34  46  66  86 107 139 175 218 275
#     4   9  15  24  39  58  84 114 144 180 213 246
#     4   9  16  25  40  62  85 112 144 175 213 259
#     4  10  20  35  52  67  85 108 139 186 236 277
#     4  10  20  34  49  65  89 117 144 178 217 265
#     4   9  17  28  43  62  82 108 141 177 223 273
#     4   9  18  33  52  69  84 110 147 182 225 282
#
# _framework density 16.084757
#
# number of rings (size 3 to 8) (size 9 to 14) (size 15 to 20)
#    0.000    2.625    0.000    3.000    0.000    6.000 
#    0.000    2.500    0.000    0.375    0.000    2.625 
#    0.000    0.000    0.000    2.250    0.000   20.250 
#
# Total GULP energy -356399.531092 kJ/mol
# GULP energy per Si atom -5568.742673 kJ/mol
# Density = 1.604815 g / cm^3
# Si number density = 16.084757 Si / 1000 Ang^3
#
#
#
# Elastic Constant Matrix: (Units=GPa)
#
#
# Indices 1 2 3 4 5 6 
#
# 1 64.2084 20.3436 67.3999 0.0000 0.0000 0.0000
# 2 20.3436 69.0635 26.7711 0.0000 0.0000 0.0000
# 3 67.3999 26.7711 112.7308 0.0000 0.0000 0.0000
# 4 0.0000 0.0000 0.0000 -65.2065 0.0000 0.0000
# 5 0.0000 0.0000 0.0000 0.0000 24.0675 0.0000
# 6 0.0000 0.0000 0.0000 0.0000 0.0000 13.3200
#
#
#
# Elastic Compliance Matrix: (Units=1/GPa)
#
#
# Indices 1 2 3 4 5 6 
#
# 1 0.042353 -0.002930 -0.024626 0.000000 0.000000 0.000000
# 2 -0.002930 0.016150 -0.002084 0.000000 0.000000 0.000000
# 3 -0.024626 -0.002084 0.024089 0.000000 0.000000 0.000000
# 4 0.000000 0.000000 0.000000 -0.015336 0.000000 0.000000
# 5 0.000000 0.000000 0.000000 0.000000 0.041550 0.000000
# 6 0.000000 0.000000 0.000000 0.000000 0.000000 0.075075
#
#
# Mechanical properties :
#
#
# Convention : Reuss Voigt Hill
#
# Bulk Modulus (GPa) = 42.89497 52.78133 47.83815
# Shear Modulus (GPa) = 19.92569 3.20208 11.56388
#
# Velocity S-wave (km/s) = 3.52347 1.41247 2.68420
# Velocity P-wave (km/s) = 6.57868 5.96203 6.27793
#
# Compressibility (1/GPa) = 0.02331276
#
# Stress axis : x y z
#
# Youngs Moduli (GPa) = 23.61102 61.91908 41.51221
#
# Poissons Ratio (x) = 0.18141 1.02230
# Poissons Ratio (y) = 0.06917 0.08650
# Poissons Ratio (z) = 0.58146 0.12902
#
# Static dielectric constant tensor:
#      x y z
#    x 1.561970 0.000000 0.000000 
#    y 0.000000 1.540260 0.000000 
#    z 0.000000 0.000000 1.542170 
# 
# From -- ./inp_files/64113.got.cif
#   From: 2010.05.17/outbox.cif.g08.bks.cpg/sg65_33_cif.got.tgz:64113.got - 2010.06.03 17:01:31.
