data_PCOD9489079
_publ_section_title
;
Structure prediction by ZEFSAII (Michael W. Deem and Ramdas Pophale) SiO2 
 PCOD9489079
Probable space group: C M M M
;
_chemical_formula_sum "Si O2"
_cell_formula_units_Z 104
_cell_length_a 31.346540
_cell_length_b 7.785099
_cell_length_c 24.086515
_cell_angle_alpha 90.000000
_cell_angle_beta 90.000000
_cell_angle_gamma 90.000000
_cell_volume 5877.974780
_symmetry_space_group_name_H-M "C M M M"
_symmetry_group_IT_number 65
_symmetry_cell_setting 'orthorhombic'
loop_
_space_group_symop_operation_xyz
x,y,z
-x,-y,z
x,-y,-z
-x,y,-z
-x,-y,-z
x,y,-z
-x,y,z
x,-y,z
1/2+x,1/2+y,z
1/2-x,1/2-y,z
1/2+x,1/2-y,-z
1/2-x,1/2+y,-z
1/2-x,1/2-y,-z
1/2+x,1/2+y,-z
1/2-x,1/2+y,z
1/2+x,1/2-y,z
loop_
_atom_site_type_symbol
_atom_site_label
_atom_site_fract_x
_atom_site_fract_y
_atom_site_fract_z
Si Si1 0.949967 0.206854 0.940258
Si Si2 0.385767 0.794811 0.725275
Si Si3 0.203197 0.796495 0.317278
Si Si4 0.318264 0.297786 0.560196
Si Si5 0.450853 0.795360 0.818024
Si Si6 0.000000 0.696885 0.565840
Si Si7 0.908784 0.709638 0.398864
O O1 0.933996 0.267678 0.880688
O O2 0.000000 0.257088 0.940547
O O3 0.948182 0.000000 0.939891
O O4 0.931717 0.265551 0.000000
O O5 0.335303 0.758254 0.722843
O O6 0.416732 0.726008 0.773469
O O7 0.401388 0.737664 0.664661
O O8 0.389920 0.000000 0.726775
O O9 0.250000 0.750000 0.296752
O O10 0.198038 0.723139 0.380690
O O11 0.199599 0.000000 0.322570
O O12 0.304599 0.224560 0.500000
O O13 0.307448 0.500000 0.559524
O O14 0.369369 0.278083 0.565606
O O15 0.500000 0.727050 0.813193
O O16 0.454140 0.000000 0.809716
O O17 0.044837 0.773545 0.583745
O O18 0.000000 0.500000 0.588367
O O19 0.000000 0.688153 0.500000
O O20 0.907474 0.500000 0.403303
#
# Coordination Sequence:
#
# PCOD9489079 Si02
#       7
#    16  16  16  16  16   8  16
#     4   8  14  25  40  59  87 124 162 195 226 259
#     4   9  18  31  46  65  90 119 150 184 224 266
#     4  10  20  34  51  68  87 111 142 180 227 278
#     4   9  18  32  47  63  85 109 133 169 220 275
#     4   9  17  27  42  66  95 126 159 192 224 260
#     4   9  16  24  37  59  81 103 140 185 220 252
#     4   9  17  28  43  60  81 111 145 182 219 258
#
# _framework density 17.693169000000001
#
# number of rings (size 3 to 8) (size 9 to 14) (size 15 to 20)
#    0.000    3.000    0.000    1.385    1.077    2.769 
#    0.000    1.923    0.000    1.385    0.000    0.000 
#    0.000    0.615    0.000    2.000    0.000    2.923 
#
# Total GULP energy -289508.120093 kJ/mol
# GULP energy per Si atom -5567.463848 kJ/mol
# Density = 1.765290 g / cm^3
# Si number density = 17.693169 Si / 1000 Ang^3
#
#
#
# Elastic Constant Matrix: (Units=GPa)
#
#
# Indices 1 2 3 4 5 6 
#
# 1 96.4304 -5.7307 44.0252 0.0000 0.0000 0.0000
# 2 -5.7307 20.3319 7.6360 0.0000 0.0000 0.0000
# 3 44.0252 7.6360 110.5473 0.0000 0.0000 0.0000
# 4 0.0000 0.0000 0.0000 14.6366 0.0000 0.0000
# 5 0.0000 0.0000 0.0000 0.0000 -2.7070 0.0000
# 6 0.0000 0.0000 0.0000 0.0000 0.0000 14.5384
#
#
#
# Elastic Compliance Matrix: (Units=1/GPa)
#
#
# Indices 1 2 3 4 5 6 
#
# 1 0.013331 0.005905 -0.005717 0.000000 0.000000 0.000000
# 2 0.005905 0.053109 -0.006020 0.000000 0.000000 0.000000
# 3 -0.005717 -0.006020 0.011738 0.000000 0.000000 0.000000
# 4 0.000000 0.000000 0.000000 0.068322 0.000000 0.000000
# 5 0.000000 0.000000 0.000000 0.000000 -0.369416 0.000000
# 6 0.000000 0.000000 0.000000 0.000000 0.000000 0.068783
#
#
# Mechanical properties :
#
#
# Convention : Reuss Voigt Hill
#
# Bulk Modulus (GPa) = 15.03445 35.46339 25.24892
# Shear Modulus (GPa) = -41.56393 17.38555 -12.08919
#
# Velocity S-wave (km/s) = -4.85206 3.13807 -2.61678
# Velocity P-wave (km/s) = 4.78270 5.76342 2.27407
#
# Compressibility (1/GPa) = 0.06651392
#
# Stress axis : x y z
#
# Youngs Moduli (GPa) = 75.01236 18.82923 85.18990
#
# Poissons Ratio (x) = -0.11118 0.48703
# Poissons Ratio (y) = -0.44291 0.51284
# Poissons Ratio (z) = 0.42884 0.11335
#
# Static dielectric constant tensor:
#      x y z
#    x 1.590910 0.000000 0.000000 
#    y 0.000000 1.661710 0.000000 
#    z 0.000000 0.000000 1.636060 
# 
# From -- ./inp_files/72158.got.cif
#   From: 2010.05.17/outbox.cif.g08.bks.cpg/sg65_37_cif.got.tgz:72158.got - 2010.06.03 17:01:31.
