data_PCOD9489859
_publ_section_title
;
Structure prediction by ZEFSAII (Michael W. Deem and Ramdas Pophale) SiO2 
 PCOD9489859
Probable space group: C M M M
;
_chemical_formula_sum "Si O2"
_cell_formula_units_Z 104
_cell_length_a 29.083631
_cell_length_b 24.605600
_cell_length_c 8.911522
_cell_angle_alpha 90.000000
_cell_angle_beta 90.000000
_cell_angle_gamma 90.000000
_cell_volume 6377.265075
_symmetry_space_group_name_H-M "C M M M"
_symmetry_group_IT_number 65
_symmetry_cell_setting 'orthorhombic'
loop_
_space_group_symop_operation_xyz
x,y,z
-x,-y,z
x,-y,-z
-x,y,-z
-x,-y,-z
x,y,-z
-x,y,z
x,-y,z
1/2+x,1/2+y,z
1/2-x,1/2-y,z
1/2+x,1/2-y,-z
1/2-x,1/2+y,-z
1/2-x,1/2-y,-z
1/2+x,1/2+y,-z
1/2-x,1/2+y,z
1/2+x,1/2-y,z
loop_
_atom_site_type_symbol
_atom_site_label
_atom_site_fract_x
_atom_site_fract_y
_atom_site_fract_z
Si Si1 0.445201 0.732833 0.322319
Si Si2 0.912180 0.124013 0.179095
Si Si3 0.871825 0.562441 0.180447
Si Si4 0.776842 0.565939 0.327063
Si Si5 0.053318 0.650434 0.180919
Si Si6 0.500000 0.565119 0.322943
Si Si7 0.825533 0.064255 0.681405
O O1 0.436412 0.730531 0.500000
O O2 0.500000 0.723549 0.298837
O O3 0.418488 0.685313 0.237808
O O4 0.434849 0.792365 0.257553
O O5 0.954824 0.090113 0.247266
O O6 0.865374 0.097906 0.240461
O O7 0.913839 0.122209 0.000000
O O8 0.878774 0.500000 0.232789
O O9 0.821810 0.581914 0.235364
O O10 0.912191 0.602842 0.229169
O O11 0.871896 0.561433 0.000000
O O12 0.782193 0.582980 0.500000
O O13 0.775544 0.500000 0.325476
O O14 0.726041 0.582492 0.273394
O O15 0.000000 0.637620 0.216565
O O16 0.056470 0.656385 0.000000
O O17 0.500000 0.500000 0.308841
O O18 0.500000 0.579085 0.500000
O O19 0.828614 0.069206 0.500000
O O20 0.830827 0.000000 0.716183
#
# Coordination Sequence:
#
# PCOD9489859 Si02
#       7
#    16  16  16  16  16   8  16
#     4  10  20  35  54  71  92 127 172 212 249 297
#     4  12  23  33  50  74 100 129 164 209 256 300
#     4   9  17  29  48  76 107 137 165 197 244 297
#     4   8  15  29  49  71  96 130 169 205 241 289
#     4   9  18  32  50  73 103 135 168 206 244 289
#     4  11  23  37  51  69  99 137 170 203 248 299
#     4   9  18  33  51  71  98 132 168 205 249 300
#
# _framework density 16.307931
#
# number of rings (size 3 to 8) (size 9 to 14) (size 15 to 20)
#    0.000    2.385    0.769    3.462    0.000    4.923 
#    0.000    3.077    0.000    0.923    0.000   10.769 
#    0.000    0.000    0.000    0.000    0.000    0.000 
#
# Total GULP energy -289986.077475 kJ/mol
# GULP energy per Si atom -5576.655336 kJ/mol
# Density = 1.627081 g / cm^3
# Si number density = 16.307931 Si / 1000 Ang^3
#
#
#
# Elastic Constant Matrix: (Units=GPa)
#
#
# Indices 1 2 3 4 5 6 
#
# 1 142.6602 86.7943 56.5166 0.0000 0.0000 0.0000
# 2 86.7943 97.8309 50.9518 0.0000 0.0000 0.0000
# 3 56.5166 50.9518 56.1903 0.0000 0.0000 0.0000
# 4 0.0000 0.0000 0.0000 21.9968 0.0000 0.0000
# 5 0.0000 0.0000 0.0000 0.0000 27.6154 0.0000
# 6 0.0000 0.0000 0.0000 0.0000 0.0000 2.9494
#
#
#
# Elastic Compliance Matrix: (Units=1/GPa)
#
#
# Indices 1 2 3 4 5 6 
#
# 1 0.016302 -0.011224 -0.006219 0.000000 0.000000 0.000000
# 2 -0.011224 0.027097 -0.013281 0.000000 0.000000 0.000000
# 3 -0.006219 -0.013281 0.036095 0.000000 0.000000 0.000000
# 4 0.000000 0.000000 0.000000 0.045461 0.000000 0.000000
# 5 0.000000 0.000000 0.000000 0.000000 0.036212 0.000000
# 6 0.000000 0.000000 0.000000 0.000000 0.000000 0.339047
#
#
# Mechanical properties :
#
#
# Convention : Reuss Voigt Hill
#
# Bulk Modulus (GPa) = 55.41739 76.13411 65.77575
# Shear Modulus (GPa) = 8.80783 17.34025 13.07404
#
# Velocity S-wave (km/s) = 2.32651 3.26437 2.83450
# Velocity P-wave (km/s) = 6.42437 7.80992 7.15078
#
# Compressibility (1/GPa) = 0.01804488
#
# Stress axis : x y z
#
# Youngs Moduli (GPa) = 61.34159 36.90509 27.70463
#
# Poissons Ratio (x) = 0.41422 0.17230
# Poissons Ratio (y) = 0.68850 0.36795
# Poissons Ratio (z) = 0.38150 0.49014
#
# Static dielectric constant tensor:
#      x y z
#    x 1.542820 0.000000 0.000000 
#    y 0.000000 1.531260 0.000000 
#    z 0.000000 0.000000 1.546000 
# 
# From -- ./inp_files/14817.got.cif
#   From: 2010.05.17/outbox.cif.g08.bks.cpg/sg65_8_cif.got.tgz:14817.got - 2010.06.03 17:01:31.
