data_PCOD9489596
_publ_section_title
;
Structure prediction by ZEFSAII (Michael W. Deem and Ramdas Pophale) SiO2 
 PCOD9489596
Probable space group: C M M M
;
_chemical_formula_sum "Si O2"
_cell_formula_units_Z 80
_cell_length_a 26.616922
_cell_length_b 18.741639
_cell_length_c 8.298563
_cell_angle_alpha 90.000000
_cell_angle_beta 90.000000
_cell_angle_gamma 90.000000
_cell_volume 4139.694530
_symmetry_space_group_name_H-M "C M M M"
_symmetry_group_IT_number 65
_symmetry_cell_setting 'orthorhombic'
loop_
_space_group_symop_operation_xyz
x,y,z
-x,-y,z
x,-y,-z
-x,y,-z
-x,-y,-z
x,y,-z
-x,y,z
x,-y,z
1/2+x,1/2+y,z
1/2-x,1/2-y,z
1/2+x,1/2-y,-z
1/2-x,1/2+y,-z
1/2-x,1/2-y,-z
1/2+x,1/2+y,-z
1/2-x,1/2+y,z
1/2+x,1/2-y,z
loop_
_atom_site_type_symbol
_atom_site_label
_atom_site_fract_x
_atom_site_fract_y
_atom_site_fract_z
Si Si1 0.695294 0.917611 0.305565
Si Si2 0.097314 0.168346 0.806911
Si Si3 0.098250 0.330765 0.305140
Si Si4 0.694660 0.417712 0.805605
Si Si5 0.500000 0.917825 0.302968
Si Si6 0.500000 0.418108 0.693055
O O1 0.694520 0.917937 0.500000
O O2 0.649690 0.868233 0.248660
O O3 0.750361 0.893436 0.250366
O O4 0.688366 0.000000 0.251604
O O5 0.094322 0.249390 0.748505
O O6 0.148704 0.130801 0.748299
O O7 0.049438 0.123266 0.750428
O O8 0.097958 0.167932 0.000000
O O9 0.098434 0.332331 0.500000
O O10 0.049941 0.376149 0.250943
O O11 0.687890 0.500000 0.751219
O O12 0.694210 0.417813 0.000000
O O13 0.500000 0.918178 0.500000
O O14 0.500000 0.000000 0.250729
O O15 0.500000 0.500000 0.752024
O O16 0.500000 0.418920 0.500000
#
# Coordination Sequence:
#
# PCOD9489596 Si02
#       6
#    16  16  16  16   8   8
#     4   9  18  33  54  80 109 143 185 232 279 326
#     4  11  23  38  57  81 112 147 182 222 269 325
#     4  10  20  34  54  81 112 143 180 227 275 325
#     4   9  19  36  56  77 103 140 185 227 268 319
#     4   9  17  32  56  80 102 135 178 221 266 320
#     4  11  24  41  62  86 110 139 178 223 272 326
#
# _framework density 19.325095999999998
#
# number of rings (size 3 to 8) (size 9 to 14) (size 15 to 20)
#    0.000    2.200    0.000    2.700    0.000    8.000 
#    0.000    6.000    0.000    2.400    0.000    0.000 
#    0.000    0.000    0.000    0.000    0.000    0.000 
#
# Total GULP energy -223402.669376 kJ/mol
# GULP energy per Si atom -5585.066734 kJ/mol
# Density = 1.928111 g / cm^3
# Si number density = 19.325096 Si / 1000 Ang^3
#
#
#
# Elastic Constant Matrix: (Units=GPa)
#
#
# Indices 1 2 3 4 5 6 
#
# 1 224.7208 140.5498 22.5269 0.0000 0.0000 0.0000
# 2 140.5498 171.9354 17.1927 0.0000 0.0000 0.0000
# 3 22.5269 17.1927 11.6001 0.0000 0.0000 0.0000
# 4 0.0000 0.0000 0.0000 15.0699 0.0000 0.0000
# 5 0.0000 0.0000 0.0000 0.0000 39.2318 0.0000
# 6 0.0000 0.0000 0.0000 0.0000 0.0000 38.6322
#
#
#
# Elastic Compliance Matrix: (Units=1/GPa)
#
#
# Indices 1 2 3 4 5 6 
#
# 1 0.009750 -0.007134 -0.008361 0.000000 0.000000 0.000000
# 2 -0.007134 0.012048 -0.004003 0.000000 0.000000 0.000000
# 3 -0.008361 -0.004003 0.108374 0.000000 0.000000 0.000000
# 4 0.000000 0.000000 0.000000 0.066357 0.000000 0.000000
# 5 0.000000 0.000000 0.000000 0.000000 0.025490 0.000000
# 6 0.000000 0.000000 0.000000 0.000000 0.000000 0.025885
#
#
# Mechanical properties :
#
#
# Convention : Reuss Voigt Hill
#
# Bulk Modulus (GPa) = 10.96755 85.42167 48.19461
# Shear Modulus (GPa) = 15.75835 33.78592 24.77213
#
# Velocity S-wave (km/s) = 2.85868 4.18579 3.58420
# Velocity P-wave (km/s) = 4.07231 8.22554 6.49012
#
# Compressibility (1/GPa) = 0.09117804
#
# Stress axis : x y z
#
# Youngs Moduli (GPa) = 102.56235 82.99869 9.22728
#
# Poissons Ratio (x) = 0.59214 0.07714
# Poissons Ratio (y) = 0.73171 0.03693
# Poissons Ratio (z) = 0.85747 0.33221
#
# Static dielectric constant tensor:
#      x y z
#    x 1.657880 0.000000 0.000000 
#    y 0.000000 1.646590 0.000000 
#    z 0.000000 0.000000 1.675880 
# 
# From -- ./inp_files/16102.got.cif
#   From: 2010.05.17/outbox.cif.g08.bks.cpg/sg65_9_cif.got.tgz:16102.got - 2010.06.03 17:01:31.
