data_PCOD9489577
_publ_section_title
;
Structure prediction by ZEFSAII (Michael W. Deem and Ramdas Pophale) SiO2 
 PCOD9489577
Probable space group: C M M M
;
_chemical_formula_sum "Si O2"
_cell_formula_units_Z 104
_cell_length_a 8.655479
_cell_length_b 29.217978
_cell_length_c 23.564185
_cell_angle_alpha 90.000000
_cell_angle_beta 90.000000
_cell_angle_gamma 90.000000
_cell_volume 5959.278586
_symmetry_space_group_name_H-M "C M M M"
_symmetry_group_IT_number 65
_symmetry_cell_setting 'orthorhombic'
loop_
_space_group_symop_operation_xyz
x,y,z
-x,-y,z
x,-y,-z
-x,y,-z
-x,-y,-z
x,y,-z
-x,y,z
x,-y,z
1/2+x,1/2+y,z
1/2-x,1/2-y,z
1/2+x,1/2-y,-z
1/2-x,1/2+y,-z
1/2-x,1/2-y,-z
1/2+x,1/2+y,-z
1/2-x,1/2+y,z
1/2+x,1/2-y,z
loop_
_atom_site_type_symbol
_atom_site_label
_atom_site_fract_x
_atom_site_fract_y
_atom_site_fract_z
Si Si1 0.814437 0.946514 0.000000
Si Si2 0.814257 0.606693 0.891386
Si Si3 0.188064 0.552439 0.221768
Si Si4 0.184776 0.799480 0.718956
Si Si5 0.686311 0.447407 0.434562
Si Si6 0.685082 0.890366 0.668209
Si Si7 0.185199 0.200286 0.851583
O O1 0.750293 0.920816 0.944787
O O2 0.000000 0.944553 0.000000
O O3 0.767476 0.000000 0.000000
O O4 0.764158 0.580599 0.833749
O O5 0.752693 0.658389 0.887277
O O6 0.000000 0.607135 0.893407
O O7 0.241155 0.500000 0.219564
O O8 0.237898 0.577608 0.279193
O O9 0.000000 0.551936 0.221915
O O10 0.250000 0.750000 0.702437
O O11 0.250234 0.840170 0.681016
O O12 0.230514 0.807195 0.785187
O O13 0.000000 0.798964 0.716452
O O14 0.730108 0.438117 0.500000
O O15 0.500000 0.445335 0.431366
O O16 0.732363 0.500000 0.421284
O O17 0.757455 0.412739 0.389820
O O18 0.500000 0.888867 0.668690
O O19 0.250000 0.250000 0.868212
O O20 0.000000 0.200608 0.854911
#
# Coordination Sequence:
#
# PCOD9489577 Si02
#       7
#     8  16  16  16  16  16  16
#     4  11  25  43  60  81 112 149 191 235 277 327
#     4  11  21  37  60  83 111 147 188 229 277 334
#     4   9  18  31  49  77 111 142 175 222 274 323
#     4  10  20  34  54  80 113 148 185 225 274 332
#     4   9  19  36  55  76 108 151 194 233 275 326
#     4  11  20  32  53  82 115 145 182 229 280 331
#     4  10  20  35  57  84 115 147 183 226 277 332
#
# _framework density 17.451777
#
# number of rings (size 3 to 8) (size 9 to 14) (size 15 to 20)
#    0.000    1.923    1.538    3.462    0.000    3.692 
#    0.000    1.154    0.000    4.154    0.000    0.000 
#    0.000    0.000    0.000    0.000    0.000    0.000 
#
# Total GULP energy -290407.254492 kJ/mol
# GULP energy per Si atom -5584.754894 kJ/mol
# Density = 1.741206 g / cm^3
# Si number density = 17.451777 Si / 1000 Ang^3
#
#
#
# Elastic Constant Matrix: (Units=GPa)
#
#
# Indices 1 2 3 4 5 6 
#
# 1 47.1169 49.4364 36.9142 0.0000 0.0000 0.0000
# 2 49.4364 184.7496 89.8645 0.0000 0.0000 0.0000
# 3 36.9142 89.8645 107.1246 0.0000 0.0000 0.0000
# 4 0.0000 0.0000 0.0000 32.3074 0.0000 0.0000
# 5 0.0000 0.0000 0.0000 0.0000 25.8473 0.0000
# 6 0.0000 0.0000 0.0000 0.0000 0.0000 25.3234
#
#
#
# Elastic Compliance Matrix: (Units=1/GPa)
#
#
# Indices 1 2 3 4 5 6 
#
# 1 0.031972 -0.005400 -0.006488 0.000000 0.000000 0.000000
# 2 -0.005400 0.010056 -0.006575 0.000000 0.000000 0.000000
# 3 -0.006488 -0.006575 0.017086 0.000000 0.000000 0.000000
# 4 0.000000 0.000000 0.000000 0.030953 0.000000 0.000000
# 5 0.000000 0.000000 0.000000 0.000000 0.038689 0.000000
# 6 0.000000 0.000000 0.000000 0.000000 0.000000 0.039489
#
#
# Mechanical properties :
#
#
# Convention : Reuss Voigt Hill
#
# Bulk Modulus (GPa) = 45.06631 76.82458 60.94545
# Shear Modulus (GPa) = 23.52219 27.54734 25.53476
#
# Velocity S-wave (km/s) = 3.67528 3.97732 3.82928
# Velocity P-wave (km/s) = 6.62492 8.07519 7.38574
#
# Compressibility (1/GPa) = 0.02218952
#
# Stress axis : x y z
#
# Youngs Moduli (GPa) = 31.27725 99.44649 58.52740
#
# Poissons Ratio (x) = 0.53697 0.37971
# Poissons Ratio (y) = 0.16888 0.38481
# Poissons Ratio (z) = 0.20292 0.65384
#
# Static dielectric constant tensor:
#      x y z
#    x 1.581910 0.000000 0.000000 
#    y 0.000000 1.575440 0.000000 
#    z 0.000000 0.000000 1.573020 
# 
# From -- ./inp_files/60915.got.cif
#   From: 2010.05.17/outbox.cif.g08.bks.cpg/sg65_31_cif.got.tgz:60915.got - 2010.06.03 17:01:31.
