data_PCOD9489002
_publ_section_title
;
Structure prediction by ZEFSAII (Michael W. Deem and Ramdas Pophale) SiO2 
 PCOD9489002
Probable space group: C M M M
;
_chemical_formula_sum "Si O2"
_cell_formula_units_Z 112
_cell_length_a 24.787798
_cell_length_b 13.931721
_cell_length_c 15.255993
_cell_angle_alpha 90.000000
_cell_angle_beta 90.000000
_cell_angle_gamma 90.000000
_cell_volume 5268.454063
_symmetry_space_group_name_H-M "C M M M"
_symmetry_group_IT_number 65
_symmetry_cell_setting 'orthorhombic'
loop_
_space_group_symop_operation_xyz
x,y,z
-x,-y,z
x,-y,-z
-x,y,-z
-x,-y,-z
x,y,-z
-x,y,z
x,-y,z
1/2+x,1/2+y,z
1/2-x,1/2-y,z
1/2+x,1/2-y,-z
1/2-x,1/2+y,-z
1/2-x,1/2-y,-z
1/2+x,1/2+y,-z
1/2-x,1/2+y,z
1/2+x,1/2-y,z
loop_
_atom_site_type_symbol
_atom_site_label
_atom_site_fract_x
_atom_site_fract_y
_atom_site_fract_z
Si Si1 0.938669 0.294895 0.790932
Si Si2 0.707322 0.114581 0.653843
Si Si3 0.281516 0.393771 0.899627
Si Si4 0.675717 0.806835 0.159638
Si Si5 0.828676 0.105667 0.604529
Si Si6 0.064429 0.892277 0.901084
Si Si7 0.897214 0.286791 0.400342
O O1 0.886532 0.339835 0.840063
O O2 0.929876 0.184617 0.823320
O O3 0.931744 0.312956 0.686175
O O4 0.000000 0.321819 0.816143
O O5 0.696879 0.167395 0.744448
O O6 0.767707 0.138102 0.623802
O O7 0.656662 0.147904 0.596323
O O8 0.705102 0.000000 0.663466
O O9 0.286301 0.500000 0.859173
O O10 0.314414 0.306592 0.856363
O O11 0.218687 0.362490 0.899476
O O12 0.298883 0.398505 0.000000
O O13 0.831202 0.098197 0.500000
O O14 0.873835 0.182489 0.626081
O O15 0.837347 0.000000 0.643367
O O16 0.000000 0.901869 0.907336
O O17 0.086768 0.000000 0.885671
O O18 0.081748 0.859634 0.000000
O O19 0.920591 0.285483 0.500000
#
# Coordination Sequence:
#
# PCOD9489002 Si02
#       7
#    16  16  16  16  16  16  16
#     4  10  22  37  55  80 115 162 209 251 303 356
#     4  10  20  33  54  83 115 149 188 241 307 370
#     4  10  22  40  63  91 122 158 196 239 304 378
#     4  10  21  36  57  86 120 154 196 245 299 356
#     4   9  18  32  51  78 111 146 184 233 297 364
#     4   8  15  30  52  78 107 139 183 241 298 351
#     4  10  21  35  54  80 113 155 206 256 301 357
#
# _framework density 21.258607000000001
#
# number of rings (size 3 to 8) (size 9 to 14) (size 15 to 20)
#    0.000    2.429    0.000    2.571    8.000    4.571 
#    0.000    1.429    0.000   10.714    0.000    9.000 
#    0.000    0.000    0.000    0.000    0.000    0.000 
#
# Total GULP energy -311984.436456 kJ/mol
# GULP energy per Si atom -5571.150651 kJ/mol
# Density = 2.121022 g / cm^3
# Si number density = 21.258607 Si / 1000 Ang^3
#
#
#
# Elastic Constant Matrix: (Units=GPa)
#
#
# Indices 1 2 3 4 5 6 
#
# 1 131.3134 -0.8971 5.4447 0.0000 0.0000 0.0000
# 2 -0.8971 42.8426 1.1855 0.0000 0.0000 0.0000
# 3 5.4447 1.1855 77.7252 0.0000 0.0000 0.0000
# 4 0.0000 0.0000 0.0000 26.7988 0.0000 0.0000
# 5 0.0000 0.0000 0.0000 0.0000 -7.9441 0.0000
# 6 0.0000 0.0000 0.0000 0.0000 0.0000 2.9990
#
#
#
# Elastic Compliance Matrix: (Units=1/GPa)
#
#
# Indices 1 2 3 4 5 6 
#
# 1 0.007639 0.000175 -0.000538 0.000000 0.000000 0.000000
# 2 0.000175 0.023355 -0.000368 0.000000 0.000000 0.000000
# 3 -0.000538 -0.000368 0.012909 0.000000 0.000000 0.000000
# 4 0.000000 0.000000 0.000000 0.037315 0.000000 0.000000
# 5 0.000000 0.000000 0.000000 0.000000 -0.125879 0.000000
# 6 0.000000 0.000000 0.000000 0.000000 0.000000 0.333447
#
#
# Mechanical properties :
#
#
# Convention : Reuss Voigt Hill
#
# Bulk Modulus (GPa) = 23.56250 29.26082 26.41166
# Shear Modulus (GPa) = 16.42599 20.78060 18.60330
#
# Velocity S-wave (km/s) = 2.78272 3.12992 2.96141
# Velocity P-wave (km/s) = 4.62953 5.18227 4.91368
#
# Compressibility (1/GPa) = 0.04244031
#
# Stress axis : x y z
#
# Youngs Moduli (GPa) = 130.90956 42.81715 77.46454
#
# Poissons Ratio (x) = -0.00749 0.04166
# Poissons Ratio (y) = -0.02289 0.02854
# Poissons Ratio (z) = 0.07040 0.01578
#
# Static dielectric constant tensor:
#      x y z
#    x 1.811280 0.000000 0.000000 
#    y 0.000000 1.827390 0.000000 
#    z 0.000000 0.000000 1.880450 
# 
# From -- ./inp_files/47018.got.cif
#   From: 2010.05.17/outbox.cif.g08.bks.cpg/sg65_24_cif.got.tgz:47018.got - 2010.06.03 17:01:31.
