data_PCOD9489925
_publ_section_title
;
Structure prediction by ZEFSAII (Michael W. Deem and Ramdas Pophale) SiO2 
 PCOD9489925
Probable space group: C M M M
;
_chemical_formula_sum "Si O2"
_cell_formula_units_Z 80
_cell_length_a 9.026968
_cell_length_b 28.616129
_cell_length_c 21.428807
_cell_angle_alpha 90.000000
_cell_angle_beta 90.000000
_cell_angle_gamma 90.000000
_cell_volume 5535.422583
_symmetry_space_group_name_H-M "C M M M"
_symmetry_group_IT_number 65
_symmetry_cell_setting 'orthorhombic'
loop_
_space_group_symop_operation_xyz
x,y,z
-x,-y,z
x,-y,-z
-x,y,-z
-x,-y,-z
x,y,-z
-x,y,z
x,-y,z
1/2+x,1/2+y,z
1/2-x,1/2-y,z
1/2+x,1/2-y,-z
1/2-x,1/2+y,-z
1/2-x,1/2-y,-z
1/2+x,1/2+y,-z
1/2-x,1/2+y,z
1/2+x,1/2-y,z
loop_
_atom_site_type_symbol
_atom_site_label
_atom_site_fract_x
_atom_site_fract_y
_atom_site_fract_z
Si Si1 0.828418 0.943247 0.125881
Si Si2 0.173999 0.943930 0.500000
Si Si3 0.321517 0.444283 0.265378
Si Si4 0.177556 0.393720 0.617892
Si Si5 0.675328 0.299768 0.574768
Si Si6 0.670977 0.056870 0.000000
O O1 0.775803 0.929637 0.195076
O O2 0.000000 0.930005 0.120287
O O3 0.822798 0.000000 0.125820
O O4 0.744182 0.926672 0.064442
O O5 0.253541 0.923513 0.439097
O O6 0.000000 0.930032 0.500000
O O7 0.181170 0.000000 0.500000
O O8 0.500000 0.437726 0.270930
O O9 0.294804 0.500000 0.272283
O O10 0.236242 0.416424 0.318347
O O11 0.241859 0.341711 0.609260
O O12 0.000000 0.393878 0.614709
O O13 0.691496 0.307627 0.500000
O O14 0.500000 0.299394 0.588650
O O15 0.750000 0.250000 0.588901
O O16 0.500000 0.068968 0.000000
O O17 0.683675 0.000000 0.000000
#
# Coordination Sequence:
#
# PCOD9489925 Si02
#       6
#    16   8  16  16  16   8
#     4   8  14  25  40  56  76 108 149 186 218 258
#     4  11  23  37  50  63  84 117 155 191 225 261
#     4   9  18  32  47  62  85 120 158 191 225 266
#     4  12  23  33  48  69  92 116 146 184 227 272
#     4  10  20  35  55  73  91 112 139 178 225 273
#     4   9  15  21  33  55  81 107 138 181 226 261
#
# _framework density 14.452373
#
# number of rings (size 3 to 8) (size 9 to 14) (size 15 to 20)
#    0.000    2.200    1.000    4.800    0.000    6.400 
#    0.000    2.000    0.000    0.000    0.000    0.000 
#    0.000    0.000    0.000    0.900    0.000   11.900 
#
# Total GULP energy -223045.165415 kJ/mol
# GULP energy per Si atom -5576.129135 kJ/mol
# Density = 1.441948 g / cm^3
# Si number density = 14.452373 Si / 1000 Ang^3
#
#
#
# Elastic Constant Matrix: (Units=GPa)
#
#
# Indices 1 2 3 4 5 6 
#
# 1 110.8902 50.6807 84.8718 0.0000 0.0000 0.0000
# 2 50.6807 65.5492 51.7014 0.0000 0.0000 0.0000
# 3 84.8718 51.7014 150.5375 0.0000 0.0000 0.0000
# 4 0.0000 0.0000 0.0000 0.3576 0.0000 0.0000
# 5 0.0000 0.0000 0.0000 0.0000 7.6286 0.0000
# 6 0.0000 0.0000 0.0000 0.0000 0.0000 20.3270
#
#
#
# Elastic Compliance Matrix: (Units=1/GPa)
#
#
# Indices 1 2 3 4 5 6 
#
# 1 0.018748 -0.008446 -0.007669 0.000000 0.000000 0.000000
# 2 -0.008446 0.024729 -0.003731 0.000000 0.000000 0.000000
# 3 -0.007669 -0.003731 0.012248 0.000000 0.000000 0.000000
# 4 0.000000 0.000000 0.000000 2.796212 0.000000 0.000000
# 5 0.000000 0.000000 0.000000 0.000000 0.131085 0.000000
# 6 0.000000 0.000000 0.000000 0.000000 0.000000 0.049196
#
#
# Mechanical properties :
#
#
# Convention : Reuss Voigt Hill
#
# Bulk Modulus (GPa) = 62.37540 77.94275 70.15907
# Shear Modulus (GPa) = 1.62482 14.97751 8.30117
#
# Velocity S-wave (km/s) = 1.06146 3.22271 2.39922
# Velocity P-wave (km/s) = 6.68994 8.23988 7.50503
#
# Compressibility (1/GPa) = 0.01603196
#
# Stress axis : x y z
#
# Youngs Moduli (GPa) = 53.33941 40.43816 81.64595
#
# Poissons Ratio (x) = 0.34156 0.62614
# Poissons Ratio (y) = 0.45053 0.30463
# Poissons Ratio (z) = 0.40906 0.15088
#
# Static dielectric constant tensor:
#      x y z
#    x 1.477580 0.000000 0.000000 
#    y 0.000000 1.451360 0.000000 
#    z 0.000000 0.000000 1.482580 
# 
# From -- ./inp_files/60072.got.cif
#   From: 2010.05.17/outbox.cif.g08.bks.cpg/sg65_31_cif.got.tgz:60072.got - 2010.06.03 17:01:31.
