data_PCOD9489986
_publ_section_title
;
Structure prediction by ZEFSAII (Michael W. Deem and Ramdas Pophale) SiO2 
 PCOD9489986
Probable space group: C M M M
;
_chemical_formula_sum "Si O2"
_cell_formula_units_Z 88
_cell_length_a 18.561822
_cell_length_b 24.023152
_cell_length_c 10.922059
_cell_angle_alpha 90.000000
_cell_angle_beta 90.000000
_cell_angle_gamma 90.000000
_cell_volume 4870.293242
_symmetry_space_group_name_H-M "C M M M"
_symmetry_group_IT_number 65
_symmetry_cell_setting 'orthorhombic'
loop_
_space_group_symop_operation_xyz
x,y,z
-x,-y,z
x,-y,-z
-x,y,-z
-x,-y,-z
x,y,-z
-x,y,z
x,-y,z
1/2+x,1/2+y,z
1/2-x,1/2-y,z
1/2+x,1/2-y,-z
1/2-x,1/2+y,-z
1/2-x,1/2-y,-z
1/2+x,1/2+y,-z
1/2-x,1/2+y,z
1/2+x,1/2-y,z
loop_
_atom_site_type_symbol
_atom_site_label
_atom_site_fract_x
_atom_site_fract_y
_atom_site_fract_z
Si Si1 0.086032 0.140988 0.270345
Si Si2 0.087155 0.936539 0.500000
Si Si3 0.316089 0.561829 0.856421
Si Si4 0.845313 0.567001 0.143844
Si Si5 0.833214 0.751151 0.645338
Si Si6 0.085163 0.365453 0.640435
O O1 0.106921 0.100481 0.383526
O O2 0.122470 0.106917 0.162055
O O3 0.121741 0.200761 0.288666
O O4 0.000000 0.145150 0.263563
O O5 0.000000 0.940048 0.500000
O O6 0.114721 0.000000 0.500000
O O7 0.334761 0.500000 0.806683
O O8 0.236829 0.579991 0.812797
O O9 0.304969 0.555429 0.000000
O O10 0.852087 0.500000 0.144436
O O11 0.895522 0.593972 0.247189
O O12 0.856536 0.584662 0.000000
O O13 0.834278 0.764369 0.500000
O O14 0.750000 0.750000 0.685390
O O15 0.870417 0.691378 0.659884
O O16 0.101615 0.385621 0.500000
O O17 0.000000 0.353441 0.643165
#
# Coordination Sequence:
#
# PCOD9489986 Si02
#       6
#    16   8  16  16  16  16
#     4  11  20  32  53  78 108 142 180 226 273 326
#     4   9  18  30  45  72 108 140 169 210 266 319
#     4   9  19  36  55  76 107 146 185 226 273 326
#     4   9  19  38  61  82 109 148 190 230 277 336
#     4  10  20  35  55  78 106 146 188 227 272 333
#     4  10  21  36  56  84 117 146 179 229 285 337
#
# _framework density 18.068728
#
# number of rings (size 3 to 8) (size 9 to 14) (size 15 to 20)
#    0.000    2.273    0.909    3.273    0.000    3.273 
#    1.636    3.636    0.000    5.455    0.000    0.000 
#    0.000    0.000    0.000    0.000    0.000    0.000 
#
# Total GULP energy -245091.751811 kJ/mol
# GULP energy per Si atom -5570.267087 kJ/mol
# Density = 1.802760 g / cm^3
# Si number density = 18.068728 Si / 1000 Ang^3
#
#
#
# Elastic Constant Matrix: (Units=GPa)
#
#
# Indices 1 2 3 4 5 6 
#
# 1 107.5472 42.5823 33.7739 0.0000 0.0000 0.0000
# 2 42.5823 58.6155 27.7260 0.0000 0.0000 0.0000
# 3 33.7739 27.7260 52.4848 0.0000 0.0000 0.0000
# 4 0.0000 0.0000 0.0000 5.5333 0.0000 0.0000
# 5 0.0000 0.0000 0.0000 0.0000 25.6293 0.0000
# 6 0.0000 0.0000 0.0000 0.0000 0.0000 29.0713
#
#
#
# Elastic Compliance Matrix: (Units=1/GPa)
#
#
# Indices 1 2 3 4 5 6 
#
# 1 0.013910 -0.007827 -0.004816 0.000000 0.000000 0.000000
# 2 -0.007827 0.027147 -0.009305 0.000000 0.000000 0.000000
# 3 -0.004816 -0.009305 0.027068 0.000000 0.000000 0.000000
# 4 0.000000 0.000000 0.000000 0.180722 0.000000 0.000000
# 5 0.000000 0.000000 0.000000 0.000000 0.039018 0.000000
# 6 0.000000 0.000000 0.000000 0.000000 0.000000 0.034398
#
#
# Mechanical properties :
#
#
# Convention : Reuss Voigt Hill
#
# Bulk Modulus (GPa) = 41.27181 47.42354 44.34768
# Shear Modulus (GPa) = 13.36059 19.68449 16.52254
#
# Velocity S-wave (km/s) = 2.72220 3.30422 3.02723
# Velocity P-wave (km/s) = 5.72465 6.39221 6.06762
#
# Compressibility (1/GPa) = 0.02422961
#
# Stress axis : x y z
#
# Youngs Moduli (GPa) = 71.89250 36.83585 36.94448
#
# Poissons Ratio (x) = 0.28831 0.17793
# Poissons Ratio (y) = 0.56269 0.34375
# Poissons Ratio (z) = 0.34625 0.34274
#
# Static dielectric constant tensor:
#      x y z
#    x 1.617080 0.000000 0.000000 
#    y 0.000000 1.610600 0.000000 
#    z 0.000000 0.000000 1.682460 
# 
# From -- ./inp_files/26793.got.cif
#   From: 2010.05.17/outbox.cif.g08.bks.cpg/sg65_14_cif.got.tgz:26793.got - 2010.06.03 17:01:31.
