data_PCOD9489280
_publ_section_title
;
Structure prediction by ZEFSAII (Michael W. Deem and Ramdas Pophale) SiO2 
 PCOD9489280
Probable space group: C M M M
;
_chemical_formula_sum "Si O2"
_cell_formula_units_Z 120
_cell_length_a 8.686000
_cell_length_b 28.906699
_cell_length_c 29.556061
_cell_angle_alpha 90.000000
_cell_angle_beta 90.000000
_cell_angle_gamma 90.000000
_cell_volume 7421.041829
_symmetry_space_group_name_H-M "C M M M"
_symmetry_group_IT_number 65
_symmetry_cell_setting 'orthorhombic'
loop_
_space_group_symop_operation_xyz
x,y,z
-x,-y,z
x,-y,-z
-x,y,-z
-x,-y,-z
x,y,-z
-x,y,z
x,-y,z
1/2+x,1/2+y,z
1/2-x,1/2-y,z
1/2+x,1/2-y,-z
1/2-x,1/2+y,-z
1/2-x,1/2-y,-z
1/2+x,1/2+y,-z
1/2-x,1/2+y,z
1/2+x,1/2-y,z
loop_
_atom_site_type_symbol
_atom_site_label
_atom_site_fract_x
_atom_site_fract_y
_atom_site_fract_z
Si Si1 0.684879 0.445999 0.500000
Si Si2 0.817502 0.443974 0.951307
Si Si3 0.685003 0.106652 0.762545
Si Si4 0.188093 0.553767 0.852587
Si Si5 0.315927 0.300083 0.725679
Si Si6 0.183334 0.605389 0.412476
Si Si7 0.682444 0.444890 0.675545
Si Si8 0.184156 0.199853 0.380891
O O1 0.730751 0.500000 0.500000
O O2 0.500000 0.443919 0.500000
O O3 0.748063 0.420751 0.455621
O O4 0.807420 0.500000 0.950686
O O5 0.756532 0.429336 0.902136
O O6 0.000000 0.432919 0.951975
O O7 0.751786 0.428294 0.000000
O O8 0.500000 0.106168 0.760861
O O9 0.735560 0.084806 0.810319
O O10 0.745028 0.158310 0.754203
O O11 0.749418 0.075745 0.721571
O O12 0.233807 0.500000 0.845975
O O13 0.000000 0.553881 0.853932
O O14 0.500000 0.300161 0.729470
O O15 0.250000 0.250000 0.738359
O O16 0.276934 0.307689 0.672419
O O17 0.238846 0.579104 0.367312
O O18 0.244806 0.657730 0.408663
O O19 0.000000 0.605393 0.414655
O O20 0.500000 0.434847 0.673853
O O21 0.704460 0.500000 0.673847
O O22 0.250000 0.250000 0.393648
O O23 0.000000 0.199782 0.384956
#
# Coordination Sequence:
#
# PCOD9489280 Si02
#       8
#     8  16  16  16  16  16  16  16
#     4  11  25  45  66  85 110 143 175 211 255 297
#     4   7   9  15  29  49  77 118 165 207 246 288
#     4  11  20  30  47  71 101 133 166 203 249 300
#     4   8  14  23  35  57  92 131 168 206 247 290
#     4  10  20  34  53  74 100 130 165 205 247 297
#     4  12  24  39  61  86 110 136 171 211 253 300
#     4  11  23  37  52  72 101 137 175 211 247 291
#     4  10  20  36  59  84 111 138 168 206 251 300
#
# _framework density 16.170237
#
# number of rings (size 3 to 8) (size 9 to 14) (size 15 to 20)
#    0.000    2.067    1.333    5.000    0.000    4.800 
#    0.000    0.333    0.000    0.000    0.000    0.000 
#    0.000    2.667    0.000   16.000    0.000   13.600 
#
# Total GULP energy -334746.117265 kJ/mol
# GULP energy per Si atom -5579.101954 kJ/mol
# Density = 1.613343 g / cm^3
# Si number density = 16.170237 Si / 1000 Ang^3
#
#
#
# Elastic Constant Matrix: (Units=GPa)
#
#
# Indices 1 2 3 4 5 6 
#
# 1 52.9545 49.4845 39.6951 0.0000 0.0000 0.0000
# 2 49.4845 116.2047 79.5865 0.0000 0.0000 0.0000
# 3 39.6951 79.5865 150.6133 0.0000 0.0000 0.0000
# 4 0.0000 0.0000 0.0000 2.7037 0.0000 0.0000
# 5 0.0000 0.0000 0.0000 0.0000 -4.3875 0.0000
# 6 0.0000 0.0000 0.0000 0.0000 0.0000 24.5874
#
#
#
# Elastic Compliance Matrix: (Units=1/GPa)
#
#
# Indices 1 2 3 4 5 6 
#
# 1 0.031714 -0.012193 -0.001915 0.000000 0.000000 0.000000
# 2 -0.012193 0.018174 -0.006390 0.000000 0.000000 0.000000
# 3 -0.001915 -0.006390 0.010521 0.000000 0.000000 0.000000
# 4 0.000000 0.000000 0.000000 0.369859 0.000000 0.000000
# 5 0.000000 0.000000 0.000000 0.000000 -0.227921 0.000000
# 6 0.000000 0.000000 0.000000 0.000000 0.000000 0.040671
#
#
# Mechanical properties :
#
#
# Convention : Reuss Voigt Hill
#
# Bulk Modulus (GPa) = 51.51425 73.03384 62.27405
# Shear Modulus (GPa) = 17.21255 14.64784 15.93019
#
# Velocity S-wave (km/s) = 3.26614 3.01300 3.14212
# Velocity P-wave (km/s) = 6.79339 7.57416 7.19438
#
# Compressibility (1/GPa) = 0.01941210
#
# Stress axis : x y z
#
# Youngs Moduli (GPa) = 31.53158 55.02279 95.04934
#
# Poissons Ratio (x) = 0.67092 0.18205
# Poissons Ratio (y) = 0.38448 0.60736
# Poissons Ratio (z) = 0.06039 0.35159
#
# Static dielectric constant tensor:
#      x y z
#    x 1.541710 0.000000 0.000000 
#    y 0.000000 1.522950 0.000000 
#    z 0.000000 0.000000 1.555710 
# 
# From -- ./inp_files/73990.got.cif
#   From: 2010.05.17/outbox.cif.g08.bks.cpg/sg65_37_cif.got.tgz:73990.got - 2010.06.03 17:01:31.
