data_PCOD9489479
_publ_section_title
;
Structure prediction by ZEFSAII (Michael W. Deem and Ramdas Pophale) SiO2 
 PCOD9489479
Probable space group: C M M M
;
_chemical_formula_sum "Si O2"
_cell_formula_units_Z 88
_cell_length_a 30.774447
_cell_length_b 16.396137
_cell_length_c 9.802640
_cell_angle_alpha 90.000000
_cell_angle_beta 90.000000
_cell_angle_gamma 90.000000
_cell_volume 4946.236178
_symmetry_space_group_name_H-M "C M M M"
_symmetry_group_IT_number 65
_symmetry_cell_setting 'orthorhombic'
loop_
_space_group_symop_operation_xyz
x,y,z
-x,-y,z
x,-y,-z
-x,y,-z
-x,-y,-z
x,y,-z
-x,y,z
x,-y,z
1/2+x,1/2+y,z
1/2-x,1/2-y,z
1/2+x,1/2-y,-z
1/2-x,1/2+y,-z
1/2-x,1/2-y,-z
1/2+x,1/2+y,-z
1/2-x,1/2+y,z
1/2+x,1/2-y,z
loop_
_atom_site_type_symbol
_atom_site_label
_atom_site_fract_x
_atom_site_fract_y
_atom_site_fract_z
Si Si1 0.378193 0.131372 0.658973
Si Si2 0.951799 0.097999 0.158336
Si Si3 0.705217 0.097698 0.844739
Si Si4 0.285900 0.598169 0.339860
Si Si5 0.878802 0.825187 0.343358
Si Si6 0.450192 0.000000 0.664650
O O1 0.367813 0.109507 0.500000
O O2 0.338246 0.113045 0.758553
O O3 0.384701 0.228142 0.663415
O O4 0.420598 0.078773 0.699971
O O5 0.913767 0.133766 0.247376
O O6 0.000000 0.124066 0.204796
O O7 0.950422 0.000000 0.164235
O O8 0.946975 0.121449 0.000000
O O9 0.746766 0.125932 0.757287
O O10 0.709720 0.000000 0.853744
O O11 0.703548 0.129960 0.000000
O O12 0.275162 0.612090 0.500000
O O13 0.292687 0.500000 0.324004
O O14 0.330117 0.646085 0.307327
O O15 0.885603 0.851501 0.500000
O O16 0.500000 0.000000 0.717146
O O17 0.453377 0.000000 0.500000
#
# Coordination Sequence:
#
# PCOD9489479 Si02
#       6
#    16  16  16  16  16   8
#     4  10  20  35  56  79 106 141 177 220 277 331
#     4   9  19  36  56  77 105 145 185 217 260 322
#     4  10  20  34  54  78 104 137 182 226 263 318
#     4   9  18  33  52  74 105 143 177 214 266 324
#     4  10  21  34  52  82 112 139 178 229 275 319
#     4   9  18  34  57  81 103 135 181 225 270 331
#
# _framework density 17.791305999999999
#
# number of rings (size 3 to 8) (size 9 to 14) (size 15 to 20)
#    0.000    2.455    0.909    1.636    0.000    5.091 
#    0.000    8.182    0.000    1.091    0.000    0.000 
#    0.000    0.000    0.000    0.000    0.000    0.000 
#
# Total GULP energy -245341.639951 kJ/mol
# GULP energy per Si atom -5575.946363 kJ/mol
# Density = 1.775081 g / cm^3
# Si number density = 17.791306 Si / 1000 Ang^3
#
#
#
# Elastic Constant Matrix: (Units=GPa)
#
#
# Indices 1 2 3 4 5 6 
#
# 1 183.6544 48.3726 99.6556 0.0000 0.0000 0.0000
# 2 48.3726 36.6861 31.0294 0.0000 0.0000 0.0000
# 3 99.6556 31.0294 91.8092 0.0000 0.0000 0.0000
# 4 0.0000 0.0000 0.0000 17.6733 0.0000 0.0000
# 5 0.0000 0.0000 0.0000 0.0000 536.8193 0.0000
# 6 0.0000 0.0000 0.0000 0.0000 0.0000 11.6339
#
#
#
# Elastic Compliance Matrix: (Units=1/GPa)
#
#
# Indices 1 2 3 4 5 6 
#
# 1 0.014871 -0.008339 -0.013324 0.000000 0.000000 0.000000
# 2 -0.008339 0.042846 -0.005429 0.000000 0.000000 0.000000
# 3 -0.013324 -0.005429 0.027190 0.000000 0.000000 0.000000
# 4 0.000000 0.000000 0.000000 0.056583 0.000000 0.000000
# 5 0.000000 0.000000 0.000000 0.000000 0.001863 0.000000
# 6 0.000000 0.000000 0.000000 0.000000 0.000000 0.085956
#
#
# Mechanical properties :
#
#
# Convention : Reuss Voigt Hill
#
# Bulk Modulus (GPa) = 32.54917 74.47386 53.51152
# Shear Modulus (GPa) = 17.02225 122.09809 69.56017
#
# Velocity S-wave (km/s) = 3.09653 8.29319 6.25961
# Velocity P-wave (km/s) = 5.57847 11.56085 9.07669
#
# Compressibility (1/GPa) = 0.03072275
#
# Stress axis : x y z
#
# Youngs Moduli (GPa) = 67.24343 23.33941 36.77883
#
# Poissons Ratio (x) = 0.19463 0.49003
# Poissons Ratio (y) = 0.56076 0.19967
# Poissons Ratio (z) = 0.89594 0.12671
#
# Static dielectric constant tensor:
#      x y z
#    x 1.589740 0.000000 0.000000 
#    y 0.000000 1.609970 0.000000 
#    z 0.000000 0.000000 1.605250 
# 
# From -- ./inp_files/18325.got.cif
#   From: 2010.05.17/outbox.cif.g08.bks.cpg/sg65_10_cif.got.tgz:18325.got - 2010.06.03 17:01:31.
