data_PCOD9489164
_publ_section_title
;
Structure prediction by ZEFSAII (Michael W. Deem and Ramdas Pophale) SiO2 
 PCOD9489164
Probable space group: C M M M
;
_chemical_formula_sum "Si O2"
_cell_formula_units_Z 104
_cell_length_a 8.525223
_cell_length_b 30.139347
_cell_length_c 23.961474
_cell_angle_alpha 90.000000
_cell_angle_beta 90.000000
_cell_angle_gamma 90.000000
_cell_volume 6156.772652
_symmetry_space_group_name_H-M "C M M M"
_symmetry_group_IT_number 65
_symmetry_cell_setting 'orthorhombic'
loop_
_space_group_symop_operation_xyz
x,y,z
-x,-y,z
x,-y,-z
-x,y,-z
-x,-y,-z
x,y,-z
-x,y,z
x,-y,z
1/2+x,1/2+y,z
1/2-x,1/2-y,z
1/2+x,1/2-y,-z
1/2-x,1/2+y,-z
1/2-x,1/2-y,-z
1/2+x,1/2+y,-z
1/2-x,1/2+y,z
1/2+x,1/2-y,z
loop_
_atom_site_type_symbol
_atom_site_label
_atom_site_fract_x
_atom_site_fract_y
_atom_site_fract_z
Si Si1 0.188660 0.391519 0.104847
Si Si2 0.808978 0.551453 0.335405
Si Si3 0.812064 0.201810 0.934592
Si Si4 0.322592 0.704308 0.432418
Si Si5 0.188675 0.051968 0.000000
Si Si6 0.687165 0.110194 0.563078
Si Si7 0.308816 0.948627 0.789524
O O1 0.248449 0.341299 0.097233
O O2 0.249002 0.421836 0.053914
O O3 0.241845 0.415376 0.162001
O O4 0.000000 0.391026 0.103536
O O5 0.768791 0.500000 0.342661
O O6 0.749239 0.579395 0.387732
O O7 0.758078 0.564773 0.273002
O O8 0.000000 0.554443 0.335633
O O9 0.750000 0.250000 0.915552
O O10 0.000000 0.201905 0.932143
O O11 0.764597 0.196915 0.000000
O O12 0.327482 0.707714 0.500000
O O13 0.500000 0.698445 0.412664
O O14 0.250000 0.750000 0.411100
O O15 0.221823 0.660896 0.420986
O O16 0.000000 0.053686 0.000000
O O17 0.236771 0.000000 0.000000
O O18 0.749578 0.102176 0.500000
O O19 0.500000 0.103818 0.560245
O O20 0.500000 0.948884 0.789647
O O21 0.260750 0.000000 0.799769
#
# Coordination Sequence:
#
# PCOD9489164 Si02
#       7
#    16  16  16  16   8  16  16
#     4  11  20  31  51  75  98 125 161 201 241 283
#     4   8  14  26  44  66  94 126 159 196 235 275
#     4  10  20  34  52  73 101 131 161 196 238 286
#     4   9  16  26  41  61  87 118 149 183 226 276
#     4  11  23  35  46  67 102 135 159 191 239 287
#     4   9  16  25  41  68  97 122 152 192 237 283
#     4   8  15  28  46  69  95 125 162 199 234 277
#
# _framework density 16.891967000000001
#
# number of rings (size 3 to 8) (size 9 to 14) (size 15 to 20)
#    0.000    2.692    0.769    3.000    0.000    4.000 
#    0.000    1.538    0.000    3.231    0.000    6.462 
#    0.000    0.000    0.000    0.000    0.000    0.000 
#
# Total GULP energy -289683.954829 kJ/mol
# GULP energy per Si atom -5570.845285 kJ/mol
# Density = 1.685352 g / cm^3
# Si number density = 16.891967 Si / 1000 Ang^3
#
#
#
# Elastic Constant Matrix: (Units=GPa)
#
#
# Indices 1 2 3 4 5 6 
#
# 1 19.1450 18.2506 16.5063 0.0000 0.0000 0.0000
# 2 18.2506 137.3629 95.2431 0.0000 0.0000 0.0000
# 3 16.5063 95.2431 126.6655 0.0000 0.0000 0.0000
# 4 0.0000 0.0000 0.0000 0.6113 0.0000 0.0000
# 5 0.0000 0.0000 0.0000 0.0000 3.4361 0.0000
# 6 0.0000 0.0000 0.0000 0.0000 0.0000 22.9344
#
#
#
# Elastic Compliance Matrix: (Units=1/GPa)
#
#
# Indices 1 2 3 4 5 6 
#
# 1 0.060696 -0.005390 -0.003856 0.000000 0.000000 0.000000
# 2 -0.005390 0.015689 -0.011094 0.000000 0.000000 0.000000
# 3 -0.003856 -0.011094 0.016739 0.000000 0.000000 0.000000
# 4 0.000000 0.000000 0.000000 1.635836 0.000000 0.000000
# 5 0.000000 0.000000 0.000000 0.000000 0.291030 0.000000
# 6 0.000000 0.000000 0.000000 0.000000 0.000000 0.043603
#
#
# Mechanical properties :
#
#
# Convention : Reuss Voigt Hill
#
# Bulk Modulus (GPa) = 19.06860 60.35262 39.71061
# Shear Modulus (GPa) = 2.35654 15.60793 8.98223
#
# Velocity S-wave (km/s) = 1.18241 3.04301 2.30846
# Velocity P-wave (km/s) = 3.63004 6.93921 5.53759
#
# Compressibility (1/GPa) = 0.05244225
#
# Stress axis : x y z
#
# Youngs Moduli (GPa) = 16.47544 63.74084 59.73948
#
# Poissons Ratio (x) = 0.34359 0.23038
# Poissons Ratio (y) = 0.08881 0.66276
# Poissons Ratio (z) = 0.06354 0.70715
#
# Static dielectric constant tensor:
#      x y z
#    x 1.584420 0.000000 0.000000 
#    y 0.000000 1.559100 0.000000 
#    z 0.000000 0.000000 1.576110 
# 
# From -- ./inp_files/60859.got.cif
#   From: 2010.05.17/outbox.cif.g08.bks.cpg/sg65_31_cif.got.tgz:60859.got - 2010.06.03 17:01:31.
