data_PCOD9489069
_publ_section_title
;
Structure prediction by ZEFSAII (Michael W. Deem and Ramdas Pophale) SiO2 
 PCOD9489069
Probable space group: C M M M
;
_chemical_formula_sum "Si O2"
_cell_formula_units_Z 88
_cell_length_a 22.077040
_cell_length_b 15.763294
_cell_length_c 14.350911
_cell_angle_alpha 90.000000
_cell_angle_beta 90.000000
_cell_angle_gamma 90.000000
_cell_volume 4994.215650
_symmetry_space_group_name_H-M "C M M M"
_symmetry_group_IT_number 65
_symmetry_cell_setting 'orthorhombic'
loop_
_space_group_symop_operation_xyz
x,y,z
-x,-y,z
x,-y,-z
-x,y,-z
-x,-y,-z
x,y,-z
-x,y,z
x,-y,z
1/2+x,1/2+y,z
1/2-x,1/2-y,z
1/2+x,1/2-y,-z
1/2-x,1/2+y,-z
1/2-x,1/2-y,-z
1/2+x,1/2+y,-z
1/2-x,1/2+y,z
1/2+x,1/2-y,z
loop_
_atom_site_type_symbol
_atom_site_label
_atom_site_fract_x
_atom_site_fract_y
_atom_site_fract_z
Si Si1 0.663346 0.850668 0.109497
Si Si2 0.127363 0.154358 0.892274
Si Si3 0.727934 0.403568 0.760988
Si Si4 0.635150 0.603510 0.391227
Si Si5 0.930702 0.500000 0.888006
Si Si6 0.500000 0.402440 0.613320
Si Si7 0.000000 0.099902 0.888850
O O1 0.642725 0.753511 0.111835
O O2 0.716185 0.860413 0.185805
O O3 0.609569 0.916682 0.133575
O O4 0.682261 0.868331 0.000000
O O5 0.175265 0.099286 0.837620
O O6 0.061126 0.139150 0.851846
O O7 0.128144 0.128057 0.000000
O O8 0.746395 0.500000 0.739352
O O9 0.691687 0.366493 0.671808
O O10 0.644270 0.623719 0.500000
O O11 0.633889 0.500000 0.383070
O O12 0.566961 0.633512 0.363319
O O13 0.000000 0.500000 0.851074
O O14 0.935850 0.500000 0.000000
O O15 0.500000 0.500000 0.647583
O O16 0.500000 0.405635 0.500000
O O17 0.000000 0.000000 0.875063
O O18 0.000000 0.116742 0.000000
#
# Coordination Sequence:
#
# PCOD9489069 Si02
#       7
#    16  16  16  16   8   8   8
#     4  10  20  34  50  71  98 128 166 210 255 301
#     4  10  21  33  48  67  97 137 170 201 243 293
#     4  11  20  30  47  71 100 133 168 205 243 294
#     4   8  15  27  44  67  95 127 166 211 256 301
#     4   9  18  32  54  76  93 118 161 218 265 296
#     4   7  10  21  41  63  88 120 159 203 245 285
#     4   9  18  33  49  70  99 133 172 205 233 284
#
# _framework density 17.620384000000001
#
# number of rings (size 3 to 8) (size 9 to 14) (size 15 to 20)
#    0.000    2.636    0.909    2.727    1.273    4.000 
#    0.000    1.818    0.000    2.182    0.000    0.000 
#    0.000    1.455    0.000    0.000    0.000    0.000 
#
# Total GULP energy -244953.485626 kJ/mol
# GULP energy per Si atom -5567.124673 kJ/mol
# Density = 1.758028 g / cm^3
# Si number density = 17.620384 Si / 1000 Ang^3
#
#
#
# Elastic Constant Matrix: (Units=GPa)
#
#
# Indices 1 2 3 4 5 6 
#
# 1 142.8413 29.3644 62.7573 0.0000 0.0000 0.0000
# 2 29.3644 50.0071 32.2096 0.0000 0.0000 0.0000
# 3 62.7573 32.2096 113.0067 0.0000 0.0000 0.0000
# 4 0.0000 0.0000 0.0000 4.3484 0.0000 0.0000
# 5 0.0000 0.0000 0.0000 0.0000 115.7101 0.0000
# 6 0.0000 0.0000 0.0000 0.0000 0.0000 14.9236
#
#
#
# Elastic Compliance Matrix: (Units=1/GPa)
#
#
# Indices 1 2 3 4 5 6 
#
# 1 0.009545 -0.002683 -0.004536 0.000000 0.000000 0.000000
# 2 -0.002683 0.025248 -0.005706 0.000000 0.000000 0.000000
# 3 -0.004536 -0.005706 0.012995 0.000000 0.000000 0.000000
# 4 0.000000 0.000000 0.000000 0.229972 0.000000 0.000000
# 5 0.000000 0.000000 0.000000 0.000000 0.008642 0.000000
# 6 0.000000 0.000000 0.000000 0.000000 0.000000 0.067008
#
#
# Mechanical properties :
#
#
# Convention : Reuss Voigt Hill
#
# Bulk Modulus (GPa) = 45.58549 61.61306 53.59928
# Shear Modulus (GPa) = 12.93415 39.09800 26.01608
#
# Velocity S-wave (km/s) = 2.71227 4.71564 3.84666
# Velocity P-wave (km/s) = 5.97792 8.04316 7.08619
#
# Compressibility (1/GPa) = 0.02193680
#
# Stress axis : x y z
#
# Youngs Moduli (GPa) = 104.76320 39.60681 76.95559
#
# Poissons Ratio (x) = 0.10628 0.34908
# Poissons Ratio (y) = 0.28112 0.43912
# Poissons Ratio (z) = 0.47522 0.22600
#
# Static dielectric constant tensor:
#      x y z
#    x 1.751700 0.000000 0.000000 
#    y 0.000000 1.588380 0.000000 
#    z 0.000000 0.000000 1.643960 
# 
# From -- ./inp_files/44356.got.cif
#   From: 2010.05.17/outbox.cif.g08.bks.cpg/sg65_23_cif.got.tgz:44356.got - 2010.06.03 17:01:31.
