data_PCOD9489059
_publ_section_title
;
Structure prediction by ZEFSAII (Michael W. Deem and Ramdas Pophale) SiO2 
 PCOD9489059
Probable space group: C M M M
;
_chemical_formula_sum "Si O2"
_cell_formula_units_Z 64
_cell_length_a 7.686411
_cell_length_b 28.765287
_cell_length_c 18.921564
_cell_angle_alpha 90.000000
_cell_angle_beta 90.000000
_cell_angle_gamma 90.000000
_cell_volume 4183.592208
_symmetry_space_group_name_H-M "C M M M"
_symmetry_group_IT_number 65
_symmetry_cell_setting 'orthorhombic'
loop_
_space_group_symop_operation_xyz
x,y,z
-x,-y,z
x,-y,-z
-x,y,-z
-x,-y,-z
x,y,-z
-x,y,z
x,-y,z
1/2+x,1/2+y,z
1/2-x,1/2-y,z
1/2+x,1/2-y,-z
1/2-x,1/2+y,-z
1/2-x,1/2-y,-z
1/2+x,1/2+y,-z
1/2-x,1/2+y,z
1/2+x,1/2-y,z
loop_
_atom_site_type_symbol
_atom_site_label
_atom_site_fract_x
_atom_site_fract_y
_atom_site_fract_z
Si Si1 0.500000 0.054084 0.917031
Si Si2 0.292406 0.607428 0.835727
Si Si3 0.000000 0.443926 0.579864
Si Si4 0.792209 0.803424 0.079887
Si Si5 0.204988 0.945116 0.309321
O O1 0.673327 0.075778 0.884645
O O2 0.500000 0.000000 0.901123
O O3 0.500000 0.061750 0.000000
O O4 0.500000 0.601752 0.847790
O O5 0.240727 0.659597 0.860144
O O6 0.259571 0.589140 0.756410
O O7 0.170357 0.432264 0.625793
O O8 0.000000 0.500000 0.574874
O O9 0.000000 0.425324 0.500000
O O10 0.750000 0.750000 0.096165
O O11 0.000000 0.806708 0.075384
O O12 0.723161 0.813965 0.000000
O O13 0.000000 0.942017 0.326759
O O14 0.238935 0.000000 0.290484
#
# Coordination Sequence:
#
# PCOD9489059 Si02
#       5
#     8  16   8  16  16
#     4  11  23  33  45  67  91 123 167 205 240 285
#     4  10  20  34  50  67  92 126 160 202 243 289
#     4   9  17  29  45  67  97 127 153 185 223 270
#     4   9  18  31  47  67  90 120 157 200 251 297
#     4   9  17  29  46  67  91 123 157 187 226 276
#
# _framework density 15.297858
#
# number of rings (size 3 to 8) (size 9 to 14) (size 15 to 20)
#    0.000    2.500    0.000    2.250    1.750    4.500 
#    0.000    3.750    0.000    0.000    0.000    0.000 
#    0.000    1.000    0.500    0.000    0.000    0.000 
#
# Total GULP energy -178208.382852 kJ/mol
# GULP energy per Si atom -5569.011964 kJ/mol
# Density = 1.526304 g / cm^3
# Si number density = 15.297858 Si / 1000 Ang^3
#
#
#
# Elastic Constant Matrix: (Units=GPa)
#
#
# Indices 1 2 3 4 5 6 
#
# 1 53.0640 22.3013 72.6577 0.0000 0.0000 0.0000
# 2 22.3013 102.7663 52.0377 0.0000 0.0000 0.0000
# 3 72.6577 52.0377 152.3660 0.0000 0.0000 0.0000
# 4 0.0000 0.0000 0.0000 23.5030 0.0000 0.0000
# 5 0.0000 0.0000 0.0000 0.0000 15.3856 0.0000
# 6 0.0000 0.0000 0.0000 0.0000 0.0000 20.5958
#
#
#
# Elastic Compliance Matrix: (Units=1/GPa)
#
#
# Indices 1 2 3 4 5 6 
#
# 1 0.054520 0.001612 -0.026549 0.000000 0.000000 0.000000
# 2 0.001612 0.011813 -0.004803 0.000000 0.000000 0.000000
# 3 -0.026549 -0.004803 0.020864 0.000000 0.000000 0.000000
# 4 0.000000 0.000000 0.000000 0.042548 0.000000 0.000000
# 5 0.000000 0.000000 0.000000 0.000000 0.064996 0.000000
# 6 0.000000 0.000000 0.000000 0.000000 0.000000 0.048554
#
#
# Mechanical properties :
#
#
# Convention : Reuss Voigt Hill
#
# Bulk Modulus (GPa) = 36.07948 66.90998 51.49473
# Shear Modulus (GPa) = 16.02491 22.64351 19.33421
#
# Velocity S-wave (km/s) = 3.24006 3.85148 3.55892
# Velocity P-wave (km/s) = 6.13459 7.97569 7.11494
#
# Compressibility (1/GPa) = 0.02771658
#
# Stress axis : x y z
#
# Youngs Moduli (GPa) = 18.34189 84.65076 47.92942
#
# Poissons Ratio (x) = -0.13649 1.27249
# Poissons Ratio (y) = -0.02957 0.23023
# Poissons Ratio (z) = 0.48696 0.40662
#
# Static dielectric constant tensor:
#      x y z
#    x 1.621980 0.000000 0.000000 
#    y 0.000000 1.511530 0.000000 
#    z 0.000000 0.000000 1.503750 
# 
# From -- ./inp_files/36327.got.cif
#   From: 2010.05.17/outbox.cif.g08.bks.cpg/sg65_19_cif.got.tgz:36327.got - 2010.06.03 17:01:31.
