data_PCOD9489391
_publ_section_title
;
Structure prediction by ZEFSAII (Michael W. Deem and Ramdas Pophale) SiO2 
 PCOD9489391
Probable space group: C M M M
;
_chemical_formula_sum "Si O2"
_cell_formula_units_Z 64
_cell_length_a 19.204763
_cell_length_b 7.890072
_cell_length_c 21.064410
_cell_angle_alpha 90.000000
_cell_angle_beta 90.000000
_cell_angle_gamma 90.000000
_cell_volume 3191.826071
_symmetry_space_group_name_H-M "C M M M"
_symmetry_group_IT_number 65
_symmetry_cell_setting 'orthorhombic'
loop_
_space_group_symop_operation_xyz
x,y,z
-x,-y,z
x,-y,-z
-x,y,-z
-x,-y,-z
x,y,-z
-x,y,z
x,-y,z
1/2+x,1/2+y,z
1/2-x,1/2-y,z
1/2+x,1/2-y,-z
1/2-x,1/2+y,-z
1/2-x,1/2-y,-z
1/2+x,1/2+y,-z
1/2-x,1/2+y,z
1/2+x,1/2-y,z
loop_
_atom_site_type_symbol
_atom_site_label
_atom_site_fract_x
_atom_site_fract_y
_atom_site_fract_z
Si Si1 0.170556 0.295852 0.881547
Si Si2 0.579033 0.702585 0.380672
Si Si3 0.079871 0.292131 0.000000
Si Si4 0.331098 0.704770 0.500000
Si Si5 0.670343 0.202422 0.738320
O O1 0.165421 0.500000 0.879796
O O2 0.250000 0.250000 0.897176
O O3 0.156138 0.232833 0.809954
O O4 0.119736 0.234509 0.936707
O O5 0.500000 0.769898 0.382845
O O6 0.574597 0.500000 0.389038
O O7 0.627985 0.767666 0.437598
O O8 0.616672 0.734620 0.313997
O O9 0.081406 0.500000 0.000000
O O10 0.000000 0.239482 0.000000
O O11 0.334167 0.500000 0.500000
O O12 0.250000 0.750000 0.500000
O O13 0.750000 0.250000 0.721888
O O14 0.666276 0.000000 0.739533
#
# Coordination Sequence:
#
# PCOD9489391 Si02
#       5
#    16  16   8   8  16
#     4   9  18  32  52  75  99 131 169 210 252 297
#     4  10  21  37  56  78 106 139 172 209 256 307
#     4   9  17  30  49  73 100 131 168 208 252 301
#     4  10  21  37  57  79 103 134 173 214 254 300
#     4  10  20  34  53  78 106 136 173 215 257 304
#
# _framework density 20.051217000000001
#
# number of rings (size 3 to 8) (size 9 to 14) (size 15 to 20)
#    0.000    2.375    0.000    2.250    0.000    7.000 
#    0.000    2.500    0.000    3.750    0.000    0.000 
#    0.000    0.000    0.000    0.000    0.000    0.000 
#
# Total GULP energy -178660.271414 kJ/mol
# GULP energy per Si atom -5583.133482 kJ/mol
# Density = 2.000558 g / cm^3
# Si number density = 20.051217 Si / 1000 Ang^3
#
#
#
# Elastic Constant Matrix: (Units=GPa)
#
#
# Indices 1 2 3 4 5 6 
#
# 1 204.4830 5.3706 147.2913 0.0000 0.0000 0.0000
# 2 5.3706 20.6869 5.2559 0.0000 0.0000 0.0000
# 3 147.2913 5.2559 161.7941 0.0000 0.0000 0.0000
# 4 0.0000 0.0000 0.0000 2.8511 0.0000 0.0000
# 5 0.0000 0.0000 0.0000 0.0000 1.2452 0.0000
# 6 0.0000 0.0000 0.0000 0.0000 0.0000 23.8094
#
#
#
# Elastic Compliance Matrix: (Units=1/GPa)
#
#
# Indices 1 2 3 4 5 6 
#
# 1 0.014209 -0.000406 -0.012922 0.000000 0.000000 0.000000
# 2 -0.000406 0.048754 -0.001214 0.000000 0.000000 0.000000
# 3 -0.012922 -0.001214 0.017984 0.000000 0.000000 0.000000
# 4 0.000000 0.000000 0.000000 0.350740 0.000000 0.000000
# 5 0.000000 0.000000 0.000000 0.000000 0.803110 0.000000
# 6 0.000000 0.000000 0.000000 0.000000 0.000000 0.042000
#
#
# Mechanical properties :
#
#
# Convention : Reuss Voigt Hill
#
# Bulk Modulus (GPa) = 19.28188 78.08883 48.68536
# Shear Modulus (GPa) = 3.77881 20.85089 12.31485
#
# Velocity S-wave (km/s) = 1.37429 3.22822 2.48093
# Velocity P-wave (km/s) = 3.48646 7.27492 5.70438
#
# Compressibility (1/GPa) = 0.05186215
#
# Stress axis : x y z
#
# Youngs Moduli (GPa) = 70.37779 20.51125 55.60492
#
# Poissons Ratio (x) = 0.00832 0.71854
# Poissons Ratio (y) = 0.02856 0.06753
# Poissons Ratio (z) = 0.90943 0.02491
#
# Static dielectric constant tensor:
#      x y z
#    x 1.659200 0.000000 0.000000 
#    y 0.000000 1.731990 0.000000 
#    z 0.000000 0.000000 1.715320 
# 
# From -- ./inp_files/58879.got.cif
#   From: 2010.05.17/outbox.cif.g08.bks.cpg/sg65_30_cif.got.tgz:58879.got - 2010.06.03 17:01:31.
