data_PCOD9489500
_publ_section_title
;
Structure prediction by ZEFSAII (Michael W. Deem and Ramdas Pophale) SiO2 
 PCOD9489500
Probable space group: C M M M
;
_chemical_formula_sum "Si O2"
_cell_formula_units_Z 88
_cell_length_a 31.802506
_cell_length_b 18.334442
_cell_length_c 8.471234
_cell_angle_alpha 90.000000
_cell_angle_beta 90.000000
_cell_angle_gamma 90.000000
_cell_volume 4939.417301
_symmetry_space_group_name_H-M "C M M M"
_symmetry_group_IT_number 65
_symmetry_cell_setting 'orthorhombic'
loop_
_space_group_symop_operation_xyz
x,y,z
-x,-y,z
x,-y,-z
-x,y,-z
-x,-y,-z
x,y,-z
-x,y,z
x,-y,z
1/2+x,1/2+y,z
1/2-x,1/2-y,z
1/2+x,1/2-y,-z
1/2-x,1/2+y,-z
1/2-x,1/2-y,-z
1/2+x,1/2+y,-z
1/2-x,1/2+y,z
1/2+x,1/2-y,z
loop_
_atom_site_type_symbol
_atom_site_label
_atom_site_fract_x
_atom_site_fract_y
_atom_site_fract_z
Si Si1 0.333812 0.079539 0.809444
Si Si2 0.797242 0.734627 0.807297
Si Si3 0.952356 0.915305 0.690273
Si Si4 0.116706 0.802598 0.186627
Si Si5 0.085594 0.649991 0.314348
Si Si6 0.000000 0.586835 0.813221
O O1 0.308817 0.151867 0.760374
O O2 0.379827 0.091175 0.738213
O O3 0.316603 0.000000 0.764625
O O4 0.336868 0.081607 0.000000
O O5 0.750000 0.750000 0.753519
O O6 0.834905 0.789316 0.755257
O O7 0.797481 0.737224 0.000000
O O8 0.952830 0.913818 0.500000
O O9 0.913999 0.864326 0.744379
O O10 0.000000 0.892413 0.742430
O O11 0.946559 0.000000 0.739284
O O12 0.095639 0.724563 0.222792
O O13 0.118941 0.814804 0.000000
O O14 0.088749 0.664148 0.500000
O O15 0.040591 0.620768 0.266999
O O16 0.000000 0.500000 0.793398
O O17 0.000000 0.602729 0.000000
#
# Coordination Sequence:
#
# PCOD9489500 Si02
#       6
#    16  16  16  16  16   8
#     4   9  17  31  51  73  98 131 171 214 261 309
#     4   8  15  30  51  75 103 134 171 217 268 319
#     4   9  19  36  56  77 105 142 180 218 264 320
#     4  10  20  34  54  79 105 135 173 219 264 308
#     4  11  22  34  50  72 100 135 171 208 251 303
#     4  11  23  37  51  69  98 133 168 209 253 293
#
# _framework density 17.815867000000001
#
# number of rings (size 3 to 8) (size 9 to 14) (size 15 to 20)
#    0.000    2.455    0.000    4.636    1.273    4.000 
#    0.000    1.818    0.000   16.909    0.000    0.000 
#    0.000    0.000    0.000    0.000    0.000    0.000 
#
# Total GULP energy -245198.010206 kJ/mol
# GULP energy per Si atom -5572.682050 kJ/mol
# Density = 1.777532 g / cm^3
# Si number density = 17.815867 Si / 1000 Ang^3
#
#
#
# Elastic Constant Matrix: (Units=GPa)
#
#
# Indices 1 2 3 4 5 6 
#
# 1 163.3025 73.8577 17.0653 0.0000 0.0000 0.0000
# 2 73.8577 85.5729 11.7193 0.0000 0.0000 0.0000
# 3 17.0653 11.7193 6.6395 0.0000 0.0000 0.0000
# 4 0.0000 0.0000 0.0000 12.2469 0.0000 0.0000
# 5 0.0000 0.0000 0.0000 0.0000 66.7403 0.0000
# 6 0.0000 0.0000 0.0000 0.0000 0.0000 15.7944
#
#
#
# Elastic Compliance Matrix: (Units=1/GPa)
#
#
# Indices 1 2 3 4 5 6 
#
# 1 0.011116 -0.007492 -0.015346 0.000000 0.000000 0.000000
# 2 -0.007492 0.020461 -0.016859 0.000000 0.000000 0.000000
# 3 -0.015346 -0.016859 0.219814 0.000000 0.000000 0.000000
# 4 0.000000 0.000000 0.000000 0.081653 0.000000 0.000000
# 5 0.000000 0.000000 0.000000 0.000000 0.014983 0.000000
# 6 0.000000 0.000000 0.000000 0.000000 0.000000 0.063314
#
#
# Mechanical properties :
#
#
# Convention : Reuss Voigt Hill
#
# Bulk Modulus (GPa) = 5.81405 51.19993 28.50699
# Shear Modulus (GPa) = 9.12295 29.14784 19.13540
#
# Velocity S-wave (km/s) = 2.26535 4.04921 3.28085
# Velocity P-wave (km/s) = 3.18008 7.11774 5.51249
#
# Compressibility (1/GPa) = 0.17199702
#
# Stress axis : x y z
#
# Youngs Moduli (GPa) = 89.96079 48.87228 4.54930
#
# Poissons Ratio (x) = 0.36617 0.06981
# Poissons Ratio (y) = 0.67403 0.07669
# Poissons Ratio (z) = 1.38054 0.82392
#
# Static dielectric constant tensor:
#      x y z
#    x 1.606630 0.000000 0.000000 
#    y 0.000000 1.604870 0.000000 
#    z 0.000000 0.000000 1.608730 
# 
# From -- ./inp_files/10103.got.cif
#   From: 2010.05.17/outbox.cif.g08.bks.cpg/sg65_6_cif.got.tgz:10103.got - 2010.06.03 17:01:31.
