data_PCOD9489121
_publ_section_title
;
Structure prediction by ZEFSAII (Michael W. Deem and Ramdas Pophale) SiO2 
 PCOD9489121
Probable space group: C M M M
;
_chemical_formula_sum "Si O2"
_cell_formula_units_Z 68
_cell_length_a 17.372984
_cell_length_b 26.730713
_cell_length_c 7.181028
_cell_angle_alpha 90.000000
_cell_angle_beta 90.000000
_cell_angle_gamma 90.000000
_cell_volume 3334.813745
_symmetry_space_group_name_H-M "C M M M"
_symmetry_group_IT_number 65
_symmetry_cell_setting 'orthorhombic'
loop_
_space_group_symop_operation_xyz
x,y,z
-x,-y,z
x,-y,-z
-x,y,-z
-x,-y,-z
x,y,-z
-x,y,z
x,-y,z
1/2+x,1/2+y,z
1/2-x,1/2-y,z
1/2+x,1/2-y,-z
1/2-x,1/2+y,-z
1/2-x,1/2-y,-z
1/2+x,1/2+y,-z
1/2-x,1/2+y,z
1/2+x,1/2-y,z
loop_
_atom_site_type_symbol
_atom_site_label
_atom_site_fract_x
_atom_site_fract_y
_atom_site_fract_z
Si Si1 0.802490 0.353946 0.226192
Si Si2 0.000000 0.112244 0.500000
Si Si3 0.624133 0.348333 0.224576
Si Si4 0.413933 0.233715 0.225420
Si Si5 0.412444 0.057013 0.226176
O O1 0.713322 0.355274 0.276452
O O2 0.848058 0.304296 0.287505
O O3 0.851037 0.402139 0.286767
O O4 0.803640 0.353162 0.000000
O O5 0.067345 0.116473 0.662448
O O6 0.600883 0.291210 0.275411
O O7 0.616146 0.353557 0.000000
O O8 0.500000 0.218670 0.284575
O O9 0.413354 0.232292 0.000000
O O10 0.500000 0.069638 0.281893
O O11 0.395863 0.000000 0.283219
O O12 0.412069 0.057393 0.000000
#
# Coordination Sequence:
#
# PCOD9489121 Si02
#       5
#    16   4  16  16  16
#     4   9  16  26  44  71 100 134 172 209 249 295
#     4  12  22  36  54  70  99 136 171 214 264 300
#     4  10  20  34  51  72  99 134 175 212 250 300
#     4   9  15  26  45  67  96 133 171 205 243 294
#     4   8  13  22  39  70 110 140 165 202 247 299
#
# _framework density 20.390943
#
# number of rings (size 3 to 8) (size 9 to 14) (size 15 to 20)
#    0.000    2.824    1.176    2.471    0.000    5.647 
#    0.000    2.353    0.000    0.000    0.000    2.471 
#    0.000    7.529    0.000    0.235    0.000    0.000 
#
# Total GULP energy -189353.312901 kJ/mol
# GULP energy per Si atom -5569.215085 kJ/mol
# Density = 2.034453 g / cm^3
# Si number density = 20.390943 Si / 1000 Ang^3
#
#
#
# Elastic Constant Matrix: (Units=GPa)
#
#
# Indices 1 2 3 4 5 6 
#
# 1 139.3288 15.1310 15.7789 0.0000 0.0000 0.0000
# 2 15.1310 20.0640 -0.1741 0.0000 0.0000 0.0000
# 3 15.7789 -0.1741 118.3009 0.0000 0.0000 0.0000
# 4 0.0000 0.0000 0.0000 -28.3471 0.0000 0.0000
# 5 0.0000 0.0000 0.0000 0.0000 77.4406 0.0000
# 6 0.0000 0.0000 0.0000 0.0000 0.0000 63.3813
#
#
#
# Elastic Compliance Matrix: (Units=1/GPa)
#
#
# Indices 1 2 3 4 5 6 
#
# 1 0.007951 -0.006005 -0.001069 0.000000 0.000000 0.000000
# 2 -0.006005 0.054377 0.000881 0.000000 0.000000 0.000000
# 3 -0.001069 0.000881 0.008597 0.000000 0.000000 0.000000
# 4 0.000000 0.000000 0.000000 -0.035277 0.000000 0.000000
# 5 0.000000 0.000000 0.000000 0.000000 0.012913 0.000000
# 6 0.000000 0.000000 0.000000 0.000000 0.000000 0.015778
#
#
# Mechanical properties :
#
#
# Convention : Reuss Voigt Hill
#
# Bulk Modulus (GPa) = 17.08304 37.68503 27.38403
# Shear Modulus (GPa) = 51.95498 38.95882 45.45690
#
# Velocity S-wave (km/s) = 5.05319 4.37578 4.72664
# Velocity P-wave (km/s) = 6.51477 6.63711 6.57623
#
# Compressibility (1/GPa) = 0.05853760
#
# Stress axis : x y z
#
# Youngs Moduli (GPa) = 125.77823 18.39018 116.32053
#
# Poissons Ratio (x) = 0.11043 0.12438
# Poissons Ratio (y) = 0.75530 -0.10247
# Poissons Ratio (z) = 0.13449 -0.01620
#
# Static dielectric constant tensor:
#      x y z
#    x 1.691840 0.000000 0.000000 
#    y 0.000000 1.690400 0.000000 
#    z 0.000000 0.000000 1.807650 
# 
# From -- ./inp_files/9496.got.cif
#   From: 2010.05.17/outbox.cif.g08.bks.cpg/sg65_5_cif.got.tgz:9496.got - 2010.06.03 17:01:31.
