data_PCOD9489570
_publ_section_title
;
Structure prediction by ZEFSAII (Michael W. Deem and Ramdas Pophale) SiO2 
 PCOD9489570
Probable space group: C M M M
;
_chemical_formula_sum "Si O2"
_cell_formula_units_Z 104
_cell_length_a 8.026844
_cell_length_b 26.975254
_cell_length_c 21.400599
_cell_angle_alpha 90.000000
_cell_angle_beta 90.000000
_cell_angle_gamma 90.000000
_cell_volume 4633.789432
_symmetry_space_group_name_H-M "C M M M"
_symmetry_group_IT_number 65
_symmetry_cell_setting 'orthorhombic'
loop_
_space_group_symop_operation_xyz
x,y,z
-x,-y,z
x,-y,-z
-x,y,-z
-x,-y,-z
x,y,-z
-x,y,z
x,-y,z
1/2+x,1/2+y,z
1/2-x,1/2-y,z
1/2+x,1/2-y,-z
1/2-x,1/2+y,-z
1/2-x,1/2-y,-z
1/2+x,1/2+y,-z
1/2-x,1/2+y,z
1/2+x,1/2-y,z
loop_
_atom_site_type_symbol
_atom_site_label
_atom_site_fract_x
_atom_site_fract_y
_atom_site_fract_z
Si Si1 0.300834 0.306335 0.572725
Si Si2 0.800784 0.303555 0.798192
Si Si3 0.796560 0.338360 0.067773
Si Si4 0.305930 0.053993 0.892356
Si Si5 0.192944 0.441399 0.500000
Si Si6 0.689340 0.588946 0.763452
Si Si7 0.195074 0.403804 0.370542
O O1 0.250928 0.316821 0.500000
O O2 0.500000 0.311169 0.576800
O O3 0.250000 0.250000 0.585705
O O4 0.217423 0.344932 0.619714
O O5 0.750000 0.250000 0.773097
O O6 0.745856 0.308037 0.871088
O O7 0.722318 0.351969 0.767034
O O8 0.000000 0.308808 0.794717
O O9 0.737902 0.395375 0.077651
O O10 0.000000 0.339012 0.068369
O O11 0.741480 0.319920 0.000000
O O12 0.500000 0.052362 0.910597
O O13 0.296261 0.063416 0.817678
O O14 0.232029 0.000000 0.907433
O O15 0.186647 0.500000 0.500000
O O16 0.270648 0.424314 0.435047
O O17 0.000000 0.422411 0.500000
O O18 0.500000 0.577968 0.779706
O O19 0.725859 0.575480 0.692277
O O20 0.000000 0.416179 0.367490
#
# Coordination Sequence:
#
# PCOD9489570 Si02
#       7
#    16  16  16  16   8  16  16
#     4  10  20  34  54  80 111 142 176 214 262 320
#     4  10  20  36  57  82 113 150 190 231 276 326
#     4   8  15  29  51  82 117 149 184 227 274 327
#     4   9  18  34  56  81 110 146 187 231 280 332
#     4   9  20  38  60  85 110 139 176 219 268 325
#     4  11  23  38  56  80 110 145 187 233 282 331
#     4  11  21  37  60  84 111 143 182 226 278 333
#
# _framework density 22.443835
#
# number of rings (size 3 to 8) (size 9 to 14) (size 15 to 20)
#    0.000    2.231    0.769    3.692    0.000    2.769 
#    0.000    6.154    0.000   14.308    0.000    4.308 
#    0.000    0.000    0.000    0.000    0.000    0.000 
#
# Total GULP energy -290386.455756 kJ/mol
# GULP energy per Si atom -5584.354918 kJ/mol
# Density = 2.239275 g / cm^3
# Si number density = 22.443835 Si / 1000 Ang^3
#
#
#
# Elastic Constant Matrix: (Units=GPa)
#
#
# Indices 1 2 3 4 5 6 
#
# 1 36.9749 -10.4775 -4.3067 0.0000 0.0000 0.0000
# 2 -10.4775 46.8985 -19.1795 0.0000 0.0000 0.0000
# 3 -4.3067 -19.1795 79.7416 0.0000 0.0000 0.0000
# 4 0.0000 0.0000 0.0000 -3.5308 0.0000 0.0000
# 5 0.0000 0.0000 0.0000 0.0000 3.8123 0.0000
# 6 0.0000 0.0000 0.0000 0.0000 0.0000 11.4902
#
#
#
# Elastic Compliance Matrix: (Units=1/GPa)
#
#
# Indices 1 2 3 4 5 6 
#
# 1 0.029755 0.008102 0.003556 0.000000 0.000000 0.000000
# 2 0.008102 0.025855 0.006656 0.000000 0.000000 0.000000
# 3 0.003556 0.006656 0.014333 0.000000 0.000000 0.000000
# 4 0.000000 0.000000 0.000000 -0.283224 0.000000 0.000000
# 5 0.000000 0.000000 0.000000 0.000000 0.262308 0.000000
# 6 0.000000 0.000000 0.000000 0.000000 0.000000 0.087030
#
#
# Mechanical properties :
#
#
# Convention : Reuss Voigt Hill
#
# Bulk Modulus (GPa) = 9.38345 10.63194 10.00769
# Shear Modulus (GPa) = 37.04971 15.52627 26.28799
#
# Velocity S-wave (km/s) = 4.06738 2.63303 3.42611
# Velocity P-wave (km/s) = 5.12328 3.74048 4.48549
#
# Compressibility (1/GPa) = 0.10657064
#
# Stress axis : x y z
#
# Youngs Moduli (GPa) = 33.60743 38.67763 69.76671
#
# Poissons Ratio (x) = -0.31336 -0.24807
# Poissons Ratio (y) = -0.27228 -0.46438
# Poissons Ratio (z) = -0.11950 -0.25744
#
# Static dielectric constant tensor:
#      x y z
#    x 1.814450 0.000000 0.000000 
#    y 0.000000 1.835710 0.000000 
#    z 0.000000 0.000000 1.854520 
# 
# From -- ./inp_files/60452.got.cif
#   From: 2010.05.17/outbox.cif.g08.bks.cpg/sg65_31_cif.got.tgz:60452.got - 2010.06.03 17:01:31.
