data_PCOD9489868
_publ_section_title
;
Structure prediction by ZEFSAII (Michael W. Deem and Ramdas Pophale) SiO2 
 PCOD9489868
Probable space group: C M M M
;
_chemical_formula_sum "Si O2"
_cell_formula_units_Z 72
_cell_length_a 8.341645
_cell_length_b 27.900221
_cell_length_c 16.572962
_cell_angle_alpha 90.000000
_cell_angle_beta 90.000000
_cell_angle_gamma 90.000000
_cell_volume 3857.087413
_symmetry_space_group_name_H-M "C M M M"
_symmetry_group_IT_number 65
_symmetry_cell_setting 'orthorhombic'
loop_
_space_group_symop_operation_xyz
x,y,z
-x,-y,z
x,-y,-z
-x,y,-z
-x,-y,-z
x,y,-z
-x,y,z
x,-y,z
1/2+x,1/2+y,z
1/2-x,1/2-y,z
1/2+x,1/2-y,-z
1/2-x,1/2+y,-z
1/2-x,1/2-y,-z
1/2+x,1/2+y,-z
1/2-x,1/2+y,z
1/2+x,1/2-y,z
loop_
_atom_site_type_symbol
_atom_site_label
_atom_site_fract_x
_atom_site_fract_y
_atom_site_fract_z
Si Si1 0.690572 0.302494 0.752569
Si Si2 0.193994 0.946100 0.663396
Si Si3 0.691265 0.848424 0.410307
Si Si4 0.195294 0.899587 0.168051
Si Si5 0.803736 0.055540 0.000000
O O1 0.500000 0.302810 0.757328
O O2 0.750000 0.250000 0.774352
O O3 0.738138 0.316401 0.661308
O O4 0.751100 0.346169 0.808544
O O5 0.263327 0.903464 0.609508
O O6 0.237907 0.933455 0.756183
O O7 0.000000 0.943842 0.658062
O O8 0.244634 0.000000 0.642376
O O9 0.749211 0.835711 0.500000
O O10 0.500000 0.843743 0.408105
O O11 0.250847 0.918811 0.082025
O O12 0.000000 0.899003 0.165719
O O13 0.000000 0.056571 0.000000
O O14 0.756377 0.000000 0.000000
#
# Coordination Sequence:
#
# PCOD9489868 Si02
#       5
#    16  16  16  16   8
#     4  10  20  35  54  73  96 127 163 202 246 296
#     4   9  17  30  48  70  99 135 171 204 242 290
#     4  10  21  35  50  71  98 126 161 205 250 297
#     4   8  15  27  44  70 101 130 162 201 241 283
#     4   9  14  22  43  74 105 133 161 197 238 277
#
# _framework density 18.666934000000001
#
# number of rings (size 3 to 8) (size 9 to 14) (size 15 to 20)
#    0.000    2.778    0.000    3.333    0.000    5.778 
#    0.000    2.778    0.000    0.000    0.000   18.667 
#    0.000   29.333    0.000    0.000    0.000    0.000 
#
# Total GULP energy -200779.081692 kJ/mol
# GULP energy per Si atom -5577.196714 kJ/mol
# Density = 1.862445 g / cm^3
# Si number density = 18.666934 Si / 1000 Ang^3
#
#
#
# Elastic Constant Matrix: (Units=GPa)
#
#
# Indices 1 2 3 4 5 6 
#
# 1 15.7775 9.7516 5.6661 0.0000 0.0000 0.0000
# 2 9.7516 101.0838 27.2588 0.0000 0.0000 0.0000
# 3 5.6661 27.2588 100.9937 0.0000 0.0000 0.0000
# 4 0.0000 0.0000 0.0000 5.3086 0.0000 0.0000
# 5 0.0000 0.0000 0.0000 0.0000 -3.1598 0.0000
# 6 0.0000 0.0000 0.0000 0.0000 0.0000 27.4914
#
#
#
# Elastic Compliance Matrix: (Units=1/GPa)
#
#
# Indices 1 2 3 4 5 6 
#
# 1 0.067851 -0.005952 -0.002200 0.000000 0.000000 0.000000
# 2 -0.005952 0.011192 -0.002687 0.000000 0.000000 0.000000
# 3 -0.002200 -0.002687 0.010750 0.000000 0.000000 0.000000
# 4 0.000000 0.000000 0.000000 0.188374 0.000000 0.000000
# 5 0.000000 0.000000 0.000000 0.000000 -0.316471 0.000000
# 6 0.000000 0.000000 0.000000 0.000000 0.000000 0.036375
#
#
# Mechanical properties :
#
#
# Convention : Reuss Voigt Hill
#
# Bulk Modulus (GPa) = 14.68126 33.68978 24.18552
# Shear Modulus (GPa) = 117.77650 17.60659 67.69154
#
# Velocity S-wave (km/s) = 7.95177 3.07448 6.02839
# Velocity P-wave (km/s) = 9.60153 5.53988 7.83836
#
# Compressibility (1/GPa) = 0.06811405
#
# Stress axis : x y z
#
# Youngs Moduli (GPa) = 14.73827 89.35338 93.02154
#
# Poissons Ratio (x) = 0.53186 0.20466
# Poissons Ratio (y) = 0.08773 0.24992
# Poissons Ratio (z) = 0.03243 0.24007
#
# Static dielectric constant tensor:
#      x y z
#    x 1.653610 0.000000 0.000000 
#    y 0.000000 1.640000 0.000000 
#    z 0.000000 0.000000 1.640710 
# 
# From -- ./inp_files/37008.got.cif
#   From: 2010.05.17/outbox.cif.g08.bks.cpg/sg65_19_cif.got.tgz:37008.got - 2010.06.03 17:01:31.
