data_PCOD9489484
_publ_section_title
;
Structure prediction by ZEFSAII (Michael W. Deem and Ramdas Pophale) SiO2 
 PCOD9489484
Probable space group: C M M M
;
_chemical_formula_sum "Si O2"
_cell_formula_units_Z 120
_cell_length_a 28.553142
_cell_length_b 8.729339
_cell_length_c 27.389947
_cell_angle_alpha 90.000000
_cell_angle_beta 90.000000
_cell_angle_gamma 90.000000
_cell_volume 6826.945824
_symmetry_space_group_name_H-M "C M M M"
_symmetry_group_IT_number 65
_symmetry_cell_setting 'orthorhombic'
loop_
_space_group_symop_operation_xyz
x,y,z
-x,-y,z
x,-y,-z
-x,y,-z
-x,-y,-z
x,y,-z
-x,y,z
x,-y,z
1/2+x,1/2+y,z
1/2-x,1/2-y,z
1/2+x,1/2-y,-z
1/2-x,1/2+y,-z
1/2-x,1/2-y,-z
1/2+x,1/2+y,-z
1/2-x,1/2+y,z
1/2+x,1/2-y,z
loop_
_atom_site_type_symbol
_atom_site_label
_atom_site_fract_x
_atom_site_fract_y
_atom_site_fract_z
Si Si1 0.444179 0.174279 0.500000
Si Si2 0.301918 0.315229 0.054744
Si Si3 0.604641 0.317911 0.593293
Si Si4 0.647510 0.685915 0.847247
Si Si5 0.391664 0.314547 0.298092
Si Si6 0.447408 0.685997 0.798055
Si Si7 0.299914 0.819714 0.558644
Si Si8 0.301451 0.816738 0.752700
O O1 0.500000 0.177265 0.500000
O O2 0.425298 0.250620 0.450844
O O3 0.426697 0.000000 0.500000
O O4 0.299312 0.500000 0.055418
O O5 0.250000 0.250000 0.062958
O O6 0.335293 0.268486 0.099130
O O7 0.316979 0.268280 0.000000
O O8 0.601287 0.500000 0.590850
O O9 0.591632 0.268589 0.648095
O O10 0.657808 0.266170 0.584275
O O11 0.650459 0.500000 0.842898
O O12 0.594090 0.731715 0.834947
O O13 0.680753 0.757043 0.805645
O O14 0.386768 0.500000 0.296897
O O15 0.428089 0.271237 0.255573
O O16 0.341403 0.243322 0.284358
O O17 0.500000 0.742665 0.807284
O O18 0.449155 0.500000 0.799292
O O19 0.305330 0.799778 0.500000
O O20 0.250000 0.750000 0.572579
O O21 0.301435 0.000000 0.569150
O O22 0.250000 0.750000 0.742408
O O23 0.299864 0.000000 0.752206
#
# Coordination Sequence:
#
# PCOD9489484 Si02
#       8
#     8  16  16  16  16  16  16  16
#     4  11  25  43  60  79 106 139 171 205 251 305
#     4   9  17  28  43  66  98 136 174 212 255 303
#     4  11  22  37  59  82 106 133 167 212 256 302
#     4   9  17  30  48  71 100 133 172 216 258 303
#     4   9  20  36  53  77 104 131 164 204 251 301
#     4   8  14  28  51  74  95 123 162 206 252 302
#     4  10  20  34  54  78 105 136 168 201 240 291
#     4  11  21  33  51  74 103 138 172 207 248 299
#
# _framework density 17.577406
#
# number of rings (size 3 to 8) (size 9 to 14) (size 15 to 20)
#    0.000    2.333    0.667    3.400    0.000    4.800 
#    0.000    1.333    0.000    6.800    0.000    2.800 
#    0.000    0.000    0.000    8.133    0.000    8.800 
#
# Total GULP energy -334736.989909 kJ/mol
# GULP energy per Si atom -5578.949832 kJ/mol
# Density = 1.753740 g / cm^3
# Si number density = 17.577406 Si / 1000 Ang^3
#
#
#
# Elastic Constant Matrix: (Units=GPa)
#
#
# Indices 1 2 3 4 5 6 
#
# 1 87.8904 15.6461 58.2965 0.0000 0.0000 0.0000
# 2 15.6461 33.9811 34.0824 0.0000 0.0000 0.0000
# 3 58.2965 34.0824 140.9104 0.0000 0.0000 0.0000
# 4 0.0000 0.0000 0.0000 15.6540 0.0000 0.0000
# 5 0.0000 0.0000 0.0000 0.0000 9.6305 0.0000
# 6 0.0000 0.0000 0.0000 0.0000 0.0000 17.4661
#
#
#
# Elastic Compliance Matrix: (Units=1/GPa)
#
#
# Indices 1 2 3 4 5 6 
#
# 1 0.015704 -0.000943 -0.006269 0.000000 0.000000 0.000000
# 2 -0.000943 0.038910 -0.009021 0.000000 0.000000 0.000000
# 3 -0.006269 -0.009021 0.011872 0.000000 0.000000 0.000000
# 4 0.000000 0.000000 0.000000 0.063881 0.000000 0.000000
# 5 0.000000 0.000000 0.000000 0.000000 0.103837 0.000000
# 6 0.000000 0.000000 0.000000 0.000000 0.000000 0.057254
#
#
# Mechanical properties :
#
#
# Convention : Reuss Voigt Hill
#
# Bulk Modulus (GPa) = 29.39431 53.20356 41.29894
# Shear Modulus (GPa) = 14.91361 18.86725 16.89043
#
# Velocity S-wave (km/s) = 2.91598 3.27980 3.10323
# Velocity P-wave (km/s) = 5.30060 6.68406 6.03212
#
# Compressibility (1/GPa) = 0.03402019
#
# Stress axis : x y z
#
# Youngs Moduli (GPa) = 63.67956 25.70002 84.23093
#
# Poissons Ratio (x) = 0.02424 0.52802
# Poissons Ratio (y) = 0.06006 0.75986
# Poissons Ratio (z) = 0.39919 0.23184
#
# Static dielectric constant tensor:
#      x y z
#    x 1.573620 0.000000 0.000000 
#    y 0.000000 1.595840 0.000000 
#    z 0.000000 0.000000 1.618160 
# 
# From -- ./inp_files/76139.got.cif
#   From: 2010.05.17/outbox.cif.g08.bks.cpg/sg65_39_cif.got.tgz:76139.got - 2010.06.03 17:01:31.
