data_PCOD9489405
_publ_section_title
;
Structure prediction by ZEFSAII (Michael W. Deem and Ramdas Pophale) SiO2 
 PCOD9489405
Probable space group: C M M M
;
_chemical_formula_sum "Si O2"
_cell_formula_units_Z 88
_cell_length_a 14.830672
_cell_length_b 7.965048
_cell_length_c 33.285446
_cell_angle_alpha 90.000000
_cell_angle_beta 90.000000
_cell_angle_gamma 90.000000
_cell_volume 3931.910357
_symmetry_space_group_name_H-M "C M M M"
_symmetry_group_IT_number 65
_symmetry_cell_setting 'orthorhombic'
loop_
_space_group_symop_operation_xyz
x,y,z
-x,-y,z
x,-y,-z
-x,y,-z
-x,-y,-z
x,y,-z
-x,y,z
x,-y,z
1/2+x,1/2+y,z
1/2-x,1/2-y,z
1/2+x,1/2-y,-z
1/2-x,1/2+y,-z
1/2-x,1/2-y,-z
1/2+x,1/2+y,-z
1/2-x,1/2+y,z
1/2+x,1/2-y,z
loop_
_atom_site_type_symbol
_atom_site_label
_atom_site_fract_x
_atom_site_fract_y
_atom_site_fract_z
Si Si1 0.894765 0.190225 0.824207
Si Si2 0.644795 0.798786 0.543982
Si Si3 0.395288 0.319411 0.368651
Si Si4 0.354905 0.701711 0.913630
Si Si5 0.611011 0.000000 0.320671
Si Si6 0.143656 0.203259 0.000000
Si Si7 0.110895 0.500000 0.227663
O O1 0.891153 0.254209 0.870360
O O2 0.856570 0.332808 0.795250
O O3 0.000000 0.174536 0.813814
O O4 0.855880 0.000000 0.822106
O O5 0.608940 0.747093 0.500000
O O6 0.750000 0.750000 0.544205
O O7 0.605886 0.717237 0.583840
O O8 0.634764 0.000000 0.547076
O O9 0.500000 0.329011 0.356597
O O10 0.352249 0.500000 0.360932
O O11 0.356388 0.164053 0.344331
O O12 0.365552 0.500000 0.914215
O O13 0.250000 0.750000 0.913247
O O14 0.392146 0.764022 0.956718
O O15 0.500000 0.000000 0.322443
O O16 0.636496 0.000000 0.274195
O O17 0.250000 0.250000 0.000000
O O18 0.135656 0.000000 0.000000
O O19 0.000000 0.500000 0.225808
#
# Coordination Sequence:
#
# PCOD9489405 Si02
#       7
#    16  16  16  16   8   8   8
#     4   9  18  32  49  73 100 126 163 205 248 299
#     4  10  20  34  53  78 108 143 181 217 251 300
#     4  10  20  34  54  80 108 138 172 215 261 304
#     4   9  17  28  46  70  94 128 162 200 245 290
#     4   9  18  34  53  78 104 128 168 212 258 310
#     4   8  14  26  41  63  94 122 162 198 233 288
#     4   9  18  32  54  76  98 130 163 207 255 302
#
# _framework density 22.380977999999999
#
# number of rings (size 3 to 8) (size 9 to 14) (size 15 to 20)
#    0.000    2.727    0.909    0.545    1.273    2.182 
#    0.000    5.909    0.000    3.818    0.000    1.909 
#    0.000    0.000    0.000    0.000    0.000    0.000 
#
# Total GULP energy -245411.182105 kJ/mol
# GULP energy per Si atom -5577.526866 kJ/mol
# Density = 2.233004 g / cm^3
# Si number density = 22.380978 Si / 1000 Ang^3
#
#
#
# Elastic Constant Matrix: (Units=GPa)
#
#
# Indices 1 2 3 4 5 6 
#
# 1 43.3498 8.5331 -0.6783 0.0000 0.0000 0.0000
# 2 8.5331 138.9893 107.7835 0.0000 0.0000 0.0000
# 3 -0.6783 107.7835 185.3149 0.0000 0.0000 0.0000
# 4 0.0000 0.0000 0.0000 -624.8873 0.0000 0.0000
# 5 0.0000 0.0000 0.0000 0.0000 25.5796 0.0000
# 6 0.0000 0.0000 0.0000 0.0000 0.0000 11.3628
#
#
#
# Elastic Compliance Matrix: (Units=1/GPa)
#
#
# Indices 1 2 3 4 5 6 
#
# 1 0.023639 -0.002766 0.001695 0.000000 0.000000 0.000000
# 2 -0.002766 0.013430 -0.007821 0.000000 0.000000 0.000000
# 3 0.001695 -0.007821 0.009951 0.000000 0.000000 0.000000
# 4 0.000000 0.000000 0.000000 -0.001600 0.000000 0.000000
# 5 0.000000 0.000000 0.000000 0.000000 0.039094 0.000000
# 6 0.000000 0.000000 0.000000 0.000000 0.000000 0.088007
#
#
# Mechanical properties :
#
#
# Convention : Reuss Voigt Hill
#
# Bulk Modulus (GPa) = 34.20373 66.54786 50.37580
# Shear Modulus (GPa) = 24.99377 -100.78794 -37.89708
#
# Velocity S-wave (km/s) = 3.34539 -6.71793 -4.11940
# Velocity P-wave (km/s) = 5.49890 5.51140 0.26230
#
# Compressibility (1/GPa) = 0.02923658
#
# Stress axis : x y z
#
# Youngs Moduli (GPa) = 42.30273 74.46119 100.48808
#
# Poissons Ratio (x) = 0.20596 -0.17035
# Poissons Ratio (y) = 0.11701 0.78594
# Poissons Ratio (z) = -0.07171 0.58238
#
# Static dielectric constant tensor:
#      x y z
#    x 1.830960 0.000000 0.000000 
#    y 0.000000 1.852350 0.000000 
#    z 0.000000 0.000000 1.816410 
# 
# From -- ./inp_files/77987.got.cif
#   From: 2010.05.17/outbox.cif.g08.bks.cpg/sg65_39_cif.got.tgz:77987.got - 2010.06.03 17:01:31.
