data_PCOD9489553
_publ_section_title
;
Structure prediction by ZEFSAII (Michael W. Deem and Ramdas Pophale) SiO2 
 PCOD9489553
Probable space group: C M M M
;
_chemical_formula_sum "Si O2"
_cell_formula_units_Z 104
_cell_length_a 8.947759
_cell_length_b 20.117907
_cell_length_c 33.629929
_cell_angle_alpha 90.000000
_cell_angle_beta 90.000000
_cell_angle_gamma 90.000000
_cell_volume 6053.729688
_symmetry_space_group_name_H-M "C M M M"
_symmetry_group_IT_number 65
_symmetry_cell_setting 'orthorhombic'
loop_
_space_group_symop_operation_xyz
x,y,z
-x,-y,z
x,-y,-z
-x,y,-z
-x,-y,-z
x,y,-z
-x,y,z
x,-y,z
1/2+x,1/2+y,z
1/2-x,1/2-y,z
1/2+x,1/2-y,-z
1/2-x,1/2+y,-z
1/2-x,1/2-y,-z
1/2+x,1/2+y,-z
1/2-x,1/2+y,z
1/2+x,1/2-y,z
loop_
_atom_site_type_symbol
_atom_site_label
_atom_site_fract_x
_atom_site_fract_y
_atom_site_fract_z
Si Si1 0.821736 0.178368 0.261292
Si Si2 0.678331 0.921824 0.199211
Si Si3 0.178559 0.578667 0.416918
Si Si4 0.678516 0.321829 0.354395
Si Si5 0.171823 0.080662 0.500000
Si Si6 0.320295 0.577401 0.114481
Si Si7 0.180126 0.821876 0.954652
O O1 0.750000 0.250000 0.252176
O O2 0.752909 0.123107 0.232764
O O3 0.790392 0.163878 0.307822
O O4 0.000000 0.181722 0.256190
O O5 0.500000 0.913590 0.199790
O O6 0.742216 0.903744 0.155796
O O7 0.712593 0.000000 0.205568
O O8 0.212291 0.500000 0.411600
O O9 0.251653 0.622432 0.382524
O O10 0.244506 0.600284 0.459634
O O11 0.000000 0.586234 0.416900
O O12 0.500000 0.318839 0.359662
O O13 0.750000 0.250000 0.363493
O O14 0.000000 0.103311 0.500000
O O15 0.171299 0.000000 0.500000
O O16 0.500000 0.582668 0.119352
O O17 0.285641 0.500000 0.106220
O O18 0.274232 0.624289 0.078095
O O19 0.250000 0.750000 0.946188
O O20 0.000000 0.816634 0.953387
O O21 0.221951 0.840618 0.000000
#
# Coordination Sequence:
#
# PCOD9489553 Si02
#       7
#    16  16  16  16   8  16  16
#     4  10  21  37  57  79 104 136 174 215 259 310
#     4  10  21  36  54  77 106 138 172 213 259 307
#     4  10  20  34  54  80 109 141 177 216 259 309
#     4  10  21  37  56  78 106 139 174 214 261 311
#     4   9  17  31  52  77 106 139 176 219 263 307
#     4   9  18  33  52  73  99 132 169 209 253 301
#     4   9  18  32  50  73 100 130 165 206 252 301
#
# _framework density 17.179492
#
# number of rings (size 3 to 8) (size 9 to 14) (size 15 to 20)
#    0.000    2.385    0.000    2.077    0.000    6.769 
#    0.000    6.538    0.000    0.000    0.000    4.308 
#    0.000    0.000    0.000    0.000    0.000    0.000 
#
# Total GULP energy -290168.936714 kJ/mol
# GULP energy per Si atom -5580.171860 kJ/mol
# Density = 1.714039 g / cm^3
# Si number density = 17.179492 Si / 1000 Ang^3
#
#
#
# Elastic Constant Matrix: (Units=GPa)
#
#
# Indices 1 2 3 4 5 6 
#
# 1 66.9833 62.2778 74.6757 0.0000 0.0000 0.0000
# 2 62.2778 99.7401 108.2078 0.0000 0.0000 0.0000
# 3 74.6757 108.2078 148.8633 0.0000 0.0000 0.0000
# 4 0.0000 0.0000 0.0000 81.8535 0.0000 0.0000
# 5 0.0000 0.0000 0.0000 0.0000 26.9220 0.0000
# 6 0.0000 0.0000 0.0000 0.0000 0.0000 31.0110
#
#
#
# Elastic Compliance Matrix: (Units=1/GPa)
#
#
# Indices 1 2 3 4 5 6 
#
# 1 0.037750 -0.014317 -0.008530 0.000000 0.000000 0.000000
# 2 -0.014317 0.052858 -0.031240 0.000000 0.000000 0.000000
# 3 -0.008530 -0.031240 0.033705 0.000000 0.000000 0.000000
# 4 0.000000 0.000000 0.000000 0.012217 0.000000 0.000000
# 5 0.000000 0.000000 0.000000 0.000000 0.037144 0.000000
# 6 0.000000 0.000000 0.000000 0.000000 0.000000 0.032247
#
#
# Mechanical properties :
#
#
# Convention : Reuss Voigt Hill
#
# Bulk Modulus (GPa) = 61.96360 89.54548 75.75454
# Shear Modulus (GPa) = 15.65073 32.65231 24.15152
#
# Velocity S-wave (km/s) = 3.02157 4.36438 3.75351
# Velocity P-wave (km/s) = 6.95125 8.81100 7.93579
#
# Compressibility (1/GPa) = 0.01613851
#
# Stress axis : x y z
#
# Youngs Moduli (GPa) = 26.49019 18.91863 29.66945
#
# Poissons Ratio (x) = 0.27086 0.25308
# Poissons Ratio (y) = 0.37926 0.92688
# Poissons Ratio (z) = 0.22596 0.59102
#
# Static dielectric constant tensor:
#      x y z
#    x 1.572580 0.000000 0.000000 
#    y 0.000000 1.555040 0.000000 
#    z 0.000000 0.000000 1.564110 
# 
# From -- ./inp_files/73311.got.cif
#   From: 2010.05.17/outbox.cif.g08.bks.cpg/sg65_37_cif.got.tgz:73311.got - 2010.06.03 17:01:31.
