data_PCOD9489403
_publ_section_title
;
Structure prediction by ZEFSAII (Michael W. Deem and Ramdas Pophale) SiO2 
 PCOD9489403
Probable space group: C M M M
;
_chemical_formula_sum "Si O2"
_cell_formula_units_Z 88
_cell_length_a 15.749735
_cell_length_b 9.249350
_cell_length_c 31.024557
_cell_angle_alpha 90.000000
_cell_angle_beta 90.000000
_cell_angle_gamma 90.000000
_cell_volume 4519.496490
_symmetry_space_group_name_H-M "C M M M"
_symmetry_group_IT_number 65
_symmetry_cell_setting 'orthorhombic'
loop_
_space_group_symop_operation_xyz
x,y,z
-x,-y,z
x,-y,-z
-x,y,-z
-x,-y,-z
x,y,-z
-x,y,z
x,-y,z
1/2+x,1/2+y,z
1/2-x,1/2-y,z
1/2+x,1/2-y,-z
1/2-x,1/2+y,-z
1/2-x,1/2-y,-z
1/2+x,1/2+y,-z
1/2-x,1/2+y,z
1/2+x,1/2-y,z
loop_
_atom_site_type_symbol
_atom_site_label
_atom_site_fract_x
_atom_site_fract_y
_atom_site_fract_z
Si Si1 0.663510 0.174327 0.604715
Si Si2 0.399311 0.162181 0.130729
Si Si3 0.104100 0.834149 0.785845
Si Si4 0.102317 0.669436 0.300110
Si Si5 0.000000 0.324003 0.549434
Si Si6 0.841244 0.172545 0.047600
O O1 0.750000 0.250000 0.591083
O O2 0.643335 0.211644 0.654512
O O3 0.584097 0.219752 0.575319
O O4 0.670805 0.000000 0.602361
O O5 0.500000 0.148939 0.137460
O O6 0.365350 0.242698 0.173088
O O7 0.387226 0.256563 0.088020
O O8 0.363713 0.000000 0.125569
O O9 0.130098 0.762983 0.740716
O O10 0.000000 0.832444 0.786268
O O11 0.131076 0.000000 0.789109
O O12 0.119779 0.500000 0.291870
O O13 0.000000 0.683142 0.304793
O O14 0.000000 0.500000 0.549336
O O15 0.000000 0.275128 0.500000
O O16 0.750000 0.250000 0.047005
O O17 0.833209 0.000000 0.052937
O O18 0.880556 0.198243 0.000000
#
# Coordination Sequence:
#
# PCOD9489403 Si02
#       6
#    16  16  16  16   8  16
#     4  10  20  35  56  84 115 150 192 240 289 340
#     4  10  20  34  53  78 108 141 178 220 268 322
#     4   9  17  29  48  76 107 138 175 220 272 324
#     4   9  16  30  52  74 101 140 185 224 267 330
#     4   9  18  36  61  85 113 155 201 237 282 349
#     4  10  21  37  56  76 100 133 173 218 270 328
#
# _framework density 19.471195000000002
#
# number of rings (size 3 to 8) (size 9 to 14) (size 15 to 20)
#    0.000    2.455    0.909    1.636    0.000    5.818 
#    0.000    3.182    0.000    2.727    0.000    0.000 
#    0.000    0.000    0.000    0.000    0.000    0.000 
#
# Total GULP energy -245553.981017 kJ/mol
# GULP energy per Si atom -5580.772296 kJ/mol
# Density = 1.942688 g / cm^3
# Si number density = 19.471195 Si / 1000 Ang^3
#
#
#
# Elastic Constant Matrix: (Units=GPa)
#
#
# Indices 1 2 3 4 5 6 
#
# 1 61.8520 33.9078 53.5957 0.0000 0.0000 0.0000
# 2 33.9078 95.9047 79.2272 0.0000 0.0000 0.0000
# 3 53.5957 79.2272 170.6296 0.0000 0.0000 0.0000
# 4 0.0000 0.0000 0.0000 5.8939 0.0000 0.0000
# 5 0.0000 0.0000 0.0000 0.0000 592.4598 0.0000
# 6 0.0000 0.0000 0.0000 0.0000 0.0000 24.0206
#
#
#
# Elastic Compliance Matrix: (Units=1/GPa)
#
#
# Indices 1 2 3 4 5 6 
#
# 1 0.022915 -0.003497 -0.005574 0.000000 0.000000 0.000000
# 2 -0.003497 0.017449 -0.007004 0.000000 0.000000 0.000000
# 3 -0.005574 -0.007004 0.010863 0.000000 0.000000 0.000000
# 4 0.000000 0.000000 0.000000 0.169666 0.000000 0.000000
# 5 0.000000 0.000000 0.000000 0.000000 0.001688 0.000000
# 6 0.000000 0.000000 0.000000 0.000000 0.000000 0.041631
#
#
# Mechanical properties :
#
#
# Convention : Reuss Voigt Hill
#
# Bulk Modulus (GPa) = 52.41617 73.53866 62.97742
# Shear Modulus (GPa) = 16.51691 135.25190 75.88440
#
# Velocity S-wave (km/s) = 2.91567 8.34346 6.24958
# Velocity P-wave (km/s) = 6.18976 11.43100 9.19187
#
# Compressibility (1/GPa) = 0.01907808
#
# Stress axis : x y z
#
# Youngs Moduli (GPa) = 43.64039 57.30954 92.05272
#
# Poissons Ratio (x) = 0.20041 0.51309
# Poissons Ratio (y) = 0.15261 0.64470
# Poissons Ratio (z) = 0.24324 0.40137
#
# Static dielectric constant tensor:
#      x y z
#    x 1.707450 0.000000 0.000000 
#    y 0.000000 1.662840 0.000000 
#    z 0.000000 0.000000 1.670350 
# 
# From -- ./inp_files/77934.got.cif
#   From: 2010.05.17/outbox.cif.g08.bks.cpg/sg65_39_cif.got.tgz:77934.got - 2010.06.03 17:01:31.
