data_PCOD9489708
_publ_section_title
;
Structure prediction by ZEFSAII (Michael W. Deem and Ramdas Pophale) SiO2 
 PCOD9489708
Probable space group: C M M M
;
_chemical_formula_sum "Si O2"
_cell_formula_units_Z 80
_cell_length_a 29.663207
_cell_length_b 16.089113
_cell_length_c 8.554841
_cell_angle_alpha 90.000000
_cell_angle_beta 90.000000
_cell_angle_gamma 90.000000
_cell_volume 4082.837984
_symmetry_space_group_name_H-M "C M M M"
_symmetry_group_IT_number 65
_symmetry_cell_setting 'orthorhombic'
loop_
_space_group_symop_operation_xyz
x,y,z
-x,-y,z
x,-y,-z
-x,y,-z
-x,-y,-z
x,y,-z
-x,y,z
x,-y,z
1/2+x,1/2+y,z
1/2-x,1/2-y,z
1/2+x,1/2-y,-z
1/2-x,1/2+y,-z
1/2-x,1/2-y,-z
1/2+x,1/2+y,-z
1/2-x,1/2+y,z
1/2+x,1/2-y,z
loop_
_atom_site_type_symbol
_atom_site_label
_atom_site_fract_x
_atom_site_fract_y
_atom_site_fract_z
Si Si1 0.856059 0.408370 0.186489
Si Si2 0.050531 0.837841 0.813133
Si Si3 0.141140 0.091608 0.311261
Si Si4 0.449389 0.150101 0.687025
Si Si5 0.698236 0.750714 0.688856
O O1 0.840442 0.500000 0.238543
O O2 0.908172 0.397244 0.234898
O O3 0.827813 0.332974 0.258038
O O4 0.852749 0.403667 0.000000
O O5 0.090761 0.893666 0.750249
O O6 0.054854 0.746768 0.735920
O O7 0.000000 0.869201 0.777923
O O8 0.054441 0.828700 0.000000
O O9 0.140210 0.094432 0.500000
O O10 0.171880 0.168241 0.256296
O O11 0.157479 0.000000 0.263821
O O12 0.445547 0.143477 0.500000
O O13 0.500000 0.122672 0.732739
O O14 0.698067 0.749541 0.500000
O O15 0.750000 0.750000 0.742115
#
# Coordination Sequence:
#
# PCOD9489708 Si02
#       5
#    16  16  16  16  16
#     4  11  24  40  60  89 124 160 198 242 295 354
#     4  10  20  34  55  84 118 156 196 238 288 346
#     4  10  21  37  58  86 119 154 194 240 293 351
#     4  10  20  35  58  87 119 157 200 244 293 349
#     4  10  22  41  65  90 116 151 197 249 301 352
#
# _framework density 19.594214999999998
#
# number of rings (size 3 to 8) (size 9 to 14) (size 15 to 20)
#    0.000    1.800    2.000    1.800    0.000    6.400 
#    0.000    6.000    0.000    0.000    0.000    0.000 
#    0.000    0.000    0.000    0.000    0.000    0.000 
#
# Total GULP energy -223438.449901 kJ/mol
# GULP energy per Si atom -5585.961248 kJ/mol
# Density = 1.954962 g / cm^3
# Si number density = 19.594215 Si / 1000 Ang^3
#
#
#
# Elastic Constant Matrix: (Units=GPa)
#
#
# Indices 1 2 3 4 5 6 
#
# 1 126.4405 78.3909 15.7572 0.0000 0.0000 0.0000
# 2 78.3909 146.3211 16.6906 0.0000 0.0000 0.0000
# 3 15.7572 16.6906 9.9888 0.0000 0.0000 0.0000
# 4 0.0000 0.0000 0.0000 28.8520 0.0000 0.0000
# 5 0.0000 0.0000 0.0000 0.0000 8.6442 0.0000
# 6 0.0000 0.0000 0.0000 0.0000 0.0000 -1.7735
#
#
#
# Elastic Compliance Matrix: (Units=1/GPa)
#
#
# Indices 1 2 3 4 5 6 
#
# 1 0.012707 -0.005586 -0.010711 0.000000 0.000000 0.000000
# 2 -0.005586 0.010899 -0.009400 0.000000 0.000000 0.000000
# 3 -0.010711 -0.009400 0.132716 0.000000 0.000000 0.000000
# 4 0.000000 0.000000 0.000000 0.034660 0.000000 0.000000
# 5 0.000000 0.000000 0.000000 0.000000 0.115684 0.000000
# 6 0.000000 0.000000 0.000000 0.000000 0.000000 -0.563856
#
#
# Mechanical properties :
#
#
# Convention : Reuss Voigt Hill
#
# Bulk Modulus (GPa) = 9.53037 56.04754 32.78896
# Shear Modulus (GPa) = -29.27065 18.60532 -5.33266
#
# Velocity S-wave (km/s) = -3.86922 3.08479 -1.65150
# Velocity P-wave (km/s) = 3.88416 6.43072 3.62405
#
# Compressibility (1/GPa) = 0.10492769
#
# Stress axis : x y z
#
# Youngs Moduli (GPa) = 78.69791 91.75058 7.53487
#
# Poissons Ratio (x) = 0.51250 0.08071
# Poissons Ratio (y) = 0.43959 0.07083
# Poissons Ratio (z) = 0.84296 0.86247
#
# Static dielectric constant tensor:
#      x y z
#    x 1.672230 0.000000 0.000000 
#    y 0.000000 1.697050 0.000000 
#    z 0.000000 0.000000 1.662030 
# 
# From -- ./inp_files/16041.got.cif
#   From: 2010.05.17/outbox.cif.g08.bks.cpg/sg65_9_cif.got.tgz:16041.got - 2010.06.03 17:01:31.
