data_PCOD9489377
_publ_section_title
;
Structure prediction by ZEFSAII (Michael W. Deem and Ramdas Pophale) SiO2 
 PCOD9489377
Probable space group: C M M M
;
_chemical_formula_sum "Si O2"
_cell_formula_units_Z 116
_cell_length_a 26.963039
_cell_length_b 8.003891
_cell_length_c 26.653140
_cell_angle_alpha 90.000000
_cell_angle_beta 90.000000
_cell_angle_gamma 90.000000
_cell_volume 5751.993492
_symmetry_space_group_name_H-M "C M M M"
_symmetry_group_IT_number 65
_symmetry_cell_setting 'orthorhombic'
loop_
_space_group_symop_operation_xyz
x,y,z
-x,-y,z
x,-y,-z
-x,y,-z
-x,-y,-z
x,y,-z
-x,y,z
x,-y,z
1/2+x,1/2+y,z
1/2-x,1/2-y,z
1/2+x,1/2-y,-z
1/2-x,1/2+y,-z
1/2-x,1/2-y,-z
1/2+x,1/2+y,-z
1/2-x,1/2+y,z
1/2+x,1/2-y,z
loop_
_atom_site_type_symbol
_atom_site_label
_atom_site_fract_x
_atom_site_fract_y
_atom_site_fract_z
Si Si1 0.654091 0.298608 0.339315
Si Si2 0.000000 0.710182 0.000000
Si Si3 0.946253 0.202137 0.290547
Si Si4 0.405684 0.801979 0.814602
Si Si5 0.695913 0.801542 0.233834
Si Si6 0.585148 0.696684 0.077870
Si Si7 0.304266 0.690721 0.060590
Si Si8 0.192446 0.798222 0.554364
O O1 0.654023 0.500000 0.341879
O O2 0.599451 0.239257 0.324001
O O3 0.688169 0.253526 0.291640
O O4 0.669584 0.233723 0.393739
O O5 0.043990 0.717466 0.956544
O O6 0.937753 0.269266 0.234739
O O7 0.000000 0.251647 0.309786
O O8 0.943986 0.000000 0.288154
O O9 0.350338 0.738078 0.799306
O O10 0.426294 0.712988 0.863550
O O11 0.403475 0.000000 0.824549
O O12 0.750000 0.750000 0.215701
O O13 0.692481 0.000000 0.233046
O O14 0.585012 0.500000 0.062573
O O15 0.641770 0.767234 0.073221
O O16 0.308078 0.500000 0.077528
O O17 0.250000 0.750000 0.078697
O O18 0.302056 0.696687 0.000000
O O19 0.172206 0.740342 0.500000
O O20 0.250000 0.750000 0.555493
O O21 0.188576 0.000000 0.554863
#
# Coordination Sequence:
#
# PCOD9489377 Si02
#       8
#    16   4  16  16  16  16  16  16
#     4   9  17  30  49  73 102 137 178 221 262 309
#     4  12  25  44  67  86 107 140 179 216 253 308
#     4   9  18  34  55  76  97 129 174 217 259 308
#     4  10  23  39  54  78 110 137 165 207 259 310
#     4  10  20  34  53  77 108 142 174 212 260 313
#     4  11  22  39  62  85 108 137 176 213 252 306
#     4   9  18  34  56  80 104 131 164 203 243 289
#     4   9  17  28  43  67 101 139 175 212 257 308
#
# _framework density 20.166922
#
# number of rings (size 3 to 8) (size 9 to 14) (size 15 to 20)
#    0.000    2.345    0.690    1.862    0.966    4.690 
#    0.000    3.448    0.000    0.414    0.000    2.897 
#    0.000    0.000    0.000   10.345    0.000   10.759 
#
# Total GULP energy -323006.560297 kJ/mol
# GULP energy per Si atom -5569.078626 kJ/mol
# Density = 2.012102 g / cm^3
# Si number density = 20.166922 Si / 1000 Ang^3
#
#
#
# Elastic Constant Matrix: (Units=GPa)
#
#
# Indices 1 2 3 4 5 6 
#
# 1 119.3930 8.0727 38.0340 0.0000 0.0000 0.0000
# 2 8.0727 19.5138 7.9602 0.0000 0.0000 0.0000
# 3 38.0340 7.9602 134.0080 0.0000 0.0000 0.0000
# 4 0.0000 0.0000 0.0000 -277.4414 0.0000 0.0000
# 5 0.0000 0.0000 0.0000 0.0000 37.5675 0.0000
# 6 0.0000 0.0000 0.0000 0.0000 0.0000 1.7944
#
#
#
# Elastic Compliance Matrix: (Units=1/GPa)
#
#
# Indices 1 2 3 4 5 6 
#
# 1 0.009361 -0.002858 -0.002487 0.000000 0.000000 0.000000
# 2 -0.002858 0.053391 -0.002360 0.000000 0.000000 0.000000
# 3 -0.002487 -0.002360 0.008308 0.000000 0.000000 0.000000
# 4 0.000000 0.000000 0.000000 -0.003604 0.000000 0.000000
# 5 0.000000 0.000000 0.000000 0.000000 0.026619 0.000000
# 6 0.000000 0.000000 0.000000 0.000000 0.000000 0.557277
#
#
# Mechanical properties :
#
#
# Convention : Reuss Voigt Hill
#
# Bulk Modulus (GPa) = 17.96963 42.33874 30.15419
# Shear Modulus (GPa) = 7.29594 -33.02603 -12.86504
#
# Velocity S-wave (km/s) = 1.90411 -4.05116 -2.52846
# Velocity P-wave (km/s) = 3.70998 0.91804 2.54177
#
# Compressibility (1/GPa) = 0.05564946
#
# Stress axis : x y z
#
# Youngs Moduli (GPa) = 106.82332 18.72979 120.36100
#
# Poissons Ratio (x) = 0.05353 0.29935
# Poissons Ratio (y) = 0.30531 0.28409
# Poissons Ratio (z) = 0.26568 0.04421
#
# Static dielectric constant tensor:
#      x y z
#    x 1.596880 0.000000 0.000000 
#    y 0.000000 1.750270 0.000000 
#    z 0.000000 0.000000 1.707610 
# 
# From -- ./inp_files/76158.got.cif
#   From: 2010.05.17/outbox.cif.g08.bks.cpg/sg65_39_cif.got.tgz:76158.got - 2010.06.03 17:01:31.
