data_PCOD9489459
_publ_section_title
;
Structure prediction by ZEFSAII (Michael W. Deem and Ramdas Pophale) SiO2 
 PCOD9489459
Probable space group: C M M M
;
_chemical_formula_sum "Si O2"
_cell_formula_units_Z 72
_cell_length_a 8.985771
_cell_length_b 27.713389
_cell_length_c 16.192717
_cell_angle_alpha 90.000000
_cell_angle_beta 90.000000
_cell_angle_gamma 90.000000
_cell_volume 4032.410251
_symmetry_space_group_name_H-M "C M M M"
_symmetry_group_IT_number 65
_symmetry_cell_setting 'orthorhombic'
loop_
_space_group_symop_operation_xyz
x,y,z
-x,-y,z
x,-y,-z
-x,y,-z
-x,-y,-z
x,y,-z
-x,y,z
x,-y,z
1/2+x,1/2+y,z
1/2-x,1/2-y,z
1/2+x,1/2-y,-z
1/2-x,1/2+y,-z
1/2-x,1/2-y,-z
1/2+x,1/2+y,-z
1/2-x,1/2+y,z
1/2+x,1/2-y,z
loop_
_atom_site_type_symbol
_atom_site_label
_atom_site_fract_x
_atom_site_fract_y
_atom_site_fract_z
Si Si1 0.177796 0.103417 0.906400
Si Si2 0.676805 0.198459 0.164085
Si Si3 0.323478 0.849549 0.658327
Si Si4 0.678620 0.945535 0.751428
Si Si5 0.176692 0.802710 0.500000
O O1 0.248629 0.155813 0.888400
O O2 0.244323 0.068057 0.837562
O O3 0.000000 0.106343 0.897152
O O4 0.212194 0.088360 0.000000
O O5 0.500000 0.199680 0.149171
O O6 0.750000 0.250000 0.147807
O O7 0.699732 0.183267 0.260122
O O8 0.500000 0.848453 0.638981
O O9 0.281667 0.903787 0.686238
O O10 0.232109 0.830406 0.581392
O O11 0.500000 0.941937 0.763023
O O12 0.715024 0.000000 0.726011
O O13 0.250000 0.750000 0.500000
O O14 0.000000 0.798077 0.500000
#
# Coordination Sequence:
#
# PCOD9489459 Si02
#       5
#    16  16  16  16   8
#     4  10  21  35  51  75 107 141 178 220 265 314
#     4  10  20  34  54  77 103 139 179 219 266 318
#     4   9  19  36  56  79 107 137 173 216 259 308
#     4   9  19  37  60  82 104 136 177 219 266 316
#     4  12  24  36  55  82 111 143 176 211 255 306
#
# _framework density 17.855325000000001
#
# number of rings (size 3 to 8) (size 9 to 14) (size 15 to 20)
#    0.000    2.222    0.000    4.333    0.000    9.333 
#    0.000    2.778    0.000    3.333    0.000    0.000 
#    0.000    0.000    0.000    0.000    0.000    0.000 
#
# Total GULP energy -201004.122898 kJ/mol
# GULP energy per Si atom -5583.447858 kJ/mol
# Density = 1.781469 g / cm^3
# Si number density = 17.855325 Si / 1000 Ang^3
#
#
#
# Elastic Constant Matrix: (Units=GPa)
#
#
# Indices 1 2 3 4 5 6 
#
# 1 58.1447 36.2653 52.6590 0.0000 0.0000 0.0000
# 2 36.2653 111.8463 37.8454 0.0000 0.0000 0.0000
# 3 52.6590 37.8454 93.7887 0.0000 0.0000 0.0000
# 4 0.0000 0.0000 0.0000 4.2365 0.0000 0.0000
# 5 0.0000 0.0000 0.0000 0.0000 31.0227 0.0000
# 6 0.0000 0.0000 0.0000 0.0000 0.0000 27.7998
#
#
#
# Elastic Compliance Matrix: (Units=1/GPa)
#
#
# Indices 1 2 3 4 5 6 
#
# 1 0.038104 -0.005925 -0.019004 0.000000 0.000000 0.000000
# 2 -0.005925 0.011276 -0.001223 0.000000 0.000000 0.000000
# 3 -0.019004 -0.001223 0.021826 0.000000 0.000000 0.000000
# 4 0.000000 0.000000 0.000000 0.236044 0.000000 0.000000
# 5 0.000000 0.000000 0.000000 0.000000 0.032234 0.000000
# 6 0.000000 0.000000 0.000000 0.000000 0.000000 0.035971
#
#
# Mechanical properties :
#
#
# Convention : Reuss Voigt Hill
#
# Bulk Modulus (GPa) = 52.90303 57.47989 55.19146
# Shear Modulus (GPa) = 11.51913 21.74582 16.63248
#
# Velocity S-wave (km/s) = 2.54271 3.49361 3.05538
# Velocity P-wave (km/s) = 6.18979 6.96676 6.58974
#
# Compressibility (1/GPa) = 0.01890251
#
# Stress axis : x y z
#
# Youngs Moduli (GPa) = 26.24363 88.68474 45.81743
#
# Poissons Ratio (x) = 0.52544 0.87069
# Poissons Ratio (y) = 0.15549 0.05605
# Poissons Ratio (z) = 0.49872 0.10850
#
# Static dielectric constant tensor:
#      x y z
#    x 1.592750 0.000000 0.000000 
#    y 0.000000 1.602250 0.000000 
#    z 0.000000 0.000000 1.590540 
# 
# From -- ./inp_files/36511.got.cif
#   From: 2010.05.17/outbox.cif.g08.bks.cpg/sg65_19_cif.got.tgz:36511.got - 2010.06.03 17:01:31.
