data_PCOD9489284
_publ_section_title
;
Structure prediction by ZEFSAII (Michael W. Deem and Ramdas Pophale) SiO2 
 PCOD9489284
Probable space group: C M M M
;
_chemical_formula_sum "Si O2"
_cell_formula_units_Z 120
_cell_length_a 18.679885
_cell_length_b 18.121197
_cell_length_c 18.803914
_cell_angle_alpha 90.000000
_cell_angle_beta 90.000000
_cell_angle_gamma 90.000000
_cell_volume 6365.160166
_symmetry_space_group_name_H-M "C M M M"
_symmetry_group_IT_number 65
_symmetry_cell_setting 'orthorhombic'
loop_
_space_group_symop_operation_xyz
x,y,z
-x,-y,z
x,-y,-z
-x,y,-z
-x,-y,-z
x,y,-z
-x,y,z
x,-y,z
1/2+x,1/2+y,z
1/2-x,1/2-y,z
1/2+x,1/2-y,-z
1/2-x,1/2+y,-z
1/2-x,1/2-y,-z
1/2+x,1/2+y,-z
1/2-x,1/2+y,z
1/2+x,1/2-y,z
loop_
_atom_site_type_symbol
_atom_site_label
_atom_site_fract_x
_atom_site_fract_y
_atom_site_fract_z
Si Si1 0.875625 0.375615 0.302023
Si Si2 0.418492 0.172541 0.848775
Si Si3 0.781906 0.084222 0.285084
Si Si4 0.814072 0.806132 0.174066
Si Si5 0.914801 0.500000 0.582604
Si Si6 0.790014 0.171317 0.422766
Si Si7 0.084794 0.266840 0.579842
Si Si8 0.286149 0.086216 0.914892
O O1 0.921501 0.358557 0.232204
O O2 0.801127 0.400794 0.266325
O O3 0.895891 0.433001 0.364232
O O4 0.879387 0.303619 0.351282
O O5 0.500000 0.175011 0.876348
O O6 0.379680 0.253321 0.847452
O O7 0.362623 0.120319 0.890946
O O8 0.829446 0.141235 0.240786
O O9 0.779167 0.108682 0.366301
O O10 0.801338 0.000000 0.274169
O O11 0.750000 0.750000 0.195299
O O12 0.776737 0.861298 0.117055
O O13 0.886656 0.500000 0.500000
O O14 0.000000 0.500000 0.575025
O O15 0.764258 0.147878 0.500000
O O16 0.750000 0.250000 0.408793
O O17 0.873916 0.190045 0.424653
O O18 0.096457 0.301729 0.500000
O O19 0.000000 0.264291 0.589898
O O20 0.279112 0.000000 0.892229
O O21 0.281993 0.088535 0.000000
#
# Coordination Sequence:
#
# PCOD9489284 Si02
#       8
#    16  16  16  16   8  16  16  16
#     4  12  21  34  52  78 111 150 190 241 294 352
#     4  11  24  38  61  94 125 159 199 248 304 357
#     4  12  22  35  55  79 110 146 190 243 301 349
#     4  10  20  38  63  85 116 157 205 245 286 348
#     4  11  24  36  46  70 115 167 206 240 296 371
#     4  10  20  34  53  74 102 140 185 238 296 352
#     4  10  20  34  53  74  99 137 185 232 281 340
#     4  10  22  41  66  95 127 164 202 239 289 359
#
# _framework density 18.852627999999999
#
# number of rings (size 3 to 8) (size 9 to 14) (size 15 to 20)
#    0.000    1.267    4.667    3.200    0.933    4.800 
#    0.000    0.667    0.000    2.800    0.000    2.800 
#    0.000    0.000    0.000    0.000    0.000    0.000 
#
# Total GULP energy -334091.456433 kJ/mol
# GULP energy per Si atom -5568.190941 kJ/mol
# Density = 1.880972 g / cm^3
# Si number density = 18.852628 Si / 1000 Ang^3
#
#
#
# Elastic Constant Matrix: (Units=GPa)
#
#
# Indices 1 2 3 4 5 6 
#
# 1 41.6494 26.7246 24.5447 0.0000 0.0000 0.0000
# 2 26.7246 105.4227 38.2567 0.0000 0.0000 0.0000
# 3 24.5447 38.2567 74.3738 0.0000 0.0000 0.0000
# 4 0.0000 0.0000 0.0000 32.7427 0.0000 0.0000
# 5 0.0000 0.0000 0.0000 0.0000 12.0964 0.0000
# 6 0.0000 0.0000 0.0000 0.0000 0.0000 23.5984
#
#
#
# Elastic Compliance Matrix: (Units=1/GPa)
#
#
# Indices 1 2 3 4 5 6 
#
# 1 0.032020 -0.005265 -0.007859 0.000000 0.000000 0.000000
# 2 -0.005265 0.012528 -0.004707 0.000000 0.000000 0.000000
# 3 -0.007859 -0.004707 0.018460 0.000000 0.000000 0.000000
# 4 0.000000 0.000000 0.000000 0.030541 0.000000 0.000000
# 5 0.000000 0.000000 0.000000 0.000000 0.082669 0.000000
# 6 0.000000 0.000000 0.000000 0.000000 0.000000 0.042376
#
#
# Mechanical properties :
#
#
# Convention : Reuss Voigt Hill
#
# Bulk Modulus (GPa) = 36.56728 44.49978 40.53353
# Shear Modulus (GPa) = 18.98462 22.48217 20.73340
#
# Velocity S-wave (km/s) = 3.17677 3.45704 3.31986
# Velocity P-wave (km/s) = 5.73536 6.29206 6.02015
#
# Compressibility (1/GPa) = 0.02734686
#
# Stress axis : x y z
#
# Youngs Moduli (GPa) = 31.23087 79.81883 54.17048
#
# Poissons Ratio (x) = 0.42025 0.42571
# Poissons Ratio (y) = 0.16443 0.25497
# Poissons Ratio (z) = 0.24544 0.37569
#
# Static dielectric constant tensor:
#      x y z
#    x 1.702730 0.000000 0.000000 
#    y 0.000000 1.717750 0.000000 
#    z 0.000000 0.000000 1.737560 
# 
# From -- ./inp_files/56114.got.cif
#   From: 2010.05.17/outbox.cif.g08.bks.cpg/sg65_29_cif.got.tgz:56114.got - 2010.06.03 17:01:31.
