data_PCOD9489092
_publ_section_title
;
Structure prediction by ZEFSAII (Michael W. Deem and Ramdas Pophale) SiO2 
 PCOD9489092
Probable space group: C M M M
;
_chemical_formula_sum "Si O2"
_cell_formula_units_Z 88
_cell_length_a 14.592877
_cell_length_b 9.033903
_cell_length_c 29.772851
_cell_angle_alpha 90.000000
_cell_angle_beta 90.000000
_cell_angle_gamma 90.000000
_cell_volume 3924.973862
_symmetry_space_group_name_H-M "C M M M"
_symmetry_group_IT_number 65
_symmetry_cell_setting 'orthorhombic'
loop_
_space_group_symop_operation_xyz
x,y,z
-x,-y,z
x,-y,-z
-x,y,-z
-x,-y,-z
x,y,-z
-x,y,z
x,-y,z
1/2+x,1/2+y,z
1/2-x,1/2-y,z
1/2+x,1/2-y,-z
1/2-x,1/2+y,-z
1/2-x,1/2-y,-z
1/2+x,1/2+y,-z
1/2-x,1/2+y,z
1/2+x,1/2-y,z
loop_
_atom_site_type_symbol
_atom_site_label
_atom_site_fract_x
_atom_site_fract_y
_atom_site_fract_z
Si Si1 0.111994 0.168978 0.091241
Si Si2 0.851476 0.177393 0.450348
Si Si3 0.387656 0.169080 0.817407
Si Si4 0.607443 0.335752 0.729040
Si Si5 0.112064 0.669119 0.000000
Si Si6 0.850368 0.323076 0.637976
O O1 0.139700 0.255670 0.135946
O O2 0.000000 0.167117 0.091155
O O3 0.143619 0.000000 0.092586
O O4 0.140275 0.248103 0.045326
O O5 0.892798 0.201728 0.500000
O O6 0.750000 0.250000 0.452880
O O7 0.895541 0.253491 0.406797
O O8 0.845046 0.000000 0.443489
O O9 0.500000 0.167205 0.816936
O O10 0.355692 0.259828 0.773929
O O11 0.356644 0.000000 0.814968
O O12 0.500000 0.354320 0.737741
O O13 0.647523 0.500000 0.720279
O O14 0.612496 0.232387 0.685483
O O15 0.143433 0.500000 0.000000
O O16 0.000000 0.667604 0.000000
O O17 0.849038 0.500000 0.635035
O O18 0.750000 0.250000 0.637919
#
# Coordination Sequence:
#
# PCOD9489092 Si02
#       6
#    16  16  16  16   8  16
#     4   9  15  22  32  47  69  99 136 177 221 269
#     4   9  16  27  45  69  96 124 155 191 231 276
#     4   9  16  26  40  58  80 108 145 186 226 271
#     4  10  20  34  51  70  94 125 161 199 239 284
#     4   9  15  21  29  43  65  95 132 175 222 269
#     4  11  21  33  51  74 101 129 159 196 237 281
#
# _framework density 22.420532999999999
#
# number of rings (size 3 to 8) (size 9 to 14) (size 15 to 20)
#    0.000    2.455    0.000    5.182    0.000    7.636 
#    0.000    0.000    0.000    0.545    0.000    3.818 
#    0.000    0.000    0.000    0.818    0.000   12.364 
#
# Total GULP energy -245753.158903 kJ/mol
# GULP energy per Si atom -5585.299066 kJ/mol
# Density = 2.236950 g / cm^3
# Si number density = 22.420533 Si / 1000 Ang^3
#
#
#
# Elastic Constant Matrix: (Units=GPa)
#
#
# Indices 1 2 3 4 5 6 
#
# 1 58.6370 13.6241 9.9234 0.0000 0.0000 0.0000
# 2 13.6241 223.4128 126.7415 0.0000 0.0000 0.0000
# 3 9.9234 126.7415 244.3662 0.0000 0.0000 0.0000
# 4 0.0000 0.0000 0.0000 208.7143 0.0000 0.0000
# 5 0.0000 0.0000 0.0000 0.0000 -1.4950 0.0000
# 6 0.0000 0.0000 0.0000 0.0000 0.0000 4.8081
#
#
#
# Elastic Compliance Matrix: (Units=1/GPa)
#
#
# Indices 1 2 3 4 5 6 
#
# 1 0.017308 -0.000931 -0.000220 0.000000 0.000000 0.000000
# 2 -0.000931 0.006392 -0.003277 0.000000 0.000000 0.000000
# 3 -0.000220 -0.003277 0.005801 0.000000 0.000000 0.000000
# 4 0.000000 0.000000 0.000000 0.004791 0.000000 0.000000
# 5 0.000000 0.000000 0.000000 0.000000 -0.668902 0.000000
# 6 0.000000 0.000000 0.000000 0.000000 0.000000 0.207983
#
#
# Mechanical properties :
#
#
# Convention : Reuss Voigt Hill
#
# Bulk Modulus (GPa) = 48.43970 91.88822 70.16396
# Shear Modulus (GPa) = -12.16871 67.48060 27.65595
#
# Velocity S-wave (km/s) = -2.33222 5.49209 3.51595
# Velocity P-wave (km/s) = 3.79468 9.01611 6.91700
#
# Compressibility (1/GPa) = 0.02064423
#
# Stress axis : x y z
#
# Youngs Moduli (GPa) = 57.77822 156.44374 172.38282
#
# Poissons Ratio (x) = 0.14557 0.03796
# Poissons Ratio (y) = 0.05376 0.56498
# Poissons Ratio (z) = 0.01272 0.51274
#
# Static dielectric constant tensor:
#      x y z
#    x 2.022450 0.000000 0.000000 
#    y 0.000000 1.778270 0.000000 
#    z 0.000000 0.000000 1.834200 
# 
# From -- ./inp_files/77816.got.cif
#   From: 2010.05.17/outbox.cif.g08.bks.cpg/sg65_39_cif.got.tgz:77816.got - 2010.06.03 17:01:31.
