data_PCOD9489314
_publ_section_title
;
Structure prediction by ZEFSAII (Michael W. Deem and Ramdas Pophale) SiO2 
 PCOD9489314
Probable space group: C M M M
;
_chemical_formula_sum "Si O2"
_cell_formula_units_Z 88
_cell_length_a 9.331638
_cell_length_b 18.025410
_cell_length_c 29.478024
_cell_angle_alpha 90.000000
_cell_angle_beta 90.000000
_cell_angle_gamma 90.000000
_cell_volume 4958.398219
_symmetry_space_group_name_H-M "C M M M"
_symmetry_group_IT_number 65
_symmetry_cell_setting 'orthorhombic'
loop_
_space_group_symop_operation_xyz
x,y,z
-x,-y,z
x,-y,-z
-x,y,-z
-x,-y,-z
x,y,-z
-x,y,z
x,-y,z
1/2+x,1/2+y,z
1/2-x,1/2-y,z
1/2+x,1/2-y,-z
1/2-x,1/2+y,-z
1/2-x,1/2-y,-z
1/2+x,1/2+y,-z
1/2-x,1/2+y,z
1/2+x,1/2-y,z
loop_
_atom_site_type_symbol
_atom_site_label
_atom_site_fract_x
_atom_site_fract_y
_atom_site_fract_z
Si Si1 0.829053 0.172956 0.827468
Si Si2 0.667167 0.411602 0.079420
Si Si3 0.665846 0.590558 0.638348
Si Si4 0.674819 0.414186 0.261874
Si Si5 0.671329 0.829037 0.000000
Si Si6 0.832330 0.590224 0.549745
O O1 0.750000 0.250000 0.835216
O O2 0.805718 0.118947 0.870139
O O3 0.779984 0.135083 0.780551
O O4 0.000000 0.185325 0.824244
O O5 0.500000 0.394092 0.067923
O O6 0.682763 0.500000 0.078026
O O7 0.772050 0.373159 0.043892
O O8 0.500000 0.612256 0.634226
O O9 0.669691 0.500000 0.638859
O O10 0.721722 0.612781 0.688191
O O11 0.750796 0.616989 0.594315
O O12 0.500000 0.414468 0.262864
O O13 0.718921 0.500000 0.255586
O O14 0.750000 0.750000 0.000000
O O15 0.500000 0.821347 0.000000
O O16 0.777572 0.614511 0.500000
O O17 0.822969 0.500000 0.550071
O O18 0.000000 0.608819 0.552647
#
# Coordination Sequence:
#
# PCOD9489314 Si02
#       6
#    16  16  16  16   8  16
#     4  10  20  34  53  76 102 132 165 203 247 295
#     4  10  21  38  60  84 109 139 176 215 255 302
#     4   8  13  21  35  55  77 104 143 189 229 268
#     4   8  14  27  47  68  90 120 159 198 237 285
#     4  12  25  40  59  83 113 147 179 214 257 300
#     4   8  13  20  29  44  72 110 145 176 218 275
#
# _framework density 17.747667
#
# number of rings (size 3 to 8) (size 9 to 14) (size 15 to 20)
#    0.000    2.909    0.000    3.818    0.000    6.182 
#    0.000    2.727    0.000    2.727    0.000    0.000 
#    0.000    0.727    0.000    1.636    0.000    4.364 
#
# Total GULP energy -245166.856964 kJ/mol
# GULP energy per Si atom -5571.974022 kJ/mol
# Density = 1.770727 g / cm^3
# Si number density = 17.747667 Si / 1000 Ang^3
#
#
#
# Elastic Constant Matrix: (Units=GPa)
#
#
# Indices 1 2 3 4 5 6 
#
# 1 60.2432 35.0899 70.4408 0.0000 0.0000 0.0000
# 2 35.0899 52.9739 39.9944 0.0000 0.0000 0.0000
# 3 70.4408 39.9944 151.7559 0.0000 0.0000 0.0000
# 4 0.0000 0.0000 0.0000 -15.3967 0.0000 0.0000
# 5 0.0000 0.0000 0.0000 0.0000 -25.0857 0.0000
# 6 0.0000 0.0000 0.0000 0.0000 0.0000 16.3013
#
#
#
# Elastic Compliance Matrix: (Units=1/GPa)
#
#
# Indices 1 2 3 4 5 6 
#
# 1 0.047369 -0.018448 -0.017126 0.000000 0.000000 0.000000
# 2 -0.018448 0.030751 0.000459 0.000000 0.000000 0.000000
# 3 -0.017126 0.000459 0.014418 0.000000 0.000000 0.000000
# 4 0.000000 0.000000 0.000000 -0.064949 0.000000 0.000000
# 5 0.000000 0.000000 0.000000 0.000000 -0.039863 0.000000
# 6 0.000000 0.000000 0.000000 0.000000 0.000000 0.061345
#
#
# Mechanical properties :
#
#
# Convention : Reuss Voigt Hill
#
# Bulk Modulus (GPa) = 44.82607 61.78035 53.30321
# Shear Modulus (GPa) = 39.45229 3.12699 21.28964
#
# Velocity S-wave (km/s) = 4.71994 1.32881 3.46724
# Velocity P-wave (km/s) = 7.41728 6.10248 6.79177
#
# Compressibility (1/GPa) = 0.02230844
#
# Stress axis : x y z
#
# Youngs Moduli (GPa) = 21.11080 32.51962 69.35856
#
# Poissons Ratio (x) = 0.59991 1.18781
# Poissons Ratio (y) = 0.38945 -0.03182
# Poissons Ratio (z) = 0.36153 -0.01492
#
# Static dielectric constant tensor:
#      x y z
#    x 1.592620 0.000000 0.000000 
#    y 0.000000 1.584030 0.000000 
#    z 0.000000 0.000000 1.632710 
# 
# From -- ./inp_files/76646.got.cif
#   From: 2010.05.17/outbox.cif.g08.bks.cpg/sg65_39_cif.got.tgz:76646.got - 2010.06.03 17:01:31.
