data_PCOD9489698
_publ_section_title
;
Structure prediction by ZEFSAII (Michael W. Deem and Ramdas Pophale) SiO2 
 PCOD9489698
Probable space group: C M M M
;
_chemical_formula_sum "Si O2"
_cell_formula_units_Z 104
_cell_length_a 8.268859
_cell_length_b 19.850279
_cell_length_c 35.585916
_cell_angle_alpha 90.000000
_cell_angle_beta 90.000000
_cell_angle_gamma 90.000000
_cell_volume 5841.042295
_symmetry_space_group_name_H-M "C M M M"
_symmetry_group_IT_number 65
_symmetry_cell_setting 'orthorhombic'
loop_
_space_group_symop_operation_xyz
x,y,z
-x,-y,z
x,-y,-z
-x,y,-z
-x,-y,-z
x,y,-z
-x,y,z
x,-y,z
1/2+x,1/2+y,z
1/2-x,1/2-y,z
1/2+x,1/2-y,-z
1/2-x,1/2+y,-z
1/2-x,1/2-y,-z
1/2+x,1/2+y,-z
1/2-x,1/2+y,z
1/2+x,1/2-y,z
loop_
_atom_site_type_symbol
_atom_site_label
_atom_site_fract_x
_atom_site_fract_y
_atom_site_fract_z
Si Si1 0.306749 0.325901 0.542324
Si Si2 0.807140 0.576907 0.391965
Si Si3 0.807169 0.923185 0.310488
Si Si4 0.695503 0.826731 0.159075
Si Si5 0.807211 0.325495 0.245193
Si Si6 0.686206 0.419119 0.092437
Si Si7 0.500000 0.081634 0.957071
O O1 0.248180 0.343243 0.500000
O O2 0.500000 0.326545 0.541862
O O3 0.250000 0.250000 0.550513
O O4 0.248674 0.376878 0.573973
O O5 0.744610 0.500000 0.396030
O O6 0.751693 0.602354 0.351079
O O7 0.000000 0.574831 0.392033
O O8 0.754237 0.877338 0.276027
O O9 0.000000 0.925232 0.311354
O O10 0.744817 0.000000 0.306176
O O11 0.500000 0.831446 0.155965
O O12 0.750000 0.750000 0.150894
O O13 0.744319 0.841182 0.202314
O O14 0.777898 0.878215 0.130431
O O15 0.750000 0.250000 0.254017
O O16 0.000000 0.326232 0.245456
O O17 0.500000 0.405739 0.079810
O O18 0.698535 0.500000 0.098364
O O19 0.833317 0.399444 0.064295
O O20 0.500000 0.000000 0.957925
O O21 0.500000 0.106043 0.000000
#
# Coordination Sequence:
#
# PCOD9489698 Si02
#       7
#    16  16  16  16  16  16   8
#     4  10  21  37  57  81 109 139 173 216 264 315
#     4  10  21  37  57  80 107 139 177 218 262 319
#     4  10  21  37  56  78 107 142 179 222 271 320
#     4  10  20  35  55  80 110 147 186 228 279 332
#     4  10  21  36  55  79 109 142 182 227 269 321
#     4  10  20  34  55  84 114 146 188 233 278 334
#     4   9  18  34  56  82 114 148 185 233 283 333
#
# _framework density 17.805040000000002
#
# number of rings (size 3 to 8) (size 9 to 14) (size 15 to 20)
#    0.000    2.077    0.769    2.308    0.000    6.462 
#    0.000    9.231    0.000    0.462    0.000    0.000 
#    0.000    0.000    0.000    0.000    0.000    0.000 
#
# Total GULP energy -290124.392512 kJ/mol
# GULP energy per Si atom -5579.315241 kJ/mol
# Density = 1.776452 g / cm^3
# Si number density = 17.805040 Si / 1000 Ang^3
#
#
#
# Elastic Constant Matrix: (Units=GPa)
#
#
# Indices 1 2 3 4 5 6 
#
# 1 88.7093 35.7365 56.7728 0.0000 0.0000 0.0000
# 2 35.7365 61.2081 80.0903 0.0000 0.0000 0.0000
# 3 56.7728 80.0903 147.1589 0.0000 0.0000 0.0000
# 4 0.0000 0.0000 0.0000 80.3558 0.0000 0.0000
# 5 0.0000 0.0000 0.0000 0.0000 21.6111 0.0000
# 6 0.0000 0.0000 0.0000 0.0000 0.0000 26.2556
#
#
#
# Elastic Compliance Matrix: (Units=1/GPa)
#
#
# Indices 1 2 3 4 5 6 
#
# 1 0.015272 -0.004194 -0.003609 0.000000 0.000000 0.000000
# 2 -0.004194 0.057907 -0.029898 0.000000 0.000000 0.000000
# 3 -0.003609 -0.029898 0.024460 0.000000 0.000000 0.000000
# 4 0.000000 0.000000 0.000000 0.012445 0.000000 0.000000
# 5 0.000000 0.000000 0.000000 0.000000 0.046273 0.000000
# 6 0.000000 0.000000 0.000000 0.000000 0.000000 0.038087
#
#
# Mechanical properties :
#
#
# Convention : Reuss Voigt Hill
#
# Bulk Modulus (GPa) = 44.97006 71.36396 58.16701
# Shear Modulus (GPa) = 18.03378 33.94293 25.98835
#
# Velocity S-wave (km/s) = 3.18598 4.37093 3.82462
# Velocity P-wave (km/s) = 6.23263 8.10192 7.22796
#
# Compressibility (1/GPa) = 0.02223702
#
# Stress axis : x y z
#
# Youngs Moduli (GPa) = 65.47825 17.26904 40.88389
#
# Poissons Ratio (x) = 0.07242 0.14757
# Poissons Ratio (y) = 0.27460 1.22233
# Poissons Ratio (z) = 0.23634 0.51630
#
# Static dielectric constant tensor:
#      x y z
#    x 1.618750 0.000000 0.000000 
#    y 0.000000 1.599750 0.000000 
#    z 0.000000 0.000000 1.600320 
# 
# From -- ./inp_files/76877.got.cif
#   From: 2010.05.17/outbox.cif.g08.bks.cpg/sg65_39_cif.got.tgz:76877.got - 2010.06.03 17:01:31.
