data_PCOD9489726
_publ_section_title
;
Structure prediction by ZEFSAII (Michael W. Deem and Ramdas Pophale) SiO2 
 PCOD9489726
Probable space group: C M M M
;
_chemical_formula_sum "Si O2"
_cell_formula_units_Z 88
_cell_length_a 26.415686
_cell_length_b 8.611181
_cell_length_c 21.404067
_cell_angle_alpha 90.000000
_cell_angle_beta 90.000000
_cell_angle_gamma 90.000000
_cell_volume 4868.788544
_symmetry_space_group_name_H-M "C M M M"
_symmetry_group_IT_number 65
_symmetry_cell_setting 'orthorhombic'
loop_
_space_group_symop_operation_xyz
x,y,z
-x,-y,z
x,-y,-z
-x,y,-z
-x,-y,-z
x,y,-z
-x,y,z
x,-y,z
1/2+x,1/2+y,z
1/2-x,1/2-y,z
1/2+x,1/2-y,-z
1/2-x,1/2+y,-z
1/2-x,1/2-y,-z
1/2+x,1/2+y,-z
1/2-x,1/2+y,z
1/2+x,1/2-y,z
loop_
_atom_site_type_symbol
_atom_site_label
_atom_site_fract_x
_atom_site_fract_y
_atom_site_fract_z
Si Si1 0.500000 0.687567 0.855025
Si Si2 0.000000 0.312602 0.714946
Si Si3 0.558930 0.685992 0.500000
Si Si4 0.404029 0.187916 0.369064
Si Si5 0.305114 0.813863 0.150382
Si Si6 0.398875 0.687833 0.927685
Si Si7 0.304854 0.187165 0.704838
O O1 0.500000 0.500000 0.854609
O O2 0.500000 0.746610 0.784381
O O3 0.449509 0.738881 0.891407
O O4 0.950227 0.264824 0.676299
O O5 0.000000 0.500000 0.718727
O O6 0.559492 0.500000 0.500000
O O7 0.500000 0.738328 0.500000
O O8 0.585462 0.747493 0.437606
O O9 0.350991 0.238807 0.338777
O O10 0.404167 0.000000 0.371945
O O11 0.250000 0.750000 0.131956
O O12 0.349545 0.750425 0.107219
O O13 0.313943 0.765836 0.222860
O O14 0.304440 0.000000 0.147992
O O15 0.397674 0.500000 0.926384
O O16 0.400313 0.736622 0.000000
O O17 0.250000 0.250000 0.685821
O O18 0.303394 0.000000 0.703665
#
# Coordination Sequence:
#
# PCOD9489726 Si02
#       7
#     8   8   8  16  16  16  16
#     4  10  21  36  55  79 108 143 181 225 276 326
#     4  10  20  34  56  83 109 137 176 227 272 321
#     4  11  23  37  54  81 116 145 178 222 265 310
#     4  10  20  36  58  81 108 145 183 215 262 322
#     4  10  20  36  58  83 111 140 178 227 277 325
#     4  10  21  37  55  76 106 145 186 225 270 327
#     4   9  19  35  56  82 109 140 178 221 266 318
#
# _framework density 18.074311999999999
#
# number of rings (size 3 to 8) (size 9 to 14) (size 15 to 20)
#    0.000    2.091    0.909    2.182    0.000    6.545 
#    0.000    0.455    0.000    1.636    0.000    0.000 
#    0.000    0.000    0.000    0.000    0.000    0.000 
#
# Total GULP energy -245721.415232 kJ/mol
# GULP energy per Si atom -5584.577619 kJ/mol
# Density = 1.803317 g / cm^3
# Si number density = 18.074312 Si / 1000 Ang^3
#
#
#
# Elastic Constant Matrix: (Units=GPa)
#
#
# Indices 1 2 3 4 5 6 
#
# 1 194.9320 34.5685 135.0716 0.0000 0.0000 0.0000
# 2 34.5685 12.7825 32.7250 0.0000 0.0000 0.0000
# 3 135.0716 32.7250 173.6618 0.0000 0.0000 0.0000
# 4 0.0000 0.0000 0.0000 28.9734 0.0000 0.0000
# 5 0.0000 0.0000 0.0000 0.0000 2.4686 0.0000
# 6 0.0000 0.0000 0.0000 0.0000 0.0000 28.7267
#
#
#
# Elastic Compliance Matrix: (Units=1/GPa)
#
#
# Indices 1 2 3 4 5 6 
#
# 1 0.012934 -0.017821 -0.006702 0.000000 0.000000 0.000000
# 2 -0.017821 0.175708 -0.019250 0.000000 0.000000 0.000000
# 3 -0.006702 -0.019250 0.014598 0.000000 0.000000 0.000000
# 4 0.000000 0.000000 0.000000 0.034514 0.000000 0.000000
# 5 0.000000 0.000000 0.000000 0.000000 0.405088 0.000000
# 6 0.000000 0.000000 0.000000 0.000000 0.000000 0.034811
#
#
# Mechanical properties :
#
#
# Convention : Reuss Voigt Hill
#
# Bulk Modulus (GPa) = 8.64339 87.34517 47.99428
# Shear Modulus (GPa) = 6.22074 23.96782 15.09428
#
# Velocity S-wave (km/s) = 1.85721 3.64548 2.89299
# Velocity P-wave (km/s) = 3.06455 8.13325 6.14578
#
# Compressibility (1/GPa) = 0.11569537
#
# Stress axis : x y z
#
# Youngs Moduli (GPa) = 77.31555 5.69127 68.50159
#
# Poissons Ratio (x) = 0.10142 0.45908
# Poissons Ratio (y) = 1.37784 1.31863
# Poissons Ratio (z) = 0.51814 0.10955
#
# Static dielectric constant tensor:
#      x y z
#    x 1.599670 0.000000 0.000000 
#    y 0.000000 1.617420 0.000000 
#    z 0.000000 0.000000 1.587950 
# 
# From -- ./inp_files/59893.got.cif
#   From: 2010.05.17/outbox.cif.g08.bks.cpg/sg65_30_cif.got.tgz:59893.got - 2010.06.03 17:01:31.
