data_PCOD9489908
_publ_section_title
;
Structure prediction by ZEFSAII (Michael W. Deem and Ramdas Pophale) SiO2 
 PCOD9489908
Probable space group: C M M M
;
_chemical_formula_sum "Si O2"
_cell_formula_units_Z 104
_cell_length_a 26.253058
_cell_length_b 8.760173
_cell_length_c 26.759310
_cell_angle_alpha 90.000000
_cell_angle_beta 90.000000
_cell_angle_gamma 90.000000
_cell_volume 6154.141700
_symmetry_space_group_name_H-M "C M M M"
_symmetry_group_IT_number 65
_symmetry_cell_setting 'orthorhombic'
loop_
_space_group_symop_operation_xyz
x,y,z
-x,-y,z
x,-y,-z
-x,y,-z
-x,-y,-z
x,y,-z
-x,y,z
x,-y,z
1/2+x,1/2+y,z
1/2-x,1/2-y,z
1/2+x,1/2-y,-z
1/2-x,1/2+y,-z
1/2-x,1/2-y,-z
1/2+x,1/2+y,-z
1/2-x,1/2+y,z
1/2+x,1/2-y,z
loop_
_atom_site_type_symbol
_atom_site_label
_atom_site_fract_x
_atom_site_fract_y
_atom_site_fract_z
Si Si1 0.402216 0.316140 0.711869
Si Si2 0.195629 0.683015 0.884339
Si Si3 0.059409 0.816649 0.396003
Si Si4 0.439062 0.180322 0.500000
Si Si5 0.000000 0.818608 0.120017
Si Si6 0.593781 0.184098 0.941228
Si Si7 0.500000 0.817266 0.230777
Si Si8 0.694771 0.816513 0.767828
O O1 0.403275 0.500000 0.715453
O O2 0.410269 0.273114 0.653764
O O3 0.449998 0.248971 0.742246
O O4 0.350337 0.252013 0.734865
O O5 0.199124 0.500000 0.886268
O O6 0.250000 0.750000 0.899707
O O7 0.148363 0.729972 0.918516
O O8 0.186032 0.725560 0.826306
O O9 0.079934 0.749965 0.447957
O O10 0.000000 0.768340 0.389560
O O11 0.059458 0.000000 0.399690
O O12 0.500000 0.212737 0.500000
O O13 0.431682 0.000000 0.500000
O O14 0.049268 0.765722 0.089036
O O15 0.000000 0.736377 0.173514
O O16 0.000000 0.000000 0.127122
O O17 0.588435 0.000000 0.935017
O O18 0.590702 0.217596 0.000000
O O19 0.500000 0.000000 0.233586
O O20 0.750000 0.750000 0.753891
O O21 0.695117 0.000000 0.764234
#
# Coordination Sequence:
#
# PCOD9489908 Si02
#       8
#    16  16  16   8   8  16   8  16
#     4  11  21  35  54  80 111 142 179 224 269 318
#     4   9  19  35  55  78 104 133 169 210 258 312
#     4   9  17  31  48  69 103 144 179 214 264 318
#     4   9  17  27  43  69 100 137 182 225 259 302
#     4  12  25  39  56  77 103 137 178 221 260 305
#     4  10  21  38  58  79 106 139 172 209 258 316
#     4  12  24  37  55  79 109 143 176 213 265 327
#     4  10  20  35  54  77 105 142 183 224 268 317
#
# _framework density 16.899187999999999
#
# number of rings (size 3 to 8) (size 9 to 14) (size 15 to 20)
#    0.000    1.923    0.769    3.692    0.000    6.154 
#    0.000    0.000    0.000    0.000    0.000    0.538 
#    0.000    0.000    0.000    0.000    0.000    0.000 
#
# Total GULP energy -290348.866384 kJ/mol
# GULP energy per Si atom -5583.632046 kJ/mol
# Density = 1.686072 g / cm^3
# Si number density = 16.899188 Si / 1000 Ang^3
#
#
#
# Elastic Constant Matrix: (Units=GPa)
#
#
# Indices 1 2 3 4 5 6 
#
# 1 107.8251 40.3227 70.2200 0.0000 0.0000 0.0000
# 2 40.3227 48.4977 49.3772 0.0000 0.0000 0.0000
# 3 70.2200 49.3772 125.8518 0.0000 0.0000 0.0000
# 4 0.0000 0.0000 0.0000 22.5787 0.0000 0.0000
# 5 0.0000 0.0000 0.0000 0.0000 -122.7760 0.0000
# 6 0.0000 0.0000 0.0000 0.0000 0.0000 31.2771
#
#
#
# Elastic Compliance Matrix: (Units=1/GPa)
#
#
# Indices 1 2 3 4 5 6 
#
# 1 0.015862 -0.006956 -0.006121 0.000000 0.000000 0.000000
# 2 -0.006956 0.037385 -0.010787 0.000000 0.000000 0.000000
# 3 -0.006121 -0.010787 0.015593 0.000000 0.000000 0.000000
# 4 0.000000 0.000000 0.000000 0.044290 0.000000 0.000000
# 5 0.000000 0.000000 0.000000 0.000000 -0.008145 0.000000
# 6 0.000000 0.000000 0.000000 0.000000 0.000000 0.031972
#
#
# Mechanical properties :
#
#
# Convention : Reuss Voigt Hill
#
# Bulk Modulus (GPa) = 47.36465 66.89050 57.12757
# Shear Modulus (GPa) = 26.07930 -5.63371 10.22279
#
# Velocity S-wave (km/s) = 3.93266 -1.82783 2.46220
# Velocity P-wave (km/s) = 6.97923 5.93409 6.47777
#
# Compressibility (1/GPa) = 0.02111279
#
# Stress axis : x y z
#
# Youngs Moduli (GPa) = 63.04419 26.74838 64.13019
#
# Poissons Ratio (x) = 0.18606 0.39255
# Poissons Ratio (y) = 0.43854 0.69176
# Poissons Ratio (z) = 0.38590 0.28853
#
# Static dielectric constant tensor:
#      x y z
#    x 1.541300 0.000000 0.000000 
#    y 0.000000 1.567100 0.000000 
#    z 0.000000 0.000000 1.567700 
# 
# From -- ./inp_files/71901.got.cif
#   From: 2010.05.17/outbox.cif.g08.bks.cpg/sg65_36_cif.got.tgz:71901.got - 2010.06.03 17:01:31.
