data_PCOD9489279
_publ_section_title
;
Structure prediction by ZEFSAII (Michael W. Deem and Ramdas Pophale) SiO2 
 PCOD9489279
Probable space group: C M M M
;
_chemical_formula_sum "Si O2"
_cell_formula_units_Z 120
_cell_length_a 23.786945
_cell_length_b 19.464204
_cell_length_c 14.660434
_cell_angle_alpha 90.000000
_cell_angle_beta 90.000000
_cell_angle_gamma 90.000000
_cell_volume 6787.692247
_symmetry_space_group_name_H-M "C M M M"
_symmetry_group_IT_number 65
_symmetry_cell_setting 'orthorhombic'
loop_
_space_group_symop_operation_xyz
x,y,z
-x,-y,z
x,-y,-z
-x,y,-z
-x,-y,-z
x,y,-z
-x,y,z
x,-y,z
1/2+x,1/2+y,z
1/2-x,1/2-y,z
1/2+x,1/2-y,-z
1/2-x,1/2+y,-z
1/2-x,1/2-y,-z
1/2+x,1/2+y,-z
1/2-x,1/2+y,z
1/2+x,1/2-y,z
loop_
_atom_site_type_symbol
_atom_site_label
_atom_site_fract_x
_atom_site_fract_y
_atom_site_fract_z
Si Si1 0.744319 0.582903 0.272864
Si Si2 0.935535 0.582904 0.500000
Si Si3 0.637739 0.577976 0.391412
Si Si4 0.933194 0.696650 0.228591
Si Si5 0.870730 0.582698 0.311904
Si Si6 0.330024 0.417648 0.892996
Si Si7 0.436107 0.325643 0.890581
Si Si8 0.432701 0.290374 0.396875
O O1 0.747284 0.500000 0.272101
O O2 0.694949 0.600944 0.342945
O O3 0.805732 0.605413 0.305010
O O4 0.721075 0.603655 0.173285
O O5 0.940241 0.500000 0.500000
O O6 0.901329 0.599737 0.408110
O O7 0.000000 0.611077 0.500000
O O8 0.646408 0.575826 0.500000
O O9 0.623993 0.500000 0.361071
O O10 0.590303 0.634163 0.373930
O O11 0.902825 0.623937 0.232850
O O12 0.922338 0.749917 0.147174
O O13 0.914384 0.737867 0.319308
O O14 0.000000 0.685433 0.233335
O O15 0.873919 0.500000 0.301543
O O16 0.337821 0.500000 0.884160
O O17 0.387224 0.378816 0.863861
O O18 0.319481 0.403014 0.000000
O O19 0.500000 0.342589 0.857984
O O20 0.437511 0.325317 0.000000
O O21 0.414291 0.272213 0.500000
O O22 0.500000 0.291530 0.396181
#
# Coordination Sequence:
#
# PCOD9489279 Si02
#       8
#    16   8  16  16  16  16  16  16
#     4   9  18  32  49  71 101 134 170 209 254 306
#     4   9  18  32  52  80 105 122 154 210 267 314
#     4   9  17  29  47  68  94 132 173 208 239 284
#     4  10  20  34  53  73  99 133 163 203 261 316
#     4  10  21  35  54  77 101 130 166 211 260 313
#     4   9  17  31  53  79 107 139 175 217 258 296
#     4   9  18  33  53  78 107 138 173 213 261 312
#     4   9  18  31  46  68  98 130 165 204 249 300
#
# _framework density 17.679058000000001
#
# number of rings (size 3 to 8) (size 9 to 14) (size 15 to 20)
#    0.000    2.733    0.000    1.200    1.867    1.333 
#    0.000    6.000    0.000    9.200    0.000    1.867 
#    0.000    0.000    0.000    0.000    0.000    0.000 
#
# Total GULP energy -334228.607917 kJ/mol
# GULP energy per Si atom -5570.476799 kJ/mol
# Density = 1.763882 g / cm^3
# Si number density = 17.679058 Si / 1000 Ang^3
#
#
#
# Elastic Constant Matrix: (Units=GPa)
#
#
# Indices 1 2 3 4 5 6 
#
# 1 66.9696 18.4205 28.9422 0.0000 0.0000 0.0000
# 2 18.4205 42.3237 11.2401 0.0000 0.0000 0.0000
# 3 28.9422 11.2401 36.9274 0.0000 0.0000 0.0000
# 4 0.0000 0.0000 0.0000 23.1007 0.0000 0.0000
# 5 0.0000 0.0000 0.0000 0.0000 23.9133 0.0000
# 6 0.0000 0.0000 0.0000 0.0000 0.0000 15.0317
#
#
#
# Elastic Compliance Matrix: (Units=1/GPa)
#
#
# Indices 1 2 3 4 5 6 
#
# 1 0.023860 -0.005895 -0.016906 0.000000 0.000000 0.000000
# 2 -0.005895 0.027162 -0.003648 0.000000 0.000000 0.000000
# 3 -0.016906 -0.003648 0.041441 0.000000 0.000000 0.000000
# 4 0.000000 0.000000 0.000000 0.043289 0.000000 0.000000
# 5 0.000000 0.000000 0.000000 0.000000 0.041818 0.000000
# 6 0.000000 0.000000 0.000000 0.000000 0.000000 0.066526
#
#
# Mechanical properties :
#
#
# Convention : Reuss Voigt Hill
#
# Bulk Modulus (GPa) = 25.27452 29.26959 27.27205
# Shear Modulus (GPa) = 16.11967 18.25033 17.18500
#
# Velocity S-wave (km/s) = 3.02287 3.21645 3.12116
# Velocity P-wave (km/s) = 5.14888 5.51236 5.33372
#
# Compressibility (1/GPa) = 0.03956554
#
# Stress axis : x y z
#
# Youngs Moduli (GPa) = 41.91148 36.81664 24.13082
#
# Poissons Ratio (x) = 0.21702 0.40796
# Poissons Ratio (y) = 0.24705 0.08802
# Poissons Ratio (z) = 0.70856 0.13429
#
# Static dielectric constant tensor:
#      x y z
#    x 1.599670 0.000000 0.000000 
#    y 0.000000 1.611810 0.000000 
#    z 0.000000 0.000000 1.626990 
# 
# From -- ./inp_files/44715.got.cif
#   From: 2010.05.17/outbox.cif.g08.bks.cpg/sg65_23_cif.got.tgz:44715.got - 2010.06.03 17:01:31.
