data_PCOD9489384
_publ_section_title
;
Structure prediction by ZEFSAII (Michael W. Deem and Ramdas Pophale) SiO2 
 PCOD9489384
Probable space group: C M M M
;
_chemical_formula_sum "Si O2"
_cell_formula_units_Z 104
_cell_length_a 29.164008
_cell_length_b 8.657040
_cell_length_c 23.780898
_cell_angle_alpha 90.000000
_cell_angle_beta 90.000000
_cell_angle_gamma 90.000000
_cell_volume 6004.058057
_symmetry_space_group_name_H-M "C M M M"
_symmetry_group_IT_number 65
_symmetry_cell_setting 'orthorhombic'
loop_
_space_group_symop_operation_xyz
x,y,z
-x,-y,z
x,-y,-z
-x,y,-z
-x,-y,-z
x,y,-z
-x,y,z
x,-y,z
1/2+x,1/2+y,z
1/2-x,1/2-y,z
1/2+x,1/2-y,-z
1/2-x,1/2+y,-z
1/2-x,1/2-y,-z
1/2+x,1/2+y,-z
1/2-x,1/2+y,z
1/2+x,1/2-y,z
loop_
_atom_site_type_symbol
_atom_site_label
_atom_site_fract_x
_atom_site_fract_y
_atom_site_fract_z
Si Si1 0.299606 0.315117 0.648979
Si Si2 0.108074 0.685563 0.172025
Si Si3 0.393953 0.814451 0.612367
Si Si4 0.799498 0.815290 0.781059
Si Si5 0.447202 0.811910 0.063403
Si Si6 0.554035 0.684750 0.278734
Si Si7 0.552775 0.811774 0.500000
O O1 0.299533 0.500000 0.645037
O O2 0.250000 0.250000 0.632126
O O3 0.342032 0.246104 0.615012
O O4 0.306628 0.272866 0.715073
O O5 0.108690 0.500000 0.172839
O O6 0.158900 0.747650 0.183312
O O7 0.086175 0.739102 0.113058
O O8 0.076535 0.744670 0.223029
O O9 0.420482 0.750765 0.666727
O O10 0.420462 0.763887 0.556118
O O11 0.393755 0.000000 0.614492
O O12 0.750000 0.750000 0.797815
O O13 0.799373 0.000000 0.784506
O O14 0.500000 0.765368 0.074537
O O15 0.446811 0.000000 0.063447
O O16 0.434875 0.762248 0.000000
O O17 0.500000 0.720098 0.281162
O O18 0.560100 0.500000 0.277517
O O19 0.500000 0.759084 0.500000
O O20 0.552008 0.000000 0.500000
#
# Coordination Sequence:
#
# PCOD9489384 Si02
#       7
#    16  16  16  16  16  16   8
#     4  10  20  35  56  81 111 142 176 218 268 322
#     4  11  20  31  53  82 109 139 179 221 269 324
#     4  11  21  36  59  82 107 140 180 223 269 322
#     4  10  20  34  53  77 110 143 175 218 268 321
#     4   8  15  29  49  75 108 144 182 223 263 308
#     4  11  23  36  50  74 110 145 177 220 271 317
#     4   9  20  38  58  81 108 141 182 225 266 313
#
# _framework density 17.321618999999998
#
# number of rings (size 3 to 8) (size 9 to 14) (size 15 to 20)
#    0.000    1.923    1.538    3.692    0.000    3.692 
#    0.000    1.923    0.000    5.077    0.000    5.385 
#    0.000    0.000    0.000    0.000    0.000    0.000 
#
# Total GULP energy -290368.922668 kJ/mol
# GULP energy per Si atom -5584.017744 kJ/mol
# Density = 1.728219 g / cm^3
# Si number density = 17.321619 Si / 1000 Ang^3
#
#
#
# Elastic Constant Matrix: (Units=GPa)
#
#
# Indices 1 2 3 4 5 6 
#
# 1 176.7975 48.7555 98.1771 0.0000 0.0000 0.0000
# 2 48.7555 36.8280 27.6452 0.0000 0.0000 0.0000
# 3 98.1771 27.6452 128.1550 0.0000 0.0000 0.0000
# 4 0.0000 0.0000 0.0000 2.3921 0.0000 0.0000
# 5 0.0000 0.0000 0.0000 0.0000 27.7065 0.0000
# 6 0.0000 0.0000 0.0000 0.0000 0.0000 32.3047
#
#
#
# Elastic Compliance Matrix: (Units=1/GPa)
#
#
# Indices 1 2 3 4 5 6 
#
# 1 0.012996 -0.011612 -0.007451 0.000000 0.000000 0.000000
# 2 -0.011612 0.042775 -0.000332 0.000000 0.000000 0.000000
# 3 -0.007451 -0.000332 0.013583 0.000000 0.000000 0.000000
# 4 0.000000 0.000000 0.000000 0.418045 0.000000 0.000000
# 5 0.000000 0.000000 0.000000 0.000000 0.036093 0.000000
# 6 0.000000 0.000000 0.000000 0.000000 0.000000 0.030955
#
#
# Mechanical properties :
#
#
# Convention : Reuss Voigt Hill
#
# Bulk Modulus (GPa) = 32.71780 76.77068 54.74424
# Shear Modulus (GPa) = 8.28605 23.62750 15.95678
#
# Velocity S-wave (km/s) = 2.18953 3.69731 3.03843
# Velocity P-wave (km/s) = 5.03204 7.91478 6.63194
#
# Compressibility (1/GPa) = 0.03056440
#
# Stress axis : x y z
#
# Youngs Moduli (GPa) = 76.94596 23.37821 73.62254
#
# Poissons Ratio (x) = 0.27147 0.54858
# Poissons Ratio (y) = 0.89349 0.02441
# Poissons Ratio (z) = 0.57334 0.00775
#
# Static dielectric constant tensor:
#      x y z
#    x 1.575250 0.000000 0.000000 
#    y 0.000000 1.585480 0.000000 
#    z 0.000000 0.000000 1.572080 
# 
# From -- ./inp_files/65941.got.cif
#   From: 2010.05.17/outbox.cif.g08.bks.cpg/sg65_33_cif.got.tgz:65941.got - 2010.06.03 17:01:31.
