data_PCOD9489193
_publ_section_title
;
Structure prediction by ZEFSAII (Michael W. Deem and Ramdas Pophale) SiO2 
 PCOD9489193
Probable space group: C M M M
;
_chemical_formula_sum "Si O2"
_cell_formula_units_Z 72
_cell_length_a 18.441161
_cell_length_b 8.996272
_cell_length_c 24.067410
_cell_angle_alpha 90.000000
_cell_angle_beta 90.000000
_cell_angle_gamma 90.000000
_cell_volume 3992.824242
_symmetry_space_group_name_H-M "C M M M"
_symmetry_group_IT_number 65
_symmetry_cell_setting 'orthorhombic'
loop_
_space_group_symop_operation_xyz
x,y,z
-x,-y,z
x,-y,-z
-x,y,-z
-x,-y,-z
x,y,-z
-x,y,z
x,-y,z
1/2+x,1/2+y,z
1/2-x,1/2-y,z
1/2+x,1/2-y,-z
1/2-x,1/2+y,-z
1/2-x,1/2-y,-z
1/2+x,1/2+y,-z
1/2-x,1/2+y,z
1/2+x,1/2-y,z
loop_
_atom_site_type_symbol
_atom_site_label
_atom_site_fract_x
_atom_site_fract_y
_atom_site_fract_z
Si Si1 0.412655 0.826132 0.271703
Si Si2 0.411458 0.828208 0.500000
Si Si3 0.416190 0.680662 0.937999
Si Si4 0.588362 0.671197 0.386341
Si Si5 0.671144 0.321143 0.170702
O O1 0.500000 0.813049 0.268077
O O2 0.389770 0.761065 0.331487
O O3 0.376656 0.735171 0.222103
O O4 0.393838 0.000000 0.267659
O O5 0.500000 0.825354 0.500000
O O6 0.387612 0.746502 0.556226
O O7 0.389455 0.000000 0.500000
O O8 0.500000 0.726129 0.929498
O O9 0.415785 0.500000 0.938108
O O10 0.366506 0.728250 0.887070
O O11 0.393319 0.729117 0.000000
O O12 0.500000 0.672409 0.387150
O O13 0.611491 0.500000 0.383094
O O14 0.675218 0.500000 0.171320
O O15 0.750000 0.250000 0.174865
#
# Coordination Sequence:
#
# PCOD9489193 Si02
#       5
#    16   8  16  16  16
#     4  10  20  34  52  74 101 133 171 216 264 313
#     4   9  15  23  37  61  96 133 166 205 256 307
#     4   8  15  30  53  79 104 132 169 211 254 303
#     4   9  16  26  42  66  96 130 168 209 255 308
#     4  11  22  35  52  75 104 138 175 214 258 307
#
# _framework density 18.032350000000001
#
# number of rings (size 3 to 8) (size 9 to 14) (size 15 to 20)
#    0.000    2.556    0.000    3.667    0.000    6.667 
#    0.000    0.000    0.000    2.000    0.000    8.556 
#    0.000    0.000    0.000    0.000    0.000    0.000 
#
# Total GULP energy -200792.419028 kJ/mol
# GULP energy per Si atom -5577.567195 kJ/mol
# Density = 1.799131 g / cm^3
# Si number density = 18.032350 Si / 1000 Ang^3
#
#
#
# Elastic Constant Matrix: (Units=GPa)
#
#
# Indices 1 2 3 4 5 6 
#
# 1 24.6365 29.2657 41.5492 0.0000 0.0000 0.0000
# 2 29.2657 97.7069 62.4872 0.0000 0.0000 0.0000
# 3 41.5492 62.4872 165.1895 0.0000 0.0000 0.0000
# 4 0.0000 0.0000 0.0000 15.7632 0.0000 0.0000
# 5 0.0000 0.0000 0.0000 0.0000 -6.4178 0.0000
# 6 0.0000 0.0000 0.0000 0.0000 0.0000 14.1117
#
#
#
# Elastic Compliance Matrix: (Units=1/GPa)
#
#
# Indices 1 2 3 4 5 6 
#
# 1 0.085414 -0.015624 -0.015574 0.000000 0.000000 0.000000
# 2 -0.015624 0.016359 -0.002258 0.000000 0.000000 0.000000
# 3 -0.015574 -0.002258 0.010825 0.000000 0.000000 0.000000
# 4 0.000000 0.000000 0.000000 0.063439 0.000000 0.000000
# 5 0.000000 0.000000 0.000000 0.000000 -0.155817 0.000000
# 6 0.000000 0.000000 0.000000 0.000000 0.000000 0.070863
#
#
# Mechanical properties :
#
#
# Convention : Reuss Voigt Hill
#
# Bulk Modulus (GPa) = 21.88830 61.57078 41.72954
# Shear Modulus (GPa) = 28.86444 14.97348 21.91896
#
# Velocity S-wave (km/s) = 4.00522 2.88474 3.49024
# Velocity P-wave (km/s) = 5.79256 6.73159 6.27965
#
# Compressibility (1/GPa) = 0.04568651
#
# Stress axis : x y z
#
# Youngs Moduli (GPa) = 11.70764 61.12955 92.37805
#
# Poissons Ratio (x) = 0.95507 1.43866
# Poissons Ratio (y) = 0.18292 0.20862
# Poissons Ratio (z) = 0.18233 0.13805
#
# Static dielectric constant tensor:
#      x y z
#    x 1.599210 0.000000 0.000000 
#    y 0.000000 1.603600 0.000000 
#    z 0.000000 0.000000 1.609570 
# 
# From -- ./inp_files/59239.got.cif
#   From: 2010.05.17/outbox.cif.g08.bks.cpg/sg65_30_cif.got.tgz:59239.got - 2010.06.03 17:01:31.
