data_PCOD9489756
_publ_section_title
;
Structure prediction by ZEFSAII (Michael W. Deem and Ramdas Pophale) SiO2 
 PCOD9489756
Probable space group: C M M M
;
_chemical_formula_sum "Si O2"
_cell_formula_units_Z 92
_cell_length_a 27.087633
_cell_length_b 18.492760
_cell_length_c 7.414442
_cell_angle_alpha 90.000000
_cell_angle_beta 90.000000
_cell_angle_gamma 90.000000
_cell_volume 3714.080071
_symmetry_space_group_name_H-M "C M M M"
_symmetry_group_IT_number 65
_symmetry_cell_setting 'orthorhombic'
loop_
_space_group_symop_operation_xyz
x,y,z
-x,-y,z
x,-y,-z
-x,y,-z
-x,-y,-z
x,y,-z
-x,y,z
x,-y,z
1/2+x,1/2+y,z
1/2-x,1/2-y,z
1/2+x,1/2-y,-z
1/2-x,1/2+y,-z
1/2-x,1/2-y,-z
1/2+x,1/2+y,-z
1/2-x,1/2+y,z
1/2+x,1/2-y,z
loop_
_atom_site_type_symbol
_atom_site_label
_atom_site_fract_x
_atom_site_fract_y
_atom_site_fract_z
Si Si1 0.072824 0.417473 0.285254
Si Si2 0.841552 0.779674 0.292415
Si Si3 0.317650 0.877601 0.280766
Si Si4 0.290216 0.422398 0.720648
Si Si5 0.500000 0.856223 0.000000
Si Si6 0.444093 0.664211 0.208382
Si Si7 0.940188 0.000000 0.296371
O O1 0.067610 0.402265 0.500000
O O2 0.055540 0.500000 0.252700
O O3 0.130651 0.414458 0.237511
O O4 0.042530 0.364491 0.158716
O O5 0.824999 0.778128 0.500000
O O6 0.822443 0.704844 0.214266
O O7 0.819190 0.852570 0.212384
O O8 0.900576 0.788772 0.291314
O O9 0.315804 0.876884 0.500000
O O10 0.266872 0.914072 0.224624
O O11 0.292362 0.422347 0.500000
O O12 0.310393 0.500000 0.779510
O O13 0.500000 0.670932 0.283537
O O14 0.428874 0.579065 0.217871
O O15 0.447158 0.685401 0.000000
O O16 0.920578 0.000000 0.500000
O O17 0.000000 0.000000 0.298162
#
# Coordination Sequence:
#
# PCOD9489756 Si02
#       7
#    16  16  16  16   4  16   8
#     4  10  20  36  60  88 121 162 207 253 307 369
#     4  10  20  34  56  86 117 151 195 247 299 353
#     4   9  18  35  56  83 118 158 197 241 299 359
#     4   9  17  31  57  90 117 145 191 248 302 360
#     4  12  23  38  60  94 128 160 205 266 315 358
#     4  10  21  37  54  77 113 156 195 234 290 356
#     4   9  17  31  55  81 103 137 187 241 287 331
#
# _framework density 24.770600999999999
#
# number of rings (size 3 to 8) (size 9 to 14) (size 15 to 20)
#    0.000    2.348    0.000    2.870    1.217    6.957 
#    3.130    0.000    1.913    1.043    0.000    0.000 
#    0.000    0.000    0.000    0.000    0.000    0.348 
#
# Total GULP energy -256695.214246 kJ/mol
# GULP energy per Si atom -5580.330744 kJ/mol
# Density = 2.471422 g / cm^3
# Si number density = 24.770601 Si / 1000 Ang^3
#
#
#
# Elastic Constant Matrix: (Units=GPa)
#
#
# Indices 1 2 3 4 5 6 
#
# 1 91.1595 24.5449 -0.3855 0.0000 0.0000 0.0000
# 2 24.5449 114.4341 -0.5389 0.0000 0.0000 0.0000
# 3 -0.3855 -0.5389 88.8223 0.0000 0.0000 0.0000
# 4 0.0000 0.0000 0.0000 -1.9862 0.0000 0.0000
# 5 0.0000 0.0000 0.0000 0.0000 80.3845 0.0000
# 6 0.0000 0.0000 0.0000 0.0000 0.0000 60.5772
#
#
#
# Elastic Compliance Matrix: (Units=1/GPa)
#
#
# Indices 1 2 3 4 5 6 
#
# 1 0.011642 -0.002497 0.000035 0.000000 0.000000 0.000000
# 2 -0.002497 0.009274 0.000045 0.000000 0.000000 0.000000
# 3 0.000035 0.000045 0.011259 0.000000 0.000000 0.000000
# 4 0.000000 0.000000 0.000000 -0.503471 0.000000 0.000000
# 5 0.000000 0.000000 0.000000 0.000000 0.012440 0.000000
# 6 0.000000 0.000000 0.000000 0.000000 0.000000 0.016508
#
#
# Mechanical properties :
#
#
# Convention : Reuss Voigt Hill
#
# Bulk Modulus (GPa) = 36.57212 37.96188 37.26700
# Shear Modulus (GPa) = -11.67133 45.84812 17.08840
#
# Velocity S-wave (km/s) = -2.17301 4.30689 2.62938
# Velocity P-wave (km/s) = 2.91554 6.33175 4.92907
#
# Compressibility (1/GPa) = 0.02734324
#
# Stress axis : x y z
#
# Youngs Moduli (GPa) = 85.89408 107.82323 88.81887
#
# Poissons Ratio (x) = 0.26923 -0.00314
# Poissons Ratio (y) = 0.21448 -0.00404
# Poissons Ratio (z) = -0.00304 -0.00490
#
# Static dielectric constant tensor:
#      x y z
#    x 1.931150 0.000000 0.000000 
#    y 0.000000 1.996660 0.000000 
#    z 0.000000 0.000000 1.950760 
# 
# From -- ./inp_files/16381.got.cif
#   From: 2010.05.17/outbox.cif.g08.bks.cpg/sg65_9_cif.got.tgz:16381.got - 2010.06.03 17:01:31.
