data_PCOD9489886
_publ_section_title
;
Structure prediction by ZEFSAII (Michael W. Deem and Ramdas Pophale) SiO2 
 PCOD9489886
Probable space group: C M M M
;
_chemical_formula_sum "Si O2"
_cell_formula_units_Z 88
_cell_length_a 7.753271
_cell_length_b 19.636568
_cell_length_c 30.797287
_cell_angle_alpha 90.000000
_cell_angle_beta 90.000000
_cell_angle_gamma 90.000000
_cell_volume 4688.814055
_symmetry_space_group_name_H-M "C M M M"
_symmetry_group_IT_number 65
_symmetry_cell_setting 'orthorhombic'
loop_
_space_group_symop_operation_xyz
x,y,z
-x,-y,z
x,-y,-z
-x,y,-z
-x,-y,-z
x,y,-z
-x,y,z
x,-y,z
1/2+x,1/2+y,z
1/2-x,1/2-y,z
1/2+x,1/2-y,-z
1/2-x,1/2+y,-z
1/2-x,1/2-y,-z
1/2+x,1/2+y,-z
1/2-x,1/2+y,z
1/2+x,1/2-y,z
loop_
_atom_site_type_symbol
_atom_site_label
_atom_site_fract_x
_atom_site_fract_y
_atom_site_fract_z
Si Si1 0.796410 0.081514 0.115909
Si Si2 0.705671 0.923306 0.374187
Si Si3 0.707809 0.172250 0.450797
Si Si4 0.500000 0.917350 0.049424
Si Si5 0.793187 0.171966 0.803097
Si Si6 0.705566 0.671973 0.294591
O O1 0.670719 0.101812 0.076555
O O2 0.737427 0.120699 0.159305
O O3 0.000000 0.096282 0.107843
O O4 0.781723 0.000000 0.122137
O O5 0.500000 0.928238 0.380523
O O6 0.775173 0.880138 0.414975
O O7 0.732286 0.880678 0.330418
O O8 0.775386 0.000000 0.371543
O O9 0.771754 0.160265 0.500000
O O10 0.500000 0.166909 0.451925
O O11 0.750000 0.250000 0.438685
O O12 0.500000 0.000000 0.047678
O O13 0.500000 0.892100 0.000000
O O14 0.750000 0.250000 0.814181
O O15 0.725627 0.158832 0.754279
O O16 0.000000 0.165973 0.800995
O O17 0.500000 0.666972 0.293170
O O18 0.750000 0.750000 0.306186
#
# Coordination Sequence:
#
# PCOD9489886 Si02
#       6
#    16  16  16   8  16  16
#     4   9  18  33  52  77 107 138 176 221 267 314
#     4  10  21  35  50  73 104 135 169 210 259 310
#     4   9  18  33  53  74  96 127 168 212 257 306
#     4   9  18  32  52  80 108 138 179 221 266 318
#     4   9  19  33  52  77 101 134 172 210 257 308
#     4  10  20  35  54  75 102 134 173 213 254 310
#
# _framework density 18.768073999999999
#
# number of rings (size 3 to 8) (size 9 to 14) (size 15 to 20)
#    0.000    2.636    0.000    1.091    1.273    4.727 
#    0.000    5.455    0.000    0.545    0.000    3.818 
#    0.000    0.000    0.000    0.000    0.000    0.000 
#
# Total GULP energy -245382.827387 kJ/mol
# GULP energy per Si atom -5576.882441 kJ/mol
# Density = 1.872536 g / cm^3
# Si number density = 18.768074 Si / 1000 Ang^3
#
#
#
# Elastic Constant Matrix: (Units=GPa)
#
#
# Indices 1 2 3 4 5 6 
#
# 1 47.4441 25.3268 34.3290 0.0000 0.0000 0.0000
# 2 25.3268 110.7495 109.8163 0.0000 0.0000 0.0000
# 3 34.3290 109.8163 158.3086 0.0000 0.0000 0.0000
# 4 0.0000 0.0000 0.0000 28.5613 0.0000 0.0000
# 5 0.0000 0.0000 0.0000 0.0000 21.6542 0.0000
# 6 0.0000 0.0000 0.0000 0.0000 0.0000 17.7039
#
#
#
# Elastic Compliance Matrix: (Units=1/GPa)
#
#
# Indices 1 2 3 4 5 6 
#
# 1 0.025042 -0.001096 -0.004670 0.000000 0.000000 0.000000
# 2 -0.001096 0.028974 -0.019861 0.000000 0.000000 0.000000
# 3 -0.004670 -0.019861 0.021107 0.000000 0.000000 0.000000
# 4 0.000000 0.000000 0.000000 0.035012 0.000000 0.000000
# 5 0.000000 0.000000 0.000000 0.000000 0.046180 0.000000
# 6 0.000000 0.000000 0.000000 0.000000 0.000000 0.056485
#
#
# Mechanical properties :
#
#
# Convention : Reuss Voigt Hill
#
# Bulk Modulus (GPa) = 41.89700 72.82736 57.36218
# Shear Modulus (GPa) = 18.38176 23.38588 20.88382
#
# Velocity S-wave (km/s) = 3.13296 3.53377 3.33938
# Velocity P-wave (km/s) = 5.95477 7.45239 6.74527
#
# Compressibility (1/GPa) = 0.02386806
#
# Stress axis : x y z
#
# Youngs Moduli (GPa) = 39.93366 34.51429 47.37864
#
# Poissons Ratio (x) = 0.03783 0.22125
# Poissons Ratio (y) = 0.04377 0.94098
# Poissons Ratio (z) = 0.18648 0.68548
#
# Static dielectric constant tensor:
#      x y z
#    x 1.680720 0.000000 0.000000 
#    y 0.000000 1.623470 0.000000 
#    z 0.000000 0.000000 1.659670 
# 
# From -- ./inp_files/76615.got.cif
#   From: 2010.05.17/outbox.cif.g08.bks.cpg/sg65_39_cif.got.tgz:76615.got - 2010.06.03 17:01:31.
