data_PCOD9489404
_publ_section_title
;
Structure prediction by ZEFSAII (Michael W. Deem and Ramdas Pophale) SiO2 
 PCOD9489404
Probable space group: C M M M
;
_chemical_formula_sum "Si O2"
_cell_formula_units_Z 104
_cell_length_a 28.057172
_cell_length_b 8.697561
_cell_length_c 24.071761
_cell_angle_alpha 90.000000
_cell_angle_beta 90.000000
_cell_angle_gamma 90.000000
_cell_volume 5874.206922
_symmetry_space_group_name_H-M "C M M M"
_symmetry_group_IT_number 65
_symmetry_cell_setting 'orthorhombic'
loop_
_space_group_symop_operation_xyz
x,y,z
-x,-y,z
x,-y,-z
-x,y,-z
-x,-y,-z
x,y,-z
-x,y,z
x,-y,z
1/2+x,1/2+y,z
1/2-x,1/2-y,z
1/2+x,1/2-y,-z
1/2-x,1/2+y,-z
1/2-x,1/2-y,-z
1/2+x,1/2+y,-z
1/2-x,1/2+y,z
1/2+x,1/2-y,z
loop_
_atom_site_type_symbol
_atom_site_label
_atom_site_fract_x
_atom_site_fract_y
_atom_site_fract_z
Si Si1 0.802817 0.685347 0.819973
Si Si2 0.637920 0.181354 0.712818
Si Si3 0.943039 0.185568 0.000000
Si Si4 0.555496 0.679832 0.218577
Si Si5 0.875436 0.816030 0.591346
Si Si6 0.444538 0.183855 0.500000
Si Si7 0.698524 0.316351 0.500000
Si Si8 0.102410 0.314418 0.112295
O O1 0.800305 0.500000 0.819494
O O2 0.750000 0.750000 0.830337
O O3 0.823239 0.734689 0.759102
O O4 0.844014 0.726383 0.865330
O O5 0.587664 0.217114 0.741848
O O6 0.634592 0.260920 0.653370
O O7 0.644713 0.000000 0.705139
O O8 0.915008 0.251409 0.053355
O O9 0.000000 0.228078 0.000000
O O10 0.941046 0.000000 0.000000
O O11 0.500000 0.693792 0.230949
O O12 0.569090 0.500000 0.223827
O O13 0.567086 0.738975 0.157111
O O14 0.919411 0.748449 0.555767
O O15 0.830515 0.767805 0.554049
O O16 0.880208 0.000000 0.590943
O O17 0.500000 0.224704 0.500000
O O18 0.439512 0.000000 0.500000
O O19 0.699976 0.500000 0.500000
O O20 0.750000 0.250000 0.500000
O O21 0.099082 0.500000 0.113512
#
# Coordination Sequence:
#
# PCOD9489404 Si02
#       8
#    16  16   8  16  16   8   8  16
#     4   9  20  37  57  81 108 141 181 224 270 322
#     4  10  21  36  54  79 108 139 178 221 265 316
#     4  11  23  37  56  85 116 147 186 227 268 317
#     4  10  20  34  53  78 108 142 178 217 264 316
#     4  10  21  37  55  78 107 138 175 218 265 317
#     4  10  21  37  57  79 104 140 182 222 270 325
#     4   9  20  36  54  76 101 132 168 208 259 316
#     4  10  21  37  56  81 112 145 183 224 268 319
#
# _framework density 17.704518
#
# number of rings (size 3 to 8) (size 9 to 14) (size 15 to 20)
#    0.000    2.154    0.000    4.154    0.000   11.077 
#    0.000    3.462    0.000    0.000    0.000    0.000 
#    0.000    0.000    0.000    0.000    0.000    0.000 
#
# Total GULP energy -289947.602585 kJ/mol
# GULP energy per Si atom -5575.915434 kJ/mol
# Density = 1.766422 g / cm^3
# Si number density = 17.704518 Si / 1000 Ang^3
#
#
#
# Elastic Constant Matrix: (Units=GPa)
#
#
# Indices 1 2 3 4 5 6 
#
# 1 112.5699 24.9288 43.6479 0.0000 0.0000 0.0000
# 2 24.9288 28.0849 10.7667 0.0000 0.0000 0.0000
# 3 43.6479 10.7667 126.5333 0.0000 0.0000 0.0000
# 4 0.0000 0.0000 0.0000 30.3308 0.0000 0.0000
# 5 0.0000 0.0000 0.0000 0.0000 -8.3942 0.0000
# 6 0.0000 0.0000 0.0000 0.0000 0.0000 30.9678
#
#
#
# Elastic Compliance Matrix: (Units=1/GPa)
#
#
# Indices 1 2 3 4 5 6 
#
# 1 0.012354 -0.009646 -0.003441 0.000000 0.000000 0.000000
# 2 -0.009646 0.044339 -0.000445 0.000000 0.000000 0.000000
# 3 -0.003441 -0.000445 0.009128 0.000000 0.000000 0.000000
# 4 0.000000 0.000000 0.000000 0.032970 0.000000 0.000000
# 5 0.000000 0.000000 0.000000 0.000000 -0.119130 0.000000
# 6 0.000000 0.000000 0.000000 0.000000 0.000000 0.032292
#
#
# Mechanical properties :
#
#
# Convention : Reuss Voigt Hill
#
# Bulk Modulus (GPa) = 25.80228 47.31944 36.56086
# Shear Modulus (GPa) = 96.27281 23.10386 59.68834
#
# Velocity S-wave (km/s) = 7.38211 3.61636 5.81264
# Velocity P-wave (km/s) = 9.34164 6.65002 8.10830
#
# Compressibility (1/GPa) = 0.03875627
#
# Stress axis : x y z
#
# Youngs Moduli (GPa) = 80.94775 22.55328 109.55560
#
# Poissons Ratio (x) = 0.21756 0.37694
# Poissons Ratio (y) = 0.78085 0.04879
# Poissons Ratio (z) = 0.27851 0.01004
#
# Static dielectric constant tensor:
#      x y z
#    x 1.585860 0.000000 0.000000 
#    y 0.000000 1.602540 0.000000 
#    z 0.000000 0.000000 1.663240 
# 
# From -- ./inp_files/65976.got.cif
#   From: 2010.05.17/outbox.cif.g08.bks.cpg/sg65_33_cif.got.tgz:65976.got - 2010.06.03 17:01:31.
