data_PCOD9489355
_publ_section_title
;
Structure prediction by ZEFSAII (Michael W. Deem and Ramdas Pophale) SiO2 
 PCOD9489355
Probable space group: C M M M
;
_chemical_formula_sum "Si O2"
_cell_formula_units_Z 96
_cell_length_a 20.586931
_cell_length_b 8.910793
_cell_length_c 30.453053
_cell_angle_alpha 90.000000
_cell_angle_beta 90.000000
_cell_angle_gamma 90.000000
_cell_volume 5586.487126
_symmetry_space_group_name_H-M "C M M M"
_symmetry_group_IT_number 65
_symmetry_cell_setting 'orthorhombic'
loop_
_space_group_symop_operation_xyz
x,y,z
-x,-y,z
x,-y,-z
-x,y,-z
-x,-y,-z
x,y,-z
-x,y,z
x,-y,z
1/2+x,1/2+y,z
1/2-x,1/2-y,z
1/2+x,1/2-y,-z
1/2-x,1/2+y,-z
1/2-x,1/2-y,-z
1/2+x,1/2+y,-z
1/2-x,1/2+y,z
1/2+x,1/2-y,z
loop_
_atom_site_type_symbol
_atom_site_label
_atom_site_fract_x
_atom_site_fract_y
_atom_site_fract_z
Si Si1 0.424843 0.180419 0.051040
Si Si2 0.180068 0.179717 0.115465
Si Si3 0.075689 0.679481 0.383701
Si Si4 0.075040 0.180613 0.288832
Si Si5 0.180252 0.179155 0.551612
Si Si6 0.819549 0.819427 0.783023
O O1 0.500000 0.220006 0.060476
O O2 0.375119 0.259122 0.083487
O O3 0.419028 0.000000 0.055034
O O4 0.411809 0.218834 0.000000
O O5 0.250000 0.250000 0.104140
O O6 0.165995 0.221728 0.166344
O O7 0.183872 0.000000 0.112725
O O8 0.082328 0.500000 0.384254
O O9 0.090411 0.741925 0.335108
O O10 0.123863 0.752430 0.418638
O O11 0.000000 0.716871 0.393031
O O12 0.124361 0.227251 0.250626
O O13 0.000000 0.215609 0.277618
O O14 0.079740 0.000000 0.294183
O O15 0.168633 0.212012 0.500000
O O16 0.250000 0.250000 0.563365
O O17 0.182978 0.000000 0.557060
O O18 0.750000 0.750000 0.771178
O O19 0.814607 0.000000 0.781319
#
# Coordination Sequence:
#
# PCOD9489355 Si02
#       6
#    16  16  16  16  16  16
#     4   9  19  36  55  75 102 135 170 210 257 308
#     4  10  20  34  53  77 105 136 172 213 256 305
#     4  10  21  36  54  78 108 140 175 215 257 303
#     4   9  18  34  54  74 100 135 173 212 255 303
#     4  10  21  37  57  80 106 137 174 215 259 309
#     4   9  19  34  52  75 102 133 168 209 256 304
#
# _framework density 17.184324
#
# number of rings (size 3 to 8) (size 9 to 14) (size 15 to 20)
#    0.000    2.500    0.000    2.000    0.000    6.000 
#    0.000    5.833    0.000    2.000    0.000    0.000 
#    0.000    0.000    0.000    0.000    0.000    0.000 
#
# Total GULP energy -267834.287675 kJ/mol
# GULP energy per Si atom -5579.880993 kJ/mol
# Density = 1.714521 g / cm^3
# Si number density = 17.184324 Si / 1000 Ang^3
#
#
#
# Elastic Constant Matrix: (Units=GPa)
#
#
# Indices 1 2 3 4 5 6 
#
# 1 154.5877 63.4046 125.6192 0.0000 0.0000 0.0000
# 2 63.4046 43.3088 56.9964 0.0000 0.0000 0.0000
# 3 125.6192 56.9964 121.8959 0.0000 0.0000 0.0000
# 4 0.0000 0.0000 0.0000 24.2241 0.0000 0.0000
# 5 0.0000 0.0000 0.0000 0.0000 44.3165 0.0000
# 6 0.0000 0.0000 0.0000 0.0000 0.0000 33.6259
#
#
#
# Elastic Compliance Matrix: (Units=1/GPa)
#
#
# Indices 1 2 3 4 5 6 
#
# 1 0.041975 -0.011760 -0.037758 0.000000 0.000000 0.000000
# 2 -0.011760 0.063325 -0.017490 0.000000 0.000000 0.000000
# 3 -0.037758 -0.017490 0.055293 0.000000 0.000000 0.000000
# 4 0.000000 0.000000 0.000000 0.041281 0.000000 0.000000
# 5 0.000000 0.000000 0.000000 0.000000 0.022565 0.000000
# 6 0.000000 0.000000 0.000000 0.000000 0.000000 0.029739
#
#
# Mechanical properties :
#
#
# Convention : Reuss Voigt Hill
#
# Bulk Modulus (GPa) = 37.62774 90.20364 63.91569
# Shear Modulus (GPa) = 12.59275 25.35145 18.97210
#
# Velocity S-wave (km/s) = 2.70997 3.84509 3.32631
# Velocity P-wave (km/s) = 5.63347 8.50404 7.21300
#
# Compressibility (1/GPa) = 0.02657614
#
# Stress axis : x y z
#
# Youngs Moduli (GPa) = 23.82385 15.79147 18.08549
#
# Poissons Ratio (x) = 0.18572 0.68287
# Poissons Ratio (y) = 0.28018 0.31632
# Poissons Ratio (z) = 0.89954 0.27619
#
# Static dielectric constant tensor:
#      x y z
#    x 1.556300 0.000000 0.000000 
#    y 0.000000 1.572150 0.000000 
#    z 0.000000 0.000000 1.562670 
# 
# From -- ./inp_files/73087.got.cif
#   From: 2010.05.17/outbox.cif.g08.bks.cpg/sg65_37_cif.got.tgz:73087.got - 2010.06.03 17:01:31.
