data_PCOD9489562
_publ_section_title
;
Structure prediction by ZEFSAII (Michael W. Deem and Ramdas Pophale) SiO2 
 PCOD9489562
Probable space group: C M M M
;
_chemical_formula_sum "Si O2"
_cell_formula_units_Z 88
_cell_length_a 31.645918
_cell_length_b 8.680553
_cell_length_c 17.522695
_cell_angle_alpha 90.000000
_cell_angle_beta 90.000000
_cell_angle_gamma 90.000000
_cell_volume 4813.555606
_symmetry_space_group_name_H-M "C M M M"
_symmetry_group_IT_number 65
_symmetry_cell_setting 'orthorhombic'
loop_
_space_group_symop_operation_xyz
x,y,z
-x,-y,z
x,-y,-z
-x,y,-z
-x,-y,-z
x,y,-z
-x,y,z
x,-y,z
1/2+x,1/2+y,z
1/2-x,1/2-y,z
1/2+x,1/2-y,-z
1/2-x,1/2+y,-z
1/2-x,1/2-y,-z
1/2+x,1/2+y,-z
1/2-x,1/2+y,z
1/2+x,1/2-y,z
loop_
_atom_site_type_symbol
_atom_site_label
_atom_site_fract_x
_atom_site_fract_y
_atom_site_fract_z
Si Si1 0.319699 0.812806 0.916051
Si Si2 0.452622 0.685470 0.410237
Si Si3 0.410484 0.819582 0.868435
Si Si4 0.793929 0.182927 0.247074
Si Si5 0.379661 0.821229 0.695024
Si Si6 0.000000 0.322649 0.909149
O O1 0.368817 0.760839 0.910747
O O2 0.298989 0.745447 0.839958
O O3 0.318469 0.000000 0.909801
O O4 0.302869 0.770281 0.000000
O O5 0.448925 0.723952 0.500000
O O6 0.500000 0.736015 0.384581
O O7 0.451462 0.500000 0.403825
O O8 0.413760 0.753516 0.363242
O O9 0.400368 0.812537 0.779157
O O10 0.455939 0.747762 0.884530
O O11 0.413491 0.000000 0.891918
O O12 0.750000 0.250000 0.277735
O O13 0.834730 0.236962 0.295172
O O14 0.792360 0.000000 0.244824
O O15 0.371782 0.000000 0.677533
O O16 0.000000 0.500000 0.877963
O O17 0.000000 0.331076 0.000000
#
# Coordination Sequence:
#
# PCOD9489562 Si02
#       6
#    16  16  16  16  16   8
#     4   9  17  31  49  70 100 136 176 226 280 330
#     4   9  19  36  57  83 117 154 187 218 258 312
#     4   8  15  25  39  64  97 132 171 215 262 311
#     4  11  22  37  56  77 104 137 180 227 278 334
#     4  10  20  34  54  80 110 141 179 224 271 321
#     4   9  14  20  34  58  90 129 170 210 255 303
#
# _framework density 18.281704999999999
#
# number of rings (size 3 to 8) (size 9 to 14) (size 15 to 20)
#    0.000    2.636    0.000    4.364    1.273    3.636 
#    0.000    0.909    0.000    0.545    0.000    0.000 
#    0.000    7.636    0.000    0.000    0.000    0.000 
#
# Total GULP energy -245220.159150 kJ/mol
# GULP energy per Si atom -5573.185435 kJ/mol
# Density = 1.824009 g / cm^3
# Si number density = 18.281705 Si / 1000 Ang^3
#
#
#
# Elastic Constant Matrix: (Units=GPa)
#
#
# Indices 1 2 3 4 5 6 
#
# 1 162.5127 46.2070 43.6442 0.0000 0.0000 0.0000
# 2 46.2070 63.9546 32.2544 0.0000 0.0000 0.0000
# 3 43.6442 32.2544 54.6631 0.0000 0.0000 0.0000
# 4 0.0000 0.0000 0.0000 17.9444 0.0000 0.0000
# 5 0.0000 0.0000 0.0000 0.0000 4.5827 0.0000
# 6 0.0000 0.0000 0.0000 0.0000 0.0000 23.4941
#
#
#
# Elastic Compliance Matrix: (Units=1/GPa)
#
#
# Indices 1 2 3 4 5 6 
#
# 1 0.008449 -0.003847 -0.004476 0.000000 0.000000 0.000000
# 2 -0.003847 0.024012 -0.011097 0.000000 0.000000 0.000000
# 3 -0.004476 -0.011097 0.028415 0.000000 0.000000 0.000000
# 4 0.000000 0.000000 0.000000 0.055728 0.000000 0.000000
# 5 0.000000 0.000000 0.000000 0.000000 0.218213 0.000000
# 6 0.000000 0.000000 0.000000 0.000000 0.000000 0.042564
#
#
# Mechanical properties :
#
#
# Convention : Reuss Voigt Hill
#
# Bulk Modulus (GPa) = 45.37885 58.37129 51.87507
# Shear Modulus (GPa) = 11.80449 19.80588 15.80519
#
# Velocity S-wave (km/s) = 2.54382 3.29503 2.94349
# Velocity P-wave (km/s) = 5.78826 6.81722 6.32370
#
# Compressibility (1/GPa) = 0.02203670
#
# Stress axis : x y z
#
# Youngs Moduli (GPa) = 118.35277 41.64550 35.19211
#
# Poissons Ratio (x) = 0.16022 0.15752
# Poissons Ratio (y) = 0.45532 0.39052
# Poissons Ratio (z) = 0.52975 0.46214
#
# Static dielectric constant tensor:
#      x y z
#    x 1.677520 0.000000 0.000000 
#    y 0.000000 1.630380 0.000000 
#    z 0.000000 0.000000 1.608670 
# 
# From -- ./inp_files/58025.got.cif
#   From: 2010.05.17/outbox.cif.g08.bks.cpg/sg65_30_cif.got.tgz:58025.got - 2010.06.03 17:01:31.
