data_PCOD9489419
_publ_section_title
;
Structure prediction by ZEFSAII (Michael W. Deem and Ramdas Pophale) SiO2 
 PCOD9489419
Probable space group: C M M M
;
_chemical_formula_sum "Si O2"
_cell_formula_units_Z 90
_cell_length_a 23.714177
_cell_length_b 22.979089
_cell_length_c 7.350751
_cell_angle_alpha 90.000000
_cell_angle_beta 90.000000
_cell_angle_gamma 90.000000
_cell_volume 4005.646094
_symmetry_space_group_name_H-M "C M M M"
_symmetry_group_IT_number 65
_symmetry_cell_setting 'orthorhombic'
loop_
_space_group_symop_operation_xyz
x,y,z
-x,-y,z
x,-y,-z
-x,y,-z
-x,-y,-z
x,y,-z
-x,y,z
x,-y,z
1/2+x,1/2+y,z
1/2-x,1/2-y,z
1/2+x,1/2-y,-z
1/2-x,1/2+y,-z
1/2-x,1/2-y,-z
1/2+x,1/2+y,-z
1/2-x,1/2+y,z
1/2+x,1/2-y,z
loop_
_atom_site_type_symbol
_atom_site_label
_atom_site_fract_x
_atom_site_fract_y
_atom_site_fract_z
Si Si1 0.784500 0.000000 0.284694
Si Si2 0.412142 0.500000 0.278192
Si Si3 0.000000 0.388511 0.776406
Si Si4 0.500000 0.000000 0.500000
Si Si5 0.666469 0.704770 0.208223
Si Si6 0.617075 0.173432 0.221136
Si Si7 0.766975 0.374631 0.214782
Si Si8 0.439826 0.371931 0.720150
O O1 0.847874 0.000000 0.212787
O O2 0.754186 0.940177 0.236588
O O3 0.789792 0.000000 0.500000
O O4 0.413777 0.500000 0.500000
O O5 0.438785 0.560758 0.223588
O O6 0.000000 0.448072 0.660941
O O7 0.943755 0.351422 0.726964
O O8 0.000000 0.397818 0.000000
O O9 0.638274 0.763091 0.286415
O O10 0.721480 0.672456 0.289085
O O11 0.615842 0.658565 0.209065
O O12 0.681418 0.719687 0.000000
O O13 0.669179 0.132651 0.279731
O O14 0.614384 0.175852 0.000000
O O15 0.768554 0.363406 0.000000
O O16 0.436734 0.369688 0.500000
O O17 0.500000 0.345245 0.775361
#
# Coordination Sequence:
#
# PCOD9489419 Si02
#       8
#     8   8   8   2  16  16  16  16
#     4  11  21  35  56  81 115 152 196 246 300 361
#     4   9  17  33  53  70 108 151 196 239 281 348
#     4  10  23  47  75 100 135 176 209 264 336 394
#     4  12  26  48  76 106 136 160 222 282 322 402
#     4  10  20  35  59  87 120 156 199 252 304 367
#     4   9  20  40  64  89 120 162 204 243 310 390
#     4  10  20  37  60  87 117 155 203 255 308 368
#     4  10  20  34  53  79 110 158 204 243 292 354
#
# _framework density 22.468284000000001
#
# number of rings (size 3 to 8) (size 9 to 14) (size 15 to 20)
#    0.000    2.133    1.778    1.200    1.244    4.267 
#    4.800    3.111    0.000    3.200    0.000    0.000 
#    0.000    0.000    0.000    0.000    0.000    0.356 
#
# Total GULP energy -250911.071745 kJ/mol
# GULP energy per Si atom -5575.801594 kJ/mol
# Density = 2.241715 g / cm^3
# Si number density = 22.468284 Si / 1000 Ang^3
#
#
#
# Elastic Constant Matrix: (Units=GPa)
#
#
# Indices 1 2 3 4 5 6 
#
# 1 215.7355 88.7713 12.8801 0.0000 0.0000 0.0000
# 2 88.7713 142.2172 8.5984 0.0000 0.0000 0.0000
# 3 12.8801 8.5984 96.9108 0.0000 0.0000 0.0000
# 4 0.0000 0.0000 0.0000 -5.1902 0.0000 0.0000
# 5 0.0000 0.0000 0.0000 0.0000 8.6913 0.0000
# 6 0.0000 0.0000 0.0000 0.0000 0.0000 5.9119
#
#
#
# Elastic Compliance Matrix: (Units=1/GPa)
#
#
# Indices 1 2 3 4 5 6 
#
# 1 0.006260 -0.003878 -0.000488 0.000000 0.000000 0.000000
# 2 -0.003878 0.009472 -0.000325 0.000000 0.000000 0.000000
# 3 -0.000488 -0.000325 0.010412 0.000000 0.000000 0.000000
# 4 0.000000 0.000000 0.000000 -0.192669 0.000000 0.000000
# 5 0.000000 0.000000 0.000000 0.000000 0.115057 0.000000
# 6 0.000000 0.000000 0.000000 0.000000 0.000000 0.169152
#
#
# Mechanical properties :
#
#
# Convention : Reuss Voigt Hill
#
# Bulk Modulus (GPa) = 59.65696 75.04034 67.34865
# Shear Modulus (GPa) = 37.69212 24.85683 31.27447
#
# Velocity S-wave (km/s) = 4.10026 3.32973 3.73492
# Velocity P-wave (km/s) = 7.00182 6.94648 6.97420
#
# Compressibility (1/GPa) = 0.01676250
#
# Stress axis : x y z
#
# Youngs Moduli (GPa) = 159.73922 105.57616 96.03885
#
# Poissons Ratio (x) = 0.40943 0.04686
# Poissons Ratio (y) = 0.61948 0.03121
# Poissons Ratio (z) = 0.07794 0.03431
#
# Static dielectric constant tensor:
#      x y z
#    x 1.830800 0.000000 0.000000 
#    y 0.000000 1.777190 0.000000 
#    z 0.000000 0.000000 1.874000 
# 
# From -- ./inp_files/14099.got.cif
#   From: 2010.05.17/outbox.cif.g08.bks.cpg/sg65_8_cif.got.tgz:14099.got - 2010.06.03 17:01:31.
