data_PCOD9489114
_publ_section_title
;
Structure prediction by ZEFSAII (Michael W. Deem and Ramdas Pophale) SiO2 
 PCOD9489114
Probable space group: C M M M
;
_chemical_formula_sum "Si O2"
_cell_formula_units_Z 104
_cell_length_a 20.359926
_cell_length_b 8.674324
_cell_length_c 33.949065
_cell_angle_alpha 90.000000
_cell_angle_beta 90.000000
_cell_angle_gamma 90.000000
_cell_volume 5995.696662
_symmetry_space_group_name_H-M "C M M M"
_symmetry_group_IT_number 65
_symmetry_cell_setting 'orthorhombic'
loop_
_space_group_symop_operation_xyz
x,y,z
-x,-y,z
x,-y,-z
-x,y,-z
-x,-y,-z
x,y,-z
-x,y,z
x,-y,z
1/2+x,1/2+y,z
1/2-x,1/2-y,z
1/2+x,1/2-y,-z
1/2-x,1/2+y,-z
1/2-x,1/2-y,-z
1/2+x,1/2+y,-z
1/2-x,1/2+y,z
1/2+x,1/2-y,z
loop_
_atom_site_type_symbol
_atom_site_label
_atom_site_fract_x
_atom_site_fract_y
_atom_site_fract_z
Si Si1 0.322302 0.685041 0.350423
Si Si2 0.321878 0.684600 0.954474
Si Si3 0.321820 0.685915 0.740098
Si Si4 0.923444 0.687149 0.586356
Si Si5 0.420253 0.822082 0.500000
Si Si6 0.075828 0.813781 0.806378
Si Si7 0.923824 0.315445 0.107984
O O1 0.320875 0.500000 0.352399
O O2 0.250000 0.750000 0.359943
O O3 0.337080 0.731211 0.305047
O O4 0.376324 0.749301 0.380157
O O5 0.320117 0.500000 0.952261
O O6 0.250000 0.750000 0.944306
O O7 0.376402 0.748370 0.925100
O O8 0.335621 0.729089 0.000000
O O9 0.319326 0.500000 0.741058
O O10 0.250000 0.750000 0.750046
O O11 0.376086 0.737187 0.771496
O O12 0.920943 0.500000 0.585877
O O13 0.902005 0.744407 0.542599
O O14 0.000000 0.729970 0.592560
O O15 0.500000 0.825366 0.500000
O O16 0.397671 0.000000 0.500000
O O17 0.094870 0.745709 0.848710
O O18 0.000000 0.769967 0.798552
O O19 0.078487 0.000000 0.808787
O O20 0.920330 0.500000 0.107672
O O21 0.000000 0.269434 0.101210
#
# Coordination Sequence:
#
# PCOD9489114 Si02
#       7
#    16  16  16  16   8  16  16
#     4  10  20  34  51  72 101 134 168 207 251 299
#     4  10  21  37  57  80 106 137 174 215 257 302
#     4   9  19  34  52  73  97 129 166 205 250 299
#     4   9  17  31  52  76 100 128 164 204 248 299
#     4   7  12  26  48  71  96 127 161 199 244 295
#     4   9  18  34  54  74  99 132 169 208 250 297
#     4  10  21  36  54  78 108 140 173 210 253 300
#
# _framework density 17.345775
#
# number of rings (size 3 to 8) (size 9 to 14) (size 15 to 20)
#    0.000    2.692    0.000    2.308    0.000    4.923 
#    0.000    5.385    0.000    3.231    0.000    0.000 
#    0.000    0.000    0.000    0.000    0.000    0.000 
#
# Total GULP energy -289927.480559 kJ/mol
# GULP energy per Si atom -5575.528472 kJ/mol
# Density = 1.730630 g / cm^3
# Si number density = 17.345775 Si / 1000 Ang^3
#
#
#
# Elastic Constant Matrix: (Units=GPa)
#
#
# Indices 1 2 3 4 5 6 
#
# 1 115.3048 33.9461 118.1438 0.0000 0.0000 0.0000
# 2 33.9461 24.1672 37.9235 0.0000 0.0000 0.0000
# 3 118.1438 37.9235 154.6537 0.0000 0.0000 0.0000
# 4 0.0000 0.0000 0.0000 18.9053 0.0000 0.0000
# 5 0.0000 0.0000 0.0000 0.0000 103.0725 0.0000
# 6 0.0000 0.0000 0.0000 0.0000 0.0000 28.6153
#
#
#
# Elastic Compliance Matrix: (Units=1/GPa)
#
#
# Indices 1 2 3 4 5 6 
#
# 1 0.042759 -0.014309 -0.029156 0.000000 0.000000 0.000000
# 2 -0.014309 0.072048 -0.006736 0.000000 0.000000 0.000000
# 3 -0.029156 -0.006736 0.030391 0.000000 0.000000 0.000000
# 4 0.000000 0.000000 0.000000 0.052895 0.000000 0.000000
# 5 0.000000 0.000000 0.000000 0.000000 0.009702 0.000000
# 6 0.000000 0.000000 0.000000 0.000000 0.000000 0.034946
#
#
# Mechanical properties :
#
#
# Convention : Reuss Voigt Hill
#
# Bulk Modulus (GPa) = 22.32373 74.90583 48.61478
# Shear Modulus (GPa) = 13.96356 37.05944 25.51150
#
# Velocity S-wave (km/s) = 2.84035 4.62726 3.83921
# Velocity P-wave (km/s) = 4.86360 8.47504 6.90945
#
# Compressibility (1/GPa) = 0.04479538
#
# Stress axis : x y z
#
# Youngs Moduli (GPa) = 23.38692 13.87968 32.90467
#
# Poissons Ratio (x) = 0.19860 0.95936
# Poissons Ratio (y) = 0.33464 0.22166
# Poissons Ratio (z) = 0.68187 0.09350
#
# Static dielectric constant tensor:
#      x y z
#    x 1.559160 0.000000 0.000000 
#    y 0.000000 1.584960 0.000000 
#    z 0.000000 0.000000 1.590570 
# 
# From -- ./inp_files/75533.got.cif
#   From: 2010.05.17/outbox.cif.g08.bks.cpg/sg65_38_cif.got.tgz:75533.got - 2010.06.03 17:01:31.
