data_PCOD9489044
_publ_section_title
;
Structure prediction by ZEFSAII (Michael W. Deem and Ramdas Pophale) SiO2 
 PCOD9489044
Probable space group: C M M M
;
_chemical_formula_sum "Si O2"
_cell_formula_units_Z 104
_cell_length_a 27.751168
_cell_length_b 7.672533
_cell_length_c 29.683282
_cell_angle_alpha 90.000000
_cell_angle_beta 90.000000
_cell_angle_gamma 90.000000
_cell_volume 6320.216417
_symmetry_space_group_name_H-M "C M M M"
_symmetry_group_IT_number 65
_symmetry_cell_setting 'orthorhombic'
loop_
_space_group_symop_operation_xyz
x,y,z
-x,-y,z
x,-y,-z
-x,y,-z
-x,-y,-z
x,y,-z
-x,y,z
x,-y,z
1/2+x,1/2+y,z
1/2-x,1/2-y,z
1/2+x,1/2-y,-z
1/2-x,1/2+y,-z
1/2-x,1/2-y,-z
1/2+x,1/2+y,-z
1/2-x,1/2+y,z
1/2+x,1/2-y,z
loop_
_atom_site_type_symbol
_atom_site_label
_atom_site_fract_x
_atom_site_fract_y
_atom_site_fract_z
Si Si1 0.441290 0.200558 0.880484
Si Si2 0.558746 0.500000 0.051672
Si Si3 0.304629 0.292432 0.642294
Si Si4 0.445711 0.211519 0.594986
Si Si5 0.400883 0.204701 0.688497
Si Si6 0.444166 0.787180 0.780875
Si Si7 0.847356 0.206609 0.549322
O O1 0.500000 0.199622 0.879369
O O2 0.426248 0.330140 0.919970
O O3 0.426581 0.265197 0.830582
O O4 0.426057 0.000000 0.887306
O O5 0.500000 0.500000 0.051048
O O6 0.574996 0.500000 0.000000
O O7 0.310515 0.500000 0.641285
O O8 0.250000 0.250000 0.653795
O O9 0.344905 0.223396 0.676333
O O10 0.318111 0.222146 0.592271
O O11 0.500000 0.267622 0.584191
O O12 0.429975 0.274465 0.645025
O O13 0.403687 0.269266 0.561326
O O14 0.445025 0.000000 0.595264
O O15 0.415412 0.275890 0.737170
O O16 0.413000 0.000000 0.690102
O O17 0.500000 0.735818 0.775515
O O18 0.443182 0.000000 0.782165
O O19 0.836241 0.280668 0.500000
O O20 0.837778 0.000000 0.547613
#
# Coordination Sequence:
#
# PCOD9489044 Si02
#       7
#    16   8  16  16  16  16  16
#     4   8  14  24  36  52  76 107 145 188 227 260
#     4   9  16  24  34  50  74 108 152 196 231 261
#     4  10  20  34  49  64  82 102 129 167 206 250
#     4   9  17  28  43  64  88 111 135 165 199 238
#     4   9  16  28  46  65  84 108 137 167 203 250
#     4   8  13  23  41  62  84 111 141 174 210 250
#     4   9  19  34  48  62  81 105 133 165 203 247
#
# _framework density 16.455133
#
# number of rings (size 3 to 8) (size 9 to 14) (size 15 to 20)
#    0.000    3.154    0.000    1.846    0.000    4.000 
#    1.385    3.077    0.000    0.923    0.000    0.000 
#    0.000    0.000    0.000    0.000    0.000    0.769 
#
# Total GULP energy -289679.478408 kJ/mol
# GULP energy per Si atom -5570.759200 kJ/mol
# Density = 1.641768 g / cm^3
# Si number density = 16.455133 Si / 1000 Ang^3
#
#
#
# Elastic Constant Matrix: (Units=GPa)
#
#
# Indices 1 2 3 4 5 6 
#
# 1 29.7829 -11.8079 10.8856 0.0000 0.0000 0.0000
# 2 -11.8079 40.1444 24.7670 0.0000 0.0000 0.0000
# 3 10.8856 24.7670 129.8137 0.0000 0.0000 0.0000
# 4 0.0000 0.0000 0.0000 7.7451 0.0000 0.0000
# 5 0.0000 0.0000 0.0000 0.0000 8.7923 0.0000
# 6 0.0000 0.0000 0.0000 0.0000 0.0000 12.3141
#
#
#
# Elastic Compliance Matrix: (Units=1/GPa)
#
#
# Indices 1 2 3 4 5 6 
#
# 1 0.042686 0.016733 -0.006772 0.000000 0.000000 0.000000
# 2 0.016733 0.034793 -0.008041 0.000000 0.000000 0.000000
# 3 -0.006772 -0.008041 0.009805 0.000000 0.000000 0.000000
# 4 0.000000 0.000000 0.000000 0.129113 0.000000 0.000000
# 5 0.000000 0.000000 0.000000 0.000000 0.113736 0.000000
# 6 0.000000 0.000000 0.000000 0.000000 0.000000 0.081208
#
#
# Mechanical properties :
#
#
# Convention : Reuss Voigt Hill
#
# Bulk Modulus (GPa) = 10.97405 27.49228 19.23317
# Shear Modulus (GPa) = 11.41876 17.49673 14.45774
#
# Velocity S-wave (km/s) = 2.63712 3.26436 2.96736
# Velocity P-wave (km/s) = 3.99451 5.56343 4.84293
#
# Compressibility (1/GPa) = 0.09112403
#
# Stress axis : x y z
#
# Youngs Moduli (GPa) = 23.42711 28.74145 101.98465
#
# Poissons Ratio (x) = -0.48094 0.69063
# Poissons Ratio (y) = -0.39201 0.82009
# Poissons Ratio (z) = 0.15865 0.23112
#
# Static dielectric constant tensor:
#      x y z
#    x 1.528630 0.000000 0.000000 
#    y 0.000000 1.625440 0.000000 
#    z 0.000000 0.000000 1.577930 
# 
# From -- ./inp_files/76007.got.cif
#   From: 2010.05.17/outbox.cif.g08.bks.cpg/sg65_39_cif.got.tgz:76007.got - 2010.06.03 17:01:31.
