data_PCOD9489232
_publ_section_title
;
Structure prediction by ZEFSAII (Michael W. Deem and Ramdas Pophale) SiO2 
 PCOD9489232
Probable space group: C M M M
;
_chemical_formula_sum "Si O2"
_cell_formula_units_Z 80
_cell_length_a 11.599505
_cell_length_b 28.113468
_cell_length_c 15.743397
_cell_angle_alpha 90.000000
_cell_angle_beta 90.000000
_cell_angle_gamma 90.000000
_cell_volume 5133.958170
_symmetry_space_group_name_H-M "C M M M"
_symmetry_group_IT_number 65
_symmetry_cell_setting 'orthorhombic'
loop_
_space_group_symop_operation_xyz
x,y,z
-x,-y,z
x,-y,-z
-x,y,-z
-x,-y,-z
x,y,-z
-x,y,z
x,-y,z
1/2+x,1/2+y,z
1/2-x,1/2-y,z
1/2+x,1/2-y,-z
1/2-x,1/2+y,-z
1/2-x,1/2-y,-z
1/2+x,1/2+y,-z
1/2-x,1/2+y,z
1/2+x,1/2-y,z
loop_
_atom_site_type_symbol
_atom_site_label
_atom_site_fract_x
_atom_site_fract_y
_atom_site_fract_z
Si Si1 0.500000 0.637334 0.900601
Si Si2 0.863499 0.390810 0.168064
Si Si3 0.248139 0.056446 0.676519
Si Si4 0.134369 0.557683 0.500000
Si Si5 0.500000 0.555899 0.755429
Si Si6 0.261781 0.694561 0.899718
Si Si7 0.359218 0.054666 0.000000
O O1 0.500000 0.593333 0.834007
O O2 0.387537 0.670726 0.888255
O O3 0.500000 0.621415 0.000000
O O4 0.814141 0.414951 0.251160
O O5 0.824138 0.337040 0.155391
O O6 0.818681 0.418953 0.084658
O O7 0.000000 0.394548 0.168585
O O8 0.295600 0.071562 0.584572
O O9 0.113292 0.063030 0.697435
O O10 0.272565 0.000000 0.685465
O O11 0.131050 0.500000 0.500000
O O12 0.000000 0.573656 0.500000
O O13 0.500000 0.500000 0.783868
O O14 0.250000 0.750000 0.878697
O O15 0.232049 0.689927 0.000000
O O16 0.500000 0.055792 0.000000
O O17 0.323358 0.000000 0.000000
#
# Coordination Sequence:
#
# PCOD9489232 Si02
#       7
#     8  16  16   8   8  16   8
#     4  10  20  37  53  73 106 146 187 223 260 310
#     4  11  20  31  49  73 101 133 172 213 258 313
#     4  10  20  34  52  75 106 140 175 217 259 311
#     4   9  18  33  53  77 104 136 174 215 268 321
#     4  10  20  34  52  76 109 147 184 217 255 311
#     4  10  21  35  52  72  99 136 178 225 269 308
#     4   9  18  30  43  65  99 137 167 200 247 304
#
# _framework density 15.582519
#
# number of rings (size 3 to 8) (size 9 to 14) (size 15 to 20)
#    0.000    2.000    3.000    1.200    1.400    2.600 
#    0.000    2.000    0.000    0.000    0.000    0.700 
#    0.000    0.000    0.000    0.000    0.000    0.000 
#
# Total GULP energy -223049.797555 kJ/mol
# GULP energy per Si atom -5576.244939 kJ/mol
# Density = 1.554705 g / cm^3
# Si number density = 15.582519 Si / 1000 Ang^3
#
#
#
# Elastic Constant Matrix: (Units=GPa)
#
#
# Indices 1 2 3 4 5 6 
#
# 1 91.0902 44.4999 61.0534 0.0000 0.0000 0.0000
# 2 44.4999 96.6439 70.1742 0.0000 0.0000 0.0000
# 3 61.0534 70.1742 141.1824 0.0000 0.0000 0.0000
# 4 0.0000 0.0000 0.0000 2.7192 0.0000 0.0000
# 5 0.0000 0.0000 0.0000 0.0000 20.2778 0.0000
# 6 0.0000 0.0000 0.0000 0.0000 0.0000 16.5092
#
#
#
# Elastic Compliance Matrix: (Units=1/GPa)
#
#
# Indices 1 2 3 4 5 6 
#
# 1 0.016275 -0.003729 -0.005184 0.000000 0.000000 0.000000
# 2 -0.003729 0.017045 -0.006860 0.000000 0.000000 0.000000
# 3 -0.005184 -0.006860 0.012734 0.000000 0.000000 0.000000
# 4 0.000000 0.000000 0.000000 0.367754 0.000000 0.000000
# 5 0.000000 0.000000 0.000000 0.000000 0.049315 0.000000
# 6 0.000000 0.000000 0.000000 0.000000 0.000000 0.060572
#
#
# Mechanical properties :
#
#
# Convention : Reuss Voigt Hill
#
# Bulk Modulus (GPa) = 68.92693 75.59683 72.26188
# Shear Modulus (GPa) = 8.92732 18.11384 13.52058
#
# Velocity S-wave (km/s) = 2.39614 3.41317 2.94883
# Velocity P-wave (km/s) = 7.21005 8.00950 7.62027
#
# Compressibility (1/GPa) = 0.01450812
#
# Stress axis : x y z
#
# Youngs Moduli (GPa) = 61.44467 58.66731 78.52737
#
# Poissons Ratio (x) = 0.21880 0.40710
# Poissons Ratio (y) = 0.22915 0.53866
# Poissons Ratio (z) = 0.31854 0.40243
#
# Static dielectric constant tensor:
#      x y z
#    x 1.543410 0.000000 0.000000 
#    y 0.000000 1.505920 0.000000 
#    z 0.000000 0.000000 1.498720 
# 
# From -- ./inp_files/38600.got.cif
#   From: 2010.05.17/outbox.cif.g08.bks.cpg/sg65_20_cif.got.tgz:38600.got - 2010.06.03 17:01:31.
