data_PCOD9489589
_publ_section_title
;
Structure prediction by ZEFSAII (Michael W. Deem and Ramdas Pophale) SiO2 
 PCOD9489589
Probable space group: C M M M
;
_chemical_formula_sum "Si O2"
_cell_formula_units_Z 72
_cell_length_a 9.093882
_cell_length_b 16.509529
_cell_length_c 24.037689
_cell_angle_alpha 90.000000
_cell_angle_beta 90.000000
_cell_angle_gamma 90.000000
_cell_volume 3608.915471
_symmetry_space_group_name_H-M "C M M M"
_symmetry_group_IT_number 65
_symmetry_cell_setting 'orthorhombic'
loop_
_space_group_symop_operation_xyz
x,y,z
-x,-y,z
x,-y,-z
-x,y,-z
-x,-y,-z
x,y,-z
-x,y,z
x,-y,z
1/2+x,1/2+y,z
1/2-x,1/2-y,z
1/2+x,1/2-y,-z
1/2-x,1/2+y,-z
1/2-x,1/2-y,-z
1/2+x,1/2+y,-z
1/2-x,1/2+y,z
1/2+x,1/2-y,z
loop_
_atom_site_type_symbol
_atom_site_label
_atom_site_fract_x
_atom_site_fract_y
_atom_site_fract_z
Si Si1 0.332417 0.597302 0.388036
Si Si2 0.328738 0.098775 0.061936
Si Si3 0.166429 0.097520 0.827937
Si Si4 0.829910 0.599206 0.500000
Si Si5 0.175285 0.662619 0.720463
O O1 0.500000 0.628223 0.383228
O O2 0.340086 0.500000 0.391773
O O3 0.253993 0.626425 0.444401
O O4 0.238668 0.618548 0.333939
O O5 0.500000 0.120901 0.069658
O O6 0.231327 0.127589 0.113386
O O7 0.323752 0.000000 0.062162
O O8 0.281077 0.124828 0.000000
O O9 0.269919 0.120187 0.776795
O O10 0.000000 0.127481 0.818543
O O11 0.160814 0.000000 0.830857
O O12 0.828677 0.500000 0.500000
O O13 0.000000 0.624387 0.500000
O O14 0.250000 0.750000 0.720535
O O15 0.000000 0.666752 0.718559
#
# Coordination Sequence:
#
# PCOD9489589 Si02
#       5
#    16  16  16   8  16
#     4  10  20  36  59  86 115 145 179 220 266 316
#     4   8  14  26  46  74 107 140 175 217 264 313
#     4  10  20  34  54  81 111 142 179 222 267 318
#     4   9  17  31  54  85 116 145 180 219 261 311
#     4  12  25  40  57  77 106 143 183 226 273 323
#
# _framework density 19.950593000000001
#
# number of rings (size 3 to 8) (size 9 to 14) (size 15 to 20)
#    0.000    2.111    0.000    5.000    0.000    7.111 
#    0.000    2.778    0.000    0.667    0.000    0.000 
#    0.000    0.000    0.000    0.000    0.000    0.000 
#
# Total GULP energy -201033.408480 kJ/mol
# GULP energy per Si atom -5584.261347 kJ/mol
# Density = 1.990518 g / cm^3
# Si number density = 19.950593 Si / 1000 Ang^3
#
#
#
# Elastic Constant Matrix: (Units=GPa)
#
#
# Indices 1 2 3 4 5 6 
#
# 1 202.6642 16.2234 109.9482 0.0000 0.0000 0.0000
# 2 16.2234 7.5645 11.7666 0.0000 0.0000 0.0000
# 3 109.9482 11.7666 187.3528 0.0000 0.0000 0.0000
# 4 0.0000 0.0000 0.0000 -32.1578 0.0000 0.0000
# 5 0.0000 0.0000 0.0000 0.0000 40.1955 0.0000
# 6 0.0000 0.0000 0.0000 0.0000 0.0000 20.1507
#
#
#
# Elastic Compliance Matrix: (Units=1/GPa)
#
#
# Indices 1 2 3 4 5 6 
#
# 1 0.007973 -0.010885 -0.003995 0.000000 0.000000 0.000000
# 2 -0.010885 0.161369 -0.003747 0.000000 0.000000 0.000000
# 3 -0.003995 -0.003747 0.007918 0.000000 0.000000 0.000000
# 4 0.000000 0.000000 0.000000 -0.031097 0.000000 0.000000
# 5 0.000000 0.000000 0.000000 0.000000 0.024878 0.000000
# 6 0.000000 0.000000 0.000000 0.000000 0.000000 0.049626
#
#
# Mechanical properties :
#
#
# Convention : Reuss Voigt Hill
#
# Bulk Modulus (GPa) = 7.14258 74.82867 40.98563
# Shear Modulus (GPa) = 16.41546 22.94724 19.68135
#
# Velocity S-wave (km/s) = 2.87157 3.39514 3.14427
# Velocity P-wave (km/s) = 3.81870 7.27721 5.81121
#
# Compressibility (1/GPa) = 0.14000541
#
# Stress axis : x y z
#
# Youngs Moduli (GPa) = 125.41991 6.19697 126.30103
#
# Poissons Ratio (x) = 0.06745 0.50463
# Poissons Ratio (y) = 1.36519 0.47324
# Poissons Ratio (z) = 0.50111 0.02322
#
# Static dielectric constant tensor:
#      x y z
#    x 1.687040 0.000000 0.000000 
#    y 0.000000 1.736710 0.000000 
#    z 0.000000 0.000000 1.704190 
# 
# From -- ./inp_files/72466.got.cif
#   From: 2010.05.17/outbox.cif.g08.bks.cpg/sg65_37_cif.got.tgz:72466.got - 2010.06.03 17:01:31.
