data_PCOD9489942
_publ_section_title
;
Structure prediction by ZEFSAII (Michael W. Deem and Ramdas Pophale) SiO2 
 PCOD9489942
Probable space group: C M M M
;
_chemical_formula_sum "Si O2"
_cell_formula_units_Z 80
_cell_length_a 19.841142
_cell_length_b 8.544936
_cell_length_c 25.938493
_cell_angle_alpha 90.000000
_cell_angle_beta 90.000000
_cell_angle_gamma 90.000000
_cell_volume 4397.645526
_symmetry_space_group_name_H-M "C M M M"
_symmetry_group_IT_number 65
_symmetry_cell_setting 'orthorhombic'
loop_
_space_group_symop_operation_xyz
x,y,z
-x,-y,z
x,-y,-z
-x,y,-z
-x,-y,-z
x,y,-z
-x,y,z
x,-y,z
1/2+x,1/2+y,z
1/2-x,1/2-y,z
1/2+x,1/2-y,-z
1/2-x,1/2+y,-z
1/2-x,1/2-y,-z
1/2+x,1/2+y,-z
1/2-x,1/2+y,z
1/2+x,1/2-y,z
loop_
_atom_site_type_symbol
_atom_site_label
_atom_site_fract_x
_atom_site_fract_y
_atom_site_fract_z
Si Si1 0.676550 0.812601 0.939977
Si Si2 0.674892 0.187842 0.765803
Si Si3 0.824486 0.311009 0.647835
Si Si4 0.922167 0.187571 0.145903
Si Si5 0.422176 0.190799 0.442495
O O1 0.750000 0.750000 0.923249
O O2 0.617950 0.746505 0.904213
O O3 0.677180 0.000000 0.936539
O O4 0.667405 0.767428 0.000000
O O5 0.750000 0.250000 0.778064
O O6 0.659019 0.235649 0.706691
O O7 0.619898 0.251610 0.805207
O O8 0.676202 0.000000 0.768692
O O9 0.823932 0.500000 0.646889
O O10 0.750000 0.250000 0.636283
O O11 0.876147 0.254411 0.604412
O O12 0.000000 0.240936 0.146567
O O13 0.921554 0.000000 0.146241
O O14 0.399608 0.239311 0.500000
O O15 0.500000 0.237725 0.435944
O O16 0.421098 0.000000 0.441935
#
# Coordination Sequence:
#
# PCOD9489942 Si02
#       5
#    16  16  16  16  16
#     4  10  21  38  61  86 111 141 177 215 255 303
#     4  10  20  35  55  76 102 136 174 217 261 310
#     4   9  18  31  49  74 100 128 164 207 255 303
#     4  11  24  39  55  78 109 142 175 214 261 310
#     4   8  14  26  45  69  97 129 166 207 249 296
#
# _framework density 18.191552999999999
#
# number of rings (size 3 to 8) (size 9 to 14) (size 15 to 20)
#    0.000    2.400    0.000    3.000    0.000    5.200 
#    0.000    4.000    0.000    0.600    0.000    1.400 
#    0.000    0.000    0.000    0.000    0.000    0.000 
#
# Total GULP energy -223227.513585 kJ/mol
# GULP energy per Si atom -5580.687840 kJ/mol
# Density = 1.815015 g / cm^3
# Si number density = 18.191553 Si / 1000 Ang^3
#
#
#
# Elastic Constant Matrix: (Units=GPa)
#
#
# Indices 1 2 3 4 5 6 
#
# 1 160.6338 34.0581 121.0903 0.0000 0.0000 0.0000
# 2 34.0581 27.3688 31.5818 0.0000 0.0000 0.0000
# 3 121.0903 31.5818 142.0676 0.0000 0.0000 0.0000
# 4 0.0000 0.0000 0.0000 6.3267 0.0000 0.0000
# 5 0.0000 0.0000 0.0000 0.0000 36.0851 0.0000
# 6 0.0000 0.0000 0.0000 0.0000 0.0000 26.4406
#
#
#
# Elastic Compliance Matrix: (Units=1/GPa)
#
#
# Indices 1 2 3 4 5 6 
#
# 1 0.018209 -0.006389 -0.014100 0.000000 0.000000 0.000000
# 2 -0.006389 0.051386 -0.005978 0.000000 0.000000 0.000000
# 3 -0.014100 -0.005978 0.020386 0.000000 0.000000 0.000000
# 4 0.000000 0.000000 0.000000 0.158059 0.000000 0.000000
# 5 0.000000 0.000000 0.000000 0.000000 0.027712 0.000000
# 6 0.000000 0.000000 0.000000 0.000000 0.000000 0.037821
#
#
# Mechanical properties :
#
#
# Convention : Reuss Voigt Hill
#
# Bulk Modulus (GPa) = 26.99215 78.17006 52.58111
# Shear Modulus (GPa) = 13.19765 23.32648 18.26206
#
# Velocity S-wave (km/s) = 2.69640 3.58476 3.17184
# Velocity P-wave (km/s) = 4.95621 7.75873 6.51007
#
# Compressibility (1/GPa) = 0.03704781
#
# Stress axis : x y z
#
# Youngs Moduli (GPa) = 54.91833 19.46044 49.05407
#
# Poissons Ratio (x) = 0.12433 0.69166
# Poissons Ratio (y) = 0.35087 0.29323
# Poissons Ratio (z) = 0.77434 0.11633
#
# Static dielectric constant tensor:
#      x y z
#    x 1.589630 0.000000 0.000000 
#    y 0.000000 1.617630 0.000000 
#    z 0.000000 0.000000 1.636320 
# 
# From -- ./inp_files/72728.got.cif
#   From: 2010.05.17/outbox.cif.g08.bks.cpg/sg65_37_cif.got.tgz:72728.got - 2010.06.03 17:01:31.
