data_PCOD9489150
_publ_section_title
;
Structure prediction by ZEFSAII (Michael W. Deem and Ramdas Pophale) SiO2 
 PCOD9489150
Probable space group: C M M M
;
_chemical_formula_sum "Si O2"
_cell_formula_units_Z 112
_cell_length_a 13.029158
_cell_length_b 34.632642
_cell_length_c 11.817391
_cell_angle_alpha 90.000000
_cell_angle_beta 90.000000
_cell_angle_gamma 90.000000
_cell_volume 5332.410555
_symmetry_space_group_name_H-M "C M M M"
_symmetry_group_IT_number 65
_symmetry_cell_setting 'orthorhombic'
loop_
_space_group_symop_operation_xyz
x,y,z
-x,-y,z
x,-y,-z
-x,y,-z
-x,-y,-z
x,y,-z
-x,y,z
x,-y,z
1/2+x,1/2+y,z
1/2-x,1/2-y,z
1/2+x,1/2-y,-z
1/2-x,1/2+y,-z
1/2-x,1/2-y,-z
1/2+x,1/2+y,-z
1/2-x,1/2+y,z
1/2+x,1/2-y,z
loop_
_atom_site_type_symbol
_atom_site_label
_atom_site_fract_x
_atom_site_fract_y
_atom_site_fract_z
Si Si1 0.879935 0.195421 0.127698
Si Si2 0.124535 0.769134 0.629707
Si Si3 0.842804 0.544010 0.626378
Si Si4 0.388065 0.543759 0.309480
Si Si5 0.163206 0.105041 0.878211
Si Si6 0.123649 0.321139 0.622981
Si Si7 0.883680 0.612286 0.204419
O O1 0.842659 0.212137 0.249367
O O2 0.870514 0.149227 0.136953
O O3 0.000000 0.206207 0.122204
O O4 0.836327 0.205704 0.000000
O O5 0.151841 0.782953 0.500000
O O6 0.152747 0.723675 0.634035
O O7 0.000000 0.771712 0.630753
O O8 0.881326 0.550264 0.500000
O O9 0.867200 0.500000 0.661281
O O10 0.718449 0.547114 0.623600
O O11 0.884233 0.576070 0.710359
O O12 0.500000 0.547566 0.366582
O O13 0.385455 0.500000 0.261469
O O14 0.378744 0.576923 0.216687
O O15 0.287462 0.104637 0.875495
O O16 0.126783 0.091610 0.000000
O O17 0.159097 0.336002 0.500000
O O18 0.149451 0.349952 0.723454
O O19 0.000000 0.321240 0.620888
O O20 0.000000 0.617674 0.159583
#
# Coordination Sequence:
#
# PCOD9489150 Si02
#       7
#    16  16  16  16  16  16  16
#     4   9  17  31  52  76 104 139 173 206 256 325
#     4   8  14  27  49  76 104 133 168 213 263 314
#     4   9  18  32  51  78 110 140 169 202 245 303
#     4   9  18  33  54  80 107 134 166 204 247 299
#     4  10  21  36  52  72 100 132 170 217 265 315
#     4   8  14  27  49  74  98 128 168 212 257 304
#     4  10  20  34  52  72  97 132 175 221 265 307
#
# _framework density 21.003634000000002
#
# number of rings (size 3 to 8) (size 9 to 14) (size 15 to 20)
#    0.000    3.000    0.000    1.714    0.000    2.857 
#    0.000    7.857    0.000    9.429    0.000    4.000 
#    0.000    0.000    0.000    0.000    0.000    1.143 
#
# Total GULP energy -311880.478754 kJ/mol
# GULP energy per Si atom -5569.294263 kJ/mol
# Density = 2.095583 g / cm^3
# Si number density = 21.003634 Si / 1000 Ang^3
#
#
#
# Elastic Constant Matrix: (Units=GPa)
#
#
# Indices 1 2 3 4 5 6 
#
# 1 104.0454 -2.3572 16.5881 0.0000 0.0000 0.0000
# 2 -2.3572 64.8782 53.7490 0.0000 0.0000 0.0000
# 3 16.5881 53.7490 136.7948 0.0000 0.0000 0.0000
# 4 0.0000 0.0000 0.0000 -43.8582 0.0000 0.0000
# 5 0.0000 0.0000 0.0000 0.0000 -5.6798 0.0000
# 6 0.0000 0.0000 0.0000 0.0000 0.0000 25.7648
#
#
#
# Elastic Compliance Matrix: (Units=1/GPa)
#
#
# Indices 1 2 3 4 5 6 
#
# 1 0.009977 0.002023 -0.002005 0.000000 0.000000 0.000000
# 2 0.002023 0.023263 -0.009386 0.000000 0.000000 0.000000
# 3 -0.002005 -0.009386 0.011241 0.000000 0.000000 0.000000
# 4 0.000000 0.000000 0.000000 -0.022801 0.000000 0.000000
# 5 0.000000 0.000000 0.000000 0.000000 -0.176062 0.000000
# 6 0.000000 0.000000 0.000000 0.000000 0.000000 0.038813
#
#
# Mechanical properties :
#
#
# Convention : Reuss Voigt Hill
#
# Bulk Modulus (GPa) = 38.84058 49.07536 43.95797
# Shear Modulus (GPa) = -56.65497 11.09459 -22.78019
#
# Velocity S-wave (km/s) = -5.19927 2.30080 -3.29687
# Velocity P-wave (km/s) = 4.18459 5.52034 2.54591
#
# Compressibility (1/GPa) = 0.02574627
#
# Stress axis : x y z
#
# Youngs Moduli (GPa) = 100.23396 42.98734 88.95918
#
# Poissons Ratio (x) = -0.08698 0.17835
# Poissons Ratio (y) = -0.20281 0.83494
# Poissons Ratio (z) = 0.20095 0.40346
#
# Static dielectric constant tensor:
#      x y z
#    x 1.824720 0.000000 0.000000 
#    y 0.000000 1.709480 0.000000 
#    z 0.000000 0.000000 1.770640 
# 
# From -- ./inp_files/25535.got.cif
#   From: 2010.05.17/outbox.cif.g08.bks.cpg/sg65_13_cif.got.tgz:25535.got - 2010.06.03 17:01:31.
