data_PCOD9489113
_publ_section_title
;
Structure prediction by ZEFSAII (Michael W. Deem and Ramdas Pophale) SiO2 
 PCOD9489113
Probable space group: C M M M
;
_chemical_formula_sum "Si O2"
_cell_formula_units_Z 112
_cell_length_a 14.445855
_cell_length_b 17.675539
_cell_length_c 25.817633
_cell_angle_alpha 90.000000
_cell_angle_beta 90.000000
_cell_angle_gamma 90.000000
_cell_volume 6592.229835
_symmetry_space_group_name_H-M "C M M M"
_symmetry_group_IT_number 65
_symmetry_cell_setting 'orthorhombic'
loop_
_space_group_symop_operation_xyz
x,y,z
-x,-y,z
x,-y,-z
-x,y,-z
-x,-y,-z
x,y,-z
-x,y,z
x,-y,z
1/2+x,1/2+y,z
1/2-x,1/2-y,z
1/2+x,1/2-y,-z
1/2-x,1/2+y,-z
1/2-x,1/2-y,-z
1/2+x,1/2+y,-z
1/2-x,1/2+y,z
1/2+x,1/2-y,z
loop_
_atom_site_type_symbol
_atom_site_label
_atom_site_fract_x
_atom_site_fract_y
_atom_site_fract_z
Si Si1 0.219058 0.662996 0.348182
Si Si2 0.396711 0.411214 0.308632
Si Si3 0.604964 0.908080 0.941064
Si Si4 0.390000 0.148105 0.240659
Si Si5 0.105497 0.818937 0.798568
Si Si6 0.265525 0.912105 0.847102
Si Si7 0.610638 0.088976 0.440210
O O1 0.250000 0.750000 0.347681
O O2 0.312691 0.614267 0.344190
O O3 0.156743 0.647265 0.297159
O O4 0.162913 0.639934 0.398920
O O5 0.500000 0.395792 0.329943
O O6 0.390133 0.500000 0.297255
O O7 0.388204 0.364848 0.255398
O O8 0.500000 0.883188 0.928331
O O9 0.677741 0.885917 0.897567
O O10 0.603662 0.000000 0.940755
O O11 0.626490 0.884528 0.000000
O O12 0.500000 0.133020 0.243517
O O13 0.376517 0.231935 0.216216
O O14 0.335284 0.093670 0.201763
O O15 0.179864 0.857304 0.835646
O O16 0.000000 0.825216 0.817838
O O17 0.236923 0.000000 0.853109
O O18 0.635267 0.105425 0.500000
O O19 0.500000 0.098488 0.435091
O O20 0.630667 0.000000 0.430455
#
# Coordination Sequence:
#
# PCOD9489113 Si02
#       7
#    16  16  16  16  16  16  16
#     4  12  21  33  55  80 107 135 169 213 259 307
#     4  10  20  34  51  72 100 136 177 211 242 293
#     4   8  15  29  48  71 101 135 168 206 258 314
#     4  11  22  35  50  73 108 142 167 203 258 313
#     4  10  20  35  50  67  99 145 179 201 243 305
#     4  11  20  31  51  79 105 129 168 219 261 301
#     4   9  20  39  59  78 103 137 174 211 255 308
#
# _framework density 16.989699000000002
#
# number of rings (size 3 to 8) (size 9 to 14) (size 15 to 20)
#    0.000    1.857    2.857    3.000    0.000    3.143 
#    0.000    0.000    0.000    2.571    0.000    6.000 
#    0.000    0.000    0.000    0.000    0.000    0.000 
#
# Total GULP energy -312511.177540 kJ/mol
# GULP energy per Si atom -5580.556742 kJ/mol
# Density = 1.695103 g / cm^3
# Si number density = 16.989699 Si / 1000 Ang^3
#
#
#
# Elastic Constant Matrix: (Units=GPa)
#
#
# Indices 1 2 3 4 5 6 
#
# 1 88.4857 13.9345 42.0354 0.0000 0.0000 0.0000
# 2 13.9345 28.0163 4.4122 0.0000 0.0000 0.0000
# 3 42.0354 4.4122 80.1232 0.0000 0.0000 0.0000
# 4 0.0000 0.0000 0.0000 12.9515 0.0000 0.0000
# 5 0.0000 0.0000 0.0000 0.0000 36.3219 0.0000
# 6 0.0000 0.0000 0.0000 0.0000 0.0000 22.3582
#
#
#
# Elastic Compliance Matrix: (Units=1/GPa)
#
#
# Indices 1 2 3 4 5 6 
#
# 1 0.016241 -0.006795 -0.008147 0.000000 0.000000 0.000000
# 2 -0.006795 0.038849 0.001426 0.000000 0.000000 0.000000
# 3 -0.008147 0.001426 0.016676 0.000000 0.000000 0.000000
# 4 0.000000 0.000000 0.000000 0.077211 0.000000 0.000000
# 5 0.000000 0.000000 0.000000 0.000000 0.027532 0.000000
# 6 0.000000 0.000000 0.000000 0.000000 0.000000 0.044726
#
#
# Mechanical properties :
#
#
# Convention : Reuss Voigt Hill
#
# Bulk Modulus (GPa) = 22.35422 35.26550 28.80986
# Shear Modulus (GPa) = 18.99849 23.40919 21.20384
#
# Velocity S-wave (km/s) = 3.34763 3.71596 3.53659
# Velocity P-wave (km/s) = 5.30361 6.26205 5.80265
#
# Compressibility (1/GPa) = 0.04473429
#
# Stress axis : x y z
#
# Youngs Moduli (GPa) = 61.57103 25.74087 59.96548
#
# Poissons Ratio (x) = 0.17491 0.48852
# Poissons Ratio (y) = 0.41838 -0.08549
# Poissons Ratio (z) = 0.50160 -0.03670
#
# Static dielectric constant tensor:
#      x y z
#    x 1.589930 0.000000 0.000000 
#    y 0.000000 1.582610 0.000000 
#    z 0.000000 0.000000 1.553420 
# 
# From -- ./inp_files/69965.got.cif
#   From: 2010.05.17/outbox.cif.g08.bks.cpg/sg65_35_cif.got.tgz:69965.got - 2010.06.03 17:01:31.
