data_PCOD9489289
_publ_section_title
;
Structure prediction by ZEFSAII (Michael W. Deem and Ramdas Pophale) SiO2 
 PCOD9489289
Probable space group: C M M M
;
_chemical_formula_sum "Si O2"
_cell_formula_units_Z 88
_cell_length_a 18.562566
_cell_length_b 29.669739
_cell_length_c 9.017006
_cell_angle_alpha 90.000000
_cell_angle_beta 90.000000
_cell_angle_gamma 90.000000
_cell_volume 4966.084390
_symmetry_space_group_name_H-M "C M M M"
_symmetry_group_IT_number 65
_symmetry_cell_setting 'orthorhombic'
loop_
_space_group_symop_operation_xyz
x,y,z
-x,-y,z
x,-y,-z
-x,y,-z
-x,-y,-z
x,y,-z
-x,y,z
x,-y,z
1/2+x,1/2+y,z
1/2-x,1/2-y,z
1/2+x,1/2-y,-z
1/2-x,1/2+y,-z
1/2-x,1/2-y,-z
1/2+x,1/2+y,-z
1/2-x,1/2+y,z
1/2+x,1/2-y,z
loop_
_atom_site_type_symbol
_atom_site_label
_atom_site_fract_x
_atom_site_fract_y
_atom_site_fract_z
Si Si1 0.500000 0.945151 0.172456
Si Si2 0.584634 0.744625 0.670949
Si Si3 0.148312 0.447308 0.322160
Si Si4 0.795720 0.296143 0.828061
Si Si5 0.777492 0.881273 0.322530
Si Si6 0.916871 0.853131 0.823080
O O1 0.574362 0.929981 0.248546
O O2 0.500000 0.000000 0.185267
O O3 0.500000 0.933262 0.000000
O O4 0.609253 0.740874 0.500000
O O5 0.500000 0.754730 0.671542
O O6 0.628673 0.782635 0.756089
O O7 0.593460 0.696474 0.751879
O O8 0.139857 0.444309 0.500000
O O9 0.157082 0.500000 0.283054
O O10 0.219410 0.419476 0.280949
O O11 0.750000 0.250000 0.821703
O O12 0.756667 0.334720 0.735656
O O13 0.801922 0.309594 0.000000
O O14 0.785228 0.880675 0.500000
O O15 0.855856 0.884607 0.247488
O O16 0.000000 0.866584 0.793697
O O17 0.906927 0.849876 0.000000
#
# Coordination Sequence:
#
# PCOD9489289 Si02
#       6
#     8  16  16  16  16  16
#     4   9  17  31  55  85 111 139 177 217 259 311
#     4  10  20  34  53  75 100 135 179 223 261 305
#     4   9  19  37  59  82 109 141 176 217 267 318
#     4  11  22  35  52  75 106 144 177 214 263 314
#     4  11  22  35  56  82 106 138 178 222 267 315
#     4  10  20  34  53  77 106 140 177 218 264 317
#
# _framework density 17.720196999999999
#
# number of rings (size 3 to 8) (size 9 to 14) (size 15 to 20)
#    0.000    1.909    1.818    2.455    0.000    5.455 
#    1.636    0.000    0.000    0.545    0.000    3.818 
#    0.000    0.000    0.000    0.000    0.000    0.000 
#
# Total GULP energy -245589.595065 kJ/mol
# GULP energy per Si atom -5581.581706 kJ/mol
# Density = 1.767987 g / cm^3
# Si number density = 17.720197 Si / 1000 Ang^3
#
#
#
# Elastic Constant Matrix: (Units=GPa)
#
#
# Indices 1 2 3 4 5 6 
#
# 1 146.4975 44.5350 60.6922 0.0000 0.0000 0.0000
# 2 44.5350 37.6367 24.1859 0.0000 0.0000 0.0000
# 3 60.6922 24.1859 71.6556 0.0000 0.0000 0.0000
# 4 0.0000 0.0000 0.0000 9.2789 0.0000 0.0000
# 5 0.0000 0.0000 0.0000 0.0000 33.0238 0.0000
# 6 0.0000 0.0000 0.0000 0.0000 0.0000 30.9399
#
#
#
# Elastic Compliance Matrix: (Units=1/GPa)
#
#
# Indices 1 2 3 4 5 6 
#
# 1 0.013251 -0.010812 -0.007574 0.000000 0.000000 0.000000
# 2 -0.010812 0.042752 -0.005272 0.000000 0.000000 0.000000
# 3 -0.007574 -0.005272 0.022150 0.000000 0.000000 0.000000
# 4 0.000000 0.000000 0.000000 0.107771 0.000000 0.000000
# 5 0.000000 0.000000 0.000000 0.000000 0.030281 0.000000
# 6 0.000000 0.000000 0.000000 0.000000 0.000000 0.032321
#
#
# Mechanical properties :
#
#
# Convention : Reuss Voigt Hill
#
# Bulk Modulus (GPa) = 32.42927 57.17953 44.80440
# Shear Modulus (GPa) = 16.33343 23.07365 19.70354
#
# Velocity S-wave (km/s) = 3.03931 3.61239 3.33817
# Velocity P-wave (km/s) = 5.53688 7.05246 6.34012
#
# Compressibility (1/GPa) = 0.03083634
#
# Stress axis : x y z
#
# Youngs Moduli (GPa) = 75.46729 23.39086 45.14638
#
# Poissons Ratio (x) = 0.25291 0.34193
# Poissons Ratio (y) = 0.81598 0.23801
# Poissons Ratio (z) = 0.57158 0.12331
#
# Static dielectric constant tensor:
#      x y z
#    x 1.630730 0.000000 0.000000 
#    y 0.000000 1.583630 0.000000 
#    z 0.000000 0.000000 1.596510 
# 
# From -- ./inp_files/10002.got.cif
#   From: 2010.05.17/outbox.cif.g08.bks.cpg/sg65_6_cif.got.tgz:10002.got - 2010.06.03 17:01:31.
