data_PCOD9489560
_publ_section_title
;
Structure prediction by ZEFSAII (Michael W. Deem and Ramdas Pophale) SiO2 
 PCOD9489560
Probable space group: C M M M
;
_chemical_formula_sum "Si O2"
_cell_formula_units_Z 104
_cell_length_a 8.676113
_cell_length_b 32.305609
_cell_length_c 19.921710
_cell_angle_alpha 90.000000
_cell_angle_beta 90.000000
_cell_angle_gamma 90.000000
_cell_volume 5583.798606
_symmetry_space_group_name_H-M "C M M M"
_symmetry_group_IT_number 65
_symmetry_cell_setting 'orthorhombic'
loop_
_space_group_symop_operation_xyz
x,y,z
-x,-y,z
x,-y,-z
-x,y,-z
-x,-y,-z
x,y,-z
-x,y,z
x,-y,z
1/2+x,1/2+y,z
1/2-x,1/2-y,z
1/2+x,1/2-y,-z
1/2-x,1/2+y,-z
1/2-x,1/2-y,-z
1/2+x,1/2+y,-z
1/2-x,1/2+y,z
1/2+x,1/2-y,z
loop_
_atom_site_type_symbol
_atom_site_label
_atom_site_fract_x
_atom_site_fract_y
_atom_site_fract_z
Si Si1 0.184331 0.206361 0.288382
Si Si2 0.187405 0.045156 0.284462
Si Si3 0.686175 0.373613 0.796366
Si Si4 0.185585 0.919545 0.574574
Si Si5 0.184006 0.411789 0.922452
Si Si6 0.174598 0.000000 0.918495
Si Si7 0.315601 0.826783 0.575338
O O1 0.250000 0.250000 0.264412
O O2 0.235759 0.167547 0.242791
O O3 0.240430 0.198143 0.364171
O O4 0.000000 0.207440 0.287806
O O5 0.239931 0.085350 0.243708
O O6 0.228721 0.052265 0.362501
O O7 0.000000 0.045069 0.280705
O O8 0.241359 0.000000 0.260881
O O9 0.500000 0.374064 0.797156
O O10 0.747616 0.378564 0.871436
O O11 0.222873 0.935766 0.500000
O O12 0.262106 0.874528 0.581975
O O13 0.000000 0.913749 0.577742
O O14 0.243401 0.457266 0.900429
O O15 0.000000 0.411461 0.920111
O O16 0.232512 0.405477 0.000000
O O17 0.000000 0.000000 0.892182
O O18 0.169851 0.000000 0.000000
O O19 0.269725 0.813106 0.500000
O O20 0.500000 0.824471 0.580407
#
# Coordination Sequence:
#
# PCOD9489560 Si02
#       7
#    16  16  16  16  16   8  16
#     4  11  23  40  61  85 112 143 183 229 281 337
#     4   9  17  30  49  77 111 144 183 229 272 321
#     4  10  21  37  57  82 112 147 185 226 275 334
#     4   9  16  29  50  74 104 144 188 234 278 319
#     4  10  21  36  55  82 116 151 187 230 278 328
#     4   9  17  31  53  81 113 151 192 229 268 319
#     4  10  20  34  54  80 109 144 185 229 280 336
#
# _framework density 18.625312999999998
#
# number of rings (size 3 to 8) (size 9 to 14) (size 15 to 20)
#    0.000    2.231    1.538    1.615    1.077    4.615 
#    0.000    1.538    0.000    1.846    0.000    2.154 
#    0.000    0.000    0.000    0.000    0.000    0.000 
#
# Total GULP energy -290260.123710 kJ/mol
# GULP energy per Si atom -5581.925456 kJ/mol
# Density = 1.858292 g / cm^3
# Si number density = 18.625313 Si / 1000 Ang^3
#
#
#
# Elastic Constant Matrix: (Units=GPa)
#
#
# Indices 1 2 3 4 5 6 
#
# 1 23.5037 27.8024 27.0727 0.0000 0.0000 0.0000
# 2 27.8024 130.0269 71.7416 0.0000 0.0000 0.0000
# 3 27.0727 71.7416 113.5859 0.0000 0.0000 0.0000
# 4 0.0000 0.0000 0.0000 16.1940 0.0000 0.0000
# 5 0.0000 0.0000 0.0000 0.0000 20.7983 0.0000
# 6 0.0000 0.0000 0.0000 0.0000 0.0000 23.8683
#
#
#
# Elastic Compliance Matrix: (Units=1/GPa)
#
#
# Indices 1 2 3 4 5 6 
#
# 1 0.063699 -0.008048 -0.010099 0.000000 0.000000 0.000000
# 2 -0.008048 0.012821 -0.006180 0.000000 0.000000 0.000000
# 3 -0.010099 -0.006180 0.015114 0.000000 0.000000 0.000000
# 4 0.000000 0.000000 0.000000 0.061751 0.000000 0.000000
# 5 0.000000 0.000000 0.000000 0.000000 0.048081 0.000000
# 6 0.000000 0.000000 0.000000 0.000000 0.000000 0.041897
#
#
# Mechanical properties :
#
#
# Convention : Reuss Voigt Hill
#
# Bulk Modulus (GPa) = 23.26630 57.81666 40.54148
# Shear Modulus (GPa) = 16.32149 21.53875 18.93012
#
# Velocity S-wave (km/s) = 2.96346 3.40431 3.19151
# Velocity P-wave (km/s) = 4.92223 6.82362 5.94938
#
# Compressibility (1/GPa) = 0.04298062
#
# Stress axis : x y z
#
# Youngs Moduli (GPa) = 15.69876 77.99590 66.16287
#
# Poissons Ratio (x) = 0.62771 0.66820
# Poissons Ratio (y) = 0.12634 0.40887
# Poissons Ratio (z) = 0.15855 0.48200
#
# Static dielectric constant tensor:
#      x y z
#    x 1.625310 0.000000 0.000000 
#    y 0.000000 1.636410 0.000000 
#    z 0.000000 0.000000 1.670590 
# 
# From -- ./inp_files/60379.got.cif
#   From: 2010.05.17/outbox.cif.g08.bks.cpg/sg65_31_cif.got.tgz:60379.got - 2010.06.03 17:01:31.
