data_PCOD9489827
_publ_section_title
;
Structure prediction by ZEFSAII (Michael W. Deem and Ramdas Pophale) SiO2 
 PCOD9489827
Probable space group: C M M M
;
_chemical_formula_sum "Si O2"
_cell_formula_units_Z 88
_cell_length_a 7.764550
_cell_length_b 28.439119
_cell_length_c 19.450108
_cell_angle_alpha 90.000000
_cell_angle_beta 90.000000
_cell_angle_gamma 90.000000
_cell_volume 4294.913748
_symmetry_space_group_name_H-M "C M M M"
_symmetry_group_IT_number 65
_symmetry_cell_setting 'orthorhombic'
loop_
_space_group_symop_operation_xyz
x,y,z
-x,-y,z
x,-y,-z
-x,y,-z
-x,-y,-z
x,y,-z
-x,y,z
x,-y,z
1/2+x,1/2+y,z
1/2-x,1/2-y,z
1/2+x,1/2-y,-z
1/2-x,1/2+y,-z
1/2-x,1/2-y,-z
1/2+x,1/2+y,-z
1/2-x,1/2+y,z
1/2+x,1/2-y,z
loop_
_atom_site_type_symbol
_atom_site_label
_atom_site_fract_x
_atom_site_fract_y
_atom_site_fract_z
Si Si1 0.799907 0.057821 0.500000
Si Si2 0.789890 0.554888 0.923809
Si Si3 0.792543 0.805738 0.426663
Si Si4 0.294395 0.304557 0.723886
Si Si5 0.200277 0.395142 0.788157
Si Si6 0.705668 0.553244 0.648778
O O1 0.725843 0.071578 0.425242
O O2 0.000000 0.073768 0.500000
O O3 0.798683 0.000000 0.500000
O O4 0.745327 0.500000 0.915025
O O5 0.724875 0.583931 0.858453
O O6 0.000000 0.557443 0.924656
O O7 0.731581 0.570115 0.000000
O O8 0.729168 0.825397 0.500000
O O9 0.750000 0.750000 0.427919
O O10 0.728002 0.820907 0.351848
O O11 0.000000 0.811254 0.426136
O O12 0.500000 0.308994 0.723204
O O13 0.250000 0.250000 0.733125
O O14 0.223374 0.339463 0.780747
O O15 0.269459 0.417665 0.717852
O O16 0.000000 0.406934 0.788494
O O17 0.500000 0.550472 0.638701
O O18 0.771456 0.500000 0.659344
#
# Coordination Sequence:
#
# PCOD9489827 Si02
#       6
#     8  16  16  16  16  16
#     4   7  12  26  47  67  90 129 178 217 249 291
#     4   8  15  30  53  80 108 137 168 203 247 303
#     4   8  14  26  45  66  86 114 156 205 254 298
#     4  10  20  35  53  72  99 134 175 219 263 309
#     4  11  21  32  50  78 108 135 168 210 259 313
#     4   9  17  31  51  73  99 134 175 216 256 301
#
# _framework density 20.489353000000001
#
# number of rings (size 3 to 8) (size 9 to 14) (size 15 to 20)
#    0.000    3.000    0.000    3.273    0.000    1.818 
#    1.636    0.455    0.000    4.364    0.000    6.364 
#    0.000    0.000    0.000    0.000    0.000    0.000 
#
# Total GULP energy -245301.719780 kJ/mol
# GULP energy per Si atom -5575.039086 kJ/mol
# Density = 2.044272 g / cm^3
# Si number density = 20.489353 Si / 1000 Ang^3
#
#
#
# Elastic Constant Matrix: (Units=GPa)
#
#
# Indices 1 2 3 4 5 6 
#
# 1 28.8151 -7.1339 6.7340 0.0000 0.0000 0.0000
# 2 -7.1339 75.3586 83.6388 0.0000 0.0000 0.0000
# 3 6.7340 83.6388 194.7389 0.0000 0.0000 0.0000
# 4 0.0000 0.0000 0.0000 31.4634 0.0000 0.0000
# 5 0.0000 0.0000 0.0000 0.0000 8.3432 0.0000
# 6 0.0000 0.0000 0.0000 0.0000 0.0000 11.1473
#
#
#
# Elastic Compliance Matrix: (Units=1/GPa)
#
#
# Indices 1 2 3 4 5 6 
#
# 1 0.038412 0.009766 -0.005523 0.000000 0.000000 0.000000
# 2 0.009766 0.027840 -0.012295 0.000000 0.000000 0.000000
# 3 -0.005523 -0.012295 0.010607 0.000000 0.000000 0.000000
# 4 0.000000 0.000000 0.000000 0.031783 0.000000 0.000000
# 5 0.000000 0.000000 0.000000 0.000000 0.119858 0.000000
# 6 0.000000 0.000000 0.000000 0.000000 0.000000 0.089708
#
#
# Mechanical properties :
#
#
# Convention : Reuss Voigt Hill
#
# Bulk Modulus (GPa) = 16.45935 51.71003 34.08469
# Shear Modulus (GPa) = 14.10186 24.56902 19.33544
#
# Velocity S-wave (km/s) = 2.62630 3.46658 3.07527
# Velocity P-wave (km/s) = 4.15297 6.42769 5.41121
#
# Compressibility (1/GPa) = 0.06075575
#
# Stress axis : x y z
#
# Youngs Moduli (GPa) = 26.03329 35.91944 94.28123
#
# Poissons Ratio (x) = -0.35078 0.52068
# Poissons Ratio (y) = -0.25423 1.15917
# Poissons Ratio (z) = 0.14377 0.44162
#
# Static dielectric constant tensor:
#      x y z
#    x 1.803010 0.000000 0.000000 
#    y 0.000000 1.743080 0.000000 
#    z 0.000000 0.000000 1.772170 
# 
# From -- ./inp_files/50314.got.cif
#   From: 2010.05.17/outbox.cif.g08.bks.cpg/sg65_26_cif.got.tgz:50314.got - 2010.06.03 17:01:31.
