data_PCOD9489956
_publ_section_title
;
Structure prediction by ZEFSAII (Michael W. Deem and Ramdas Pophale) SiO2 
 PCOD9489956
Probable space group: C M M M
;
_chemical_formula_sum "Si O2"
_cell_formula_units_Z 104
_cell_length_a 9.182379
_cell_length_b 26.846047
_cell_length_c 24.806820
_cell_angle_alpha 90.000000
_cell_angle_beta 90.000000
_cell_angle_gamma 90.000000
_cell_volume 6115.143542
_symmetry_space_group_name_H-M "C M M M"
_symmetry_group_IT_number 65
_symmetry_cell_setting 'orthorhombic'
loop_
_space_group_symop_operation_xyz
x,y,z
-x,-y,z
x,-y,-z
-x,y,-z
-x,-y,-z
x,y,-z
-x,y,z
x,-y,z
1/2+x,1/2+y,z
1/2-x,1/2-y,z
1/2+x,1/2-y,-z
1/2-x,1/2+y,-z
1/2-x,1/2-y,-z
1/2+x,1/2+y,-z
1/2-x,1/2+y,z
1/2+x,1/2-y,z
loop_
_atom_site_type_symbol
_atom_site_label
_atom_site_fract_x
_atom_site_fract_y
_atom_site_fract_z
Si Si1 0.163196 0.941747 0.666064
Si Si2 0.675658 0.593811 0.120050
Si Si3 0.828484 0.560482 0.227588
Si Si4 0.669596 0.000000 0.935459
Si Si5 0.674520 0.301652 0.063386
Si Si6 0.176406 0.409476 0.437976
Si Si7 0.662731 0.796688 0.434955
O O1 0.263111 0.922648 0.714870
O O2 0.242952 0.938354 0.608755
O O3 0.000000 0.919792 0.664609
O O4 0.147844 0.000000 0.677837
O O5 0.500000 0.588694 0.119114
O O6 0.738274 0.585935 0.179877
O O7 0.749100 0.549226 0.085962
O O8 0.713627 0.648190 0.095865
O O9 0.814222 0.500000 0.222073
O O10 0.000000 0.571681 0.224185
O O11 0.500000 0.000000 0.916944
O O12 0.671204 0.000000 0.000000
O O13 0.500000 0.295620 0.067228
O O14 0.750000 0.250000 0.080994
O O15 0.711177 0.309251 0.000000
O O16 0.212560 0.422883 0.500000
O O17 0.221595 0.352028 0.427718
O O18 0.000000 0.412884 0.433612
O O19 0.653990 0.791188 0.500000
O O20 0.500000 0.795548 0.413203
O O21 0.750000 0.750000 0.413381
#
# Coordination Sequence:
#
# PCOD9489956 Si02
#       7
#    16  16  16   8  16  16  16
#     4  10  21  35  51  72  99 131 170 213 258 306
#     4  11  21  34  55  80 109 142 178 223 272 320
#     4  10  20  35  55  77 102 132 172 214 258 317
#     4  11  23  35  49  77 115 149 180 215 262 317
#     4   9  19  35  54  78 108 145 187 225 265 315
#     4   9  18  32  49  71 100 132 166 204 251 308
#     4   8  14  25  42  65  92 121 153 189 231 286
#
# _framework density 17.006961
#
# number of rings (size 3 to 8) (size 9 to 14) (size 15 to 20)
#    0.000    2.385    0.769    3.000    0.000    5.231 
#    0.000    4.615    0.000    0.923    0.000    6.462 
#    0.000    0.000    0.000    0.000    0.000    0.000 
#
# Total GULP energy -289675.707679 kJ/mol
# GULP energy per Si atom -5570.686686 kJ/mol
# Density = 1.696825 g / cm^3
# Si number density = 17.006961 Si / 1000 Ang^3
#
#
#
# Elastic Constant Matrix: (Units=GPa)
#
#
# Indices 1 2 3 4 5 6 
#
# 1 82.4870 50.0555 53.4387 0.0000 0.0000 0.0000
# 2 50.0555 79.2503 38.8997 0.0000 0.0000 0.0000
# 3 53.4387 38.8997 93.7763 0.0000 0.0000 0.0000
# 4 0.0000 0.0000 0.0000 16.1844 0.0000 0.0000
# 5 0.0000 0.0000 0.0000 0.0000 22.4615 0.0000
# 6 0.0000 0.0000 0.0000 0.0000 0.0000 28.1729
#
#
#
# Elastic Compliance Matrix: (Units=1/GPa)
#
#
# Indices 1 2 3 4 5 6 
#
# 1 0.025181 -0.011127 -0.009734 0.000000 0.000000 0.000000
# 2 -0.011127 0.020761 -0.002271 0.000000 0.000000 0.000000
# 3 -0.009734 -0.002271 0.017153 0.000000 0.000000 0.000000
# 4 0.000000 0.000000 0.000000 0.061788 0.000000 0.000000
# 5 0.000000 0.000000 0.000000 0.000000 0.044521 0.000000
# 6 0.000000 0.000000 0.000000 0.000000 0.000000 0.035495
#
#
# Mechanical properties :
#
#
# Convention : Reuss Voigt Hill
#
# Bulk Modulus (GPa) = 59.41527 60.03349 59.72438
# Shear Modulus (GPa) = 19.47239 20.90508 20.18874
#
# Velocity S-wave (km/s) = 3.38741 3.50981 3.44915
# Velocity P-wave (km/s) = 7.09303 7.19729 7.14535
#
# Compressibility (1/GPa) = 0.01683069
#
# Stress axis : x y z
#
# Youngs Moduli (GPa) = 39.71172 48.16723 58.29946
#
# Poissons Ratio (x) = 0.53596 0.56749
# Poissons Ratio (y) = 0.44187 0.13241
# Poissons Ratio (z) = 0.38656 0.10940
#
# Static dielectric constant tensor:
#      x y z
#    x 1.592860 0.000000 0.000000 
#    y 0.000000 1.596010 0.000000 
#    z 0.000000 0.000000 1.561920 
# 
# From -- ./inp_files/68255.got.cif
#   From: 2010.05.17/outbox.cif.g08.bks.cpg/sg65_35_cif.got.tgz:68255.got - 2010.06.03 17:01:31.
