data_PCOD9489388
_publ_section_title
;
Structure prediction by ZEFSAII (Michael W. Deem and Ramdas Pophale) SiO2 
 PCOD9489388
Probable space group: C M M M
;
_chemical_formula_sum "Si O2"
_cell_formula_units_Z 88
_cell_length_a 15.278731
_cell_length_b 17.688560
_cell_length_c 15.980919
_cell_angle_alpha 90.000000
_cell_angle_beta 90.000000
_cell_angle_gamma 90.000000
_cell_volume 4318.983193
_symmetry_space_group_name_H-M "C M M M"
_symmetry_group_IT_number 65
_symmetry_cell_setting 'orthorhombic'
loop_
_space_group_symop_operation_xyz
x,y,z
-x,-y,z
x,-y,-z
-x,y,-z
-x,-y,-z
x,y,-z
-x,y,z
x,-y,z
1/2+x,1/2+y,z
1/2-x,1/2-y,z
1/2+x,1/2-y,-z
1/2-x,1/2+y,-z
1/2-x,1/2-y,-z
1/2+x,1/2+y,-z
1/2-x,1/2+y,z
1/2+x,1/2-y,z
loop_
_atom_site_type_symbol
_atom_site_label
_atom_site_fract_x
_atom_site_fract_y
_atom_site_fract_z
Si Si1 0.354416 0.751552 0.410198
Si Si2 0.394821 0.918599 0.645895
Si Si3 0.152148 0.785492 0.772456
Si Si4 0.606254 0.588455 0.903909
Si Si5 0.599478 0.127725 0.175013
Si Si6 0.399600 0.910398 0.000000
O O1 0.389426 0.724297 0.500000
O O2 0.250000 0.750000 0.413675
O O3 0.375539 0.840483 0.399816
O O4 0.378272 0.707911 0.324582
O O5 0.500000 0.921282 0.649829
O O6 0.361102 0.908200 0.741242
O O7 0.364537 0.000000 0.611949
O O8 0.250000 0.750000 0.771299
O O9 0.144505 0.857695 0.831774
O O10 0.096549 0.716925 0.810776
O O11 0.500000 0.593565 0.898902
O O12 0.629775 0.500000 0.892576
O O13 0.630405 0.610281 0.000000
O O14 0.500000 0.096931 0.168794
O O15 0.644268 0.112671 0.086712
O O16 0.500000 0.878006 0.000000
O O17 0.405663 0.000000 0.000000
#
# Coordination Sequence:
#
# PCOD9489388 Si02
#       6
#    16  16  16  16  16   8
#     4   9  19  36  53  72 102 141 181 212 252 315
#     4   9  17  30  50  76 104 131 164 212 262 302
#     4  10  20  34  53  78 106 133 167 217 271 311
#     4   9  19  37  60  81 102 136 181 222 259 309
#     4   9  17  29  46  69  98 136 174 204 242 301
#     4   9  16  26  41  62  91 129 169 200 228 278
#
# _framework density 20.375166
#
# number of rings (size 3 to 8) (size 9 to 14) (size 15 to 20)
#    0.000    2.818    0.000    1.636    1.273    4.000 
#    0.000   10.000    0.000    1.636    0.000    1.273 
#    0.000    0.000    0.000    0.000    0.000    0.000 
#
# Total GULP energy -245113.885886 kJ/mol
# GULP energy per Si atom -5570.770134 kJ/mol
# Density = 2.032879 g / cm^3
# Si number density = 20.375166 Si / 1000 Ang^3
#
#
#
# Elastic Constant Matrix: (Units=GPa)
#
#
# Indices 1 2 3 4 5 6 
#
# 1 34.8962 18.1581 14.6867 0.0000 0.0000 0.0000
# 2 18.1581 93.1747 67.9717 0.0000 0.0000 0.0000
# 3 14.6867 67.9717 192.9538 0.0000 0.0000 0.0000
# 4 0.0000 0.0000 0.0000 3.1806 0.0000 0.0000
# 5 0.0000 0.0000 0.0000 0.0000 -79.0788 0.0000
# 6 0.0000 0.0000 0.0000 0.0000 0.0000 -8.1188
#
#
#
# Elastic Compliance Matrix: (Units=1/GPa)
#
#
# Indices 1 2 3 4 5 6 
#
# 1 0.031905 -0.005984 -0.000321 0.000000 0.000000 0.000000
# 2 -0.005984 0.015567 -0.005028 0.000000 0.000000 0.000000
# 3 -0.000321 -0.005028 0.006978 0.000000 0.000000 0.000000
# 4 0.000000 0.000000 0.000000 0.314409 0.000000 0.000000
# 5 0.000000 0.000000 0.000000 0.000000 -0.012646 0.000000
# 6 0.000000 0.000000 0.000000 0.000000 0.000000 -0.123171
#
#
# Mechanical properties :
#
#
# Convention : Reuss Voigt Hill
#
# Bulk Modulus (GPa) = 31.46160 58.07306 44.76733
# Shear Modulus (GPa) = 18.77563 -2.12284 8.32639
#
# Velocity S-wave (km/s) = 3.03891 -1.02183 2.02371
# Velocity P-wave (km/s) = 5.27143 5.21264 5.24211
#
# Compressibility (1/GPa) = 0.03178478
#
# Stress axis : x y z
#
# Youngs Moduli (GPa) = 31.34308 64.23922 143.30187
#
# Poissons Ratio (x) = 0.38440 0.04593
# Poissons Ratio (y) = 0.18755 0.72056
# Poissons Ratio (z) = 0.01005 0.32301
#
# Static dielectric constant tensor:
#      x y z
#    x 1.722210 0.000000 0.000000 
#    y 0.000000 1.746960 0.000000 
#    z 0.000000 0.000000 1.807900 
# 
# From -- ./inp_files/42530.got.cif
#   From: 2010.05.17/outbox.cif.g08.bks.cpg/sg65_22_cif.got.tgz:42530.got - 2010.06.03 17:01:31.
