data_PCOD9489096
_publ_section_title
;
Structure prediction by ZEFSAII (Michael W. Deem and Ramdas Pophale) SiO2 
 PCOD9489096
Probable space group: C M M M
;
_chemical_formula_sum "Si O2"
_cell_formula_units_Z 120
_cell_length_a 27.980476
_cell_length_b 28.089006
_cell_length_c 8.769392
_cell_angle_alpha 90.000000
_cell_angle_beta 90.000000
_cell_angle_gamma 90.000000
_cell_volume 6892.248906
_symmetry_space_group_name_H-M "C M M M"
_symmetry_group_IT_number 65
_symmetry_cell_setting 'orthorhombic'
loop_
_space_group_symop_operation_xyz
x,y,z
-x,-y,z
x,-y,-z
-x,y,-z
-x,-y,-z
x,y,-z
-x,y,z
x,-y,z
1/2+x,1/2+y,z
1/2-x,1/2-y,z
1/2+x,1/2-y,-z
1/2-x,1/2+y,-z
1/2-x,1/2-y,-z
1/2+x,1/2+y,-z
1/2-x,1/2+y,z
1/2+x,1/2-y,z
loop_
_atom_site_type_symbol
_atom_site_label
_atom_site_fract_x
_atom_site_fract_y
_atom_site_fract_z
Si Si1 0.300491 0.221756 0.673215
Si Si2 0.812690 0.444427 0.317847
Si Si3 0.444966 0.801705 0.679505
Si Si4 0.500000 0.057169 0.320440
Si Si5 0.751053 0.633951 0.182032
Si Si6 0.947951 0.196342 0.183687
Si Si7 0.906002 0.605771 0.818040
Si Si8 0.345066 0.687446 0.183930
O O1 0.314569 0.209969 0.500000
O O2 0.250000 0.250000 0.667877
O O3 0.288943 0.174643 0.768147
O O4 0.335412 0.260082 0.748479
O O5 0.816983 0.440356 0.500000
O O6 0.809655 0.500000 0.277606
O O7 0.767371 0.414441 0.260589
O O8 0.859172 0.420825 0.241987
O O9 0.435796 0.795979 0.500000
O O10 0.500000 0.819211 0.696994
O O11 0.443631 0.750785 0.760809
O O12 0.410636 0.840948 0.751430
O O13 0.500000 0.070283 0.500000
O O14 0.547447 0.077739 0.242449
O O15 0.500000 0.000000 0.309567
O O16 0.698721 0.653303 0.230117
O O17 0.751842 0.629115 0.000000
O O18 0.898322 0.171620 0.230733
O O19 0.000000 0.178317 0.237980
O O20 0.948792 0.195839 0.000000
O O21 0.906002 0.607556 0.000000
O O22 0.342905 0.691022 0.000000
#
# Coordination Sequence:
#
# PCOD9489096 Si02
#       8
#    16  16  16   8  16  16  16  16
#     4   9  17  29  46  70  99 131 168 207 248 296
#     4  11  25  43  59  75  99 131 168 215 272 327
#     4  10  20  34  51  71 100 137 176 215 256 300
#     4  11  23  39  57  75  97 125 161 213 271 319
#     4  10  20  35  55  77 102 132 168 213 262 314
#     4   9  18  32  50  73 106 143 178 211 247 297
#     4  12  24  37  56  77  99 129 170 217 266 318
#     4   9  18  32  51  76 106 138 172 211 256 303
#
# _framework density 17.410862999999999
#
# number of rings (size 3 to 8) (size 9 to 14) (size 15 to 20)
#    0.000    1.933    0.667    3.400    1.867    6.400 
#    0.000    0.000    0.000    0.000    0.000    0.000 
#    0.000    0.533    0.000    6.667    0.000    1.067 
#
# Total GULP energy -335040.266057 kJ/mol
# GULP energy per Si atom -5584.004434 kJ/mol
# Density = 1.737124 g / cm^3
# Si number density = 17.410863 Si / 1000 Ang^3
#
#
#
# Elastic Constant Matrix: (Units=GPa)
#
#
# Indices 1 2 3 4 5 6 
#
# 1 129.9410 24.3239 14.3962 0.0000 0.0000 0.0000
# 2 24.3239 36.9216 5.8393 0.0000 0.0000 0.0000
# 3 14.3962 5.8393 32.6630 0.0000 0.0000 0.0000
# 4 0.0000 0.0000 0.0000 23.1191 0.0000 0.0000
# 5 0.0000 0.0000 0.0000 0.0000 17.7512 0.0000
# 6 0.0000 0.0000 0.0000 0.0000 0.0000 20.0122
#
#
#
# Elastic Compliance Matrix: (Units=1/GPa)
#
#
# Indices 1 2 3 4 5 6 
#
# 1 0.009057 -0.005491 -0.003010 0.000000 0.000000 0.000000
# 2 -0.005491 0.031201 -0.003158 0.000000 0.000000 0.000000
# 3 -0.003010 -0.003158 0.032507 0.000000 0.000000 0.000000
# 4 0.000000 0.000000 0.000000 0.043254 0.000000 0.000000
# 5 0.000000 0.000000 0.000000 0.000000 0.056334 0.000000
# 6 0.000000 0.000000 0.000000 0.000000 0.000000 0.049969
#
#
# Mechanical properties :
#
#
# Convention : Reuss Voigt Hill
#
# Bulk Modulus (GPa) = 20.22355 32.07160 26.14757
# Shear Modulus (GPa) = 19.07498 22.50760 20.79129
#
# Velocity S-wave (km/s) = 3.31354 3.59936 3.45941
# Velocity P-wave (km/s) = 5.12641 5.97782 5.56841
#
# Compressibility (1/GPa) = 0.04944731
#
# Stress axis : x y z
#
# Youngs Moduli (GPa) = 110.41025 32.05014 30.76254
#
# Poissons Ratio (x) = 0.17598 0.09261
# Poissons Ratio (y) = 0.60623 0.09715
# Poissons Ratio (z) = 0.33237 0.10121
#
# Static dielectric constant tensor:
#      x y z
#    x 1.660480 0.000000 0.000000 
#    y 0.000000 1.564950 0.000000 
#    z 0.000000 0.000000 1.582020 
# 
# From -- ./inp_files/17119.got.cif
#   From: 2010.05.17/outbox.cif.g08.bks.cpg/sg65_9_cif.got.tgz:17119.got - 2010.06.03 17:01:31.
