data_PCOD9489599
_publ_section_title
;
Structure prediction by ZEFSAII (Michael W. Deem and Ramdas Pophale) SiO2 
 PCOD9489599
Probable space group: C M M M
;
_chemical_formula_sum "Si O2"
_cell_formula_units_Z 72
_cell_length_a 17.750293
_cell_length_b 9.046950
_cell_length_c 23.943922
_cell_angle_alpha 90.000000
_cell_angle_beta 90.000000
_cell_angle_gamma 90.000000
_cell_volume 3845.058976
_symmetry_space_group_name_H-M "C M M M"
_symmetry_group_IT_number 65
_symmetry_cell_setting 'orthorhombic'
loop_
_space_group_symop_operation_xyz
x,y,z
-x,-y,z
x,-y,-z
-x,y,-z
-x,-y,-z
x,y,-z
-x,y,z
x,-y,z
1/2+x,1/2+y,z
1/2-x,1/2-y,z
1/2+x,1/2-y,-z
1/2-x,1/2+y,-z
1/2-x,1/2-y,-z
1/2+x,1/2+y,-z
1/2-x,1/2+y,z
1/2+x,1/2-y,z
loop_
_atom_site_type_symbol
_atom_site_label
_atom_site_fract_x
_atom_site_fract_y
_atom_site_fract_z
Si Si1 0.667778 0.823576 0.437115
Si Si2 0.591045 0.327983 0.105289
Si Si3 0.908127 0.670516 0.219917
Si Si4 0.909200 0.170141 0.666482
Si Si5 0.168003 0.676664 0.000000
O O1 0.638242 0.793689 0.500000
O O2 0.750000 0.750000 0.433614
O O3 0.618343 0.754650 0.388239
O O4 0.673709 0.000000 0.430565
O O5 0.500000 0.321632 0.102574
O O6 0.613239 0.500000 0.100841
O O7 0.614837 0.259814 0.164745
O O8 0.624797 0.234940 0.054695
O O9 0.883916 0.500000 0.217482
O O10 0.883054 0.748672 0.277004
O O11 0.000000 0.671195 0.220443
O O12 0.000000 0.170225 0.667365
O O13 0.883502 0.000000 0.665707
O O14 0.250000 0.750000 0.000000
O O15 0.172605 0.500000 0.000000
#
# Coordination Sequence:
#
# PCOD9489599 Si02
#       5
#    16  16  16  16   8
#     4  10  21  37  56  77 104 140 181 224 270 321
#     4  10  20  36  59  85 112 143 181 222 265 317
#     4   9  17  31  53  81 111 142 178 220 265 314
#     4  10  20  34  54  81 112 144 178 219 268 319
#     4  12  25  40  57  79 111 147 183 224 273 322
#
# _framework density 18.725331000000001
#
# number of rings (size 3 to 8) (size 9 to 14) (size 15 to 20)
#    0.000    2.000    0.000    4.000    0.000    8.444 
#    0.000    3.333    0.000    0.000    0.000    0.000 
#    0.000    0.000    0.000    0.000    0.000    0.000 
#
# Total GULP energy -201050.096150 kJ/mol
# GULP energy per Si atom -5584.724893 kJ/mol
# Density = 1.868271 g / cm^3
# Si number density = 18.725331 Si / 1000 Ang^3
#
#
#
# Elastic Constant Matrix: (Units=GPa)
#
#
# Indices 1 2 3 4 5 6 
#
# 1 12.3755 31.3889 33.0510 0.0000 0.0000 0.0000
# 2 31.3889 191.7737 111.3097 0.0000 0.0000 0.0000
# 3 33.0510 111.3097 190.1259 0.0000 0.0000 0.0000
# 4 0.0000 0.0000 0.0000 40.6226 0.0000 0.0000
# 5 0.0000 0.0000 0.0000 0.0000 -126.2581 0.0000
# 6 0.0000 0.0000 0.0000 0.0000 0.0000 27.1279
#
#
#
# Elastic Compliance Matrix: (Units=1/GPa)
#
#
# Indices 1 2 3 4 5 6 
#
# 1 0.182308 -0.017336 -0.021543 0.000000 0.000000 0.000000
# 2 -0.017336 0.009547 -0.002576 0.000000 0.000000 0.000000
# 3 -0.021543 -0.002576 0.010513 0.000000 0.000000 0.000000
# 4 0.000000 0.000000 0.000000 0.024617 0.000000 0.000000
# 5 0.000000 0.000000 0.000000 0.000000 -0.007920 0.000000
# 6 0.000000 0.000000 0.000000 0.000000 0.000000 0.036862
#
#
# Mechanical properties :
#
#
# Convention : Reuss Voigt Hill
#
# Bulk Modulus (GPa) = 8.37104 82.86382 45.61743
# Shear Modulus (GPa) = 13.20464 2.86686 8.03575
#
# Velocity S-wave (km/s) = 2.65839 1.23868 2.07381
# Velocity P-wave (km/s) = 3.72866 6.81132 5.49076
#
# Compressibility (1/GPa) = 0.11945953
#
# Stress axis : x y z
#
# Youngs Moduli (GPa) = 5.48521 104.74584 95.12470
#
# Poissons Ratio (x) = 1.81585 2.04924
# Poissons Ratio (y) = 0.09509 0.24501
# Poissons Ratio (z) = 0.11817 0.26979
#
# Static dielectric constant tensor:
#      x y z
#    x 1.638670 0.000000 0.000000 
#    y 0.000000 1.628340 0.000000 
#    z 0.000000 0.000000 1.625830 
# 
# From -- ./inp_files/64348.got.cif
#   From: 2010.05.17/outbox.cif.g08.bks.cpg/sg65_33_cif.got.tgz:64348.got - 2010.06.03 17:01:31.
