data_PCOD9489196
_publ_section_title
;
Structure prediction by ZEFSAII (Michael W. Deem and Ramdas Pophale) SiO2 
 PCOD9489196
Probable space group: C M M M
;
_chemical_formula_sum "Si O2"
_cell_formula_units_Z 88
_cell_length_a 8.527858
_cell_length_b 19.843384
_cell_length_c 28.809337
_cell_angle_alpha 90.000000
_cell_angle_beta 90.000000
_cell_angle_gamma 90.000000
_cell_volume 4875.160978
_symmetry_space_group_name_H-M "C M M M"
_symmetry_group_IT_number 65
_symmetry_cell_setting 'orthorhombic'
loop_
_space_group_symop_operation_xyz
x,y,z
-x,-y,z
x,-y,-z
-x,y,-z
-x,-y,-z
x,y,-z
-x,y,z
x,-y,z
1/2+x,1/2+y,z
1/2-x,1/2-y,z
1/2+x,1/2-y,-z
1/2-x,1/2+y,-z
1/2-x,1/2-y,-z
1/2+x,1/2+y,-z
1/2-x,1/2+y,z
1/2+x,1/2-y,z
loop_
_atom_site_type_symbol
_atom_site_label
_atom_site_fract_x
_atom_site_fract_y
_atom_site_fract_z
Si Si1 0.687840 0.175370 0.319501
Si Si2 0.182294 0.082004 0.500000
Si Si3 0.189682 0.577487 0.131317
Si Si4 0.189274 0.324682 0.213501
Si Si5 0.812225 0.823458 0.946132
Si Si6 0.690020 0.421860 0.601169
O O1 0.500000 0.175635 0.320565
O O2 0.750000 0.250000 0.330187
O O3 0.738340 0.159567 0.266447
O O4 0.750664 0.123232 0.357021
O O5 0.249156 0.101973 0.449870
O O6 0.000000 0.103303 0.500000
O O7 0.182633 0.000000 0.500000
O O8 0.243239 0.500000 0.131915
O O9 0.242156 0.619835 0.176470
O O10 0.246869 0.618307 0.086544
O O11 0.000000 0.577184 0.131323
O O12 0.250000 0.250000 0.201616
O O13 0.000000 0.322693 0.212613
O O14 0.750000 0.750000 0.931041
O O15 0.000000 0.822863 0.943901
O O16 0.764508 0.832945 0.000000
O O17 0.500000 0.420096 0.599892
O O18 0.736377 0.500000 0.607361
#
# Coordination Sequence:
#
# PCOD9489196 Si02
#       6
#    16   8  16  16  16  16
#     4  10  20  34  52  74 102 134 168 208 254 302
#     4   7  12  26  48  71  96 129 165 201 246 299
#     4  10  21  36  54  78 108 139 170 207 253 303
#     4   9  19  35  54  74  98 132 171 210 252 300
#     4  10  21  37  57  80 106 137 174 214 254 299
#     4   9  17  31  52  76 101 130 166 207 251 301
#
# _framework density 18.050685999999999
#
# number of rings (size 3 to 8) (size 9 to 14) (size 15 to 20)
#    0.000    2.636    0.000    2.727    0.000    5.818 
#    0.000    4.545    0.000    1.636    0.000    0.000 
#    0.000    0.000    0.000    0.000    0.000    0.000 
#
# Total GULP energy -245371.929719 kJ/mol
# GULP energy per Si atom -5576.634766 kJ/mol
# Density = 1.800960 g / cm^3
# Si number density = 18.050686 Si / 1000 Ang^3
#
#
#
# Elastic Constant Matrix: (Units=GPa)
#
#
# Indices 1 2 3 4 5 6 
#
# 1 12.5005 25.6594 25.9962 0.0000 0.0000 0.0000
# 2 25.6594 146.0935 116.4229 0.0000 0.0000 0.0000
# 3 25.9962 116.4229 144.6834 0.0000 0.0000 0.0000
# 4 0.0000 0.0000 0.0000 35.7028 0.0000 0.0000
# 5 0.0000 0.0000 0.0000 0.0000 21.0089 0.0000
# 6 0.0000 0.0000 0.0000 0.0000 0.0000 25.5285
#
#
#
# Elastic Compliance Matrix: (Units=1/GPa)
#
#
# Indices 1 2 3 4 5 6 
#
# 1 0.135122 -0.012223 -0.014443 0.000000 0.000000 0.000000
# 2 -0.012223 0.020186 -0.014047 0.000000 0.000000 0.000000
# 3 -0.014443 -0.014047 0.020810 0.000000 0.000000 0.000000
# 4 0.000000 0.000000 0.000000 0.028009 0.000000 0.000000
# 5 0.000000 0.000000 0.000000 0.000000 0.047599 0.000000
# 6 0.000000 0.000000 0.000000 0.000000 0.000000 0.039172
#
#
# Mechanical properties :
#
#
# Convention : Reuss Voigt Hill
#
# Bulk Modulus (GPa) = 10.56046 71.04828 40.80437
# Shear Modulus (GPa) = 12.37971 25.46129 18.92050
#
# Velocity S-wave (km/s) = 2.62168 3.75980 3.24108
# Velocity P-wave (km/s) = 3.87652 7.63505 6.05481
#
# Compressibility (1/GPa) = 0.09469281
#
# Stress axis : x y z
#
# Youngs Moduli (GPa) = 7.40070 49.54040 48.05448
#
# Poissons Ratio (x) = 0.60551 0.69406
# Poissons Ratio (y) = 0.09046 0.67500
# Poissons Ratio (z) = 0.10689 0.69588
#
# Static dielectric constant tensor:
#      x y z
#    x 1.622910 0.000000 0.000000 
#    y 0.000000 1.581690 0.000000 
#    z 0.000000 0.000000 1.640470 
# 
# From -- ./inp_files/67567.got.cif
#   From: 2010.05.17/outbox.cif.g08.bks.cpg/sg65_34_cif.got.tgz:67567.got - 2010.06.03 17:01:31.
