data_PCOD9489052
_publ_section_title
;
Structure prediction by ZEFSAII (Michael W. Deem and Ramdas Pophale) SiO2 
 PCOD9489052
Probable space group: C M M M
;
_chemical_formula_sum "Si O2"
_cell_formula_units_Z 80
_cell_length_a 8.117821
_cell_length_b 29.648161
_cell_length_c 23.019589
_cell_angle_alpha 90.000000
_cell_angle_beta 90.000000
_cell_angle_gamma 90.000000
_cell_volume 5540.319322
_symmetry_space_group_name_H-M "C M M M"
_symmetry_group_IT_number 65
_symmetry_cell_setting 'orthorhombic'
loop_
_space_group_symop_operation_xyz
x,y,z
-x,-y,z
x,-y,-z
-x,y,-z
-x,-y,-z
x,y,-z
-x,y,z
x,-y,z
1/2+x,1/2+y,z
1/2-x,1/2-y,z
1/2+x,1/2-y,-z
1/2-x,1/2+y,-z
1/2-x,1/2-y,-z
1/2+x,1/2+y,-z
1/2-x,1/2+y,z
1/2+x,1/2-y,z
loop_
_atom_site_type_symbol
_atom_site_label
_atom_site_fract_x
_atom_site_fract_y
_atom_site_fract_z
Si Si1 0.500000 0.554984 0.432850
Si Si2 0.303148 0.551401 0.000000
Si Si3 0.189832 0.554855 0.355555
Si Si4 0.799449 0.551674 0.223966
Si Si5 0.196261 0.606804 0.886529
Si Si6 0.196280 0.200598 0.933494
O O1 0.500000 0.500000 0.431681
O O2 0.500000 0.568972 0.500000
O O3 0.332720 0.569407 0.399760
O O4 0.250049 0.578186 0.057364
O O5 0.238586 0.500000 0.000000
O O6 0.500000 0.549786 0.000000
O O7 0.185450 0.500000 0.356561
O O8 0.239442 0.566912 0.289444
O O9 0.000000 0.569600 0.367316
O O10 0.742349 0.500000 0.215451
O O11 0.739180 0.583505 0.172277
O O12 0.000000 0.550460 0.221964
O O13 0.247531 0.658371 0.895838
O O14 0.000000 0.605258 0.884180
O O15 0.250000 0.250000 0.912784
O O16 0.000000 0.199658 0.936263
O O17 0.261111 0.195094 0.000000
#
# Coordination Sequence:
#
# PCOD9489052 Si02
#       6
#     8   8  16  16  16  16
#     4   9  16  24  36  58  82 105 143 185 217 254
#     4  11  23  35  42  57  88 115 139 179 225 263
#     4   8  14  26  40  54  78 110 143 181 217 249
#     4   8  15  28  44  61  82 111 147 181 211 254
#     4  11  20  31  49  67  83 107 142 180 222 270
#     4  10  20  34  50  65  84 105 132 173 220 267
#
# _framework density 14.439602000000001
#
# number of rings (size 3 to 8) (size 9 to 14) (size 15 to 20)
#    0.000    2.600    1.000    3.300    0.000    2.800 
#    3.600    2.000    0.000    0.000    0.000    0.000 
#    0.000    0.000    0.000    0.000    0.000    1.000 
#
# Total GULP energy -222866.249503 kJ/mol
# GULP energy per Si atom -5571.656238 kJ/mol
# Density = 1.440674 g / cm^3
# Si number density = 14.439602 Si / 1000 Ang^3
#
#
#
# Elastic Constant Matrix: (Units=GPa)
#
#
# Indices 1 2 3 4 5 6 
#
# 1 59.3008 23.8951 49.8007 0.0000 0.0000 0.0000
# 2 23.8951 76.0246 51.9899 0.0000 0.0000 0.0000
# 3 49.8007 51.9899 126.4097 0.0000 0.0000 0.0000
# 4 0.0000 0.0000 0.0000 1.8531 0.0000 0.0000
# 5 0.0000 0.0000 0.0000 0.0000 10.5284 0.0000
# 6 0.0000 0.0000 0.0000 0.0000 0.0000 16.9767
#
#
#
# Elastic Compliance Matrix: (Units=1/GPa)
#
#
# Indices 1 2 3 4 5 6 
#
# 1 0.025337 -0.001583 -0.009331 0.000000 0.000000 0.000000
# 2 -0.001583 0.018400 -0.006944 0.000000 0.000000 0.000000
# 3 -0.009331 -0.006944 0.014443 0.000000 0.000000 0.000000
# 4 0.000000 0.000000 0.000000 0.539649 0.000000 0.000000
# 5 0.000000 0.000000 0.000000 0.000000 0.094981 0.000000
# 6 0.000000 0.000000 0.000000 0.000000 0.000000 0.058904
#
#
# Mechanical properties :
#
#
# Convention : Reuss Voigt Hill
#
# Bulk Modulus (GPa) = 44.51474 57.01182 50.76328
# Shear Modulus (GPa) = 6.28996 14.94158 10.61577
#
# Velocity S-wave (km/s) = 2.08938 3.22026 2.71437
# Velocity P-wave (km/s) = 6.05936 7.30722 6.71235
#
# Compressibility (1/GPa) = 0.02246447
#
# Stress axis : x y z
#
# Youngs Moduli (GPa) = 39.46798 54.34857 69.23891
#
# Poissons Ratio (x) = 0.08601 0.64606
# Poissons Ratio (y) = 0.06246 0.48079
# Poissons Ratio (z) = 0.36827 0.37740
#
# Static dielectric constant tensor:
#      x y z
#    x 1.505860 0.000000 0.000000 
#    y 0.000000 1.465840 0.000000 
#    z 0.000000 0.000000 1.485450 
# 
# From -- ./inp_files/60063.got.cif
#   From: 2010.05.17/outbox.cif.g08.bks.cpg/sg65_31_cif.got.tgz:60063.got - 2010.06.03 17:01:31.
