data_PCOD9489174
_publ_section_title
;
Structure prediction by ZEFSAII (Michael W. Deem and Ramdas Pophale) SiO2 
 PCOD9489174
Probable space group: C M M M
;
_chemical_formula_sum "Si O2"
_cell_formula_units_Z 80
_cell_length_a 7.677169
_cell_length_b 19.144208
_cell_length_c 26.979887
_cell_angle_alpha 90.000000
_cell_angle_beta 90.000000
_cell_angle_gamma 90.000000
_cell_volume 3965.323571
_symmetry_space_group_name_H-M "C M M M"
_symmetry_group_IT_number 65
_symmetry_cell_setting 'orthorhombic'
loop_
_space_group_symop_operation_xyz
x,y,z
-x,-y,z
x,-y,-z
-x,y,-z
-x,-y,-z
x,y,-z
-x,y,z
x,-y,z
1/2+x,1/2+y,z
1/2-x,1/2-y,z
1/2+x,1/2-y,-z
1/2-x,1/2+y,-z
1/2-x,1/2-y,-z
1/2+x,1/2+y,-z
1/2-x,1/2+y,z
1/2+x,1/2-y,z
loop_
_atom_site_type_symbol
_atom_site_label
_atom_site_fract_x
_atom_site_fract_y
_atom_site_fract_z
Si Si1 0.786479 0.918766 0.392366
Si Si2 0.706829 0.920947 0.093148
Si Si3 0.209967 0.331911 0.000000
Si Si4 0.292544 0.331281 0.188272
Si Si5 0.790675 0.831049 0.298850
Si Si6 0.205441 0.915128 0.500000
O O1 0.724727 0.876076 0.344874
O O2 0.724320 0.892269 0.446450
O O3 0.000000 0.916235 0.393357
O O4 0.738837 0.000000 0.387452
O O5 0.500000 0.926593 0.084792
O O6 0.730143 0.882076 0.145258
O O7 0.778047 0.000000 0.092972
O O8 0.776301 0.872197 0.048849
O O9 0.250000 0.250000 0.000000
O O10 0.000000 0.336292 0.000000
O O11 0.500000 0.336838 0.189680
O O12 0.250000 0.250000 0.177817
O O13 0.224381 0.348788 0.243554
O O14 0.750000 0.750000 0.307128
O O15 0.000000 0.839527 0.297735
O O16 0.000000 0.897804 0.500000
O O17 0.217105 0.000000 0.500000
#
# Coordination Sequence:
#
# PCOD9489174 Si02
#       6
#    16  16   8  16  16   8
#     4   8  13  23  41  64  88 116 153 195 236 277
#     4  10  21  37  56  78 105 134 163 200 245 289
#     4  10  21  37  57  79 103 134 169 200 236 286
#     4  10  20  34  52  73  98 131 169 205 243 291
#     4   9  18  31  47  67  94 126 156 192 237 284
#     4   7  10  18  35  60  87 113 146 191 236 276
#
# _framework density 20.174899
#
# number of rings (size 3 to 8) (size 9 to 14) (size 15 to 20)
#    0.000    2.900    0.000    2.700    0.000    5.600 
#    0.000    2.500    0.000    2.400    0.000    0.000 
#    0.000    2.400    0.000    0.000    0.000    0.000 
#
# Total GULP energy -223026.061800 kJ/mol
# GULP energy per Si atom -5575.651545 kJ/mol
# Density = 2.012898 g / cm^3
# Si number density = 20.174899 Si / 1000 Ang^3
#
#
#
# Elastic Constant Matrix: (Units=GPa)
#
#
# Indices 1 2 3 4 5 6 
#
# 1 36.5182 2.3556 4.9760 0.0000 0.0000 0.0000
# 2 2.3556 126.1800 132.1326 0.0000 0.0000 0.0000
# 3 4.9760 132.1326 225.8241 0.0000 0.0000 0.0000
# 4 0.0000 0.0000 0.0000 36.6891 0.0000 0.0000
# 5 0.0000 0.0000 0.0000 0.0000 152.6933 0.0000
# 6 0.0000 0.0000 0.0000 0.0000 0.0000 15.1675
#
#
#
# Elastic Compliance Matrix: (Units=1/GPa)
#
#
# Indices 1 2 3 4 5 6 
#
# 1 0.027471 0.000313 -0.000788 0.000000 0.000000 0.000000
# 2 0.000313 0.020467 -0.011982 0.000000 0.000000 0.000000
# 3 -0.000788 -0.011982 0.011457 0.000000 0.000000 0.000000
# 4 0.000000 0.000000 0.000000 0.027256 0.000000 0.000000
# 5 0.000000 0.000000 0.000000 0.000000 0.006549 0.000000
# 6 0.000000 0.000000 0.000000 0.000000 0.000000 0.065930
#
#
# Mechanical properties :
#
#
# Convention : Reuss Voigt Hill
#
# Bulk Modulus (GPa) = 29.00363 74.16117 51.58240
# Shear Modulus (GPa) = 25.57033 57.51385 41.54209
#
# Velocity S-wave (km/s) = 3.56396 5.34505 4.54265
# Velocity P-wave (km/s) = 5.59849 8.65630 7.28954
#
# Compressibility (1/GPa) = 0.03447844
#
# Stress axis : x y z
#
# Youngs Moduli (GPa) = 36.40219 48.85905 87.28549
#
# Poissons Ratio (x) = -0.01527 0.06880
# Poissons Ratio (y) = -0.01138 1.04589
# Poissons Ratio (z) = 0.02869 0.58545
#
# Static dielectric constant tensor:
#      x y z
#    x 1.773820 0.000000 0.000000 
#    y 0.000000 1.665700 0.000000 
#    z 0.000000 0.000000 1.751400 
# 
# From -- ./inp_files/72914.got.cif
#   From: 2010.05.17/outbox.cif.g08.bks.cpg/sg65_37_cif.got.tgz:72914.got - 2010.06.03 17:01:31.
