data_PCOD9489236
_publ_section_title
;
Structure prediction by ZEFSAII (Michael W. Deem and Ramdas Pophale) SiO2 
 PCOD9489236
Probable space group: C M M M
;
_chemical_formula_sum "Si O2"
_cell_formula_units_Z 104
_cell_length_a 21.166140
_cell_length_b 25.915142
_cell_length_c 9.468142
_cell_angle_alpha 90.000000
_cell_angle_beta 90.000000
_cell_angle_gamma 90.000000
_cell_volume 5193.498613
_symmetry_space_group_name_H-M "C M M M"
_symmetry_group_IT_number 65
_symmetry_cell_setting 'orthorhombic'
loop_
_space_group_symop_operation_xyz
x,y,z
-x,-y,z
x,-y,-z
-x,y,-z
-x,-y,-z
x,y,-z
-x,y,z
x,-y,z
1/2+x,1/2+y,z
1/2-x,1/2-y,z
1/2+x,1/2-y,-z
1/2-x,1/2+y,-z
1/2-x,1/2-y,-z
1/2+x,1/2+y,-z
1/2-x,1/2+y,z
1/2+x,1/2-y,z
loop_
_atom_site_type_symbol
_atom_site_label
_atom_site_fract_x
_atom_site_fract_y
_atom_site_fract_z
Si Si1 0.265060 0.587668 0.663540
Si Si2 0.072828 0.759866 0.670746
Si Si3 0.000000 0.936610 0.340221
Si Si4 0.075508 0.655349 0.839978
Si Si5 0.121319 0.558141 0.664616
Si Si6 0.792920 0.203016 0.329640
Si Si7 0.616367 0.439250 0.157020
O O1 0.286797 0.583005 0.500000
O O2 0.197301 0.561445 0.673082
O O3 0.261056 0.648251 0.700235
O O4 0.316856 0.565253 0.767265
O O5 0.073053 0.755144 0.500000
O O6 0.089136 0.704815 0.742000
O O7 0.133033 0.795102 0.712901
O O8 0.000000 0.774281 0.710808
O O9 0.938355 0.918195 0.257468
O O10 0.000000 0.917700 0.500000
O O11 0.000000 0.000000 0.345771
O O12 0.096393 0.602842 0.764828
O O13 0.000000 0.653835 0.849658
O O14 0.101074 0.660405 0.000000
O O15 0.104103 0.568119 0.500000
O O16 0.100559 0.500000 0.700882
O O17 0.793614 0.207796 0.500000
O O18 0.750000 0.250000 0.274164
O O19 0.602152 0.500000 0.143971
O O20 0.616101 0.416581 0.000000
#
# Coordination Sequence:
#
# PCOD9489236 Si02
#       7
#    16  16   8  16  16  16  16
#     4  10  20  35  55  80 107 138 179 225 270 317
#     4   9  17  32  55  80 106 138 177 220 265 319
#     4   9  17  31  53  77  99 131 177 223 263 305
#     4  10  21  36  55  80 109 141 177 218 269 330
#     4  10  21  36  55  79 107 142 184 228 271 319
#     4   9  17  31  53  79 105 135 174 222 273 321
#     4  10  20  34  52  75 107 144 179 217 265 321
#
# _framework density 20.025036
#
# number of rings (size 3 to 8) (size 9 to 14) (size 15 to 20)
#    0.000    2.385    0.000    2.538    0.000    7.077 
#    1.385    2.308    0.000    1.846    0.000    0.000 
#    0.000    0.000    0.000    0.000    0.000    0.000 
#
# Total GULP energy -290027.770291 kJ/mol
# GULP energy per Si atom -5577.457121 kJ/mol
# Density = 1.997946 g / cm^3
# Si number density = 20.025036 Si / 1000 Ang^3
#
#
#
# Elastic Constant Matrix: (Units=GPa)
#
#
# Indices 1 2 3 4 5 6 
#
# 1 19.6040 2.1220 2.5900 0.0000 0.0000 0.0000
# 2 2.1220 37.8556 -6.0795 0.0000 0.0000 0.0000
# 3 2.5900 -6.0795 62.5424 0.0000 0.0000 0.0000
# 4 0.0000 0.0000 0.0000 1.9558 0.0000 0.0000
# 5 0.0000 0.0000 0.0000 0.0000 2.4511 0.0000
# 6 0.0000 0.0000 0.0000 0.0000 0.0000 46.0470
#
#
#
# Elastic Compliance Matrix: (Units=1/GPa)
#
#
# Indices 1 2 3 4 5 6 
#
# 1 0.051692 -0.003293 -0.002461 0.000000 0.000000 0.000000
# 2 -0.003293 0.027045 0.002765 0.000000 0.000000 0.000000
# 3 -0.002461 0.002765 0.016360 0.000000 0.000000 0.000000
# 4 0.000000 0.000000 0.000000 0.511309 0.000000 0.000000
# 5 0.000000 0.000000 0.000000 0.000000 0.407979 0.000000
# 6 0.000000 0.000000 0.000000 0.000000 0.000000 0.021717
#
#
# Mechanical properties :
#
#
# Convention : Reuss Voigt Hill
#
# Bulk Modulus (GPa) = 11.22085 13.02967 12.12526
# Shear Modulus (GPa) = 4.66511 18.18206 11.42359
#
# Velocity S-wave (km/s) = 1.52797 3.01652 2.39103
# Velocity P-wave (km/s) = 2.95440 4.31895 3.70012
#
# Compressibility (1/GPa) = 0.08911982
#
# Stress axis : x y z
#
# Youngs Moduli (GPa) = 19.34549 36.97562 61.12515
#
# Poissons Ratio (x) = 0.12175 0.15042
# Poissons Ratio (y) = 0.06370 -0.16903
# Poissons Ratio (z) = 0.04760 -0.10225
#
# Static dielectric constant tensor:
#      x y z
#    x 1.712190 0.000000 0.000000 
#    y 0.000000 1.970010 0.000000 
#    z 0.000000 0.000000 1.699900 
# 
# From -- ./inp_files/12389.got.cif
#   From: 2010.05.17/outbox.cif.g08.bks.cpg/sg65_7_cif.got.tgz:12389.got - 2010.06.03 17:01:31.
