data_PCOD9489287
_publ_section_title
;
Structure prediction by ZEFSAII (Michael W. Deem and Ramdas Pophale) SiO2 
 PCOD9489287
Probable space group: C M M M
;
_chemical_formula_sum "Si O2"
_cell_formula_units_Z 120
_cell_length_a 27.859014
_cell_length_b 7.614786
_cell_length_c 28.020362
_cell_angle_alpha 90.000000
_cell_angle_beta 90.000000
_cell_angle_gamma 90.000000
_cell_volume 5944.251637
_symmetry_space_group_name_H-M "C M M M"
_symmetry_group_IT_number 65
_symmetry_cell_setting 'orthorhombic'
loop_
_space_group_symop_operation_xyz
x,y,z
-x,-y,z
x,-y,-z
-x,y,-z
-x,-y,-z
x,y,-z
-x,y,z
x,-y,z
1/2+x,1/2+y,z
1/2-x,1/2-y,z
1/2+x,1/2-y,-z
1/2-x,1/2+y,-z
1/2-x,1/2-y,-z
1/2+x,1/2+y,-z
1/2-x,1/2+y,z
1/2+x,1/2-y,z
loop_
_atom_site_type_symbol
_atom_site_label
_atom_site_fract_x
_atom_site_fract_y
_atom_site_fract_z
Si Si1 0.945331 0.713505 0.289009
Si Si2 0.552589 0.707176 0.084729
Si Si3 0.606071 0.212036 0.614815
Si Si4 0.593522 0.214055 0.813358
Si Si5 0.804088 0.297228 0.153596
Si Si6 0.943388 0.000000 0.553249
Si Si7 0.343628 0.712643 0.052232
Si Si8 0.805159 0.290484 0.446305
O O1 0.946376 0.500000 0.287768
O O2 0.908920 0.760584 0.331429
O O3 0.927689 0.772404 0.237080
O O4 0.000000 0.772213 0.298845
O O5 0.500000 0.780745 0.072253
O O6 0.551228 0.500000 0.073357
O O7 0.562216 0.728091 0.141255
O O8 0.601418 0.776376 0.060624
O O9 0.572249 0.324793 0.580652
O O10 0.658693 0.264176 0.595415
O O11 0.600263 0.000000 0.610029
O O12 0.648070 0.281832 0.822056
O O13 0.593070 0.000000 0.813950
O O14 0.808019 0.500000 0.164469
O O15 0.750000 0.250000 0.167247
O O16 0.812075 0.270181 0.097003
O O17 0.922760 0.000000 0.500000
O O18 0.000000 0.000000 0.550556
O O19 0.344414 0.500000 0.053365
O O20 0.326733 0.769132 0.000000
O O21 0.816122 0.220887 0.500000
O O22 0.809857 0.500000 0.449189
O O23 0.750000 0.250000 0.435890
#
# Coordination Sequence:
#
# PCOD9489287 Si02
#       8
#    16  16  16  16  16   8  16  16
#     4   9  17  32  56  80 104 139 177 214 260 316
#     4   9  17  29  46  71 102 132 164 206 256 307
#     4  10  21  38  58  82 116 152 190 237 286 337
#     4   9  18  33  53  76  99 128 172 215 256 309
#     4  10  20  34  53  74  99 131 167 215 265 316
#     4  11  24  38  56  84 116 154 196 236 282 338
#     4   9  18  32  49  70  98 132 170 211 255 308
#     4   9  18  32  53  80 107 141 184 229 278 327
#
# _framework density 20.187571999999999
#
# number of rings (size 3 to 8) (size 9 to 14) (size 15 to 20)
#    0.000    2.600    0.000    1.600    0.933    3.733 
#    1.200    2.667    0.000    0.000    0.000    3.733 
#    0.000    0.000    0.000    0.000    0.000    0.000 
#
# Total GULP energy -334540.255236 kJ/mol
# GULP energy per Si atom -5575.670921 kJ/mol
# Density = 2.014162 g / cm^3
# Si number density = 20.187572 Si / 1000 Ang^3
#
#
#
# Elastic Constant Matrix: (Units=GPa)
#
#
# Indices 1 2 3 4 5 6 
#
# 1 98.2723 -4.8391 8.2817 0.0000 0.0000 0.0000
# 2 -4.8391 34.7481 -16.5598 0.0000 0.0000 0.0000
# 3 8.2817 -16.5598 60.9283 0.0000 0.0000 0.0000
# 4 0.0000 0.0000 0.0000 58.1709 0.0000 0.0000
# 5 0.0000 0.0000 0.0000 0.0000 6.4503 0.0000
# 6 0.0000 0.0000 0.0000 0.0000 0.0000 10.8290
#
#
#
# Elastic Compliance Matrix: (Units=1/GPa)
#
#
# Indices 1 2 3 4 5 6 
#
# 1 0.010317 0.000883 -0.001162 0.000000 0.000000 0.000000
# 2 0.000883 0.033136 0.008886 0.000000 0.000000 0.000000
# 3 -0.001162 0.008886 0.018986 0.000000 0.000000 0.000000
# 4 0.000000 0.000000 0.000000 0.017191 0.000000 0.000000
# 5 0.000000 0.000000 0.000000 0.000000 0.155031 0.000000
# 6 0.000000 0.000000 0.000000 0.000000 0.000000 0.092345
#
#
# Mechanical properties :
#
#
# Convention : Reuss Voigt Hill
#
# Bulk Modulus (GPa) = 12.55451 18.63493 15.59472
# Shear Modulus (GPa) = 14.86572 28.89441 21.88007
#
# Velocity S-wave (km/s) = 2.71658 3.78735 3.29574
# Velocity P-wave (km/s) = 4.00901 5.32694 4.71426
#
# Compressibility (1/GPa) = 0.07965268
#
# Stress axis : x y z
#
# Youngs Moduli (GPa) = 96.92513 30.17830 52.67062
#
# Poissons Ratio (x) = -0.02664 0.06123
# Poissons Ratio (y) = -0.08557 -0.46804
# Poissons Ratio (z) = 0.11267 -0.26817
#
# Static dielectric constant tensor:
#      x y z
#    x 1.742490 0.000000 0.000000 
#    y 0.000000 1.262220 0.000000 
#    z 0.000000 0.000000 1.698770 
# 
# From -- ./inp_files/76170.got.cif
#   From: 2010.05.17/outbox.cif.g08.bks.cpg/sg65_39_cif.got.tgz:76170.got - 2010.06.03 17:01:31.
