data_PCOD9489086
_publ_section_title
;
Structure prediction by ZEFSAII (Michael W. Deem and Ramdas Pophale) SiO2 
 PCOD9489086
Probable space group: C M M M
;
_chemical_formula_sum "Si O2"
_cell_formula_units_Z 104
_cell_length_a 29.178731
_cell_length_b 24.894131
_cell_length_c 8.735221
_cell_angle_alpha 90.000000
_cell_angle_beta 90.000000
_cell_angle_gamma 90.000000
_cell_volume 6345.082422
_symmetry_space_group_name_H-M "C M M M"
_symmetry_group_IT_number 65
_symmetry_cell_setting 'orthorhombic'
loop_
_space_group_symop_operation_xyz
x,y,z
-x,-y,z
x,-y,-z
-x,y,-z
-x,-y,-z
x,y,-z
-x,y,z
x,-y,z
1/2+x,1/2+y,z
1/2-x,1/2-y,z
1/2+x,1/2-y,-z
1/2-x,1/2+y,-z
1/2-x,1/2-y,-z
1/2+x,1/2+y,-z
1/2-x,1/2+y,z
1/2+x,1/2-y,z
loop_
_atom_site_type_symbol
_atom_site_label
_atom_site_fract_x
_atom_site_fract_y
_atom_site_fract_z
Si Si1 0.446337 0.734799 0.316925
Si Si2 0.175660 0.062703 0.314485
Si Si3 0.626909 0.938448 0.816022
Si Si4 0.090425 0.127234 0.816222
Si Si5 0.777071 0.565172 0.676330
Si Si6 0.447005 0.148680 0.185051
Si Si7 0.500000 0.561697 0.186292
O O1 0.442739 0.733898 0.500000
O O2 0.500000 0.725451 0.275049
O O3 0.416779 0.687255 0.245019
O O4 0.434249 0.793618 0.254199
O O5 0.175039 0.064443 0.500000
O O6 0.135619 0.098821 0.247435
O O7 0.226725 0.081199 0.265220
O O8 0.169132 0.000000 0.269921
O O9 0.677430 0.919316 0.766587
O O10 0.587393 0.898018 0.763229
O O11 0.620398 0.000000 0.760519
O O12 0.625240 0.939942 0.000000
O O13 0.045774 0.092876 0.765418
O O14 0.091461 0.127498 0.000000
O O15 0.781732 0.582434 0.500000
O O16 0.775675 0.500000 0.677143
O O17 0.500000 0.137308 0.227010
O O18 0.444965 0.152151 0.000000
O O19 0.500000 0.500000 0.238571
O O20 0.500000 0.561216 0.000000
#
# Coordination Sequence:
#
# PCOD9489086 Si02
#       7
#    16  16  16  16  16  16   8
#     4  10  20  34  51  69  92 124 167 209 242 282
#     4   9  18  32  48  69  98 129 163 202 243 288
#     4   9  17  29  48  76 105 130 158 194 235 282
#     4  11  20  31  49  70  96 128 162 202 246 292
#     4   8  15  29  48  68  94 130 165 196 234 284
#     4   9  18  32  50  72 100 132 163 195 235 284
#     4   9  18  30  43  65  97 127 154 189 236 289
#
# _framework density 16.390646
#
# number of rings (size 3 to 8) (size 9 to 14) (size 15 to 20)
#    0.000    2.692    0.769    2.308    0.000    3.077 
#    0.000    3.077    0.000    2.769    0.000   10.769 
#    0.000    0.000    0.000    0.000    0.000    0.000 
#
# Total GULP energy -289809.874954 kJ/mol
# GULP energy per Si atom -5573.266826 kJ/mol
# Density = 1.635334 g / cm^3
# Si number density = 16.390646 Si / 1000 Ang^3
#
#
#
# Elastic Constant Matrix: (Units=GPa)
#
#
# Indices 1 2 3 4 5 6 
#
# 1 143.2667 92.2263 30.8478 0.0000 0.0000 0.0000
# 2 92.2263 110.4674 28.6942 0.0000 0.0000 0.0000
# 3 30.8478 28.6942 18.1214 0.0000 0.0000 0.0000
# 4 0.0000 0.0000 0.0000 19.2135 0.0000 0.0000
# 5 0.0000 0.0000 0.0000 0.0000 24.6344 0.0000
# 6 0.0000 0.0000 0.0000 0.0000 0.0000 7.9302
#
#
#
# Elastic Compliance Matrix: (Units=1/GPa)
#
#
# Indices 1 2 3 4 5 6 
#
# 1 0.016177 -0.010791 -0.010450 0.000000 0.000000 0.000000
# 2 -0.010791 0.022575 -0.017378 0.000000 0.000000 0.000000
# 3 -0.010450 -0.017378 0.100489 0.000000 0.000000 0.000000
# 4 0.000000 0.000000 0.000000 0.052047 0.000000 0.000000
# 5 0.000000 0.000000 0.000000 0.000000 0.040594 0.000000
# 6 0.000000 0.000000 0.000000 0.000000 0.000000 0.126100
#
#
# Mechanical properties :
#
#
# Convention : Reuss Voigt Hill
#
# Bulk Modulus (GPa) = 16.12812 63.93246 40.03029
# Shear Modulus (GPa) = 10.96761 18.36145 14.66453
#
# Velocity S-wave (km/s) = 2.58958 3.35063 2.99438
# Velocity P-wave (km/s) = 4.33617 7.35249 6.03579
#
# Compressibility (1/GPa) = 0.06200351
#
# Stress axis : x y z
#
# Youngs Moduli (GPa) = 61.81730 44.29594 9.95129
#
# Poissons Ratio (x) = 0.47800 0.10400
# Poissons Ratio (y) = 0.66707 0.17293
# Poissons Ratio (z) = 0.64602 0.76976
#
# Static dielectric constant tensor:
#      x y z
#    x 1.552180 0.000000 0.000000 
#    y 0.000000 1.530920 0.000000 
#    z 0.000000 0.000000 1.553050 
# 
# From -- ./inp_files/18695.got.cif
#   From: 2010.05.17/outbox.cif.g08.bks.cpg/sg65_10_cif.got.tgz:18695.got - 2010.06.03 17:01:31.
