data_PCOD9489903
_publ_section_title
;
Structure prediction by ZEFSAII (Michael W. Deem and Ramdas Pophale) SiO2 
 PCOD9489903
Probable space group: C M M M
;
_chemical_formula_sum "Si O2"
_cell_formula_units_Z 116
_cell_length_a 8.471941
_cell_length_b 30.653358
_cell_length_c 26.112704
_cell_angle_alpha 90.000000
_cell_angle_beta 90.000000
_cell_angle_gamma 90.000000
_cell_volume 6781.297941
_symmetry_space_group_name_H-M "C M M M"
_symmetry_group_IT_number 65
_symmetry_cell_setting 'orthorhombic'
loop_
_space_group_symop_operation_xyz
x,y,z
-x,-y,z
x,-y,-z
-x,y,-z
-x,-y,-z
x,y,-z
-x,y,z
x,-y,z
1/2+x,1/2+y,z
1/2-x,1/2-y,z
1/2+x,1/2-y,-z
1/2-x,1/2+y,-z
1/2-x,1/2-y,-z
1/2+x,1/2+y,-z
1/2-x,1/2+y,z
1/2+x,1/2-y,z
loop_
_atom_site_type_symbol
_atom_site_label
_atom_site_fract_x
_atom_site_fract_y
_atom_site_fract_z
Si Si1 0.812965 0.299761 0.835756
Si Si2 0.811781 0.795292 0.655528
Si Si3 0.310729 0.700171 0.944445
Si Si4 0.312415 0.567529 0.415023
Si Si5 0.288449 0.000000 0.500000
Si Si6 0.190498 0.860730 0.745214
Si Si7 0.187122 0.661921 0.558160
Si Si8 0.192073 0.951413 0.296580
O O1 0.750000 0.250000 0.828511
O O2 0.756818 0.317293 0.891290
O O3 0.756096 0.332636 0.791957
O O4 0.000000 0.296785 0.835440
O O5 0.750000 0.750000 0.678125
O O6 0.769031 0.834800 0.693169
O O7 0.734297 0.803094 0.600561
O O8 0.000000 0.794134 0.650616
O O9 0.500000 0.700297 0.941364
O O10 0.250000 0.750000 0.945552
O O11 0.265199 0.680544 0.000000
O O12 0.500000 0.557942 0.421689
O O13 0.220940 0.537726 0.455203
O O14 0.279208 0.617715 0.427660
O O15 0.269247 0.557476 0.356279
O O16 0.245753 0.910602 0.737766
O O17 0.000000 0.860897 0.749355
O O18 0.225449 0.674846 0.500000
O O19 0.000000 0.653365 0.561119
O O20 0.000000 0.951359 0.294566
O O21 0.246592 0.000000 0.282153
#
# Coordination Sequence:
#
# PCOD9489903 Si02
#       8
#    16  16  16  16   4  16  16  16
#     4  11  21  32  49  74 106 145 184 223 260 302
#     4  11  23  39  59  79  98 127 164 208 257 306
#     4   9  16  27  45  70 103 143 183 222 261 301
#     4  11  19  32  53  79 102 126 158 197 246 303
#     4  12  21  28  57  90 107 124 161 210 251 316
#     4  10  20  35  54  77 103 133 169 212 257 302
#     4  11  24  39  53  72  99 129 159 197 246 303
#     4   9  17  31  53  78 102 127 162 204 250 305
#
# _framework density 17.105869999999999
#
# number of rings (size 3 to 8) (size 9 to 14) (size 15 to 20)
#    0.000    1.655    2.759    4.345    0.000    4.138 
#    0.000    0.690    0.000    1.241    0.000    0.000 
#    0.000    0.552    0.000    6.345    0.000    1.793 
#
# Total GULP energy -323184.991026 kJ/mol
# GULP energy per Si atom -5572.155018 kJ/mol
# Density = 1.706694 g / cm^3
# Si number density = 17.105870 Si / 1000 Ang^3
#
#
#
# Elastic Constant Matrix: (Units=GPa)
#
#
# Indices 1 2 3 4 5 6 
#
# 1 33.6396 24.5614 32.4409 0.0000 0.0000 0.0000
# 2 24.5614 93.0574 50.5753 0.0000 0.0000 0.0000
# 3 32.4409 50.5753 125.2145 0.0000 0.0000 0.0000
# 4 0.0000 0.0000 0.0000 -3.1350 0.0000 0.0000
# 5 0.0000 0.0000 0.0000 0.0000 16.3355 0.0000
# 6 0.0000 0.0000 0.0000 0.0000 0.0000 -6.8934
#
#
#
# Elastic Compliance Matrix: (Units=1/GPa)
#
#
# Indices 1 2 3 4 5 6 
#
# 1 0.042686 -0.006734 -0.008339 0.000000 0.000000 0.000000
# 2 -0.006734 0.014831 -0.004246 0.000000 0.000000 0.000000
# 3 -0.008339 -0.004246 0.011862 0.000000 0.000000 0.000000
# 4 0.000000 0.000000 0.000000 -0.318974 0.000000 0.000000
# 5 0.000000 0.000000 0.000000 0.000000 0.061216 0.000000
# 6 0.000000 0.000000 0.000000 0.000000 0.000000 -0.145066
#
#
# Mechanical properties :
#
#
# Convention : Reuss Voigt Hill
#
# Bulk Modulus (GPa) = 32.53047 51.89630 42.21339
# Shear Modulus (GPa) = -17.57093 10.88366 -3.34363
#
# Velocity S-wave (km/s) = -3.20845 2.52514 -1.39961
# Velocity P-wave (km/s) = 2.30930 6.23746 4.70313
#
# Compressibility (1/GPa) = 0.03074041
#
# Stress axis : x y z
#
# Youngs Moduli (GPa) = 23.42700 67.42673 84.30512
#
# Poissons Ratio (x) = 0.45407 0.70303
# Poissons Ratio (y) = 0.15776 0.35793
# Poissons Ratio (z) = 0.19536 0.28627
#
# Static dielectric constant tensor:
#      x y z
#    x 1.609290 0.000000 0.000000 
#    y 0.000000 1.585460 0.000000 
#    z 0.000000 0.000000 1.588700 
# 
# From -- ./inp_files/68651.got.cif
#   From: 2010.05.17/outbox.cif.g08.bks.cpg/sg65_35_cif.got.tgz:68651.got - 2010.06.03 17:01:31.
