data_PCOD9489505
_publ_section_title
;
Structure prediction by ZEFSAII (Michael W. Deem and Ramdas Pophale) SiO2 
 PCOD9489505
Probable space group: C M M M
;
_chemical_formula_sum "Si O2"
_cell_formula_units_Z 80
_cell_length_a 19.797424
_cell_length_b 9.063195
_cell_length_c 25.435372
_cell_angle_alpha 90.000000
_cell_angle_beta 90.000000
_cell_angle_gamma 90.000000
_cell_volume 4563.815745
_symmetry_space_group_name_H-M "C M M M"
_symmetry_group_IT_number 65
_symmetry_cell_setting 'orthorhombic'
loop_
_space_group_symop_operation_xyz
x,y,z
-x,-y,z
x,-y,-z
-x,y,-z
-x,-y,-z
x,y,-z
-x,y,z
x,-y,z
1/2+x,1/2+y,z
1/2-x,1/2-y,z
1/2+x,1/2-y,-z
1/2-x,1/2+y,-z
1/2-x,1/2-y,-z
1/2+x,1/2+y,-z
1/2-x,1/2+y,z
1/2+x,1/2-y,z
loop_
_atom_site_type_symbol
_atom_site_label
_atom_site_fract_x
_atom_site_fract_y
_atom_site_fract_z
Si Si1 0.821990 0.176394 0.357296
Si Si2 0.178886 0.325385 0.062583
Si Si3 0.920044 0.675994 0.560155
Si Si4 0.421386 0.678035 0.142666
Si Si5 0.178368 0.176777 0.764137
O O1 0.750000 0.250000 0.369541
O O2 0.877160 0.237444 0.397232
O O3 0.838066 0.214959 0.296405
O O4 0.816887 0.000000 0.361090
O O5 0.182580 0.500000 0.072834
O O6 0.250000 0.250000 0.077660
O O7 0.118417 0.252612 0.094860
O O8 0.169786 0.303327 0.000000
O O9 0.901446 0.715632 0.500000
O O10 0.909331 0.500000 0.566052
O O11 0.000000 0.703437 0.566297
O O12 0.500000 0.720186 0.144910
O O13 0.418071 0.500000 0.137320
O O14 0.380346 0.719084 0.195449
O O15 0.250000 0.250000 0.777974
O O16 0.186498 0.000000 0.766859
#
# Coordination Sequence:
#
# PCOD9489505 Si02
#       5
#    16  16  16  16  16
#     4  10  20  34  54  79 106 136 172 215 260 307
#     4  10  21  37  57  80 106 137 175 218 261 307
#     4   9  19  36  55  75 103 138 173 212 260 311
#     4  10  21  36  54  78 109 142 174 211 258 310
#     4   9  19  35  54  76 103 136 173 214 259 306
#
# _framework density 17.529191999999998
#
# number of rings (size 3 to 8) (size 9 to 14) (size 15 to 20)
#    0.000    2.400    0.000    2.400    0.000    7.200 
#    0.000    5.000    0.000    0.000    0.000    0.000 
#    0.000    0.000    0.000    0.000    0.000    0.000 
#
# Total GULP energy -223259.562629 kJ/mol
# GULP energy per Si atom -5581.489066 kJ/mol
# Density = 1.748930 g / cm^3
# Si number density = 17.529192 Si / 1000 Ang^3
#
#
#
# Elastic Constant Matrix: (Units=GPa)
#
#
# Indices 1 2 3 4 5 6 
#
# 1 151.2180 63.7915 98.2930 0.0000 0.0000 0.0000
# 2 63.7915 44.9791 58.1581 0.0000 0.0000 0.0000
# 3 98.2930 58.1581 101.6733 0.0000 0.0000 0.0000
# 4 0.0000 0.0000 0.0000 29.2839 0.0000 0.0000
# 5 0.0000 0.0000 0.0000 0.0000 145.5561 0.0000
# 6 0.0000 0.0000 0.0000 0.0000 0.0000 33.1101
#
#
#
# Elastic Compliance Matrix: (Units=1/GPa)
#
#
# Indices 1 2 3 4 5 6 
#
# 1 0.019492 -0.012593 -0.011640 0.000000 0.000000 0.000000
# 2 -0.012593 0.093518 -0.041319 0.000000 0.000000 0.000000
# 3 -0.011640 -0.041319 0.044723 0.000000 0.000000 0.000000
# 4 0.000000 0.000000 0.000000 0.034148 0.000000 0.000000
# 5 0.000000 0.000000 0.000000 0.000000 0.006870 0.000000
# 6 0.000000 0.000000 0.000000 0.000000 0.000000 0.030202
#
#
# Mechanical properties :
#
#
# Convention : Reuss Voigt Hill
#
# Bulk Modulus (GPa) = 37.55328 82.03952 59.79640
# Shear Modulus (GPa) = 13.55254 46.76519 30.15886
#
# Velocity S-wave (km/s) = 2.78356 5.17072 4.15238
# Velocity P-wave (km/s) = 5.63921 9.08580 7.56150
#
# Compressibility (1/GPa) = 0.02662884
#
# Stress axis : x y z
#
# Youngs Moduli (GPa) = 51.30405 10.69311 22.35972
#
# Poissons Ratio (x) = 0.13466 0.26027
# Poissons Ratio (y) = 0.64609 0.92388
# Poissons Ratio (z) = 0.59719 0.44183
#
# Static dielectric constant tensor:
#      x y z
#    x 1.560730 0.000000 0.000000 
#    y 0.000000 1.584180 0.000000 
#    z 0.000000 0.000000 1.597050 
# 
# From -- ./inp_files/72799.got.cif
#   From: 2010.05.17/outbox.cif.g08.bks.cpg/sg65_37_cif.got.tgz:72799.got - 2010.06.03 17:01:31.
