data_PCOD9489018
_publ_section_title
;
Structure prediction by ZEFSAII (Michael W. Deem and Ramdas Pophale) SiO2 
 PCOD9489018
Probable space group: C M M M
;
_chemical_formula_sum "Si O2"
_cell_formula_units_Z 100
_cell_length_a 29.129084
_cell_length_b 7.686730
_cell_length_c 22.864952
_cell_angle_alpha 90.000000
_cell_angle_beta 90.000000
_cell_angle_gamma 90.000000
_cell_volume 5119.632042
_symmetry_space_group_name_H-M "C M M M"
_symmetry_group_IT_number 65
_symmetry_cell_setting 'orthorhombic'
loop_
_space_group_symop_operation_xyz
x,y,z
-x,-y,z
x,-y,-z
-x,y,-z
-x,-y,-z
x,y,-z
-x,y,z
x,-y,z
1/2+x,1/2+y,z
1/2-x,1/2-y,z
1/2+x,1/2-y,-z
1/2-x,1/2+y,-z
1/2-x,1/2-y,-z
1/2+x,1/2+y,-z
1/2-x,1/2+y,z
1/2+x,1/2-y,z
loop_
_atom_site_type_symbol
_atom_site_label
_atom_site_fract_x
_atom_site_fract_y
_atom_site_fract_z
Si Si1 0.697588 0.706176 0.565390
Si Si2 0.851311 0.202505 0.088232
Si Si3 0.196619 0.708142 0.206729
Si Si4 0.643244 0.792192 0.320209
Si Si5 0.551225 0.709324 0.870492
Si Si6 0.677953 0.000000 0.000000
Si Si7 0.949300 0.291864 0.265943
O O1 0.689357 0.779982 0.500000
O O2 0.694843 0.500000 0.561304
O O3 0.750000 0.750000 0.582232
O O4 0.662678 0.759340 0.615732
O O5 0.832005 0.209888 0.153996
O O6 0.905015 0.260218 0.090860
O O7 0.848297 0.000000 0.068633
O O8 0.824668 0.344350 0.050303
O O9 0.190489 0.500000 0.203157
O O10 0.250000 0.750000 0.200660
O O11 0.177703 0.770562 0.269438
O O12 0.592711 0.722838 0.304310
O O13 0.641008 0.000000 0.313786
O O14 0.500000 0.772317 0.887368
O O15 0.550398 0.500000 0.872094
O O16 0.559347 0.761856 0.803057
O O17 0.951202 0.500000 0.274109
O O18 0.000000 0.220278 0.279227
#
# Coordination Sequence:
#
# PCOD9489018 Si02
#       7
#    16  16  16  16  16   4  16
#     4  10  21  36  54  78 113 155 198 240 287 348
#     4  11  23  42  65  87 117 156 194 243 300 346
#     4  11  22  38  60  88 120 148 189 246 299 349
#     4  10  20  33  55  87 120 151 190 238 290 342
#     4   9  18  33  56  86 117 149 186 232 289 350
#     4  12  26  44  67  84 122 156 200 244 281 372
#     4   9  17  30  52  83 117 150 185 229 282 342
#
# _framework density 19.532654000000001
#
# number of rings (size 3 to 8) (size 9 to 14) (size 15 to 20)
#    0.000    1.920    2.400    1.680    1.120    4.160 
#    0.000    1.200    0.000    2.400    0.000    3.360 
#    0.000    0.000    0.000    0.000    0.000    0.000 
#
# Total GULP energy -278520.913456 kJ/mol
# GULP energy per Si atom -5570.418269 kJ/mol
# Density = 1.948820 g / cm^3
# Si number density = 19.532654 Si / 1000 Ang^3
#
#
#
# Elastic Constant Matrix: (Units=GPa)
#
#
# Indices 1 2 3 4 5 6 
#
# 1 42.0194 7.2762 -4.5298 0.0000 0.0000 0.0000
# 2 7.2762 70.3015 11.6487 0.0000 0.0000 0.0000
# 3 -4.5298 11.6487 48.0322 0.0000 0.0000 0.0000
# 4 0.0000 0.0000 0.0000 88.4279 0.0000 0.0000
# 5 0.0000 0.0000 0.0000 0.0000-5613.6066 0.0000
# 6 0.0000 0.0000 0.0000 0.0000 0.0000 2.3944
#
#
#
# Elastic Compliance Matrix: (Units=1/GPa)
#
#
# Indices 1 2 3 4 5 6 
#
# 1 0.024659 -0.003061 0.003068 0.000000 0.000000 0.000000
# 2 -0.003061 0.015200 -0.003975 0.000000 0.000000 0.000000
# 3 0.003068 -0.003975 0.022073 0.000000 0.000000 0.000000
# 4 0.000000 0.000000 0.000000 0.011309 0.000000 0.000000
# 5 0.000000 0.000000 0.000000 0.000000 -0.000178 0.000000
# 6 0.000000 0.000000 0.000000 0.000000 0.000000 0.417650
#
#
# Mechanical properties :
#
#
# Convention : Reuss Voigt Hill
#
# Bulk Modulus (GPa) = 18.51972 21.01592 19.76782
# Shear Modulus (GPa) = 9.67781 -1094.82632 -542.57426
#
# Velocity S-wave (km/s) = 2.22833 -23.70079 -16.68476
# Velocity P-wave (km/s) = 4.01529 27.16960 19.00085
#
# Compressibility (1/GPa) = 0.05399650
#
# Stress axis : x y z
#
# Youngs Moduli (GPa) = 40.55274 65.79021 45.30491
#
# Poissons Ratio (x) = 0.20136 -0.13899
# Poissons Ratio (y) = 0.12411 0.18008
# Poissons Ratio (z) = -0.12441 0.26151
#
# Static dielectric constant tensor:
#      x y z
#    x 1.697950 0.000000 0.000000 
#    y 0.000000 1.700050 0.000000 
#    z 0.000000 0.000000 1.701020 
# 
# From -- ./inp_files/65884.got.cif
#   From: 2010.05.17/outbox.cif.g08.bks.cpg/sg65_33_cif.got.tgz:65884.got - 2010.06.03 17:01:31.
