data_PCOD9489187
_publ_section_title
;
Structure prediction by ZEFSAII (Michael W. Deem and Ramdas Pophale) SiO2 
 PCOD9489187
Probable space group: C M M M
;
_chemical_formula_sum "Si O2"
_cell_formula_units_Z 88
_cell_length_a 8.755008
_cell_length_b 19.824588
_cell_length_c 28.695642
_cell_angle_alpha 90.000000
_cell_angle_beta 90.000000
_cell_angle_gamma 90.000000
_cell_volume 4980.542648
_symmetry_space_group_name_H-M "C M M M"
_symmetry_group_IT_number 65
_symmetry_cell_setting 'orthorhombic'
loop_
_space_group_symop_operation_xyz
x,y,z
-x,-y,z
x,-y,-z
-x,y,-z
-x,-y,-z
x,y,-z
-x,y,z
x,-y,z
1/2+x,1/2+y,z
1/2-x,1/2-y,z
1/2+x,1/2-y,-z
1/2-x,1/2+y,-z
1/2-x,1/2-y,-z
1/2+x,1/2+y,-z
1/2-x,1/2+y,z
1/2+x,1/2-y,z
loop_
_atom_site_type_symbol
_atom_site_label
_atom_site_fract_x
_atom_site_fract_y
_atom_site_fract_z
Si Si1 0.684315 0.676967 0.446358
Si Si2 0.176450 0.918074 0.000000
Si Si3 0.682473 0.079119 0.098165
Si Si4 0.186473 0.922744 0.635158
Si Si5 0.315908 0.676470 0.282942
Si Si6 0.683074 0.676253 0.824265
O O1 0.729563 0.663310 0.500000
O O2 0.500000 0.680770 0.444858
O O3 0.750000 0.750000 0.432958
O O4 0.733527 0.619213 0.410535
O O5 0.257003 0.896732 0.952202
O O6 0.000000 0.897442 0.000000
O O7 0.182458 0.000000 0.000000
O O8 0.500000 0.084108 0.098958
O O9 0.753343 0.122326 0.139577
O O10 0.724347 0.000000 0.103241
O O11 0.234299 0.880213 0.680518
O O12 0.000000 0.924137 0.635259
O O13 0.239100 0.000000 0.635335
O O14 0.500000 0.680661 0.284959
O O15 0.250000 0.750000 0.294911
O O16 0.273075 0.660596 0.229451
O O17 0.500000 0.678312 0.826884
O O18 0.750000 0.750000 0.835062
#
# Coordination Sequence:
#
# PCOD9489187 Si02
#       6
#    16   8  16  16  16  16
#     4   9  17  29  47  70  94 124 162 201 241 288
#     4   9  17  31  52  77 104 135 172 209 245 291
#     4  10  20  34  53  77 105 136 169 206 249 296
#     4   9  17  29  46  70  98 125 157 200 246 289
#     4   9  18  32  51  71  92 124 162 200 242 291
#     4  10  20  34  52  74 100 130 166 207 252 301
#
# _framework density 17.668756999999999
#
# number of rings (size 3 to 8) (size 9 to 14) (size 15 to 20)
#    0.000    2.636    0.000    1.909    0.000    4.000 
#    0.000    4.091    0.000    2.182    0.000    2.545 
#    0.000    0.000    0.000    0.000    0.000    0.000 
#
# Total GULP energy -245405.079282 kJ/mol
# GULP energy per Si atom -5577.388166 kJ/mol
# Density = 1.762854 g / cm^3
# Si number density = 17.668757 Si / 1000 Ang^3
#
#
#
# Elastic Constant Matrix: (Units=GPa)
#
#
# Indices 1 2 3 4 5 6 
#
# 1 23.8831 34.7240 36.1557 0.0000 0.0000 0.0000
# 2 34.7240 143.9730 119.1499 0.0000 0.0000 0.0000
# 3 36.1557 119.1499 144.2596 0.0000 0.0000 0.0000
# 4 0.0000 0.0000 0.0000 30.5742 0.0000 0.0000
# 5 0.0000 0.0000 0.0000 0.0000 15.9292 0.0000
# 6 0.0000 0.0000 0.0000 0.0000 0.0000 26.6087
#
#
#
# Elastic Compliance Matrix: (Units=1/GPa)
#
#
# Indices 1 2 3 4 5 6 
#
# 1 0.069917 -0.007460 -0.011362 0.000000 0.000000 0.000000
# 2 -0.007460 0.022744 -0.016915 0.000000 0.000000 0.000000
# 3 -0.011362 -0.016915 0.023751 0.000000 0.000000 0.000000
# 4 0.000000 0.000000 0.000000 0.032707 0.000000 0.000000
# 5 0.000000 0.000000 0.000000 0.000000 0.062778 0.000000
# 6 0.000000 0.000000 0.000000 0.000000 0.000000 0.037582
#
#
# Mechanical properties :
#
#
# Convention : Reuss Voigt Hill
#
# Bulk Modulus (GPa) = 22.25332 76.90832 49.58082
# Shear Modulus (GPa) = 14.88398 22.76151 18.82274
#
# Velocity S-wave (km/s) = 2.90554 3.59309 3.26745
# Velocity P-wave (km/s) = 4.88654 7.79975 6.50824
#
# Compressibility (1/GPa) = 0.04493711
#
# Stress axis : x y z
#
# Youngs Moduli (GPa) = 14.30270 43.96766 42.10410
#
# Poissons Ratio (x) = 0.32801 0.47837
# Poissons Ratio (y) = 0.10670 0.71221
# Poissons Ratio (z) = 0.16250 0.74373
#
# Static dielectric constant tensor:
#      x y z
#    x 1.594050 0.000000 0.000000 
#    y 0.000000 1.574300 0.000000 
#    z 0.000000 0.000000 1.604680 
# 
# From -- ./inp_files/76542.got.cif
#   From: 2010.05.17/outbox.cif.g08.bks.cpg/sg65_39_cif.got.tgz:76542.got - 2010.06.03 17:01:31.
