data_PCOD9489515
_publ_section_title
;
Structure prediction by ZEFSAII (Michael W. Deem and Ramdas Pophale) SiO2 
 PCOD9489515
Probable space group: C M M M
;
_chemical_formula_sum "Si O2"
_cell_formula_units_Z 120
_cell_length_a 25.040331
_cell_length_b 24.966769
_cell_length_c 9.806634
_cell_angle_alpha 90.000000
_cell_angle_beta 90.000000
_cell_angle_gamma 90.000000
_cell_volume 6130.873784
_symmetry_space_group_name_H-M "C M M M"
_symmetry_group_IT_number 65
_symmetry_cell_setting 'orthorhombic'
loop_
_space_group_symop_operation_xyz
x,y,z
-x,-y,z
x,-y,-z
-x,y,-z
-x,-y,-z
x,y,-z
-x,y,z
x,-y,z
1/2+x,1/2+y,z
1/2-x,1/2-y,z
1/2+x,1/2-y,-z
1/2-x,1/2+y,-z
1/2-x,1/2-y,-z
1/2+x,1/2+y,-z
1/2-x,1/2+y,z
1/2+x,1/2-y,z
loop_
_atom_site_type_symbol
_atom_site_label
_atom_site_fract_x
_atom_site_fract_y
_atom_site_fract_z
Si Si1 0.642798 0.938943 0.236730
Si Si2 0.162323 0.673835 0.344187
Si Si3 0.777739 0.158141 0.662784
Si Si4 0.057523 0.270402 0.665553
Si Si5 0.060509 0.435304 0.000000
Si Si6 0.064370 0.061329 0.160643
Si Si7 0.895352 0.159149 0.661798
Si Si8 0.236250 0.939387 0.849518
O O1 0.651638 0.890219 0.340588
O O2 0.595415 0.923055 0.133935
O O3 0.699180 0.940826 0.156880
O O4 0.633734 0.000000 0.288931
O O5 0.164857 0.693407 0.500000
O O6 0.221852 0.683139 0.285217
O O7 0.110179 0.700373 0.279349
O O8 0.771829 0.153580 0.500000
O O9 0.835723 0.182648 0.688935
O O10 0.781340 0.100088 0.731793
O O11 0.057535 0.277341 0.500000
O O12 0.064252 0.207314 0.691207
O O13 0.000000 0.289929 0.716167
O O14 0.057389 0.500000 0.000000
O O15 0.000000 0.414230 0.000000
O O16 0.091854 0.106863 0.250642
O O17 0.000000 0.065850 0.175642
O O18 0.078942 0.000000 0.198058
O O19 0.076682 0.068412 0.000000
O O20 0.897837 0.146665 0.500000
O O21 0.217252 0.000000 0.830031
O O22 0.219663 0.920709 0.000000
#
# Coordination Sequence:
#
# PCOD9489515 Si02
#       8
#    16  16  16  16   8  16  16  16
#     4   9  16  28  46  68  95 128 166 206 250 301
#     4   9  18  32  50  73 102 135 168 209 260 313
#     4   9  19  32  46  72 105 135 169 212 262 307
#     4   9  18  33  54  77  98 127 171 219 263 307
#     4   9  16  26  42  64  88 117 158 206 252 295
#     4   9  19  36  57  81 111 146 179 214 260 311
#     4  10  20  34  54  79 107 139 177 219 259 307
#     4   9  16  28  47  68  94 133 175 207 240 296
#
# _framework density 19.573066000000001
#
# number of rings (size 3 to 8) (size 9 to 14) (size 15 to 20)
#    0.000    2.867    0.667    0.800    0.000    3.733 
#    0.000    8.667    1.467    0.000    0.000    6.533 
#    0.000    0.000    0.000    0.000    0.000    0.000 
#
# Total GULP energy -334066.885479 kJ/mol
# GULP energy per Si atom -5567.781425 kJ/mol
# Density = 1.952852 g / cm^3
# Si number density = 19.573066 Si / 1000 Ang^3
#
#
#
# Elastic Constant Matrix: (Units=GPa)
#
#
# Indices 1 2 3 4 5 6 
#
# 1 119.4142 29.9553 19.8703 0.0000 0.0000 0.0000
# 2 29.9553 56.7646 9.9641 0.0000 0.0000 0.0000
# 3 19.8703 9.9641 13.7696 0.0000 0.0000 0.0000
# 4 0.0000 0.0000 0.0000 -12.6128 0.0000 0.0000
# 5 0.0000 0.0000 0.0000 0.0000 17.2421 0.0000
# 6 0.0000 0.0000 0.0000 0.0000 0.0000 26.8695
#
#
#
# Elastic Compliance Matrix: (Units=1/GPa)
#
#
# Indices 1 2 3 4 5 6 
#
# 1 0.011649 -0.003662 -0.014161 0.000000 0.000000 0.000000
# 2 -0.003662 0.021331 -0.010152 0.000000 0.000000 0.000000
# 3 -0.014161 -0.010152 0.100404 0.000000 0.000000 0.000000
# 4 0.000000 0.000000 0.000000 -0.079284 0.000000 0.000000
# 5 0.000000 0.000000 0.000000 0.000000 0.057998 0.000000
# 6 0.000000 0.000000 0.000000 0.000000 0.000000 0.037217
#
#
# Mechanical properties :
#
#
# Convention : Reuss Voigt Hill
#
# Bulk Modulus (GPa) = 12.91381 34.39197 23.65289
# Shear Modulus (GPa) = 21.63807 14.97699 18.30753
#
# Velocity S-wave (km/s) = 3.32852 2.76920 3.06166
# Velocity P-wave (km/s) = 4.62429 5.27578 4.96074
#
# Compressibility (1/GPa) = 0.07743648
#
# Stress axis : x y z
#
# Youngs Moduli (GPa) = 85.84398 46.88043 9.95974
#
# Poissons Ratio (x) = 0.17166 0.14104
# Poissons Ratio (y) = 0.31433 0.10111
# Poissons Ratio (z) = 1.21560 0.47591
#
# Static dielectric constant tensor:
#      x y z
#    x 1.760320 0.000000 0.000000 
#    y 0.000000 1.685220 0.000000 
#    z 0.000000 0.000000 1.646440 
# 
# From -- ./inp_files/31297.got.cif
#   From: 2010.05.17/outbox.cif.g08.bks.cpg/sg65_16_cif.got.tgz:31297.got - 2010.06.03 17:01:31.
