data_PCOD9489620
_publ_section_title
;
Structure prediction by ZEFSAII (Michael W. Deem and Ramdas Pophale) SiO2 
 PCOD9489620
Probable space group: C M M M
;
_chemical_formula_sum "Si O2"
_cell_formula_units_Z 104
_cell_length_a 29.931441
_cell_length_b 8.894844
_cell_length_c 20.048133
_cell_angle_alpha 90.000000
_cell_angle_beta 90.000000
_cell_angle_gamma 90.000000
_cell_volume 5337.524681
_symmetry_space_group_name_H-M "C M M M"
_symmetry_group_IT_number 65
_symmetry_cell_setting 'orthorhombic'
loop_
_space_group_symop_operation_xyz
x,y,z
-x,-y,z
x,-y,-z
-x,y,-z
-x,-y,-z
x,y,-z
-x,y,z
x,-y,z
1/2+x,1/2+y,z
1/2-x,1/2-y,z
1/2+x,1/2-y,-z
1/2-x,1/2+y,-z
1/2-x,1/2-y,-z
1/2+x,1/2+y,-z
1/2-x,1/2+y,z
1/2+x,1/2-y,z
loop_
_atom_site_type_symbol
_atom_site_label
_atom_site_fract_x
_atom_site_fract_y
_atom_site_fract_z
Si Si1 0.447388 0.674852 0.690311
Si Si2 0.299373 0.320378 0.000000
Si Si3 0.297555 0.323240 0.229546
Si Si4 0.549942 0.180975 0.164420
Si Si5 0.889565 0.320669 0.573841
Si Si6 0.202843 0.823965 0.389918
Si Si7 0.855567 0.319851 0.880111
O O1 0.500000 0.685015 0.673416
O O2 0.434900 0.500000 0.696454
O O3 0.442009 0.752943 0.761974
O O4 0.418346 0.749803 0.632881
O O5 0.250000 0.250000 0.000000
O O6 0.326548 0.261739 0.936008
O O7 0.296266 0.500000 0.000000
O O8 0.298391 0.500000 0.212046
O O9 0.250000 0.250000 0.210691
O O10 0.301965 0.310758 0.309350
O O11 0.335638 0.233905 0.190562
O O12 0.500000 0.228370 0.142629
O O13 0.592008 0.221934 0.118575
O O14 0.550057 0.000000 0.169414
O O15 0.907365 0.282083 0.500000
O O16 0.889299 0.500000 0.580755
O O17 0.839302 0.259343 0.579245
O O18 0.250000 0.750000 0.408557
O O19 0.202633 0.000000 0.406950
O O20 0.851304 0.500000 0.886951
#
# Coordination Sequence:
#
# PCOD9489620 Si02
#       7
#    16   8  16  16  16  16  16
#     4  10  21  37  59  87 117 148 184 232 288 342
#     4  12  26  44  63  84 117 157 196 235 277 328
#     4  10  20  34  54  82 112 142 181 227 279 335
#     4   9  19  37  62  90 118 150 188 230 277 331
#     4  11  24  39  55  77 107 146 191 236 284 342
#     4  10  21  37  58  82 110 144 184 233 286 341
#     4  11  22  37  59  86 117 152 190 231 276 326
#
# _framework density 19.484687999999998
#
# number of rings (size 3 to 8) (size 9 to 14) (size 15 to 20)
#    0.000    1.692    0.000    4.385    0.000    8.308 
#    0.000    1.923    0.000    2.308    0.000    0.000 
#    0.000    0.000    0.000    0.000    0.000    0.000 
#
# Total GULP energy -290666.007383 kJ/mol
# GULP energy per Si atom -5589.730911 kJ/mol
# Density = 1.944034 g / cm^3
# Si number density = 19.484688 Si / 1000 Ang^3
#
#
#
# Elastic Constant Matrix: (Units=GPa)
#
#
# Indices 1 2 3 4 5 6 
#
# 1 130.9189 51.6608 52.3027 0.0000 0.0000 0.0000
# 2 51.6608 67.3041 29.0818 0.0000 0.0000 0.0000
# 3 52.3027 29.0818 44.6679 0.0000 0.0000 0.0000
# 4 0.0000 0.0000 0.0000 17.0007 0.0000 0.0000
# 5 0.0000 0.0000 0.0000 0.0000 -17.4822 0.0000
# 6 0.0000 0.0000 0.0000 0.0000 0.0000 30.8295
#
#
#
# Elastic Compliance Matrix: (Units=1/GPa)
#
#
# Indices 1 2 3 4 5 6 
#
# 1 0.015806 -0.005754 -0.014762 0.000000 0.000000 0.000000
# 2 -0.005754 0.022769 -0.008087 0.000000 0.000000 0.000000
# 3 -0.014762 -0.008087 0.044937 0.000000 0.000000 0.000000
# 4 0.000000 0.000000 0.000000 0.058821 0.000000 0.000000
# 5 0.000000 0.000000 0.000000 0.000000 -0.057201 0.000000
# 6 0.000000 0.000000 0.000000 0.000000 0.000000 0.032436
#
#
# Mechanical properties :
#
#
# Convention : Reuss Voigt Hill
#
# Bulk Modulus (GPa) = 38.01163 56.55351 47.28257
# Shear Modulus (GPa) = 27.24174 13.39264 20.31719
#
# Velocity S-wave (km/s) = 3.74319 2.62456 3.23263
# Velocity P-wave (km/s) = 6.18326 6.18644 6.18485
#
# Compressibility (1/GPa) = 0.02630774
#
# Stress axis : x y z
#
# Youngs Moduli (GPa) = 63.26650 43.92006 22.25333
#
# Poissons Ratio (x) = 0.25271 0.32850
# Poissons Ratio (y) = 0.36403 0.17995
# Poissons Ratio (z) = 0.93392 0.35516
#
# Static dielectric constant tensor:
#      x y z
#    x 1.687040 0.000000 0.000000 
#    y 0.000000 1.648610 0.000000 
#    z 0.000000 0.000000 1.684470 
# 
# From -- ./inp_files/65849.got.cif
#   From: 2010.05.17/outbox.cif.g08.bks.cpg/sg65_33_cif.got.tgz:65849.got - 2010.06.03 17:01:31.
