data_PCOD9489149
_publ_section_title
;
Structure prediction by ZEFSAII (Michael W. Deem and Ramdas Pophale) SiO2 
 PCOD9489149
Probable space group: C M M M
;
_chemical_formula_sum "Si O2"
_cell_formula_units_Z 96
_cell_length_a 19.820545
_cell_length_b 8.317904
_cell_length_c 31.824281
_cell_angle_alpha 90.000000
_cell_angle_beta 90.000000
_cell_angle_gamma 90.000000
_cell_volume 5246.722516
_symmetry_space_group_name_H-M "C M M M"
_symmetry_group_IT_number 65
_symmetry_cell_setting 'orthorhombic'
loop_
_space_group_symop_operation_xyz
x,y,z
-x,-y,z
x,-y,-z
-x,y,-z
-x,-y,-z
x,y,-z
-x,y,z
x,-y,z
1/2+x,1/2+y,z
1/2-x,1/2-y,z
1/2+x,1/2-y,-z
1/2-x,1/2+y,-z
1/2-x,1/2-y,-z
1/2+x,1/2+y,-z
1/2-x,1/2+y,z
1/2+x,1/2-y,z
loop_
_atom_site_type_symbol
_atom_site_label
_atom_site_fract_x
_atom_site_fract_y
_atom_site_fract_z
Si Si1 0.577136 0.694117 0.120232
Si Si2 0.325701 0.694307 0.194583
Si Si3 0.174531 0.192232 0.709951
Si Si4 0.577807 0.805627 0.363493
Si Si5 0.324303 0.807527 0.951627
Si Si6 0.918267 0.691099 0.454835
O O1 0.500000 0.752313 0.120193
O O2 0.575491 0.500000 0.121924
O O3 0.620009 0.751186 0.160579
O O4 0.618216 0.743588 0.078953
O O5 0.325921 0.500000 0.194291
O O6 0.250000 0.750000 0.183883
O O7 0.340987 0.748273 0.242325
O O8 0.250000 0.250000 0.700030
O O9 0.122933 0.252937 0.675207
O O10 0.173487 0.000000 0.710132
O O11 0.500000 0.753020 0.358191
O O12 0.603925 0.745726 0.409283
O O13 0.577420 0.000000 0.365359
O O14 0.250000 0.750000 0.937722
O O15 0.325083 0.000000 0.951010
O O16 0.333637 0.752841 0.000000
O O17 0.895059 0.759520 0.500000
O O18 0.903107 0.500000 0.455592
O O19 0.000000 0.703815 0.454192
#
# Coordination Sequence:
#
# PCOD9489149 Si02
#       6
#    16  16  16  16  16  16
#     4  10  21  36  54  78 108 138 167 203 249 298
#     4   9  19  35  54  74  96 127 167 208 248 293
#     4  10  20  34  52  72  97 130 166 204 247 296
#     4   9  17  29  47  73 102 128 158 200 246 292
#     4  10  21  37  57  80 106 137 174 213 250 292
#     4   7  10  19  38  64  92 122 156 193 235 285
#
# _framework density 18.297136999999999
#
# number of rings (size 3 to 8) (size 9 to 14) (size 15 to 20)
#    0.000    2.833    0.000    3.000    0.000    5.333 
#    0.000    3.333    0.000    1.000    0.000    2.333 
#    0.000    0.000    0.000    0.000    0.000    0.000 
#
# Total GULP energy -267503.386879 kJ/mol
# GULP energy per Si atom -5572.987227 kJ/mol
# Density = 1.825549 g / cm^3
# Si number density = 18.297137 Si / 1000 Ang^3
#
#
#
# Elastic Constant Matrix: (Units=GPa)
#
#
# Indices 1 2 3 4 5 6 
#
# 1 126.4827 15.4389 112.4453 0.0000 0.0000 0.0000
# 2 15.4389 9.6385 17.6449 0.0000 0.0000 0.0000
# 3 112.4453 17.6449 155.8584 0.0000 0.0000 0.0000
# 4 0.0000 0.0000 0.0000 2.6570 0.0000 0.0000
# 5 0.0000 0.0000 0.0000 0.0000 29.8807 0.0000
# 6 0.0000 0.0000 0.0000 0.0000 0.0000 21.0578
#
#
#
# Elastic Compliance Matrix: (Units=1/GPa)
#
#
# Indices 1 2 3 4 5 6 
#
# 1 0.022524 -0.007985 -0.015346 0.000000 0.000000 0.000000
# 2 -0.007985 0.133705 -0.009376 0.000000 0.000000 0.000000
# 3 -0.015346 -0.009376 0.018549 0.000000 0.000000 0.000000
# 4 0.000000 0.000000 0.000000 0.376364 0.000000 0.000000
# 5 0.000000 0.000000 0.000000 0.000000 0.033466 0.000000
# 6 0.000000 0.000000 0.000000 0.000000 0.000000 0.047488
#
#
# Mechanical properties :
#
#
# Convention : Reuss Voigt Hill
#
# Bulk Modulus (GPa) = 9.14377 64.78197 36.96287
# Shear Modulus (GPa) = 6.81231 20.48248 13.64739
#
# Velocity S-wave (km/s) = 1.93164 3.34943 2.73404
# Velocity P-wave (km/s) = 3.15962 7.10215 5.49654
#
# Compressibility (1/GPa) = 0.10936410
#
# Stress axis : x y z
#
# Youngs Moduli (GPa) = 44.39786 7.47913 53.91144
#
# Poissons Ratio (x) = 0.05972 0.82732
# Poissons Ratio (y) = 0.35452 0.50548
# Poissons Ratio (z) = 0.68132 0.07013
#
# Static dielectric constant tensor:
#      x y z
#    x 1.594160 0.000000 0.000000 
#    y 0.000000 1.645050 0.000000 
#    z 0.000000 0.000000 1.670640 
# 
# From -- ./inp_files/73204.got.cif
#   From: 2010.05.17/outbox.cif.g08.bks.cpg/sg65_37_cif.got.tgz:73204.got - 2010.06.03 17:01:31.
