data_PCOD9489393
_publ_section_title
;
Structure prediction by ZEFSAII (Michael W. Deem and Ramdas Pophale) SiO2 
 PCOD9489393
Probable space group: C M M M
;
_chemical_formula_sum "Si O2"
_cell_formula_units_Z 80
_cell_length_a 7.760736
_cell_length_b 18.371891
_cell_length_c 28.583182
_cell_angle_alpha 90.000000
_cell_angle_beta 90.000000
_cell_angle_gamma 90.000000
_cell_volume 4075.372822
_symmetry_space_group_name_H-M "C M M M"
_symmetry_group_IT_number 65
_symmetry_cell_setting 'orthorhombic'
loop_
_space_group_symop_operation_xyz
x,y,z
-x,-y,z
x,-y,-z
-x,y,-z
-x,-y,-z
x,y,-z
-x,y,z
x,-y,z
1/2+x,1/2+y,z
1/2-x,1/2-y,z
1/2+x,1/2-y,-z
1/2-x,1/2+y,-z
1/2-x,1/2-y,-z
1/2+x,1/2+y,-z
1/2-x,1/2+y,z
1/2+x,1/2-y,z
loop_
_atom_site_type_symbol
_atom_site_label
_atom_site_fract_x
_atom_site_fract_y
_atom_site_fract_z
Si Si1 0.207535 0.834886 0.093844
Si Si2 0.789029 0.084201 0.000000
Si Si3 0.797198 0.412490 0.375456
Si Si4 0.795345 0.334833 0.719801
Si Si5 0.500000 0.588429 0.553304
Si Si6 0.205464 0.917814 0.185700
O O1 0.250000 0.750000 0.093658
O O2 0.269392 0.874663 0.046808
O O3 0.273972 0.873981 0.140817
O O4 0.000000 0.840978 0.093869
O O5 0.000000 0.085162 0.000000
O O6 0.736520 0.000000 0.000000
O O7 0.785139 0.500000 0.369259
O O8 0.735921 0.373579 0.327909
O O9 0.670621 0.390815 0.417583
O O10 0.000000 0.395577 0.383957
O O11 0.750000 0.250000 0.720327
O O12 0.732204 0.374808 0.766304
O O13 0.000000 0.341966 0.719885
O O14 0.500000 0.500000 0.551673
O O15 0.500000 0.615061 0.500000
O O16 0.000000 0.923291 0.179128
O O17 0.275210 0.000000 0.188398
#
# Coordination Sequence:
#
# PCOD9489393 Si02
#       6
#    16   8  16  16   8  16
#     4  10  20  34  53  78 106 139 179 225 275 334
#     4   9  17  32  55  77 100 135 182 230 276 327
#     4   9  19  35  55  82 114 148 189 237 285 339
#     4  11  23  37  55  81 109 146 185 226 276 335
#     4   9  18  32  56  88 116 148 189 234 288 340
#     4  10  21  36  55  79 108 141 180 226 277 333
#
# _framework density 19.630106000000001
#
# number of rings (size 3 to 8) (size 9 to 14) (size 15 to 20)
#    0.000    2.200    0.000    2.700    2.800    6.400 
#    0.000    2.000    0.000    3.000    0.000    0.000 
#    0.000    0.000    0.000    0.000    0.000    0.000 
#
# Total GULP energy -223354.776689 kJ/mol
# GULP energy per Si atom -5583.869417 kJ/mol
# Density = 1.958543 g / cm^3
# Si number density = 19.630106 Si / 1000 Ang^3
#
#
#
# Elastic Constant Matrix: (Units=GPa)
#
#
# Indices 1 2 3 4 5 6 
#
# 1 50.6315 24.8030 49.6608 0.0000 0.0000 0.0000
# 2 24.8030 133.0346 103.8866 0.0000 0.0000 0.0000
# 3 49.6608 103.8866 229.1106 0.0000 0.0000 0.0000
# 4 0.0000 0.0000 0.0000 -10.0722 0.0000 0.0000
# 5 0.0000 0.0000 0.0000 0.0000 -11.7763 0.0000
# 6 0.0000 0.0000 0.0000 0.0000 0.0000 18.6742
#
#
#
# Elastic Compliance Matrix: (Units=1/GPa)
#
#
# Indices 1 2 3 4 5 6 
#
# 1 0.025121 -0.000668 -0.005142 0.000000 0.000000 0.000000
# 2 -0.000668 0.011655 -0.005140 0.000000 0.000000 0.000000
# 3 -0.005142 -0.005140 0.007810 0.000000 0.000000 0.000000
# 4 0.000000 0.000000 0.000000 -0.099283 0.000000 0.000000
# 5 0.000000 0.000000 0.000000 0.000000 -0.084916 0.000000
# 6 0.000000 0.000000 0.000000 0.000000 0.000000 0.053550
#
#
# Mechanical properties :
#
#
# Convention : Reuss Voigt Hill
#
# Bulk Modulus (GPa) = 44.08020 85.49750 64.78885
# Shear Modulus (GPa) = -88.33980 14.99356 -36.67312
#
# Velocity S-wave (km/s) = -6.71565 2.76670 -4.32697
# Velocity P-wave (km/s) = 6.13425 7.33860 2.84833
#
# Compressibility (1/GPa) = 0.02268592
#
# Stress axis : x y z
#
# Youngs Moduli (GPa) = 39.80655 85.79792 128.04071
#
# Poissons Ratio (x) = 0.05732 0.65842
# Poissons Ratio (y) = 0.02659 0.65814
# Poissons Ratio (z) = 0.20470 0.44101
#
# Static dielectric constant tensor:
#      x y z
#    x 1.720790 0.000000 0.000000 
#    y 0.000000 1.650100 0.000000 
#    z 0.000000 0.000000 1.675430 
# 
# From -- ./inp_files/72933.got.cif
#   From: 2010.05.17/outbox.cif.g08.bks.cpg/sg65_37_cif.got.tgz:72933.got - 2010.06.03 17:01:31.
