data_PCOD9489823
_publ_section_title
;
Structure prediction by ZEFSAII (Michael W. Deem and Ramdas Pophale) SiO2 
 PCOD9489823
Probable space group: C M M M
;
_chemical_formula_sum "Si O2"
_cell_formula_units_Z 104
_cell_length_a 30.382917
_cell_length_b 8.762327
_cell_length_c 23.561225
_cell_angle_alpha 90.000000
_cell_angle_beta 90.000000
_cell_angle_gamma 90.000000
_cell_volume 6272.588397
_symmetry_space_group_name_H-M "C M M M"
_symmetry_group_IT_number 65
_symmetry_cell_setting 'orthorhombic'
loop_
_space_group_symop_operation_xyz
x,y,z
-x,-y,z
x,-y,-z
-x,y,-z
-x,-y,-z
x,y,-z
-x,y,z
x,-y,z
1/2+x,1/2+y,z
1/2-x,1/2-y,z
1/2+x,1/2-y,-z
1/2-x,1/2+y,-z
1/2-x,1/2-y,-z
1/2+x,1/2+y,-z
1/2-x,1/2+y,z
1/2+x,1/2-y,z
loop_
_atom_site_type_symbol
_atom_site_label
_atom_site_fract_x
_atom_site_fract_y
_atom_site_fract_z
Si Si1 0.047773 0.176515 0.068739
Si Si2 0.700929 0.183418 0.293064
Si Si3 0.549986 0.816199 0.567191
Si Si4 0.799356 0.816180 0.500000
Si Si5 0.141164 0.816647 0.608631
Si Si6 0.638623 0.817545 0.935364
Si Si7 0.701854 0.184011 0.163620
O O1 0.089540 0.275499 0.083853
O O2 0.000000 0.230660 0.089122
O O3 0.053587 0.000000 0.085753
O O4 0.046354 0.177857 0.000000
O O5 0.750000 0.250000 0.304120
O O6 0.665475 0.249674 0.336464
O O7 0.688493 0.224216 0.228019
O O8 0.703029 0.000000 0.298035
O O9 0.554179 0.779281 0.500000
O O10 0.500000 0.770336 0.584758
O O11 0.591536 0.743205 0.598963
O O12 0.552497 0.000000 0.572468
O O13 0.750000 0.750000 0.500000
O O14 0.827988 0.771045 0.444976
O O15 0.795696 0.000000 0.500000
O O16 0.140365 0.000000 0.611194
O O17 0.671312 0.758863 0.887284
O O18 0.642720 0.000000 0.938005
O O19 0.646001 0.758911 0.000000
O O20 0.750000 0.250000 0.154975
O O21 0.703107 0.000000 0.161201
#
# Coordination Sequence:
#
# PCOD9489823 Si02
#       7
#    16  16  16   8  16  16  16
#     4   8  14  25  41  63  92 123 153 186 227 278
#     4  10  20  35  53  72  95 128 168 207 246 292
#     4   9  18  33  53  77 104 135 170 204 242 291
#     4  10  22  34  45  68 101 131 156 191 239 288
#     4  11  21  34  51  75 103 132 166 202 248 294
#     4   9  17  29  46  70  98 125 155 195 243 293
#     4   9  19  34  50  69  95 126 163 203 242 288
#
# _framework density 16.580078
#
# number of rings (size 3 to 8) (size 9 to 14) (size 15 to 20)
#    0.000    2.615    0.769    2.308    0.000    4.615 
#    0.000    2.308    0.000    0.923    0.000    2.154 
#    0.000    0.000    0.000    0.000    0.000    0.000 
#
# Total GULP energy -289679.771733 kJ/mol
# GULP energy per Si atom -5570.764841 kJ/mol
# Density = 1.654234 g / cm^3
# Si number density = 16.580078 Si / 1000 Ang^3
#
#
#
# Elastic Constant Matrix: (Units=GPa)
#
#
# Indices 1 2 3 4 5 6 
#
# 1 148.9282 36.6297 95.9900 0.0000 0.0000 0.0000
# 2 36.6297 21.1337 32.0012 0.0000 0.0000 0.0000
# 3 95.9900 32.0012 104.3812 0.0000 0.0000 0.0000
# 4 0.0000 0.0000 0.0000 14.2183 0.0000 0.0000
# 5 0.0000 0.0000 0.0000 0.0000 6.8657 0.0000
# 6 0.0000 0.0000 0.0000 0.0000 0.0000 32.1187
#
#
#
# Elastic Compliance Matrix: (Units=1/GPa)
#
#
# Indices 1 2 3 4 5 6 
#
# 1 0.017833 -0.011342 -0.012923 0.000000 0.000000 0.000000
# 2 -0.011342 0.095530 -0.018858 0.000000 0.000000 0.000000
# 3 -0.012923 -0.018858 0.027245 0.000000 0.000000 0.000000
# 4 0.000000 0.000000 0.000000 0.070332 0.000000 0.000000
# 5 0.000000 0.000000 0.000000 0.000000 0.145652 0.000000
# 6 0.000000 0.000000 0.000000 0.000000 0.000000 0.031135
#
#
# Mechanical properties :
#
#
# Convention : Reuss Voigt Hill
#
# Bulk Modulus (GPa) = 18.39418 67.07610 42.73514
# Shear Modulus (GPa) = 10.16068 17.96201 14.06135
#
# Velocity S-wave (km/s) = 2.47822 3.29500 2.91535
# Velocity P-wave (km/s) = 4.39397 7.41753 6.09617
#
# Compressibility (1/GPa) = 0.05436504
#
# Stress axis : x y z
#
# Youngs Moduli (GPa) = 56.07499 10.46789 36.70348
#
# Poissons Ratio (x) = 0.11872 0.47430
# Poissons Ratio (y) = 0.63598 0.69215
# Poissons Ratio (z) = 0.72463 0.19740
#
# Static dielectric constant tensor:
#      x y z
#    x 1.552520 0.000000 0.000000 
#    y 0.000000 1.560200 0.000000 
#    z 0.000000 0.000000 1.560750 
# 
# From -- ./inp_files/72108.got.cif
#   From: 2010.05.17/outbox.cif.g08.bks.cpg/sg65_37_cif.got.tgz:72108.got - 2010.06.03 17:01:31.
