data_PCOD9489050
_publ_section_title
;
Structure prediction by ZEFSAII (Michael W. Deem and Ramdas Pophale) SiO2 
 PCOD9489050
Probable space group: C M M M
;
_chemical_formula_sum "Si O2"
_cell_formula_units_Z 64
_cell_length_a 13.995120
_cell_length_b 36.090283
_cell_length_c 8.509415
_cell_angle_alpha 90.000000
_cell_angle_beta 90.000000
_cell_angle_gamma 90.000000
_cell_volume 4298.002054
_symmetry_space_group_name_H-M "C M M M"
_symmetry_group_IT_number 65
_symmetry_cell_setting 'orthorhombic'
loop_
_space_group_symop_operation_xyz
x,y,z
-x,-y,z
x,-y,-z
-x,y,-z
-x,-y,-z
x,y,-z
-x,y,z
x,-y,z
1/2+x,1/2+y,z
1/2-x,1/2-y,z
1/2+x,1/2-y,-z
1/2-x,1/2+y,-z
1/2-x,1/2-y,-z
1/2+x,1/2+y,-z
1/2-x,1/2+y,z
1/2+x,1/2-y,z
loop_
_atom_site_type_symbol
_atom_site_label
_atom_site_fract_x
_atom_site_fract_y
_atom_site_fract_z
Si Si1 0.795377 0.304837 0.814164
Si Si2 0.109037 0.768514 0.312211
Si Si3 0.387364 0.121017 0.690353
Si Si4 0.615180 0.039828 0.312046
O O1 0.859836 0.273242 0.732058
O O2 0.686944 0.295155 0.766392
O O3 0.828624 0.345092 0.759467
O O4 0.806325 0.300927 0.000000
O O5 0.115702 0.772485 0.500000
O O6 0.000000 0.775265 0.263203
O O7 0.381581 0.121837 0.500000
O O8 0.500000 0.125113 0.730657
O O9 0.352953 0.080195 0.746180
O O10 0.633000 0.039484 0.500000
O O11 0.500000 0.040033 0.293958
O O12 0.650124 0.000000 0.247948
#
# Coordination Sequence:
#
# PCOD9489050 Si02
#       4
#    16  16  16  16
#     4  11  21  30  43  63  87 112 137 168 204 246
#     4  10  20  34  50  63  78 104 138 175 211 245
#     4   9  16  26  41  60  84 114 145 176 206 238
#     4   7  10  18  34  56  79 104 137 174 207 236
#
# _framework density 14.890639
#
# number of rings (size 3 to 8) (size 9 to 14) (size 15 to 20)
#    0.000    2.750    0.000    7.500    0.000    5.500 
#    0.000    0.000    0.000    0.750    0.000    3.500 
#    0.000    1.000    0.000   11.500    0.000    3.750 
#
# Total GULP energy -178176.040918 kJ/mol
# GULP energy per Si atom -5568.001279 kJ/mol
# Density = 1.485675 g / cm^3
# Si number density = 14.890639 Si / 1000 Ang^3
#
#
#
# Elastic Constant Matrix: (Units=GPa)
#
#
# Indices 1 2 3 4 5 6 
#
# 1 48.7498 30.3582 1.5474 0.0000 0.0000 0.0000
# 2 30.3582 133.2201 4.2028 0.0000 0.0000 0.0000
# 3 1.5474 4.2028 13.1982 0.0000 0.0000 0.0000
# 4 0.0000 0.0000 0.0000 -12.8565 0.0000 0.0000
# 5 0.0000 0.0000 0.0000 0.0000 -86.6443 0.0000
# 6 0.0000 0.0000 0.0000 0.0000 0.0000 17.9808
#
#
#
# Elastic Compliance Matrix: (Units=1/GPa)
#
#
# Indices 1 2 3 4 5 6 
#
# 1 0.023920 -0.005417 -0.001080 0.000000 0.000000 0.000000
# 2 -0.005417 0.008809 -0.002170 0.000000 0.000000 0.000000
# 3 -0.001080 -0.002170 0.076585 0.000000 0.000000 0.000000
# 4 0.000000 0.000000 0.000000 -0.077782 0.000000 0.000000
# 5 0.000000 0.000000 0.000000 0.000000 -0.011541 0.000000
# 6 0.000000 0.000000 0.000000 0.000000 0.000000 0.055615
#
#
# Mechanical properties :
#
#
# Convention : Reuss Voigt Hill
#
# Bulk Modulus (GPa) = 10.87170 29.70943 20.29057
# Shear Modulus (GPa) = 40.45288 -5.70001 17.37643
#
# Velocity S-wave (km/s) = 5.21782 -1.95863 3.41975
# Velocity P-wave (km/s) = 6.60437 3.85747 5.40823
#
# Compressibility (1/GPa) = 0.09198190
#
# Stress axis : x y z
#
# Youngs Moduli (GPa) = 41.80520 113.51717 13.05733
#
# Poissons Ratio (x) = 0.61491 0.01410
# Poissons Ratio (y) = 0.22646 0.02834
# Poissons Ratio (z) = 0.04513 0.24634
#
# Static dielectric constant tensor:
#      x y z
#    x 1.469610 0.000000 0.000000 
#    y 0.000000 1.529000 0.000000 
#    z 0.000000 0.000000 1.495160 
# 
# From -- ./inp_files/7570.got.cif
#   From: 2010.05.17/outbox.cif.g08.bks.cpg/sg65_4_cif.got.tgz:7570.got - 2010.06.03 17:01:31.
