data_PCOD9489736
_publ_section_title
;
Structure prediction by ZEFSAII (Michael W. Deem and Ramdas Pophale) SiO2 
 PCOD9489736
Probable space group: C M M M
;
_chemical_formula_sum "Si O2"
_cell_formula_units_Z 72
_cell_length_a 8.735873
_cell_length_b 27.559557
_cell_length_c 16.157612
_cell_angle_alpha 90.000000
_cell_angle_beta 90.000000
_cell_angle_gamma 90.000000
_cell_volume 3890.054797
_symmetry_space_group_name_H-M "C M M M"
_symmetry_group_IT_number 65
_symmetry_cell_setting 'orthorhombic'
loop_
_space_group_symop_operation_xyz
x,y,z
-x,-y,z
x,-y,-z
-x,y,-z
-x,-y,-z
x,y,-z
-x,y,z
x,-y,z
1/2+x,1/2+y,z
1/2-x,1/2-y,z
1/2+x,1/2-y,-z
1/2-x,1/2+y,-z
1/2-x,1/2-y,-z
1/2+x,1/2+y,-z
1/2-x,1/2+y,z
1/2+x,1/2-y,z
loop_
_atom_site_type_symbol
_atom_site_label
_atom_site_fract_x
_atom_site_fract_y
_atom_site_fract_z
Si Si1 0.684801 0.103804 0.824808
Si Si2 0.182245 0.803141 0.500000
Si Si3 0.685444 0.947325 0.500000
Si Si4 0.813351 0.500000 0.902772
Si Si5 0.684936 0.127598 0.362561
Si Si6 0.174485 0.199580 0.900562
O O1 0.500000 0.102510 0.826424
O O2 0.732883 0.116871 0.730990
O O3 0.740402 0.149963 0.877285
O O4 0.736054 0.050696 0.858672
O O5 0.250000 0.750000 0.500000
O O6 0.242556 0.829450 0.416532
O O7 0.000000 0.803606 0.500000
O O8 0.500000 0.949660 0.500000
O O9 0.726465 0.918736 0.582050
O O10 0.752803 0.000000 0.500000
O O11 0.000000 0.500000 0.900531
O O12 0.768532 0.500000 0.000000
O O13 0.500000 0.133912 0.363365
O O14 0.250000 0.250000 0.869863
O O15 0.000000 0.197164 0.870421
O O16 0.172600 0.202520 0.000000
#
# Coordination Sequence:
#
# PCOD9489736 Si02
#       6
#    16   8   8   8  16  16
#     4  10  20  34  56  84 117 151 188 234 281 333
#     4  11  22  38  60  80 107 146 184 226 279 336
#     4   8  14  26  49  75 102 134 168 212 256 299
#     4   9  18  32  53  84 119 154 192 235 283 333
#     4   9  19  34  52  81 112 140 180 223 267 321
#     4  10  21  37  57  80 107 142 185 233 286 341
#
# _framework density 18.508735999999999
#
# number of rings (size 3 to 8) (size 9 to 14) (size 15 to 20)
#    0.000    2.444    0.000    3.000    1.556    4.000 
#    0.000    0.556    0.000    7.333    0.000    0.000 
#    0.000    0.000    0.000    0.000    0.000    0.000 
#
# Total GULP energy -200565.059896 kJ/mol
# GULP energy per Si atom -5571.251664 kJ/mol
# Density = 1.846661 g / cm^3
# Si number density = 18.508736 Si / 1000 Ang^3
#
#
#
# Elastic Constant Matrix: (Units=GPa)
#
#
# Indices 1 2 3 4 5 6 
#
# 1 28.9630 36.6201 31.8339 0.0000 0.0000 0.0000
# 2 36.6201 185.6312 63.6445 0.0000 0.0000 0.0000
# 3 31.8339 63.6445 96.9491 0.0000 0.0000 0.0000
# 4 0.0000 0.0000 0.0000 -161.8170 0.0000 0.0000
# 5 0.0000 0.0000 0.0000 0.0000 -0.7625 0.0000
# 6 0.0000 0.0000 0.0000 0.0000 0.0000 21.3435
#
#
#
# Elastic Compliance Matrix: (Units=1/GPa)
#
#
# Indices 1 2 3 4 5 6 
#
# 1 0.059553 -0.006509 -0.015282 0.000000 0.000000 0.000000
# 2 -0.006509 0.007663 -0.002893 0.000000 0.000000 0.000000
# 3 -0.015282 -0.002893 0.017232 0.000000 0.000000 0.000000
# 4 0.000000 0.000000 0.000000 -0.006180 0.000000 0.000000
# 5 0.000000 0.000000 0.000000 0.000000 -1.311484 0.000000
# 6 0.000000 0.000000 0.000000 0.000000 0.000000 0.046853
#
#
# Mechanical properties :
#
#
# Convention : Reuss Voigt Hill
#
# Bulk Modulus (GPa) = 28.50622 63.97114 46.23868
# Shear Modulus (GPa) = -4.44325 -16.28422 -10.36374
#
# Velocity S-wave (km/s) = -1.55108 -2.96938 -2.36887
# Velocity P-wave (km/s) = 3.49673 4.78345 4.18978
#
# Compressibility (1/GPa) = 0.03508006
#
# Stress axis : x y z
#
# Youngs Moduli (GPa) = 16.79180 130.49646 58.03164
#
# Poissons Ratio (x) = 0.84937 0.88683
# Poissons Ratio (y) = 0.10929 0.16791
# Poissons Ratio (z) = 0.25661 0.37758
#
# Static dielectric constant tensor:
#      x y z
#    x 1.641260 0.000000 0.000000 
#    y 0.000000 1.594520 0.000000 
#    z 0.000000 0.000000 1.688210 
# 
# From -- ./inp_files/36690.got.cif
#   From: 2010.05.17/outbox.cif.g08.bks.cpg/sg65_19_cif.got.tgz:36690.got - 2010.06.03 17:01:31.
