data_PCOD9489020
_publ_section_title
;
Structure prediction by ZEFSAII (Michael W. Deem and Ramdas Pophale) SiO2 
 PCOD9489020
Probable space group: C M M M
;
_chemical_formula_sum "Si O2"
_cell_formula_units_Z 88
_cell_length_a 14.563764
_cell_length_b 23.662644
_cell_length_c 14.888011
_cell_angle_alpha 90.000000
_cell_angle_beta 90.000000
_cell_angle_gamma 90.000000
_cell_volume 5130.664111
_symmetry_space_group_name_H-M "C M M M"
_symmetry_group_IT_number 65
_symmetry_cell_setting 'orthorhombic'
loop_
_space_group_symop_operation_xyz
x,y,z
-x,-y,z
x,-y,-z
-x,y,-z
-x,-y,-z
x,y,-z
-x,y,z
x,-y,z
1/2+x,1/2+y,z
1/2-x,1/2-y,z
1/2+x,1/2-y,-z
1/2-x,1/2+y,-z
1/2-x,1/2-y,-z
1/2+x,1/2+y,-z
1/2-x,1/2+y,z
1/2+x,1/2-y,z
loop_
_atom_site_type_symbol
_atom_site_label
_atom_site_fract_x
_atom_site_fract_y
_atom_site_fract_z
Si Si1 0.698193 0.126532 0.603148
Si Si2 0.500000 0.825483 0.393650
Si Si3 0.315138 0.890051 0.104602
Si Si4 0.204102 0.812174 0.234866
Si Si5 0.500000 0.726156 0.745406
Si Si6 0.105639 0.500000 0.198223
Si Si7 0.000000 0.683495 0.901784
Si Si8 0.840030 0.500000 0.601297
O O1 0.711944 0.145195 0.500000
O O2 0.591597 0.139126 0.627960
O O3 0.757186 0.160890 0.673623
O O4 0.713959 0.059228 0.606053
O O5 0.500000 0.816133 0.500000
O O6 0.500000 0.765962 0.342724
O O7 0.238623 0.852435 0.154369
O O8 0.409368 0.854206 0.105982
O O9 0.339944 0.945897 0.160634
O O10 0.293321 0.902111 0.000000
O O11 0.250000 0.750000 0.223206
O O12 0.094875 0.807207 0.244931
O O13 0.500000 0.770881 0.825556
O O14 0.103127 0.500000 0.306537
O O15 0.000000 0.500000 0.164677
O O16 0.000000 0.710780 0.000000
O O17 0.884194 0.500000 0.500000
#
# Coordination Sequence:
#
# PCOD9489020 Si02
#       8
#    16   8  16  16   8   8   8   8
#     4  10  21  37  58  86 120 158 198 242 296 358
#     4  10  20  33  55  87 123 158 195 238 288 359
#     4  11  23  39  59  89 122 156 195 241 297 354
#     4  12  23  38  60  83 117 160 199 245 300 348
#     4  12  24  38  56  84 118 152 209 244 289 353
#     4  12  23  35  64  93 127 158 192 238 297 360
#     4  10  20  35  57  85 118 151 193 237 283 348
#     4  10  22  36  57  88 122 158 197 235 287 356
#
# _framework density 17.151775000000001
#
# number of rings (size 3 to 8) (size 9 to 14) (size 15 to 20)
#    0.000    1.091    6.364    0.273    1.273    2.727 
#    0.000    0.000    0.000    2.182    0.000    3.182 
#    0.000    0.000    0.000    0.000    0.000    0.000 
#
# Total GULP energy -245540.701720 kJ/mol
# GULP energy per Si atom -5580.470494 kJ/mol
# Density = 1.711274 g / cm^3
# Si number density = 17.151775 Si / 1000 Ang^3
#
#
#
# Elastic Constant Matrix: (Units=GPa)
#
#
# Indices 1 2 3 4 5 6 
#
# 1 105.4416 45.7604 44.1861 0.0000 0.0000 0.0000
# 2 45.7604 94.8008 51.3399 0.0000 0.0000 0.0000
# 3 44.1861 51.3399 104.3168 0.0000 0.0000 0.0000
# 4 0.0000 0.0000 0.0000 37.6142 0.0000 0.0000
# 5 0.0000 0.0000 0.0000 0.0000 21.6176 0.0000
# 6 0.0000 0.0000 0.0000 0.0000 0.0000 20.8749
#
#
#
# Elastic Compliance Matrix: (Units=1/GPa)
#
#
# Indices 1 2 3 4 5 6 
#
# 1 0.012750 -0.004403 -0.003233 0.000000 0.000000 0.000000
# 2 -0.004403 0.015902 -0.005961 0.000000 0.000000 0.000000
# 3 -0.003233 -0.005961 0.013890 0.000000 0.000000 0.000000
# 4 0.000000 0.000000 0.000000 0.026586 0.000000 0.000000
# 5 0.000000 0.000000 0.000000 0.000000 0.046259 0.000000
# 6 0.000000 0.000000 0.000000 0.000000 0.000000 0.047904
#
#
# Mechanical properties :
#
#
# Convention : Reuss Voigt Hill
#
# Bulk Modulus (GPa) = 65.16423 65.23690 65.20057
# Shear Modulus (GPa) = 25.56217 26.90621 26.23419
#
# Velocity S-wave (km/s) = 3.86469 3.96499 3.91517
# Velocity P-wave (km/s) = 7.61509 7.68630 7.65078
#
# Compressibility (1/GPa) = 0.01534584
#
# Stress axis : x y z
#
# Youngs Moduli (GPa) = 78.43200 62.88416 71.99612
#
# Poissons Ratio (x) = 0.27690 0.23280
# Poissons Ratio (y) = 0.34536 0.42919
# Poissons Ratio (z) = 0.25361 0.37487
#
# Static dielectric constant tensor:
#      x y z
#    x 1.580980 0.000000 0.000000 
#    y 0.000000 1.576370 0.000000 
#    z 0.000000 0.000000 1.608360 
# 
# From -- ./inp_files/40278.got.cif
#   From: 2010.05.17/outbox.cif.g08.bks.cpg/sg65_21_cif.got.tgz:40278.got - 2010.06.03 17:01:31.
