data_PCOD9489996
_publ_section_title
;
Structure prediction by ZEFSAII (Michael W. Deem and Ramdas Pophale) SiO2 
 PCOD9489996
Probable space group: C M M M
;
_chemical_formula_sum "Si O2"
_cell_formula_units_Z 72
_cell_length_a 19.874367
_cell_length_b 10.778863
_cell_length_c 18.906428
_cell_angle_alpha 90.000000
_cell_angle_beta 90.000000
_cell_angle_gamma 90.000000
_cell_volume 4050.193221
_symmetry_space_group_name_H-M "C M M M"
_symmetry_group_IT_number 65
_symmetry_cell_setting 'orthorhombic'
loop_
_space_group_symop_operation_xyz
x,y,z
-x,-y,z
x,-y,-z
-x,y,-z
-x,-y,-z
x,y,-z
-x,y,z
x,-y,z
1/2+x,1/2+y,z
1/2-x,1/2-y,z
1/2+x,1/2-y,-z
1/2-x,1/2+y,-z
1/2-x,1/2-y,-z
1/2+x,1/2+y,-z
1/2-x,1/2+y,z
1/2+x,1/2-y,z
loop_
_atom_site_type_symbol
_atom_site_label
_atom_site_fract_x
_atom_site_fract_y
_atom_site_fract_z
Si Si1 0.920620 0.759732 0.152709
Si Si2 0.304562 0.356437 0.583538
Si Si3 0.923305 0.854353 0.306682
Si Si4 0.418727 0.000000 0.919747
Si Si5 0.294288 0.365335 0.914959
O O1 0.910789 0.774049 0.236592
O O2 0.902308 0.624605 0.122175
O O3 0.869521 0.851312 0.114120
O O4 0.000000 0.783345 0.138469
O O5 0.320810 0.347918 0.500000
O O6 0.281683 0.500000 0.596277
O O7 0.250000 0.250000 0.599152
O O8 0.369475 0.334279 0.632087
O O9 0.000000 0.832006 0.330696
O O10 0.919061 0.000000 0.285532
O O11 0.500000 0.000000 0.925632
O O12 0.390614 0.000000 0.000000
O O13 0.266144 0.500000 0.894554
O O14 0.250000 0.250000 0.888816
O O15 0.296275 0.359041 0.000000
#
# Coordination Sequence:
#
# PCOD9489996 Si02
#       5
#    16  16  16   8  16
#     4  10  20  35  55  79 106 138 179 228 277 326
#     4   9  18  34  56  82 111 145 184 223 265 318
#     4   9  18  33  53  78 108 141 177 224 276 323
#     4   9  18  32  52  78 105 139 182 226 275 328
#     4  10  22  37  53  75 103 136 173 217 270 326
#
# _framework density 17.77693
#
# number of rings (size 3 to 8) (size 9 to 14) (size 15 to 20)
#    0.000    2.556    0.000    1.333    1.556    4.000 
#    2.000    3.333    0.000    0.000    0.000    3.111 
#    0.000    0.000    0.000    0.000    0.000    0.000 
#
# Total GULP energy -200708.122450 kJ/mol
# GULP energy per Si atom -5575.225624 kJ/mol
# Density = 1.773647 g / cm^3
# Si number density = 17.776930 Si / 1000 Ang^3
#
#
#
# Elastic Constant Matrix: (Units=GPa)
#
#
# Indices 1 2 3 4 5 6 
#
# 1 81.2655 72.3272 54.1219 0.0000 0.0000 0.0000
# 2 72.3272 125.5680 68.7033 0.0000 0.0000 0.0000
# 3 54.1219 68.7033 69.3429 0.0000 0.0000 0.0000
# 4 0.0000 0.0000 0.0000 26.6971 0.0000 0.0000
# 5 0.0000 0.0000 0.0000 0.0000 29.0175 0.0000
# 6 0.0000 0.0000 0.0000 0.0000 0.0000 27.3685
#
#
#
# Elastic Compliance Matrix: (Units=1/GPa)
#
#
# Indices 1 2 3 4 5 6 
#
# 1 0.030359 -0.009876 -0.013910 0.000000 0.000000 0.000000
# 2 -0.009876 0.020604 -0.012706 0.000000 0.000000 0.000000
# 3 -0.013910 -0.012706 0.037867 0.000000 0.000000 0.000000
# 4 0.000000 0.000000 0.000000 0.037457 0.000000 0.000000
# 5 0.000000 0.000000 0.000000 0.000000 0.034462 0.000000
# 6 0.000000 0.000000 0.000000 0.000000 0.000000 0.036538
#
#
# Mechanical properties :
#
#
# Convention : Reuss Voigt Hill
#
# Bulk Modulus (GPa) = 63.10899 74.05348 68.58123
# Shear Modulus (GPa) = 18.14516 22.01823 20.08170
#
# Velocity S-wave (km/s) = 3.19833 3.52317 3.36467
# Velocity P-wave (km/s) = 7.01546 7.63530 7.33193
#
# Compressibility (1/GPa) = 0.01584560
#
# Stress axis : x y z
#
# Youngs Moduli (GPa) = 32.93892 48.53313 26.40812
#
# Poissons Ratio (x) = 0.47931 0.36735
# Poissons Ratio (y) = 0.32530 0.33555
# Poissons Ratio (z) = 0.45819 0.61667
#
# Static dielectric constant tensor:
#      x y z
#    x 1.608380 0.000000 0.000000 
#    y 0.000000 1.636010 0.000000 
#    z 0.000000 0.000000 1.573860 
# 
# From -- ./inp_files/51128.got.cif
#   From: 2010.05.17/outbox.cif.g08.bks.cpg/sg65_26_cif.got.tgz:51128.got - 2010.06.03 17:01:31.
