data_PCOD9489498
_publ_section_title
;
Structure prediction by ZEFSAII (Michael W. Deem and Ramdas Pophale) SiO2 
 PCOD9489498
Probable space group: C M M M
;
_chemical_formula_sum "Si O2"
_cell_formula_units_Z 96
_cell_length_a 9.016187
_cell_length_b 19.148366
_cell_length_c 32.466119
_cell_angle_alpha 90.000000
_cell_angle_beta 90.000000
_cell_angle_gamma 90.000000
_cell_volume 5605.121186
_symmetry_space_group_name_H-M "C M M M"
_symmetry_group_IT_number 65
_symmetry_cell_setting 'orthorhombic'
loop_
_space_group_symop_operation_xyz
x,y,z
-x,-y,z
x,-y,-z
-x,y,-z
-x,-y,-z
x,y,-z
-x,y,z
x,-y,z
1/2+x,1/2+y,z
1/2-x,1/2-y,z
1/2+x,1/2-y,-z
1/2-x,1/2+y,-z
1/2-x,1/2-y,-z
1/2+x,1/2+y,-z
1/2-x,1/2+y,z
1/2+x,1/2-y,z
loop_
_atom_site_type_symbol
_atom_site_label
_atom_site_fract_x
_atom_site_fract_y
_atom_site_fract_z
Si Si1 0.321861 0.417930 0.287353
Si Si2 0.325235 0.416296 0.117719
Si Si3 0.170997 0.584977 0.202550
Si Si4 0.679195 0.673283 0.634381
Si Si5 0.676984 0.825845 0.047287
Si Si6 0.321276 0.672878 0.544277
O O1 0.500000 0.412414 0.282856
O O2 0.286902 0.500000 0.292949
O O3 0.245913 0.392598 0.245267
O O4 0.275116 0.374603 0.327412
O O5 0.500000 0.401422 0.116461
O O6 0.305253 0.500000 0.114629
O O7 0.258035 0.393077 0.161611
O O8 0.243400 0.378548 0.080392
O O9 0.175224 0.500000 0.202884
O O10 0.000000 0.606719 0.200479
O O11 0.500000 0.679610 0.635730
O O12 0.750000 0.750000 0.637780
O O13 0.719316 0.642496 0.589064
O O14 0.500000 0.820693 0.051921
O O15 0.750000 0.750000 0.053300
O O16 0.708880 0.847647 0.000000
O O17 0.278955 0.639524 0.500000
O O18 0.500000 0.679057 0.544195
O O19 0.250000 0.750000 0.544191
#
# Coordination Sequence:
#
# PCOD9489498 Si02
#       6
#    16  16  16  16  16  16
#     4   9  17  30  47  65  88 120 155 187 225 279
#     4  10  20  34  54  79 105 132 164 204 247 289
#     4   9  17  30  49  72  96 122 156 198 240 281
#     4   9  17  28  43  64  89 116 146 185 230 271
#     4  10  21  37  56  77 104 138 172 205 243 289
#     4   8  13  22  37  57  81 109 142 179 219 265
#
# _framework density 17.127193999999999
#
# number of rings (size 3 to 8) (size 9 to 14) (size 15 to 20)
#    0.000    2.833    0.000    1.500    0.000    5.000 
#    0.000    2.500    0.000    2.500    0.000    3.500 
#    0.000    0.000    0.000   31.167    0.000   17.000 
#
# Total GULP energy -267304.529551 kJ/mol
# GULP energy per Si atom -5568.844366 kJ/mol
# Density = 1.708821 g / cm^3
# Si number density = 17.127194 Si / 1000 Ang^3
#
#
#
# Elastic Constant Matrix: (Units=GPa)
#
#
# Indices 1 2 3 4 5 6 
#
# 1 55.6623 30.1568 75.8828 0.0000 0.0000 0.0000
# 2 30.1568 27.0735 57.6850 0.0000 0.0000 0.0000
# 3 75.8828 57.6850 204.8280 0.0000 0.0000 0.0000
# 4 0.0000 0.0000 0.0000 28.2441 0.0000 0.0000
# 5 0.0000 0.0000 0.0000 0.0000 26.2721 0.0000
# 6 0.0000 0.0000 0.0000 0.0000 0.0000 20.0174
#
#
#
# Elastic Compliance Matrix: (Units=1/GPa)
#
#
# Indices 1 2 3 4 5 6 
#
# 1 0.048970 -0.039736 -0.006951 0.000000 0.000000 0.000000
# 2 -0.039736 0.124597 -0.020369 0.000000 0.000000 0.000000
# 3 -0.006951 -0.020369 0.013194 0.000000 0.000000 0.000000
# 4 0.000000 0.000000 0.000000 0.035406 0.000000 0.000000
# 5 0.000000 0.000000 0.000000 0.000000 0.038063 0.000000
# 6 0.000000 0.000000 0.000000 0.000000 0.000000 0.049957
#
#
# Mechanical properties :
#
#
# Convention : Reuss Voigt Hill
#
# Bulk Modulus (GPa) = 18.99380 68.33477 43.66429
# Shear Modulus (GPa) = 10.82604 23.16266 16.99435
#
# Velocity S-wave (km/s) = 2.51688 3.68148 3.15341
# Velocity P-wave (km/s) = 4.42269 7.61945 6.22962
#
# Compressibility (1/GPa) = 0.05264875
#
# Stress axis : x y z
#
# Youngs Moduli (GPa) = 20.42050 8.02586 75.79320
#
# Poissons Ratio (x) = 0.31892 0.52686
# Poissons Ratio (y) = 0.81143 1.54382
# Poissons Ratio (z) = 0.14195 0.16348
#
# Static dielectric constant tensor:
#      x y z
#    x 1.573020 0.000000 0.000000 
#    y 0.000000 1.552770 0.000000 
#    z 0.000000 0.000000 1.611140 
# 
# From -- ./inp_files/73445.got.cif
#   From: 2010.05.17/outbox.cif.g08.bks.cpg/sg65_37_cif.got.tgz:73445.got - 2010.06.03 17:01:31.
