data_PCOD9489474
_publ_section_title
;
Structure prediction by ZEFSAII (Michael W. Deem and Ramdas Pophale) SiO2 
 PCOD9489474
Probable space group: C M M M
;
_chemical_formula_sum "Si O2"
_cell_formula_units_Z 96
_cell_length_a 28.125319
_cell_length_b 20.981684
_cell_length_c 7.698560
_cell_angle_alpha 90.000000
_cell_angle_beta 90.000000
_cell_angle_gamma 90.000000
_cell_volume 4543.047711
_symmetry_space_group_name_H-M "C M M M"
_symmetry_group_IT_number 65
_symmetry_cell_setting 'orthorhombic'
loop_
_space_group_symop_operation_xyz
x,y,z
-x,-y,z
x,-y,-z
-x,y,-z
-x,-y,-z
x,y,-z
-x,y,z
x,-y,z
1/2+x,1/2+y,z
1/2-x,1/2-y,z
1/2+x,1/2-y,-z
1/2-x,1/2+y,-z
1/2-x,1/2-y,-z
1/2+x,1/2+y,-z
1/2-x,1/2+y,z
1/2+x,1/2-y,z
loop_
_atom_site_type_symbol
_atom_site_label
_atom_site_fract_x
_atom_site_fract_y
_atom_site_fract_z
Si Si1 0.552238 0.706454 0.293597
Si Si2 0.554477 0.927045 0.210234
Si Si3 0.093066 0.071531 0.790260
Si Si4 0.231743 0.316493 0.204240
Si Si5 0.702812 0.571015 0.212270
Si Si6 0.123517 0.312118 0.297136
O O1 0.550744 0.718777 0.500000
O O2 0.500000 0.722146 0.221418
O O3 0.563048 0.631953 0.268809
O O4 0.593851 0.751985 0.222773
O O5 0.500000 0.913128 0.264304
O O6 0.590711 0.874340 0.276647
O O7 0.565654 0.000000 0.263021
O O8 0.555623 0.925449 0.000000
O O9 0.148019 0.082356 0.736663
O O10 0.078753 0.000000 0.732204
O O11 0.091672 0.070984 0.000000
O O12 0.250000 0.250000 0.280801
O O13 0.261034 0.375929 0.277341
O O14 0.175251 0.321748 0.217439
O O15 0.243987 0.315495 0.000000
O O16 0.716399 0.500000 0.268345
O O17 0.703007 0.570669 0.000000
O O18 0.132126 0.300199 0.500000
#
# Coordination Sequence:
#
# PCOD9489474 Si02
#       6
#    16  16  16  16  16  16
#     4  10  22  38  53  72 103 143 181 214 255 312
#     4   9  19  37  60  84 109 139 178 223 270 323
#     4   9  18  34  57  83 107 132 169 217 264 310
#     4  10  20  34  54  78 103 136 180 224 266 315
#     4   8  15  30  52  76 102 132 165 205 255 308
#     4  11  23  37  54  78 110 145 181 223 270 321
#
# _framework density 21.131188000000002
#
# number of rings (size 3 to 8) (size 9 to 14) (size 15 to 20)
#    0.000    2.500    0.000    3.500    0.000    6.000 
#    0.000    5.000    0.000    1.000    0.000    0.000 
#    0.000    0.000    0.000    0.000    0.000    0.000 
#
# Total GULP energy -267990.873379 kJ/mol
# GULP energy per Si atom -5583.143195 kJ/mol
# Density = 2.108309 g / cm^3
# Si number density = 21.131188 Si / 1000 Ang^3
#
#
#
# Elastic Constant Matrix: (Units=GPa)
#
#
# Indices 1 2 3 4 5 6 
#
# 1 43.6244 23.7199 -11.6650 0.0000 0.0000 0.0000
# 2 23.7199 77.3541 -8.0580 0.0000 0.0000 0.0000
# 3 -11.6650 -8.0580 31.0385 0.0000 0.0000 0.0000
# 4 0.0000 0.0000 0.0000 17.2073 0.0000 0.0000
# 5 0.0000 0.0000 0.0000 0.0000 114.7560 0.0000
# 6 0.0000 0.0000 0.0000 0.0000 0.0000 38.8087
#
#
#
# Elastic Compliance Matrix: (Units=1/GPa)
#
#
# Indices 1 2 3 4 5 6 
#
# 1 0.029805 -0.008194 0.009074 0.000000 0.000000 0.000000
# 2 -0.008194 0.015540 0.000955 0.000000 0.000000 0.000000
# 3 0.009074 0.000955 0.035876 0.000000 0.000000 0.000000
# 4 0.000000 0.000000 0.000000 0.058115 0.000000 0.000000
# 5 0.000000 0.000000 0.000000 0.000000 0.008714 0.000000
# 6 0.000000 0.000000 0.000000 0.000000 0.000000 0.025767
#
#
# Mechanical properties :
#
#
# Convention : Reuss Voigt Hill
#
# Bulk Modulus (GPa) = 11.77997 17.77899 14.77948
# Shear Modulus (GPa) = 25.19600 44.02240 34.60920
#
# Velocity S-wave (km/s) = 3.45680 4.56926 4.05140
# Velocity P-wave (km/s) = 4.63891 6.02241 5.37535
#
# Compressibility (1/GPa) = 0.08488986
#
# Stress axis : x y z
#
# Youngs Moduli (GPa) = 33.55177 64.35152 27.87368
#
# Poissons Ratio (x) = 0.52730 -0.25293
# Poissons Ratio (y) = 0.27493 -0.02661
# Poissons Ratio (z) = -0.30445 -0.06144
#
# Static dielectric constant tensor:
#      x y z
#    x 1.739690 0.000000 0.000000 
#    y 0.000000 1.800990 0.000000 
#    z 0.000000 0.000000 1.787720 
# 
# From -- ./inp_files/12328.got.cif
#   From: 2010.05.17/outbox.cif.g08.bks.cpg/sg65_7_cif.got.tgz:12328.got - 2010.06.03 17:01:31.
