data_PCOD9489103
_publ_section_title
;
Structure prediction by ZEFSAII (Michael W. Deem and Ramdas Pophale) SiO2 
 PCOD9489103
Probable space group: C M M M
;
_chemical_formula_sum "Si O2"
_cell_formula_units_Z 72
_cell_length_a 18.757754
_cell_length_b 17.068408
_cell_length_c 14.178478
_cell_angle_alpha 90.000000
_cell_angle_beta 90.000000
_cell_angle_gamma 90.000000
_cell_volume 4539.452387
_symmetry_space_group_name_H-M "C M M M"
_symmetry_group_IT_number 65
_symmetry_cell_setting 'orthorhombic'
loop_
_space_group_symop_operation_xyz
x,y,z
-x,-y,z
x,-y,-z
-x,y,-z
-x,-y,-z
x,y,-z
-x,y,z
x,-y,z
1/2+x,1/2+y,z
1/2-x,1/2-y,z
1/2+x,1/2-y,-z
1/2-x,1/2+y,-z
1/2-x,1/2-y,-z
1/2+x,1/2+y,-z
1/2-x,1/2+y,z
1/2+x,1/2-y,z
loop_
_atom_site_type_symbol
_atom_site_label
_atom_site_fract_x
_atom_site_fract_y
_atom_site_fract_z
Si Si1 0.917360 0.300696 0.888492
Si Si2 0.085014 0.000000 0.108316
Si Si3 0.083354 0.093811 0.610411
Si Si4 0.713089 0.092726 0.110795
Si Si5 0.848563 0.151009 0.791005
O O1 0.866907 0.375940 0.875467
O O2 0.883452 0.229685 0.830342
O O3 0.000000 0.313426 0.864040
O O4 0.914311 0.280004 0.000000
O O5 0.112875 0.922706 0.158998
O O6 0.000000 0.000000 0.110394
O O7 0.109507 0.000000 0.000000
O O8 0.094206 0.111366 0.500000
O O9 0.134843 0.139398 0.680932
O O10 0.000000 0.110317 0.633555
O O11 0.093200 0.000000 0.622620
O O12 0.767113 0.140989 0.176334
O O13 0.719530 0.000000 0.129164
O O14 0.731430 0.106248 0.000000
#
# Coordination Sequence:
#
# PCOD9489103 Si02
#       5
#    16   8  16  16  16
#     4  10  21  34  49  71  99 132 168 204 240 285
#     4  11  20  26  39  67 102 134 157 180 221 287
#     4   9  17  29  45  67  97 133 169 200 237 291
#     4  10  20  34  51  71  97 132 169 202 241 289
#     4  12  19  30  49  72 100 128 160 199 248 293
#
# _framework density 15.860944
#
# number of rings (size 3 to 8) (size 9 to 14) (size 15 to 20)
#    0.000    1.667    2.222    5.333    0.000    4.000 
#    0.000    2.222    0.000    2.667    0.000    0.000 
#    0.000    0.000    0.000    9.333    0.000    0.444 
#
# Total GULP energy -200940.277324 kJ/mol
# GULP energy per Si atom -5581.674370 kJ/mol
# Density = 1.582484 g / cm^3
# Si number density = 15.860944 Si / 1000 Ang^3
#
#
#
# Elastic Constant Matrix: (Units=GPa)
#
#
# Indices 1 2 3 4 5 6 
#
# 1 113.5436 30.3708 41.6711 0.0000 0.0000 0.0000
# 2 30.3708 28.8455 20.1954 0.0000 0.0000 0.0000
# 3 41.6711 20.1954 66.2992 0.0000 0.0000 0.0000
# 4 0.0000 0.0000 0.0000 16.4035 0.0000 0.0000
# 5 0.0000 0.0000 0.0000 0.0000 -52.9840 0.0000
# 6 0.0000 0.0000 0.0000 0.0000 0.0000 14.3597
#
#
#
# Elastic Compliance Matrix: (Units=1/GPa)
#
#
# Indices 1 2 3 4 5 6 
#
# 1 0.013590 -0.010586 -0.005317 0.000000 0.000000 0.000000
# 2 -0.010586 0.052311 -0.009281 0.000000 0.000000 0.000000
# 3 -0.005317 -0.009281 0.021252 0.000000 0.000000 0.000000
# 4 0.000000 0.000000 0.000000 0.060963 0.000000 0.000000
# 5 0.000000 0.000000 0.000000 0.000000 -0.018874 0.000000
# 6 0.000000 0.000000 0.000000 0.000000 0.000000 0.069639
#
#
# Mechanical properties :
#
#
# Convention : Reuss Voigt Hill
#
# Bulk Modulus (GPa) = 27.18488 43.68479 35.43483
# Shear Modulus (GPa) = 19.11959 3.31924 11.21941
#
# Velocity S-wave (km/s) = 3.47573 1.44819 2.66251
# Velocity P-wave (km/s) = 5.76925 5.51348 5.64282
#
# Compressibility (1/GPa) = 0.03678515
#
# Stress axis : x y z
#
# Youngs Moduli (GPa) = 73.58222 19.11645 47.05398
#
# Poissons Ratio (x) = 0.20237 0.25020
# Poissons Ratio (y) = 0.77895 0.43670
# Poissons Ratio (z) = 0.39125 0.17742
#
# Static dielectric constant tensor:
#      x y z
#    x 1.552410 0.000000 0.000000 
#    y 0.000000 1.509490 0.000000 
#    z 0.000000 0.000000 1.531340 
# 
# From -- ./inp_files/42155.got.cif
#   From: 2010.05.17/outbox.cif.g08.bks.cpg/sg65_22_cif.got.tgz:42155.got - 2010.06.03 17:01:31.
