data_PCOD9489116
_publ_section_title
;
Structure prediction by ZEFSAII (Michael W. Deem and Ramdas Pophale) SiO2 
 PCOD9489116
Probable space group: C M M M
;
_chemical_formula_sum "Si O2"
_cell_formula_units_Z 104
_cell_length_a 8.305262
_cell_length_b 26.434401
_cell_length_c 28.164101
_cell_angle_alpha 90.000000
_cell_angle_beta 90.000000
_cell_angle_gamma 90.000000
_cell_volume 6183.277024
_symmetry_space_group_name_H-M "C M M M"
_symmetry_group_IT_number 65
_symmetry_cell_setting 'orthorhombic'
loop_
_space_group_symop_operation_xyz
x,y,z
-x,-y,z
x,-y,-z
-x,y,-z
-x,-y,-z
x,y,-z
-x,y,z
x,-y,z
1/2+x,1/2+y,z
1/2-x,1/2-y,z
1/2+x,1/2-y,-z
1/2-x,1/2+y,-z
1/2-x,1/2-y,-z
1/2+x,1/2+y,-z
1/2-x,1/2+y,z
1/2+x,1/2-y,z
loop_
_atom_site_type_symbol
_atom_site_label
_atom_site_fract_x
_atom_site_fract_y
_atom_site_fract_z
Si Si1 0.312882 0.561261 0.384093
Si Si2 0.306743 0.593709 0.276705
Si Si3 0.694867 0.600866 0.054672
Si Si4 0.692395 0.694140 0.224888
Si Si5 0.000000 0.561476 0.445346
Si Si6 0.692525 0.500000 0.892393
Si Si7 0.808782 0.694157 0.882813
Si Si8 0.188506 0.500000 0.214346
O O1 0.500000 0.574640 0.397180
O O2 0.309864 0.500000 0.380421
O O3 0.276063 0.583503 0.332059
O O4 0.166806 0.576456 0.419045
O O5 0.500000 0.591203 0.270609
O O6 0.250171 0.648264 0.258010
O O7 0.234471 0.549178 0.244857
O O8 0.500000 0.599918 0.054763
O O9 0.753872 0.550884 0.082306
O O10 0.748496 0.650776 0.082285
O O11 0.748633 0.600602 0.000000
O O12 0.500000 0.694542 0.225555
O O13 0.750000 0.750000 0.239039
O O14 0.746476 0.684791 0.170704
O O15 0.000000 0.500000 0.445184
O O16 0.000000 0.578334 0.500000
O O17 0.500000 0.500000 0.898740
O O18 0.726715 0.500000 0.836605
O O19 0.750000 0.750000 0.897214
O O20 0.000000 0.694301 0.881502
O O21 0.000000 0.500000 0.205363
#
# Coordination Sequence:
#
# PCOD9489116 Si02
#       8
#    16  16  16  16   8   8  16   8
#     4   9  17  30  48  70 102 141 181 222 265 313
#     4  10  20  34  51  72 103 142 176 211 258 311
#     4  10  21  38  59  79  98 126 164 206 253 303
#     4  10  20  35  54  75 102 137 171 209 256 308
#     4   9  18  30  46  70 104 144 184 224 266 315
#     4  10  21  38  56  74 102 134 165 203 244 305
#     4  11  22  37  56  77 102 130 164 204 254 307
#     4  12  24  31  49  79 104 135 173 210 251 300
#
# _framework density 16.819559000000002
#
# number of rings (size 3 to 8) (size 9 to 14) (size 15 to 20)
#    0.000    1.923    0.769    4.615    1.077    7.385 
#    0.000    1.538    0.000    1.385    0.000    0.000 
#    0.000    0.615    0.308    0.000    0.000    0.000 
#
# Total GULP energy -290201.449006 kJ/mol
# GULP energy per Si atom -5580.797096 kJ/mol
# Density = 1.678128 g / cm^3
# Si number density = 16.819559 Si / 1000 Ang^3
#
#
#
# Elastic Constant Matrix: (Units=GPa)
#
#
# Indices 1 2 3 4 5 6 
#
# 1 64.1336 41.1188 51.3544 0.0000 0.0000 0.0000
# 2 41.1188 105.0228 71.9959 0.0000 0.0000 0.0000
# 3 51.3544 71.9959 101.0919 0.0000 0.0000 0.0000
# 4 0.0000 0.0000 0.0000 -1.9802 0.0000 0.0000
# 5 0.0000 0.0000 0.0000 0.0000 20.1016 0.0000
# 6 0.0000 0.0000 0.0000 0.0000 0.0000 21.4499
#
#
#
# Elastic Compliance Matrix: (Units=1/GPa)
#
#
# Indices 1 2 3 4 5 6 
#
# 1 0.026552 -0.002245 -0.011889 0.000000 0.000000 0.000000
# 2 -0.002245 0.018795 -0.012245 0.000000 0.000000 0.000000
# 3 -0.011889 -0.012245 0.024652 0.000000 0.000000 0.000000
# 4 0.000000 0.000000 0.000000 -0.505006 0.000000 0.000000
# 5 0.000000 0.000000 0.000000 0.000000 0.049747 0.000000
# 6 0.000000 0.000000 0.000000 0.000000 0.000000 0.046620
#
#
# Mechanical properties :
#
#
# Convention : Reuss Voigt Hill
#
# Bulk Modulus (GPa) = 58.00295 66.57628 62.28962
# Shear Modulus (GPa) = -17.84868 14.96622 -1.44123
#
# Velocity S-wave (km/s) = -3.26112 2.98620 -0.92668
# Velocity P-wave (km/s) = 4.51447 7.18042 5.99745
#
# Compressibility (1/GPa) = 0.01724050
#
# Stress axis : x y z
#
# Youngs Moduli (GPa) = 37.66136 53.20553 40.56400
#
# Poissons Ratio (x) = 0.11946 0.48228
# Poissons Ratio (y) = 0.08456 0.49670
# Poissons Ratio (z) = 0.44777 0.65150
#
# Static dielectric constant tensor:
#      x y z
#    x 1.584980 0.000000 0.000000 
#    y 0.000000 1.562880 0.000000 
#    z 0.000000 0.000000 1.547400 
# 
# From -- ./inp_files/73648.got.cif
#   From: 2010.05.17/outbox.cif.g08.bks.cpg/sg65_37_cif.got.tgz:73648.got - 2010.06.03 17:01:31.
