data_PCOD9489832
_publ_section_title
;
Structure prediction by ZEFSAII (Michael W. Deem and Ramdas Pophale) SiO2 
 PCOD9489832
Probable space group: C M M M
;
_chemical_formula_sum "Si O2"
_cell_formula_units_Z 96
_cell_length_a 9.405799
_cell_length_b 27.678538
_cell_length_c 21.066844
_cell_angle_alpha 90.000000
_cell_angle_beta 90.000000
_cell_angle_gamma 90.000000
_cell_volume 5484.516150
_symmetry_space_group_name_H-M "C M M M"
_symmetry_group_IT_number 65
_symmetry_cell_setting 'orthorhombic'
loop_
_space_group_symop_operation_xyz
x,y,z
-x,-y,z
x,-y,-z
-x,y,-z
-x,-y,-z
x,y,-z
-x,y,z
x,-y,z
1/2+x,1/2+y,z
1/2-x,1/2-y,z
1/2+x,1/2-y,-z
1/2-x,1/2+y,-z
1/2-x,1/2-y,-z
1/2+x,1/2+y,-z
1/2-x,1/2+y,z
1/2+x,1/2-y,z
loop_
_atom_site_type_symbol
_atom_site_label
_atom_site_fract_x
_atom_site_fract_y
_atom_site_fract_z
Si Si1 0.334513 0.298041 0.278373
Si Si2 0.334281 0.596463 0.923493
Si Si3 0.169266 0.699743 0.500000
Si Si4 0.840869 0.056773 0.575790
Si Si5 0.832223 0.638940 0.372803
Si Si6 0.165245 0.500000 0.922617
Si Si7 0.166358 0.798685 0.125724
O O1 0.500000 0.294669 0.295920
O O2 0.250000 0.250000 0.297876
O O3 0.256818 0.341061 0.314144
O O4 0.325233 0.301957 0.202244
O O5 0.500000 0.591339 0.903483
O O6 0.244857 0.549462 0.902293
O O7 0.282907 0.649443 0.900891
O O8 0.331567 0.596704 0.000000
O O9 0.250000 0.750000 0.500000
O O10 0.203290 0.669892 0.563782
O O11 0.000000 0.707911 0.500000
O O12 0.824895 0.063055 0.500000
O O13 0.719630 0.085486 0.611344
O O14 0.000000 0.074650 0.592799
O O15 0.835392 0.000000 0.588640
O O16 0.000000 0.642422 0.361476
O O17 0.000000 0.500000 0.903402
O O18 0.168946 0.500000 0.000000
O O19 0.250000 0.750000 0.106087
O O20 0.000000 0.793495 0.107798
#
# Coordination Sequence:
#
# PCOD9489832 Si02
#       7
#    16  16   8  16  16   8  16
#     4  10  20  35  53  73  98 132 172 208 246 294
#     4   9  17  31  52  77 105 138 173 210 254 305
#     4  10  22  34  45  68  99 125 152 193 243 292
#     4   9  18  33  53  76 100 128 162 198 242 297
#     4  11  21  34  51  74 100 129 164 202 250 298
#     4   9  17  29  47  75 107 137 171 212 257 302
#     4   9  19  34  52  75 104 137 174 211 252 302
#
# _framework density 17.503824000000002
#
# number of rings (size 3 to 8) (size 9 to 14) (size 15 to 20)
#    0.000    2.417    0.833    2.250    0.000    5.667 
#    0.000    0.833    1.833    0.000    0.000    0.000 
#    0.000    0.000    0.000    0.000    0.000    0.000 
#
# Total GULP energy -267622.280637 kJ/mol
# GULP energy per Si atom -5575.464180 kJ/mol
# Density = 1.746398 g / cm^3
# Si number density = 17.503824 Si / 1000 Ang^3
#
#
#
# Elastic Constant Matrix: (Units=GPa)
#
#
# Indices 1 2 3 4 5 6 
#
# 1 86.6199 66.2687 20.2275 0.0000 0.0000 0.0000
# 2 66.2687 130.9898 18.5414 0.0000 0.0000 0.0000
# 3 20.2275 18.5414 7.2514 0.0000 0.0000 0.0000
# 4 0.0000 0.0000 0.0000 17.9992 0.0000 0.0000
# 5 0.0000 0.0000 0.0000 0.0000 0.4776 0.0000
# 6 0.0000 0.0000 0.0000 0.0000 0.0000 37.0323
#
#
#
# Elastic Compliance Matrix: (Units=1/GPa)
#
#
# Indices 1 2 3 4 5 6 
#
# 1 0.036148 -0.006292 -0.084745 0.000000 0.000000 0.000000
# 2 -0.006292 0.013060 -0.015842 0.000000 0.000000 0.000000
# 3 -0.084745 -0.015842 0.414801 0.000000 0.000000 0.000000
# 4 0.000000 0.000000 0.000000 0.055558 0.000000 0.000000
# 5 0.000000 0.000000 0.000000 0.000000 2.093694 0.000000
# 6 0.000000 0.000000 0.000000 0.000000 0.000000 0.027003
#
#
# Mechanical properties :
#
#
# Convention : Reuss Voigt Hill
#
# Bulk Modulus (GPa) = 3.99598 48.32626 26.16112
# Shear Modulus (GPa) = 1.70216 19.09008 10.39612
#
# Velocity S-wave (km/s) = 0.98720 3.30604 2.43972
# Velocity P-wave (km/s) = 1.89401 6.49939 4.78693
#
# Compressibility (1/GPa) = 0.25025175
#
# Stress axis : x y z
#
# Youngs Moduli (GPa) = 27.66401 76.57137 2.41080
#
# Poissons Ratio (x) = 0.48179 0.20430
# Poissons Ratio (y) = 0.17406 0.03819
# Poissons Ratio (z) = 2.34438 1.21301
#
# Static dielectric constant tensor:
#      x y z
#    x 1.599480 0.000000 0.000000 
#    y 0.000000 1.602580 0.000000 
#    z 0.000000 0.000000 1.584330 
# 
# From -- ./inp_files/68120.got.cif
#   From: 2010.05.17/outbox.cif.g08.bks.cpg/sg65_35_cif.got.tgz:68120.got - 2010.06.03 17:01:31.
