data_PCOD9489614
_publ_section_title
;
Structure prediction by ZEFSAII (Michael W. Deem and Ramdas Pophale) SiO2 
 PCOD9489614
Probable space group: C M M M
;
_chemical_formula_sum "Si O2"
_cell_formula_units_Z 100
_cell_length_a 27.882286
_cell_length_b 9.403993
_cell_length_c 21.225788
_cell_angle_alpha 90.000000
_cell_angle_beta 90.000000
_cell_angle_gamma 90.000000
_cell_volume 5565.503972
_symmetry_space_group_name_H-M "C M M M"
_symmetry_group_IT_number 65
_symmetry_cell_setting 'orthorhombic'
loop_
_space_group_symop_operation_xyz
x,y,z
-x,-y,z
x,-y,-z
-x,y,-z
-x,-y,-z
x,y,-z
-x,y,z
x,-y,z
1/2+x,1/2+y,z
1/2-x,1/2-y,z
1/2+x,1/2-y,-z
1/2-x,1/2+y,-z
1/2-x,1/2-y,-z
1/2+x,1/2+y,-z
1/2-x,1/2+y,z
1/2+x,1/2-y,z
loop_
_atom_site_type_symbol
_atom_site_label
_atom_site_fract_x
_atom_site_fract_y
_atom_site_fract_z
Si Si1 0.554474 0.500000 0.424765
Si Si2 0.597619 0.169618 0.074178
Si Si3 0.800078 0.830740 0.303130
Si Si4 0.611164 0.778352 0.383746
Si Si5 0.381240 0.000000 0.500000
Si Si6 0.556300 0.159451 0.741176
Si Si7 0.133966 0.832965 0.815951
Si Si8 0.000000 0.837181 0.924037
O O1 0.500000 0.500000 0.399655
O O2 0.551881 0.500000 0.500000
O O3 0.583419 0.636539 0.403104
O O4 0.636101 0.240662 0.120618
O O5 0.547426 0.247363 0.091480
O O6 0.594105 0.000000 0.082297
O O7 0.606760 0.196806 0.000000
O O8 0.750000 0.750000 0.308332
O O9 0.838435 0.763569 0.351478
O O10 0.822562 0.813387 0.233163
O O11 0.795353 0.000000 0.314893
O O12 0.577800 0.843904 0.329086
O O13 0.617637 0.877321 0.444012
O O14 0.500000 0.192387 0.741012
O O15 0.587706 0.273848 0.778319
O O16 0.562717 0.000000 0.768464
O O17 0.129030 0.000000 0.829993
O O18 0.000000 0.000000 0.899292
O O19 0.000000 0.847664 0.000000
#
# Coordination Sequence:
#
# PCOD9489614 Si02
#       8
#     8  16  16  16   4  16  16   8
#     4  11  22  38  61  87 124 171 202 240 297 357
#     4  10  20  34  54  81 117 161 204 252 307 367
#     4  10  23  42  69  92 117 155 201 256 314 374
#     4  11  22  42  60  89 123 158 203 248 303 364
#     4  12  24  38  67  90 126 164 194 256 301 362
#     4  10  21  36  54  80 115 157 201 247 295 348
#     4  10  22  38  57  86 118 154 203 253 306 367
#     4   9  17  29  47  73 109 157 207 247 292 357
#
# _framework density 17.967825999999999
#
# number of rings (size 3 to 8) (size 9 to 14) (size 15 to 20)
#    0.000    1.760    2.400    1.680    3.360    3.520 
#    0.000    2.000    1.760    0.480    0.000    0.000 
#    0.000    0.000    0.000    0.000    0.000    0.000 
#
# Total GULP energy -278538.741806 kJ/mol
# GULP energy per Si atom -5570.774836 kJ/mol
# Density = 1.792693 g / cm^3
# Si number density = 17.967826 Si / 1000 Ang^3
#
#
#
# Elastic Constant Matrix: (Units=GPa)
#
#
# Indices 1 2 3 4 5 6 
#
# 1 107.9940 54.1780 31.5329 0.0000 0.0000 0.0000
# 2 54.1780 140.5128 51.3812 0.0000 0.0000 0.0000
# 3 31.5329 51.3812 112.0568 0.0000 0.0000 0.0000
# 4 0.0000 0.0000 0.0000 37.2047 0.0000 0.0000
# 5 0.0000 0.0000 0.0000 0.0000 14.4606 0.0000
# 6 0.0000 0.0000 0.0000 0.0000 0.0000 29.0928
#
#
#
# Elastic Compliance Matrix: (Units=1/GPa)
#
#
# Indices 1 2 3 4 5 6 
#
# 1 0.011678 -0.003966 -0.001468 0.000000 0.000000 0.000000
# 2 -0.003966 0.009897 -0.003422 0.000000 0.000000 0.000000
# 3 -0.001468 -0.003422 0.010906 0.000000 0.000000 0.000000
# 4 0.000000 0.000000 0.000000 0.026878 0.000000 0.000000
# 5 0.000000 0.000000 0.000000 0.000000 0.069153 0.000000
# 6 0.000000 0.000000 0.000000 0.000000 0.000000 0.034373
#
#
# Mechanical properties :
#
#
# Convention : Reuss Voigt Hill
#
# Bulk Modulus (GPa) = 67.70563 70.52753 69.11658
# Shear Modulus (GPa) = 26.95112 31.04972 29.00042
#
# Velocity S-wave (km/s) = 3.87714 4.16152 4.02184
# Velocity P-wave (km/s) = 7.60305 7.90116 7.75354
#
# Compressibility (1/GPa) = 0.01476982
#
# Stress axis : x y z
#
# Youngs Moduli (GPa) = 85.63131 101.03690 91.69084
#
# Poissons Ratio (x) = 0.40072 0.13457
# Poissons Ratio (y) = 0.33962 0.31378
# Poissons Ratio (z) = 0.12568 0.34577
#
# Static dielectric constant tensor:
#      x y z
#    x 1.588920 0.000000 0.000000 
#    y 0.000000 1.670970 0.000000 
#    z 0.000000 0.000000 1.640570 
# 
# From -- ./inp_files/66483.got.cif
#   From: 2010.05.17/outbox.cif.g08.bks.cpg/sg65_34_cif.got.tgz:66483.got - 2010.06.03 17:01:31.
