data_PCOD9489707
_publ_section_title
;
Structure prediction by ZEFSAII (Michael W. Deem and Ramdas Pophale) SiO2 
 PCOD9489707
Probable space group: C M M M
;
_chemical_formula_sum "Si O2"
_cell_formula_units_Z 88
_cell_length_a 27.897392
_cell_length_b 19.153966
_cell_length_c 8.988811
_cell_angle_alpha 90.000000
_cell_angle_beta 90.000000
_cell_angle_gamma 90.000000
_cell_volume 4803.132487
_symmetry_space_group_name_H-M "C M M M"
_symmetry_group_IT_number 65
_symmetry_cell_setting 'orthorhombic'
loop_
_space_group_symop_operation_xyz
x,y,z
-x,-y,z
x,-y,-z
-x,y,-z
-x,-y,-z
x,y,-z
-x,y,z
x,-y,z
1/2+x,1/2+y,z
1/2-x,1/2-y,z
1/2+x,1/2-y,-z
1/2-x,1/2+y,-z
1/2-x,1/2-y,-z
1/2+x,1/2+y,-z
1/2-x,1/2+y,z
1/2+x,1/2-y,z
loop_
_atom_site_type_symbol
_atom_site_label
_atom_site_fract_x
_atom_site_fract_y
_atom_site_fract_z
Si Si1 0.000000 0.083648 0.173412
Si Si2 0.721257 0.915237 0.329238
Si Si3 0.386621 0.082018 0.679292
Si Si4 0.091065 0.843198 0.322570
Si Si5 0.681062 0.416220 0.825020
Si Si6 0.443348 0.203712 0.823133
O O1 0.047072 0.113190 0.252781
O O2 0.000000 0.000000 0.178514
O O3 0.000000 0.105896 0.000000
O O4 0.728948 0.892415 0.500000
O O5 0.667767 0.894758 0.280725
O O6 0.765906 0.894385 0.228367
O O7 0.720324 0.000000 0.331035
O O8 0.390884 0.088650 0.500000
O O9 0.424265 0.130385 0.761904
O O10 0.392131 0.000000 0.715216
O O11 0.088307 0.843976 0.500000
O O12 0.140331 0.877105 0.266771
O O13 0.084582 0.765227 0.260569
O O14 0.676691 0.500000 0.800803
O O15 0.674712 0.403196 0.000000
O O16 0.500000 0.211868 0.793288
O O17 0.436019 0.208957 0.000000
#
# Coordination Sequence:
#
# PCOD9489707 Si02
#       6
#     8  16  16  16  16  16
#     4  11  23  39  59  83 114 149 188 237 287 335
#     4   8  15  31  55  83 115 149 185 229 281 335
#     4   9  19  37  62  90 118 148 186 234 285 341
#     4  12  24  38  58  82 111 151 196 239 283 337
#     4  10  20  34  55  84 118 154 190 233 284 336
#     4  11  24  41  60  81 113 153 190 237 294 346
#
# _framework density 18.321375
#
# number of rings (size 3 to 8) (size 9 to 14) (size 15 to 20)
#    0.000    1.909    0.909    4.636    0.000    6.545 
#    0.000    4.545    0.000    5.455    0.000    0.000 
#    0.000    0.000    0.000    0.000    0.000    0.000 
#
# Total GULP energy -245724.936899 kJ/mol
# GULP energy per Si atom -5584.657657 kJ/mol
# Density = 1.827967 g / cm^3
# Si number density = 18.321375 Si / 1000 Ang^3
#
#
#
# Elastic Constant Matrix: (Units=GPa)
#
#
# Indices 1 2 3 4 5 6 
#
# 1 45.7655 20.4721 42.5461 0.0000 0.0000 0.0000
# 2 20.4721 59.0369 45.5133 0.0000 0.0000 0.0000
# 3 42.5461 45.5133 100.9425 0.0000 0.0000 0.0000
# 4 0.0000 0.0000 0.0000 28.4936 0.0000 0.0000
# 5 0.0000 0.0000 0.0000 0.0000 1053.6891 0.0000
# 6 0.0000 0.0000 0.0000 0.0000 0.0000 -584.8152
#
#
#
# Elastic Compliance Matrix: (Units=1/GPa)
#
#
# Indices 1 2 3 4 5 6 
#
# 1 0.035985 -0.001204 -0.014624 0.000000 0.000000 0.000000
# 2 -0.001204 0.026004 -0.011217 0.000000 0.000000 0.000000
# 3 -0.014624 -0.011217 0.021128 0.000000 0.000000 0.000000
# 4 0.000000 0.000000 0.000000 0.035096 0.000000 0.000000
# 5 0.000000 0.000000 0.000000 0.000000 0.000949 0.000000
# 6 0.000000 0.000000 0.000000 0.000000 0.000000 -0.001710
#
#
# Mechanical properties :
#
#
# Convention : Reuss Voigt Hill
#
# Bulk Modulus (GPa) = 34.45223 46.97865 40.71544
# Shear Modulus (GPa) = 27.59118 105.95439 66.77279
#
# Velocity S-wave (km/s) = 3.88487 7.61292 6.04354
# Velocity P-wave (km/s) = 6.24245 10.14754 8.42439
#
# Compressibility (1/GPa) = 0.02902569
#
# Stress axis : x y z
#
# Youngs Moduli (GPa) = 27.78963 38.45605 47.33011
#
# Poissons Ratio (x) = 0.04630 0.69217
# Poissons Ratio (y) = 0.03346 0.53091
# Poissons Ratio (z) = 0.40640 0.43137
#
# Static dielectric constant tensor:
#      x y z
#    x 1.619140 0.000000 0.000000 
#    y 0.000000 1.623250 0.000000 
#    z 0.000000 0.000000 1.608540 
# 
# From -- ./inp_files/18291.got.cif
#   From: 2010.05.17/outbox.cif.g08.bks.cpg/sg65_10_cif.got.tgz:18291.got - 2010.06.03 17:01:31.
