data_PCOD9489214
_publ_section_title
;
Structure prediction by ZEFSAII (Michael W. Deem and Ramdas Pophale) SiO2 
 PCOD9489214
Probable space group: C M M M
;
_chemical_formula_sum "Si O2"
_cell_formula_units_Z 104
_cell_length_a 19.949252
_cell_length_b 16.055997
_cell_length_c 16.286389
_cell_angle_alpha 90.000000
_cell_angle_beta 90.000000
_cell_angle_gamma 90.000000
_cell_volume 5216.613950
_symmetry_space_group_name_H-M "C M M M"
_symmetry_group_IT_number 65
_symmetry_cell_setting 'orthorhombic'
loop_
_space_group_symop_operation_xyz
x,y,z
-x,-y,z
x,-y,-z
-x,y,-z
-x,-y,-z
x,y,-z
-x,y,z
x,-y,z
1/2+x,1/2+y,z
1/2-x,1/2-y,z
1/2+x,1/2-y,-z
1/2-x,1/2+y,-z
1/2-x,1/2-y,-z
1/2+x,1/2+y,-z
1/2-x,1/2+y,z
1/2+x,1/2-y,z
loop_
_atom_site_type_symbol
_atom_site_label
_atom_site_fract_x
_atom_site_fract_y
_atom_site_fract_z
Si Si1 0.076921 0.830127 0.326381
Si Si2 0.715753 0.901980 0.589926
Si Si3 0.426594 0.096576 0.144482
Si Si4 0.783586 0.602009 0.090458
Si Si5 0.074856 0.368796 0.664278
Si Si6 0.296622 0.601057 0.250680
Si Si7 0.418615 0.594538 0.500000
O O1 0.077082 0.730853 0.327963
O O2 0.128460 0.865910 0.261013
O O3 0.100851 0.861559 0.415882
O O4 0.000000 0.858394 0.313978
O O5 0.731694 0.865657 0.500000
O O6 0.636502 0.895370 0.608308
O O7 0.754430 0.868352 0.669763
O O8 0.732207 0.000000 0.586835
O O9 0.500000 0.134694 0.127368
O O10 0.359914 0.132275 0.104158
O O11 0.416758 0.097622 0.243060
O O12 0.429855 0.000000 0.118625
O O13 0.785286 0.500000 0.093566
O O14 0.738706 0.628998 0.166984
O O15 0.759543 0.626031 0.000000
O O16 0.000000 0.392548 0.635225
O O17 0.296793 0.500000 0.251606
O O18 0.394146 0.500000 0.500000
O O19 0.500000 0.594005 0.500000
#
# Coordination Sequence:
#
# PCOD9489214 Si02
#       7
#    16  16  16  16  16  16   8
#     4  10  22  36  53  78 104 136 178 223 271 318
#     4  10  21  35  52  77 108 146 187 216 250 308
#     4   9  16  29  51  76 105 143 181 216 259 310
#     4   9  17  31  53  81 108 133 170 222 273 318
#     4  10  20  34  52  74 108 145 179 220 260 304
#     4  10  20  36  56  77 105 138 173 219 271 319
#     4   9  18  34  54  75  99 129 172 225 273 313
#
# _framework density 19.936302999999999
#
# number of rings (size 3 to 8) (size 9 to 14) (size 15 to 20)
#    0.000    2.385    1.538    0.923    2.154    3.077 
#    0.000    3.077    0.000    2.308    0.000    4.308 
#    0.000    0.000    0.000    0.000    0.000    0.000 
#
# Total GULP energy -290188.710252 kJ/mol
# GULP energy per Si atom -5580.552120 kJ/mol
# Density = 1.989093 g / cm^3
# Si number density = 19.936303 Si / 1000 Ang^3
#
#
#
# Elastic Constant Matrix: (Units=GPa)
#
#
# Indices 1 2 3 4 5 6 
#
# 1 114.7512 7.6692 77.4131 0.0000 0.0000 0.0000
# 2 7.6692 26.9800 13.3021 0.0000 0.0000 0.0000
# 3 77.4131 13.3021 137.4734 0.0000 0.0000 0.0000
# 4 0.0000 0.0000 0.0000 -4.2601 0.0000 0.0000
# 5 0.0000 0.0000 0.0000 0.0000 21.1312 0.0000
# 6 0.0000 0.0000 0.0000 0.0000 0.0000 15.6052
#
#
#
# Elastic Compliance Matrix: (Units=1/GPa)
#
#
# Indices 1 2 3 4 5 6 
#
# 1 0.014053 -0.000098 -0.007904 0.000000 0.000000 0.000000
# 2 -0.000098 0.038922 -0.003711 0.000000 0.000000 0.000000
# 3 -0.007904 -0.003711 0.012084 0.000000 0.000000 0.000000
# 4 0.000000 0.000000 0.000000 -0.234738 0.000000 0.000000
# 5 0.000000 0.000000 0.000000 0.000000 0.047323 0.000000
# 6 0.000000 0.000000 0.000000 0.000000 0.000000 0.064081
#
#
# Mechanical properties :
#
#
# Convention : Reuss Voigt Hill
#
# Bulk Modulus (GPa) = 24.01915 52.88593 38.45254
# Shear Modulus (GPa) = -238.43842 18.54994 -109.94424
#
# Velocity S-wave (km/s) = -10.94805 3.05365 -7.43421
# Velocity P-wave (km/s) = 12.15479 6.24645 7.37295
#
# Compressibility (1/GPa) = 0.04163345
#
# Stress axis : x y z
#
# Youngs Moduli (GPa) = 71.15765 25.69246 82.75300
#
# Poissons Ratio (x) = 0.00251 0.65409
# Poissons Ratio (y) = 0.00695 0.30710
# Poissons Ratio (z) = 0.56244 0.09535
#
# Static dielectric constant tensor:
#      x y z
#    x 1.735510 0.000000 0.000000 
#    y 0.000000 1.690350 0.000000 
#    z 0.000000 0.000000 1.707210 
# 
# From -- ./inp_files/44427.got.cif
#   From: 2010.05.17/outbox.cif.g08.bks.cpg/sg65_23_cif.got.tgz:44427.got - 2010.06.03 17:01:31.
