data_PCOD9489125
_publ_section_title
;
Structure prediction by ZEFSAII (Michael W. Deem and Ramdas Pophale) SiO2 
 PCOD9489125
Probable space group: C M M M
;
_chemical_formula_sum "Si O2"
_cell_formula_units_Z 104
_cell_length_a 17.829683
_cell_length_b 17.828207
_cell_length_c 19.142610
_cell_angle_alpha 90.000000
_cell_angle_beta 90.000000
_cell_angle_gamma 90.000000
_cell_volume 6084.885929
_symmetry_space_group_name_H-M "C M M M"
_symmetry_group_IT_number 65
_symmetry_cell_setting 'orthorhombic'
loop_
_space_group_symop_operation_xyz
x,y,z
-x,-y,z
x,-y,-z
-x,y,-z
-x,-y,-z
x,y,-z
-x,y,z
x,-y,z
1/2+x,1/2+y,z
1/2-x,1/2-y,z
1/2+x,1/2-y,-z
1/2-x,1/2+y,-z
1/2-x,1/2-y,-z
1/2+x,1/2+y,-z
1/2-x,1/2+y,z
1/2+x,1/2-y,z
loop_
_atom_site_type_symbol
_atom_site_label
_atom_site_fract_x
_atom_site_fract_y
_atom_site_fract_z
Si Si1 0.087599 0.206428 0.711154
Si Si2 0.811936 0.312002 0.386698
Si Si3 0.706282 0.412370 0.288849
Si Si4 0.587761 0.209980 0.144386
Si Si5 0.209568 0.089198 0.000000
Si Si6 0.789920 0.587791 0.144420
Si Si7 0.592341 0.092347 0.500000
Si Si8 0.910811 0.790399 0.000000
O O1 0.132608 0.263412 0.661717
O O2 0.125739 0.125844 0.702784
O O3 0.097737 0.233500 0.791086
O O4 0.000000 0.206756 0.694792
O O5 0.750000 0.250000 0.415746
O O6 0.763285 0.367498 0.338377
O O7 0.864158 0.364169 0.436523
O O8 0.706518 0.500000 0.305093
O O9 0.733413 0.402127 0.208941
O O10 0.500000 0.190422 0.140722
O O11 0.638036 0.137992 0.157829
O O12 0.609676 0.246240 0.070466
O O13 0.253708 0.109690 0.929526
O O14 0.131405 0.131427 0.000000
O O15 0.199726 0.000000 0.000000
O O16 0.809383 0.500000 0.140815
O O17 0.500000 0.103566 0.500000
O O18 0.603540 0.000000 0.500000
O O19 0.000000 0.800244 0.000000
#
# Coordination Sequence:
#
# PCOD9489125 Si02
#       8
#    16  16  16  16   8  16   8   8
#     4  10  20  34  54  79 108 142 180 223 268 317
#     4  10  20  37  60  82 109 144 182 217 257 311
#     4  10  20  34  54  79 108 142 180 223 268 317
#     4  10  20  34  51  74 103 136 178 223 268 319
#     4  10  21  34  50  72  98 132 175 224 274 322
#     4  10  20  34  51  74 103 136 178 223 268 319
#     4  11  23  38  58  86 119 145 170 214 264 313
#     4  10  21  34  50  72  98 132 175 224 274 322
#
# _framework density 17.091528
#
# number of rings (size 3 to 8) (size 9 to 14) (size 15 to 20)
#    0.000    1.923    1.538    2.538    0.000    3.231 
#    0.000    0.000    0.000    8.308    0.000    0.000 
#    0.000   11.077    0.000    0.000    0.000    0.000 
#
# Total GULP energy -289851.231325 kJ/mol
# GULP energy per Si atom -5574.062141 kJ/mol
# Density = 1.705263 g / cm^3
# Si number density = 17.091528 Si / 1000 Ang^3
#
#
#
# Elastic Constant Matrix: (Units=GPa)
#
#
# Indices 1 2 3 4 5 6 
#
# 1 100.1623 75.4065 41.9163 0.0000 0.0000 0.0000
# 2 75.4065 98.9894 41.6784 0.0000 0.0000 0.0000
# 3 41.9163 41.6784 78.1272 0.0000 0.0000 0.0000
# 4 0.0000 0.0000 0.0000 20.2413 0.0000 0.0000
# 5 0.0000 0.0000 0.0000 0.0000 20.3062 0.0000
# 6 0.0000 0.0000 0.0000 0.0000 0.0000 45.1590
#
#
#
# Elastic Compliance Matrix: (Units=1/GPa)
#
#
# Indices 1 2 3 4 5 6 
#
# 1 0.024382 -0.016850 -0.004092 0.000000 0.000000 0.000000
# 2 -0.016850 0.024674 -0.004122 0.000000 0.000000 0.000000
# 3 -0.004092 -0.004122 0.017194 0.000000 0.000000 0.000000
# 4 0.000000 0.000000 0.000000 0.049404 0.000000 0.000000
# 5 0.000000 0.000000 0.000000 0.000000 0.049246 0.000000
# 6 0.000000 0.000000 0.000000 0.000000 0.000000 0.022144
#
#
# Mechanical properties :
#
#
# Convention : Reuss Voigt Hill
#
# Bulk Modulus (GPa) = 62.03282 66.14237 64.08760
# Shear Modulus (GPa) = 20.61462 25.02649 22.82056
#
# Velocity S-wave (km/s) = 3.47671 3.83072 3.65800
# Velocity P-wave (km/s) = 7.24499 7.63864 7.44442
#
# Compressibility (1/GPa) = 0.01612050
#
# Stress axis : x y z
#
# Youngs Moduli (GPa) = 41.01403 40.52911 58.15920
#
# Poissons Ratio (x) = 0.68293 0.23799
# Poissons Ratio (y) = 0.69110 0.23974
# Poissons Ratio (z) = 0.16783 0.16707
#
# Static dielectric constant tensor:
#      x y z
#    x 1.554280 0.000000 0.000000 
#    y 0.000000 1.554230 0.000000 
#    z 0.000000 0.000000 1.596480 
# 
# From -- ./inp_files/54635.got.cif
#   From: 2010.05.17/outbox.cif.g08.bks.cpg/sg65_28_cif.got.tgz:54635.got - 2010.06.03 17:01:31.
