data_PCOD9489449
_publ_section_title
;
Structure prediction by ZEFSAII (Michael W. Deem and Ramdas Pophale) SiO2 
 PCOD9489449
Probable space group: C M M M
;
_chemical_formula_sum "Si O2"
_cell_formula_units_Z 88
_cell_length_a 23.671269
_cell_length_b 24.724042
_cell_length_c 7.619781
_cell_angle_alpha 90.000000
_cell_angle_beta 90.000000
_cell_angle_gamma 90.000000
_cell_volume 4459.472631
_symmetry_space_group_name_H-M "C M M M"
_symmetry_group_IT_number 65
_symmetry_cell_setting 'orthorhombic'
loop_
_space_group_symop_operation_xyz
x,y,z
-x,-y,z
x,-y,-z
-x,y,-z
-x,-y,-z
x,y,-z
-x,y,z
x,-y,z
1/2+x,1/2+y,z
1/2-x,1/2-y,z
1/2+x,1/2-y,-z
1/2-x,1/2+y,-z
1/2-x,1/2-y,-z
1/2+x,1/2+y,-z
1/2-x,1/2+y,z
1/2+x,1/2-y,z
loop_
_atom_site_type_symbol
_atom_site_label
_atom_site_fract_x
_atom_site_fract_y
_atom_site_fract_z
Si Si1 0.436497 0.749694 0.286852
Si Si2 0.647632 0.843116 0.294675
Si Si3 0.119188 0.138207 0.795813
Si Si4 0.067277 0.064276 0.500000
Si Si5 0.765967 0.191430 0.202191
Si Si6 0.063401 0.437880 0.788025
O O1 0.434530 0.747874 0.500000
O O2 0.500000 0.765575 0.235778
O O3 0.390495 0.793398 0.226224
O O4 0.420963 0.690712 0.217735
O O5 0.657497 0.833796 0.500000
O O6 0.708907 0.843170 0.208472
O O7 0.610876 0.896867 0.273459
O O8 0.094768 0.092277 0.670320
O O9 0.179931 0.160026 0.726051
O O10 0.123828 0.121430 0.000000
O O11 0.000000 0.075109 0.500000
O O12 0.075997 0.000000 0.500000
O O13 0.750000 0.250000 0.282033
O O14 0.782159 0.202410 0.000000
O O15 0.072814 0.500000 0.732682
O O16 0.000000 0.421646 0.729669
O O17 0.063396 0.437219 0.000000
#
# Coordination Sequence:
#
# PCOD9489449 Si02
#       6
#    16  16  16   8  16  16
#     4  10  20  34  53  84 128 164 195 247 309 365
#     4  11  22  33  55  88 120 158 202 246 299 361
#     4  11  23  40  66  96 125 162 208 253 306 373
#     4  11  26  48  71  94 126 164 201 258 324 379
#     4  10  21  38  59  86 122 161 199 243 296 361
#     4   9  19  37  58  78 109 157 206 252 300 348
#
# _framework density 19.733276
#
# number of rings (size 3 to 8) (size 9 to 14) (size 15 to 20)
#    0.000    1.727    2.727    2.182    1.273    4.364 
#    0.000    2.727    0.000    1.091    0.000    0.000 
#    0.000    0.000    0.000    0.000    0.000    0.000 
#
# Total GULP energy -245826.897504 kJ/mol
# GULP energy per Si atom -5586.974943 kJ/mol
# Density = 1.968836 g / cm^3
# Si number density = 19.733276 Si / 1000 Ang^3
#
#
#
# Elastic Constant Matrix: (Units=GPa)
#
#
# Indices 1 2 3 4 5 6 
#
# 1 129.9122 58.0456 28.1285 0.0000 0.0000 0.0000
# 2 58.0456 99.9159 28.3572 0.0000 0.0000 0.0000
# 3 28.1285 28.3572 76.7381 0.0000 0.0000 0.0000
# 4 0.0000 0.0000 0.0000 14.3954 0.0000 0.0000
# 5 0.0000 0.0000 0.0000 0.0000 11.5076 0.0000
# 6 0.0000 0.0000 0.0000 0.0000 0.0000 18.2732
#
#
#
# Elastic Compliance Matrix: (Units=1/GPa)
#
#
# Indices 1 2 3 4 5 6 
#
# 1 0.010614 -0.005655 -0.001801 0.000000 0.000000 0.000000
# 2 -0.005655 0.014194 -0.003172 0.000000 0.000000 0.000000
# 3 -0.001801 -0.003172 0.014864 0.000000 0.000000 0.000000
# 4 0.000000 0.000000 0.000000 0.069467 0.000000 0.000000
# 5 0.000000 0.000000 0.000000 0.000000 0.086899 0.000000
# 6 0.000000 0.000000 0.000000 0.000000 0.000000 0.054725
#
#
# Mechanical properties :
#
#
# Convention : Reuss Voigt Hill
#
# Bulk Modulus (GPa) = 54.30246 59.51430 56.90838
# Shear Modulus (GPa) = 17.97541 21.63757 19.80649
#
# Velocity S-wave (km/s) = 3.02142 3.31494 3.17158
# Velocity P-wave (km/s) = 6.30475 6.69900 6.50486
#
# Compressibility (1/GPa) = 0.01841537
#
# Stress axis : x y z
#
# Youngs Moduli (GPa) = 94.21356 70.45199 67.27792
#
# Poissons Ratio (x) = 0.39842 0.12116
# Poissons Ratio (y) = 0.53279 0.21342
# Poissons Ratio (z) = 0.16967 0.22349
#
# Static dielectric constant tensor:
#      x y z
#    x 1.698370 0.000000 0.000000 
#    y 0.000000 1.664060 0.000000 
#    z 0.000000 0.000000 1.737220 
# 
# From -- ./inp_files/11790.got.cif
#   From: 2010.05.17/outbox.cif.g08.bks.cpg/sg65_6_cif.got.tgz:11790.got - 2010.06.03 17:01:31.
