data_PCOD9489545
_publ_section_title
;
Structure prediction by ZEFSAII (Michael W. Deem and Ramdas Pophale) SiO2 
 PCOD9489545
Probable space group: C M M M
;
_chemical_formula_sum "Si O2"
_cell_formula_units_Z 72
_cell_length_a 9.024628
_cell_length_b 20.035669
_cell_length_c 23.206680
_cell_angle_alpha 90.000000
_cell_angle_beta 90.000000
_cell_angle_gamma 90.000000
_cell_volume 4196.103300
_symmetry_space_group_name_H-M "C M M M"
_symmetry_group_IT_number 65
_symmetry_cell_setting 'orthorhombic'
loop_
_space_group_symop_operation_xyz
x,y,z
-x,-y,z
x,-y,-z
-x,y,-z
-x,-y,-z
x,y,-z
-x,y,z
x,-y,z
1/2+x,1/2+y,z
1/2-x,1/2-y,z
1/2+x,1/2-y,-z
1/2-x,1/2+y,-z
1/2-x,1/2-y,-z
1/2+x,1/2+y,-z
1/2-x,1/2+y,z
1/2+x,1/2-y,z
loop_
_atom_site_type_symbol
_atom_site_label
_atom_site_fract_x
_atom_site_fract_y
_atom_site_fract_z
Si Si1 0.822738 0.822020 0.289394
Si Si2 0.176200 0.178660 0.845205
Si Si3 0.322381 0.921626 0.066060
Si Si4 0.170409 0.080973 0.500000
Si Si5 0.176812 0.420603 0.380151
O O1 0.750000 0.750000 0.301837
O O2 0.792518 0.837270 0.221989
O O3 0.752436 0.877622 0.330322
O O4 0.000000 0.818612 0.297296
O O5 0.250000 0.250000 0.857804
O O6 0.241156 0.123650 0.887740
O O7 0.000000 0.183810 0.851904
O O8 0.500000 0.913707 0.071563
O O9 0.288936 0.000000 0.074298
O O10 0.282374 0.903990 0.000000
O O11 0.254947 0.100470 0.441764
O O12 0.000000 0.104045 0.500000
O O13 0.168588 0.000000 0.500000
O O14 0.205657 0.500000 0.372550
O O15 0.000000 0.411061 0.380254
#
# Coordination Sequence:
#
# PCOD9489545 Si02
#       5
#    16  16  16   8  16
#     4  10  21  37  55  76 105 139 175 216 263 312
#     4  10  21  36  55  78 104 137 176 217 260 309
#     4   9  19  36  56  78 106 139 173 212 260 311
#     4   9  17  31  52  77 106 139 174 215 261 305
#     4  10  20  34  54  80 108 139 176 215 257 309
#
# _framework density 17.158778000000002
#
# number of rings (size 3 to 8) (size 9 to 14) (size 15 to 20)
#    0.000    2.333    0.000    3.000    0.000    7.556 
#    0.000    6.111    0.000    0.000    0.000    0.000 
#    0.000    0.000    0.000    0.000    0.000    0.000 
#
# Total GULP energy -200914.919139 kJ/mol
# GULP energy per Si atom -5580.969976 kJ/mol
# Density = 1.711972 g / cm^3
# Si number density = 17.158778 Si / 1000 Ang^3
#
#
#
# Elastic Constant Matrix: (Units=GPa)
#
#
# Indices 1 2 3 4 5 6 
#
# 1 97.4551 73.7183 89.2072 0.0000 0.0000 0.0000
# 2 73.7183 91.3371 101.3484 0.0000 0.0000 0.0000
# 3 89.2072 101.3484 141.8949 0.0000 0.0000 0.0000
# 4 0.0000 0.0000 0.0000 105.8212 0.0000 0.0000
# 5 0.0000 0.0000 0.0000 0.0000 35.6901 0.0000
# 6 0.0000 0.0000 0.0000 0.0000 0.0000 34.5010
#
#
#
# Elastic Compliance Matrix: (Units=1/GPa)
#
#
# Indices 1 2 3 4 5 6 
#
# 1 0.027707 -0.014625 -0.006973 0.000000 0.000000 0.000000
# 2 -0.014625 0.060492 -0.034012 0.000000 0.000000 0.000000
# 3 -0.006973 -0.034012 0.035725 0.000000 0.000000 0.000000
# 4 0.000000 0.000000 0.000000 0.009450 0.000000 0.000000
# 5 0.000000 0.000000 0.000000 0.000000 0.028019 0.000000
# 6 0.000000 0.000000 0.000000 0.000000 0.000000 0.028985
#
#
# Mechanical properties :
#
#
# Convention : Reuss Voigt Hill
#
# Bulk Modulus (GPa) = 78.71863 95.47054 87.09458
# Shear Modulus (GPa) = 16.34883 39.63001 27.98942
#
# Velocity S-wave (km/s) = 3.09009 4.81105 4.04319
# Velocity P-wave (km/s) = 7.66210 9.30709 8.52436
#
# Compressibility (1/GPa) = 0.01270347
#
# Stress axis : x y z
#
# Youngs Moduli (GPa) = 36.09236 16.53099 27.99183
#
# Poissons Ratio (x) = 0.24176 0.19519
# Poissons Ratio (y) = 0.52784 0.95207
# Poissons Ratio (z) = 0.25168 0.56226
#
# Static dielectric constant tensor:
#      x y z
#    x 1.569690 0.000000 0.000000 
#    y 0.000000 1.550150 0.000000 
#    z 0.000000 0.000000 1.565390 
# 
# From -- ./inp_files/59198.got.cif
#   From: 2010.05.17/outbox.cif.g08.bks.cpg/sg65_30_cif.got.tgz:59198.got - 2010.06.03 17:01:31.
