data_PCOD9489430
_publ_section_title
;
Structure prediction by ZEFSAII (Michael W. Deem and Ramdas Pophale) SiO2 
 PCOD9489430
Probable space group: C M M M
;
_chemical_formula_sum "Si O2"
_cell_formula_units_Z 116
_cell_length_a 29.568652
_cell_length_b 8.012782
_cell_length_c 28.196370
_cell_angle_alpha 90.000000
_cell_angle_beta 90.000000
_cell_angle_gamma 90.000000
_cell_volume 6680.485937
_symmetry_space_group_name_H-M "C M M M"
_symmetry_group_IT_number 65
_symmetry_cell_setting 'orthorhombic'
loop_
_space_group_symop_operation_xyz
x,y,z
-x,-y,z
x,-y,-z
-x,y,-z
-x,-y,-z
x,y,-z
-x,y,z
x,-y,z
1/2+x,1/2+y,z
1/2-x,1/2-y,z
1/2+x,1/2-y,-z
1/2-x,1/2+y,-z
1/2-x,1/2-y,-z
1/2+x,1/2+y,-z
1/2-x,1/2+y,z
1/2+x,1/2-y,z
loop_
_atom_site_type_symbol
_atom_site_label
_atom_site_fract_x
_atom_site_fract_y
_atom_site_fract_z
Si Si1 0.300925 0.699430 0.553870
Si Si2 0.550391 0.802488 0.792738
Si Si3 0.196774 0.706520 0.922712
Si Si4 0.823738 0.000000 0.000000
Si Si5 0.802004 0.196461 0.732512
Si Si6 0.640061 0.803955 0.358336
Si Si7 0.355373 0.802175 0.825901
Si Si8 0.949613 0.803417 0.313996
O O1 0.308374 0.762133 0.500000
O O2 0.302891 0.500000 0.553092
O O3 0.250000 0.750000 0.568068
O O4 0.336646 0.761809 0.592011
O O5 0.500000 0.731329 0.802077
O O6 0.593923 0.729388 0.819690
O O7 0.559459 0.783554 0.736477
O O8 0.547857 0.000000 0.802956
O O9 0.192561 0.500000 0.933177
O O10 0.250000 0.750000 0.919491
O O11 0.178362 0.846546 0.959393
O O12 0.172047 0.742971 0.872892
O O13 0.750000 0.250000 0.729953
O O14 0.828184 0.242431 0.684517
O O15 0.826942 0.269197 0.778445
O O16 0.803671 0.000000 0.737865
O O17 0.590299 0.730579 0.350457
O O18 0.636065 0.000000 0.353552
O O19 0.361330 0.000000 0.828981
O O20 0.000000 0.753090 0.330093
O O21 0.950077 0.000000 0.303922
#
# Coordination Sequence:
#
# PCOD9489430 Si02
#       8
#    16  16  16   4  16  16  16  16
#     4  10  21  38  59  82 110 142 185 238 285 331
#     4   9  17  32  55  80 111 149 185 225 272 328
#     4  11  23  37  58  84 113 149 189 239 284 334
#     4  12  24  40  62  82 113 148 195 238 282 336
#     4  12  24  36  53  74 110 152 187 224 269 336
#     4  12  23  36  55  80 110 148 189 228 277 334
#     4  10  21  36  53  82 117 147 185 227 278 337
#     4  10  20  34  53  80 110 143 185 231 277 328
#
# _framework density 17.364006
#
# number of rings (size 3 to 8) (size 9 to 14) (size 15 to 20)
#    0.000    1.379    2.069    4.552    0.966    2.759 
#    0.000    0.000    0.000    0.414    0.000    3.862 
#    0.000    3.310    0.000    0.000    0.000    0.000 
#
# Total GULP energy -322931.166398 kJ/mol
# GULP energy per Si atom -5567.778731 kJ/mol
# Density = 1.732448 g / cm^3
# Si number density = 17.364006 Si / 1000 Ang^3
#
#
#
# Elastic Constant Matrix: (Units=GPa)
#
#
# Indices 1 2 3 4 5 6 
#
# 1 66.2686 7.1224 33.5657 0.0000 0.0000 0.0000
# 2 7.1224 56.8626 14.3283 0.0000 0.0000 0.0000
# 3 33.5657 14.3283 80.1864 0.0000 0.0000 0.0000
# 4 0.0000 0.0000 0.0000 21.0055 0.0000 0.0000
# 5 0.0000 0.0000 0.0000 0.0000 85.6986 0.0000
# 6 0.0000 0.0000 0.0000 0.0000 0.0000 275.7953
#
#
#
# Elastic Compliance Matrix: (Units=1/GPa)
#
#
# Indices 1 2 3 4 5 6 
#
# 1 0.019159 -0.000397 -0.007949 0.000000 0.000000 0.000000
# 2 -0.000397 0.018424 -0.003126 0.000000 0.000000 0.000000
# 3 -0.007949 -0.003126 0.016357 0.000000 0.000000 0.000000
# 4 0.000000 0.000000 0.000000 0.047607 0.000000 0.000000
# 5 0.000000 0.000000 0.000000 0.000000 0.011669 0.000000
# 6 0.000000 0.000000 0.000000 0.000000 0.000000 0.003626
#
#
# Mechanical properties :
#
#
# Convention : Reuss Voigt Hill
#
# Bulk Modulus (GPa) = 32.26216 34.81671 33.53943
# Shear Modulus (GPa) = 33.30751 86.38662 59.84706
#
# Velocity S-wave (km/s) = 4.38447 7.06105 5.87716
# Velocity P-wave (km/s) = 6.65219 9.30443 8.08777
#
# Compressibility (1/GPa) = 0.03099606
#
# Stress axis : x y z
#
# Youngs Moduli (GPa) = 52.19483 54.27806 61.13625
#
# Poissons Ratio (x) = 0.02154 0.48597
# Poissons Ratio (y) = 0.02071 0.19111
# Poissons Ratio (z) = 0.41489 0.16967
#
# Static dielectric constant tensor:
#      x y z
#    x 1.599910 0.000000 0.000000 
#    y 0.000000 1.625600 0.000000 
#    z 0.000000 0.000000 1.571100 
# 
# From -- ./inp_files/76094.got.cif
#   From: 2010.05.17/outbox.cif.g08.bks.cpg/sg65_39_cif.got.tgz:76094.got - 2010.06.03 17:01:31.
