data_PCOD9489192
_publ_section_title
;
Structure prediction by ZEFSAII (Michael W. Deem and Ramdas Pophale) SiO2 
 PCOD9489192
Probable space group: C M M M
;
_chemical_formula_sum "Si O2"
_cell_formula_units_Z 96
_cell_length_a 30.339458
_cell_length_b 20.318111
_cell_length_c 8.166402
_cell_angle_alpha 90.000000
_cell_angle_beta 90.000000
_cell_angle_gamma 90.000000
_cell_volume 5034.100731
_symmetry_space_group_name_H-M "C M M M"
_symmetry_group_IT_number 65
_symmetry_cell_setting 'orthorhombic'
loop_
_space_group_symop_operation_xyz
x,y,z
-x,-y,z
x,-y,-z
-x,y,-z
-x,-y,-z
x,y,-z
-x,y,z
x,-y,z
1/2+x,1/2+y,z
1/2-x,1/2-y,z
1/2+x,1/2-y,-z
1/2-x,1/2+y,-z
1/2-x,1/2-y,-z
1/2+x,1/2+y,-z
1/2-x,1/2+y,z
1/2+x,1/2-y,z
loop_
_atom_site_type_symbol
_atom_site_label
_atom_site_fract_x
_atom_site_fract_y
_atom_site_fract_z
Si Si1 0.873454 0.305748 0.809633
Si Si2 0.320618 0.073710 0.688452
Si Si3 0.276385 0.425796 0.809742
Si Si4 0.050943 0.786526 0.799062
Si Si5 0.296709 0.283865 0.307911
Si Si6 0.553553 0.570426 0.194106
O O1 0.855983 0.370621 0.722233
O O2 0.917634 0.271881 0.743810
O O3 0.835237 0.251308 0.790952
O O4 0.879718 0.321569 0.000000
O O5 0.305543 0.079011 0.500000
O O6 0.276645 0.081813 0.795297
O O7 0.337950 0.000000 0.715106
O O8 0.286746 0.500000 0.747493
O O9 0.295603 0.362020 0.721095
O O10 0.289276 0.423053 0.000000
O O11 0.067777 0.858509 0.740834
O O12 0.000000 0.778404 0.751903
O O13 0.052154 0.788176 0.000000
O O14 0.303355 0.269871 0.500000
O O15 0.250000 0.250000 0.261314
O O16 0.500000 0.571282 0.204756
O O17 0.568735 0.500000 0.264423
O O18 0.564104 0.569445 0.000000
#
# Coordination Sequence:
#
# PCOD9489192 Si02
#       6
#    16  16  16  16  16  16
#     4  11  21  32  52  79 105 135 172 218 263 304
#     4  10  20  34  52  74 101 133 169 209 256 315
#     4  10  20  34  54  79 105 134 171 217 263 306
#     4   8  15  28  45  69 101 134 169 212 265 314
#     4  11  22  35  52  74 104 144 178 208 250 306
#     4   7   9  16  34  59  87 121 158 193 232 283
#
# _framework density 19.069939999999999
#
# number of rings (size 3 to 8) (size 9 to 14) (size 15 to 20)
#    0.000    2.500    1.667    3.500    0.000    2.667 
#    0.000    0.833    0.000    5.500    0.000    3.500 
#    0.000    0.000    0.000   18.167    0.000   15.500 
#
# Total GULP energy -267612.668664 kJ/mol
# GULP energy per Si atom -5575.263931 kJ/mol
# Density = 1.902654 g / cm^3
# Si number density = 19.069940 Si / 1000 Ang^3
#
#
#
# Elastic Constant Matrix: (Units=GPa)
#
#
# Indices 1 2 3 4 5 6 
#
# 1 28.1216 19.4960 -2.7911 0.0000 0.0000 0.0000
# 2 19.4960 118.8369 3.5292 0.0000 0.0000 0.0000
# 3 -2.7911 3.5292 17.3125 0.0000 0.0000 0.0000
# 4 0.0000 0.0000 0.0000 24.7918 0.0000 0.0000
# 5 0.0000 0.0000 0.0000 0.0000 -29.6330 0.0000
# 6 0.0000 0.0000 0.0000 0.0000 0.0000 21.6893
#
#
#
# Elastic Compliance Matrix: (Units=1/GPa)
#
#
# Indices 1 2 3 4 5 6 
#
# 1 0.041215 -0.007001 0.008072 0.000000 0.000000 0.000000
# 2 -0.007001 0.009655 -0.003097 0.000000 0.000000 0.000000
# 3 0.008072 -0.003097 0.059694 0.000000 0.000000 0.000000
# 4 0.000000 0.000000 0.000000 0.040336 0.000000 0.000000
# 5 0.000000 0.000000 0.000000 0.000000 -0.033746 0.000000
# 6 0.000000 0.000000 0.000000 0.000000 0.000000 0.046106
#
#
# Mechanical properties :
#
#
# Convention : Reuss Voigt Hill
#
# Bulk Modulus (GPa) = 9.38865 22.74879 16.06872
# Shear Modulus (GPa) = 24.65278 12.97208 18.81243
#
# Velocity S-wave (km/s) = 3.59939 2.61096 3.14426
# Velocity P-wave (km/s) = 4.71255 4.58743 4.65041
#
# Compressibility (1/GPa) = 0.10651161
#
# Stress axis : x y z
#
# Youngs Moduli (GPa) = 24.26318 103.56826 16.75200
#
# Poissons Ratio (x) = 0.72511 -0.13522
# Poissons Ratio (y) = 0.16987 0.05188
# Poissons Ratio (z) = -0.19585 0.32075
#
# Static dielectric constant tensor:
#      x y z
#    x 1.652290 0.000000 0.000000 
#    y 0.000000 1.694660 0.000000 
#    z 0.000000 0.000000 1.662240 
# 
# From -- ./inp_files/16346.got.cif
#   From: 2010.05.17/outbox.cif.g08.bks.cpg/sg65_9_cif.got.tgz:16346.got - 2010.06.03 17:01:31.
