data_PCOD9489176
_publ_section_title
;
Structure prediction by ZEFSAII (Michael W. Deem and Ramdas Pophale) SiO2 
 PCOD9489176
Probable space group: C M M M
;
_chemical_formula_sum "Si O2"
_cell_formula_units_Z 104
_cell_length_a 8.072136
_cell_length_b 20.314413
_cell_length_c 34.523314
_cell_angle_alpha 90.000000
_cell_angle_beta 90.000000
_cell_angle_gamma 90.000000
_cell_volume 5661.157351
_symmetry_space_group_name_H-M "C M M M"
_symmetry_group_IT_number 65
_symmetry_cell_setting 'orthorhombic'
loop_
_space_group_symop_operation_xyz
x,y,z
-x,-y,z
x,-y,-z
-x,y,-z
-x,-y,-z
x,y,-z
-x,y,z
x,-y,z
1/2+x,1/2+y,z
1/2-x,1/2-y,z
1/2+x,1/2-y,-z
1/2-x,1/2+y,-z
1/2-x,1/2-y,-z
1/2+x,1/2+y,-z
1/2-x,1/2+y,z
1/2+x,1/2-y,z
loop_
_atom_site_type_symbol
_atom_site_label
_atom_site_fract_x
_atom_site_fract_y
_atom_site_fract_z
Si Si1 0.302622 0.074658 0.262828
Si Si2 0.700643 0.326445 0.584812
Si Si3 0.802371 0.824480 0.196955
Si Si4 0.799824 0.175357 0.890581
Si Si5 0.702262 0.575707 0.956297
Si Si6 0.699362 0.673496 0.500000
Si Si7 0.198970 0.924865 0.348903
O O1 0.500000 0.072104 0.265048
O O2 0.255376 0.123828 0.228743
O O3 0.238738 0.095938 0.305048
O O4 0.239531 0.000000 0.255734
O O5 0.500000 0.327976 0.584947
O O6 0.750000 0.250000 0.589816
O O7 0.757499 0.351103 0.542080
O O8 0.761789 0.373623 0.619076
O O9 0.750000 0.750000 0.206644
O O10 0.740183 0.839180 0.153232
O O11 0.000000 0.826399 0.195812
O O12 0.750000 0.250000 0.899866
O O13 0.738851 0.124631 0.922949
O O14 0.000000 0.171945 0.890159
O O15 0.500000 0.576750 0.955963
O O16 0.751782 0.500000 0.949339
O O17 0.753657 0.594377 0.000000
O O18 0.500000 0.668112 0.500000
O O19 0.750000 0.750000 0.500000
O O20 0.000000 0.927178 0.352629
O O21 0.261676 0.000000 0.354118
#
# Coordination Sequence:
#
# PCOD9489176 Si02
#       7
#    16  16  16  16  16   8  16
#     4  10  21  36  53  73  97 126 161 200 243 292
#     4   9  17  29  47  70  94 122 156 193 232 276
#     4  10  20  34  52  73  99 129 161 201 245 289
#     4   9  18  31  48  71  97 125 157 193 235 282
#     4   8  14  26  45  69  96 125 159 198 234 270
#     4   8  14  26  43  65  93 121 151 188 230 274
#     4   9  18  33  50  68  94 127 160 194 235 283
#
# _framework density 18.370801
#
# number of rings (size 3 to 8) (size 9 to 14) (size 15 to 20)
#    0.000    2.923    0.000    1.385    0.000    3.692 
#    0.000    3.462    0.000    2.769    0.000    1.077 
#    0.000    8.615    0.000    0.000    0.000    0.000 
#
# Total GULP energy -289764.736968 kJ/mol
# GULP energy per Si atom -5572.398788 kJ/mol
# Density = 1.832899 g / cm^3
# Si number density = 18.370801 Si / 1000 Ang^3
#
#
#
# Elastic Constant Matrix: (Units=GPa)
#
#
# Indices 1 2 3 4 5 6 
#
# 1 13.5178 6.3393 10.2174 0.0000 0.0000 0.0000
# 2 6.3393 104.2126 126.1512 0.0000 0.0000 0.0000
# 3 10.2174 126.1512 192.7631 0.0000 0.0000 0.0000
# 4 0.0000 0.0000 0.0000 133.6721 0.0000 0.0000
# 5 0.0000 0.0000 0.0000 0.0000 8.6073 0.0000
# 6 0.0000 0.0000 0.0000 0.0000 0.0000 20.7596
#
#
#
# Elastic Compliance Matrix: (Units=1/GPa)
#
#
# Indices 1 2 3 4 5 6 
#
# 1 0.077097 0.001237 -0.004896 0.000000 0.000000 0.000000
# 2 0.001237 0.046199 -0.030300 0.000000 0.000000 0.000000
# 3 -0.004896 -0.030300 0.025277 0.000000 0.000000 0.000000
# 4 0.000000 0.000000 0.000000 0.007481 0.000000 0.000000
# 5 0.000000 0.000000 0.000000 0.000000 0.116180 0.000000
# 6 0.000000 0.000000 0.000000 0.000000 0.000000 0.048170
#
#
# Mechanical properties :
#
#
# Convention : Reuss Voigt Hill
#
# Bulk Modulus (GPa) = 12.39858 66.21215 39.30536
# Shear Modulus (GPa) = 12.04218 43.79352 27.91785
#
# Velocity S-wave (km/s) = 2.56306 4.88778 3.90254
# Velocity P-wave (km/s) = 3.93990 8.24465 6.46131
#
# Compressibility (1/GPa) = 0.08065442
#
# Stress axis : x y z
#
# Youngs Moduli (GPa) = 12.97070 21.64540 39.56224
#
# Poissons Ratio (x) = -0.02677 0.19369
# Poissons Ratio (y) = -0.01604 1.19874
# Poissons Ratio (z) = 0.06350 0.65586
#
# Static dielectric constant tensor:
#      x y z
#    x 1.650230 0.000000 0.000000 
#    y 0.000000 1.602310 0.000000 
#    z 0.000000 0.000000 1.651450 
# 
# From -- ./inp_files/76885.got.cif
#   From: 2010.05.17/outbox.cif.g08.bks.cpg/sg65_39_cif.got.tgz:76885.got - 2010.06.03 17:01:31.
