data_PCOD9489660
_publ_section_title
;
Structure prediction by ZEFSAII (Michael W. Deem and Ramdas Pophale) SiO2 
 PCOD9489660
Probable space group: C M M M
;
_chemical_formula_sum "Si O2"
_cell_formula_units_Z 96
_cell_length_a 28.750861
_cell_length_b 20.861979
_cell_length_c 8.473253
_cell_angle_alpha 90.000000
_cell_angle_beta 90.000000
_cell_angle_gamma 90.000000
_cell_volume 5082.255950
_symmetry_space_group_name_H-M "C M M M"
_symmetry_group_IT_number 65
_symmetry_cell_setting 'orthorhombic'
loop_
_space_group_symop_operation_xyz
x,y,z
-x,-y,z
x,-y,-z
-x,y,-z
-x,-y,-z
x,y,-z
-x,y,z
x,-y,z
1/2+x,1/2+y,z
1/2-x,1/2-y,z
1/2+x,1/2-y,-z
1/2-x,1/2+y,-z
1/2-x,1/2-y,-z
1/2+x,1/2+y,-z
1/2-x,1/2+y,z
1/2+x,1/2-y,z
loop_
_atom_site_type_symbol
_atom_site_label
_atom_site_fract_x
_atom_site_fract_y
_atom_site_fract_z
Si Si1 0.946689 0.189239 0.311204
Si Si2 0.720732 0.187878 0.190925
Si Si3 0.613887 0.807773 0.809000
Si Si4 0.053441 0.572283 0.807717
Si Si5 0.716512 0.426194 0.310949
Si Si6 0.386485 0.573864 0.189066
O O1 0.946701 0.192385 0.500000
O O2 0.915145 0.246635 0.246146
O O3 0.923680 0.122656 0.258401
O O4 0.000000 0.194911 0.254762
O O5 0.750000 0.250000 0.242875
O O6 0.667354 0.193467 0.243968
O O7 0.745613 0.123709 0.250035
O O8 0.721097 0.186808 0.000000
O O9 0.587904 0.872314 0.753911
O O10 0.613969 0.807814 0.000000
O O11 0.065793 0.500000 0.757224
O O12 0.000000 0.585353 0.760338
O O13 0.054012 0.572368 0.000000
O O14 0.714782 0.424255 0.500000
O O15 0.726049 0.500000 0.261801
O O16 0.665527 0.408537 0.245101
O O17 0.394761 0.500000 0.237871
O O18 0.387815 0.577155 0.000000
#
# Coordination Sequence:
#
# PCOD9489660 Si02
#       6
#    16  16  16  16  16  16
#     4  11  24  39  56  81 114 150 185 224 273 330
#     4  10  21  35  52  78 110 143 184 232 276 319
#     4  10  20  34  55  80 106 141 185 231 274 319
#     4   8  14  26  46  73 102 130 166 216 270 319
#     4  10  21  37  58  84 114 149 186 223 271 333
#     4  10  21  38  61  86 111 142 182 229 278 326
#
# _framework density 18.889249
#
# number of rings (size 3 to 8) (size 9 to 14) (size 15 to 20)
#    0.000    2.167    0.000    3.500    0.000    7.333 
#    0.000    3.333    0.000    0.500    0.000    2.333 
#    0.000    0.000    0.000    0.000    0.000    0.000 
#
# Total GULP energy -268073.898382 kJ/mol
# GULP energy per Si atom -5584.872883 kJ/mol
# Density = 1.884626 g / cm^3
# Si number density = 18.889249 Si / 1000 Ang^3
#
#
#
# Elastic Constant Matrix: (Units=GPa)
#
#
# Indices 1 2 3 4 5 6 
#
# 1 154.6138 93.9193 20.1971 0.0000 0.0000 0.0000
# 2 93.9193 110.2337 14.1540 0.0000 0.0000 0.0000
# 3 20.1971 14.1540 11.2745 0.0000 0.0000 0.0000
# 4 0.0000 0.0000 0.0000 14.3387 0.0000 0.0000
# 5 0.0000 0.0000 0.0000 0.0000 25.3128 0.0000
# 6 0.0000 0.0000 0.0000 0.0000 0.0000 42.9701
#
#
#
# Elastic Compliance Matrix: (Units=1/GPa)
#
#
# Indices 1 2 3 4 5 6 
#
# 1 0.014795 -0.010970 -0.012731 0.000000 0.000000 0.000000
# 2 -0.010970 0.018950 -0.004137 0.000000 0.000000 0.000000
# 3 -0.012731 -0.004137 0.116695 0.000000 0.000000 0.000000
# 4 0.000000 0.000000 0.000000 0.069742 0.000000 0.000000
# 5 0.000000 0.000000 0.000000 0.000000 0.039506 0.000000
# 6 0.000000 0.000000 0.000000 0.000000 0.000000 0.023272
#
#
# Mechanical properties :
#
#
# Convention : Reuss Voigt Hill
#
# Bulk Modulus (GPa) = 10.55267 59.18477 34.86872
# Shear Modulus (GPa) = 13.50538 26.38107 19.94323
#
# Velocity S-wave (km/s) = 2.67681 3.74119 3.25283
# Velocity P-wave (km/s) = 3.89262 7.07549 5.71030
#
# Compressibility (1/GPa) = 0.09476278
#
# Stress axis : x y z
#
# Youngs Moduli (GPa) = 67.59173 52.77127 8.56936
#
# Poissons Ratio (x) = 0.57893 0.10909
# Poissons Ratio (y) = 0.74151 0.03545
# Poissons Ratio (z) = 0.86050 0.21831
#
# Static dielectric constant tensor:
#      x y z
#    x 1.631170 0.000000 0.000000 
#    y 0.000000 1.642060 0.000000 
#    z 0.000000 0.000000 1.639690 
# 
# From -- ./inp_files/12192.got.cif
#   From: 2010.05.17/outbox.cif.g08.bks.cpg/sg65_7_cif.got.tgz:12192.got - 2010.06.03 17:01:31.
