data_PCOD9489161
_publ_section_title
;
Structure prediction by ZEFSAII (Michael W. Deem and Ramdas Pophale) SiO2 
 PCOD9489161
Probable space group: C M M M
;
_chemical_formula_sum "Si O2"
_cell_formula_units_Z 88
_cell_length_a 20.002139
_cell_length_b 8.348742
_cell_length_c 28.989546
_cell_angle_alpha 90.000000
_cell_angle_beta 90.000000
_cell_angle_gamma 90.000000
_cell_volume 4841.042499
_symmetry_space_group_name_H-M "C M M M"
_symmetry_group_IT_number 65
_symmetry_cell_setting 'orthorhombic'
loop_
_space_group_symop_operation_xyz
x,y,z
-x,-y,z
x,-y,-z
-x,y,-z
-x,-y,-z
x,y,-z
-x,y,z
x,-y,z
1/2+x,1/2+y,z
1/2-x,1/2-y,z
1/2+x,1/2-y,-z
1/2-x,1/2+y,-z
1/2-x,1/2-y,-z
1/2+x,1/2+y,-z
1/2-x,1/2+y,z
1/2+x,1/2-y,z
loop_
_atom_site_type_symbol
_atom_site_label
_atom_site_fract_x
_atom_site_fract_y
_atom_site_fract_z
Si Si1 0.076270 0.691433 0.184340
Si Si2 0.826573 0.194065 0.000000
Si Si3 0.423323 0.693001 0.082122
Si Si4 0.174597 0.806310 0.632398
Si Si5 0.674584 0.691707 0.736471
Si Si6 0.077099 0.804597 0.448213
O O1 0.076646 0.500000 0.182246
O O2 0.095197 0.756312 0.133859
O O3 0.125023 0.746661 0.224577
O O4 0.000000 0.746338 0.193400
O O5 0.750000 0.250000 0.000000
O O6 0.869393 0.248275 0.044586
O O7 0.826010 0.000000 0.000000
O O8 0.500000 0.748940 0.072848
O O9 0.424864 0.500000 0.079988
O O10 0.250000 0.750000 0.623670
O O11 0.155804 0.754299 0.684416
O O12 0.124976 0.748069 0.592569
O O13 0.173684 0.000000 0.631971
O O14 0.674046 0.500000 0.737042
O O15 0.750000 0.750000 0.745132
O O16 0.097600 0.754834 0.500000
O O17 0.000000 0.756796 0.441018
O O18 0.078174 0.000000 0.447757
#
# Coordination Sequence:
#
# PCOD9489161 Si02
#       6
#    16   8  16  16  16  16
#     4  10  21  36  54  78 106 134 168 210 254 302
#     4  10  21  35  53  79 107 134 166 206 250 296
#     4   9  18  35  57  77 100 134 174 210 245 290
#     4   9  18  31  48  71  97 126 162 202 244 293
#     4  10  20  34  52  73 100 134 170 210 255 302
#     4   8  14  26  45  69  96 125 159 200 243 287
#
# _framework density 18.177903000000001
#
# number of rings (size 3 to 8) (size 9 to 14) (size 15 to 20)
#    0.000    2.727    0.000    1.909    0.000    5.455 
#    0.000    3.636    0.000    3.273    0.000    1.273 
#    0.000    0.000    0.000    0.000    0.000    0.000 
#
# Total GULP energy -245371.778688 kJ/mol
# GULP energy per Si atom -5576.631334 kJ/mol
# Density = 1.813653 g / cm^3
# Si number density = 18.177903 Si / 1000 Ang^3
#
#
#
# Elastic Constant Matrix: (Units=GPa)
#
#
# Indices 1 2 3 4 5 6 
#
# 1 126.4701 16.4309 141.3742 0.0000 0.0000 0.0000
# 2 16.4309 10.2691 21.4250 0.0000 0.0000 0.0000
# 3 141.3742 21.4250 199.9433 0.0000 0.0000 0.0000
# 4 0.0000 0.0000 0.0000 10.8640 0.0000 0.0000
# 5 0.0000 0.0000 0.0000 0.0000 71.4768 0.0000
# 6 0.0000 0.0000 0.0000 0.0000 0.0000 25.8667
#
#
#
# Elastic Compliance Matrix: (Units=1/GPa)
#
#
# Indices 1 2 3 4 5 6 
#
# 1 0.038019 -0.006112 -0.026227 0.000000 0.000000 0.000000
# 2 -0.006112 0.126401 -0.009223 0.000000 0.000000 0.000000
# 3 -0.026227 -0.009223 0.024534 0.000000 0.000000 0.000000
# 4 0.000000 0.000000 0.000000 0.092047 0.000000 0.000000
# 5 0.000000 0.000000 0.000000 0.000000 0.013991 0.000000
# 6 0.000000 0.000000 0.000000 0.000000 0.000000 0.038660
#
#
# Mechanical properties :
#
#
# Convention : Reuss Voigt Hill
#
# Bulk Modulus (GPa) = 9.44915 77.23809 43.34362
# Shear Modulus (GPa) = 11.06065 32.13834 21.59949
#
# Velocity S-wave (km/s) = 2.46939 4.20931 3.45081
# Velocity P-wave (km/s) = 3.65239 8.13675 6.30661
#
# Compressibility (1/GPa) = 0.10582966
#
# Stress axis : x y z
#
# Youngs Moduli (GPa) = 26.30239 7.91134 40.75919
#
# Poissons Ratio (x) = 0.04836 1.06901
# Poissons Ratio (y) = 0.16077 0.37591
# Poissons Ratio (z) = 0.68984 0.07296
#
# Static dielectric constant tensor:
#      x y z
#    x 1.596820 0.000000 0.000000 
#    y 0.000000 1.627750 0.000000 
#    z 0.000000 0.000000 1.620970 
# 
# From -- ./inp_files/67525.got.cif
#   From: 2010.05.17/outbox.cif.g08.bks.cpg/sg65_34_cif.got.tgz:67525.got - 2010.06.03 17:01:31.
