data_PCOD9489082
_publ_section_title
;
Structure prediction by ZEFSAII (Michael W. Deem and Ramdas Pophale) SiO2 
 PCOD9489082
Probable space group: C M M M
;
_chemical_formula_sum "Si O2"
_cell_formula_units_Z 80
_cell_length_a 7.583537
_cell_length_b 27.405336
_cell_length_c 19.618335
_cell_angle_alpha 90.000000
_cell_angle_beta 90.000000
_cell_angle_gamma 90.000000
_cell_volume 4077.266391
_symmetry_space_group_name_H-M "C M M M"
_symmetry_group_IT_number 65
_symmetry_cell_setting 'orthorhombic'
loop_
_space_group_symop_operation_xyz
x,y,z
-x,-y,z
x,-y,-z
-x,y,-z
-x,-y,-z
x,y,-z
-x,y,z
x,-y,z
1/2+x,1/2+y,z
1/2-x,1/2-y,z
1/2+x,1/2-y,-z
1/2-x,1/2+y,-z
1/2-x,1/2-y,-z
1/2+x,1/2+y,-z
1/2-x,1/2+y,z
1/2+x,1/2-y,z
loop_
_atom_site_type_symbol
_atom_site_label
_atom_site_fract_x
_atom_site_fract_y
_atom_site_fract_z
Si Si1 0.714289 0.557525 0.574531
Si Si2 0.707948 0.843961 0.925679
Si Si3 0.290099 0.805046 0.782993
Si Si4 0.285969 0.445261 0.139699
Si Si5 0.205260 0.096114 0.716743
O O1 0.777052 0.574933 0.500000
O O2 0.500000 0.562083 0.573417
O O3 0.753590 0.500000 0.579733
O O4 0.781228 0.583128 0.643054
O O5 0.500000 0.832915 0.928250
O O6 0.780836 0.816033 0.859499
O O7 0.727429 0.901464 0.909099
O O8 0.784194 0.832465 0.000000
O O9 0.500000 0.811989 0.784304
O O10 0.250000 0.750000 0.763080
O O11 0.216863 0.846803 0.733956
O O12 0.500000 0.444199 0.139967
O O13 0.230420 0.500000 0.121263
O O14 0.222357 0.431461 0.216270
O O15 0.000000 0.081452 0.714171
#
# Coordination Sequence:
#
# PCOD9489082 Si02
#       5
#    16  16  16  16  16
#     4   8  13  22  41  72 104 129 154 184 217 255
#     4   9  19  34  48  64  88 116 146 182 226 275
#     4  10  20  34  51  69  88 112 146 188 232 276
#     4   9  17  28  43  65  92 122 155 187 218 256
#     4   9  16  28  47  69  94 123 153 186 223 263
#
# _framework density 19.620989000000002
#
# number of rings (size 3 to 8) (size 9 to 14) (size 15 to 20)
#    0.000    3.000    0.000    1.800    0.000    4.800 
#    0.000    2.000    0.000    3.000    0.000    1.400 
#    0.000    0.000    0.000    0.000    0.000    0.000 
#
# Total GULP energy -223008.794083 kJ/mol
# GULP energy per Si atom -5575.219852 kJ/mol
# Density = 1.957633 g / cm^3
# Si number density = 19.620989 Si / 1000 Ang^3
#
#
#
# Elastic Constant Matrix: (Units=GPa)
#
#
# Indices 1 2 3 4 5 6 
#
# 1 44.1272 -18.3761 1.7638 0.0000 0.0000 0.0000
# 2 -18.3761 29.7146 -3.2847 0.0000 0.0000 0.0000
# 3 1.7638 -3.2847 116.0463 0.0000 0.0000 0.0000
# 4 0.0000 0.0000 0.0000 7.2309 0.0000 0.0000
# 5 0.0000 0.0000 0.0000 0.0000 -30.6929 0.0000
# 6 0.0000 0.0000 0.0000 0.0000 0.0000 12.9744
#
#
#
# Elastic Compliance Matrix: (Units=1/GPa)
#
#
# Indices 1 2 3 4 5 6 
#
# 1 0.030523 0.018884 0.000071 0.000000 0.000000 0.000000
# 2 0.018884 0.045442 0.000999 0.000000 0.000000 0.000000
# 3 0.000071 0.000999 0.008644 0.000000 0.000000 0.000000
# 4 0.000000 0.000000 0.000000 0.138295 0.000000 0.000000
# 5 0.000000 0.000000 0.000000 0.000000 -0.032581 0.000000
# 6 0.000000 0.000000 0.000000 0.000000 0.000000 0.077075
#
#
# Mechanical properties :
#
#
# Convention : Reuss Voigt Hill
#
# Bulk Modulus (GPa) = 8.03109 16.67713 12.35411
# Shear Modulus (GPa) = 18.58760 11.88816 15.23788
#
# Velocity S-wave (km/s) = 3.08122 2.46415 2.78980
# Velocity P-wave (km/s) = 4.09396 4.07605 4.08501
#
# Compressibility (1/GPa) = 0.12451603
#
# Stress axis : x y z
#
# Youngs Moduli (GPa) = 32.76247 22.00611 115.68104
#
# Poissons Ratio (x) = -0.41556 -0.00816
# Poissons Ratio (y) = -0.61868 -0.11559
# Poissons Ratio (z) = -0.00231 -0.02199
#
# Static dielectric constant tensor:
#      x y z
#    x 1.768710 0.000000 0.000000 
#    y 0.000000 1.653150 0.000000 
#    z 0.000000 0.000000 1.724060 
# 
# From -- ./inp_files/49857.got.cif
#   From: 2010.05.17/outbox.cif.g08.bks.cpg/sg65_25_cif.got.tgz:49857.got - 2010.06.03 17:01:31.
