data_PCOD9489550
_publ_section_title
;
Structure prediction by ZEFSAII (Michael W. Deem and Ramdas Pophale) SiO2 
 PCOD9489550
Probable space group: C M M M
;
_chemical_formula_sum "Si O2"
_cell_formula_units_Z 104
_cell_length_a 18.604005
_cell_length_b 9.220315
_cell_length_c 34.451039
_cell_angle_alpha 90.000000
_cell_angle_beta 90.000000
_cell_angle_gamma 90.000000
_cell_volume 5909.551615
_symmetry_space_group_name_H-M "C M M M"
_symmetry_group_IT_number 65
_symmetry_cell_setting 'orthorhombic'
loop_
_space_group_symop_operation_xyz
x,y,z
-x,-y,z
x,-y,-z
-x,y,-z
-x,-y,-z
x,y,-z
-x,y,z
x,-y,z
1/2+x,1/2+y,z
1/2-x,1/2-y,z
1/2+x,1/2-y,-z
1/2-x,1/2+y,-z
1/2-x,1/2-y,-z
1/2+x,1/2+y,-z
1/2-x,1/2+y,z
1/2+x,1/2-y,z
loop_
_atom_site_type_symbol
_atom_site_label
_atom_site_fract_x
_atom_site_fract_y
_atom_site_fract_z
Si Si1 0.914874 0.327200 0.267765
Si Si2 0.826991 0.827598 0.044762
Si Si3 0.326805 0.825297 0.655086
Si Si4 0.084713 0.326507 0.421624
Si Si5 0.912469 0.166963 0.810700
Si Si6 0.912487 0.832925 0.500000
Si Si7 0.913303 0.668771 0.888819
O O1 0.906922 0.500000 0.261045
O O2 0.871437 0.287072 0.306272
O O3 0.890370 0.241112 0.229620
O O4 0.000000 0.299900 0.273813
O O5 0.750000 0.750000 0.049097
O O6 0.880434 0.756070 0.075379
O O7 0.820326 0.000000 0.051240
O O8 0.850525 0.805476 0.000000
O O9 0.250000 0.750000 0.655386
O O10 0.370958 0.784627 0.616455
O O11 0.318992 0.000000 0.654792
O O12 0.090574 0.500000 0.427001
O O13 0.110177 0.247153 0.460630
O O14 0.000000 0.293981 0.415688
O O15 0.889689 0.257716 0.848367
O O16 0.000000 0.168461 0.810691
O O17 0.889210 0.000000 0.813182
O O18 0.000000 0.828150 0.500000
O O19 0.890061 0.000000 0.500000
O O20 0.892085 0.500000 0.890148
O O21 0.000000 0.675444 0.890301
#
# Coordination Sequence:
#
# PCOD9489550 Si02
#       7
#    16  16  16  16  16   8  16
#     4   9  17  32  54  76  98 128 168 209 248 296
#     4  10  21  37  56  77 104 139 177 217 261 310
#     4  10  21  35  51  73 102 134 166 204 250 297
#     4   9  17  32  54  76  98 129 169 206 242 291
#     4   9  17  30  50  77 106 133 165 209 259 307
#     4   9  17  29  48  77 106 127 155 203 256 295
#     4  10  20  34  54  80 109 140 174 214 260 309
#
# _framework density 17.598628000000001
#
# number of rings (size 3 to 8) (size 9 to 14) (size 15 to 20)
#    0.000    2.538    0.000    2.077    0.000    8.000 
#    0.000    2.692    0.000    6.462    0.000    0.000 
#    0.000    0.000    0.000    0.000    0.000    0.000 
#
# Total GULP energy -290089.787316 kJ/mol
# GULP energy per Si atom -5578.649756 kJ/mol
# Density = 1.755857 g / cm^3
# Si number density = 17.598628 Si / 1000 Ang^3
#
#
#
# Elastic Constant Matrix: (Units=GPa)
#
#
# Indices 1 2 3 4 5 6 
#
# 1 44.3665 45.1148 63.1548 0.0000 0.0000 0.0000
# 2 45.1148 100.2475 101.4563 0.0000 0.0000 0.0000
# 3 63.1548 101.4563 189.5786 0.0000 0.0000 0.0000
# 4 0.0000 0.0000 0.0000 26.7255 0.0000 0.0000
# 5 0.0000 0.0000 0.0000 0.0000 -12.4629 0.0000
# 6 0.0000 0.0000 0.0000 0.0000 0.0000 26.8454
#
#
#
# Elastic Compliance Matrix: (Units=1/GPa)
#
#
# Indices 1 2 3 4 5 6 
#
# 1 0.048684 -0.011989 -0.009802 0.000000 0.000000 0.000000
# 2 -0.011989 0.024715 -0.009232 0.000000 0.000000 0.000000
# 3 -0.009802 -0.009232 0.013481 0.000000 0.000000 0.000000
# 4 0.000000 0.000000 0.000000 0.037417 0.000000 0.000000
# 5 0.000000 0.000000 0.000000 0.000000 -0.080238 0.000000
# 6 0.000000 0.000000 0.000000 0.000000 0.000000 0.037250
#
#
# Mechanical properties :
#
#
# Convention : Reuss Voigt Hill
#
# Bulk Modulus (GPa) = 40.27014 83.73828 62.00421
# Shear Modulus (GPa) = 32.97419 16.51939 24.74679
#
# Velocity S-wave (km/s) = 4.33330 3.06710 3.75397
# Velocity P-wave (km/s) = 6.92595 7.76070 7.35518
#
# Compressibility (1/GPa) = 0.02483229
#
# Stress axis : x y z
#
# Youngs Moduli (GPa) = 20.54071 40.46174 74.17786
#
# Poissons Ratio (x) = 0.48511 0.72708
# Poissons Ratio (y) = 0.24627 0.68485
# Poissons Ratio (z) = 0.20134 0.37356
#
# Static dielectric constant tensor:
#      x y z
#    x 1.577510 0.000000 0.000000 
#    y 0.000000 1.589420 0.000000 
#    z 0.000000 0.000000 1.581800 
# 
# From -- ./inp_files/78253.got.cif
#   From: 2010.05.17/outbox.cif.g08.bks.cpg/sg65_40_cif.got.tgz:78253.got - 2010.06.03 17:01:31.
