data_PCOD9489307
_publ_section_title
;
Structure prediction by ZEFSAII (Michael W. Deem and Ramdas Pophale) SiO2 
 PCOD9489307
Probable space group: C M M M
;
_chemical_formula_sum "Si O2"
_cell_formula_units_Z 96
_cell_length_a 8.416872
_cell_length_b 19.509207
_cell_length_c 32.089739
_cell_angle_alpha 90.000000
_cell_angle_beta 90.000000
_cell_angle_gamma 90.000000
_cell_volume 5269.343667
_symmetry_space_group_name_H-M "C M M M"
_symmetry_group_IT_number 65
_symmetry_cell_setting 'orthorhombic'
loop_
_space_group_symop_operation_xyz
x,y,z
-x,-y,z
x,-y,-z
-x,y,-z
-x,-y,-z
x,y,-z
-x,y,z
x,-y,z
1/2+x,1/2+y,z
1/2-x,1/2-y,z
1/2+x,1/2-y,-z
1/2-x,1/2+y,-z
1/2-x,1/2-y,-z
1/2+x,1/2+y,-z
1/2-x,1/2+y,z
1/2+x,1/2-y,z
loop_
_atom_site_type_symbol
_atom_site_label
_atom_site_fract_x
_atom_site_fract_y
_atom_site_fract_z
Si Si1 0.805540 0.920798 0.877024
Si Si2 0.193751 0.078440 0.547443
Si Si3 0.311845 0.078997 0.696725
Si Si4 0.183497 0.083191 0.785906
Si Si5 0.307962 0.327496 0.953395
Si Si6 0.810747 0.827288 0.377309
O O1 0.754427 0.894392 0.831271
O O2 0.752070 0.875457 0.915824
O O3 0.000000 0.920374 0.876014
O O4 0.757039 0.000000 0.882152
O O5 0.243270 0.094276 0.500000
O O6 0.250753 0.131703 0.581984
O O7 0.000000 0.079071 0.547788
O O8 0.241683 0.000000 0.557284
O O9 0.500000 0.078609 0.690448
O O10 0.275209 0.101750 0.744056
O O11 0.235378 0.128840 0.663145
O O12 0.253028 0.000000 0.691975
O O13 0.000000 0.104738 0.781295
O O14 0.184811 0.000000 0.788203
O O15 0.500000 0.327936 0.952729
O O16 0.250000 0.250000 0.947541
O O17 0.257851 0.350040 0.000000
O O18 0.750000 0.750000 0.375273
O O19 0.000000 0.825098 0.380146
#
# Coordination Sequence:
#
# PCOD9489307 Si02
#       6
#    16  16  16  16  16  16
#     4   8  14  26  46  71  94 117 153 200 241 277
#     4   8  15  30  53  79 103 129 166 208 245 287
#     4  10  20  34  53  76 101 129 165 208 249 293
#     4   8  14  27  48  71  94 122 157 197 242 291
#     4   9  17  29  45  65  91 123 156 190 231 281
#     4  11  22  35  52  75 105 139 172 206 248 295
#
# _framework density 18.218588
#
# number of rings (size 3 to 8) (size 9 to 14) (size 15 to 20)
#    0.000    3.000    0.000    3.000    0.000    2.333 
#    0.000    3.333    0.000    5.000    0.000    8.167 
#    0.000    0.000    0.000    0.000    0.000    0.000 
#
# Total GULP energy -267471.012596 kJ/mol
# GULP energy per Si atom -5572.312762 kJ/mol
# Density = 1.817712 g / cm^3
# Si number density = 18.218588 Si / 1000 Ang^3
#
#
#
# Elastic Constant Matrix: (Units=GPa)
#
#
# Indices 1 2 3 4 5 6 
#
# 1 15.4353 17.8142 21.5126 0.0000 0.0000 0.0000
# 2 17.8142 97.1179 101.6164 0.0000 0.0000 0.0000
# 3 21.5126 101.6164 175.9538 0.0000 0.0000 0.0000
# 4 0.0000 0.0000 0.0000 -9.3798 0.0000 0.0000
# 5 0.0000 0.0000 0.0000 0.0000 6.8752 0.0000
# 6 0.0000 0.0000 0.0000 0.0000 0.0000 14.6578
#
#
#
# Elastic Compliance Matrix: (Units=1/GPa)
#
#
# Indices 1 2 3 4 5 6 
#
# 1 0.082994 -0.011640 -0.003425 0.000000 0.000000 0.000000
# 2 -0.011640 0.027652 -0.014546 0.000000 0.000000 0.000000
# 3 -0.003425 -0.014546 0.014503 0.000000 0.000000 0.000000
# 4 0.000000 0.000000 0.000000 -0.106612 0.000000 0.000000
# 5 0.000000 0.000000 0.000000 0.000000 0.145450 0.000000
# 6 0.000000 0.000000 0.000000 0.000000 0.000000 0.068223
#
#
# Mechanical properties :
#
#
# Convention : Reuss Voigt Hill
#
# Bulk Modulus (GPa) = 15.16851 63.37707 39.27279
# Shear Modulus (GPa) = 15.95365 12.26822 14.11094
#
# Velocity S-wave (km/s) = 2.96240 2.59779 2.78607
# Velocity P-wave (km/s) = 4.47716 6.62273 5.65268
#
# Compressibility (1/GPa) = 0.06592607
#
# Stress axis : x y z
#
# Youngs Moduli (GPa) = 12.04913 36.16358 68.95204
#
# Poissons Ratio (x) = 0.42095 0.23613
# Poissons Ratio (y) = 0.14025 1.00301
# Poissons Ratio (z) = 0.04126 0.52605
#
# Static dielectric constant tensor:
#      x y z
#    x 1.629040 0.000000 0.000000 
#    y 0.000000 1.598670 0.000000 
#    z 0.000000 0.000000 1.647680 
# 
# From -- ./inp_files/73107.got.cif
#   From: 2010.05.17/outbox.cif.g08.bks.cpg/sg65_37_cif.got.tgz:73107.got - 2010.06.03 17:01:31.
