data_PCOD9489154
_publ_section_title
;
Structure prediction by ZEFSAII (Michael W. Deem and Ramdas Pophale) SiO2 
 PCOD9489154
Probable space group: C M M M
;
_chemical_formula_sum "Si O2"
_cell_formula_units_Z 88
_cell_length_a 28.616525
_cell_length_b 19.546751
_cell_length_c 8.349726
_cell_angle_alpha 90.000000
_cell_angle_beta 90.000000
_cell_angle_gamma 90.000000
_cell_volume 4670.503476
_symmetry_space_group_name_H-M "C M M M"
_symmetry_group_IT_number 65
_symmetry_cell_setting 'orthorhombic'
loop_
_space_group_symop_operation_xyz
x,y,z
-x,-y,z
x,-y,-z
-x,y,-z
-x,-y,-z
x,y,-z
-x,y,z
x,-y,z
1/2+x,1/2+y,z
1/2-x,1/2-y,z
1/2+x,1/2-y,-z
1/2-x,1/2+y,-z
1/2-x,1/2-y,-z
1/2+x,1/2+y,-z
1/2-x,1/2+y,z
1/2+x,1/2-y,z
loop_
_atom_site_type_symbol
_atom_site_label
_atom_site_fract_x
_atom_site_fract_y
_atom_site_fract_z
Si Si1 0.948537 0.784006 0.306276
Si Si2 0.555564 0.000000 0.816648
Si Si3 0.309182 0.184493 0.814881
Si Si4 0.905978 0.360202 0.311924
Si Si5 0.232720 0.077469 0.306689
Si Si6 0.846908 0.173148 0.692583
O O1 0.949293 0.792458 0.500000
O O2 0.940150 0.703292 0.275641
O O3 0.900392 0.819250 0.247164
O O4 0.000000 0.805055 0.245966
O O5 0.571963 0.067539 0.726396
O O6 0.500000 0.000000 0.821839
O O7 0.573279 0.000000 0.000000
O O8 0.359368 0.149165 0.790197
O O9 0.271200 0.133261 0.742350
O O10 0.317233 0.258838 0.735865
O O11 0.298355 0.195051 0.000000
O O12 0.893483 0.354591 0.500000
O O13 0.232430 0.075143 0.500000
O O14 0.182692 0.107822 0.252519
O O15 0.241607 0.000000 0.248517
O O16 0.849722 0.171063 0.500000
#
# Coordination Sequence:
#
# PCOD9489154 Si02
#       6
#    16   8  16  16  16  16
#     4   8  14  27  50  77  99 123 164 213 255 299
#     4  11  23  35  47  69 105 143 177 221 272 313
#     4  11  22  35  53  77 105 135 171 220 274 321
#     4  10  20  34  52  72  98 136 181 221 259 313
#     4  10  21  36  54  75 103 140 180 217 258 315
#     4   9  18  34  55  78 104 137 176 215 257 314
#
# _framework density 18.841652
#
# number of rings (size 3 to 8) (size 9 to 14) (size 15 to 20)
#    0.000    2.273    0.000    4.636    1.273    4.727 
#    0.000    0.000    0.000    5.455    0.000    3.818 
#    0.000    0.000    0.000    8.182    0.000    9.091 
#
# Total GULP energy -245364.557008 kJ/mol
# GULP energy per Si atom -5576.467205 kJ/mol
# Density = 1.879877 g / cm^3
# Si number density = 18.841652 Si / 1000 Ang^3
#
#
#
# Elastic Constant Matrix: (Units=GPa)
#
#
# Indices 1 2 3 4 5 6 
#
# 1 116.9333 46.3061 9.0878 0.0000 0.0000 0.0000
# 2 46.3061 44.1404 1.5223 0.0000 0.0000 0.0000
# 3 9.0878 1.5223 14.7904 0.0000 0.0000 0.0000
# 4 0.0000 0.0000 0.0000 -0.6430 0.0000 0.0000
# 5 0.0000 0.0000 0.0000 0.0000 3.8488 0.0000
# 6 0.0000 0.0000 0.0000 0.0000 0.0000 7.7563
#
#
#
# Elastic Compliance Matrix: (Units=1/GPa)
#
#
# Indices 1 2 3 4 5 6 
#
# 1 0.015492 -0.015981 -0.007874 0.000000 0.000000 0.000000
# 2 -0.015981 0.039221 0.005783 0.000000 0.000000 0.000000
# 3 -0.007874 0.005783 0.071855 0.000000 0.000000 0.000000
# 4 0.000000 0.000000 0.000000 -1.555327 0.000000 0.000000
# 5 0.000000 0.000000 0.000000 0.000000 0.259821 0.000000
# 6 0.000000 0.000000 0.000000 0.000000 0.000000 0.128927
#
#
# Mechanical properties :
#
#
# Convention : Reuss Voigt Hill
#
# Bulk Modulus (GPa) = 11.05923 32.18848 21.62385
# Shear Modulus (GPa) = -5.13492 10.12229 2.49369
#
# Velocity S-wave (km/s) = -1.65264 2.32034 1.15168
# Velocity P-wave (km/s) = 1.49689 4.92944 3.64281
#
# Compressibility (1/GPa) = 0.09042223
#
# Stress axis : x y z
#
# Youngs Moduli (GPa) = 64.54793 25.49681 13.91699
#
# Poissons Ratio (x) = 0.40746 0.10959
# Poissons Ratio (y) = 1.03154 -0.08048
# Poissons Ratio (z) = 0.50827 -0.14744
#
# Static dielectric constant tensor:
#      x y z
#    x 1.681620 0.000000 0.000000 
#    y 0.000000 1.636530 0.000000 
#    z 0.000000 0.000000 1.656640 
# 
# From -- ./inp_files/10139.got.cif
#   From: 2010.05.17/outbox.cif.g08.bks.cpg/sg65_6_cif.got.tgz:10139.got - 2010.06.03 17:01:31.
