data_PCOD9489737
_publ_section_title
;
Structure prediction by ZEFSAII (Michael W. Deem and Ramdas Pophale) SiO2 
 PCOD9489737
Probable space group: C M M M
;
_chemical_formula_sum "Si O2"
_cell_formula_units_Z 104
_cell_length_a 14.142892
_cell_length_b 18.533507
_cell_length_c 23.027508
_cell_angle_alpha 90.000000
_cell_angle_beta 90.000000
_cell_angle_gamma 90.000000
_cell_volume 6035.910246
_symmetry_space_group_name_H-M "C M M M"
_symmetry_group_IT_number 65
_symmetry_cell_setting 'orthorhombic'
loop_
_space_group_symop_operation_xyz
x,y,z
-x,-y,z
x,-y,-z
-x,y,-z
-x,-y,-z
x,y,-z
-x,y,z
x,-y,z
1/2+x,1/2+y,z
1/2-x,1/2-y,z
1/2+x,1/2-y,-z
1/2-x,1/2+y,-z
1/2-x,1/2-y,-z
1/2+x,1/2+y,-z
1/2-x,1/2+y,z
1/2+x,1/2-y,z
loop_
_atom_site_type_symbol
_atom_site_label
_atom_site_fract_x
_atom_site_fract_y
_atom_site_fract_z
Si Si1 0.238803 0.664081 0.748927
Si Si2 0.389279 0.280731 0.569632
Si Si3 0.610650 0.650808 0.843754
Si Si4 0.610642 0.822236 0.856417
Si Si5 0.108805 0.500000 0.569392
Si Si6 0.749763 0.584432 0.068192
Si Si7 0.786332 0.639271 0.382816
O O1 0.250000 0.750000 0.739046
O O2 0.330742 0.638277 0.784599
O O3 0.152962 0.654298 0.794123
O O4 0.223308 0.630711 0.686292
O O5 0.379699 0.271482 0.500000
O O6 0.500000 0.293547 0.582563
O O7 0.316923 0.342437 0.590722
O O8 0.351533 0.208440 0.601039
O O9 0.500000 0.638224 0.836677
O O10 0.625699 0.735668 0.859531
O O11 0.657045 0.604009 0.894594
O O12 0.500000 0.836576 0.860726
O O13 0.669229 0.864643 0.904949
O O14 0.106178 0.500000 0.500000
O O15 0.164334 0.570176 0.590320
O O16 0.000000 0.500000 0.590575
O O17 0.773230 0.500000 0.076051
O O18 0.736567 0.598052 0.000000
#
# Coordination Sequence:
#
# PCOD9489737 Si02
#       7
#    16  16  16  16   8  16  16
#     4   9  17  34  54  82 109 136 176 226 269 319
#     4  10  20  34  56  85 111 141 185 231 276 327
#     4   9  19  36  58  80 107 142 178 223 273 318
#     4   9  19  35  56  80 107 141 179 220 270 319
#     4  11  24  40  57  79 111 149 185 228 284 340
#     4  10  21  36  54  78 111 146 181 222 266 317
#     4  11  20  36  57  81 111 148 185 229 279 329
#
# _framework density 17.23021
#
# number of rings (size 3 to 8) (size 9 to 14) (size 15 to 20)
#    0.000    2.231    1.538    3.692    0.000    5.538 
#    5.538    3.462    0.000    1.385    0.000    0.000 
#    0.000    0.000    0.000    0.000    0.000    0.000 
#
# Total GULP energy -290074.152889 kJ/mol
# GULP energy per Si atom -5578.349094 kJ/mol
# Density = 1.719099 g / cm^3
# Si number density = 17.230210 Si / 1000 Ang^3
#
#
#
# Elastic Constant Matrix: (Units=GPa)
#
#
# Indices 1 2 3 4 5 6 
#
# 1 116.5022 43.7288 39.9562 0.0000 0.0000 0.0000
# 2 43.7288 62.4406 38.4952 0.0000 0.0000 0.0000
# 3 39.9562 38.4952 117.1059 0.0000 0.0000 0.0000
# 4 0.0000 0.0000 0.0000 26.3119 0.0000 0.0000
# 5 0.0000 0.0000 0.0000 0.0000 1.4627 0.0000
# 6 0.0000 0.0000 0.0000 0.0000 0.0000 11.3034
#
#
#
# Elastic Compliance Matrix: (Units=1/GPa)
#
#
# Indices 1 2 3 4 5 6 
#
# 1 0.011895 -0.007310 -0.001656 0.000000 0.000000 0.000000
# 2 -0.007310 0.024578 -0.005585 0.000000 0.000000 0.000000
# 3 -0.001656 -0.005585 0.010940 0.000000 0.000000 0.000000
# 4 0.000000 0.000000 0.000000 0.038006 0.000000 0.000000
# 5 0.000000 0.000000 0.000000 0.000000 0.683682 0.000000
# 6 0.000000 0.000000 0.000000 0.000000 0.000000 0.088469
#
#
# Mechanical properties :
#
#
# Convention : Reuss Voigt Hill
#
# Bulk Modulus (GPa) = 54.60958 60.04546 57.32752
# Shear Modulus (GPa) = 5.60052 19.40682 12.50367
#
# Velocity S-wave (km/s) = 1.80484 3.35972 2.69677
# Velocity P-wave (km/s) = 6.00884 7.06929 6.56053
#
# Compressibility (1/GPa) = 0.01831181
#
# Stress axis : x y z
#
# Youngs Moduli (GPa) = 84.06871 40.68738 91.40632
#
# Poissons Ratio (x) = 0.29741 0.15134
# Poissons Ratio (y) = 0.61451 0.51052
# Poissons Ratio (z) = 0.13919 0.22725
#
# Static dielectric constant tensor:
#      x y z
#    x 1.580130 0.000000 0.000000 
#    y 0.000000 1.539910 0.000000 
#    z 0.000000 0.000000 1.567910 
# 
# From -- ./inp_files/62888.got.cif
#   From: 2010.05.17/outbox.cif.g08.bks.cpg/sg65_32_cif.got.tgz:62888.got - 2010.06.03 17:01:31.
