data_PCOD9489520
_publ_section_title
;
Structure prediction by ZEFSAII (Michael W. Deem and Ramdas Pophale) SiO2 
 PCOD9489520
Probable space group: C M M M
;
_chemical_formula_sum "Si O2"
_cell_formula_units_Z 64
_cell_length_a 8.828538
_cell_length_b 15.290624
_cell_length_c 23.411432
_cell_angle_alpha 90.000000
_cell_angle_beta 90.000000
_cell_angle_gamma 90.000000
_cell_volume 3160.399457
_symmetry_space_group_name_H-M "C M M M"
_symmetry_group_IT_number 65
_symmetry_cell_setting 'orthorhombic'
loop_
_space_group_symop_operation_xyz
x,y,z
-x,-y,z
x,-y,-z
-x,y,-z
-x,-y,-z
x,y,-z
-x,y,z
x,-y,z
1/2+x,1/2+y,z
1/2-x,1/2-y,z
1/2+x,1/2-y,-z
1/2-x,1/2+y,-z
1/2-x,1/2-y,-z
1/2+x,1/2+y,-z
1/2-x,1/2+y,z
1/2+x,1/2-y,z
loop_
_atom_site_type_symbol
_atom_site_label
_atom_site_fract_x
_atom_site_fract_y
_atom_site_fract_z
Si Si1 0.831363 0.103464 0.615517
Si Si2 0.315901 0.500000 0.065084
Si Si3 0.817506 0.847578 0.150996
Si Si4 0.319761 0.846709 0.731703
Si Si5 0.825844 0.607531 0.500000
O O1 0.730454 0.113508 0.671686
O O2 0.756442 0.138153 0.557629
O O3 0.000000 0.140855 0.625184
O O4 0.846563 0.000000 0.606325
O O5 0.500000 0.500000 0.063676
O O6 0.272763 0.413419 0.100422
O O7 0.260773 0.500000 0.000000
O O8 0.750000 0.750000 0.143207
O O9 0.754637 0.885361 0.210987
O O10 0.000000 0.841809 0.154108
O O11 0.500000 0.845876 0.737345
O O12 0.250000 0.750000 0.729995
O O13 0.824860 0.500000 0.500000
O O14 0.000000 0.634827 0.500000
#
# Coordination Sequence:
#
# PCOD9489520 Si02
#       5
#    16   8  16  16   8
#     4  10  20  34  54  79 108 144 186 230 282 340
#     4   9  20  38  61  89 121 158 199 238 285 351
#     4  10  20  37  60  86 118 157 197 242 295 350
#     4  11  22  37  56  80 111 145 185 233 287 341
#     4   9  17  31  50  75 108 143 184 231 281 335
#
# _framework density 20.250603999999999
#
# number of rings (size 3 to 8) (size 9 to 14) (size 15 to 20)
#    0.000    2.000    0.000    5.625    1.750    3.500 
#    0.000    2.500    0.000    5.250    0.000    0.000 
#    0.000    0.000    0.000    0.000    0.000    0.000 
#
# Total GULP energy -178657.054865 kJ/mol
# GULP energy per Si atom -5583.032965 kJ/mol
# Density = 2.020451 g / cm^3
# Si number density = 20.250604 Si / 1000 Ang^3
#
#
#
# Elastic Constant Matrix: (Units=GPa)
#
#
# Indices 1 2 3 4 5 6 
#
# 1 139.9020 27.4321 68.5389 0.0000 0.0000 0.0000
# 2 27.4321 59.5439 52.7841 0.0000 0.0000 0.0000
# 3 68.5389 52.7841 203.1222 0.0000 0.0000 0.0000
# 4 0.0000 0.0000 0.0000 -58.1220 0.0000 0.0000
# 5 0.0000 0.0000 0.0000 0.0000 -27.0517 0.0000
# 6 0.0000 0.0000 0.0000 0.0000 0.0000 21.8721
#
#
#
# Elastic Compliance Matrix: (Units=1/GPa)
#
#
# Indices 1 2 3 4 5 6 
#
# 1 0.008714 -0.001830 -0.002465 0.000000 0.000000 0.000000
# 2 -0.001830 0.022205 -0.005153 0.000000 0.000000 0.000000
# 3 -0.002465 -0.005153 0.007094 0.000000 0.000000 0.000000
# 4 0.000000 0.000000 0.000000 -0.017205 0.000000 0.000000
# 5 0.000000 0.000000 0.000000 0.000000 -0.036966 0.000000
# 6 0.000000 0.000000 0.000000 0.000000 0.000000 0.045720
#
#
# Mechanical properties :
#
#
# Convention : Reuss Voigt Hill
#
# Bulk Modulus (GPa) = 52.30569 77.78648 65.04609
# Shear Modulus (GPa) = 91.19072 4.26054 47.72563
#
# Velocity S-wave (km/s) = 6.71780 1.45206 4.85990
# Velocity P-wave (km/s) = 9.27670 6.42702 7.98009
#
# Compressibility (1/GPa) = 0.01911838
#
# Stress axis : x y z
#
# Youngs Moduli (GPa) = 114.75517 45.03448 140.96464
#
# Poissons Ratio (x) = 0.08239 0.34748
# Poissons Ratio (y) = 0.20995 0.72639
# Poissons Ratio (z) = 0.28287 0.23206
#
# Static dielectric constant tensor:
#      x y z
#    x 1.704760 0.000000 0.000000 
#    y 0.000000 1.684690 0.000000 
#    z 0.000000 0.000000 1.735250 
# 
# From -- ./inp_files/66751.got.cif
#   From: 2010.05.17/outbox.cif.g08.bks.cpg/sg65_34_cif.got.tgz:66751.got - 2010.06.03 17:01:31.
