data_PCOD9489467
_publ_section_title
;
Structure prediction by ZEFSAII (Michael W. Deem and Ramdas Pophale) SiO2 
 PCOD9489467
Probable space group: C M M M
;
_chemical_formula_sum "Si O2"
_cell_formula_units_Z 80
_cell_length_a 26.268943
_cell_length_b 19.419831
_cell_length_c 9.202270
_cell_angle_alpha 90.000000
_cell_angle_beta 90.000000
_cell_angle_gamma 90.000000
_cell_volume 4694.431603
_symmetry_space_group_name_H-M "C M M M"
_symmetry_group_IT_number 65
_symmetry_cell_setting 'orthorhombic'
loop_
_space_group_symop_operation_xyz
x,y,z
-x,-y,z
x,-y,-z
-x,y,-z
-x,-y,-z
x,y,-z
-x,y,z
x,-y,z
1/2+x,1/2+y,z
1/2-x,1/2-y,z
1/2+x,1/2-y,-z
1/2-x,1/2+y,-z
1/2-x,1/2-y,-z
1/2+x,1/2+y,-z
1/2-x,1/2+y,z
1/2+x,1/2-y,z
loop_
_atom_site_type_symbol
_atom_site_label
_atom_site_fract_x
_atom_site_fract_y
_atom_site_fract_z
Si Si1 0.751957 0.416227 0.332785
Si Si2 0.351322 0.580684 0.173735
Si Si3 0.940888 0.330098 0.673139
Si Si4 0.558315 0.684036 0.826804
Si Si5 0.855058 0.582845 0.170501
O O1 0.754364 0.393743 0.500000
O O2 0.751940 0.500000 0.331318
O O3 0.699402 0.395323 0.256395
O O4 0.802010 0.394746 0.244546
O O5 0.360141 0.500000 0.207825
O O6 0.400136 0.626616 0.210628
O O7 0.342692 0.585313 0.000000
O O8 0.933317 0.329790 0.500000
O O9 0.932872 0.254024 0.738736
O O10 0.901963 0.381552 0.749367
O O11 0.000000 0.348722 0.702233
O O12 0.500000 0.661219 0.799665
O O13 0.562568 0.698244 0.000000
O O14 0.858699 0.500000 0.184067
O O15 0.854917 0.599991 0.000000
#
# Coordination Sequence:
#
# PCOD9489467 Si02
#       5
#    16  16  16  16  16
#     4   9  17  30  49  73 102 134 165 200 246 297
#     4   9  17  30  50  76 104 133 167 207 249 294
#     4  10  21  36  53  73 100 134 168 204 248 296
#     4   9  18  33  52  73 100 135 171 207 249 296
#     4  10  20  34  54  78 102 129 163 204 248 295
#
# _framework density 17.041467999999998
#
# number of rings (size 3 to 8) (size 9 to 14) (size 15 to 20)
#    0.000    2.600    0.000    1.800    0.000    6.400 
#    0.000    5.000    0.000    6.000    0.000    5.600 
#    0.000    0.000    0.000    0.000    0.000    0.000 
#
# Total GULP energy -223071.052353 kJ/mol
# GULP energy per Si atom -5576.776309 kJ/mol
# Density = 1.700268 g / cm^3
# Si number density = 17.041468 Si / 1000 Ang^3
#
#
#
# Elastic Constant Matrix: (Units=GPa)
#
#
# Indices 1 2 3 4 5 6 
#
# 1 163.0571 67.9679 98.4700 0.0000 0.0000 0.0000
# 2 67.9679 39.0390 50.4133 0.0000 0.0000 0.0000
# 3 98.4700 50.4133 98.3570 0.0000 0.0000 0.0000
# 4 0.0000 0.0000 0.0000 19.0759 0.0000 0.0000
# 5 0.0000 0.0000 0.0000 0.0000 28.9634 0.0000
# 6 0.0000 0.0000 0.0000 0.0000 0.0000 -40.6691
#
#
#
# Elastic Compliance Matrix: (Units=1/GPa)
#
#
# Indices 1 2 3 4 5 6 
#
# 1 0.024224 -0.032111 -0.007794 0.000000 0.000000 0.000000
# 2 -0.032111 0.118326 -0.028501 0.000000 0.000000 0.000000
# 3 -0.007794 -0.028501 0.032578 0.000000 0.000000 0.000000
# 4 0.000000 0.000000 0.000000 0.052422 0.000000 0.000000
# 5 0.000000 0.000000 0.000000 0.000000 0.034526 0.000000
# 6 0.000000 0.000000 0.000000 0.000000 0.000000 -0.024589
#
#
# Mechanical properties :
#
#
# Convention : Reuss Voigt Hill
#
# Bulk Modulus (GPa) = 26.09765 81.57282 53.83524
# Shear Modulus (GPa) = 12.91754 7.04750 9.98252
#
# Velocity S-wave (km/s) = 2.75618 2.03580 2.42291
# Velocity P-wave (km/s) = 5.04739 7.31417 6.28384
#
# Compressibility (1/GPa) = 0.03831762
#
# Stress axis : x y z
#
# Youngs Moduli (GPa) = 41.28112 8.45123 30.69572
#
# Poissons Ratio (x) = 0.27137 0.23923
# Poissons Ratio (y) = 1.32556 0.87486
# Poissons Ratio (z) = 0.32172 0.24087
#
# Static dielectric constant tensor:
#      x y z
#    x 1.561960 0.000000 0.000000 
#    y 0.000000 1.551040 0.000000 
#    z 0.000000 0.000000 1.569370 
# 
# From -- ./inp_files/9585.got.cif
#   From: 2010.05.17/outbox.cif.g08.bks.cpg/sg65_5_cif.got.tgz:9585.got - 2010.06.03 17:01:31.
