data_PCOD9489510
_publ_section_title
;
Structure prediction by ZEFSAII (Michael W. Deem and Ramdas Pophale) SiO2 
 PCOD9489510
Probable space group: C M M M
;
_chemical_formula_sum "Si O2"
_cell_formula_units_Z 88
_cell_length_a 18.755279
_cell_length_b 9.039918
_cell_length_c 28.939726
_cell_angle_alpha 90.000000
_cell_angle_beta 90.000000
_cell_angle_gamma 90.000000
_cell_volume 4906.620116
_symmetry_space_group_name_H-M "C M M M"
_symmetry_group_IT_number 65
_symmetry_cell_setting 'orthorhombic'
loop_
_space_group_symop_operation_xyz
x,y,z
-x,-y,z
x,-y,-z
-x,y,-z
-x,-y,-z
x,y,-z
-x,y,z
x,-y,z
1/2+x,1/2+y,z
1/2-x,1/2-y,z
1/2+x,1/2-y,-z
1/2-x,1/2+y,-z
1/2-x,1/2-y,-z
1/2+x,1/2+y,-z
1/2-x,1/2+y,z
1/2+x,1/2-y,z
loop_
_atom_site_type_symbol
_atom_site_label
_atom_site_fract_x
_atom_site_fract_y
_atom_site_fract_z
Si Si1 0.085380 0.825488 0.551684
Si Si2 0.827613 0.676888 0.262544
Si Si3 0.917768 0.819877 0.000000
Si Si4 0.672048 0.321453 0.909835
Si Si5 0.583318 0.322256 0.182029
Si Si6 0.326761 0.175870 0.631676
O O1 0.108522 0.778070 0.500000
O O2 0.121115 0.737062 0.592828
O O3 0.000000 0.810631 0.553689
O O4 0.102034 0.000000 0.556329
O O5 0.821619 0.500000 0.257520
O O6 0.750000 0.750000 0.254894
O O7 0.882661 0.742362 0.225989
O O8 0.849544 0.710237 0.315546
O O9 0.874384 0.775212 0.954348
O O10 0.000000 0.769268 0.000000
O O11 0.919898 0.000000 0.000000
O O12 0.679183 0.500000 0.911192
O O13 0.750000 0.250000 0.910282
O O14 0.628843 0.282858 0.863414
O O15 0.500000 0.285705 0.175948
O O16 0.588551 0.500000 0.188054
O O17 0.250000 0.250000 0.624917
O O18 0.320159 0.000000 0.627911
#
# Coordination Sequence:
#
# PCOD9489510 Si02
#       6
#    16  16   8  16  16  16
#     4   9  19  36  56  78 106 140 176 214 259 312
#     4  10  21  37  56  78 105 138 176 217 263 315
#     4   9  17  32  55  79 104 137 176 218 262 309
#     4  10  20  34  54  79 106 138 177 218 261 313
#     4  10  21  36  54  78 107 139 177 219 263 314
#     4  10  21  36  55  79 106 137 175 218 262 311
#
# _framework density 17.934951000000002
#
# number of rings (size 3 to 8) (size 9 to 14) (size 15 to 20)
#    0.000    2.273    0.000    3.000    0.000    8.727 
#    0.000    4.545    0.000    2.182    0.000    0.000 
#    0.000    0.000    0.000    0.000    0.000    0.000 
#
# Total GULP energy -245614.447017 kJ/mol
# GULP energy per Si atom -5582.146523 kJ/mol
# Density = 1.789413 g / cm^3
# Si number density = 17.934951 Si / 1000 Ang^3
#
#
#
# Elastic Constant Matrix: (Units=GPa)
#
#
# Indices 1 2 3 4 5 6 
#
# 1 132.9676 51.5584 103.3287 0.0000 0.0000 0.0000
# 2 51.5584 38.9246 65.4801 0.0000 0.0000 0.0000
# 3 103.3287 65.4801 162.5603 0.0000 0.0000 0.0000
# 4 0.0000 0.0000 0.0000 12.6235 0.0000 0.0000
# 5 0.0000 0.0000 0.0000 0.0000 43.9733 0.0000
# 6 0.0000 0.0000 0.0000 0.0000 0.0000 35.2851
#
#
#
# Elastic Compliance Matrix: (Units=1/GPa)
#
#
# Indices 1 2 3 4 5 6 
#
# 1 0.016829 -0.013327 -0.005329 0.000000 0.000000 0.000000
# 2 -0.013327 0.090242 -0.027879 0.000000 0.000000 0.000000
# 3 -0.005329 -0.027879 0.020769 0.000000 0.000000 0.000000
# 4 0.000000 0.000000 0.000000 0.079217 0.000000 0.000000
# 5 0.000000 0.000000 0.000000 0.000000 0.022741 0.000000
# 6 0.000000 0.000000 0.000000 0.000000 0.000000 0.028341
#
#
# Mechanical properties :
#
#
# Convention : Reuss Voigt Hill
#
# Bulk Modulus (GPa) = 28.76035 86.13189 57.44612
# Shear Modulus (GPa) = 13.78174 25.98206 19.88190
#
# Velocity S-wave (km/s) = 2.77506 3.81029 3.33311
# Velocity P-wave (km/s) = 5.13212 8.21502 6.84928
#
# Compressibility (1/GPa) = 0.03477009
#
# Stress axis : x y z
#
# Youngs Moduli (GPa) = 59.41965 11.08135 48.14913
#
# Poissons Ratio (x) = 0.14768 0.25660
# Poissons Ratio (y) = 0.79187 1.34235
# Poissons Ratio (z) = 0.31666 0.30894
#
# Static dielectric constant tensor:
#      x y z
#    x 1.579680 0.000000 0.000000 
#    y 0.000000 1.598940 0.000000 
#    z 0.000000 0.000000 1.609030 
# 
# From -- ./inp_files/70998.got.cif
#   From: 2010.05.17/outbox.cif.g08.bks.cpg/sg65_36_cif.got.tgz:70998.got - 2010.06.03 17:01:31.
