data_PCOD9489291
_publ_section_title
;
Structure prediction by ZEFSAII (Michael W. Deem and Ramdas Pophale) SiO2 
 PCOD9489291
Probable space group: C M M M
;
_chemical_formula_sum "Si O2"
_cell_formula_units_Z 120
_cell_length_a 8.853239
_cell_length_b 28.825220
_cell_length_c 29.411091
_cell_angle_alpha 90.000000
_cell_angle_beta 90.000000
_cell_angle_gamma 90.000000
_cell_volume 7505.609305
_symmetry_space_group_name_H-M "C M M M"
_symmetry_group_IT_number 65
_symmetry_cell_setting 'orthorhombic'
loop_
_space_group_symop_operation_xyz
x,y,z
-x,-y,z
x,-y,-z
-x,y,-z
-x,-y,-z
x,y,-z
-x,y,z
x,-y,z
1/2+x,1/2+y,z
1/2-x,1/2-y,z
1/2+x,1/2-y,-z
1/2-x,1/2+y,-z
1/2-x,1/2-y,-z
1/2+x,1/2+y,-z
1/2-x,1/2+y,z
1/2+x,1/2-y,z
loop_
_atom_site_type_symbol
_atom_site_label
_atom_site_fract_x
_atom_site_fract_y
_atom_site_fract_z
Si Si1 0.321218 0.555993 0.049639
Si Si2 0.321931 0.555455 0.678907
Si Si3 0.680068 0.700147 0.622150
Si Si4 0.680091 0.299850 0.730029
Si Si5 0.316232 0.053292 0.500000
Si Si6 0.818285 0.606035 0.591779
Si Si7 0.181628 0.553821 0.143907
Si Si8 0.818267 0.393041 0.765062
O O1 0.500000 0.565225 0.052443
O O2 0.302571 0.500000 0.049189
O O3 0.241641 0.572050 0.095589
O O4 0.266262 0.572905 0.000000
O O5 0.500000 0.567304 0.679177
O O6 0.305917 0.500000 0.677752
O O7 0.245641 0.578037 0.634841
O O8 0.245645 0.576048 0.723907
O O9 0.500000 0.700763 0.616022
O O10 0.750000 0.750000 0.610260
O O11 0.710756 0.692187 0.676102
O O12 0.754382 0.657960 0.595154
O O13 0.500000 0.299289 0.736031
O O14 0.750000 0.250000 0.741793
O O15 0.754116 0.341646 0.757645
O O16 0.500000 0.052193 0.500000
O O17 0.270711 0.080282 0.545520
O O18 0.263458 0.000000 0.500000
O O19 0.000000 0.607018 0.593940
O O20 0.231682 0.500000 0.149865
O O21 0.228716 0.584200 0.187076
O O22 0.000000 0.553495 0.142465
O O23 0.000000 0.392385 0.762823
#
# Coordination Sequence:
#
# PCOD9489291 Si02
#       8
#    16  16  16  16   8  16  16  16
#     4   8  14  25  41  61  86 121 167 213 254 296
#     4  11  23  36  50  72 102 134 170 208 245 291
#     4  10  20  35  56  81 108 132 163 203 246 298
#     4  10  20  34  53  75 102 131 164 204 247 296
#     4   9  20  38  58  81 106 133 168 207 246 293
#     4  11  21  36  59  81 103 132 167 206 250 297
#     4   9  18  30  43  64  96 133 171 209 248 291
#     4  11  21  33  50  72 101 134 169 205 248 299
#
# _framework density 15.988042
#
# number of rings (size 3 to 8) (size 9 to 14) (size 15 to 20)
#    0.000    2.067    1.333    3.200    0.000    4.533 
#    0.000    4.333    0.000    2.400    0.000    0.000 
#    0.000    0.533    0.000    1.733    0.000    2.533 
#
# Total GULP energy -334811.678825 kJ/mol
# GULP energy per Si atom -5580.194647 kJ/mol
# Density = 1.595165 g / cm^3
# Si number density = 15.988042 Si / 1000 Ang^3
#
#
#
# Elastic Constant Matrix: (Units=GPa)
#
#
# Indices 1 2 3 4 5 6 
#
# 1 51.4560 47.2685 48.3273 0.0000 0.0000 0.0000
# 2 47.2685 113.4784 77.9989 0.0000 0.0000 0.0000
# 3 48.3273 77.9989 151.7277 0.0000 0.0000 0.0000
# 4 0.0000 0.0000 0.0000 9.8809 0.0000 0.0000
# 5 0.0000 0.0000 0.0000 0.0000 10.3358 0.0000
# 6 0.0000 0.0000 0.0000 0.0000 0.0000 27.3240
#
#
#
# Elastic Compliance Matrix: (Units=1/GPa)
#
#
# Indices 1 2 3 4 5 6 
#
# 1 0.034235 -0.010462 -0.005526 0.000000 0.000000 0.000000
# 2 -0.010462 0.016824 -0.005317 0.000000 0.000000 0.000000
# 3 -0.005526 -0.005317 0.011084 0.000000 0.000000 0.000000
# 4 0.000000 0.000000 0.000000 0.101205 0.000000 0.000000
# 5 0.000000 0.000000 0.000000 0.000000 0.096751 0.000000
# 6 0.000000 0.000000 0.000000 0.000000 0.000000 0.036598
#
#
# Mechanical properties :
#
#
# Convention : Reuss Voigt Hill
#
# Bulk Modulus (GPa) = 51.19318 73.76127 62.47723
# Shear Modulus (GPa) = 14.45850 19.04597 16.75224
#
# Velocity S-wave (km/s) = 3.01047 3.45521 3.24048
# Velocity P-wave (km/s) = 6.64629 7.88374 7.29131
#
# Compressibility (1/GPa) = 0.01953385
#
# Stress axis : x y z
#
# Youngs Moduli (GPa) = 29.21029 59.43717 90.21965
#
# Poissons Ratio (x) = 0.62182 0.49856
# Poissons Ratio (y) = 0.30559 0.47968
# Poissons Ratio (z) = 0.16142 0.31601
#
# Static dielectric constant tensor:
#      x y z
#    x 1.536180 0.000000 0.000000 
#    y 0.000000 1.520370 0.000000 
#    z 0.000000 0.000000 1.530850 
# 
# From -- ./inp_files/73906.got.cif
#   From: 2010.05.17/outbox.cif.g08.bks.cpg/sg65_37_cif.got.tgz:73906.got - 2010.06.03 17:01:31.
