data_PCOD9489739
_publ_section_title
;
Structure prediction by ZEFSAII (Michael W. Deem and Ramdas Pophale) SiO2 
 PCOD9489739
Probable space group: C M M M
;
_chemical_formula_sum "Si O2"
_cell_formula_units_Z 56
_cell_length_a 12.811632
_cell_length_b 25.250364
_cell_length_c 9.241318
_cell_angle_alpha 90.000000
_cell_angle_beta 90.000000
_cell_angle_gamma 90.000000
_cell_volume 2989.551323
_symmetry_space_group_name_H-M "C M M M"
_symmetry_group_IT_number 65
_symmetry_cell_setting 'orthorhombic'
loop_
_space_group_symop_operation_xyz
x,y,z
-x,-y,z
x,-y,-z
-x,y,-z
-x,-y,-z
x,y,-z
-x,y,z
x,-y,z
1/2+x,1/2+y,z
1/2-x,1/2-y,z
1/2+x,1/2-y,-z
1/2-x,1/2+y,-z
1/2-x,1/2-y,-z
1/2+x,1/2+y,-z
1/2-x,1/2+y,z
1/2+x,1/2-y,z
loop_
_atom_site_type_symbol
_atom_site_label
_atom_site_fract_x
_atom_site_fract_y
_atom_site_fract_z
Si Si1 0.122092 0.000000 0.824610
Si Si2 0.500000 0.759635 0.669866
Si Si3 0.714613 0.091836 0.826100
Si Si4 0.000000 0.383911 0.324340
Si Si5 0.672917 0.701465 0.841197
O O1 0.194932 0.949921 0.784096
O O2 0.000000 0.000000 0.773837
O O3 0.115919 0.000000 0.000000
O O4 0.500000 0.764093 0.500000
O O5 0.500000 0.821097 0.723259
O O6 0.594826 0.724322 0.725078
O O7 0.604933 0.089688 0.741303
O O8 0.763950 0.149489 0.799329
O O9 0.695407 0.086294 0.000000
O O10 0.000000 0.386588 0.500000
O O11 0.750000 0.750000 0.859099
O O12 0.623864 0.690766 0.000000
#
# Coordination Sequence:
#
# PCOD9489739 Si02
#       5
#     8   8  16   8  16
#     4   9  20  39  63  90 116 145 188 241 292 341
#     4  11  23  35  52  81 120 158 189 232 287 348
#     4  10  21  38  62  88 116 152 194 241 288 341
#     4  11  23  38  58  85 121 157 192 238 289 346
#     4  10  20  34  56  85 114 147 190 238 287 340
#
# _framework density 18.731907
#
# number of rings (size 3 to 8) (size 9 to 14) (size 15 to 20)
#    0.000    1.857    2.857    0.857    2.000    3.429 
#    0.000    3.571    0.000    0.857    0.000    0.000 
#    0.000    0.000    0.000    0.000    0.000    0.000 
#
# Total GULP energy -155946.226503 kJ/mol
# GULP energy per Si atom -5569.508089 kJ/mol
# Density = 1.868927 g / cm^3
# Si number density = 18.731907 Si / 1000 Ang^3
#
#
#
# Elastic Constant Matrix: (Units=GPa)
#
#
# Indices 1 2 3 4 5 6 
#
# 1 177.7368 75.4744 54.3874 0.0000 0.0000 0.0000
# 2 75.4744 118.8323 16.1687 0.0000 0.0000 0.0000
# 3 54.3874 16.1687 46.4379 0.0000 0.0000 0.0000
# 4 0.0000 0.0000 0.0000 18.8649 0.0000 0.0000
# 5 0.0000 0.0000 0.0000 0.0000 114.8434 0.0000
# 6 0.0000 0.0000 0.0000 0.0000 0.0000 -24.0069
#
#
#
# Elastic Compliance Matrix: (Units=1/GPa)
#
#
# Indices 1 2 3 4 5 6 
#
# 1 0.011655 -0.005821 -0.011623 0.000000 0.000000 0.000000
# 2 -0.005821 0.011741 0.002729 0.000000 0.000000 0.000000
# 3 -0.011623 0.002729 0.034197 0.000000 0.000000 0.000000
# 4 0.000000 0.000000 0.000000 0.053008 0.000000 0.000000
# 5 0.000000 0.000000 0.000000 0.000000 0.008708 0.000000
# 6 0.000000 0.000000 0.000000 0.000000 0.000000 -0.041655
#
#
# Mechanical properties :
#
#
# Convention : Reuss Voigt Hill
#
# Bulk Modulus (GPa) = 35.50751 70.56309 53.03530
# Shear Modulus (GPa) = 42.92924 35.07204 39.00064
#
# Velocity S-wave (km/s) = 4.79244 4.33172 4.56789
# Velocity P-wave (km/s) = 7.04415 7.92276 7.49634
#
# Compressibility (1/GPa) = 0.02816305
#
# Stress axis : x y z
#
# Youngs Moduli (GPa) = 85.80182 85.17257 29.24252
#
# Poissons Ratio (x) = 0.49578 0.33989
# Poissons Ratio (y) = 0.49944 -0.07981
# Poissons Ratio (z) = 0.99729 -0.23247
#
# Static dielectric constant tensor:
#      x y z
#    x 1.635080 0.000000 0.000000 
#    y 0.000000 1.629450 0.000000 
#    z 0.000000 0.000000 1.661480 
# 
# From -- ./inp_files/4459.got.cif
#   From: 2010.05.17/outbox.cif.g08.bks.cpg/sg65_3_cif.got.tgz:4459.got - 2010.06.03 17:01:31.
