data_PCOD9489907
_publ_section_title
;
Structure prediction by ZEFSAII (Michael W. Deem and Ramdas Pophale) SiO2 
 PCOD9489907
Probable space group: C M M M
;
_chemical_formula_sum "Si O2"
_cell_formula_units_Z 104
_cell_length_a 17.750342
_cell_length_b 18.790236
_cell_length_c 17.782990
_cell_angle_alpha 90.000000
_cell_angle_beta 90.000000
_cell_angle_gamma 90.000000
_cell_volume 5931.216053
_symmetry_space_group_name_H-M "C M M M"
_symmetry_group_IT_number 65
_symmetry_cell_setting 'orthorhombic'
loop_
_space_group_symop_operation_xyz
x,y,z
-x,-y,z
x,-y,-z
-x,y,-z
-x,-y,-z
x,y,-z
-x,y,z
x,-y,z
1/2+x,1/2+y,z
1/2-x,1/2-y,z
1/2+x,1/2-y,-z
1/2-x,1/2+y,-z
1/2-x,1/2-y,-z
1/2+x,1/2+y,-z
1/2-x,1/2+y,z
1/2+x,1/2-y,z
loop_
_atom_site_type_symbol
_atom_site_label
_atom_site_fract_x
_atom_site_fract_y
_atom_site_fract_z
Si Si1 0.278358 0.917811 0.837006
Si Si2 0.678772 0.695777 0.086544
Si Si3 0.585460 0.813998 0.837233
Si Si4 0.646557 0.670743 0.590141
Si Si5 0.283523 0.081678 0.655741
Si Si6 0.500000 0.581041 0.408704
Si Si7 0.412954 0.184093 0.343847
O O1 0.208659 0.874179 0.871459
O O2 0.354677 0.875314 0.858872
O O3 0.274315 0.915837 0.746243
O O4 0.280208 0.000000 0.860687
O O5 0.750000 0.750000 0.087695
O O6 0.613544 0.739712 0.127891
O O7 0.659730 0.681042 0.000000
O O8 0.500000 0.830488 0.860033
O O9 0.587516 0.808415 0.746660
O O10 0.649136 0.673800 0.500000
O O11 0.721115 0.632909 0.620228
O O12 0.574782 0.622989 0.614000
O O13 0.631110 0.748993 0.621848
O O14 0.365755 0.113404 0.637668
O O15 0.274496 0.000000 0.631017
O O16 0.500000 0.500000 0.381658
O O17 0.500000 0.579452 0.500000
O O18 0.500000 0.183185 0.369145
#
# Coordination Sequence:
#
# PCOD9489907 Si02
#       7
#    16  16  16  16  16   8  16
#     4   9  18  33  52  75 104 135 170 211 253 300
#     4   9  17  30  49  73 102 136 171 204 243 296
#     4   9  18  32  52  77 103 134 170 210 254 301
#     4  11  21  35  54  76 102 132 173 219 263 313
#     4  10  21  35  53  77 105 138 173 213 260 310
#     4   9  18  32  50  72  99 127 156 204 265 312
#     4  10  20  35  54  77 105 137 173 213 259 311
#
# _framework density 17.534347
#
# number of rings (size 3 to 8) (size 9 to 14) (size 15 to 20)
#    0.000    2.385    0.769    1.846    0.000    5.846 
#    0.000    3.077    0.000    0.462    0.000    7.538 
#    0.000    0.000    0.000    0.000    0.000    0.000 
#
# Total GULP energy -290015.638850 kJ/mol
# GULP energy per Si atom -5577.223824 kJ/mol
# Density = 1.749444 g / cm^3
# Si number density = 17.534347 Si / 1000 Ang^3
#
#
#
# Elastic Constant Matrix: (Units=GPa)
#
#
# Indices 1 2 3 4 5 6 
#
# 1 66.6716 43.9568 15.9033 0.0000 0.0000 0.0000
# 2 43.9568 115.9655 26.1651 0.0000 0.0000 0.0000
# 3 15.9033 26.1651 15.3365 0.0000 0.0000 0.0000
# 4 0.0000 0.0000 0.0000 11.7362 0.0000 0.0000
# 5 0.0000 0.0000 0.0000 0.0000 13.3387 0.0000
# 6 0.0000 0.0000 0.0000 0.0000 0.0000 22.7978
#
#
#
# Elastic Compliance Matrix: (Units=1/GPa)
#
#
# Indices 1 2 3 4 5 6 
#
# 1 0.021639 -0.005104 -0.013731 0.000000 0.000000 0.000000
# 2 -0.005104 0.015224 -0.020680 0.000000 0.000000 0.000000
# 3 -0.013731 -0.020680 0.114723 0.000000 0.000000 0.000000
# 4 0.000000 0.000000 0.000000 0.085206 0.000000 0.000000
# 5 0.000000 0.000000 0.000000 0.000000 0.074970 0.000000
# 6 0.000000 0.000000 0.000000 0.000000 0.000000 0.043864
#
#
# Mechanical properties :
#
#
# Convention : Reuss Voigt Hill
#
# Bulk Modulus (GPa) = 13.78237 41.11378 27.44807
# Shear Modulus (GPa) = 10.89698 17.03779 13.96738
#
# Velocity S-wave (km/s) = 2.49562 3.12056 2.82542
# Velocity P-wave (km/s) = 4.02262 6.04006 5.13146
#
# Compressibility (1/GPa) = 0.07255647
#
# Stress axis : x y z
#
# Youngs Moduli (GPa) = 46.21194 65.68513 8.71662
#
# Poissons Ratio (x) = 0.33529 0.11968
# Poissons Ratio (y) = 0.23589 0.18026
# Poissons Ratio (z) = 0.63451 1.35838
#
# Static dielectric constant tensor:
#      x y z
#    x 1.593550 0.000000 0.000000 
#    y 0.000000 1.584050 0.000000 
#    z 0.000000 0.000000 1.583250 
# 
# From -- ./inp_files/54599.got.cif
#   From: 2010.05.17/outbox.cif.g08.bks.cpg/sg65_28_cif.got.tgz:54599.got - 2010.06.03 17:01:31.
