data_PCOD9489811
_publ_section_title
;
Structure prediction by ZEFSAII (Michael W. Deem and Ramdas Pophale) SiO2 
 PCOD9489811
Probable space group: C M M M
;
_chemical_formula_sum "Si O2"
_cell_formula_units_Z 104
_cell_length_a 18.421079
_cell_length_b 27.466222
_cell_length_c 12.247128
_cell_angle_alpha 90.000000
_cell_angle_beta 90.000000
_cell_angle_gamma 90.000000
_cell_volume 6196.525595
_symmetry_space_group_name_H-M "C M M M"
_symmetry_group_IT_number 65
_symmetry_cell_setting 'orthorhombic'
loop_
_space_group_symop_operation_xyz
x,y,z
-x,-y,z
x,-y,-z
-x,y,-z
-x,-y,-z
x,y,-z
-x,y,z
x,-y,z
1/2+x,1/2+y,z
1/2-x,1/2-y,z
1/2+x,1/2-y,-z
1/2-x,1/2+y,-z
1/2-x,1/2-y,-z
1/2+x,1/2+y,-z
1/2-x,1/2+y,z
1/2+x,1/2-y,z
loop_
_atom_site_type_symbol
_atom_site_label
_atom_site_fract_x
_atom_site_fract_y
_atom_site_fract_z
Si Si1 0.326757 0.277854 0.626813
Si Si2 0.740986 0.806403 0.000000
Si Si3 0.087192 0.500000 0.130328
Si Si4 0.798679 0.135226 0.792045
Si Si5 0.085247 0.943568 0.131630
Si Si6 0.417097 0.155880 0.000000
Si Si7 0.135270 0.601913 0.784054
Si Si8 0.414000 0.814339 0.625165
O O1 0.345410 0.288706 0.500000
O O2 0.250000 0.250000 0.628859
O O3 0.320138 0.326993 0.696597
O O4 0.380776 0.235920 0.671770
O O5 0.750000 0.750000 0.000000
O O6 0.778389 0.831637 0.896478
O O7 0.653552 0.810595 0.000000
O O8 0.114406 0.453781 0.199110
O O9 0.000000 0.500000 0.126701
O O10 0.111352 0.500000 0.000000
O O11 0.861591 0.096127 0.815893
O O12 0.722157 0.107542 0.775614
O O13 0.000000 0.935015 0.157428
O O14 0.102351 0.000000 0.161336
O O15 0.092748 0.940075 0.000000
O O16 0.402214 0.124463 0.892292
O O17 0.500000 0.174494 0.000000
O O18 0.106524 0.636631 0.688059
O O19 0.387249 0.817567 0.500000
O O20 0.500000 0.809759 0.625262
#
# Coordination Sequence:
#
# PCOD9489811 Si02
#       8
#    16   8   8  16  16   8  16  16
#     4  10  20  37  59  80 108 147 188 225 270 324
#     4  10  22  34  48  77 117 145 176 226 279 330
#     4  11  22  36  53  77 110 146 185 229 273 329
#     4  11  21  35  56  84 112 144 183 230 276 330
#     4   9  19  37  59  82 113 149 184 226 279 339
#     4  10  20  35  52  72 105 149 184 215 269 332
#     4  11  22  35  55  81 111 145 185 228 275 330
#     4  10  21  38  60  84 110 145 189 232 274 324
#
# _framework density 16.7836
#
# number of rings (size 3 to 8) (size 9 to 14) (size 15 to 20)
#    0.000    1.769    3.077    2.308    3.231    0.615 
#    0.000    1.154    0.000    1.846    0.000    1.077 
#    0.000    0.000    0.000    0.000    0.000    0.000 
#
# Total GULP energy -289649.109727 kJ/mol
# GULP energy per Si atom -5570.175187 kJ/mol
# Density = 1.674540 g / cm^3
# Si number density = 16.783600 Si / 1000 Ang^3
#
#
#
# Elastic Constant Matrix: (Units=GPa)
#
#
# Indices 1 2 3 4 5 6 
#
# 1 91.4747 79.7076 39.6485 0.0000 0.0000 0.0000
# 2 79.7076 161.9034 57.4012 0.0000 0.0000 0.0000
# 3 39.6485 57.4012 63.2386 0.0000 0.0000 0.0000
# 4 0.0000 0.0000 0.0000 -23.0259 0.0000 0.0000
# 5 0.0000 0.0000 0.0000 0.0000 17.1957 0.0000
# 6 0.0000 0.0000 0.0000 0.0000 0.0000 19.9709
#
#
#
# Elastic Compliance Matrix: (Units=1/GPa)
#
#
# Indices 1 2 3 4 5 6 
#
# 1 0.020321 -0.008091 -0.005396 0.000000 0.000000 0.000000
# 2 -0.008091 0.012329 -0.006118 0.000000 0.000000 0.000000
# 3 -0.005396 -0.006118 0.024750 0.000000 0.000000 0.000000
# 4 0.000000 0.000000 0.000000 -0.043429 0.000000 0.000000
# 5 0.000000 0.000000 0.000000 0.000000 0.058154 0.000000
# 6 0.000000 0.000000 0.000000 0.000000 0.000000 0.050073
#
#
# Mechanical properties :
#
#
# Convention : Reuss Voigt Hill
#
# Bulk Modulus (GPa) = 54.97897 74.45901 64.71899
# Shear Modulus (GPa) = 29.85566 12.15211 21.00389
#
# Velocity S-wave (km/s) = 4.22223 2.69373 3.54143
# Velocity P-wave (km/s) = 7.52318 7.35767 7.44089
#
# Compressibility (1/GPa) = 0.01818877
#
# Stress axis : x y z
#
# Youngs Moduli (GPa) = 49.20903 81.10901 40.40431
#
# Poissons Ratio (x) = 0.65628 0.21804
# Poissons Ratio (y) = 0.39817 0.24719
# Poissons Ratio (z) = 0.26555 0.49623
#
# Static dielectric constant tensor:
#      x y z
#    x 1.566390 0.000000 0.000000 
#    y 0.000000 1.520570 0.000000 
#    z 0.000000 0.000000 1.582940 
# 
# From -- ./inp_files/27529.got.cif
#   From: 2010.05.17/outbox.cif.g08.bks.cpg/sg65_14_cif.got.tgz:27529.got - 2010.06.03 17:01:31.
