data_PCOD9489009
_publ_section_title
;
Structure prediction by ZEFSAII (Michael W. Deem and Ramdas Pophale) SiO2 
 PCOD9489009
Probable space group: C M M M
;
_chemical_formula_sum "Si O2"
_cell_formula_units_Z 68
_cell_length_a 23.698274
_cell_length_b 7.534213
_cell_length_c 20.294323
_cell_angle_alpha 90.000000
_cell_angle_beta 90.000000
_cell_angle_gamma 90.000000
_cell_volume 3623.507618
_symmetry_space_group_name_H-M "C M M M"
_symmetry_group_IT_number 65
_symmetry_cell_setting 'orthorhombic'
loop_
_space_group_symop_operation_xyz
x,y,z
-x,-y,z
x,-y,-z
-x,y,-z
-x,-y,-z
x,y,-z
-x,y,z
x,-y,z
1/2+x,1/2+y,z
1/2-x,1/2-y,z
1/2+x,1/2-y,-z
1/2-x,1/2+y,-z
1/2-x,1/2-y,-z
1/2+x,1/2+y,-z
1/2-x,1/2+y,z
1/2+x,1/2-y,z
loop_
_atom_site_type_symbol
_atom_site_label
_atom_site_fract_x
_atom_site_fract_y
_atom_site_fract_z
Si Si1 0.000000 0.500000 0.391819
Si Si2 0.385432 0.711012 0.207418
Si Si3 0.500000 0.285498 0.720119
Si Si4 0.683911 0.288003 0.668863
Si Si5 0.063697 0.288136 0.926175
Si Si6 0.871937 0.500000 0.425056
O O1 0.000000 0.323749 0.346688
O O2 0.939814 0.500000 0.427085
O O3 0.384098 0.500000 0.210345
O O4 0.444478 0.769132 0.239820
O O5 0.336929 0.770356 0.257813
O O6 0.390828 0.753600 0.130514
O O7 0.500000 0.500000 0.711374
O O8 0.673592 0.500000 0.660875
O O9 0.750000 0.250000 0.661751
O O10 0.650020 0.170808 0.615869
O O11 0.059406 0.500000 0.929854
O O12 0.000000 0.220948 0.908872
O O13 0.077271 0.222793 0.000000
O O14 0.850075 0.500000 0.500000
#
# Coordination Sequence:
#
# PCOD9489009 Si02
#       6
#     4  16   8  16  16   8
#     4  12  23  40  68  90 125 172 194 248 307 376
#     4  10  20  33  55  83 115 154 197 252 305 355
#     4  10  20  33  54  88 119 151 205 250 301 358
#     4  11  24  44  66  93 123 157 210 260 306 361
#     4   9  18  29  45  76 117 157 200 247 298 359
#     4  12  27  44  66  96 128 165 202 248 310 375
#
# _framework density 18.766345000000001
#
# number of rings (size 3 to 8) (size 9 to 14) (size 15 to 20)
#    0.000    1.647    4.706    0.882    3.294    1.412 
#    0.000    1.176    0.000    2.824    0.000    0.000 
#    0.000    0.000    0.000    0.000    0.000    0.000 
#
# Total GULP energy -189555.158093 kJ/mol
# GULP energy per Si atom -5575.151709 kJ/mol
# Density = 1.872363 g / cm^3
# Si number density = 18.766345 Si / 1000 Ang^3
#
#
#
# Elastic Constant Matrix: (Units=GPa)
#
#
# Indices 1 2 3 4 5 6 
#
# 1 95.9959 22.9526 47.7083 0.0000 0.0000 0.0000
# 2 22.9526 83.6164 35.4799 0.0000 0.0000 0.0000
# 3 47.7083 35.4799 152.8642 0.0000 0.0000 0.0000
# 4 0.0000 0.0000 0.0000 20.8891 0.0000 0.0000
# 5 0.0000 0.0000 0.0000 0.0000 1.9897 0.0000
# 6 0.0000 0.0000 0.0000 0.0000 0.0000 8.8723
#
#
#
# Elastic Compliance Matrix: (Units=1/GPa)
#
#
# Indices 1 2 3 4 5 6 
#
# 1 0.012621 -0.001989 -0.003477 0.000000 0.000000 0.000000
# 2 -0.001989 0.013579 -0.002531 0.000000 0.000000 0.000000
# 3 -0.003477 -0.002531 0.008214 0.000000 0.000000 0.000000
# 4 0.000000 0.000000 0.000000 0.047872 0.000000 0.000000
# 5 0.000000 0.000000 0.000000 0.000000 0.502591 0.000000
# 6 0.000000 0.000000 0.000000 0.000000 0.000000 0.112711
#
#
# Mechanical properties :
#
#
# Convention : Reuss Voigt Hill
#
# Bulk Modulus (GPa) = 54.28855 60.52868 57.40862
# Shear Modulus (GPa) = 6.94712 21.43925 14.19319
#
# Velocity S-wave (km/s) = 1.92612 3.38365 2.75309
# Velocity P-wave (km/s) = 5.82564 6.89850 6.38465
#
# Compressibility (1/GPa) = 0.01842009
#
# Stress axis : x y z
#
# Youngs Moduli (GPa) = 79.23427 73.64158 121.73669
#
# Poissons Ratio (x) = 0.14647 0.42331
# Poissons Ratio (y) = 0.15759 0.30812
# Poissons Ratio (z) = 0.27552 0.18639
#
# Static dielectric constant tensor:
#      x y z
#    x 1.644080 0.000000 0.000000 
#    y 0.000000 1.678040 0.000000 
#    z 0.000000 0.000000 1.686620 
# 
# From -- ./inp_files/55428.got.cif
#   From: 2010.05.17/outbox.cif.g08.bks.cpg/sg65_28_cif.got.tgz:55428.got - 2010.06.03 17:01:31.
