data_PCOD9489197
_publ_section_title
;
Structure prediction by ZEFSAII (Michael W. Deem and Ramdas Pophale) SiO2 
 PCOD9489197
Probable space group: C M M M
;
_chemical_formula_sum "Si O2"
_cell_formula_units_Z 96
_cell_length_a 8.692637
_cell_length_b 20.658799
_cell_length_c 30.642253
_cell_angle_alpha 90.000000
_cell_angle_beta 90.000000
_cell_angle_gamma 90.000000
_cell_volume 5502.718651
_symmetry_space_group_name_H-M "C M M M"
_symmetry_group_IT_number 65
_symmetry_cell_setting 'orthorhombic'
loop_
_space_group_symop_operation_xyz
x,y,z
-x,-y,z
x,-y,-z
-x,y,-z
-x,-y,-z
x,y,-z
-x,y,z
x,-y,z
1/2+x,1/2+y,z
1/2-x,1/2-y,z
1/2+x,1/2-y,-z
1/2-x,1/2+y,-z
1/2-x,1/2-y,-z
1/2+x,1/2+y,-z
1/2-x,1/2+y,z
1/2+x,1/2-y,z
loop_
_atom_site_type_symbol
_atom_site_label
_atom_site_fract_x
_atom_site_fract_y
_atom_site_fract_z
Si Si1 0.812496 0.073946 0.450363
Si Si2 0.184224 0.679548 0.050791
Si Si3 0.184556 0.820920 0.720103
Si Si4 0.315726 0.574793 0.882972
Si Si5 0.314320 0.679544 0.619308
Si Si6 0.315673 0.925194 0.786893
O O1 0.765851 0.090446 0.500000
O O2 0.759842 0.124942 0.414349
O O3 0.000000 0.074313 0.449793
O O4 0.764704 0.000000 0.441147
O O5 0.250000 0.750000 0.063052
O O6 0.250171 0.624140 0.081704
O O7 0.000000 0.680953 0.053933
O O8 0.226522 0.667941 0.000000
O O9 0.250000 0.750000 0.731447
O O10 0.229218 0.834275 0.669600
O O11 0.248795 0.875550 0.751930
O O12 0.000000 0.819304 0.722711
O O13 0.500000 0.579495 0.881611
O O14 0.274257 0.500000 0.893246
O O15 0.249028 0.589454 0.835052
O O16 0.500000 0.681840 0.617690
O O17 0.250000 0.750000 0.607704
O O18 0.500000 0.920648 0.787675
O O19 0.273305 0.000000 0.776756
#
# Coordination Sequence:
#
# PCOD9489197 Si02
#       6
#    16  16  16  16  16  16
#     4   8  14  26  45  69  96 126 163 205 245 289
#     4  10  21  37  57  81 110 143 179 219 261 306
#     4  10  20  34  52  74 102 134 170 212 256 305
#     4  10  21  37  57  81 109 140 175 215 258 306
#     4   9  18  31  48  71  98 128 162 203 249 296
#     4  10  21  37  56  78 105 135 169 211 258 308
#
# _framework density 17.445923000000001
#
# number of rings (size 3 to 8) (size 9 to 14) (size 15 to 20)
#    0.000    2.500    0.000    2.500    0.000    5.667 
#    0.000    6.667    0.000    0.500    0.000    1.167 
#    0.000    0.000    0.000    0.000    0.000    0.000 
#
# Total GULP energy -267817.154249 kJ/mol
# GULP energy per Si atom -5579.524047 kJ/mol
# Density = 1.740621 g / cm^3
# Si number density = 17.445923 Si / 1000 Ang^3
#
#
#
# Elastic Constant Matrix: (Units=GPa)
#
#
# Indices 1 2 3 4 5 6 
#
# 1 37.2496 46.3566 42.3410 0.0000 0.0000 0.0000
# 2 46.3566 160.8129 133.3321 0.0000 0.0000 0.0000
# 3 42.3410 133.3321 132.5841 0.0000 0.0000 0.0000
# 4 0.0000 0.0000 0.0000 45.6045 0.0000 0.0000
# 5 0.0000 0.0000 0.0000 0.0000 15.0029 0.0000
# 6 0.0000 0.0000 0.0000 0.0000 0.0000 30.1728
#
#
#
# Elastic Compliance Matrix: (Units=1/GPa)
#
#
# Indices 1 2 3 4 5 6 
#
# 1 0.043114 -0.006092 -0.007642 0.000000 0.000000 0.000000
# 2 -0.006092 0.038274 -0.036544 0.000000 0.000000 0.000000
# 3 -0.007642 -0.036544 0.046734 0.000000 0.000000 0.000000
# 4 0.000000 0.000000 0.000000 0.021928 0.000000 0.000000
# 5 0.000000 0.000000 0.000000 0.000000 0.066654 0.000000
# 6 0.000000 0.000000 0.000000 0.000000 0.000000 0.033142
#
#
# Mechanical properties :
#
#
# Convention : Reuss Voigt Hill
#
# Bulk Modulus (GPa) = 36.27873 86.07845 61.17859
# Shear Modulus (GPa) = 13.90469 25.39718 19.65093
#
# Velocity S-wave (km/s) = 2.82621 3.81959 3.35982
# Velocity P-wave (km/s) = 5.61160 8.30058 7.08483
#
# Compressibility (1/GPa) = 0.02756436
#
# Stress axis : x y z
#
# Youngs Moduli (GPa) = 23.19426 26.12738 21.39787
#
# Poissons Ratio (x) = 0.15917 0.16353
# Poissons Ratio (y) = 0.14130 0.78197
# Poissons Ratio (z) = 0.17726 0.95481
#
# Static dielectric constant tensor:
#      x y z
#    x 1.584710 0.000000 0.000000 
#    y 0.000000 1.568520 0.000000 
#    z 0.000000 0.000000 1.575870 
# 
# From -- ./inp_files/73093.got.cif
#   From: 2010.05.17/outbox.cif.g08.bks.cpg/sg65_37_cif.got.tgz:73093.got - 2010.06.03 17:01:31.
