data_PCOD9489219
_publ_section_title
;
Structure prediction by ZEFSAII (Michael W. Deem and Ramdas Pophale) SiO2 
 PCOD9489219
Probable space group: C M M M
;
_chemical_formula_sum "Si O2"
_cell_formula_units_Z 104
_cell_length_a 17.956780
_cell_length_b 13.736013
_cell_length_c 24.994687
_cell_angle_alpha 90.000000
_cell_angle_beta 90.000000
_cell_angle_gamma 90.000000
_cell_volume 6165.053612
_symmetry_space_group_name_H-M "C M M M"
_symmetry_group_IT_number 65
_symmetry_cell_setting 'orthorhombic'
loop_
_space_group_symop_operation_xyz
x,y,z
-x,-y,z
x,-y,-z
-x,y,-z
-x,-y,-z
x,y,-z
-x,y,z
x,-y,z
1/2+x,1/2+y,z
1/2-x,1/2-y,z
1/2+x,1/2-y,-z
1/2-x,1/2+y,-z
1/2-x,1/2-y,-z
1/2+x,1/2+y,-z
1/2-x,1/2+y,z
1/2+x,1/2-y,z
loop_
_atom_site_type_symbol
_atom_site_label
_atom_site_fract_x
_atom_site_fract_y
_atom_site_fract_z
Si Si1 0.087403 0.116361 0.341865
Si Si2 0.653260 0.117102 0.382844
Si Si3 0.409947 0.885120 0.824896
Si Si4 0.911613 0.617724 0.057537
Si Si5 0.335617 0.228823 0.728190
Si Si6 0.305515 0.618486 0.439998
Si Si7 0.500000 0.118576 0.560937
O O1 0.121874 0.174779 0.292235
O O2 0.134856 0.144683 0.394532
O O3 0.000000 0.138202 0.348284
O O4 0.095412 0.000000 0.334814
O O5 0.662819 0.159541 0.323939
O O6 0.723077 0.145924 0.419774
O O7 0.574725 0.146879 0.408284
O O8 0.653833 0.000000 0.379724
O O9 0.500000 0.878527 0.823591
O O10 0.383495 0.851020 0.884117
O O11 0.375702 0.822692 0.777484
O O12 0.391605 0.000000 0.818412
O O13 0.905849 0.500000 0.057869
O O14 0.000000 0.639585 0.056985
O O15 0.880412 0.652164 0.000000
O O16 0.250000 0.250000 0.741106
O O17 0.321059 0.654115 0.500000
O O18 0.306483 0.500000 0.442186
O O19 0.500000 0.154197 0.500000
O O20 0.500000 0.000000 0.558916
#
# Coordination Sequence:
#
# PCOD9489219 Si02
#       7
#    16  16  16  16  16  16   8
#     4  10  22  39  55  70  92 124 166 212 255 298
#     4  10  20  34  52  75 101 129 158 194 247 308
#     4   9  18  31  51  81 109 132 162 202 245 290
#     4   7  10  20  41  71 107 139 161 186 229 285
#     4  12  23  35  51  70 100 133 169 204 245 295
#     4   9  17  33  56  74  91 119 156 201 253 306
#     4   9  18  32  52  76 101 129 156 190 245 314
#
# _framework density 16.869278000000001
#
# number of rings (size 3 to 8) (size 9 to 14) (size 15 to 20)
#    0.000    2.538    1.538    2.769    2.154    2.769 
#    0.000    3.846    0.000    0.462    0.000    0.000 
#    0.000    0.615    0.000    5.692    0.000    0.308 
#
# Total GULP energy -290037.469036 kJ/mol
# GULP energy per Si atom -5577.643635 kJ/mol
# Density = 1.683088 g / cm^3
# Si number density = 16.869278 Si / 1000 Ang^3
#
#
#
# Elastic Constant Matrix: (Units=GPa)
#
#
# Indices 1 2 3 4 5 6 
#
# 1 96.6953 34.1405 49.5769 0.0000 0.0000 0.0000
# 2 34.1405 57.2835 40.2103 0.0000 0.0000 0.0000
# 3 49.5769 40.2103 162.0924 0.0000 0.0000 0.0000
# 4 0.0000 0.0000 0.0000 12.3118 0.0000 0.0000
# 5 0.0000 0.0000 0.0000 0.0000 -184.3779 0.0000
# 6 0.0000 0.0000 0.0000 0.0000 0.0000 17.8834
#
#
#
# Elastic Compliance Matrix: (Units=1/GPa)
#
#
# Indices 1 2 3 4 5 6 
#
# 1 0.013996 -0.006462 -0.002678 0.000000 0.000000 0.000000
# 2 -0.006462 0.024121 -0.004007 0.000000 0.000000 0.000000
# 3 -0.002678 -0.004007 0.007982 0.000000 0.000000 0.000000
# 4 0.000000 0.000000 0.000000 0.081223 0.000000 0.000000
# 5 0.000000 0.000000 0.000000 0.000000 -0.005424 0.000000
# 6 0.000000 0.000000 0.000000 0.000000 0.000000 0.055918
#
#
# Mechanical properties :
#
#
# Convention : Reuss Voigt Hill
#
# Bulk Modulus (GPa) = 50.49040 62.65851 56.57446
# Shear Modulus (GPa) = 23.72894 -18.02697 2.85099
#
# Velocity S-wave (km/s) = 3.75458 -3.27253 1.30143
# Velocity P-wave (km/s) = 6.98507 4.79008 5.98900
#
# Compressibility (1/GPa) = 0.01980575
#
# Stress axis : x y z
#
# Youngs Moduli (GPa) = 71.44773 41.45722 125.27487
#
# Poissons Ratio (x) = 0.26789 0.33546
# Poissons Ratio (y) = 0.46169 0.50202
# Poissons Ratio (z) = 0.19132 0.16613
#
# Static dielectric constant tensor:
#      x y z
#    x 1.567870 0.000000 0.000000 
#    y 0.000000 1.601320 0.000000 
#    z 0.000000 0.000000 1.573650 
# 
# From -- ./inp_files/70544.got.cif
#   From: 2010.05.17/outbox.cif.g08.bks.cpg/sg65_36_cif.got.tgz:70544.got - 2010.06.03 17:01:31.
