data_PCOD9489306
_publ_section_title
;
Structure prediction by ZEFSAII (Michael W. Deem and Ramdas Pophale) SiO2 
 PCOD9489306
Probable space group: C M M M
;
_chemical_formula_sum "Si O2"
_cell_formula_units_Z 96
_cell_length_a 19.813502
_cell_length_b 9.442322
_cell_length_c 31.325160
_cell_angle_alpha 90.000000
_cell_angle_beta 90.000000
_cell_angle_gamma 90.000000
_cell_volume 5860.482151
_symmetry_space_group_name_H-M "C M M M"
_symmetry_group_IT_number 65
_symmetry_cell_setting 'orthorhombic'
loop_
_space_group_symop_operation_xyz
x,y,z
-x,-y,z
x,-y,-z
-x,y,-z
-x,-y,-z
x,y,-z
-x,y,z
x,-y,z
1/2+x,1/2+y,z
1/2-x,1/2-y,z
1/2+x,1/2-y,-z
1/2-x,1/2+y,-z
1/2-x,1/2-y,-z
1/2+x,1/2+y,-z
1/2-x,1/2+y,z
1/2+x,1/2-y,z
loop_
_atom_site_type_symbol
_atom_site_label
_atom_site_fract_x
_atom_site_fract_y
_atom_site_fract_z
Si Si1 0.180679 0.668411 0.710022
Si Si2 0.919914 0.165955 0.550200
Si Si3 0.320469 0.168957 0.611122
Si Si4 0.417723 0.337261 0.869862
Si Si5 0.579223 0.830828 0.785126
Si Si6 0.582120 0.835456 0.952257
O O1 0.192435 0.500000 0.713743
O O2 0.250000 0.750000 0.718547
O O3 0.160699 0.695521 0.660805
O O4 0.123692 0.707843 0.744151
O O5 0.905796 0.190559 0.500000
O O6 0.876075 0.266432 0.579895
O O7 0.000000 0.187120 0.556672
O O8 0.905112 0.000000 0.559146
O O9 0.250000 0.250000 0.603455
O O10 0.312700 0.000000 0.605286
O O11 0.500000 0.335519 0.870732
O O12 0.396025 0.500000 0.868078
O O13 0.398187 0.251594 0.827511
O O14 0.394423 0.260609 0.913167
O O15 0.500000 0.799999 0.777705
O O16 0.584963 0.000000 0.792289
O O17 0.500000 0.831352 0.952086
O O18 0.600848 0.000000 0.945902
O O19 0.603558 0.791020 0.000000
#
# Coordination Sequence:
#
# PCOD9489306 Si02
#       6
#    16  16  16  16  16  16
#     4   9  19  34  51  71  95 124 156 194 238 280
#     4   9  19  36  55  75 102 134 165 199 241 287
#     4  10  20  34  53  76 101 129 163 202 243 288
#     4   9  16  24  35  55  83 112 144 185 230 271
#     4   9  17  30  47  65  88 120 155 188 226 275
#     4   8  13  21  33  49  72 107 148 183 219 269
#
# _framework density 16.380904999999998
#
# number of rings (size 3 to 8) (size 9 to 14) (size 15 to 20)
#    0.000    3.000    0.000    2.000    0.000    5.333 
#    0.000    4.167    0.000    2.000    0.000    0.000 
#    0.000    0.667    0.000    2.167    0.000    4.333 
#
# Total GULP energy -267404.795864 kJ/mol
# GULP energy per Si atom -5570.933247 kJ/mol
# Density = 1.634362 g / cm^3
# Si number density = 16.380905 Si / 1000 Ang^3
#
#
#
# Elastic Constant Matrix: (Units=GPa)
#
#
# Indices 1 2 3 4 5 6 
#
# 1 45.0799 49.9566 70.2304 0.0000 0.0000 0.0000
# 2 49.9566 84.0642 89.6412 0.0000 0.0000 0.0000
# 3 70.2304 89.6412 137.4828 0.0000 0.0000 0.0000
# 4 0.0000 0.0000 0.0000 22.0173 0.0000 0.0000
# 5 0.0000 0.0000 0.0000 0.0000 -11.7798 0.0000
# 6 0.0000 0.0000 0.0000 0.0000 0.0000 21.4573
#
#
#
# Elastic Compliance Matrix: (Units=1/GPa)
#
#
# Indices 1 2 3 4 5 6 
#
# 1 0.117277 -0.019069 -0.047475 0.000000 0.000000 0.000000
# 2 -0.019069 0.042138 -0.017734 0.000000 0.000000 0.000000
# 3 -0.047475 -0.017734 0.043088 0.000000 0.000000 0.000000
# 4 0.000000 0.000000 0.000000 0.045419 0.000000 0.000000
# 5 0.000000 0.000000 0.000000 0.000000 -0.084891 0.000000
# 6 0.000000 0.000000 0.000000 0.000000 0.000000 0.046604
#
#
# Mechanical properties :
#
#
# Convention : Reuss Voigt Hill
#
# Bulk Modulus (GPa) = 29.45759 76.25370 52.85564
# Shear Modulus (GPa) = 12.83678 10.12555 11.48116
#
# Velocity S-wave (km/s) = 2.80240 2.48892 2.65030
# Velocity P-wave (km/s) = 5.33790 7.41020 6.45772
#
# Compressibility (1/GPa) = 0.03394711
#
# Stress axis : x y z
#
# Youngs Moduli (GPa) = 8.52684 23.73171 23.20819
#
# Poissons Ratio (x) = 0.45253 1.10182
# Poissons Ratio (y) = 0.16260 0.41157
# Poissons Ratio (z) = 0.40482 0.42085
#
# Static dielectric constant tensor:
#      x y z
#    x 1.523690 0.000000 0.000000 
#    y 0.000000 1.544010 0.000000 
#    z 0.000000 0.000000 1.548780 
# 
# From -- ./inp_files/73125.got.cif
#   From: 2010.05.17/outbox.cif.g08.bks.cpg/sg65_37_cif.got.tgz:73125.got - 2010.06.03 17:01:31.
