data_PCOD9489162
_publ_section_title
;
Structure prediction by ZEFSAII (Michael W. Deem and Ramdas Pophale) SiO2 
 PCOD9489162
Probable space group: C M M M
;
_chemical_formula_sum "Si O2"
_cell_formula_units_Z 88
_cell_length_a 8.371398
_cell_length_b 19.005514
_cell_length_c 29.809976
_cell_angle_alpha 90.000000
_cell_angle_beta 90.000000
_cell_angle_gamma 90.000000
_cell_volume 4742.848321
_symmetry_space_group_name_H-M "C M M M"
_symmetry_group_IT_number 65
_symmetry_cell_setting 'orthorhombic'
loop_
_space_group_symop_operation_xyz
x,y,z
-x,-y,z
x,-y,-z
-x,y,-z
-x,-y,-z
x,y,-z
-x,y,z
x,-y,z
1/2+x,1/2+y,z
1/2-x,1/2-y,z
1/2+x,1/2-y,-z
1/2-x,1/2+y,-z
1/2-x,1/2-y,-z
1/2+x,1/2+y,-z
1/2-x,1/2+y,z
1/2+x,1/2-y,z
loop_
_atom_site_type_symbol
_atom_site_label
_atom_site_fract_x
_atom_site_fract_y
_atom_site_fract_z
Si Si1 0.190054 0.169709 0.500000
Si Si2 0.308945 0.170566 0.228976
Si Si3 0.806957 0.670145 0.329473
Si Si4 0.193031 0.081265 0.145390
Si Si5 0.806485 0.418969 0.414819
Si Si6 0.309444 0.585202 0.951778
O O1 0.250000 0.250000 0.500000
O O2 0.250259 0.127843 0.543614
O O3 0.000000 0.170617 0.500000
O O4 0.500000 0.169353 0.228581
O O5 0.250000 0.250000 0.222611
O O6 0.254851 0.148702 0.279195
O O7 0.247303 0.123763 0.188426
O O8 0.750000 0.750000 0.337738
O O9 0.752735 0.617965 0.368617
O O10 0.000000 0.670758 0.329897
O O11 0.252092 0.109729 0.096763
O O12 0.000000 0.081914 0.143706
O O13 0.244308 0.000000 0.149511
O O14 0.752643 0.500000 0.418386
O O15 0.000000 0.419421 0.414989
O O16 0.500000 0.599498 0.952625
O O17 0.293854 0.500000 0.951005
O O18 0.242395 0.609839 0.000000
#
# Coordination Sequence:
#
# PCOD9489162 Si02
#       6
#     8  16  16  16  16  16
#     4  12  25  40  59  83 111 143 181 218 253 298
#     4  10  20  34  52  73 100 134 171 210 252 300
#     4   9  19  35  55  77 100 132 173 213 252 299
#     4   9  17  29  47  73 102 129 161 204 252 302
#     4  10  21  38  59  83 112 142 171 208 256 304
#     4   7  10  19  38  64  92 122 157 197 242 294
#
# _framework density 18.554251000000001
#
# number of rings (size 3 to 8) (size 9 to 14) (size 15 to 20)
#    0.000    2.727    0.000    3.818    0.000    5.455 
#    0.000    1.818    0.000    1.091    0.000    2.545 
#    0.000    0.000    0.000    0.000    0.000    0.000 
#
# Total GULP energy -245208.979403 kJ/mol
# GULP energy per Si atom -5572.931350 kJ/mol
# Density = 1.851202 g / cm^3
# Si number density = 18.554251 Si / 1000 Ang^3
#
#
#
# Elastic Constant Matrix: (Units=GPa)
#
#
# Indices 1 2 3 4 5 6 
#
# 1 12.5013 17.0307 27.5170 0.0000 0.0000 0.0000
# 2 17.0307 99.9504 112.0443 0.0000 0.0000 0.0000
# 3 27.5170 112.0443 227.9996 0.0000 0.0000 0.0000
# 4 0.0000 0.0000 0.0000 70.8393 0.0000 0.0000
# 5 0.0000 0.0000 0.0000 0.0000 12.7475 0.0000
# 6 0.0000 0.0000 0.0000 0.0000 0.0000 18.3518
#
#
#
# Elastic Compliance Matrix: (Units=1/GPa)
#
#
# Indices 1 2 3 4 5 6 
#
# 1 0.112282 -0.008775 -0.009239 0.000000 0.000000 0.000000
# 2 -0.008775 0.022963 -0.010225 0.000000 0.000000 0.000000
# 3 -0.009239 -0.010225 0.010526 0.000000 0.000000 0.000000
# 4 0.000000 0.000000 0.000000 0.014116 0.000000 0.000000
# 5 0.000000 0.000000 0.000000 0.000000 0.078447 0.000000
# 6 0.000000 0.000000 0.000000 0.000000 0.000000 0.054490
#
#
# Mechanical properties :
#
#
# Convention : Reuss Voigt Hill
#
# Bulk Modulus (GPa) = 11.19922 72.62614 41.91268
# Shear Modulus (GPa) = 13.19027 32.64501 22.91764
#
# Velocity S-wave (km/s) = 2.66917 4.19911 3.51831
# Velocity P-wave (km/s) = 3.94314 7.92071 6.25643
#
# Compressibility (1/GPa) = 0.08929194
#
# Stress axis : x y z
#
# Youngs Moduli (GPa) = 8.90616 43.54856 95.00266
#
# Poissons Ratio (x) = 0.38214 0.87772
# Poissons Ratio (y) = 0.07815 0.97144
# Poissons Ratio (z) = 0.08228 0.44530
#
# Static dielectric constant tensor:
#      x y z
#    x 1.651340 0.000000 0.000000 
#    y 0.000000 1.606970 0.000000 
#    z 0.000000 0.000000 1.684070 
# 
# From -- ./inp_files/76611.got.cif
#   From: 2010.05.17/outbox.cif.g08.bks.cpg/sg65_39_cif.got.tgz:76611.got - 2010.06.03 17:01:31.
