data_PCOD9489067
_publ_section_title
;
Structure prediction by ZEFSAII (Michael W. Deem and Ramdas Pophale) SiO2 
 PCOD9489067
Probable space group: C M M M
;
_chemical_formula_sum "Si O2"
_cell_formula_units_Z 104
_cell_length_a 34.641076
_cell_length_b 22.903124
_cell_length_c 7.659549
_cell_angle_alpha 90.000000
_cell_angle_beta 90.000000
_cell_angle_gamma 90.000000
_cell_volume 6077.000842
_symmetry_space_group_name_H-M "C M M M"
_symmetry_group_IT_number 65
_symmetry_cell_setting 'orthorhombic'
loop_
_space_group_symop_operation_xyz
x,y,z
-x,-y,z
x,-y,-z
-x,y,-z
-x,-y,-z
x,y,-z
-x,y,z
x,-y,z
1/2+x,1/2+y,z
1/2-x,1/2-y,z
1/2+x,1/2-y,-z
1/2-x,1/2+y,-z
1/2-x,1/2-y,-z
1/2+x,1/2+y,-z
1/2-x,1/2+y,z
1/2+x,1/2-y,z
loop_
_atom_site_type_symbol
_atom_site_label
_atom_site_fract_x
_atom_site_fract_y
_atom_site_fract_z
Si Si1 0.611132 0.567221 0.788573
Si Si2 0.043428 0.500000 0.710819
Si Si3 0.156630 0.429017 0.000000
Si Si4 0.746231 0.071106 0.000000
Si Si5 0.543481 0.786142 0.709426
Si Si6 0.402202 0.891072 0.711725
Si Si7 0.697633 0.570972 0.305570
Si Si8 0.043355 0.151257 0.209481
O O1 0.606151 0.500000 0.730196
O O2 0.653604 0.588544 0.734083
O O3 0.576646 0.608384 0.724868
O O4 0.610756 0.566724 0.000000
O O5 0.040794 0.500000 0.500000
O O6 0.067604 0.557285 0.755654
O O7 0.000000 0.500000 0.780504
O O8 0.201624 0.412141 0.000000
O O9 0.135079 0.404416 0.828365
O O10 0.153694 0.500000 0.000000
O O11 0.770968 0.090897 0.166513
O O12 0.746516 0.000000 0.000000
O O13 0.541745 0.791477 0.500000
O O14 0.500000 0.799863 0.776079
O O15 0.576366 0.831236 0.764392
O O16 0.551890 0.719023 0.753435
O O17 0.395305 0.891808 0.500000
O O18 0.708321 0.588551 0.500000
O O19 0.696927 0.500000 0.296790
O O20 0.000000 0.138842 0.276686
O O21 0.042160 0.144362 0.000000
#
# Coordination Sequence:
#
# PCOD9489067 Si02
#       8
#    16   8   8   8  16  16  16  16
#     4   9  16  28  47  70 104 140 168 205 250 293
#     4   9  16  29  49  69  96 131 165 204 247 293
#     4  11  22  34  50  75 104 134 164 197 255 316
#     4   9  18  32  48  69 101 131 158 197 245 308
#     4   9  18  33  51  68  92 131 175 216 253 286
#     4  10  20  34  50  71 100 133 169 209 254 299
#     4   9  16  28  48  73  97 126 165 203 244 293
#     4   9  18  30  45  71 103 135 173 211 245 289
#
# _framework density 17.113706000000001
#
# number of rings (size 3 to 8) (size 9 to 14) (size 15 to 20)
#    0.000    2.692    1.538    0.462    1.077    3.385 
#    0.000    4.615    0.000    0.000    0.000    6.462 
#    0.000    3.692    0.000    0.000    0.000    0.000 
#
# Total GULP energy -289828.022252 kJ/mol
# GULP energy per Si atom -5573.615813 kJ/mol
# Density = 1.707475 g / cm^3
# Si number density = 17.113706 Si / 1000 Ang^3
#
#
#
# Elastic Constant Matrix: (Units=GPa)
#
#
# Indices 1 2 3 4 5 6 
#
# 1 178.3056 72.4792 63.7411 0.0000 0.0000 0.0000
# 2 72.4792 57.6046 25.9943 0.0000 0.0000 0.0000
# 3 63.7411 25.9943 76.0419 0.0000 0.0000 0.0000
# 4 0.0000 0.0000 0.0000 15.4113 0.0000 0.0000
# 5 0.0000 0.0000 0.0000 0.0000 -2.2091 0.0000
# 6 0.0000 0.0000 0.0000 0.0000 0.0000 14.0966
#
#
#
# Elastic Compliance Matrix: (Units=1/GPa)
#
#
# Indices 1 2 3 4 5 6 
#
# 1 0.013863 -0.014424 -0.006690 0.000000 0.000000 0.000000
# 2 -0.014424 0.035533 -0.000056 0.000000 0.000000 0.000000
# 3 -0.006690 -0.000056 0.018777 0.000000 0.000000 0.000000
# 4 0.000000 0.000000 0.000000 0.064887 0.000000 0.000000
# 5 0.000000 0.000000 0.000000 0.000000 -0.452667 0.000000
# 6 0.000000 0.000000 0.000000 0.000000 0.000000 0.070939
#
#
# Mechanical properties :
#
#
# Convention : Reuss Voigt Hill
#
# Bulk Modulus (GPa) = 38.70835 70.70904 54.70869
# Shear Modulus (GPa) = -25.28884 15.44226 -4.92329
#
# Velocity S-wave (km/s) = -3.84825 3.00714 -1.69796
# Velocity P-wave (km/s) = 1.70940 7.31192 5.30972
#
# Compressibility (1/GPa) = 0.02583422
#
# Stress axis : x y z
#
# Youngs Moduli (GPa) = 72.13466 28.14252 53.25532
#
# Poissons Ratio (x) = 0.40592 0.35627
# Poissons Ratio (y) = 1.04046 0.00299
# Poissons Ratio (z) = 0.48256 0.00158
#
# Static dielectric constant tensor:
#      x y z
#    x 1.569480 0.000000 0.000000 
#    y 0.000000 1.558800 0.000000 
#    z 0.000000 0.000000 1.621600 
# 
# From -- ./inp_files/16527.got.cif
#   From: 2010.05.17/outbox.cif.g08.bks.cpg/sg65_9_cif.got.tgz:16527.got - 2010.06.03 17:01:31.
