data_PCOD9489337
_publ_section_title
;
Structure prediction by ZEFSAII (Michael W. Deem and Ramdas Pophale) SiO2 
 PCOD9489337
Probable space group: C M M M
;
_chemical_formula_sum "Si O2"
_cell_formula_units_Z 64
_cell_length_a 9.341974
_cell_length_b 14.737948
_cell_length_c 21.442634
_cell_angle_alpha 90.000000
_cell_angle_beta 90.000000
_cell_angle_gamma 90.000000
_cell_volume 2952.254593
_symmetry_space_group_name_H-M "C M M M"
_symmetry_group_IT_number 65
_symmetry_cell_setting 'orthorhombic'
loop_
_space_group_symop_operation_xyz
x,y,z
-x,-y,z
x,-y,-z
-x,y,-z
-x,-y,-z
x,y,-z
-x,y,z
x,-y,z
1/2+x,1/2+y,z
1/2-x,1/2-y,z
1/2+x,1/2-y,-z
1/2-x,1/2+y,-z
1/2-x,1/2-y,-z
1/2+x,1/2+y,-z
1/2-x,1/2+y,z
1/2+x,1/2-y,z
loop_
_atom_site_type_symbol
_atom_site_label
_atom_site_fract_x
_atom_site_fract_y
_atom_site_fract_z
Si Si1 0.834873 0.110599 0.121347
Si Si2 0.834181 0.888989 0.739656
Si Si3 0.171614 0.154079 0.500000
Si Si4 0.340412 0.893488 0.378066
Si Si5 0.162907 0.388782 0.000000
O O1 0.786151 0.137868 0.190725
O O2 0.741801 0.140712 0.062981
O O3 0.000000 0.138261 0.113666
O O4 0.833389 0.000000 0.120757
O O5 0.733724 0.855697 0.684006
O O6 0.000000 0.861629 0.730628
O O7 0.834302 0.000000 0.738387
O O8 0.250000 0.250000 0.500000
O O9 0.234698 0.112006 0.563214
O O10 0.000000 0.155564 0.500000
O O11 0.500000 0.854901 0.391029
O O12 0.358378 0.000000 0.366448
O O13 0.164377 0.500000 0.000000
O O14 0.000000 0.358522 0.000000
#
# Coordination Sequence:
#
# PCOD9489337 Si02
#       5
#    16  16   8  16   8
#     4   8  13  21  32  46  69 104 145 186 226 271
#     4   8  14  25  41  61  84 113 152 194 234 277
#     4  12  25  40  57  75  99 129 161 198 241 290
#     4  10  20  34  53  77 103 129 160 199 241 287
#     4   9  15  19  25  41  67 101 142 185 228 275
#
# _framework density 21.678346000000001
#
# number of rings (size 3 to 8) (size 9 to 14) (size 15 to 20)
#    0.000    2.875    0.000    4.125    0.000    5.500 
#    0.000    5.000    0.000    0.000    0.000    0.000 
#    0.000    0.000    0.000    1.125    0.000   16.000 
#
# Total GULP energy -178566.102662 kJ/mol
# GULP energy per Si atom -5580.190708 kJ/mol
# Density = 2.162901 g / cm^3
# Si number density = 21.678346 Si / 1000 Ang^3
#
#
#
# Elastic Constant Matrix: (Units=GPa)
#
#
# Indices 1 2 3 4 5 6 
#
# 1 175.3500 9.2943 141.4795 0.0000 0.0000 0.0000
# 2 9.2943 43.7324 3.1845 0.0000 0.0000 0.0000
# 3 141.4795 3.1845 228.8215 0.0000 0.0000 0.0000
# 4 0.0000 0.0000 0.0000 -64.9539 0.0000 0.0000
# 5 0.0000 0.0000 0.0000 0.0000 51.4917 0.0000
# 6 0.0000 0.0000 0.0000 0.0000 0.0000 6.2484
#
#
#
# Elastic Compliance Matrix: (Units=1/GPa)
#
#
# Indices 1 2 3 4 5 6 
#
# 1 0.011541 -0.001935 -0.007109 0.000000 0.000000 0.000000
# 2 -0.001935 0.023214 0.000873 0.000000 0.000000 0.000000
# 3 -0.007109 0.000873 0.008754 0.000000 0.000000 0.000000
# 4 0.000000 0.000000 0.000000 -0.015396 0.000000 0.000000
# 5 0.000000 0.000000 0.000000 0.000000 0.019421 0.000000
# 6 0.000000 0.000000 0.000000 0.000000 0.000000 0.160042
#
#
# Mechanical properties :
#
#
# Convention : Reuss Voigt Hill
#
# Bulk Modulus (GPa) = 36.80887 83.98006 60.39446
# Shear Modulus (GPa) = 21.46168 18.15360 19.80764
#
# Velocity S-wave (km/s) = 3.14985 2.89694 3.02604
# Velocity P-wave (km/s) = 5.49956 7.07198 6.33475
#
# Compressibility (1/GPa) = 0.02716737
#
# Stress axis : x y z
#
# Youngs Moduli (GPa) = 86.64542 43.07744 114.23951
#
# Poissons Ratio (x) = 0.08336 0.81213
# Poissons Ratio (y) = 0.16767 -0.09978
# Poissons Ratio (z) = 0.61596 -0.03763
#
# Static dielectric constant tensor:
#      x y z
#    x 1.759030 0.000000 0.000000 
#    y 0.000000 1.969500 0.000000 
#    z 0.000000 0.000000 1.843600 
# 
# From -- ./inp_files/58852.got.cif
#   From: 2010.05.17/outbox.cif.g08.bks.cpg/sg65_30_cif.got.tgz:58852.got - 2010.06.03 17:01:31.
