data_PCOD9489370
_publ_section_title
;
Structure prediction by ZEFSAII (Michael W. Deem and Ramdas Pophale) SiO2 
 PCOD9489370
Probable space group: C M M M
;
_chemical_formula_sum "Si O2"
_cell_formula_units_Z 104
_cell_length_a 29.677771
_cell_length_b 21.614001
_cell_length_c 8.701047
_cell_angle_alpha 90.000000
_cell_angle_beta 90.000000
_cell_angle_gamma 90.000000
_cell_volume 5581.333341
_symmetry_space_group_name_H-M "C M M M"
_symmetry_group_IT_number 65
_symmetry_cell_setting 'orthorhombic'
loop_
_space_group_symop_operation_xyz
x,y,z
-x,-y,z
x,-y,-z
-x,y,-z
-x,-y,-z
x,y,-z
-x,y,z
x,-y,z
1/2+x,1/2+y,z
1/2-x,1/2-y,z
1/2+x,1/2-y,-z
1/2-x,1/2+y,-z
1/2-x,1/2-y,-z
1/2+x,1/2+y,-z
1/2-x,1/2+y,z
1/2+x,1/2-y,z
loop_
_atom_site_type_symbol
_atom_site_label
_atom_site_fract_x
_atom_site_fract_y
_atom_site_fract_z
Si Si1 0.550910 0.317256 0.672129
Si Si2 0.052091 0.369000 0.682962
Si Si3 0.709483 0.297455 0.185906
Si Si4 0.554285 0.000000 0.826459
Si Si5 0.415029 0.428578 0.178351
Si Si6 0.382741 0.232351 0.822930
Si Si7 0.185585 0.928510 0.684850
O O1 0.567968 0.303560 0.500000
O O2 0.500000 0.294611 0.680636
O O3 0.554236 0.389052 0.708986
O O4 0.581677 0.287148 0.800375
O O5 0.050189 0.366435 0.500000
O O6 0.065475 0.437310 0.738667
O O7 0.090742 0.322836 0.739998
O O8 0.000000 0.356281 0.738981
O O9 0.750000 0.250000 0.221241
O O10 0.664012 0.261184 0.236587
O O11 0.711878 0.366754 0.257520
O O12 0.707363 0.305125 0.000000
O O13 0.500000 0.000000 0.835369
O O14 0.572299 0.000000 0.000000
O O15 0.427145 0.500000 0.186430
O O16 0.363453 0.422397 0.236155
O O17 0.418412 0.409501 0.000000
O O18 0.375965 0.215313 0.000000
O O19 0.181440 0.925064 0.500000
O O20 0.201645 0.000000 0.720546
#
# Coordination Sequence:
#
# PCOD9489370 Si02
#       7
#    16  16  16   8  16  16  16
#     4  11  23  36  51  75 110 149 187 230 279 328
#     4  10  20  34  54  81 114 151 189 230 279 335
#     4  10  22  40  62  88 116 147 189 236 287 346
#     4   9  17  31  53  81 111 145 189 235 275 327
#     4  10  20  34  53  77 106 144 189 233 277 325
#     4  11  22  36  56  81 110 146 187 232 278 330
#     4  10  20  35  59  89 117 147 187 234 284 341
#
# _framework density 18.633541000000001
#
# number of rings (size 3 to 8) (size 9 to 14) (size 15 to 20)
#    0.000    1.769    1.538    3.000    0.000    8.000 
#    0.000    1.538    1.692    0.000    0.000    0.000 
#    0.000    0.000    0.000    0.000    0.000    0.000 
#
# Total GULP energy -289811.680064 kJ/mol
# GULP energy per Si atom -5573.301540 kJ/mol
# Density = 1.859113 g / cm^3
# Si number density = 18.633541 Si / 1000 Ang^3
#
#
#
# Elastic Constant Matrix: (Units=GPa)
#
#
# Indices 1 2 3 4 5 6 
#
# 1 64.2125 47.0844 14.6831 0.0000 0.0000 0.0000
# 2 47.0844 142.9739 33.6803 0.0000 0.0000 0.0000
# 3 14.6831 33.6803 43.3722 0.0000 0.0000 0.0000
# 4 0.0000 0.0000 0.0000 22.8682 0.0000 0.0000
# 5 0.0000 0.0000 0.0000 0.0000 19.4616 0.0000
# 6 0.0000 0.0000 0.0000 0.0000 0.0000 30.8111
#
#
#
# Elastic Compliance Matrix: (Units=1/GPa)
#
#
# Indices 1 2 3 4 5 6 
#
# 1 0.020686 -0.006318 -0.002096 0.000000 0.000000 0.000000
# 2 -0.006318 0.010490 -0.006007 0.000000 0.000000 0.000000
# 3 -0.002096 -0.006007 0.028431 0.000000 0.000000 0.000000
# 4 0.000000 0.000000 0.000000 0.043729 0.000000 0.000000
# 5 0.000000 0.000000 0.000000 0.000000 0.051383 0.000000
# 6 0.000000 0.000000 0.000000 0.000000 0.000000 0.032456
#
#
# Mechanical properties :
#
#
# Convention : Reuss Voigt Hill
#
# Bulk Modulus (GPa) = 32.50672 49.05048 40.77860
# Shear Modulus (GPa) = 22.09727 24.96890 23.53309
#
# Velocity S-wave (km/s) = 3.44741 3.66457 3.55765
# Velocity P-wave (km/s) = 5.77315 6.65480 6.22959
#
# Compressibility (1/GPa) = 0.03076287
#
# Stress axis : x y z
#
# Youngs Moduli (GPa) = 48.34266 95.32761 35.17336
#
# Poissons Ratio (x) = 0.60232 0.07374
# Poissons Ratio (y) = 0.30545 0.21129
# Poissons Ratio (z) = 0.10134 0.57263
#
# Static dielectric constant tensor:
#      x y z
#    x 1.636330 0.000000 0.000000 
#    y 0.000000 1.718570 0.000000 
#    z 0.000000 0.000000 1.645390 
# 
# From -- ./inp_files/16498.got.cif
#   From: 2010.05.17/outbox.cif.g08.bks.cpg/sg65_9_cif.got.tgz:16498.got - 2010.06.03 17:01:31.
