data_PCOD9489891
_publ_section_title
;
Structure prediction by ZEFSAII (Michael W. Deem and Ramdas Pophale) SiO2 
 PCOD9489891
Probable space group: C M M M
;
_chemical_formula_sum "Si O2"
_cell_formula_units_Z 96
_cell_length_a 8.602814
_cell_length_b 28.007668
_cell_length_c 24.604017
_cell_angle_alpha 90.000000
_cell_angle_beta 90.000000
_cell_angle_gamma 90.000000
_cell_volume 5928.208931
_symmetry_space_group_name_H-M "C M M M"
_symmetry_group_IT_number 65
_symmetry_cell_setting 'orthorhombic'
loop_
_space_group_symop_operation_xyz
x,y,z
-x,-y,z
x,-y,-z
-x,y,-z
-x,-y,-z
x,y,-z
-x,y,z
x,-y,z
1/2+x,1/2+y,z
1/2-x,1/2-y,z
1/2+x,1/2-y,-z
1/2-x,1/2+y,-z
1/2-x,1/2-y,-z
1/2+x,1/2+y,-z
1/2-x,1/2+y,z
1/2+x,1/2-y,z
loop_
_atom_site_type_symbol
_atom_site_label
_atom_site_fract_x
_atom_site_fract_y
_atom_site_fract_z
Si Si1 0.812598 0.055444 0.114375
Si Si2 0.688751 0.446550 0.334828
Si Si3 0.815395 0.556650 0.000000
Si Si4 0.187207 0.849999 0.609534
Si Si5 0.314751 0.198108 0.281908
Si Si6 0.185328 0.696179 0.500000
Si Si7 0.811786 0.893227 0.775344
O O1 0.752417 0.075050 0.056815
O O2 0.763100 0.085415 0.166893
O O3 0.000000 0.055252 0.113165
O O4 0.761509 0.000000 0.120359
O O5 0.500000 0.447874 0.336428
O O6 0.745911 0.500000 0.346083
O O7 0.736305 0.404318 0.375695
O O8 0.730636 0.428975 0.274128
O O9 0.775495 0.500000 0.000000
O O10 0.000000 0.561608 0.000000
O O11 0.244796 0.817900 0.659880
O O12 0.255020 0.830759 0.553624
O O13 0.000000 0.848234 0.607795
O O14 0.500000 0.199185 0.285619
O O15 0.250000 0.250000 0.267616
O O16 0.260398 0.157602 0.239727
O O17 0.250000 0.750000 0.500000
O O18 0.000000 0.697913 0.500000
O O19 0.000000 0.889018 0.774711
#
# Coordination Sequence:
#
# PCOD9489891 Si02
#       7
#    16  16   8  16  16   8  16
#     4   9  16  27  45  68  95 128 165 201 235 277
#     4   8  14  27  49  74  98 125 157 192 227 268
#     4   9  17  27  39  59  92 131 166 201 241 281
#     4  10  20  35  54  76 100 125 158 195 233 279
#     4  11  21  34  51  71  97 126 156 192 238 286
#     4  12  24  38  55  74  97 123 156 197 243 290
#     4   9  17  29  47  72  98 124 159 199 237 279
#
# _framework density 16.193762
#
# number of rings (size 3 to 8) (size 9 to 14) (size 15 to 20)
#    0.000    2.417    0.000    5.000    0.000    3.667 
#    0.000    0.417    0.000   19.000    0.000    0.583 
#    0.000    0.000    0.000    0.000    0.000    0.000 
#
# Total GULP energy -267689.418945 kJ/mol
# GULP energy per Si atom -5576.862895 kJ/mol
# Density = 1.615690 g / cm^3
# Si number density = 16.193762 Si / 1000 Ang^3
#
#
#
# Elastic Constant Matrix: (Units=GPa)
#
#
# Indices 1 2 3 4 5 6 
#
# 1 53.1986 32.2348 40.3756 0.0000 0.0000 0.0000
# 2 32.2348 127.3055 77.9722 0.0000 0.0000 0.0000
# 3 40.3756 77.9722 156.0501 0.0000 0.0000 0.0000
# 4 0.0000 0.0000 0.0000 17.4936 0.0000 0.0000
# 5 0.0000 0.0000 0.0000 0.0000 21.6417 0.0000
# 6 0.0000 0.0000 0.0000 0.0000 0.0000 20.3328
#
#
#
# Elastic Compliance Matrix: (Units=1/GPa)
#
#
# Indices 1 2 3 4 5 6 
#
# 1 0.024328 -0.003321 -0.004635 0.000000 0.000000 0.000000
# 2 -0.003321 0.011773 -0.005023 0.000000 0.000000 0.000000
# 3 -0.004635 -0.005023 0.010117 0.000000 0.000000 0.000000
# 4 0.000000 0.000000 0.000000 0.057164 0.000000 0.000000
# 5 0.000000 0.000000 0.000000 0.000000 0.046207 0.000000
# 6 0.000000 0.000000 0.000000 0.000000 0.000000 0.049182
#
#
# Mechanical properties :
#
#
# Convention : Reuss Voigt Hill
#
# Bulk Modulus (GPa) = 49.36026 70.85771 60.10899
# Shear Modulus (GPa) = 21.60003 24.29172 22.94587
#
# Velocity S-wave (km/s) = 3.65615 3.87727 3.76833
# Velocity P-wave (km/s) = 6.95489 7.99346 7.49219
#
# Compressibility (1/GPa) = 0.02025921
#
# Stress axis : x y z
#
# Youngs Moduli (GPa) = 41.10554 84.94340 98.84139
#
# Poissons Ratio (x) = 0.28211 0.45813
# Poissons Ratio (y) = 0.13652 0.49648
# Poissons Ratio (z) = 0.19052 0.42667
#
# Static dielectric constant tensor:
#      x y z
#    x 1.547900 0.000000 0.000000 
#    y 0.000000 1.540540 0.000000 
#    z 0.000000 0.000000 1.531820 
# 
# From -- ./inp_files/68076.got.cif
#   From: 2010.05.17/outbox.cif.g08.bks.cpg/sg65_35_cif.got.tgz:68076.got - 2010.06.03 17:01:31.
