data_PCOD9489965
_publ_section_title
;
Structure prediction by ZEFSAII (Michael W. Deem and Ramdas Pophale) SiO2 
 PCOD9489965
Probable space group: C M M M
;
_chemical_formula_sum "Si O2"
_cell_formula_units_Z 56
_cell_length_a 23.921821
_cell_length_b 7.690241
_cell_length_c 13.926636
_cell_angle_alpha 90.000000
_cell_angle_beta 90.000000
_cell_angle_gamma 90.000000
_cell_volume 2562.007584
_symmetry_space_group_name_H-M "C M M M"
_symmetry_group_IT_number 65
_symmetry_cell_setting 'orthorhombic'
loop_
_space_group_symop_operation_xyz
x,y,z
-x,-y,z
x,-y,-z
-x,y,-z
-x,-y,-z
x,y,-z
-x,y,z
x,-y,z
1/2+x,1/2+y,z
1/2-x,1/2-y,z
1/2+x,1/2-y,-z
1/2-x,1/2+y,-z
1/2-x,1/2-y,-z
1/2+x,1/2+y,-z
1/2-x,1/2+y,z
1/2+x,1/2-y,z
loop_
_atom_site_type_symbol
_atom_site_label
_atom_site_fract_x
_atom_site_fract_y
_atom_site_fract_z
Si Si1 0.378256 0.791236 0.188196
Si Si2 0.685059 0.790958 0.000000
Si Si3 0.000000 0.194205 0.386624
Si Si4 0.624498 0.799392 0.607531
Si Si5 0.500000 0.707070 0.109730
O O1 0.344486 0.723628 0.096365
O O2 0.356052 0.720125 0.290975
O O3 0.443506 0.759523 0.164332
O O4 0.371201 0.000000 0.193590
O O5 0.750000 0.750000 0.000000
O O6 0.677572 0.000000 0.000000
O O7 0.057680 0.293654 0.372780
O O8 0.000000 0.167287 0.500000
O O9 0.000000 0.000000 0.340988
O O10 0.634564 0.723118 0.500000
O O11 0.642613 0.000000 0.602201
O O12 0.500000 0.500000 0.103212
O O13 0.500000 0.777754 0.000000
#
# Coordination Sequence:
#
# PCOD9489965 Si02
#       5
#    16   8   8  16   8
#     4  10  20  35  55  77 104 139 173 208 253 306
#     4  10  22  39  58  77  97 128 172 216 261 308
#     4   9  16  25  38  61  97 137 170 199 236 284
#     4   9  17  29  46  69  97 130 168 205 241 289
#     4  11  22  33  49  78 112 141 171 211 258 303
#
# _framework density 21.857858
#
# number of rings (size 3 to 8) (size 9 to 14) (size 15 to 20)
#    0.000    2.286    1.429    1.714    0.000    8.000 
#    0.000    0.000    0.000    0.857    0.000    0.000 
#    0.000    0.000    0.000    0.000    0.000    0.000 
#
# Total GULP energy -155979.077624 kJ/mol
# GULP energy per Si atom -5570.681344 kJ/mol
# Density = 2.180811 g / cm^3
# Si number density = 21.857858 Si / 1000 Ang^3
#
#
#
# Elastic Constant Matrix: (Units=GPa)
#
#
# Indices 1 2 3 4 5 6 
#
# 1 64.4820 -10.6909 53.7817 0.0000 0.0000 0.0000
# 2 -10.6909 48.7710 9.7444 0.0000 0.0000 0.0000
# 3 53.7817 9.7444 281.6447 0.0000 0.0000 0.0000
# 4 0.0000 0.0000 0.0000 3.5599 0.0000 0.0000
# 5 0.0000 0.0000 0.0000 0.0000 -7.7492 0.0000
# 6 0.0000 0.0000 0.0000 0.0000 0.0000 9.2263
#
#
#
# Elastic Compliance Matrix: (Units=1/GPa)
#
#
# Indices 1 2 3 4 5 6 
#
# 1 0.019623 0.005085 -0.003923 0.000000 0.000000 0.000000
# 2 0.005085 0.021965 -0.001731 0.000000 0.000000 0.000000
# 3 -0.003923 -0.001731 0.004360 0.000000 0.000000 0.000000
# 4 0.000000 0.000000 0.000000 0.280909 0.000000 0.000000
# 5 0.000000 0.000000 0.000000 0.000000 -0.129046 0.000000
# 6 0.000000 0.000000 0.000000 0.000000 0.000000 0.108386
#
#
# Mechanical properties :
#
#
# Convention : Reuss Voigt Hill
#
# Bulk Modulus (GPa) = 22.31638 55.61870 38.96754
# Shear Modulus (GPa) = 15.51488 23.81156 19.66322
#
# Velocity S-wave (km/s) = 2.66711 3.30416 3.00258
# Velocity P-wave (km/s) = 4.44034 6.32910 5.46690
#
# Compressibility (1/GPa) = 0.04481014
#
# Stress axis : x y z
#
# Youngs Moduli (GPa) = 50.95932 45.52785 229.37808
#
# Poissons Ratio (x) = -0.23153 0.89989
# Poissons Ratio (y) = -0.25915 0.39706
# Poissons Ratio (z) = 0.19992 0.07881
#
# Static dielectric constant tensor:
#      x y z
#    x 1.785080 0.000000 0.000000 
#    y 0.000000 1.831960 0.000000 
#    z 0.000000 0.000000 1.935130 
# 
# From -- ./inp_files/35581.got.cif
#   From: 2010.05.17/outbox.cif.g08.bks.cpg/sg65_18_cif.got.tgz:35581.got - 2010.06.03 17:01:31.
