data_PCOD9489477
_publ_section_title
;
Structure prediction by ZEFSAII (Michael W. Deem and Ramdas Pophale) SiO2 
 PCOD9489477
Probable space group: C M M M
;
_chemical_formula_sum "Si O2"
_cell_formula_units_Z 88
_cell_length_a 24.995965
_cell_length_b 20.547414
_cell_length_c 7.725784
_cell_angle_alpha 90.000000
_cell_angle_beta 90.000000
_cell_angle_gamma 90.000000
_cell_volume 3967.981522
_symmetry_space_group_name_H-M "C M M M"
_symmetry_group_IT_number 65
_symmetry_cell_setting 'orthorhombic'
loop_
_space_group_symop_operation_xyz
x,y,z
-x,-y,z
x,-y,-z
-x,y,-z
-x,-y,-z
x,y,-z
-x,y,z
x,-y,z
1/2+x,1/2+y,z
1/2-x,1/2-y,z
1/2+x,1/2-y,-z
1/2-x,1/2+y,-z
1/2-x,1/2-y,-z
1/2+x,1/2+y,-z
1/2-x,1/2+y,z
1/2+x,1/2-y,z
loop_
_atom_site_type_symbol
_atom_site_label
_atom_site_fract_x
_atom_site_fract_y
_atom_site_fract_z
Si Si1 0.441717 0.267535 0.788112
Si Si2 0.355263 0.500000 0.691719
Si Si3 0.889101 0.361100 0.208108
Si Si4 0.654644 0.355536 0.795654
Si Si5 0.272712 0.000000 0.696065
Si Si6 0.939155 0.500000 0.295079
Si Si7 0.225199 0.356267 0.802184
O O1 0.500000 0.290521 0.730493
O O2 0.432398 0.192474 0.739412
O O3 0.391562 0.309534 0.724821
O O4 0.441155 0.270927 0.000000
O O5 0.379118 0.500000 0.500000
O O6 0.364963 0.569700 0.777766
O O7 0.291043 0.500000 0.677366
O O8 0.907472 0.434036 0.249456
O O9 0.831333 0.335876 0.278583
O O10 0.884236 0.358341 0.000000
O O11 0.715461 0.345906 0.724087
O O12 0.659912 0.342652 0.000000
O O13 0.284072 0.934325 0.797447
O O14 0.295894 0.000000 0.500000
O O15 0.943842 0.500000 0.500000
O O16 0.000000 0.500000 0.220967
O O17 0.227148 0.332242 0.000000
#
# Coordination Sequence:
#
# PCOD9489477 Si02
#       7
#    16   8  16  16   8   8  16
#     4   9  18  33  53  76 100 130 171 214 255 302
#     4   9  17  30  49  74 101 129 164 202 243 296
#     4  10  20  34  54  78 104 135 171 212 256 302
#     4   9  17  31  52  76 104 135 166 206 254 303
#     4   9  16  26  43  67  98 134 164 195 239 291
#     4  11  24  39  54  76 106 139 177 216 250 290
#     4   9  17  28  45  73 104 131 162 202 252 304
#
# _framework density 22.177523999999998
#
# number of rings (size 3 to 8) (size 9 to 14) (size 15 to 20)
#    0.000    2.636    0.000    1.909    0.000    7.273 
#    0.000    5.000    0.000    4.364    0.000    6.364 
#    0.000    0.000    0.000    0.000    0.000    0.000 
#
# Total GULP energy -245156.791045 kJ/mol
# GULP energy per Si atom -5571.745251 kJ/mol
# Density = 2.212705 g / cm^3
# Si number density = 22.177524 Si / 1000 Ang^3
#
#
#
# Elastic Constant Matrix: (Units=GPa)
#
#
# Indices 1 2 3 4 5 6 
#
# 1 184.9366 67.7659 9.4212 0.0000 0.0000 0.0000
# 2 67.7659 75.3198 -3.5319 0.0000 0.0000 0.0000
# 3 9.4212 -3.5319 43.5899 0.0000 0.0000 0.0000
# 4 0.0000 0.0000 0.0000-1364.5368 0.0000 0.0000
# 5 0.0000 0.0000 0.0000 0.0000 0.9505 0.0000
# 6 0.0000 0.0000 0.0000 0.0000 0.0000 24.7264
#
#
#
# Elastic Compliance Matrix: (Units=1/GPa)
#
#
# Indices 1 2 3 4 5 6 
#
# 1 0.008312 -0.007591 -0.002412 0.000000 0.000000 0.000000
# 2 -0.007591 0.020261 0.003282 0.000000 0.000000 0.000000
# 3 -0.002412 0.003282 0.023728 0.000000 0.000000 0.000000
# 4 0.000000 0.000000 0.000000 -0.000733 0.000000 0.000000
# 5 0.000000 0.000000 0.000000 0.000000 1.052120 0.000000
# 6 0.000000 0.000000 0.000000 0.000000 0.000000 0.040443
#
#
# Mechanical properties :
#
#
# Convention : Reuss Voigt Hill
#
# Bulk Modulus (GPa) = 25.73356 50.12851 37.93104
# Shear Modulus (GPa) = 4.27159 -252.42593 -124.07717
#
# Velocity S-wave (km/s) = 1.38934 -10.68025 -7.48790
# Velocity P-wave (km/s) = 3.76860 11.37708 7.59064
#
# Compressibility (1/GPa) = 0.03885975
#
# Stress axis : x y z
#
# Youngs Moduli (GPa) = 120.31163 49.35702 42.14378
#
# Poissons Ratio (x) = 0.37468 0.10163
# Poissons Ratio (y) = 0.91331 -0.13833
# Poissons Ratio (z) = 0.29014 -0.16201
#
# Static dielectric constant tensor:
#      x y z
#    x 1.863910 0.000000 0.000000 
#    y 0.000000 1.821880 0.000000 
#    z 0.000000 0.000000 1.837790 
# 
# From -- ./inp_files/14029.got.cif
#   From: 2010.05.17/outbox.cif.g08.bks.cpg/sg65_8_cif.got.tgz:14029.got - 2010.06.03 17:01:31.
