data_PCOD9489535
_publ_section_title
;
Structure prediction by ZEFSAII (Michael W. Deem and Ramdas Pophale) SiO2 
 PCOD9489535
Probable space group: C M M M
;
_chemical_formula_sum "Si O2"
_cell_formula_units_Z 80
_cell_length_a 26.837303
_cell_length_b 9.329967
_cell_length_c 15.195239
_cell_angle_alpha 90.000000
_cell_angle_beta 90.000000
_cell_angle_gamma 90.000000
_cell_volume 3804.753388
_symmetry_space_group_name_H-M "C M M M"
_symmetry_group_IT_number 65
_symmetry_cell_setting 'orthorhombic'
loop_
_space_group_symop_operation_xyz
x,y,z
-x,-y,z
x,-y,-z
-x,y,-z
-x,-y,-z
x,y,-z
-x,y,z
x,-y,z
1/2+x,1/2+y,z
1/2-x,1/2-y,z
1/2+x,1/2-y,-z
1/2-x,1/2+y,-z
1/2-x,1/2-y,-z
1/2+x,1/2+y,-z
1/2-x,1/2+y,z
1/2+x,1/2-y,z
loop_
_atom_site_type_symbol
_atom_site_label
_atom_site_fract_x
_atom_site_fract_y
_atom_site_fract_z
Si Si1 0.500000 0.825188 0.898300
Si Si2 0.500000 0.333392 0.392335
Si Si3 0.701514 0.663842 0.641239
Si Si4 0.400434 0.835550 0.394135
Si Si5 0.703495 0.660071 0.852140
Si Si6 0.893447 0.662932 0.893911
O O1 0.553048 0.783949 0.858620
O O2 0.500000 0.000000 0.900178
O O3 0.500000 0.775292 0.000000
O O4 0.500000 0.500000 0.364407
O O5 0.500000 0.333932 0.500000
O O6 0.550118 0.249659 0.364246
O O7 0.698782 0.500000 0.607461
O O8 0.750000 0.750000 0.607230
O O9 0.650450 0.750438 0.625755
O O10 0.708020 0.653501 0.746514
O O11 0.403882 0.843115 0.500000
O O12 0.399109 0.000000 0.360760
O O13 0.704143 0.500000 0.887637
O O14 0.750000 0.750000 0.886928
O O15 0.651998 0.737523 0.871161
O O16 0.884281 0.500000 0.863310
O O17 0.897797 0.657047 0.000000
#
# Coordination Sequence:
#
# PCOD9489535 Si02
#       6
#     8   8  16  16  16  16
#     4   7  12  26  48  73 100 129 161 197 240 291
#     4   9  17  31  52  77 106 139 171 207 254 301
#     4  10  21  37  55  74  99 134 173 212 258 309
#     4  10  20  34  54  80 107 135 170 211 253 302
#     4  10  21  36  53  73  99 133 170 209 254 302
#     4   9  17  31  53  78 102 131 168 208 249 297
#
# _framework density 21.026330999999999
#
# number of rings (size 3 to 8) (size 9 to 14) (size 15 to 20)
#    0.000    2.600    0.000    3.300    0.000    6.000 
#    0.000    1.500    0.000    6.600    0.000    0.000 
#    0.000    0.000    0.000    0.000    0.000    0.000 
#
# Total GULP energy -223262.012357 kJ/mol
# GULP energy per Si atom -5581.550309 kJ/mol
# Density = 2.097847 g / cm^3
# Si number density = 21.026331 Si / 1000 Ang^3
#
#
#
# Elastic Constant Matrix: (Units=GPa)
#
#
# Indices 1 2 3 4 5 6 
#
# 1 250.9971 146.3652 -0.0101 0.0000 0.0000 0.0000
# 2 146.3652 204.4022 8.7126 0.0000 0.0000 0.0000
# 3 -0.0101 8.7126 40.4418 0.0000 0.0000 0.0000
# 4 0.0000 0.0000 0.0000 17.5436 0.0000 0.0000
# 5 0.0000 0.0000 0.0000 0.0000 32.3846 0.0000
# 6 0.0000 0.0000 0.0000 0.0000 0.0000 37.6412
#
#
#
# Elastic Compliance Matrix: (Units=1/GPa)
#
#
# Indices 1 2 3 4 5 6 
#
# 1 0.006886 -0.004977 0.001074 0.000000 0.000000 0.000000
# 2 -0.004977 0.008534 -0.001840 0.000000 0.000000 0.000000
# 3 0.001074 -0.001840 0.025124 0.000000 0.000000 0.000000
# 4 0.000000 0.000000 0.000000 0.057001 0.000000 0.000000
# 5 0.000000 0.000000 0.000000 0.000000 0.030879 0.000000
# 6 0.000000 0.000000 0.000000 0.000000 0.000000 0.026567
#
#
# Mechanical properties :
#
#
# Convention : Reuss Voigt Hill
#
# Bulk Modulus (GPa) = 34.41303 89.55293 61.98298
# Shear Modulus (GPa) = 28.38291 40.23212 34.30752
#
# Velocity S-wave (km/s) = 3.67805 4.37901 4.04375
# Velocity P-wave (km/s) = 5.86852 8.26141 7.16556
#
# Compressibility (1/GPa) = 0.02905876
#
# Stress axis : x y z
#
# Youngs Moduli (GPa) = 145.21555 117.17189 39.80329
#
# Poissons Ratio (x) = 0.58314 -0.04275
# Poissons Ratio (y) = 0.72271 0.07323
# Poissons Ratio (z) = -0.15595 0.21558
#
# Static dielectric constant tensor:
#      x y z
#    x 1.737470 0.000000 0.000000 
#    y 0.000000 1.738460 0.000000 
#    z 0.000000 0.000000 1.801580 
# 
# From -- ./inp_files/65081.got.cif
#   From: 2010.05.17/outbox.cif.g08.bks.cpg/sg65_33_cif.got.tgz:65081.got - 2010.06.03 17:01:31.
