data_PCOD9489978
_publ_section_title
;
Structure prediction by ZEFSAII (Michael W. Deem and Ramdas Pophale) SiO2 
 PCOD9489978
Probable space group: C M M M
;
_chemical_formula_sum "Si O2"
_cell_formula_units_Z 96
_cell_length_a 7.741650
_cell_length_b 29.193719
_cell_length_c 19.162810
_cell_angle_alpha 90.000000
_cell_angle_beta 90.000000
_cell_angle_gamma 90.000000
_cell_volume 4330.939829
_symmetry_space_group_name_H-M "C M M M"
_symmetry_group_IT_number 65
_symmetry_cell_setting 'orthorhombic'
loop_
_space_group_symop_operation_xyz
x,y,z
-x,-y,z
x,-y,-z
-x,y,-z
-x,-y,-z
x,y,-z
-x,y,z
x,-y,z
1/2+x,1/2+y,z
1/2-x,1/2-y,z
1/2+x,1/2-y,-z
1/2-x,1/2+y,-z
1/2-x,1/2-y,-z
1/2+x,1/2+y,-z
1/2-x,1/2+y,z
1/2+x,1/2-y,z
loop_
_atom_site_type_symbol
_atom_site_label
_atom_site_fract_x
_atom_site_fract_y
_atom_site_fract_z
Si Si1 0.202374 0.550853 0.787585
Si Si2 0.194303 0.374460 0.684918
Si Si3 0.205885 0.948905 0.417605
Si Si4 0.703153 0.399131 0.920213
Si Si5 0.794613 0.299004 0.079870
Si Si6 0.791758 0.303551 0.422288
O O1 0.276371 0.500000 0.775460
O O2 0.279197 0.593968 0.744747
O O3 0.214250 0.564656 0.868313
O O4 0.000000 0.549168 0.767761
O O5 0.189537 0.410829 0.621965
O O6 0.276070 0.331109 0.645171
O O7 0.000000 0.361420 0.708771
O O8 0.234135 0.946625 0.500000
O O9 0.000000 0.942573 0.405626
O O10 0.252490 0.000000 0.393541
O O11 0.500000 0.408224 0.922378
O O12 0.729704 0.347310 0.891649
O O13 0.770703 0.400255 0.000000
O O14 0.750000 0.250000 0.113395
O O15 0.000000 0.301968 0.077199
O O16 0.723578 0.297190 0.000000
O O17 0.730068 0.319140 0.500000
O O18 0.750000 0.250000 0.416971
O O19 0.000000 0.309157 0.421930
#
# Coordination Sequence:
#
# PCOD9489978 Si02
#       6
#    16  16  16  16  16  16
#     4  10  22  39  57  78 106 141 180 225 283 347
#     4  10  20  35  55  78 105 139 180 223 268 321
#     4   9  18  31  47  72 106 140 174 213 258 309
#     4  10  21  37  57  81 108 140 183 233 284 341
#     4   9  16  28  50  80 112 142 171 208 258 316
#     4   9  18  33  54  81 112 145 182 223 264 308
#
# _framework density 22.166090000000001
#
# number of rings (size 3 to 8) (size 9 to 14) (size 15 to 20)
#    0.000    2.500    0.000    2.500    0.000    7.000 
#    0.000    5.000    0.000    2.000    0.000    0.000 
#    0.000    0.000    0.000    0.000    0.000    0.000 
#
# Total GULP energy -267635.871107 kJ/mol
# GULP energy per Si atom -5575.747315 kJ/mol
# Density = 2.211564 g / cm^3
# Si number density = 22.166090 Si / 1000 Ang^3
#
#
#
# Elastic Constant Matrix: (Units=GPa)
#
#
# Indices 1 2 3 4 5 6 
#
# 1 39.0874 -4.1757 0.8803 0.0000 0.0000 0.0000
# 2 -4.1757 97.0544 55.6442 0.0000 0.0000 0.0000
# 3 0.8803 55.6442 81.6075 0.0000 0.0000 0.0000
# 4 0.0000 0.0000 0.0000 54.2578 0.0000 0.0000
# 5 0.0000 0.0000 0.0000 0.0000 5.7869 0.0000
# 6 0.0000 0.0000 0.0000 0.0000 0.0000 20.0085
#
#
#
# Elastic Compliance Matrix: (Units=1/GPa)
#
#
# Indices 1 2 3 4 5 6 
#
# 1 0.025845 0.002088 -0.001703 0.000000 0.000000 0.000000
# 2 0.002088 0.017085 -0.011672 0.000000 0.000000 0.000000
# 3 -0.001703 -0.011672 0.020231 0.000000 0.000000 0.000000
# 4 0.000000 0.000000 0.000000 0.018431 0.000000 0.000000
# 5 0.000000 0.000000 0.000000 0.000000 0.172804 0.000000
# 6 0.000000 0.000000 0.000000 0.000000 0.000000 0.049979
#
#
# Mechanical properties :
#
#
# Convention : Reuss Voigt Hill
#
# Bulk Modulus (GPa) = 24.63782 35.82744 30.23263
# Shear Modulus (GPa) = 14.68526 27.03732 20.86129
#
# Velocity S-wave (km/s) = 2.57672 3.49630 3.07112
# Velocity P-wave (km/s) = 4.47123 5.70062 5.12293
#
# Compressibility (1/GPa) = 0.04058800
#
# Stress axis : x y z
#
# Youngs Moduli (GPa) = 38.69201 58.52959 49.42943
#
# Poissons Ratio (x) = -0.12222 0.08416
# Poissons Ratio (y) = -0.08079 0.57695
# Poissons Ratio (z) = 0.06588 0.68317
#
# Static dielectric constant tensor:
#      x y z
#    x 1.804970 0.000000 0.000000 
#    y 0.000000 1.845080 0.000000 
#    z 0.000000 0.000000 1.851700 
# 
# From -- ./inp_files/60193.got.cif
#   From: 2010.05.17/outbox.cif.g08.bks.cpg/sg65_31_cif.got.tgz:60193.got - 2010.06.03 17:01:31.
