data_PCOD9489683
_publ_section_title
;
Structure prediction by ZEFSAII (Michael W. Deem and Ramdas Pophale) SiO2 
 PCOD9489683
Probable space group: C M M M
;
_chemical_formula_sum "Si O2"
_cell_formula_units_Z 88
_cell_length_a 19.599708
_cell_length_b 28.272898
_cell_length_c 8.600239
_cell_angle_alpha 90.000000
_cell_angle_beta 90.000000
_cell_angle_gamma 90.000000
_cell_volume 4765.741128
_symmetry_space_group_name_H-M "C M M M"
_symmetry_group_IT_number 65
_symmetry_cell_setting 'orthorhombic'
loop_
_space_group_symop_operation_xyz
x,y,z
-x,-y,z
x,-y,-z
-x,y,-z
-x,-y,-z
x,y,-z
-x,y,z
x,-y,z
1/2+x,1/2+y,z
1/2-x,1/2-y,z
1/2+x,1/2-y,-z
1/2-x,1/2+y,-z
1/2-x,1/2-y,-z
1/2+x,1/2+y,-z
1/2-x,1/2+y,z
1/2+x,1/2-y,z
loop_
_atom_site_type_symbol
_atom_site_label
_atom_site_fract_x
_atom_site_fract_y
_atom_site_fract_z
Si Si1 0.813890 0.191804 0.176264
Si Si2 0.326170 0.845704 0.314538
Si Si3 0.795831 0.552278 0.818186
Si Si4 0.080922 0.052652 0.500000
Si Si5 0.140210 0.083659 0.172840
Si Si6 0.922642 0.264583 0.687452
O O1 0.740468 0.182942 0.254660
O O2 0.846069 0.139534 0.170138
O O3 0.867255 0.226132 0.259008
O O4 0.803706 0.208289 0.000000
O O5 0.322609 0.846222 0.500000
O O6 0.324428 0.899871 0.257788
O O7 0.392227 0.815621 0.265260
O O8 0.813948 0.500000 0.754642
O O9 0.713732 0.558351 0.812876
O O10 0.814822 0.553280 0.000000
O O11 0.101831 0.074354 0.334069
O O12 0.000000 0.050921 0.500000
O O13 0.110850 0.000000 0.500000
O O14 0.111422 0.070428 0.000000
O O15 0.924606 0.263359 0.500000
O O16 0.000000 0.256359 0.744628
#
# Coordination Sequence:
#
# PCOD9489683 Si02
#       6
#    16  16  16   8  16  16
#     4  10  21  36  56  82 108 138 181 228 277 330
#     4  10  20  34  55  83 112 143 182 225 274 329
#     4   9  18  33  55  82 108 136 173 223 281 329
#     4  11  24  36  50  74 101 142 191 225 271 338
#     4   9  20  37  54  77 109 139 175 231 285 329
#     4  10  22  38  55  78 111 149 185 225 272 326
#
# _framework density 18.465122999999998
#
# number of rings (size 3 to 8) (size 9 to 14) (size 15 to 20)
#    0.000    2.273    0.000    3.273    6.364    6.545 
#    0.000    2.727    0.000    0.545    0.000    3.818 
#    0.000    0.000    0.000    0.000    0.000    0.000 
#
# Total GULP energy -245168.486572 kJ/mol
# GULP energy per Si atom -5572.011058 kJ/mol
# Density = 1.842310 g / cm^3
# Si number density = 18.465123 Si / 1000 Ang^3
#
#
#
# Elastic Constant Matrix: (Units=GPa)
#
#
# Indices 1 2 3 4 5 6 
#
# 1 53.4709 52.6240 27.5809 0.0000 0.0000 0.0000
# 2 52.6240 113.3240 23.1519 0.0000 0.0000 0.0000
# 3 27.5809 23.1519 79.2304 0.0000 0.0000 0.0000
# 4 0.0000 0.0000 0.0000 35.6016 0.0000 0.0000
# 5 0.0000 0.0000 0.0000 0.0000 -309.6804 0.0000
# 6 0.0000 0.0000 0.0000 0.0000 0.0000 24.7863
#
#
#
# Elastic Compliance Matrix: (Units=1/GPa)
#
#
# Indices 1 2 3 4 5 6 
#
# 1 0.039632 -0.016575 -0.008953 0.000000 0.000000 0.000000
# 2 -0.016575 0.016316 0.001002 0.000000 0.000000 0.000000
# 3 -0.008953 0.001002 0.015445 0.000000 0.000000 0.000000
# 4 0.000000 0.000000 0.000000 0.028089 0.000000 0.000000
# 5 0.000000 0.000000 0.000000 0.000000 -0.003229 0.000000
# 6 0.000000 0.000000 0.000000 0.000000 0.000000 0.040345
#
#
# Mechanical properties :
#
#
# Convention : Reuss Voigt Hill
#
# Bulk Modulus (GPa) = 44.75839 50.30432 47.53135
# Shear Modulus (GPa) = 25.89374 -40.34726 -7.22676
#
# Velocity S-wave (km/s) = 3.74880 -4.67953 -1.98046
# Velocity P-wave (km/s) = 6.55973 1.37668 4.53513
#
# Compressibility (1/GPa) = 0.02234218
#
# Stress axis : x y z
#
# Youngs Moduli (GPa) = 25.23207 61.28838 64.74481
#
# Poissons Ratio (x) = 1.01584 0.57966
# Poissons Ratio (y) = 0.41822 -0.06488
# Poissons Ratio (z) = 0.22590 -0.06142
#
# Static dielectric constant tensor:
#      x y z
#    x 1.625960 0.000000 0.000000 
#    y 0.000000 1.669000 0.000000 
#    z 0.000000 0.000000 1.715580 
# 
# From -- ./inp_files/10060.got.cif
#   From: 2010.05.17/outbox.cif.g08.bks.cpg/sg65_6_cif.got.tgz:10060.got - 2010.06.03 17:01:31.
