data_PCOD9489666
_publ_section_title
;
Structure prediction by ZEFSAII (Michael W. Deem and Ramdas Pophale) SiO2 
 PCOD9489666
Probable space group: C M M M
;
_chemical_formula_sum "Si O2"
_cell_formula_units_Z 80
_cell_length_a 28.351343
_cell_length_b 9.879425
_cell_length_c 17.569107
_cell_angle_alpha 90.000000
_cell_angle_beta 90.000000
_cell_angle_gamma 90.000000
_cell_volume 4921.018442
_symmetry_space_group_name_H-M "C M M M"
_symmetry_group_IT_number 65
_symmetry_cell_setting 'orthorhombic'
loop_
_space_group_symop_operation_xyz
x,y,z
-x,-y,z
x,-y,-z
-x,y,-z
-x,-y,-z
x,y,-z
-x,y,z
x,-y,z
1/2+x,1/2+y,z
1/2-x,1/2-y,z
1/2+x,1/2-y,-z
1/2-x,1/2+y,-z
1/2-x,1/2-y,-z
1/2+x,1/2+y,-z
1/2-x,1/2+y,z
1/2+x,1/2-y,z
loop_
_atom_site_type_symbol
_atom_site_label
_atom_site_fract_x
_atom_site_fract_y
_atom_site_fract_z
Si Si1 0.202306 0.661827 0.166498
Si Si2 0.796243 0.342441 0.000000
Si Si3 0.818208 0.500000 0.590831
Si Si4 0.794868 0.000000 0.592741
Si Si5 0.848078 0.239788 0.682216
Si Si6 0.443743 0.847373 0.500000
Si Si7 0.945791 0.842116 0.642963
O O1 0.210819 0.500000 0.177371
O O2 0.250000 0.750000 0.165899
O O3 0.173219 0.719445 0.236759
O O4 0.179637 0.679449 0.082015
O O5 0.750000 0.250000 0.000000
O O6 0.781397 0.500000 0.000000
O O7 0.822015 0.500000 0.500000
O O8 0.761555 0.500000 0.606392
O O9 0.842265 0.371195 0.629296
O O10 0.818779 0.873002 0.635228
O O11 0.802670 0.000000 0.500000
O O12 0.901428 0.188580 0.696178
O O13 0.500000 0.862127 0.500000
O O14 0.434018 0.755396 0.427372
O O15 0.424199 0.000000 0.500000
O O16 0.000000 0.815188 0.668409
O O17 0.944218 0.000000 0.620247
#
# Coordination Sequence:
#
# PCOD9489666 Si02
#       7
#    16   8   8   8  16   8  16
#     4  10  20  34  55  81 112 142 176 213 261 319
#     4   8  16  32  52  78 109 142 169 207 258 317
#     4  11  24  38  51  72 108 142 180 226 263 305
#     4  11  24  40  53  72 104 148 188 222 257 309
#     4  12  23  35  56  78 101 140 186 221 267 311
#     4   9  19  33  53  75  96 123 164 224 282 320
#     4  10  22  38  53  72  99 134 177 225 274 321
#
# _framework density 16.256796999999999
#
# number of rings (size 3 to 8) (size 9 to 14) (size 15 to 20)
#    0.000    1.700    2.000    2.700    5.600    2.800 
#    0.000    0.000    0.000    0.000    0.000    0.700 
#    0.000    4.000    0.000    0.000    0.000    0.000 
#
# Total GULP energy -222795.264593 kJ/mol
# GULP energy per Si atom -5569.881615 kJ/mol
# Density = 1.621980 g / cm^3
# Si number density = 16.256797 Si / 1000 Ang^3
#
#
#
# Elastic Constant Matrix: (Units=GPa)
#
#
# Indices 1 2 3 4 5 6 
#
# 1 109.0087 42.0071 44.6356 0.0000 0.0000 0.0000
# 2 42.0071 118.9030 48.7498 0.0000 0.0000 0.0000
# 3 44.6356 48.7498 120.5724 0.0000 0.0000 0.0000
# 4 0.0000 0.0000 0.0000 21.1123 0.0000 0.0000
# 5 0.0000 0.0000 0.0000 0.0000 6.4490 0.0000
# 6 0.0000 0.0000 0.0000 0.0000 0.0000 11.6325
#
#
#
# Elastic Compliance Matrix: (Units=1/GPa)
#
#
# Indices 1 2 3 4 5 6 
#
# 1 0.011534 -0.002786 -0.003144 0.000000 0.000000 0.000000
# 2 -0.002786 0.010754 -0.003317 0.000000 0.000000 0.000000
# 3 -0.003144 -0.003317 0.010799 0.000000 0.000000 0.000000
# 4 0.000000 0.000000 0.000000 0.047366 0.000000 0.000000
# 5 0.000000 0.000000 0.000000 0.000000 0.155062 0.000000
# 6 0.000000 0.000000 0.000000 0.000000 0.000000 0.085966
#
#
# Mechanical properties :
#
#
# Convention : Reuss Voigt Hill
#
# Bulk Modulus (GPa) = 68.51926 68.80769 68.66347
# Shear Modulus (GPa) = 14.49953 22.04487 18.27220
#
# Velocity S-wave (km/s) = 2.98972 3.68644 3.35621
# Velocity P-wave (km/s) = 7.35918 7.78056 7.57280
#
# Compressibility (1/GPa) = 0.01459444
#
# Stress axis : x y z
#
# Youngs Moduli (GPa) = 86.69711 92.98514 92.60510
#
# Poissons Ratio (x) = 0.25907 0.29111
# Poissons Ratio (y) = 0.24155 0.30715
# Poissons Ratio (z) = 0.27253 0.30841
#
# Static dielectric constant tensor:
#      x y z
#    x 1.565000 0.000000 0.000000 
#    y 0.000000 1.576220 0.000000 
#    z 0.000000 0.000000 1.509560 
# 
# From -- ./inp_files/57354.got.cif
#   From: 2010.05.17/outbox.cif.g08.bks.cpg/sg65_29_cif.got.tgz:57354.got - 2010.06.03 17:01:31.
