data_PCOD9489874
_publ_section_title
;
Structure prediction by ZEFSAII (Michael W. Deem and Ramdas Pophale) SiO2 
 PCOD9489874
Probable space group: C M M M
;
_chemical_formula_sum "Si O2"
_cell_formula_units_Z 96
_cell_length_a 26.180939
_cell_length_b 8.071245
_cell_length_c 19.206529
_cell_angle_alpha 90.000000
_cell_angle_beta 90.000000
_cell_angle_gamma 90.000000
_cell_volume 4058.584903
_symmetry_space_group_name_H-M "C M M M"
_symmetry_group_IT_number 65
_symmetry_cell_setting 'orthorhombic'
loop_
_space_group_symop_operation_xyz
x,y,z
-x,-y,z
x,-y,-z
-x,y,-z
-x,-y,-z
x,y,-z
-x,y,z
x,-y,z
1/2+x,1/2+y,z
1/2-x,1/2-y,z
1/2+x,1/2-y,-z
1/2-x,1/2+y,-z
1/2-x,1/2-y,-z
1/2+x,1/2+y,-z
1/2-x,1/2+y,z
1/2+x,1/2-y,z
loop_
_atom_site_type_symbol
_atom_site_label
_atom_site_fract_x
_atom_site_fract_y
_atom_site_fract_z
Si Si1 0.555777 0.200338 0.619411
Si Si2 0.583835 0.192128 0.922599
Si Si3 0.334934 0.694312 0.576067
Si Si4 0.414105 0.203201 0.225645
Si Si5 0.194318 0.309297 0.725430
Si Si6 0.804486 0.184800 0.083140
O O1 0.500000 0.245133 0.592048
O O2 0.604005 0.282084 0.582818
O O3 0.558447 0.242848 0.701853
O O4 0.561751 0.000000 0.614049
O O5 0.564348 0.262419 0.848784
O O6 0.645309 0.202531 0.910778
O O7 0.568320 0.000000 0.926362
O O8 0.573136 0.265572 0.000000
O O9 0.318339 0.754937 0.500000
O O10 0.322608 0.500000 0.582247
O O11 0.312408 0.786387 0.642559
O O12 0.355950 0.266326 0.238752
O O13 0.414310 0.000000 0.222003
O O14 0.191865 0.500000 0.743320
O O15 0.250000 0.250000 0.744020
O O16 0.750000 0.250000 0.109038
O O17 0.814733 0.000000 0.110209
O O18 0.798304 0.170617 0.000000
#
# Coordination Sequence:
#
# PCOD9489874 Si02
#       6
#    16  16  16  16  16  16
#     4   9  18  34  56  78 101 133 170 207 250 302
#     4   9  16  27  44  64  88 120 157 199 249 299
#     4  10  21  36  54  79 110 138 166 205 250 296
#     4   8  16  31  49  71  98 129 168 211 252 297
#     4  10  20  35  54  74 101 139 180 217 251 292
#     4   9  16  25  36  52  77 108 144 186 231 281
#
# _framework density 23.653566000000001
#
# number of rings (size 3 to 8) (size 9 to 14) (size 15 to 20)
#    0.000    2.833    0.000    2.500    0.000    5.000 
#    0.000    7.500    0.000    0.500    0.000    3.500 
#    0.000    0.000    0.000   10.167    0.000   11.000 
#
# Total GULP energy -267788.867574 kJ/mol
# GULP energy per Si atom -5578.934741 kJ/mol
# Density = 2.359973 g / cm^3
# Si number density = 23.653566 Si / 1000 Ang^3
#
#
#
# Elastic Constant Matrix: (Units=GPa)
#
#
# Indices 1 2 3 4 5 6 
#
# 1 69.9763 2.8781 -2.7003 0.0000 0.0000 0.0000
# 2 2.8781 26.1821 -8.2875 0.0000 0.0000 0.0000
# 3 -2.7003 -8.2875 137.4922 0.0000 0.0000 0.0000
# 4 0.0000 0.0000 0.0000 9.1737 0.0000 0.0000
# 5 0.0000 0.0000 0.0000 0.0000 -32.0127 0.0000
# 6 0.0000 0.0000 0.0000 0.0000 0.0000 10.1822
#
#
#
# Elastic Compliance Matrix: (Units=1/GPa)
#
#
# Indices 1 2 3 4 5 6 
#
# 1 0.014360 -0.001518 0.000191 0.000000 0.000000 0.000000
# 2 -0.001518 0.039097 0.002327 0.000000 0.000000 0.000000
# 3 0.000191 0.002327 0.007417 0.000000 0.000000 0.000000
# 4 0.000000 0.000000 0.000000 0.109007 0.000000 0.000000
# 5 0.000000 0.000000 0.000000 0.000000 -0.031238 0.000000
# 6 0.000000 0.000000 0.000000 0.000000 0.000000 0.098211
#
#
# Mechanical properties :
#
#
# Convention : Reuss Voigt Hill
#
# Bulk Modulus (GPa) = 15.90509 24.15903 20.03206
# Shear Modulus (GPa) = 19.54539 13.58599 16.56569
#
# Velocity S-wave (km/s) = 2.87769 2.39921 2.64928
# Velocity P-wave (km/s) = 4.21667 4.23212 4.22440
#
# Compressibility (1/GPa) = 0.06287296
#
# Stress axis : x y z
#
# Youngs Moduli (GPa) = 69.63613 25.57716 134.82296
#
# Poissons Ratio (x) = 0.03883 -0.02569
# Poissons Ratio (y) = 0.10573 -0.31371
# Poissons Ratio (z) = -0.01327 -0.05951
#
# Static dielectric constant tensor:
#      x y z
#    x 1.896820 0.000000 0.000000 
#    y 0.000000 1.879200 0.000000 
#    z 0.000000 0.000000 1.955120 
# 
# From -- ./inp_files/60204.got.cif
#   From: 2010.05.17/outbox.cif.g08.bks.cpg/sg65_31_cif.got.tgz:60204.got - 2010.06.03 17:01:31.
