data_PCOD9489533
_publ_section_title
;
Structure prediction by ZEFSAII (Michael W. Deem and Ramdas Pophale) SiO2 
 PCOD9489533
Probable space group: C M M M
;
_chemical_formula_sum "Si O2"
_cell_formula_units_Z 104
_cell_length_a 30.618924
_cell_length_b 23.074680
_cell_length_c 9.026817
_cell_angle_alpha 90.000000
_cell_angle_beta 90.000000
_cell_angle_gamma 90.000000
_cell_volume 6377.643656
_symmetry_space_group_name_H-M "C M M M"
_symmetry_group_IT_number 65
_symmetry_cell_setting 'orthorhombic'
loop_
_space_group_symop_operation_xyz
x,y,z
-x,-y,z
x,-y,-z
-x,y,-z
-x,-y,-z
x,y,-z
-x,y,z
x,-y,z
1/2+x,1/2+y,z
1/2-x,1/2-y,z
1/2+x,1/2-y,-z
1/2-x,1/2+y,-z
1/2-x,1/2-y,-z
1/2+x,1/2+y,-z
1/2-x,1/2+y,z
1/2+x,1/2-y,z
loop_
_atom_site_type_symbol
_atom_site_label
_atom_site_fract_x
_atom_site_fract_y
_atom_site_fract_z
Si Si1 0.895268 0.887268 0.819448
Si Si2 0.949018 0.775165 0.822579
Si Si3 0.788194 0.570405 0.329654
Si Si4 0.550806 0.848973 0.676936
Si Si5 0.121590 0.431370 0.823525
Si Si6 0.449713 0.500000 0.819105
Si Si7 0.801731 0.931068 0.822584
O O1 0.917818 0.827468 0.773738
O O2 0.924152 0.942356 0.771755
O O3 0.845247 0.897488 0.774047
O O4 0.895514 0.887847 0.000000
O O5 0.939975 0.714980 0.740889
O O6 0.000000 0.790852 0.796853
O O7 0.943964 0.766965 0.000000
O O8 0.791037 0.588928 0.500000
O O9 0.787531 0.500000 0.326653
O O10 0.831435 0.587732 0.240659
O O11 0.742660 0.588601 0.255835
O O12 0.555632 0.849160 0.500000
O O13 0.500000 0.862137 0.712484
O O14 0.583252 0.894858 0.749414
O O15 0.116406 0.500000 0.791013
O O16 0.121079 0.424066 0.000000
O O17 0.500000 0.500000 0.771543
O O18 0.449587 0.500000 0.000000
O O19 0.808431 0.000000 0.793764
O O20 0.796754 0.925139 0.000000
#
# Coordination Sequence:
#
# PCOD9489533 Si02
#       7
#    16  16  16  16  16   8  16
#     4   9  15  24  40  66  97 129 165 209 256 296
#     4   9  17  30  48  69  94 128 171 212 247 287
#     4   9  17  29  46  69  98 130 162 195 234 285
#     4  10  21  36  53  73  99 132 166 197 232 279
#     4  10  20  34  54  80 105 127 153 188 236 288
#     4   9  14  20  34  62  99 131 161 205 260 305
#     4   9  15  25  42  65  96 130 165 204 248 295
#
# _framework density 16.306964000000001
#
# number of rings (size 3 to 8) (size 9 to 14) (size 15 to 20)
#    0.000    2.692    0.769    1.846    0.000    5.846 
#    0.000    2.308    0.000    0.923    0.000    6.462 
#    0.000    3.692    0.000    0.000    0.000    0.000 
#
# Total GULP energy -289849.833793 kJ/mol
# GULP energy per Si atom -5574.035265 kJ/mol
# Density = 1.626985 g / cm^3
# Si number density = 16.306964 Si / 1000 Ang^3
#
#
#
# Elastic Constant Matrix: (Units=GPa)
#
#
# Indices 1 2 3 4 5 6 
#
# 1 170.0144 92.2733 65.4079 0.0000 0.0000 0.0000
# 2 92.2733 79.3727 47.6125 0.0000 0.0000 0.0000
# 3 65.4079 47.6125 46.4011 0.0000 0.0000 0.0000
# 4 0.0000 0.0000 0.0000 10.4156 0.0000 0.0000
# 5 0.0000 0.0000 0.0000 0.0000 15.1943 0.0000
# 6 0.0000 0.0000 0.0000 0.0000 0.0000 17.5892
#
#
#
# Elastic Compliance Matrix: (Units=1/GPa)
#
#
# Indices 1 2 3 4 5 6 
#
# 1 0.017521 -0.014444 -0.009877 0.000000 0.000000 0.000000
# 2 -0.014444 0.044676 -0.025482 0.000000 0.000000 0.000000
# 3 -0.009877 -0.025482 0.061621 0.000000 0.000000 0.000000
# 4 0.000000 0.000000 0.000000 0.096010 0.000000 0.000000
# 5 0.000000 0.000000 0.000000 0.000000 0.065814 0.000000
# 6 0.000000 0.000000 0.000000 0.000000 0.000000 0.056853
#
#
# Mechanical properties :
#
#
# Convention : Reuss Voigt Hill
#
# Bulk Modulus (GPa) = 41.30090 78.48617 59.89354
# Shear Modulus (GPa) = 11.10693 14.67279 12.88986
#
# Velocity S-wave (km/s) = 2.61265 3.00290 2.81455
# Velocity P-wave (km/s) = 5.87226 7.76261 6.88264
#
# Compressibility (1/GPa) = 0.02421255
#
# Stress axis : x y z
#
# Youngs Moduli (GPa) = 57.07461 22.38359 16.22834
#
# Poissons Ratio (x) = 0.32331 0.16029
# Poissons Ratio (y) = 0.82438 0.41352
# Poissons Ratio (z) = 0.56372 0.57037
#
# Static dielectric constant tensor:
#      x y z
#    x 1.542920 0.000000 0.000000 
#    y 0.000000 1.522840 0.000000 
#    z 0.000000 0.000000 1.543320 
# 
# From -- ./inp_files/18621.got.cif
#   From: 2010.05.17/outbox.cif.g08.bks.cpg/sg65_10_cif.got.tgz:18621.got - 2010.06.03 17:01:31.
