data_PCOD9489926
_publ_section_title
;
Structure prediction by ZEFSAII (Michael W. Deem and Ramdas Pophale) SiO2 
 PCOD9489926
Probable space group: C M M M
;
_chemical_formula_sum "Si O2"
_cell_formula_units_Z 72
_cell_length_a 8.731977
_cell_length_b 28.991825
_cell_length_c 18.996120
_cell_angle_alpha 90.000000
_cell_angle_beta 90.000000
_cell_angle_gamma 90.000000
_cell_volume 4808.980788
_symmetry_space_group_name_H-M "C M M M"
_symmetry_group_IT_number 65
_symmetry_cell_setting 'orthorhombic'
loop_
_space_group_symop_operation_xyz
x,y,z
-x,-y,z
x,-y,-z
-x,y,-z
-x,-y,-z
x,y,-z
-x,y,z
x,-y,z
1/2+x,1/2+y,z
1/2-x,1/2-y,z
1/2+x,1/2-y,-z
1/2-x,1/2+y,-z
1/2-x,1/2-y,-z
1/2+x,1/2+y,-z
1/2-x,1/2+y,z
1/2+x,1/2-y,z
loop_
_atom_site_type_symbol
_atom_site_label
_atom_site_fract_x
_atom_site_fract_y
_atom_site_fract_z
Si Si1 0.682073 0.554920 0.500000
Si Si2 0.816816 0.055555 0.075644
Si Si3 0.185438 0.945398 0.230327
Si Si4 0.182478 0.606520 0.635512
Si Si5 0.317001 0.299865 0.583120
O O1 0.706214 0.500000 0.500000
O O2 0.500000 0.563992 0.500000
O O3 0.753495 0.577518 0.430619
O O4 0.760841 0.070883 0.152441
O O5 0.000000 0.063967 0.075092
O O6 0.798527 0.000000 0.075835
O O7 0.754660 0.072626 0.000000
O O8 0.257619 0.916767 0.293214
O O9 0.000000 0.941724 0.233065
O O10 0.221398 0.000000 0.238000
O O11 0.244760 0.658295 0.626074
O O12 0.000000 0.606405 0.633586
O O13 0.281086 0.307424 0.500000
O O14 0.500000 0.299871 0.590516
O O15 0.250000 0.250000 0.602507
#
# Coordination Sequence:
#
# PCOD9489926 Si02
#       5
#     8  16  16  16  16
#     4  11  23  37  50  63  84 119 161 199 233 269
#     4   7  10  19  38  63  87 113 150 193 231 267
#     4   9  17  29  45  65  92 126 160 194 232 272
#     4  12  23  33  47  67  93 122 155 191 229 273
#     4  10  20  35  55  73  91 113 144 187 235 281
#
# _framework density 14.971988
#
# number of rings (size 3 to 8) (size 9 to 14) (size 15 to 20)
#    0.000    2.333    1.111    5.667    0.000    4.889 
#    0.000    0.000    0.000    0.667    0.000    3.111 
#    0.000    0.889    0.000    2.444    0.000    3.556 
#
# Total GULP energy -200642.573962 kJ/mol
# GULP energy per Si atom -5573.404832 kJ/mol
# Density = 1.493791 g / cm^3
# Si number density = 14.971988 Si / 1000 Ang^3
#
#
#
# Elastic Constant Matrix: (Units=GPa)
#
#
# Indices 1 2 3 4 5 6 
#
# 1 50.3493 49.2456 46.3904 0.0000 0.0000 0.0000
# 2 49.2456 85.0498 71.0957 0.0000 0.0000 0.0000
# 3 46.3904 71.0957 163.3347 0.0000 0.0000 0.0000
# 4 0.0000 0.0000 0.0000 1.6461 0.0000 0.0000
# 5 0.0000 0.0000 0.0000 0.0000 1.0549 0.0000
# 6 0.0000 0.0000 0.0000 0.0000 0.0000 21.9315
#
#
#
# Elastic Compliance Matrix: (Units=1/GPa)
#
#
# Indices 1 2 3 4 5 6 
#
# 1 0.046356 -0.024892 -0.002331 0.000000 0.000000 0.000000
# 2 -0.024892 0.031850 -0.006794 0.000000 0.000000 0.000000
# 3 -0.002331 -0.006794 0.009742 0.000000 0.000000 0.000000
# 4 0.000000 0.000000 0.000000 0.607506 0.000000 0.000000
# 5 0.000000 0.000000 0.000000 0.000000 0.947959 0.000000
# 6 0.000000 0.000000 0.000000 0.000000 0.000000 0.045596
#
#
# Mechanical properties :
#
#
# Convention : Reuss Voigt Hill
#
# Bulk Modulus (GPa) = 50.21756 70.24415 60.23085
# Shear Modulus (GPa) = 2.83498 13.72663 8.28081
#
# Velocity S-wave (km/s) = 1.37755 3.03119 2.35433
# Velocity P-wave (km/s) = 6.01199 7.69868 6.90702
#
# Compressibility (1/GPa) = 0.01991335
#
# Stress axis : x y z
#
# Youngs Moduli (GPa) = 21.57234 31.39710 102.65354
#
# Poissons Ratio (x) = 0.78155 0.23927
# Poissons Ratio (y) = 0.53699 0.69739
# Poissons Ratio (z) = 0.05028 0.21330
#
# Static dielectric constant tensor:
#      x y z
#    x 1.494600 0.000000 0.000000 
#    y 0.000000 1.469260 0.000000 
#    z 0.000000 0.000000 1.524370 
# 
# From -- ./inp_files/49714.got.cif
#   From: 2010.05.17/outbox.cif.g08.bks.cpg/sg65_25_cif.got.tgz:49714.got - 2010.06.03 17:01:31.
