data_PCOD9489995
_publ_section_title
;
Structure prediction by ZEFSAII (Michael W. Deem and Ramdas Pophale) SiO2 
 PCOD9489995
Probable space group: C M M M
;
_chemical_formula_sum "Si O2"
_cell_formula_units_Z 88
_cell_length_a 10.170332
_cell_length_b 21.977484
_cell_length_c 23.118632
_cell_angle_alpha 90.000000
_cell_angle_beta 90.000000
_cell_angle_gamma 90.000000
_cell_volume 5167.437527
_symmetry_space_group_name_H-M "C M M M"
_symmetry_group_IT_number 65
_symmetry_cell_setting 'orthorhombic'
loop_
_space_group_symop_operation_xyz
x,y,z
-x,-y,z
x,-y,-z
-x,y,-z
-x,-y,-z
x,y,-z
-x,y,z
x,-y,z
1/2+x,1/2+y,z
1/2-x,1/2-y,z
1/2+x,1/2-y,-z
1/2-x,1/2+y,-z
1/2-x,1/2-y,-z
1/2+x,1/2+y,-z
1/2-x,1/2+y,z
1/2+x,1/2-y,z
loop_
_atom_site_type_symbol
_atom_site_label
_atom_site_fract_x
_atom_site_fract_y
_atom_site_fract_z
Si Si1 0.654861 0.806346 0.269157
Si Si2 0.000000 0.160146 0.433084
Si Si3 0.656780 0.000000 0.566238
Si Si4 0.656022 0.192766 0.130840
Si Si5 0.159309 0.432138 0.067735
Si Si6 0.768839 0.375335 0.626012
Si Si7 0.000000 0.695039 0.434833
O O1 0.500000 0.794745 0.282213
O O2 0.750000 0.750000 0.285185
O O3 0.664804 0.814961 0.200300
O O4 0.706338 0.863403 0.306323
O O5 0.873848 0.139973 0.397424
O O6 0.000000 0.232878 0.436169
O O7 0.000000 0.137587 0.500000
O O8 0.697720 0.058696 0.602169
O O9 0.500000 0.000000 0.562100
O O10 0.709061 0.000000 0.500000
O O11 0.500000 0.203961 0.117082
O O12 0.750000 0.250000 0.114986
O O13 0.699015 0.129083 0.101394
O O14 0.203586 0.500000 0.087916
O O15 0.000000 0.432966 0.070914
O O16 0.194762 0.426658 0.000000
O O17 0.871181 0.329232 0.596276
O O18 0.000000 0.670200 0.500000
#
# Coordination Sequence:
#
# PCOD9489995 Si02
#       7
#    16   8   8  16  16  16   8
#     4  10  20  35  55  79 106 137 175 219 267 316
#     4  11  24  37  55  83 107 128 164 219 270 316
#     4  11  22  39  59  75 101 137 170 208 257 322
#     4   9  18  32  51  79 109 142 180 224 270 313
#     4   8  14  27  49  78 111 148 185 223 264 306
#     4  12  23  37  56  79 103 137 172 209 263 320
#     4  11  20  35  57  79 103 130 168 211 260 316
#
# _framework density 17.029717000000002
#
# number of rings (size 3 to 8) (size 9 to 14) (size 15 to 20)
#    0.000    1.909    1.818    3.818    1.273    2.182 
#    1.636    0.909    0.000    0.545    0.000    1.273 
#    0.000    0.000    0.000    0.000    0.000    0.000 
#
# Total GULP energy -245272.336172 kJ/mol
# GULP energy per Si atom -5574.371277 kJ/mol
# Density = 1.699096 g / cm^3
# Si number density = 17.029717 Si / 1000 Ang^3
#
#
#
# Elastic Constant Matrix: (Units=GPa)
#
#
# Indices 1 2 3 4 5 6 
#
# 1 103.9083 48.0088 30.9517 0.0000 0.0000 0.0000
# 2 48.0088 147.1183 60.3428 0.0000 0.0000 0.0000
# 3 30.9517 60.3428 57.1815 0.0000 0.0000 0.0000
# 4 0.0000 0.0000 0.0000 -7.4244 0.0000 0.0000
# 5 0.0000 0.0000 0.0000 0.0000 15.5714 0.0000
# 6 0.0000 0.0000 0.0000 0.0000 0.0000 25.2005
#
#
#
# Elastic Compliance Matrix: (Units=1/GPa)
#
#
# Indices 1 2 3 4 5 6 
#
# 1 0.011858 -0.002181 -0.004117 0.000000 0.000000 0.000000
# 2 -0.002181 0.012386 -0.011890 0.000000 0.000000 0.000000
# 3 -0.004117 -0.011890 0.032264 0.000000 0.000000 0.000000
# 4 0.000000 0.000000 0.000000 -0.134691 0.000000 0.000000
# 5 0.000000 0.000000 0.000000 0.000000 0.064220 0.000000
# 6 0.000000 0.000000 0.000000 0.000000 0.000000 0.039682
#
#
# Mechanical properties :
#
#
# Convention : Reuss Voigt Hill
#
# Bulk Modulus (GPa) = 49.67285 65.20165 57.43725
# Shear Modulus (GPa) = 72.66871 17.92982 45.29926
#
# Velocity S-wave (km/s) = 6.53945 3.24829 5.16313
# Velocity P-wave (km/s) = 9.28713 7.24145 8.32735
#
# Compressibility (1/GPa) = 0.02013172
#
# Stress axis : x y z
#
# Youngs Moduli (GPa) = 84.33207 80.73736 30.99410
#
# Poissons Ratio (x) = 0.17608 0.12761
# Poissons Ratio (y) = 0.18392 0.36852
# Poissons Ratio (z) = 0.34721 0.95998
#
# Static dielectric constant tensor:
#      x y z
#    x 1.583030 0.000000 0.000000 
#    y 0.000000 1.563160 0.000000 
#    z 0.000000 0.000000 1.599250 
# 
# From -- ./inp_files/67682.got.cif
#   From: 2010.05.17/outbox.cif.g08.bks.cpg/sg65_34_cif.got.tgz:67682.got - 2010.06.03 17:01:31.
