data_PCOD9489968
_publ_section_title
;
Structure prediction by ZEFSAII (Michael W. Deem and Ramdas Pophale) SiO2 
 PCOD9489968
Probable space group: C M M M
;
_chemical_formula_sum "Si O2"
_cell_formula_units_Z 88
_cell_length_a 22.832893
_cell_length_b 8.711579
_cell_length_c 24.429279
_cell_angle_alpha 90.000000
_cell_angle_beta 90.000000
_cell_angle_gamma 90.000000
_cell_volume 4859.241351
_symmetry_space_group_name_H-M "C M M M"
_symmetry_group_IT_number 65
_symmetry_cell_setting 'orthorhombic'
loop_
_space_group_symop_operation_xyz
x,y,z
-x,-y,z
x,-y,-z
-x,y,-z
-x,-y,-z
x,y,-z
-x,y,z
x,-y,z
1/2+x,1/2+y,z
1/2-x,1/2-y,z
1/2+x,1/2-y,-z
1/2-x,1/2+y,-z
1/2-x,1/2-y,-z
1/2+x,1/2+y,-z
1/2-x,1/2+y,z
1/2+x,1/2-y,z
loop_
_atom_site_type_symbol
_atom_site_label
_atom_site_fract_x
_atom_site_fract_y
_atom_site_fract_z
Si Si1 0.685707 0.683293 0.059802
Si Si2 0.500000 0.316266 0.936953
Si Si3 0.399883 0.819767 0.139981
Si Si4 0.932521 0.315229 0.373306
Si Si5 0.686714 0.184981 0.435523
Si Si6 0.569683 0.676499 0.253750
O O1 0.684616 0.500000 0.069119
O O2 0.750000 0.750000 0.054368
O O3 0.659291 0.775899 0.109857
O O4 0.655729 0.709112 0.000000
O O5 0.500000 0.500000 0.938627
O O6 0.445904 0.259856 0.900784
O O7 0.500000 0.260266 0.000000
O O8 0.402196 0.753645 0.200913
O O9 0.411248 0.000000 0.141768
O O10 0.933865 0.500000 0.377076
O O11 0.874696 0.263528 0.407240
O O12 0.922060 0.264213 0.310763
O O13 0.000000 0.262806 0.388338
O O14 0.682672 0.223864 0.500000
O O15 0.750000 0.250000 0.415491
O O16 0.689343 0.000000 0.430293
O O17 0.500000 0.677358 0.242838
O O18 0.588618 0.500000 0.259513
#
# Coordination Sequence:
#
# PCOD9489968 Si02
#       6
#    16   8  16  16  16  16
#     4  10  21  38  58  78 103 136 174 218 269 326
#     4  11  23  37  53  77 109 141 174 217 270 325
#     4  12  23  35  55  80 107 139 177 221 269 326
#     4   9  18  33  54  80 110 143 186 235 279 331
#     4   9  18  33  54  81 114 152 188 226 277 333
#     4  10  20  35  55  77 106 142 180 223 275 331
#
# _framework density 18.109822000000001
#
# number of rings (size 3 to 8) (size 9 to 14) (size 15 to 20)
#    0.000    1.909    0.909    3.545    0.000    5.818 
#    0.000    2.727    0.000    2.182    0.000    5.091 
#    0.000    0.000    0.000    0.000    0.000    0.000 
#
# Total GULP energy -245169.089268 kJ/mol
# GULP energy per Si atom -5572.024756 kJ/mol
# Density = 1.806860 g / cm^3
# Si number density = 18.109822 Si / 1000 Ang^3
#
#
#
# Elastic Constant Matrix: (Units=GPa)
#
#
# Indices 1 2 3 4 5 6 
#
# 1 114.0480 14.3980 65.1701 0.0000 0.0000 0.0000
# 2 14.3980 30.4484 13.3651 0.0000 0.0000 0.0000
# 3 65.1701 13.3651 90.6756 0.0000 0.0000 0.0000
# 4 0.0000 0.0000 0.0000 24.4792 0.0000 0.0000
# 5 0.0000 0.0000 0.0000 0.0000 535.8554 0.0000
# 6 0.0000 0.0000 0.0000 0.0000 0.0000 26.3760
#
#
#
# Elastic Compliance Matrix: (Units=1/GPa)
#
#
# Indices 1 2 3 4 5 6 
#
# 1 0.015060 -0.002534 -0.010450 0.000000 0.000000 0.000000
# 2 -0.002534 0.035541 -0.003417 0.000000 0.000000 0.000000
# 3 -0.010450 -0.003417 0.019043 0.000000 0.000000 0.000000
# 4 0.000000 0.000000 0.000000 0.040851 0.000000 0.000000
# 5 0.000000 0.000000 0.000000 0.000000 0.001866 0.000000
# 6 0.000000 0.000000 0.000000 0.000000 0.000000 0.037913
#
#
# Mechanical properties :
#
#
# Convention : Reuss Voigt Hill
#
# Bulk Modulus (GPa) = 27.14428 46.78202 36.96315
# Shear Modulus (GPa) = 25.59426 126.82469 76.20948
#
# Velocity S-wave (km/s) = 3.76344 8.37752 6.49409
# Velocity P-wave (km/s) = 5.82288 10.93004 8.75704
#
# Compressibility (1/GPa) = 0.03684018
#
# Stress axis : x y z
#
# Youngs Moduli (GPa) = 66.40272 28.13673 52.51379
#
# Poissons Ratio (x) = 0.07130 0.54877
# Poissons Ratio (y) = 0.16828 0.17945
# Poissons Ratio (z) = 0.69391 0.09615
#
# Static dielectric constant tensor:
#      x y z
#    x 1.682210 0.000000 0.000000 
#    y 0.000000 1.616750 0.000000 
#    z 0.000000 0.000000 1.602210 
# 
# From -- ./inp_files/65193.got.cif
#   From: 2010.05.17/outbox.cif.g08.bks.cpg/sg65_33_cif.got.tgz:65193.got - 2010.06.03 17:01:31.
