data_PCOD9489091
_publ_section_title
;
Structure prediction by ZEFSAII (Michael W. Deem and Ramdas Pophale) SiO2 
 PCOD9489091
Probable space group: C M M M
;
_chemical_formula_sum "Si O2"
_cell_formula_units_Z 96
_cell_length_a 14.545257
_cell_length_b 9.064748
_cell_length_c 32.508568
_cell_angle_alpha 90.000000
_cell_angle_beta 90.000000
_cell_angle_gamma 90.000000
_cell_volume 4286.225085
_symmetry_space_group_name_H-M "C M M M"
_symmetry_group_IT_number 65
_symmetry_cell_setting 'orthorhombic'
loop_
_space_group_symop_operation_xyz
x,y,z
-x,-y,z
x,-y,-z
-x,y,-z
-x,-y,-z
x,y,-z
-x,y,z
x,-y,z
1/2+x,1/2+y,z
1/2-x,1/2-y,z
1/2+x,1/2-y,-z
1/2-x,1/2+y,-z
1/2-x,1/2-y,-z
1/2+x,1/2+y,-z
1/2-x,1/2+y,z
1/2+x,1/2-y,z
loop_
_atom_site_type_symbol
_atom_site_label
_atom_site_fract_x
_atom_site_fract_y
_atom_site_fract_z
Si Si1 0.112696 0.167833 0.289353
Si Si2 0.612072 0.670971 0.454531
Si Si3 0.148445 0.323233 0.954488
Si Si4 0.392225 0.836757 0.209109
Si Si5 0.149572 0.176315 0.873875
Si Si6 0.387582 0.167563 0.627863
O O1 0.144782 0.263790 0.250580
O O2 0.140072 0.236318 0.332928
O O3 0.000000 0.166377 0.288878
O O4 0.143825 0.000000 0.285239
O O5 0.639865 0.724678 0.500000
O O6 0.500000 0.672045 0.454093
O O7 0.639829 0.500000 0.450068
O O8 0.642268 0.765338 0.415633
O O9 0.155152 0.500000 0.948020
O O10 0.250000 0.250000 0.956898
O O11 0.104118 0.246661 0.914727
O O12 0.106998 0.299915 0.000000
O O13 0.500000 0.855430 0.216940
O O14 0.387290 0.731007 0.169767
O O15 0.352098 0.000000 0.200361
O O16 0.250000 0.250000 0.873943
O O17 0.150934 0.000000 0.876791
O O18 0.500000 0.166915 0.627613
O O19 0.356409 0.000000 0.632608
#
# Coordination Sequence:
#
# PCOD9489091 Si02
#       6
#    16  16  16  16  16  16
#     4   9  16  26  40  57  77 103 138 178 219 264
#     4   8  13  20  28  38  55  82 117 158 205 255
#     4   9  16  27  45  69  96 124 155 191 230 271
#     4  10  20  34  51  70  94 123 156 195 238 282
#     4  11  21  33  51  74 101 129 159 194 232 276
#     4   9  15  21  30  45  65  90 123 165 211 256
#
# _framework density 22.397328999999999
#
# number of rings (size 3 to 8) (size 9 to 14) (size 15 to 20)
#    0.000    2.667    0.000    5.000    0.000    6.333 
#    0.000    1.667    0.000    0.500    0.000    3.500 
#    0.000    0.000    0.000    0.000    0.000    0.833 
#
# Total GULP energy -267976.985130 kJ/mol
# GULP energy per Si atom -5582.853857 kJ/mol
# Density = 2.234635 g / cm^3
# Si number density = 22.397329 Si / 1000 Ang^3
#
#
#
# Elastic Constant Matrix: (Units=GPa)
#
#
# Indices 1 2 3 4 5 6 
#
# 1 60.0688 11.1758 4.8313 0.0000 0.0000 0.0000
# 2 11.1758 180.9896 103.0494 0.0000 0.0000 0.0000
# 3 4.8313 103.0494 205.0452 0.0000 0.0000 0.0000
# 4 0.0000 0.0000 0.0000 45.4451 0.0000 0.0000
# 5 0.0000 0.0000 0.0000 0.0000 -3.1420 0.0000
# 6 0.0000 0.0000 0.0000 0.0000 0.0000 4.1469
#
#
#
# Elastic Compliance Matrix: (Units=1/GPa)
#
#
# Indices 1 2 3 4 5 6 
#
# 1 0.016846 -0.001141 0.000176 0.000000 0.000000 0.000000
# 2 -0.001141 0.007817 -0.003902 0.000000 0.000000 0.000000
# 3 0.000176 -0.003902 0.006834 0.000000 0.000000 0.000000
# 4 0.000000 0.000000 0.000000 0.022005 0.000000 0.000000
# 5 0.000000 0.000000 0.000000 0.000000 -0.318273 0.000000
# 6 0.000000 0.000000 0.000000 0.000000 0.000000 0.241142
#
#
# Mechanical properties :
#
#
# Convention : Reuss Voigt Hill
#
# Bulk Modulus (GPa) = 45.94664 76.02407 60.98536
# Shear Modulus (GPa) = -752.74246 31.09315 -360.82465
#
# Velocity S-wave (km/s) = -18.35253 3.72997 -12.70635
# Velocity P-wave (km/s) = 20.70093 7.25033 13.71060
#
# Compressibility (1/GPa) = 0.02176437
#
# Stress axis : x y z
#
# Youngs Moduli (GPa) = 59.36267 127.92382 146.33282
#
# Poissons Ratio (x) = 0.14591 -0.02580
# Poissons Ratio (y) = 0.06771 0.57096
# Poissons Ratio (z) = -0.01047 0.49913
#
# Static dielectric constant tensor:
#      x y z
#    x 2.218020 0.000000 0.000000 
#    y 0.000000 1.781960 0.000000 
#    z 0.000000 0.000000 1.838400 
# 
# From -- ./inp_files/75685.got.cif
#   From: 2010.05.17/outbox.cif.g08.bks.cpg/sg65_38_cif.got.tgz:75685.got - 2010.06.03 17:01:31.
