data_PCOD9489780
_publ_section_title
;
Structure prediction by ZEFSAII (Michael W. Deem and Ramdas Pophale) SiO2 
 PCOD9489780
Probable space group: C M M M
;
_chemical_formula_sum "Si O2"
_cell_formula_units_Z 60
_cell_length_a 15.502325
_cell_length_b 17.380811
_cell_length_c 10.660377
_cell_angle_alpha 90.000000
_cell_angle_beta 90.000000
_cell_angle_gamma 90.000000
_cell_volume 2872.363756
_symmetry_space_group_name_H-M "C M M M"
_symmetry_group_IT_number 65
_symmetry_cell_setting 'orthorhombic'
loop_
_space_group_symop_operation_xyz
x,y,z
-x,-y,z
x,-y,-z
-x,y,-z
-x,-y,-z
x,y,-z
-x,y,z
x,-y,z
1/2+x,1/2+y,z
1/2-x,1/2-y,z
1/2+x,1/2-y,-z
1/2-x,1/2+y,-z
1/2-x,1/2-y,-z
1/2+x,1/2+y,-z
1/2-x,1/2+y,z
1/2+x,1/2-y,z
loop_
_atom_site_type_symbol
_atom_site_label
_atom_site_fract_x
_atom_site_fract_y
_atom_site_fract_z
Si Si1 0.299257 0.088566 0.359033
Si Si2 0.500000 0.729070 0.500000
Si Si3 0.396709 0.163561 0.142014
Si Si4 0.636836 0.688324 0.283376
Si Si5 0.000000 0.091199 0.858055
O O1 0.335533 0.099553 0.500000
O O2 0.366679 0.104109 0.248271
O O3 0.222105 0.149269 0.338471
O O4 0.268187 0.000000 0.351821
O O5 0.575699 0.723141 0.390955
O O6 0.500000 0.173630 0.146157
O O7 0.353408 0.244071 0.182050
O O8 0.372715 0.141402 0.000000
O O9 0.582785 0.621607 0.215390
O O10 0.000000 0.000000 0.861352
O O11 0.000000 0.121988 0.000000
#
# Coordination Sequence:
#
# PCOD9489780 Si02
#       5
#    16   4  16  16   8
#     4  11  26  44  64  95 132 170 216 270 325 383
#     4  10  20  34  65 102 127 172 198 256 314 390
#     4  11  25  44  68  94 127 169 219 273 326 385
#     4  11  21  39  65  96 132 166 213 258 318 386
#     4  10  20  34  57  91 132 172 205 249 312 381
#
# _framework density 20.888718999999998
#
# number of rings (size 3 to 8) (size 9 to 14) (size 15 to 20)
#    0.000    1.200    4.000    2.400    1.867    5.867 
#    0.000    4.667    0.000    0.000    0.000    0.000 
#    0.000    0.000    0.000    0.000    0.000    0.000 
#
# Total GULP energy -167101.845378 kJ/mol
# GULP energy per Si atom -5570.061513 kJ/mol
# Density = 2.084117 g / cm^3
# Si number density = 20.888719 Si / 1000 Ang^3
#
#
#
# Elastic Constant Matrix: (Units=GPa)
#
#
# Indices 1 2 3 4 5 6 
#
# 1 58.1429 11.8168 40.1027 0.0000 0.0000 0.0000
# 2 11.8168 55.6383 21.2823 0.0000 0.0000 0.0000
# 3 40.1027 21.2823 181.4958 0.0000 0.0000 0.0000
# 4 0.0000 0.0000 0.0000 23.3235 0.0000 0.0000
# 5 0.0000 0.0000 0.0000 0.0000 25.6814 0.0000
# 6 0.0000 0.0000 0.0000 0.0000 0.0000 31.7807
#
#
#
# Elastic Compliance Matrix: (Units=1/GPa)
#
#
# Indices 1 2 3 4 5 6 
#
# 1 0.020691 -0.002770 -0.004247 0.000000 0.000000 0.000000
# 2 -0.002770 0.019188 -0.001638 0.000000 0.000000 0.000000
# 3 -0.004247 -0.001638 0.006640 0.000000 0.000000 0.000000
# 4 0.000000 0.000000 0.000000 0.042875 0.000000 0.000000
# 5 0.000000 0.000000 0.000000 0.000000 0.038939 0.000000
# 6 0.000000 0.000000 0.000000 0.000000 0.000000 0.031466
#
#
# Mechanical properties :
#
#
# Convention : Reuss Voigt Hill
#
# Bulk Modulus (GPa) = 34.23533 49.07563 41.65548
# Shear Modulus (GPa) = 26.76004 30.96213 28.86108
#
# Velocity S-wave (km/s) = 3.58310 3.85417 3.72110
# Velocity P-wave (km/s) = 5.79164 6.58415 6.20057
#
# Compressibility (1/GPa) = 0.02920959
#
# Stress axis : x y z
#
# Youngs Moduli (GPa) = 48.32949 52.11571 150.59655
#
# Poissons Ratio (x) = 0.14436 0.63959
# Poissons Ratio (y) = 0.13387 0.24667
# Poissons Ratio (z) = 0.20526 0.08536
#
# Static dielectric constant tensor:
#      x y z
#    x 1.738530 0.000000 0.000000 
#    y 0.000000 1.753910 0.000000 
#    z 0.000000 0.000000 1.762000 
# 
# From -- ./inp_files/8806.got.cif
#   From: 2010.05.17/outbox.cif.g08.bks.cpg/sg65_5_cif.got.tgz:8806.got - 2010.06.03 17:01:31.
