data_PCOD9489356
_publ_section_title
;
Structure prediction by ZEFSAII (Michael W. Deem and Ramdas Pophale) SiO2 
 PCOD9489356
Probable space group: C M M M
;
_chemical_formula_sum "Si O2"
_cell_formula_units_Z 80
_cell_length_a 19.158898
_cell_length_b 8.191456
_cell_length_c 28.276972
_cell_angle_alpha 90.000000
_cell_angle_beta 90.000000
_cell_angle_gamma 90.000000
_cell_volume 4437.767343
_symmetry_space_group_name_H-M "C M M M"
_symmetry_group_IT_number 65
_symmetry_cell_setting 'orthorhombic'
loop_
_space_group_symop_operation_xyz
x,y,z
-x,-y,z
x,-y,-z
-x,y,-z
-x,-y,-z
x,y,-z
-x,y,z
x,-y,z
1/2+x,1/2+y,z
1/2-x,1/2-y,z
1/2+x,1/2-y,-z
1/2-x,1/2+y,-z
1/2-x,1/2-y,-z
1/2+x,1/2+y,-z
1/2-x,1/2+y,z
1/2+x,1/2-y,z
loop_
_atom_site_type_symbol
_atom_site_label
_atom_site_fract_x
_atom_site_fract_y
_atom_site_fract_z
Si Si1 0.919746 0.305919 0.000000
Si Si2 0.415177 0.000000 0.554210
Si Si3 0.416012 0.685960 0.383574
Si Si4 0.920634 0.805938 0.100063
Si Si5 0.329354 0.805380 0.187838
Si Si6 0.169576 0.697112 0.294559
O O1 0.888645 0.250558 0.049939
O O2 0.922170 0.500000 0.000000
O O3 0.000000 0.239952 0.000000
O O4 0.394371 0.833735 0.581435
O O5 0.500000 0.000000 0.553638
O O6 0.391012 0.000000 0.500000
O O7 0.500000 0.695964 0.378266
O O8 0.399665 0.500000 0.399519
O O9 0.378646 0.721254 0.333882
O O10 0.877644 0.755932 0.145834
O O11 0.000000 0.738655 0.103141
O O12 0.924295 0.000000 0.098617
O O13 0.250000 0.750000 0.180072
O O14 0.350132 0.751916 0.240960
O O15 0.331004 0.000000 0.187828
O O16 0.164498 0.500000 0.298276
O O17 0.250000 0.750000 0.301665
#
# Coordination Sequence:
#
# PCOD9489356 Si02
#       6
#     8   8  16  16  16  16
#     4   9  17  31  52  75 100 131 172 215 259 319
#     4   9  18  34  56  82 114 148 183 226 274 322
#     4  10  20  34  55  84 114 145 185 229 272 321
#     4  10  20  34  53  77 105 137 173 216 265 315
#     4  10  21  36  54  76 106 140 177 219 265 319
#     4  10  20  35  55  79 107 144 184 223 271 327
#
# _framework density 18.027082
#
# number of rings (size 3 to 8) (size 9 to 14) (size 15 to 20)
#    0.000    2.200    1.000    2.100    0.000    6.000 
#    0.000    6.500    0.000    0.600    0.000    0.000 
#    0.000    0.000    0.000    0.000    0.000    0.000 
#
# Total GULP energy -223059.270210 kJ/mol
# GULP energy per Si atom -5576.481755 kJ/mol
# Density = 1.798605 g / cm^3
# Si number density = 18.027082 Si / 1000 Ang^3
#
#
#
# Elastic Constant Matrix: (Units=GPa)
#
#
# Indices 1 2 3 4 5 6 
#
# 1 28.7985 27.4701 55.0628 0.0000 0.0000 0.0000
# 2 27.4701 105.5819 70.7397 0.0000 0.0000 0.0000
# 3 55.0628 70.7397 172.6040 0.0000 0.0000 0.0000
# 4 0.0000 0.0000 0.0000 19.0793 0.0000 0.0000
# 5 0.0000 0.0000 0.0000 0.0000 -64.3391 0.0000
# 6 0.0000 0.0000 0.0000 0.0000 0.0000 25.1695
#
#
#
# Elastic Compliance Matrix: (Units=1/GPa)
#
#
# Indices 1 2 3 4 5 6 
#
# 1 0.091584 -0.005863 -0.026814 0.000000 0.000000 0.000000
# 2 -0.005863 0.013432 -0.003634 0.000000 0.000000 0.000000
# 3 -0.026814 -0.003634 0.015837 0.000000 0.000000 0.000000
# 4 0.000000 0.000000 0.000000 0.052413 0.000000 0.000000
# 5 0.000000 0.000000 0.000000 0.000000 -0.015543 0.000000
# 6 0.000000 0.000000 0.000000 0.000000 0.000000 0.039731
#
#
# Mechanical properties :
#
#
# Convention : Reuss Voigt Hill
#
# Bulk Modulus (GPa) = 20.73366 68.16996 44.45181
# Shear Modulus (GPa) = 17.47314 6.22939 11.85126
#
# Velocity S-wave (km/s) = 3.11669 1.86093 2.56679
# Velocity P-wave (km/s) = 4.94753 6.52034 5.78761
#
# Compressibility (1/GPa) = 0.04823075
#
# Stress axis : x y z
#
# Youngs Moduli (GPa) = 10.91890 74.44977 63.14321
#
# Poissons Ratio (x) = 0.43651 1.69310
# Poissons Ratio (y) = 0.06402 0.22949
# Poissons Ratio (z) = 0.29277 0.27059
#
# Static dielectric constant tensor:
#      x y z
#    x 1.589610 0.000000 0.000000 
#    y 0.000000 1.628090 0.000000 
#    z 0.000000 0.000000 1.622630 
# 
# From -- ./inp_files/72901.got.cif
#   From: 2010.05.17/outbox.cif.g08.bks.cpg/sg65_37_cif.got.tgz:72901.got - 2010.06.03 17:01:31.
