data_PCOD9489551
_publ_section_title
;
Structure prediction by ZEFSAII (Michael W. Deem and Ramdas Pophale) SiO2 
 PCOD9489551
Probable space group: C M M M
;
_chemical_formula_sum "Si O2"
_cell_formula_units_Z 72
_cell_length_a 9.181095
_cell_length_b 18.636082
_cell_length_c 23.811171
_cell_angle_alpha 90.000000
_cell_angle_beta 90.000000
_cell_angle_gamma 90.000000
_cell_volume 4074.082769
_symmetry_space_group_name_H-M "C M M M"
_symmetry_group_IT_number 65
_symmetry_cell_setting 'orthorhombic'
loop_
_space_group_symop_operation_xyz
x,y,z
-x,-y,z
x,-y,-z
-x,y,-z
-x,-y,-z
x,y,-z
-x,y,z
x,-y,z
1/2+x,1/2+y,z
1/2-x,1/2-y,z
1/2+x,1/2-y,-z
1/2-x,1/2+y,-z
1/2-x,1/2-y,-z
1/2+x,1/2+y,-z
1/2-x,1/2+y,z
1/2+x,1/2-y,z
loop_
_atom_site_type_symbol
_atom_site_label
_atom_site_fract_x
_atom_site_fract_y
_atom_site_fract_z
Si Si1 0.673912 0.415155 0.888765
Si Si2 0.324544 0.326948 0.000000
Si Si3 0.673288 0.172885 0.564618
Si Si4 0.830411 0.086526 0.661246
Si Si5 0.167679 0.587372 0.225290
O O1 0.500000 0.407930 0.879800
O O2 0.703006 0.500000 0.897583
O O3 0.757820 0.390556 0.833024
O O4 0.715262 0.371246 0.944108
O O5 0.250000 0.250000 0.000000
O O6 0.500000 0.319490 0.000000
O O7 0.697445 0.149169 0.500000
O O8 0.500000 0.179375 0.573299
O O9 0.750000 0.250000 0.570992
O O10 0.743624 0.119775 0.609423
O O11 0.757602 0.110157 0.719940
O O12 0.000000 0.107292 0.659314
O O13 0.822659 0.000000 0.658961
O O14 0.169521 0.500000 0.225264
O O15 0.000000 0.610507 0.228638
#
# Coordination Sequence:
#
# PCOD9489551 Si02
#       5
#    16   8  16  16  16
#     4   9  17  32  54  76  98 129 171 211 248 298
#     4  10  21  35  51  73 103 136 166 204 254 302
#     4  10  21  37  56  77 104 139 177 217 261 310
#     4  10  20  34  54  80 109 140 174 214 260 309
#     4   9  17  30  50  77 106 133 165 210 261 307
#
# _framework density 17.672689999999999
#
# number of rings (size 3 to 8) (size 9 to 14) (size 15 to 20)
#    0.000    2.444    0.000    2.333    0.000    8.000 
#    0.000    3.333    0.000    6.000    0.000    0.000 
#    0.000    0.000    0.000    0.000    0.000    0.000 
#
# Total GULP energy -200865.816876 kJ/mol
# GULP energy per Si atom -5579.606024 kJ/mol
# Density = 1.763247 g / cm^3
# Si number density = 17.672690 Si / 1000 Ang^3
#
#
#
# Elastic Constant Matrix: (Units=GPa)
#
#
# Indices 1 2 3 4 5 6 
#
# 1 118.7871 44.0779 105.8689 0.0000 0.0000 0.0000
# 2 44.0779 36.2449 57.4475 0.0000 0.0000 0.0000
# 3 105.8689 57.4475 181.4975 0.0000 0.0000 0.0000
# 4 0.0000 0.0000 0.0000 -20.0525 0.0000 0.0000
# 5 0.0000 0.0000 0.0000 0.0000 33.9374 0.0000
# 6 0.0000 0.0000 0.0000 0.0000 0.0000 27.7664
#
#
#
# Elastic Compliance Matrix: (Units=1/GPa)
#
#
# Indices 1 2 3 4 5 6 
#
# 1 0.019666 -0.011507 -0.007829 0.000000 0.000000 0.000000
# 2 -0.011507 0.062099 -0.012943 0.000000 0.000000 0.000000
# 3 -0.007829 -0.012943 0.014173 0.000000 0.000000 0.000000
# 4 0.000000 0.000000 0.000000 -0.049869 0.000000 0.000000
# 5 0.000000 0.000000 0.000000 0.000000 0.029466 0.000000
# 6 0.000000 0.000000 0.000000 0.000000 0.000000 0.036015
#
#
# Mechanical properties :
#
#
# Convention : Reuss Voigt Hill
#
# Bulk Modulus (GPa) = 31.86821 83.47978 57.67399
# Shear Modulus (GPa) = 26.79972 16.93928 21.86950
#
# Velocity S-wave (km/s) = 3.89838 3.09932 3.52159
# Velocity P-wave (km/s) = 6.19151 7.75544 7.01718
#
# Compressibility (1/GPa) = 0.03137924
#
# Stress axis : x y z
#
# Youngs Moduli (GPa) = 50.84909 16.10328 70.55507
#
# Poissons Ratio (x) = 0.18530 0.55238
# Poissons Ratio (y) = 0.58513 0.91322
# Poissons Ratio (z) = 0.39810 0.20843
#
# Static dielectric constant tensor:
#      x y z
#    x 1.591980 0.000000 0.000000 
#    y 0.000000 1.580960 0.000000 
#    z 0.000000 0.000000 1.584510 
# 
# From -- ./inp_files/59244.got.cif
#   From: 2010.05.17/outbox.cif.g08.bks.cpg/sg65_30_cif.got.tgz:59244.got - 2010.06.03 17:01:31.
