data_PCOD9489436
_publ_section_title
;
Structure prediction by ZEFSAII (Michael W. Deem and Ramdas Pophale) SiO2 
 PCOD9489436
Probable space group: C M M M
;
_chemical_formula_sum "Si O2"
_cell_formula_units_Z 96
_cell_length_a 16.157676
_cell_length_b 18.145028
_cell_length_c 14.184173
_cell_angle_alpha 90.000000
_cell_angle_beta 90.000000
_cell_angle_gamma 90.000000
_cell_volume 4158.536881
_symmetry_space_group_name_H-M "C M M M"
_symmetry_group_IT_number 65
_symmetry_cell_setting 'orthorhombic'
loop_
_space_group_symop_operation_xyz
x,y,z
-x,-y,z
x,-y,-z
-x,y,-z
-x,-y,-z
x,y,-z
-x,y,z
x,-y,z
1/2+x,1/2+y,z
1/2-x,1/2-y,z
1/2+x,1/2-y,-z
1/2-x,1/2+y,-z
1/2-x,1/2-y,-z
1/2+x,1/2+y,-z
1/2-x,1/2+y,z
1/2+x,1/2-y,z
loop_
_atom_site_type_symbol
_atom_site_label
_atom_site_fract_x
_atom_site_fract_y
_atom_site_fract_z
Si Si1 0.088055 0.915169 0.189802
Si Si2 0.328098 0.917163 0.390548
Si Si3 0.405634 0.799084 0.105521
Si Si4 0.347867 0.763994 0.701007
Si Si5 0.260183 0.083404 0.889614
Si Si6 0.868396 0.883566 0.395354
O O1 0.178092 0.886485 0.159937
O O2 0.088882 0.915647 0.303244
O O3 0.000000 0.883560 0.155477
O O4 0.089913 0.000000 0.155903
O O5 0.353326 0.910916 0.500000
O O6 0.361889 0.847519 0.333327
O O7 0.228084 0.907728 0.389410
O O8 0.348862 0.000000 0.357780
O O9 0.500000 0.826037 0.104625
O O10 0.393706 0.751750 0.199962
O O11 0.338676 0.863840 0.119400
O O12 0.389807 0.766344 0.000000
O O13 0.250000 0.750000 0.714914
O O14 0.373425 0.704420 0.622743
O O15 0.277554 0.000000 0.855813
O O16 0.241036 0.079969 0.000000
O O17 0.897941 0.902770 0.500000
#
# Coordination Sequence:
#
# PCOD9489436 Si02
#       6
#    16  16  16  16  16  16
#     4  10  21  36  56  86 122 158 199 245 290 341
#     4   9  17  31  55  86 117 152 195 241 290 344
#     4  10  22  39  58  83 115 149 190 243 299 355
#     4  10  20  35  57  84 115 152 196 244 293 348
#     4   9  18  35  60  87 116 153 195 239 291 350
#     4  10  20  34  53  80 116 155 194 238 290 349
#
# _framework density 23.085042000000001
#
# number of rings (size 3 to 8) (size 9 to 14) (size 15 to 20)
#    0.000    2.333    0.000    3.000    0.000    7.000 
#    0.000    5.000    0.000    1.500    0.000    1.167 
#    0.000    0.000    0.000    3.833    0.000    0.000 
#
# Total GULP energy -268044.072437 kJ/mol
# GULP energy per Si atom -5584.251509 kJ/mol
# Density = 2.303250 g / cm^3
# Si number density = 23.085042 Si / 1000 Ang^3
#
#
#
# Elastic Constant Matrix: (Units=GPa)
#
#
# Indices 1 2 3 4 5 6 
#
# 1 88.9510 12.2385 25.5777 0.0000 0.0000 0.0000
# 2 12.2385 124.8120 15.0758 0.0000 0.0000 0.0000
# 3 25.5777 15.0758 101.6481 0.0000 0.0000 0.0000
# 4 0.0000 0.0000 0.0000 17.7918 0.0000 0.0000
# 5 0.0000 0.0000 0.0000 0.0000 11.3298 0.0000
# 6 0.0000 0.0000 0.0000 0.0000 0.0000 14.6172
#
#
#
# Elastic Compliance Matrix: (Units=1/GPa)
#
#
# Indices 1 2 3 4 5 6 
#
# 1 0.012205 -0.000841 -0.002946 0.000000 0.000000 0.000000
# 2 -0.000841 0.008216 -0.001007 0.000000 0.000000 0.000000
# 3 -0.002946 -0.001007 0.010729 0.000000 0.000000 0.000000
# 4 0.000000 0.000000 0.000000 0.056206 0.000000 0.000000
# 5 0.000000 0.000000 0.000000 0.000000 0.088263 0.000000
# 6 0.000000 0.000000 0.000000 0.000000 0.000000 0.068413
#
#
# Mechanical properties :
#
#
# Convention : Reuss Voigt Hill
#
# Bulk Modulus (GPa) = 46.37953 46.79945 46.58949
# Shear Modulus (GPa) = 19.17128 26.24902 22.71015
#
# Velocity S-wave (km/s) = 2.88490 3.37569 3.13990
# Velocity P-wave (km/s) = 5.58849 5.95905 5.77674
#
# Compressibility (1/GPa) = 0.02156124
#
# Stress axis : x y z
#
# Youngs Moduli (GPa) = 81.93304 121.71178 93.20857
#
# Poissons Ratio (x) = 0.10235 0.27463
# Poissons Ratio (y) = 0.06890 0.09386
# Poissons Ratio (z) = 0.24141 0.12256
#
# Static dielectric constant tensor:
#      x y z
#    x 1.842080 0.000000 0.000000 
#    y 0.000000 1.920470 0.000000 
#    z 0.000000 0.000000 1.876330 
# 
# From -- ./inp_files/40321.got.cif
#   From: 2010.05.17/outbox.cif.g08.bks.cpg/sg65_21_cif.got.tgz:40321.got - 2010.06.03 17:01:31.
