data_PCOD9489608
_publ_section_title
;
Structure prediction by ZEFSAII (Michael W. Deem and Ramdas Pophale) SiO2 
 PCOD9489608
Probable space group: C M M M
;
_chemical_formula_sum "Si O2"
_cell_formula_units_Z 96
_cell_length_a 19.950204
_cell_length_b 29.070312
_cell_length_c 8.977076
_cell_angle_alpha 90.000000
_cell_angle_beta 90.000000
_cell_angle_gamma 90.000000
_cell_volume 5206.332920
_symmetry_space_group_name_H-M "C M M M"
_symmetry_group_IT_number 65
_symmetry_cell_setting 'orthorhombic'
loop_
_space_group_symop_operation_xyz
x,y,z
-x,-y,z
x,-y,-z
-x,y,-z
-x,-y,-z
x,y,-z
-x,y,z
x,-y,z
1/2+x,1/2+y,z
1/2-x,1/2-y,z
1/2+x,1/2-y,-z
1/2-x,1/2+y,-z
1/2-x,1/2-y,-z
1/2+x,1/2+y,-z
1/2-x,1/2+y,z
1/2+x,1/2-y,z
loop_
_atom_site_type_symbol
_atom_site_label
_atom_site_fract_x
_atom_site_fract_y
_atom_site_fract_z
Si Si1 0.288829 0.701519 0.823209
Si Si2 0.577479 0.831931 0.826672
Si Si3 0.709637 0.444731 0.170327
Si Si4 0.923351 0.231744 0.678306
Si Si5 0.698157 0.123033 0.676238
Si Si6 0.425533 0.443958 0.327180
O O1 0.250000 0.750000 0.799774
O O2 0.363729 0.704648 0.758081
O O3 0.246890 0.662818 0.738726
O O4 0.290327 0.692848 0.000000
O O5 0.500000 0.846348 0.819897
O O6 0.583374 0.784163 0.736828
O O7 0.627468 0.868336 0.755648
O O8 0.595136 0.823281 0.000000
O O9 0.710178 0.500000 0.175588
O O10 0.766567 0.423846 0.274017
O O11 0.636752 0.428729 0.228522
O O12 0.719974 0.430019 0.000000
O O13 0.914956 0.230282 0.500000
O O14 0.000000 0.216832 0.713075
O O15 0.691542 0.126419 0.500000
O O16 0.415772 0.430417 0.500000
O O17 0.500000 0.428819 0.279457
O O18 0.425964 0.500000 0.324352
#
# Coordination Sequence:
#
# PCOD9489608 Si02
#       6
#    16  16  16  16  16  16
#     4  11  22  36  56  81 112 149 185 227 274 326
#     4  10  20  35  56  82 112 145 183 226 271 326
#     4  10  21  37  57  81 111 146 186 233 282 334
#     4  10  20  34  54  81 113 149 188 229 275 328
#     4  12  24  37  58  84 113 147 185 232 279 330
#     4   8  14  27  49  76 105 137 175 220 269 321
#
# _framework density 18.439081999999999
#
# number of rings (size 3 to 8) (size 9 to 14) (size 15 to 20)
#    0.000    1.833    1.667    4.000    0.000    4.000 
#    0.000    2.500    0.000    5.500    0.000    3.500 
#    0.000    0.000    0.000    0.000    0.000    0.000 
#
# Total GULP energy -268101.820382 kJ/mol
# GULP energy per Si atom -5585.454591 kJ/mol
# Density = 1.839711 g / cm^3
# Si number density = 18.439082 Si / 1000 Ang^3
#
#
#
# Elastic Constant Matrix: (Units=GPa)
#
#
# Indices 1 2 3 4 5 6 
#
# 1 96.5324 13.0856 41.9652 0.0000 0.0000 0.0000
# 2 13.0856 21.2636 12.0934 0.0000 0.0000 0.0000
# 3 41.9652 12.0934 87.9132 0.0000 0.0000 0.0000
# 4 0.0000 0.0000 0.0000 23.1008 0.0000 0.0000
# 5 0.0000 0.0000 0.0000 0.0000 36.5825 0.0000
# 6 0.0000 0.0000 0.0000 0.0000 0.0000 22.8053
#
#
#
# Elastic Compliance Matrix: (Units=1/GPa)
#
#
# Indices 1 2 3 4 5 6 
#
# 1 0.013555 -0.005058 -0.005775 0.000000 0.000000 0.000000
# 2 -0.005058 0.052907 -0.004864 0.000000 0.000000 0.000000
# 3 -0.005775 -0.004864 0.014801 0.000000 0.000000 0.000000
# 4 0.000000 0.000000 0.000000 0.043289 0.000000 0.000000
# 5 0.000000 0.000000 0.000000 0.000000 0.027335 0.000000
# 6 0.000000 0.000000 0.000000 0.000000 0.000000 0.043849
#
#
# Mechanical properties :
#
#
# Convention : Reuss Voigt Hill
#
# Bulk Modulus (GPa) = 20.05177 37.77752 28.91464
# Shear Modulus (GPa) = 20.51258 25.73538 23.12398
#
# Velocity S-wave (km/s) = 3.33896 3.73996 3.54513
# Velocity P-wave (km/s) = 5.07574 6.25955 5.69847
#
# Compressibility (1/GPa) = 0.04987091
#
# Stress axis : x y z
#
# Youngs Moduli (GPa) = 73.77193 18.90092 67.56507
#
# Poissons Ratio (x) = 0.09559 0.39018
# Poissons Ratio (y) = 0.37310 0.32862
# Poissons Ratio (z) = 0.42602 0.09193
#
# Static dielectric constant tensor:
#      x y z
#    x 1.641490 0.000000 0.000000 
#    y 0.000000 1.649820 0.000000 
#    z 0.000000 0.000000 1.615480 
# 
# From -- ./inp_files/12317.got.cif
#   From: 2010.05.17/outbox.cif.g08.bks.cpg/sg65_7_cif.got.tgz:12317.got - 2010.06.03 17:01:31.
