data_PCOD9489090
_publ_section_title
;
Structure prediction by ZEFSAII (Michael W. Deem and Ramdas Pophale) SiO2 
 PCOD9489090
Probable space group: C M M M
;
_chemical_formula_sum "Si O2"
_cell_formula_units_Z 88
_cell_length_a 31.412150
_cell_length_b 7.552262
_cell_length_c 18.443104
_cell_angle_alpha 90.000000
_cell_angle_beta 90.000000
_cell_angle_gamma 90.000000
_cell_volume 4375.308959
_symmetry_space_group_name_H-M "C M M M"
_symmetry_group_IT_number 65
_symmetry_cell_setting 'orthorhombic'
loop_
_space_group_symop_operation_xyz
x,y,z
-x,-y,z
x,-y,-z
-x,y,-z
-x,-y,-z
x,y,-z
-x,y,z
x,-y,z
1/2+x,1/2+y,z
1/2-x,1/2-y,z
1/2+x,1/2-y,-z
1/2-x,1/2+y,-z
1/2-x,1/2-y,-z
1/2+x,1/2+y,-z
1/2-x,1/2+y,z
1/2+x,1/2-y,z
loop_
_atom_site_type_symbol
_atom_site_label
_atom_site_fract_x
_atom_site_fract_y
_atom_site_fract_z
Si Si1 0.680004 0.707012 0.079064
Si Si2 0.409192 0.784412 0.860961
Si Si3 0.048189 0.716266 0.416567
Si Si4 0.702504 0.709292 0.238797
Si Si5 0.500000 0.215824 0.916945
Si Si6 0.614931 0.209238 0.701569
O O1 0.692104 0.500000 0.077898
O O2 0.628929 0.721153 0.087820
O O3 0.696549 0.784095 0.156120
O O4 0.692599 0.782660 0.000000
O O5 0.456026 0.725403 0.882201
O O6 0.399634 0.721000 0.779758
O O7 0.407783 0.000000 0.862880
O O8 0.054280 0.772264 0.500000
O O9 0.048687 0.500000 0.416985
O O10 0.085831 0.779333 0.363639
O O11 0.000000 0.767453 0.393483
O O12 0.697100 0.500000 0.232418
O O13 0.750000 0.750000 0.263263
O O14 0.665834 0.769651 0.294104
O O15 0.500000 0.000000 0.913376
O O16 0.500000 0.267976 0.000000
O O17 0.606570 0.000000 0.702491
#
# Coordination Sequence:
#
# PCOD9489090 Si02
#       6
#    16  16  16  16   8  16
#     4   9  18  32  47  63  87 118 151 192 242 290
#     4   9  17  27  41  62  87 119 158 197 234 273
#     4   8  14  25  45  76 109 135 159 191 231 275
#     4  10  20  34  51  70  94 122 157 199 244 290
#     4   9  16  24  35  55  84 116 152 195 235 265
#     4   9  17  29  48  72  97 126 160 195 234 280
#
# _framework density 20.112867000000001
#
# number of rings (size 3 to 8) (size 9 to 14) (size 15 to 20)
#    0.000    3.000    0.000    1.636    1.273    2.182 
#    0.000    0.455    0.000    3.273    0.000    1.273 
#    0.000    0.000    0.000    0.000    0.000    0.000 
#
# Total GULP energy -245251.549947 kJ/mol
# GULP energy per Si atom -5573.898862 kJ/mol
# Density = 2.006709 g / cm^3
# Si number density = 20.112867 Si / 1000 Ang^3
#
#
#
# Elastic Constant Matrix: (Units=GPa)
#
#
# Indices 1 2 3 4 5 6 
#
# 1 140.6140 -14.7943 65.1788 0.0000 0.0000 0.0000
# 2 -14.7943 47.6059 3.2701 0.0000 0.0000 0.0000
# 3 65.1788 3.2701 99.1928 0.0000 0.0000 0.0000
# 4 0.0000 0.0000 0.0000 4.6433 0.0000 0.0000
# 5 0.0000 0.0000 0.0000 0.0000 10.1523 0.0000
# 6 0.0000 0.0000 0.0000 0.0000 0.0000 12.9777
#
#
#
# Elastic Compliance Matrix: (Units=1/GPa)
#
#
# Indices 1 2 3 4 5 6 
#
# 1 0.010900 0.003888 -0.007291 0.000000 0.000000 0.000000
# 2 0.003888 0.022440 -0.003295 0.000000 0.000000 0.000000
# 3 -0.007291 -0.003295 0.014981 0.000000 0.000000 0.000000
# 4 0.000000 0.000000 0.000000 0.215366 0.000000 0.000000
# 5 0.000000 0.000000 0.000000 0.000000 0.098500 0.000000
# 6 0.000000 0.000000 0.000000 0.000000 0.000000 0.077055
#
#
# Mechanical properties :
#
#
# Convention : Reuss Voigt Hill
#
# Bulk Modulus (GPa) = 28.63114 43.85798 36.24456
# Shear Modulus (GPa) = 10.76939 21.13852 15.95395
#
# Velocity S-wave (km/s) = 2.31648 3.24542 2.81947
# Velocity P-wave (km/s) = 4.62828 5.99141 5.35341
#
# Compressibility (1/GPa) = 0.03492701
#
# Stress axis : x y z
#
# Youngs Moduli (GPa) = 91.74176 44.56239 66.75305
#
# Poissons Ratio (x) = -0.17327 0.48667
# Poissons Ratio (y) = -0.35671 0.21993
# Poissons Ratio (z) = 0.66885 0.14682
#
# Static dielectric constant tensor:
#      x y z
#    x 1.778750 0.000000 0.000000 
#    y 0.000000 1.774020 0.000000 
#    z 0.000000 0.000000 1.708610 
# 
# From -- ./inp_files/50385.got.cif
#   From: 2010.05.17/outbox.cif.g08.bks.cpg/sg65_26_cif.got.tgz:50385.got - 2010.06.03 17:01:31.
