data_PCOD9489775
_publ_section_title
;
Structure prediction by ZEFSAII (Michael W. Deem and Ramdas Pophale) SiO2 
 PCOD9489775
Probable space group: C M M M
;
_chemical_formula_sum "Si O2"
_cell_formula_units_Z 74
_cell_length_a 14.528569
_cell_length_b 31.030327
_cell_length_c 7.660336
_cell_angle_alpha 90.000000
_cell_angle_beta 90.000000
_cell_angle_gamma 90.000000
_cell_volume 3453.480529
_symmetry_space_group_name_H-M "C M M M"
_symmetry_group_IT_number 65
_symmetry_cell_setting 'orthorhombic'
loop_
_space_group_symop_operation_xyz
x,y,z
-x,-y,z
x,-y,-z
-x,y,-z
-x,-y,-z
x,y,-z
-x,y,z
x,-y,z
1/2+x,1/2+y,z
1/2-x,1/2-y,z
1/2+x,1/2-y,-z
1/2-x,1/2+y,-z
1/2-x,1/2-y,-z
1/2+x,1/2+y,-z
1/2-x,1/2+y,z
1/2+x,1/2-y,z
loop_
_atom_site_type_symbol
_atom_site_label
_atom_site_fract_x
_atom_site_fract_y
_atom_site_fract_z
Si Si1 0.000000 0.074315 0.692582
Si Si2 0.823836 0.125120 0.800943
Si Si3 0.794812 0.294482 0.790219
Si Si4 0.500000 0.176528 0.707188
Si Si5 0.698404 0.952731 0.288274
Si Si6 0.000000 0.000000 0.000000
Si Si7 0.500000 0.922130 0.712274
O O1 0.912540 0.105965 0.708104
O O2 0.000000 0.054009 0.500000
O O3 0.000000 0.038496 0.845404
O O4 0.767004 0.165430 0.724855
O O5 0.753886 0.085295 0.797761
O O6 0.850501 0.135716 0.000000
O O7 0.750000 0.250000 0.726157
O O8 0.903389 0.300843 0.754125
O O9 0.787088 0.295020 0.000000
O O10 0.500000 0.173071 0.500000
O O11 0.500000 0.127267 0.777218
O O12 0.705356 0.948930 0.500000
O O13 0.592327 0.946590 0.238209
O O14 0.733032 0.000000 0.238723
O O15 0.500000 0.920683 0.500000
#
# Coordination Sequence:
#
# PCOD9489775 Si02
#       7
#     8  16  16   8  16   2   8
#     4  12  27  46  72 100 140 185 229 297 359 414
#     4  11  23  42  63  91 130 171 224 288 343 411
#     4  10  23  43  68  94 128 178 228 278 346 418
#     4  11  21  37  64  96 129 163 208 274 333 396
#     4  10  20  34  57  87 122 167 215 259 320 392
#     4  12  26  52  72 106 136 178 250 288 340 438
#     4   9  17  33  55  84 123 161 200 253 309 380
#
# _framework density 21.427657
#
# number of rings (size 3 to 8) (size 9 to 14) (size 15 to 20)
#    0.000    1.514    3.243    1.459    1.514    3.892 
#    0.000    4.865    0.000    1.297    0.000    0.000 
#    0.000    0.000    0.000    0.000    0.000    0.000 
#
# Total GULP energy -206434.422927 kJ/mol
# GULP energy per Si atom -5579.308728 kJ/mol
# Density = 2.137889 g / cm^3
# Si number density = 21.427657 Si / 1000 Ang^3
#
#
#
# Elastic Constant Matrix: (Units=GPa)
#
#
# Indices 1 2 3 4 5 6 
#
# 1 122.9721 66.6930 18.3902 0.0000 0.0000 0.0000
# 2 66.6930 174.3753 25.2748 0.0000 0.0000 0.0000
# 3 18.3902 25.2748 89.1270 0.0000 0.0000 0.0000
# 4 0.0000 0.0000 0.0000 9.3414 0.0000 0.0000
# 5 0.0000 0.0000 0.0000 0.0000 25.8225 0.0000
# 6 0.0000 0.0000 0.0000 0.0000 0.0000 24.7948
#
#
#
# Elastic Compliance Matrix: (Units=1/GPa)
#
#
# Indices 1 2 3 4 5 6 
#
# 1 0.010355 -0.003807 -0.001057 0.000000 0.000000 0.000000
# 2 -0.003807 0.007380 -0.001307 0.000000 0.000000 0.000000
# 3 -0.001057 -0.001307 0.011809 0.000000 0.000000 0.000000
# 4 0.000000 0.000000 0.000000 0.107050 0.000000 0.000000
# 5 0.000000 0.000000 0.000000 0.000000 0.038726 0.000000
# 6 0.000000 0.000000 0.000000 0.000000 0.000000 0.040331
#
#
# Mechanical properties :
#
#
# Convention : Reuss Voigt Hill
#
# Bulk Modulus (GPa) = 58.13626 67.46560 62.80093
# Shear Modulus (GPa) = 21.39241 30.39950 25.89596
#
# Velocity S-wave (km/s) = 3.16310 3.77065 3.48016
# Velocity P-wave (km/s) = 6.36637 7.10709 6.74690
#
# Compressibility (1/GPa) = 0.01720097
#
# Stress axis : x y z
#
# Youngs Moduli (GPa) = 96.57376 135.49444 84.68276
#
# Poissons Ratio (x) = 0.51585 0.08950
# Poissons Ratio (y) = 0.36767 0.11071
# Poissons Ratio (z) = 0.10207 0.17714
#
# Static dielectric constant tensor:
#      x y z
#    x 1.608560 0.000000 0.000000 
#    y 0.000000 1.753090 0.000000 
#    z 0.000000 0.000000 1.820590 
# 
# From -- ./inp_files/7476.got.cif
#   From: 2010.05.17/outbox.cif.g08.bks.cpg/sg65_4_cif.got.tgz:7476.got - 2010.06.03 17:01:31.
