data_PCOD9489740
_publ_section_title
;
Structure prediction by ZEFSAII (Michael W. Deem and Ramdas Pophale) SiO2 
 PCOD9489740
Probable space group: C M M M
;
_chemical_formula_sum "Si O2"
_cell_formula_units_Z 88
_cell_length_a 14.358958
_cell_length_b 19.575974
_cell_length_c 13.015807
_cell_angle_alpha 90.000000
_cell_angle_beta 90.000000
_cell_angle_gamma 90.000000
_cell_volume 3658.620849
_symmetry_space_group_name_H-M "C M M M"
_symmetry_group_IT_number 65
_symmetry_cell_setting 'orthorhombic'
loop_
_space_group_symop_operation_xyz
x,y,z
-x,-y,z
x,-y,-z
-x,y,-z
-x,-y,-z
x,y,-z
-x,y,z
x,-y,z
1/2+x,1/2+y,z
1/2-x,1/2-y,z
1/2+x,1/2-y,-z
1/2-x,1/2+y,-z
1/2-x,1/2-y,-z
1/2+x,1/2+y,-z
1/2-x,1/2+y,z
1/2+x,1/2-y,z
loop_
_atom_site_type_symbol
_atom_site_label
_atom_site_fract_x
_atom_site_fract_y
_atom_site_fract_z
Si Si1 0.109194 0.427194 0.123416
Si Si2 0.893248 0.081738 0.194998
Si Si3 0.349440 0.787606 0.387727
Si Si4 0.834683 0.163955 0.000000
Si Si5 0.606287 0.777428 0.838206
Si Si6 0.761065 0.919510 0.615675
O O1 0.150144 0.500000 0.159599
O O2 0.148822 0.353398 0.150422
O O3 0.000000 0.426682 0.155577
O O4 0.110814 0.428505 0.000000
O O5 0.845861 0.106257 0.090811
O O6 0.834316 0.099940 0.296295
O O7 0.000000 0.109121 0.196478
O O8 0.898734 0.000000 0.195180
O O9 0.392867 0.775742 0.500000
O O10 0.250000 0.750000 0.389508
O O11 0.395040 0.763012 0.282733
O O12 0.326800 0.868667 0.377803
O O13 0.843741 0.223490 0.090304
O O14 0.500000 0.780234 0.876548
O O15 0.800040 0.909180 0.500000
O O16 0.738169 0.000000 0.624387
#
# Coordination Sequence:
#
# PCOD9489740 Si02
#       6
#    16  16  16   8  16  16
#     4   8  14  27  48  75 107 139 171 210 257 309
#     4  10  20  34  56  85 115 147 182 225 275 325
#     4  10  22  40  58  78 108 146 184 225 280 334
#     4  12  22  35  54  81 115 148 184 226 276 333
#     4  11  21  34  57  85 109 141 185 229 271 322
#     4   9  19  38  62  84 109 145 186 226 273 331
#
# _framework density 24.052781
#
# number of rings (size 3 to 8) (size 9 to 14) (size 15 to 20)
#    0.000    2.182    0.909    3.545    0.000    2.182 
#    0.000    5.909    0.000    5.455    0.000    5.091 
#    0.000    0.000    0.000    0.000    0.000    0.000 
#
# Total GULP energy -244965.855471 kJ/mol
# GULP energy per Si atom -5567.405806 kJ/mol
# Density = 2.399804 g / cm^3
# Si number density = 24.052781 Si / 1000 Ang^3
#
#
#
# Elastic Constant Matrix: (Units=GPa)
#
#
# Indices 1 2 3 4 5 6 
#
# 1 69.2165 -9.1008 27.3608 0.0000 0.0000 0.0000
# 2 -9.1008 98.3095 12.6217 0.0000 0.0000 0.0000
# 3 27.3608 12.6217 221.0395 0.0000 0.0000 0.0000
# 4 0.0000 0.0000 0.0000 106.0695 0.0000 0.0000
# 5 0.0000 0.0000 0.0000 0.0000 6.6289 0.0000
# 6 0.0000 0.0000 0.0000 0.0000 0.0000 5.6231
#
#
#
# Elastic Compliance Matrix: (Units=1/GPa)
#
#
# Indices 1 2 3 4 5 6 
#
# 1 0.015464 0.001690 -0.002011 0.000000 0.000000 0.000000
# 2 0.001690 0.010432 -0.000805 0.000000 0.000000 0.000000
# 3 -0.002011 -0.000805 0.004819 0.000000 0.000000 0.000000
# 4 0.000000 0.000000 0.000000 0.009428 0.000000 0.000000
# 5 0.000000 0.000000 0.000000 0.000000 0.150855 0.000000
# 6 0.000000 0.000000 0.000000 0.000000 0.000000 0.177837
#
#
# Mechanical properties :
#
#
# Convention : Reuss Voigt Hill
#
# Bulk Modulus (GPa) = 35.13276 50.03653 42.58465
# Shear Modulus (GPa) = 13.13801 47.50987 30.32394
#
# Velocity S-wave (km/s) = 2.33966 4.44918 3.55452
# Velocity P-wave (km/s) = 4.68369 6.87325 5.88126
#
# Compressibility (1/GPa) = 0.02846346
#
# Stress axis : x y z
#
# Youngs Moduli (GPa) = 64.66456 95.86153 207.51511
#
# Poissons Ratio (x) = -0.16198 0.41725
# Poissons Ratio (y) = -0.10927 0.16701
# Poissons Ratio (z) = 0.13002 0.07715
#
# Static dielectric constant tensor:
#      x y z
#    x 1.991970 0.000000 0.000000 
#    y 0.000000 1.956620 0.000000 
#    z 0.000000 0.000000 1.897400 
# 
# From -- ./inp_files/26817.got.cif
#   From: 2010.05.17/outbox.cif.g08.bks.cpg/sg65_14_cif.got.tgz:26817.got - 2010.06.03 17:01:31.
