data_PCOD9489238
_publ_section_title
;
Structure prediction by ZEFSAII (Michael W. Deem and Ramdas Pophale) SiO2 
 PCOD9489238
Probable space group: C M M M
;
_chemical_formula_sum "Si O2"
_cell_formula_units_Z 120
_cell_length_a 7.589227
_cell_length_b 27.066990
_cell_length_c 28.308405
_cell_angle_alpha 90.000000
_cell_angle_beta 90.000000
_cell_angle_gamma 90.000000
_cell_volume 5815.042671
_symmetry_space_group_name_H-M "C M M M"
_symmetry_group_IT_number 65
_symmetry_cell_setting 'orthorhombic'
loop_
_space_group_symop_operation_xyz
x,y,z
-x,-y,z
x,-y,-z
-x,y,-z
-x,-y,-z
x,y,-z
-x,y,z
x,-y,z
1/2+x,1/2+y,z
1/2-x,1/2-y,z
1/2+x,1/2-y,-z
1/2-x,1/2+y,-z
1/2-x,1/2-y,-z
1/2+x,1/2+y,-z
1/2-x,1/2+y,z
1/2+x,1/2-y,z
loop_
_atom_site_type_symbol
_atom_site_label
_atom_site_fract_x
_atom_site_fract_y
_atom_site_fract_z
Si Si1 0.714747 0.053936 0.910111
Si Si2 0.709783 0.555264 0.294599
Si Si3 0.715145 0.159571 0.051459
Si Si4 0.711066 0.000000 0.445747
Si Si5 0.287646 0.093595 0.190888
Si Si6 0.710500 0.804000 0.151337
Si Si7 0.790668 0.899624 0.388974
Si Si8 0.211729 0.194727 0.554009
O O1 0.500000 0.053856 0.911106
O O2 0.767170 0.102407 0.939229
O O3 0.768315 0.062831 0.855457
O O4 0.774144 0.000000 0.926562
O O5 0.500000 0.552160 0.302156
O O6 0.783238 0.500000 0.299711
O O7 0.734908 0.573441 0.241438
O O8 0.780556 0.589894 0.336380
O O9 0.500000 0.160925 0.051296
O O10 0.776560 0.189510 0.097391
O O11 0.775928 0.176501 0.000000
O O12 0.767109 0.950053 0.418853
O O13 0.500000 0.000000 0.446621
O O14 0.775683 0.000000 0.500000
O O15 0.500000 0.093020 0.190041
O O16 0.224899 0.149586 0.181565
O O17 0.500000 0.809014 0.149128
O O18 0.750000 0.750000 0.170025
O O19 0.719071 0.851164 0.415356
O O20 0.000000 0.891208 0.384885
O O21 0.279127 0.191667 0.500000
O O22 0.250000 0.250000 0.572183
O O23 0.000000 0.190305 0.551721
#
# Coordination Sequence:
#
# PCOD9489238 Si02
#       8
#    16  16  16   8  16  16  16  16
#     4   8  13  22  38  61  88 118 154 192 232 285
#     4  10  20  34  52  76 104 132 164 205 247 291
#     4   8  14  24  38  60  91 122 152 191 239 291
#     4  11  23  35  51  81 115 143 175 219 264 303
#     4   9  18  32  49  69  93 125 162 201 246 297
#     4   9  18  32  49  69  93 122 160 204 250 300
#     4  10  20  37  56  76 106 144 180 212 256 317
#     4   9  18  33  55  79 101 133 175 213 252 298
#
# _framework density 20.636133000000001
#
# number of rings (size 3 to 8) (size 9 to 14) (size 15 to 20)
#    0.000    2.867    0.667    2.600    0.000    4.000 
#    0.000    3.333    0.000    3.200    0.000    0.000 
#    0.000    0.000    0.000   14.133    0.000   10.667 
#
# Total GULP energy -334675.842218 kJ/mol
# GULP energy per Si atom -5577.930704 kJ/mol
# Density = 2.058916 g / cm^3
# Si number density = 20.636133 Si / 1000 Ang^3
#
#
#
# Elastic Constant Matrix: (Units=GPa)
#
#
# Indices 1 2 3 4 5 6 
#
# 1 42.2848 -1.9506 1.1067 0.0000 0.0000 0.0000
# 2 -1.9506 111.8111 19.1981 0.0000 0.0000 0.0000
# 3 1.1067 19.1981 82.6140 0.0000 0.0000 0.0000
# 4 0.0000 0.0000 0.0000 6.8962 0.0000 0.0000
# 5 0.0000 0.0000 0.0000 0.0000 18.6753 0.0000
# 6 0.0000 0.0000 0.0000 0.0000 0.0000 14.2066
#
#
#
# Elastic Compliance Matrix: (Units=1/GPa)
#
#
# Indices 1 2 3 4 5 6 
#
# 1 0.023683 0.000487 -0.000430 0.000000 0.000000 0.000000
# 2 0.000487 0.009325 -0.002174 0.000000 0.000000 0.000000
# 3 -0.000430 -0.002174 0.012615 0.000000 0.000000 0.000000
# 4 0.000000 0.000000 0.000000 0.145007 0.000000 0.000000
# 5 0.000000 0.000000 0.000000 0.000000 0.053547 0.000000
# 6 0.000000 0.000000 0.000000 0.000000 0.000000 0.070390
#
#
# Mechanical properties :
#
#
# Convention : Reuss Voigt Hill
#
# Bulk Modulus (GPa) = 24.16059 30.37980 27.27020
# Shear Modulus (GPa) = 15.03316 22.51266 18.77291
#
# Velocity S-wave (km/s) = 2.70198 3.30651 3.01941
# Velocity P-wave (km/s) = 4.63331 5.41581 5.03977
#
# Compressibility (1/GPa) = 0.04138972
#
# Stress axis : x y z
#
# Youngs Moduli (GPa) = 42.22457 107.23453 79.26846
#
# Poissons Ratio (x) = -0.05223 0.03412
# Poissons Ratio (y) = -0.02057 0.17230
# Poissons Ratio (z) = 0.01817 0.23308
#
# Static dielectric constant tensor:
#      x y z
#    x 1.788360 0.000000 0.000000 
#    y 0.000000 1.737120 0.000000 
#    z 0.000000 0.000000 1.726020 
# 
# From -- ./inp_files/73964.got.cif
#   From: 2010.05.17/outbox.cif.g08.bks.cpg/sg65_37_cif.got.tgz:73964.got - 2010.06.03 17:01:31.
