data_PCOD9489803
_publ_section_title
;
Structure prediction by ZEFSAII (Michael W. Deem and Ramdas Pophale) SiO2 
 PCOD9489803
Probable space group: C M M M
;
_chemical_formula_sum "Si O2"
_cell_formula_units_Z 96
_cell_length_a 28.350941
_cell_length_b 9.162238
_cell_length_c 24.147152
_cell_angle_alpha 90.000000
_cell_angle_beta 90.000000
_cell_angle_gamma 90.000000
_cell_volume 6272.417575
_symmetry_space_group_name_H-M "C M M M"
_symmetry_group_IT_number 65
_symmetry_cell_setting 'orthorhombic'
loop_
_space_group_symop_operation_xyz
x,y,z
-x,-y,z
x,-y,-z
-x,y,-z
-x,-y,-z
x,y,-z
-x,y,z
x,-y,z
1/2+x,1/2+y,z
1/2-x,1/2-y,z
1/2+x,1/2-y,-z
1/2-x,1/2+y,-z
1/2-x,1/2-y,-z
1/2+x,1/2+y,-z
1/2-x,1/2+y,z
1/2+x,1/2-y,z
loop_
_atom_site_type_symbol
_atom_site_label
_atom_site_fract_x
_atom_site_fract_y
_atom_site_fract_z
Si Si1 0.557506 0.331752 0.000000
Si Si2 0.801366 0.324732 0.377704
Si Si3 0.942561 0.668350 0.111443
Si Si4 0.199543 0.673203 0.500000
Si Si5 0.610062 0.325306 0.336331
Si Si6 0.444712 0.674023 0.776411
Si Si7 0.556970 0.828529 0.436730
O O1 0.573020 0.251623 0.943930
O O2 0.571922 0.500000 0.000000
O O3 0.500000 0.328593 0.000000
O O4 0.797720 0.500000 0.371619
O O5 0.750000 0.250000 0.373084
O O6 0.821337 0.291765 0.440098
O O7 0.839318 0.252936 0.337650
O O8 0.928345 0.500000 0.109723
O O9 0.927648 0.744323 0.168519
O O10 0.000000 0.673251 0.111300
O O11 0.206574 0.500000 0.500000
O O12 0.250000 0.750000 0.500000
O O13 0.615097 0.500000 0.340774
O O14 0.583331 0.290398 0.279234
O O15 0.580080 0.265042 0.388267
O O16 0.500000 0.709866 0.767974
O O17 0.441625 0.500000 0.785754
O O18 0.570270 0.786724 0.500000
O O19 0.500000 0.818853 0.433264
O O20 0.569918 0.000000 0.429761
#
# Coordination Sequence:
#
# PCOD9489803 Si02
#       7
#     8  16  16   8  16  16  16
#     4   9  15  23  37  57  83 117 152 183 222 267
#     4  10  20  35  52  70  91 115 143 180 227 280
#     4   9  16  25  39  60  85 113 150 193 228 259
#     4   8  16  30  48  66  83 104 129 164 212 267
#     4  11  22  33  48  70  92 118 151 187 229 278
#     4   9  18  32  46  61  87 122 157 191 226 266
#     4   9  19  35  51  66  87 116 150 189 231 273
#
# _framework density 15.305103000000001
#
# number of rings (size 3 to 8) (size 9 to 14) (size 15 to 20)
#    0.000    2.583    0.000    2.750    1.167    6.333 
#    0.000    2.500    0.000    0.000    0.000    0.000 
#    0.000    0.000    0.000    0.750    0.000   10.083 
#
# Total GULP energy -267548.772707 kJ/mol
# GULP energy per Si atom -5573.932765 kJ/mol
# Density = 1.527027 g / cm^3
# Si number density = 15.305103 Si / 1000 Ang^3
#
#
#
# Elastic Constant Matrix: (Units=GPa)
#
#
# Indices 1 2 3 4 5 6 
#
# 1 50.2898 39.7971 50.3955 0.0000 0.0000 0.0000
# 2 39.7971 80.2726 82.5927 0.0000 0.0000 0.0000
# 3 50.3955 82.5927 144.8751 0.0000 0.0000 0.0000
# 4 0.0000 0.0000 0.0000 24.7075 0.0000 0.0000
# 5 0.0000 0.0000 0.0000 0.0000 8.0948 0.0000
# 6 0.0000 0.0000 0.0000 0.0000 0.0000 19.4110
#
#
#
# Elastic Compliance Matrix: (Units=1/GPa)
#
#
# Indices 1 2 3 4 5 6 
#
# 1 0.034401 -0.011472 -0.005427 0.000000 0.000000 0.000000
# 2 -0.011472 0.033958 -0.015369 0.000000 0.000000 0.000000
# 3 -0.005427 -0.015369 0.017552 0.000000 0.000000 0.000000
# 4 0.000000 0.000000 0.000000 0.040473 0.000000 0.000000
# 5 0.000000 0.000000 0.000000 0.000000 0.123536 0.000000
# 6 0.000000 0.000000 0.000000 0.000000 0.000000 0.051517
#
#
# Mechanical properties :
#
#
# Convention : Reuss Voigt Hill
#
# Bulk Modulus (GPa) = 46.78013 69.00089 57.89051
# Shear Modulus (GPa) = 13.40133 17.28614 15.34373
#
# Velocity S-wave (km/s) = 2.96228 3.36435 3.16970
# Velocity P-wave (km/s) = 6.50627 7.76359 7.16257
#
# Compressibility (1/GPa) = 0.02137660
#
# Stress axis : x y z
#
# Youngs Moduli (GPa) = 29.06903 29.44823 56.97408
#
# Poissons Ratio (x) = 0.33782 0.30917
# Poissons Ratio (y) = 0.33347 0.87562
# Poissons Ratio (z) = 0.15775 0.45258
#
# Static dielectric constant tensor:
#      x y z
#    x 1.497920 0.000000 0.000000 
#    y 0.000000 1.511060 0.000000 
#    z 0.000000 0.000000 1.509110 
# 
# From -- ./inp_files/71764.got.cif
#   From: 2010.05.17/outbox.cif.g08.bks.cpg/sg65_36_cif.got.tgz:71764.got - 2010.06.03 17:01:31.
