data_PCOD9489774
_publ_section_title
;
Structure prediction by ZEFSAII (Michael W. Deem and Ramdas Pophale) SiO2 
 PCOD9489774
Probable space group: C M M M
;
_chemical_formula_sum "Si O2"
_cell_formula_units_Z 88
_cell_length_a 20.396208
_cell_length_b 24.512444
_cell_length_c 8.221312
_cell_angle_alpha 90.000000
_cell_angle_beta 90.000000
_cell_angle_gamma 90.000000
_cell_volume 4110.334599
_symmetry_space_group_name_H-M "C M M M"
_symmetry_group_IT_number 65
_symmetry_cell_setting 'orthorhombic'
loop_
_space_group_symop_operation_xyz
x,y,z
-x,-y,z
x,-y,-z
-x,y,-z
-x,-y,-z
x,y,-z
-x,y,z
x,-y,z
1/2+x,1/2+y,z
1/2-x,1/2-y,z
1/2+x,1/2-y,-z
1/2-x,1/2+y,-z
1/2-x,1/2-y,-z
1/2+x,1/2+y,-z
1/2-x,1/2+y,z
1/2+x,1/2-y,z
loop_
_atom_site_type_symbol
_atom_site_label
_atom_site_fract_x
_atom_site_fract_y
_atom_site_fract_z
Si Si1 0.500000 0.563837 0.199334
Si Si2 0.247042 0.562549 0.809160
Si Si3 0.871000 0.129128 0.194911
Si Si4 0.071176 0.676500 0.809690
Si Si5 0.398730 0.939097 0.690007
Si Si6 0.675805 0.743168 0.691062
O O1 0.500000 0.500000 0.248696
O O2 0.435382 0.597103 0.253795
O O3 0.500000 0.563827 0.000000
O O4 0.270900 0.500000 0.804972
O O5 0.304088 0.601051 0.744902
O O6 0.179725 0.565466 0.711985
O O7 0.232736 0.575538 0.000000
O O8 0.864105 0.192685 0.233724
O O9 0.870821 0.122571 0.000000
O O10 0.072685 0.611671 0.785398
O O11 0.132445 0.703321 0.720288
O O12 0.000000 0.696902 0.750466
O O13 0.076970 0.689438 0.000000
O O14 0.415839 0.934542 0.500000
O O15 0.417172 0.000000 0.746995
O O16 0.681686 0.732327 0.500000
O O17 0.750000 0.750000 0.757931
#
# Coordination Sequence:
#
# PCOD9489774 Si02
#       6
#     8  16  16  16  16  16
#     4   9  18  34  57  87 123 161 202 249 302 363
#     4   9  17  31  54  84 117 155 200 249 298 346
#     4  10  20  34  57  86 118 156 202 253 301 356
#     4  11  25  43  64  89 118 153 197 248 299 353
#     4  10  21  37  59  88 121 156 193 236 292 357
#     4  11  25  43  63  88 120 159 203 251 306 369
#
# _framework density 21.409448000000001
#
# number of rings (size 3 to 8) (size 9 to 14) (size 15 to 20)
#    0.000    1.909    0.000    3.273    1.273   10.182 
#    0.000    1.818    0.000    2.182    0.000    0.000 
#    0.000    0.000    0.000    0.000    0.000    0.000 
#
# Total GULP energy -245817.241065 kJ/mol
# GULP energy per Si atom -5586.755479 kJ/mol
# Density = 2.136072 g / cm^3
# Si number density = 21.409448 Si / 1000 Ang^3
#
#
#
# Elastic Constant Matrix: (Units=GPa)
#
#
# Indices 1 2 3 4 5 6 
#
# 1 117.9068 47.8601 6.3192 0.0000 0.0000 0.0000
# 2 47.8601 95.6117 -6.3185 0.0000 0.0000 0.0000
# 3 6.3192 -6.3185 10.9008 0.0000 0.0000 0.0000
# 4 0.0000 0.0000 0.0000 12.1813 0.0000 0.0000
# 5 0.0000 0.0000 0.0000 0.0000 32.3414 0.0000
# 6 0.0000 0.0000 0.0000 0.0000 0.0000 29.2477
#
#
#
# Elastic Compliance Matrix: (Units=1/GPa)
#
#
# Indices 1 2 3 4 5 6 
#
# 1 0.011713 -0.006563 -0.010595 0.000000 0.000000 0.000000
# 2 -0.006563 0.014553 0.012241 0.000000 0.000000 0.000000
# 3 -0.010595 0.012241 0.104973 0.000000 0.000000 0.000000
# 4 0.000000 0.000000 0.000000 0.082093 0.000000 0.000000
# 5 0.000000 0.000000 0.000000 0.000000 0.030920 0.000000
# 6 0.000000 0.000000 0.000000 0.000000 0.000000 0.034191
#
#
# Mechanical properties :
#
#
# Convention : Reuss Voigt Hill
#
# Bulk Modulus (GPa) = 8.23692 35.57120 21.90406
# Shear Modulus (GPa) = 15.20928 26.52466 20.86697
#
# Velocity S-wave (km/s) = 2.66823 3.52365 3.12534
# Velocity P-wave (km/s) = 3.65353 5.76243 4.82462
#
# Compressibility (1/GPa) = 0.12140459
#
# Stress axis : x y z
#
# Youngs Moduli (GPa) = 85.37306 68.71269 9.52626
#
# Poissons Ratio (x) = 0.45099 0.10093
# Poissons Ratio (y) = 0.56034 -0.11661
# Poissons Ratio (z) = 0.90450 -0.84108
#
# Static dielectric constant tensor:
#      x y z
#    x 1.786480 0.000000 0.000000 
#    y 0.000000 1.767050 0.000000 
#    z 0.000000 0.000000 1.749460 
# 
# From -- ./inp_files/11814.got.cif
#   From: 2010.05.17/outbox.cif.g08.bks.cpg/sg65_6_cif.got.tgz:11814.got - 2010.06.03 17:01:31.
