data_PCOD9489557
_publ_section_title
;
Structure prediction by ZEFSAII (Michael W. Deem and Ramdas Pophale) SiO2 
 PCOD9489557
Probable space group: C M M M
;
_chemical_formula_sum "Si O2"
_cell_formula_units_Z 80
_cell_length_a 9.087925
_cell_length_b 18.806174
_cell_length_c 26.099576
_cell_angle_alpha 90.000000
_cell_angle_beta 90.000000
_cell_angle_gamma 90.000000
_cell_volume 4460.655014
_symmetry_space_group_name_H-M "C M M M"
_symmetry_group_IT_number 65
_symmetry_cell_setting 'orthorhombic'
loop_
_space_group_symop_operation_xyz
x,y,z
-x,-y,z
x,-y,-z
-x,y,-z
-x,-y,-z
x,y,-z
-x,y,z
x,-y,z
1/2+x,1/2+y,z
1/2-x,1/2-y,z
1/2+x,1/2-y,-z
1/2-x,1/2+y,-z
1/2-x,1/2-y,-z
1/2+x,1/2+y,-z
1/2-x,1/2+y,z
1/2+x,1/2-y,z
loop_
_atom_site_type_symbol
_atom_site_label
_atom_site_fract_x
_atom_site_fract_y
_atom_site_fract_z
Si Si1 0.671619 0.914347 0.395202
Si Si2 0.676843 0.916903 0.100937
Si Si3 0.177023 0.327142 0.000000
Si Si4 0.324793 0.326644 0.188410
Si Si5 0.824733 0.826470 0.307333
Si Si6 0.169718 0.913392 0.500000
O O1 0.500000 0.894311 0.394744
O O2 0.754956 0.880920 0.347188
O O3 0.747273 0.890932 0.448372
O O4 0.680494 0.000000 0.392935
O O5 0.500000 0.911158 0.107446
O O6 0.756711 0.883176 0.149671
O O7 0.712300 0.000000 0.094307
O O8 0.717550 0.871819 0.050557
O O9 0.250000 0.250000 0.000000
O O10 0.000000 0.319195 0.000000
O O11 0.500000 0.320455 0.181131
O O12 0.250000 0.250000 0.179048
O O13 0.297048 0.346217 0.247870
O O14 0.750000 0.750000 0.315683
O O15 0.000000 0.821519 0.314525
O O16 0.000000 0.890377 0.500000
O O17 0.170673 0.000000 0.500000
#
# Coordination Sequence:
#
# PCOD9489557 Si02
#       6
#    16  16   8  16  16   8
#     4  10  20  34  54  80 109 141 179 222 267 319
#     4  10  21  37  57  81 111 145 180 222 271 320
#     4  10  21  37  57  81 109 144 185 224 266 320
#     4  10  21  37  57  80 107 141 181 223 267 321
#     4  10  21  37  56  78 107 142 179 221 270 322
#     4   9  17  31  52  77 106 141 180 221 267 319
#
# _framework density 17.934585999999999
#
# number of rings (size 3 to 8) (size 9 to 14) (size 15 to 20)
#    0.000    2.100    0.000    3.000    0.000    9.600 
#    0.000    4.500    0.000    1.800    0.000    0.000 
#    0.000    0.000    0.000    0.000    0.000    0.000 
#
# Total GULP energy -223370.224297 kJ/mol
# GULP energy per Si atom -5584.255607 kJ/mol
# Density = 1.789377 g / cm^3
# Si number density = 17.934586 Si / 1000 Ang^3
#
#
#
# Elastic Constant Matrix: (Units=GPa)
#
#
# Indices 1 2 3 4 5 6 
#
# 1 100.8415 60.3004 84.2559 0.0000 0.0000 0.0000
# 2 60.3004 93.3337 83.7017 0.0000 0.0000 0.0000
# 3 84.2559 83.7017 135.4248 0.0000 0.0000 0.0000
# 4 0.0000 0.0000 0.0000 35.3410 0.0000 0.0000
# 5 0.0000 0.0000 0.0000 0.0000 34.3857 0.0000
# 6 0.0000 0.0000 0.0000 0.0000 0.0000 33.0763
#
#
#
# Elastic Compliance Matrix: (Units=1/GPa)
#
#
# Indices 1 2 3 4 5 6 
#
# 1 0.021370 -0.004225 -0.010684 0.000000 0.000000 0.000000
# 2 -0.004225 0.024873 -0.012745 0.000000 0.000000 0.000000
# 3 -0.010684 -0.012745 0.021909 0.000000 0.000000 0.000000
# 4 0.000000 0.000000 0.000000 0.028296 0.000000 0.000000
# 5 0.000000 0.000000 0.000000 0.000000 0.029082 0.000000
# 6 0.000000 0.000000 0.000000 0.000000 0.000000 0.030233
#
#
# Mechanical properties :
#
#
# Convention : Reuss Voigt Hill
#
# Bulk Modulus (GPa) = 77.85754 87.34620 82.60187
# Shear Modulus (GPa) = 23.21777 27.31672 25.26725
#
# Velocity S-wave (km/s) = 3.60193 3.90697 3.75754
# Velocity P-wave (km/s) = 7.79774 8.31630 8.06119
#
# Compressibility (1/GPa) = 0.01284397
#
# Stress axis : x y z
#
# Youngs Moduli (GPa) = 46.79478 40.20344 45.64397
#
# Poissons Ratio (x) = 0.16986 0.48767
# Poissons Ratio (y) = 0.19770 0.58173
# Poissons Ratio (z) = 0.49997 0.51239
#
# Static dielectric constant tensor:
#      x y z
#    x 1.598090 0.000000 0.000000 
#    y 0.000000 1.585300 0.000000 
#    z 0.000000 0.000000 1.596520 
# 
# From -- ./inp_files/72912.got.cif
#   From: 2010.05.17/outbox.cif.g08.bks.cpg/sg65_37_cif.got.tgz:72912.got - 2010.06.03 17:01:31.
