data_PCOD9489567
_publ_section_title
;
Structure prediction by ZEFSAII (Michael W. Deem and Ramdas Pophale) SiO2 
 PCOD9489567
Probable space group: C M M M
;
_chemical_formula_sum "Si O2"
_cell_formula_units_Z 104
_cell_length_a 32.317350
_cell_length_b 8.437551
_cell_length_c 19.762947
_cell_angle_alpha 90.000000
_cell_angle_beta 90.000000
_cell_angle_gamma 90.000000
_cell_volume 5388.946333
_symmetry_space_group_name_H-M "C M M M"
_symmetry_group_IT_number 65
_symmetry_cell_setting 'orthorhombic'
loop_
_space_group_symop_operation_xyz
x,y,z
-x,-y,z
x,-y,-z
-x,y,-z
-x,-y,-z
x,y,-z
-x,y,z
x,-y,z
1/2+x,1/2+y,z
1/2-x,1/2-y,z
1/2+x,1/2-y,-z
1/2-x,1/2+y,-z
1/2-x,1/2-y,-z
1/2+x,1/2+y,-z
1/2-x,1/2+y,z
1/2+x,1/2-y,z
loop_
_atom_site_type_symbol
_atom_site_label
_atom_site_fract_x
_atom_site_fract_y
_atom_site_fract_z
Si Si1 0.294335 0.187701 0.791719
Si Si2 0.455270 0.310416 0.217544
Si Si3 0.571694 0.811766 0.923816
Si Si4 0.835295 0.187900 0.076163
Si Si5 0.372077 0.689656 0.291589
Si Si6 0.909605 0.307606 0.578357
Si Si7 0.500000 0.182294 0.417545
O O1 0.250000 0.250000 0.768023
O O2 0.304680 0.258237 0.865525
O O3 0.331788 0.240312 0.743619
O O4 0.293343 0.000000 0.796457
O O5 0.500000 0.248634 0.242254
O O6 0.455312 0.500000 0.226192
O O7 0.450827 0.271647 0.138184
O O8 0.413923 0.249323 0.254174
O O9 0.620596 0.774750 0.916100
O O10 0.564958 0.000000 0.919226
O O11 0.559826 0.759631 0.000000
O O12 0.843125 0.000000 0.082836
O O13 0.819978 0.219206 0.000000
O O14 0.370636 0.500000 0.285012
O O15 0.377007 0.739739 0.369262
O O16 0.902559 0.264891 0.500000
O O17 0.910442 0.500000 0.581666
O O18 0.955548 0.245921 0.599907
O O19 0.500000 0.176193 0.500000
O O20 0.500000 0.000000 0.393765
#
# Coordination Sequence:
#
# PCOD9489567 Si02
#       7
#    16  16  16  16  16  16   8
#     4  12  25  42  65  90 118 151 193 240 294 352
#     4  10  22  38  55  78 113 158 203 245 293 349
#     4  10  20  34  54  80 110 148 196 249 299 347
#     4  10  20  36  59  86 117 152 190 236 291 350
#     4  11  23  39  60  86 120 156 195 241 292 347
#     4   9  18  34  57  85 118 157 199 241 287 341
#     4   7  12  26  49  79 115 153 194 237 278 327
#
# _framework density 19.298763999999998
#
# number of rings (size 3 to 8) (size 9 to 14) (size 15 to 20)
#    0.000    1.923    1.538    3.692    1.077    3.692 
#    0.000    1.538    0.000    1.846    0.000    0.000 
#    0.000    0.000    0.000    0.000    0.000    0.000 
#
# Total GULP energy -290426.396031 kJ/mol
# GULP energy per Si atom -5585.123001 kJ/mol
# Density = 1.925484 g / cm^3
# Si number density = 19.298764 Si / 1000 Ang^3
#
#
#
# Elastic Constant Matrix: (Units=GPa)
#
#
# Indices 1 2 3 4 5 6 
#
# 1 112.8214 6.9372 46.4884 0.0000 0.0000 0.0000
# 2 6.9372 19.0940 1.5774 0.0000 0.0000 0.0000
# 3 46.4884 1.5774 79.4265 0.0000 0.0000 0.0000
# 4 0.0000 0.0000 0.0000 23.8886 0.0000 0.0000
# 5 0.0000 0.0000 0.0000 0.0000 18.5646 0.0000
# 6 0.0000 0.0000 0.0000 0.0000 0.0000 18.3827
#
#
#
# Elastic Compliance Matrix: (Units=1/GPa)
#
#
# Indices 1 2 3 4 5 6 
#
# 1 0.011945 -0.003769 -0.006917 0.000000 0.000000 0.000000
# 2 -0.003769 0.053648 0.001140 0.000000 0.000000 0.000000
# 3 -0.006917 0.001140 0.016616 0.000000 0.000000 0.000000
# 4 0.000000 0.000000 0.000000 0.041861 0.000000 0.000000
# 5 0.000000 0.000000 0.000000 0.000000 0.053866 0.000000
# 6 0.000000 0.000000 0.000000 0.000000 0.000000 0.054399
#
#
# Mechanical properties :
#
#
# Convention : Reuss Voigt Hill
#
# Bulk Modulus (GPa) = 15.84315 35.70534 25.77424
# Shear Modulus (GPa) = 18.35101 22.58977 20.47039
#
# Velocity S-wave (km/s) = 3.08700 3.42501 3.26039
# Velocity P-wave (km/s) = 4.57529 5.84658 5.24956
#
# Compressibility (1/GPa) = 0.06311878
#
# Stress axis : x y z
#
# Youngs Moduli (GPa) = 83.71439 18.64019 60.18286
#
# Poissons Ratio (x) = 0.07025 0.41627
# Poissons Ratio (y) = 0.31548 -0.06863
# Poissons Ratio (z) = 0.57904 -0.02126
#
# Static dielectric constant tensor:
#      x y z
#    x 1.682800 0.000000 0.000000 
#    y 0.000000 1.661190 0.000000 
#    z 0.000000 0.000000 1.681570 
# 
# From -- ./inp_files/66318.got.cif
#   From: 2010.05.17/outbox.cif.g08.bks.cpg/sg65_34_cif.got.tgz:66318.got - 2010.06.03 17:01:31.
