data_PCOD9489873
_publ_section_title
;
Structure prediction by ZEFSAII (Michael W. Deem and Ramdas Pophale) SiO2 
 PCOD9489873
Probable space group: C M M M
;
_chemical_formula_sum "Si O2"
_cell_formula_units_Z 88
_cell_length_a 9.147823
_cell_length_b 27.054984
_cell_length_c 19.611071
_cell_angle_alpha 90.000000
_cell_angle_beta 90.000000
_cell_angle_gamma 90.000000
_cell_volume 4853.626424
_symmetry_space_group_name_H-M "C M M M"
_symmetry_group_IT_number 65
_symmetry_cell_setting 'orthorhombic'
loop_
_space_group_symop_operation_xyz
x,y,z
-x,-y,z
x,-y,-z
-x,y,-z
-x,-y,-z
x,y,-z
-x,y,z
x,-y,z
1/2+x,1/2+y,z
1/2-x,1/2-y,z
1/2+x,1/2-y,-z
1/2-x,1/2+y,-z
1/2-x,1/2-y,-z
1/2+x,1/2+y,-z
1/2-x,1/2+y,z
1/2+x,1/2-y,z
loop_
_atom_site_type_symbol
_atom_site_label
_atom_site_fract_x
_atom_site_fract_y
_atom_site_fract_z
Si Si1 0.821717 0.900757 0.342330
Si Si2 0.824438 0.198372 0.419580
Si Si3 0.174431 0.401177 0.921648
Si Si4 0.670264 0.556452 0.797544
Si Si5 0.678232 0.500000 0.421024
Si Si6 0.166331 0.201442 0.917350
O O1 0.775572 0.849421 0.376606
O O2 0.778164 0.908469 0.263738
O O3 0.774089 0.949383 0.384298
O O4 0.000000 0.901240 0.343156
O O5 0.793009 0.189894 0.500000
O O6 0.750000 0.250000 0.399381
O O7 0.000000 0.202920 0.412761
O O8 0.237793 0.437904 0.865844
O O9 0.244077 0.348092 0.903643
O O10 0.000000 0.398660 0.918729
O O11 0.216124 0.413201 0.000000
O O12 0.500000 0.567349 0.812875
O O13 0.676448 0.500000 0.772034
O O14 0.500000 0.500000 0.418849
O O15 0.721800 0.500000 0.500000
O O16 0.250000 0.250000 0.892121
O O17 0.000000 0.198543 0.892085
O O18 0.159471 0.205304 0.000000
#
# Coordination Sequence:
#
# PCOD9489873 Si02
#       6
#    16  16  16  16   8  16
#     4   9  16  29  48  74 106 137 171 213 261 314
#     4   9  17  30  50  77 109 144 179 214 253 299
#     4  10  21  36  53  74 100 132 175 224 269 319
#     4  10  20  35  54  74 100 134 170 215 275 335
#     4   9  14  22  44  78 108 131 162 210 261 305
#     4   9  16  28  49  76 104 131 160 200 254 312
#
# _framework density 18.130772
#
# number of rings (size 3 to 8) (size 9 to 14) (size 15 to 20)
#    0.000    2.636    0.909    1.636    0.000    6.182 
#    0.000    3.636    0.000    2.182    0.000    0.000 
#    0.000    4.364    0.000    0.000    0.000    0.000 
#
# Total GULP energy -245270.071087 kJ/mol
# GULP energy per Si atom -5574.319797 kJ/mol
# Density = 1.808951 g / cm^3
# Si number density = 18.130772 Si / 1000 Ang^3
#
#
#
# Elastic Constant Matrix: (Units=GPa)
#
#
# Indices 1 2 3 4 5 6 
#
# 1 38.5189 27.0607 32.2846 0.0000 0.0000 0.0000
# 2 27.0607 114.6512 58.1277 0.0000 0.0000 0.0000
# 3 32.2846 58.1277 90.1309 0.0000 0.0000 0.0000
# 4 0.0000 0.0000 0.0000 27.8973 0.0000 0.0000
# 5 0.0000 0.0000 0.0000 0.0000 9.5498 0.0000
# 6 0.0000 0.0000 0.0000 0.0000 0.0000 26.1461
#
#
#
# Elastic Compliance Matrix: (Units=1/GPa)
#
#
# Indices 1 2 3 4 5 6 
#
# 1 0.037807 -0.003057 -0.011571 0.000000 0.000000 0.000000
# 2 -0.003057 0.013207 -0.007422 0.000000 0.000000 0.000000
# 3 -0.011571 -0.007422 0.020026 0.000000 0.000000 0.000000
# 4 0.000000 0.000000 0.000000 0.035846 0.000000 0.000000
# 5 0.000000 0.000000 0.000000 0.000000 0.104714 0.000000
# 6 0.000000 0.000000 0.000000 0.000000 0.000000 0.038247
#
#
# Mechanical properties :
#
#
# Convention : Reuss Voigt Hill
#
# Bulk Modulus (GPa) = 37.11977 53.13856 45.12916
# Shear Modulus (GPa) = 16.50560 21.10717 18.80639
#
# Velocity S-wave (km/s) = 3.02050 3.41568 3.22415
# Velocity P-wave (km/s) = 5.71685 6.70283 6.22938
#
# Compressibility (1/GPa) = 0.02693982
#
# Stress axis : x y z
#
# Youngs Moduli (GPa) = 26.45009 75.71878 49.93401
#
# Poissons Ratio (x) = 0.23148 0.57777
# Poissons Ratio (y) = 0.08086 0.37063
# Poissons Ratio (z) = 0.30605 0.56201
#
# Static dielectric constant tensor:
#      x y z
#    x 1.608410 0.000000 0.000000 
#    y 0.000000 1.630980 0.000000 
#    z 0.000000 0.000000 1.623810 
# 
# From -- ./inp_files/59827.got.cif
#   From: 2010.05.17/outbox.cif.g08.bks.cpg/sg65_30_cif.got.tgz:59827.got - 2010.06.03 17:01:31.
