data_PCOD9489135
_publ_section_title
;
Structure prediction by ZEFSAII (Michael W. Deem and Ramdas Pophale) SiO2 
 PCOD9489135
Probable space group: C M M M
;
_chemical_formula_sum "Si O2"
_cell_formula_units_Z 80
_cell_length_a 28.745934
_cell_length_b 9.115603
_cell_length_c 21.267666
_cell_angle_alpha 90.000000
_cell_angle_beta 90.000000
_cell_angle_gamma 90.000000
_cell_volume 5572.905234
_symmetry_space_group_name_H-M "C M M M"
_symmetry_group_IT_number 65
_symmetry_cell_setting 'orthorhombic'
loop_
_space_group_symop_operation_xyz
x,y,z
-x,-y,z
x,-y,-z
-x,y,-z
-x,-y,-z
x,y,-z
-x,y,z
x,-y,z
1/2+x,1/2+y,z
1/2-x,1/2-y,z
1/2+x,1/2-y,-z
1/2-x,1/2+y,-z
1/2-x,1/2-y,-z
1/2+x,1/2+y,-z
1/2-x,1/2+y,z
1/2+x,1/2-y,z
loop_
_atom_site_type_symbol
_atom_site_label
_atom_site_fract_x
_atom_site_fract_y
_atom_site_fract_z
Si Si1 0.107551 0.323550 0.383854
Si Si2 0.056615 0.168958 0.873051
Si Si3 0.944238 0.172697 0.500000
Si Si4 0.554327 0.175263 0.255360
Si Si5 0.200907 0.173471 0.424583
Si Si6 0.556719 0.830883 0.000000
O O1 0.108978 0.500000 0.391607
O O2 0.076775 0.251615 0.438928
O O3 0.084295 0.289506 0.316721
O O4 0.158607 0.254705 0.390587
O O5 0.070666 0.246091 0.808197
O O6 0.072129 0.251167 0.936204
O O7 0.000000 0.173262 0.873611
O O8 0.070923 0.000000 0.874313
O O9 0.000000 0.183265 0.500000
O O10 0.931130 0.000000 0.500000
O O11 0.500000 0.214698 0.266600
O O12 0.555964 0.000000 0.245553
O O13 0.193292 0.188994 0.500000
O O14 0.250000 0.250000 0.409974
O O15 0.201985 0.000000 0.410561
O O16 0.500000 0.827117 0.000000
O O17 0.570792 0.000000 0.000000
#
# Coordination Sequence:
#
# PCOD9489135 Si02
#       6
#    16  16   8  16  16   8
#     4  11  21  33  50  68  88 115 148 185 226 270
#     4   9  16  25  38  57  80 108 144 184 221 256
#     4  11  23  35  46  63  88 117 151 189 225 261
#     4   9  18  31  44  60  85 118 153 184 217 261
#     4  10  20  34  52  71  91 111 138 178 226 276
#     4   9  15  23  37  55  77 107 142 181 220 257
#
# _framework density 14.355169999999999
#
# number of rings (size 3 to 8) (size 9 to 14) (size 15 to 20)
#    0.000    2.200    1.000    3.000    0.000    7.600 
#    0.000    2.000    0.000    0.000    0.000    0.000 
#    0.000    0.000    0.000    0.900    0.000   12.100 
#
# Total GULP energy -223100.378023 kJ/mol
# GULP energy per Si atom -5577.509451 kJ/mol
# Density = 1.432250 g / cm^3
# Si number density = 14.355170 Si / 1000 Ang^3
#
#
#
# Elastic Constant Matrix: (Units=GPa)
#
#
# Indices 1 2 3 4 5 6 
#
# 1 69.4257 50.3606 55.1854 0.0000 0.0000 0.0000
# 2 50.3606 105.2588 89.3591 0.0000 0.0000 0.0000
# 3 55.1854 89.3591 147.1370 0.0000 0.0000 0.0000
# 4 0.0000 0.0000 0.0000 14.3615 0.0000 0.0000
# 5 0.0000 0.0000 0.0000 0.0000 2.1718 0.0000
# 6 0.0000 0.0000 0.0000 0.0000 0.0000 19.4889
#
#
#
# Elastic Compliance Matrix: (Units=1/GPa)
#
#
# Indices 1 2 3 4 5 6 
#
# 1 0.023168 -0.007654 -0.004041 0.000000 0.000000 0.000000
# 2 -0.007654 0.022141 -0.010576 0.000000 0.000000 0.000000
# 3 -0.004041 -0.010576 0.014735 0.000000 0.000000 0.000000
# 4 0.000000 0.000000 0.000000 0.069631 0.000000 0.000000
# 5 0.000000 0.000000 0.000000 0.000000 0.460445 0.000000
# 6 0.000000 0.000000 0.000000 0.000000 0.000000 0.051311
#
#
# Mechanical properties :
#
#
# Convention : Reuss Voigt Hill
#
# Bulk Modulus (GPa) = 64.50745 79.07018 71.78881
# Shear Modulus (GPa) = 7.23443 15.66554 11.44998
#
# Velocity S-wave (km/s) = 2.24734 3.30704 2.82728
# Velocity P-wave (km/s) = 7.19502 8.35362 7.79587
#
# Compressibility (1/GPa) = 0.01550209
#
# Stress axis : x y z
#
# Youngs Moduli (GPa) = 43.16254 45.16579 67.86650
#
# Poissons Ratio (x) = 0.34571 0.27425
# Poissons Ratio (y) = 0.33037 0.71773
# Poissons Ratio (z) = 0.17442 0.47766
#
# Static dielectric constant tensor:
#      x y z
#    x 1.446870 0.000000 0.000000 
#    y 0.000000 1.480040 0.000000 
#    z 0.000000 0.000000 1.458600 
# 
# From -- ./inp_files/60046.got.cif
#   From: 2010.05.17/outbox.cif.g08.bks.cpg/sg65_31_cif.got.tgz:60046.got - 2010.06.03 17:01:31.
