data_PCOD9489101
_publ_section_title
;
Structure prediction by ZEFSAII (Michael W. Deem and Ramdas Pophale) SiO2 
 PCOD9489101
Probable space group: C M M M
;
_chemical_formula_sum "Si O2"
_cell_formula_units_Z 104
_cell_length_a 7.437027
_cell_length_b 31.551019
_cell_length_c 20.520232
_cell_angle_alpha 90.000000
_cell_angle_beta 90.000000
_cell_angle_gamma 90.000000
_cell_volume 4814.985847
_symmetry_space_group_name_H-M "C M M M"
_symmetry_group_IT_number 65
_symmetry_cell_setting 'orthorhombic'
loop_
_space_group_symop_operation_xyz
x,y,z
-x,-y,z
x,-y,-z
-x,y,-z
-x,-y,-z
x,y,-z
-x,y,z
x,-y,z
1/2+x,1/2+y,z
1/2-x,1/2-y,z
1/2+x,1/2-y,-z
1/2-x,1/2+y,-z
1/2-x,1/2-y,-z
1/2+x,1/2+y,-z
1/2-x,1/2+y,z
1/2+x,1/2-y,z
loop_
_atom_site_type_symbol
_atom_site_label
_atom_site_fract_x
_atom_site_fract_y
_atom_site_fract_z
Si Si1 0.279203 0.362389 0.314670
Si Si2 0.710857 0.679633 0.074353
Si Si3 0.299664 0.049122 0.000000
Si Si4 0.216736 0.413241 0.130239
Si Si5 0.715087 0.298382 0.426003
Si Si6 0.214995 0.795507 0.207970
Si Si7 0.791250 0.048284 0.729442
O O1 0.500000 0.363141 0.313644
O O2 0.220855 0.334471 0.376477
O O3 0.220717 0.334972 0.251363
O O4 0.216678 0.411201 0.310775
O O5 0.500000 0.690125 0.067981
O O6 0.726655 0.633436 0.107556
O O7 0.791840 0.705984 0.134381
O O8 0.784289 0.681101 0.000000
O O9 0.215188 0.060834 0.068007
O O10 0.500000 0.070138 0.000000
O O11 0.322410 0.000000 0.000000
O O12 0.284700 0.433750 0.196691
O O13 0.000000 0.414805 0.135430
O O14 0.784875 0.302642 0.500000
O O15 0.500000 0.302856 0.428445
O O16 0.750000 0.250000 0.404280
O O17 0.250000 0.750000 0.240005
O O18 0.000000 0.800531 0.203474
O O19 0.000000 0.044727 0.710711
O O20 0.715956 0.000000 0.725610
#
# Coordination Sequence:
#
# PCOD9489101 Si02
#       7
#    16  16   8  16  16  16  16
#     4   9  17  32  52  74 103 135 166 205 251 292
#     4  10  20  35  53  69  93 129 167 208 254 304
#     4   9  18  30  43  63  92 121 148 191 258 315
#     4  11  20  32  50  71  97 126 160 208 262 309
#     4   9  17  30  51  79 110 141 170 202 244 295
#     4  10  20  34  51  71  97 128 164 207 252 298
#     4  10  20  35  54  73  96 131 172 207 246 301
#
# _framework density 21.599231
#
# number of rings (size 3 to 8) (size 9 to 14) (size 15 to 20)
#    0.000    2.231    2.308    1.385    0.000    1.846 
#    0.000    0.769    0.000    2.308    0.000    3.231 
#    0.000    0.000    0.000    5.231    0.000    5.538 
#
# Total GULP energy -289805.884181 kJ/mol
# GULP energy per Si atom -5573.190080 kJ/mol
# Density = 2.155007 g / cm^3
# Si number density = 21.599231 Si / 1000 Ang^3
#
#
#
# Elastic Constant Matrix: (Units=GPa)
#
#
# Indices 1 2 3 4 5 6 
#
# 1 76.6325 -7.1985 3.0949 0.0000 0.0000 0.0000
# 2 -7.1985 168.8164 73.5349 0.0000 0.0000 0.0000
# 3 3.0949 73.5349 131.3848 0.0000 0.0000 0.0000
# 4 0.0000 0.0000 0.0000 38.3753 0.0000 0.0000
# 5 0.0000 0.0000 0.0000 0.0000 -4.7650 0.0000
# 6 0.0000 0.0000 0.0000 0.0000 0.0000 2.1166
#
#
#
# Elastic Compliance Matrix: (Units=1/GPa)
#
#
# Indices 1 2 3 4 5 6 
#
# 1 0.013169 0.000921 -0.000826 0.000000 0.000000 0.000000
# 2 0.000921 0.007898 -0.004442 0.000000 0.000000 0.000000
# 3 -0.000826 -0.004442 0.010117 0.000000 0.000000 0.000000
# 4 0.000000 0.000000 0.000000 0.026058 0.000000 0.000000
# 5 0.000000 0.000000 0.000000 0.000000 -0.209863 0.000000
# 6 0.000000 0.000000 0.000000 0.000000 0.000000 0.472458
#
#
# Mechanical properties :
#
#
# Convention : Reuss Voigt Hill
#
# Bulk Modulus (GPa) = 44.46291 57.29957 50.88124
# Shear Modulus (GPa) = 14.87974 27.63887 21.25930
#
# Velocity S-wave (km/s) = 2.62754 3.58106 3.14070
# Velocity P-wave (km/s) = 5.46218 6.60945 6.06301
#
# Compressibility (1/GPa) = 0.02249065
#
# Stress axis : x y z
#
# Youngs Moduli (GPa) = 75.93479 126.61785 98.84515
#
# Poissons Ratio (x) = -0.11665 0.08163
# Poissons Ratio (y) = -0.06996 0.43907
# Poissons Ratio (z) = 0.06271 0.56244
#
# Static dielectric constant tensor:
#      x y z
#    x 1.825280 0.000000 0.000000 
#    y 0.000000 1.837110 0.000000 
#    z 0.000000 0.000000 1.808420 
# 
# From -- ./inp_files/60884.got.cif
#   From: 2010.05.17/outbox.cif.g08.bks.cpg/sg65_31_cif.got.tgz:60884.got - 2010.06.03 17:01:31.
