data_PCOD9489855
_publ_section_title
;
Structure prediction by ZEFSAII (Michael W. Deem and Ramdas Pophale) SiO2 
 PCOD9489855
Probable space group: C M M M
;
_chemical_formula_sum "Si O2"
_cell_formula_units_Z 72
_cell_length_a 13.269603
_cell_length_b 19.164925
_cell_length_c 13.979036
_cell_angle_alpha 90.000000
_cell_angle_beta 90.000000
_cell_angle_gamma 90.000000
_cell_volume 3555.021873
_symmetry_space_group_name_H-M "C M M M"
_symmetry_group_IT_number 65
_symmetry_cell_setting 'orthorhombic'
loop_
_space_group_symop_operation_xyz
x,y,z
-x,-y,z
x,-y,-z
-x,y,-z
-x,-y,-z
x,y,-z
-x,y,z
x,-y,z
1/2+x,1/2+y,z
1/2-x,1/2-y,z
1/2+x,1/2-y,-z
1/2-x,1/2+y,-z
1/2-x,1/2-y,-z
1/2+x,1/2+y,-z
1/2-x,1/2+y,z
1/2+x,1/2-y,z
loop_
_atom_site_type_symbol
_atom_site_label
_atom_site_fract_x
_atom_site_fract_y
_atom_site_fract_z
Si Si1 0.892113 0.921558 0.615106
Si Si2 0.678129 0.848590 0.187988
Si Si3 0.621079 0.000000 0.888205
Si Si4 0.114366 0.205377 0.888563
Si Si5 0.299667 0.826223 0.607247
O O1 0.898701 0.926419 0.500000
O O2 0.791864 0.878755 0.628115
O O3 0.000000 0.891149 0.647426
O O4 0.883161 0.000000 0.653764
O O5 0.659338 0.927975 0.158443
O O6 0.797087 0.829556 0.173812
O O7 0.625742 0.789057 0.123657
O O8 0.638014 0.834105 0.295816
O O9 0.500000 0.000000 0.881564
O O10 0.649848 0.000000 0.000000
O O11 0.000000 0.185176 0.863580
O O12 0.132183 0.187838 0.000000
O O13 0.342067 0.839254 0.500000
O O14 0.250000 0.750000 0.605244
#
# Coordination Sequence:
#
# PCOD9489855 Si02
#       5
#    16  16   8  16  16
#     4   8  15  29  50  74 100 136 185 236 281 329
#     4  11  21  38  60  87 119 156 200 244 292 355
#     4  11  24  42  66  92 118 153 198 248 300 360
#     4  10  20  37  62  88 115 149 193 249 309 362
#     4  10  20  35  53  80 117 157 194 236 291 344
#
# _framework density 20.253038
#
# number of rings (size 3 to 8) (size 9 to 14) (size 15 to 20)
#    0.000    2.111    2.222    4.000    1.556    2.667 
#    0.000    0.556    0.000    5.333    0.000    0.000 
#    0.000    0.000    0.000    0.000    0.000    0.000 
#
# Total GULP energy -200564.803204 kJ/mol
# GULP energy per Si atom -5571.244533 kJ/mol
# Density = 2.020694 g / cm^3
# Si number density = 20.253038 Si / 1000 Ang^3
#
#
#
# Elastic Constant Matrix: (Units=GPa)
#
#
# Indices 1 2 3 4 5 6 
#
# 1 51.1931 1.5265 7.0388 0.0000 0.0000 0.0000
# 2 1.5265 89.3465 27.9970 0.0000 0.0000 0.0000
# 3 7.0388 27.9970 135.0793 0.0000 0.0000 0.0000
# 4 0.0000 0.0000 0.0000 38.1591 0.0000 0.0000
# 5 0.0000 0.0000 0.0000 0.0000 0.8522 0.0000
# 6 0.0000 0.0000 0.0000 0.0000 0.0000 -7.4371
#
#
#
# Elastic Compliance Matrix: (Units=1/GPa)
#
#
# Indices 1 2 3 4 5 6 
#
# 1 0.019675 -0.000016 -0.001022 0.000000 0.000000 0.000000
# 2 -0.000016 0.011970 -0.002480 0.000000 0.000000 0.000000
# 3 -0.001022 -0.002480 0.007970 0.000000 0.000000 0.000000
# 4 0.000000 0.000000 0.000000 0.026206 0.000000 0.000000
# 5 0.000000 0.000000 0.000000 0.000000 1.173381 0.000000
# 6 0.000000 0.000000 0.000000 0.000000 0.000000 -0.134462
#
#
# Mechanical properties :
#
#
# Convention : Reuss Voigt Hill
#
# Bulk Modulus (GPa) = 30.69447 38.74928 34.72188
# Shear Modulus (GPa) = 4.45381 22.25197 13.35289
#
# Velocity S-wave (km/s) = 1.48454 3.31826 2.57048
# Velocity P-wave (km/s) = 4.25757 5.81852 5.09814
#
# Compressibility (1/GPa) = 0.03257916
#
# Stress axis : x y z
#
# Youngs Moduli (GPa) = 50.82622 83.54366 125.46521
#
# Poissons Ratio (x) = 0.00133 0.12822
# Poissons Ratio (y) = 0.00081 0.31116
# Poissons Ratio (z) = 0.05194 0.20719
#
# Static dielectric constant tensor:
#      x y z
#    x 1.776800 0.000000 0.000000 
#    y 0.000000 1.698920 0.000000 
#    z 0.000000 0.000000 1.745020 
# 
# From -- ./inp_files/39806.got.cif
#   From: 2010.05.17/outbox.cif.g08.bks.cpg/sg65_20_cif.got.tgz:39806.got - 2010.06.03 17:01:31.
