data_PCOD9489655
_publ_section_title
;
Structure prediction by ZEFSAII (Michael W. Deem and Ramdas Pophale) SiO2 
 PCOD9489655
Probable space group: C M M M
;
_chemical_formula_sum "Si O2"
_cell_formula_units_Z 88
_cell_length_a 7.605610
_cell_length_b 32.178589
_cell_length_c 17.549326
_cell_angle_alpha 90.000000
_cell_angle_beta 90.000000
_cell_angle_gamma 90.000000
_cell_volume 4294.983407
_symmetry_space_group_name_H-M "C M M M"
_symmetry_group_IT_number 65
_symmetry_cell_setting 'orthorhombic'
loop_
_space_group_symop_operation_xyz
x,y,z
-x,-y,z
x,-y,-z
-x,y,-z
-x,-y,-z
x,y,-z
-x,y,z
x,-y,z
1/2+x,1/2+y,z
1/2-x,1/2-y,z
1/2+x,1/2-y,-z
1/2-x,1/2+y,-z
1/2-x,1/2-y,-z
1/2+x,1/2+y,-z
1/2-x,1/2+y,z
1/2+x,1/2-y,z
loop_
_atom_site_type_symbol
_atom_site_label
_atom_site_fract_x
_atom_site_fract_y
_atom_site_fract_z
Si Si1 0.293564 0.628204 0.262285
Si Si2 0.199625 0.000000 0.592546
Si Si3 0.711120 0.575119 0.000000
Si Si4 0.293541 0.953980 0.831120
Si Si5 0.716586 0.409523 0.586989
Si Si6 0.785155 0.171929 0.000000
Si Si7 0.288878 0.296662 0.161823
O O1 0.500000 0.636772 0.272090
O O2 0.281403 0.585529 0.213992
O O3 0.222650 0.621038 0.347074
O O4 0.218067 0.666835 0.215753
O O5 0.279728 0.955677 0.611309
O O6 0.189855 0.000000 0.500000
O O7 0.000000 0.000000 0.622476
O O8 0.770511 0.553831 0.921658
O O9 0.500000 0.574496 0.000000
O O10 0.768080 0.623493 0.000000
O O11 0.500000 0.954317 0.814424
O O12 0.221508 0.000000 0.811620
O O13 0.769480 0.400857 0.500000
O O14 0.500000 0.411159 0.586565
O O15 0.723731 0.194615 0.923759
O O16 0.000000 0.171959 0.000000
O O17 0.500000 0.301079 0.158899
O O18 0.250000 0.250000 0.186594
#
# Coordination Sequence:
#
# PCOD9489655 Si02
#       7
#    16   8   8  16  16   8  16
#     4  10  20  34  55  80 105 136 178 225 266 312
#     4   7  10  18  34  62  99 128 153 196 251 299
#     4  11  20  37  60  78 102 138 182 228 261 297
#     4  11  24  38  51  74 111 149 182 217 258 309
#     4   8  14  25  44  74 107 134 166 215 268 309
#     4   9  17  33  53  75 104 127 157 213 263 305
#     4  10  20  35  53  76 103 132 169 216 267 318
#
# _framework density 20.48902
#
# number of rings (size 3 to 8) (size 9 to 14) (size 15 to 20)
#    0.000    2.455    1.818    2.455    1.273    3.273 
#    0.000    0.000    0.000    1.091    0.000    1.273 
#    0.000    0.000    0.000    0.000    0.000    0.000 
#
# Total GULP energy -245584.730112 kJ/mol
# GULP energy per Si atom -5581.471139 kJ/mol
# Density = 2.044239 g / cm^3
# Si number density = 20.489020 Si / 1000 Ang^3
#
#
#
# Elastic Constant Matrix: (Units=GPa)
#
#
# Indices 1 2 3 4 5 6 
#
# 1 44.5646 -2.3925 -0.4741 0.0000 0.0000 0.0000
# 2 -2.3925 153.0866 78.4291 0.0000 0.0000 0.0000
# 3 -0.4741 78.4291 144.1960 0.0000 0.0000 0.0000
# 4 0.0000 0.0000 0.0000 5.5683 0.0000 0.0000
# 5 0.0000 0.0000 0.0000 0.0000 -13.2839 0.0000
# 6 0.0000 0.0000 0.0000 0.0000 0.0000 12.6334
#
#
#
# Elastic Compliance Matrix: (Units=1/GPa)
#
#
# Indices 1 2 3 4 5 6 
#
# 1 0.022461 0.000434 -0.000162 0.000000 0.000000 0.000000
# 2 0.000434 0.009064 -0.004929 0.000000 0.000000 0.000000
# 3 -0.000162 -0.004929 0.009615 0.000000 0.000000 0.000000
# 4 0.000000 0.000000 0.000000 0.179587 0.000000 0.000000
# 5 0.000000 0.000000 0.000000 0.000000 -0.075279 0.000000
# 6 0.000000 0.000000 0.000000 0.000000 0.000000 0.079155
#
#
# Mechanical properties :
#
#
# Convention : Reuss Voigt Hill
#
# Bulk Modulus (GPa) = 31.42012 54.77468 43.09740
# Shear Modulus (GPa) = 20.44778 18.73589 19.59183
#
# Velocity S-wave (km/s) = 3.16252 3.02724 3.09562
# Velocity P-wave (km/s) = 5.35759 6.24585 5.81870
#
# Compressibility (1/GPa) = 0.03182675
#
# Stress axis : x y z
#
# Youngs Moduli (GPa) = 44.52178 110.32626 104.00264
#
# Poissons Ratio (x) = -0.04790 0.01688
# Poissons Ratio (y) = -0.01933 0.51258
# Poissons Ratio (z) = 0.00723 0.54375
#
# Static dielectric constant tensor:
#      x y z
#    x 1.766040 0.000000 0.000000 
#    y 0.000000 1.735940 0.000000 
#    z 0.000000 0.000000 1.736020 
# 
# From -- ./inp_files/50536.got.cif
#   From: 2010.05.17/outbox.cif.g08.bks.cpg/sg65_26_cif.got.tgz:50536.got - 2010.06.03 17:01:31.
