data_PCOD9489053
_publ_section_title
;
Structure prediction by ZEFSAII (Michael W. Deem and Ramdas Pophale) SiO2 
 PCOD9489053
Probable space group: C M M M
;
_chemical_formula_sum "Si O2"
_cell_formula_units_Z 56
_cell_length_a 30.289481
_cell_length_b 14.019325
_cell_length_c 8.601283
_cell_angle_alpha 90.000000
_cell_angle_beta 90.000000
_cell_angle_gamma 90.000000
_cell_volume 3652.432283
_symmetry_space_group_name_H-M "C M M M"
_symmetry_group_IT_number 65
_symmetry_cell_setting 'orthorhombic'
loop_
_space_group_symop_operation_xyz
x,y,z
-x,-y,z
x,-y,-z
-x,y,-z
-x,-y,-z
x,y,-z
-x,y,z
x,-y,z
1/2+x,1/2+y,z
1/2-x,1/2-y,z
1/2+x,1/2-y,-z
1/2-x,1/2+y,-z
1/2-x,1/2-y,-z
1/2+x,1/2+y,-z
1/2-x,1/2+y,z
1/2+x,1/2-y,z
loop_
_atom_site_type_symbol
_atom_site_label
_atom_site_fract_x
_atom_site_fract_y
_atom_site_fract_z
Si Si1 0.729505 0.109537 0.813521
Si Si2 0.683654 0.291568 0.685027
Si Si3 0.000000 0.115784 0.819231
Si Si4 0.096727 0.887935 0.811327
O O1 0.695766 0.184955 0.739848
O O2 0.778100 0.141950 0.758292
O O3 0.721287 0.000000 0.769804
O O4 0.727693 0.117808 0.000000
O O5 0.686571 0.297427 0.500000
O O6 0.636384 0.326903 0.743346
O O7 0.047850 0.143465 0.754134
O O8 0.000000 0.000000 0.819005
O O9 0.000000 0.145732 0.000000
O O10 0.102862 0.000000 0.771542
O O11 0.097128 0.882311 0.000000
#
# Coordination Sequence:
#
# PCOD9489053 Si02
#       4
#    16  16   8  16
#     4  10  20  34  50  65  84 114 152 190 221 253
#     4  11  21  30  44  67  94 121 146 176 219 269
#     4   7  12  24  43  65  86 113 150 187 219 250
#     4   9  16  28  46  66  90 120 153 186 217 254
#
# _framework density 15.332248
#
# number of rings (size 3 to 8) (size 9 to 14) (size 15 to 20)
#    0.000    2.429    0.000    7.714    0.000    6.286 
#    0.000    0.714    0.000    2.571    0.000    1.000 
#    0.000    8.000    0.000    0.000    0.000    0.000 
#
# Total GULP energy -156068.805572 kJ/mol
# GULP energy per Si atom -5573.885913 kJ/mol
# Density = 1.529735 g / cm^3
# Si number density = 15.332248 Si / 1000 Ang^3
#
#
#
# Elastic Constant Matrix: (Units=GPa)
#
#
# Indices 1 2 3 4 5 6 
#
# 1 144.1641 52.2874 19.1946 0.0000 0.0000 0.0000
# 2 52.2874 73.6889 14.6971 0.0000 0.0000 0.0000
# 3 19.1946 14.6971 31.1336 0.0000 0.0000 0.0000
# 4 0.0000 0.0000 0.0000 -48.6477 0.0000 0.0000
# 5 0.0000 0.0000 0.0000 0.0000 -20.3520 0.0000
# 6 0.0000 0.0000 0.0000 0.0000 0.0000 22.2995
#
#
#
# Elastic Compliance Matrix: (Units=1/GPa)
#
#
# Indices 1 2 3 4 5 6 
#
# 1 0.009584 -0.006207 -0.002979 0.000000 0.000000 0.000000
# 2 -0.006207 0.019000 -0.005143 0.000000 0.000000 0.000000
# 3 -0.002979 -0.005143 0.036384 0.000000 0.000000 0.000000
# 4 0.000000 0.000000 0.000000 -0.020556 0.000000 0.000000
# 5 0.000000 0.000000 0.000000 0.000000 -0.049135 0.000000
# 6 0.000000 0.000000 0.000000 0.000000 0.000000 0.044844
#
#
# Mechanical properties :
#
#
# Convention : Reuss Voigt Hill
#
# Bulk Modulus (GPa) = 27.53939 46.81612 37.17775
# Shear Modulus (GPa) = 61.81819 1.51379 31.66599
#
# Velocity S-wave (km/s) = 6.35662 0.99472 4.54951
# Velocity P-wave (km/s) = 8.47798 5.64978 7.20403
#
# Compressibility (1/GPa) = 0.03631163
#
# Stress axis : x y z
#
# Youngs Moduli (GPa) = 104.33785 52.63078 27.48458
#
# Poissons Ratio (x) = 0.32665 0.08188
# Poissons Ratio (y) = 0.64758 0.14135
# Poissons Ratio (z) = 0.31082 0.27068
#
# Static dielectric constant tensor:
#      x y z
#    x 1.521570 0.000000 0.000000 
#    y 0.000000 1.492050 0.000000 
#    z 0.000000 0.000000 1.510160 
# 
# From -- ./inp_files/7503.got.cif
#   From: 2010.05.17/outbox.cif.g08.bks.cpg/sg65_4_cif.got.tgz:7503.got - 2010.06.03 17:01:31.
