data_PCOD9489235
_publ_section_title
;
Structure prediction by ZEFSAII (Michael W. Deem and Ramdas Pophale) SiO2 
 PCOD9489235
Probable space group: C M M M
;
_chemical_formula_sum "Si O2"
_cell_formula_units_Z 88
_cell_length_a 25.085312
_cell_length_b 23.354976
_cell_length_c 8.690052
_cell_angle_alpha 90.000000
_cell_angle_beta 90.000000
_cell_angle_gamma 90.000000
_cell_volume 5091.213476
_symmetry_space_group_name_H-M "C M M M"
_symmetry_group_IT_number 65
_symmetry_cell_setting 'orthorhombic'
loop_
_space_group_symop_operation_xyz
x,y,z
-x,-y,z
x,-y,-z
-x,y,-z
-x,-y,-z
x,y,-z
-x,y,z
x,-y,z
1/2+x,1/2+y,z
1/2-x,1/2-y,z
1/2+x,1/2-y,-z
1/2-x,1/2+y,-z
1/2-x,1/2-y,-z
1/2+x,1/2+y,-z
1/2-x,1/2+y,z
1/2+x,1/2-y,z
loop_
_atom_site_type_symbol
_atom_site_label
_atom_site_fract_x
_atom_site_fract_y
_atom_site_fract_z
Si Si1 0.265128 0.433052 0.684033
Si Si2 0.149747 0.566103 0.185846
Si Si3 0.438190 0.717405 0.315821
Si Si4 0.438668 0.500000 0.812626
Si Si5 0.938757 0.342633 0.814157
Si Si6 0.127369 0.887754 0.184559
O O1 0.265987 0.429373 0.500000
O O2 0.273573 0.500000 0.728434
O O3 0.206928 0.416685 0.746092
O O4 0.313044 0.396705 0.754157
O O5 0.139370 0.500000 0.231245
O O6 0.102756 0.608665 0.234461
O O7 0.153083 0.567612 0.000000
O O8 0.434826 0.716520 0.500000
O O9 0.500000 0.705669 0.271258
O O10 0.425116 0.780765 0.254945
O O11 0.400362 0.669267 0.246051
O O12 0.500000 0.500000 0.760535
O O13 0.407382 0.442994 0.763697
O O14 0.439131 0.500000 0.000000
O O15 0.000000 0.356184 0.770424
O O16 0.936973 0.338673 0.000000
O O17 0.127847 0.887074 0.000000
#
# Coordination Sequence:
#
# PCOD9489235 Si02
#       6
#    16  16  16   8  16  16
#     4  10  20  34  52  75 107 143 178 216 262 315
#     4   9  18  33  55  82 110 138 172 214 261 314
#     4  10  21  36  53  75 106 143 179 216 262 315
#     4   9  18  30  47  75 105 131 166 215 264 307
#     4   9  18  34  56  81 108 139 174 213 260 314
#     4  11  20  33  54  77 104 138 179 223 265 312
#
# _framework density 17.284680999999999
#
# number of rings (size 3 to 8) (size 9 to 14) (size 15 to 20)
#    0.000    2.273    0.909    2.182    0.000    3.636 
#    0.000    2.727    0.000    7.636    0.000    5.091 
#    0.000    0.000    0.000    0.000    0.000    0.000 
#
# Total GULP energy -245567.974808 kJ/mol
# GULP energy per Si atom -5581.090337 kJ/mol
# Density = 1.724534 g / cm^3
# Si number density = 17.284681 Si / 1000 Ang^3
#
#
#
# Elastic Constant Matrix: (Units=GPa)
#
#
# Indices 1 2 3 4 5 6 
#
# 1 161.6703 120.6471 42.5661 0.0000 0.0000 0.0000
# 2 120.6471 130.6925 38.8170 0.0000 0.0000 0.0000
# 3 42.5661 38.8170 28.7012 0.0000 0.0000 0.0000
# 4 0.0000 0.0000 0.0000 17.8201 0.0000 0.0000
# 5 0.0000 0.0000 0.0000 0.0000 20.6686 0.0000
# 6 0.0000 0.0000 0.0000 0.0000 0.0000 27.1031
#
#
#
# Elastic Compliance Matrix: (Units=1/GPa)
#
#
# Indices 1 2 3 4 5 6 
#
# 1 0.020983 -0.016927 -0.008227 0.000000 0.000000 0.000000
# 2 -0.016927 0.026443 -0.010659 0.000000 0.000000 0.000000
# 3 -0.008227 -0.010659 0.061459 0.000000 0.000000 0.000000
# 4 0.000000 0.000000 0.000000 0.056116 0.000000 0.000000
# 5 0.000000 0.000000 0.000000 0.000000 0.048382 0.000000
# 6 0.000000 0.000000 0.000000 0.000000 0.000000 0.036896
#
#
# Mechanical properties :
#
#
# Convention : Reuss Voigt Hill
#
# Bulk Modulus (GPa) = 26.83889 80.56935 53.70412
# Shear Modulus (GPa) = 14.95539 21.05396 18.00467
#
# Velocity S-wave (km/s) = 2.94469 3.49387 3.23097
# Velocity P-wave (km/s) = 5.20796 7.93666 6.71243
#
# Compressibility (1/GPa) = 0.03725936
#
# Stress axis : x y z
#
# Youngs Moduli (GPa) = 47.65681 37.81655 16.27092
#
# Poissons Ratio (x) = 0.64012 0.13386
# Poissons Ratio (y) = 0.80669 0.17344
# Poissons Ratio (z) = 0.39207 0.40310
#
# Static dielectric constant tensor:
#      x y z
#    x 1.570840 0.000000 0.000000 
#    y 0.000000 1.562510 0.000000 
#    z 0.000000 0.000000 1.574740 
# 
# From -- ./inp_files/11699.got.cif
#   From: 2010.05.17/outbox.cif.g08.bks.cpg/sg65_6_cif.got.tgz:11699.got - 2010.06.03 17:01:31.
