data_PCOD9489368
_publ_section_title
;
Structure prediction by ZEFSAII (Michael W. Deem and Ramdas Pophale) SiO2 
 PCOD9489368
Probable space group: C M M M
;
_chemical_formula_sum "Si O2"
_cell_formula_units_Z 104
_cell_length_a 21.728315
_cell_length_b 29.339168
_cell_length_c 8.555004
_cell_angle_alpha 90.000000
_cell_angle_beta 90.000000
_cell_angle_gamma 90.000000
_cell_volume 5453.735353
_symmetry_space_group_name_H-M "C M M M"
_symmetry_group_IT_number 65
_symmetry_cell_setting 'orthorhombic'
loop_
_space_group_symop_operation_xyz
x,y,z
-x,-y,z
x,-y,-z
-x,y,-z
-x,-y,-z
x,y,-z
-x,y,z
x,-y,z
1/2+x,1/2+y,z
1/2-x,1/2-y,z
1/2+x,1/2-y,-z
1/2-x,1/2+y,-z
1/2-x,1/2-y,-z
1/2+x,1/2+y,-z
1/2-x,1/2+y,z
1/2+x,1/2-y,z
loop_
_atom_site_type_symbol
_atom_site_label
_atom_site_fract_x
_atom_site_fract_y
_atom_site_fract_z
Si Si1 0.319815 0.200519 0.309640
Si Si2 0.818951 0.806206 0.311408
Si Si3 0.123565 0.105675 0.813106
Si Si4 0.757816 0.945448 0.680721
Si Si5 0.500000 0.446826 0.809120
Si Si6 0.067328 0.360002 0.312064
Si Si7 0.124321 0.552107 0.185866
O O1 0.319174 0.199317 0.500000
O O2 0.251847 0.183783 0.261397
O O3 0.329107 0.253473 0.266770
O O4 0.375837 0.169981 0.251692
O O5 0.821448 0.809062 0.500000
O O6 0.866227 0.842570 0.242998
O O7 0.182878 0.078616 0.750915
O O8 0.061268 0.080383 0.758762
O O9 0.123480 0.104685 0.000000
O O10 0.750239 0.931520 0.500000
O O11 0.694486 0.935356 0.769599
O O12 0.766732 0.000000 0.687298
O O13 0.500000 0.500000 0.759036
O O14 0.500000 0.447355 0.000000
O O15 0.067960 0.356566 0.500000
O O16 0.079902 0.411858 0.265275
O O17 0.000000 0.345087 0.256196
O O18 0.114298 0.500000 0.238820
O O19 0.117006 0.553810 0.000000
#
# Coordination Sequence:
#
# PCOD9489368 Si02
#       7
#    16  16  16  16   8  16  16
#     4   8  16  33  55  78 105 140 178 219 269 328
#     4   9  17  33  57  80 105 137 176 224 276 323
#     4  11  21  34  54  80 108 142 184 227 271 324
#     4  10  20  34  54  80 108 137 173 221 274 323
#     4   9  20  38  55  71 103 153 195 223 262 325
#     4  10  20  34  53  77 106 143 186 225 266 319
#     4  10  21  36  54  78 108 141 178 220 267 321
#
# _framework density 19.069499
#
# number of rings (size 3 to 8) (size 9 to 14) (size 15 to 20)
#    0.000    2.385    0.000    3.692    0.000    4.308 
#    1.385    5.385    0.000    2.769    0.000    0.000 
#    0.000    0.000    0.000    0.000    0.000    0.000 
#
# Total GULP energy -290235.296381 kJ/mol
# GULP energy per Si atom -5581.448007 kJ/mol
# Density = 1.902610 g / cm^3
# Si number density = 19.069499 Si / 1000 Ang^3
#
#
#
# Elastic Constant Matrix: (Units=GPa)
#
#
# Indices 1 2 3 4 5 6 
#
# 1 93.3169 61.3325 -1.1560 0.0000 0.0000 0.0000
# 2 61.3325 90.4124 4.8552 0.0000 0.0000 0.0000
# 3 -1.1560 4.8552 3.9938 0.0000 0.0000 0.0000
# 4 0.0000 0.0000 0.0000 22.6638 0.0000 0.0000
# 5 0.0000 0.0000 0.0000 0.0000 19.5021 0.0000
# 6 0.0000 0.0000 0.0000 0.0000 0.0000 20.0772
#
#
#
# Elastic Compliance Matrix: (Units=1/GPa)
#
#
# Indices 1 2 3 4 5 6 
#
# 1 0.021548 -0.015997 0.025684 0.000000 0.000000 0.000000
# 2 -0.015997 0.023709 -0.033452 0.000000 0.000000 0.000000
# 3 0.025684 -0.033452 0.298487 0.000000 0.000000 0.000000
# 4 0.000000 0.000000 0.000000 0.044123 0.000000 0.000000
# 5 0.000000 0.000000 0.000000 0.000000 0.051277 0.000000
# 6 0.000000 0.000000 0.000000 0.000000 0.000000 0.049808
#
#
# Mechanical properties :
#
#
# Convention : Reuss Voigt Hill
#
# Bulk Modulus (GPa) = 3.37594 35.30961 19.34277
# Shear Modulus (GPa) = 7.87129 20.62802 14.24966
#
# Velocity S-wave (km/s) = 2.03388 3.29253 2.73655
# Velocity P-wave (km/s) = 2.69995 5.74551 4.48891
#
# Compressibility (1/GPa) = 0.29621422
#
# Stress axis : x y z
#
# Youngs Moduli (GPa) = 46.40739 42.17887 3.35023
#
# Poissons Ratio (x) = 0.67473 -0.08605
# Poissons Ratio (y) = 0.74237 0.11207
# Poissons Ratio (z) = -1.19194 1.41098
#
# Static dielectric constant tensor:
#      x y z
#    x 1.655410 0.000000 0.000000 
#    y 0.000000 1.672000 0.000000 
#    z 0.000000 0.000000 1.652010 
# 
# From -- ./inp_files/12770.got.cif
#   From: 2010.05.17/outbox.cif.g08.bks.cpg/sg65_7_cif.got.tgz:12770.got - 2010.06.03 17:01:31.
