data_PCOD9489127
_publ_section_title
;
Structure prediction by ZEFSAII (Michael W. Deem and Ramdas Pophale) SiO2 
 PCOD9489127
Probable space group: C M M M
;
_chemical_formula_sum "Si O2"
_cell_formula_units_Z 88
_cell_length_a 18.490482
_cell_length_b 14.092457
_cell_length_c 19.111581
_cell_angle_alpha 90.000000
_cell_angle_beta 90.000000
_cell_angle_gamma 90.000000
_cell_volume 4980.025494
_symmetry_space_group_name_H-M "C M M M"
_symmetry_group_IT_number 65
_symmetry_cell_setting 'orthorhombic'
loop_
_space_group_symop_operation_xyz
x,y,z
-x,-y,z
x,-y,-z
-x,y,-z
-x,-y,-z
x,y,-z
-x,y,z
x,-y,z
1/2+x,1/2+y,z
1/2-x,1/2-y,z
1/2+x,1/2-y,-z
1/2-x,1/2+y,-z
1/2-x,1/2-y,-z
1/2+x,1/2+y,-z
1/2-x,1/2+y,z
1/2+x,1/2-y,z
loop_
_atom_site_type_symbol
_atom_site_label
_atom_site_fract_x
_atom_site_fract_y
_atom_site_fract_z
Si Si1 0.587926 0.712200 0.779588
Si Si2 0.784301 0.890326 0.415958
Si Si3 0.829399 0.790197 0.079421
Si Si4 0.419968 0.500000 0.772806
Si Si5 0.627201 0.500000 0.924622
Si Si6 0.641788 0.207596 0.359237
Si Si7 0.500000 0.107846 0.583321
O O1 0.500000 0.716119 0.776267
O O2 0.615776 0.733741 0.857824
O O3 0.611882 0.603866 0.758814
O O4 0.625628 0.778805 0.722727
O O5 0.773697 0.883259 0.500000
O O6 0.710471 0.857701 0.377890
O O7 0.841841 0.811095 0.392503
O O8 0.802581 0.000000 0.399707
O O9 0.750000 0.750000 0.093428
O O10 0.826542 0.904628 0.079118
O O11 0.851439 0.761408 0.000000
O O12 0.500000 0.500000 0.741348
O O13 0.423449 0.500000 0.857566
O O14 0.589166 0.500000 0.000000
O O15 0.570963 0.161968 0.392010
O O16 0.500000 0.104246 0.500000
O O17 0.500000 0.000000 0.610636
#
# Coordination Sequence:
#
# PCOD9489127 Si02
#       7
#    16  16  16   8   8  16   8
#     4  10  20  34  51  77 113 146 181 224 276 334
#     4  10  22  40  60  82 110 147 191 236 285 338
#     4   9  18  32  53  78 104 139 182 227 272 322
#     4   8  16  29  46  68 102 143 171 203 263 326
#     4   8  14  27  46  72  99 124 168 220 260 309
#     4  11  21  36  57  85 115 146 186 234 281 338
#     4  11  22  38  63  87 112 148 186 231 283 333
#
# _framework density 17.670591999999999
#
# number of rings (size 3 to 8) (size 9 to 14) (size 15 to 20)
#    0.000    2.273    0.909    2.727    3.818    2.000 
#    0.000    4.091    2.000    1.636    0.000    0.000 
#    0.000    4.364    0.000    0.000    0.000    0.000 
#
# Total GULP energy -245058.046683 kJ/mol
# GULP energy per Si atom -5569.501061 kJ/mol
# Density = 1.763037 g / cm^3
# Si number density = 17.670592 Si / 1000 Ang^3
#
#
#
# Elastic Constant Matrix: (Units=GPa)
#
#
# Indices 1 2 3 4 5 6 
#
# 1 87.2060 55.6851 34.7808 0.0000 0.0000 0.0000
# 2 55.6851 94.7228 35.0441 0.0000 0.0000 0.0000
# 3 34.7808 35.0441 97.3425 0.0000 0.0000 0.0000
# 4 0.0000 0.0000 0.0000 23.0308 0.0000 0.0000
# 5 0.0000 0.0000 0.0000 0.0000 28.0762 0.0000
# 6 0.0000 0.0000 0.0000 0.0000 0.0000 15.0814
#
#
#
# Elastic Compliance Matrix: (Units=1/GPa)
#
#
# Indices 1 2 3 4 5 6 
#
# 1 0.019199 -0.010093 -0.003226 0.000000 0.000000 0.000000
# 2 -0.010093 0.017485 -0.002689 0.000000 0.000000 0.000000
# 3 -0.003226 -0.002689 0.012394 0.000000 0.000000 0.000000
# 4 0.000000 0.000000 0.000000 0.043420 0.000000 0.000000
# 5 0.000000 0.000000 0.000000 0.000000 0.035617 0.000000
# 6 0.000000 0.000000 0.000000 0.000000 0.000000 0.066307
#
#
# Mechanical properties :
#
#
# Convention : Reuss Voigt Hill
#
# Bulk Modulus (GPa) = 58.60934 58.92127 58.76530
# Shear Modulus (GPa) = 21.54023 23.48844 22.51434
#
# Velocity S-wave (km/s) = 3.49519 3.64983 3.57334
# Velocity P-wave (km/s) = 7.03763 7.15390 7.09600
#
# Compressibility (1/GPa) = 0.01706213
#
# Stress axis : x y z
#
# Youngs Moduli (GPa) = 52.08734 57.19168 80.68635
#
# Poissons Ratio (x) = 0.57722 0.26031
# Poissons Ratio (y) = 0.52570 0.21693
# Poissons Ratio (z) = 0.16805 0.15377
#
# Static dielectric constant tensor:
#      x y z
#    x 1.592480 0.000000 0.000000 
#    y 0.000000 1.617720 0.000000 
#    z 0.000000 0.000000 1.628910 
# 
# From -- ./inp_files/54386.got.cif
#   From: 2010.05.17/outbox.cif.g08.bks.cpg/sg65_28_cif.got.tgz:54386.got - 2010.06.03 17:01:31.
