data_PCOD9489033
_publ_section_title
;
Structure prediction by ZEFSAII (Michael W. Deem and Ramdas Pophale) SiO2 
 PCOD9489033
Probable space group: C M M M
;
_chemical_formula_sum "Si O2"
_cell_formula_units_Z 46
_cell_length_a 10.088201
_cell_length_b 17.131143
_cell_length_c 12.911402
_cell_angle_alpha 90.000000
_cell_angle_beta 90.000000
_cell_angle_gamma 90.000000
_cell_volume 2231.379661
_symmetry_space_group_name_H-M "C M M M"
_symmetry_group_IT_number 65
_symmetry_cell_setting 'orthorhombic'
loop_
_space_group_symop_operation_xyz
x,y,z
-x,-y,z
x,-y,-z
-x,y,-z
-x,-y,-z
x,y,-z
-x,y,z
x,-y,z
1/2+x,1/2+y,z
1/2-x,1/2-y,z
1/2+x,1/2-y,-z
1/2-x,1/2+y,-z
1/2-x,1/2-y,-z
1/2+x,1/2+y,-z
1/2-x,1/2+y,z
1/2+x,1/2-y,z
loop_
_atom_site_type_symbol
_atom_site_label
_atom_site_fract_x
_atom_site_fract_y
_atom_site_fract_z
Si Si1 0.500000 0.282617 0.000000
Si Si2 0.500000 0.213225 0.235523
Si Si3 0.500000 0.385253 0.697425
Si Si4 0.792643 0.585406 0.225580
Si Si5 0.223868 0.914320 0.000000
Si Si6 0.000000 0.000000 0.500000
O O1 0.500000 0.237807 0.111812
O O2 0.373654 0.340703 0.000000
O O3 0.500000 0.291808 0.301643
O O4 0.374155 0.159330 0.263420
O O5 0.635706 0.407553 0.755719
O O6 0.500000 0.431855 0.590757
O O7 0.834987 0.500000 0.265820
O O8 0.810725 0.587438 0.102465
O O9 0.155417 0.000000 0.000000
#
# Coordination Sequence:
#
# PCOD9489033 Si02
#       6
#     4   8   8  16   8   2
#     4  12  21  34  59  98 154 184 220 270 297 383
#     4  12  25  37  66 107 143 177 214 267 331 382
#     4  12  24  45  73  91 122 166 229 275 341 395
#     4  11  22  42  65  99 139 183 219 263 319 397
#     4  10  20  33  59  95 139 190 231 253 300 380
#     4  12  28  52  76 100 114 168 224 306 336 410
#
# _framework density 20.61505
#
# number of rings (size 3 to 8) (size 9 to 14) (size 15 to 20)
#    0.000    0.696    5.217    2.870    0.000    4.174 
#    0.000    6.957    0.000    1.043    0.000    0.000 
#    0.000    0.000    0.000    0.000    0.000    0.000 
#
# Total GULP energy -128109.071815 kJ/mol
# GULP energy per Si atom -5569.959644 kJ/mol
# Density = 2.056813 g / cm^3
# Si number density = 20.615050 Si / 1000 Ang^3
#
#
#
# Elastic Constant Matrix: (Units=GPa)
#
#
# Indices 1 2 3 4 5 6 
#
# 1 73.9194 55.1029 9.3229 0.0000 0.0000 0.0000
# 2 55.1029 220.5920 35.9931 0.0000 0.0000 0.0000
# 3 9.3229 35.9931 78.6428 0.0000 0.0000 0.0000
# 4 0.0000 0.0000 0.0000 14.9755 0.0000 0.0000
# 5 0.0000 0.0000 0.0000 0.0000 -3.7355 0.0000
# 6 0.0000 0.0000 0.0000 0.0000 0.0000 1706.1065
#
#
#
# Elastic Compliance Matrix: (Units=1/GPa)
#
#
# Indices 1 2 3 4 5 6 
#
# 1 0.016624 -0.004140 -0.000076 0.000000 0.000000 0.000000
# 2 -0.004140 0.005930 -0.002223 0.000000 0.000000 0.000000
# 3 -0.000076 -0.002223 0.013742 0.000000 0.000000 0.000000
# 4 0.000000 0.000000 0.000000 0.066776 0.000000 0.000000
# 5 0.000000 0.000000 0.000000 0.000000 -0.267702 0.000000
# 6 0.000000 0.000000 0.000000 0.000000 0.000000 0.000586
#
#
# Mechanical properties :
#
#
# Convention : Reuss Voigt Hill
#
# Bulk Modulus (GPa) = 42.70252 63.77690 53.23971
# Shear Modulus (GPa) = -34.87768 361.65164 163.38698
#
# Velocity S-wave (km/s) = -4.11768 13.25940 8.91225
# Velocity P-wave (km/s) = 1.35935 16.29171 11.47981
#
# Compressibility (1/GPa) = 0.02341782
#
# Stress axis : x y z
#
# Youngs Moduli (GPa) = 60.15338 168.62701 72.76813
#
# Poissons Ratio (x) = 0.69816 0.00552
# Poissons Ratio (y) = 0.24905 0.16179
# Poissons Ratio (z) = 0.00456 0.37491
#
# Static dielectric constant tensor:
#      x y z
#    x 1.771280 0.000000 0.000000 
#    y 0.000000 1.797730 0.000000 
#    z 0.000000 0.000000 1.693560 
# 
# From -- ./inp_files/37392.got.cif
#   From: 2010.05.17/outbox.cif.g08.bks.cpg/sg65_19_cif.got.tgz:37392.got - 2010.06.03 17:01:31.
