data_PCOD9489445
_publ_section_title
;
Structure prediction by ZEFSAII (Michael W. Deem and Ramdas Pophale) SiO2 
 PCOD9489445
Probable space group: C M M M
;
_chemical_formula_sum "Si O2"
_cell_formula_units_Z 108
_cell_length_a 27.733565
_cell_length_b 10.347938
_cell_length_c 22.309967
_cell_angle_alpha 90.000000
_cell_angle_beta 90.000000
_cell_angle_gamma 90.000000
_cell_volume 6402.630590
_symmetry_space_group_name_H-M "C M M M"
_symmetry_group_IT_number 65
_symmetry_cell_setting 'orthorhombic'
loop_
_space_group_symop_operation_xyz
x,y,z
-x,-y,z
x,-y,-z
-x,y,-z
-x,-y,-z
x,y,-z
-x,y,z
x,-y,z
1/2+x,1/2+y,z
1/2-x,1/2-y,z
1/2+x,1/2-y,-z
1/2-x,1/2+y,-z
1/2-x,1/2-y,-z
1/2+x,1/2+y,-z
1/2-x,1/2+y,z
1/2+x,1/2-y,z
loop_
_atom_site_type_symbol
_atom_site_label
_atom_site_fract_x
_atom_site_fract_y
_atom_site_fract_z
Si Si1 0.336414 0.000000 0.000000
Si Si2 0.943573 0.850883 0.281827
Si Si3 0.707811 0.149737 0.570845
Si Si4 0.153002 0.266283 0.095084
Si Si5 0.206019 0.348261 0.782962
Si Si6 0.445166 0.346443 0.861794
Si Si7 0.131576 0.648373 0.672316
Si Si8 0.212264 0.135847 0.000000
O O1 0.340817 0.112667 0.051973
O O2 0.939379 0.829973 0.209981
O O3 0.910351 0.750049 0.315852
O O4 0.000000 0.836239 0.296761
O O5 0.929612 0.000000 0.293511
O O6 0.697624 0.163231 0.500000
O O7 0.750000 0.250000 0.586511
O O8 0.661386 0.173555 0.611769
O O9 0.722766 0.000000 0.581655
O O10 0.178696 0.299273 0.157543
O O11 0.097542 0.229195 0.106020
O O12 0.180079 0.151387 0.059132
O O13 0.220535 0.500000 0.789989
O O14 0.250000 0.250000 0.772784
O O15 0.169572 0.341677 0.727047
O O16 0.500000 0.307104 0.877771
O O17 0.440797 0.500000 0.873902
O O18 0.113752 0.500000 0.671301
O O19 0.250000 0.250000 0.000000
O O20 0.240718 0.000000 0.000000
#
# Coordination Sequence:
#
# PCOD9489445 Si02
#       8
#     4  16  16  16  16  16  16   8
#     4  10  24  38  57  72 102 148 168 220 257 334
#     4   9  18  33  55  83 112 141 177 223 275 329
#     4   9  18  33  53  78 113 154 192 227 266 319
#     4  11  21  39  59  74 107 135 177 214 275 314
#     4  11  23  36  54  79 109 138 175 223 272 316
#     4   9  18  35  60  85 106 133 172 221 276 334
#     4  10  20  34  53  82 114 143 181 225 274 323
#     4  11  26  39  57  78  98 134 181 216 260 323
#
# _framework density 16.868067
#
# number of rings (size 3 to 8) (size 9 to 14) (size 15 to 20)
#    0.000    2.074    2.222    2.222    2.074    3.852 
#    0.000    2.222    0.000    4.444    0.000    3.111 
#    0.000    0.000    0.000    0.000    0.000    0.000 
#
# Total GULP energy -300806.762136 kJ/mol
# GULP energy per Si atom -5570.495595 kJ/mol
# Density = 1.682967 g / cm^3
# Si number density = 16.868067 Si / 1000 Ang^3
#
#
#
# Elastic Constant Matrix: (Units=GPa)
#
#
# Indices 1 2 3 4 5 6 
#
# 1 20.2785 -6.3949 -1.7942 0.0000 0.0000 0.0000
# 2 -6.3949 30.6064 2.0432 0.0000 0.0000 0.0000
# 3 -1.7942 2.0432 36.2933 0.0000 0.0000 0.0000
# 4 0.0000 0.0000 0.0000 38.6995 0.0000 0.0000
# 5 0.0000 0.0000 0.0000 0.0000 23.2254 0.0000
# 6 0.0000 0.0000 0.0000 0.0000 0.0000 31.6177
#
#
#
# Elastic Compliance Matrix: (Units=1/GPa)
#
#
# Indices 1 2 3 4 5 6 
#
# 1 0.052936 0.010927 0.002002 0.000000 0.000000 0.000000
# 2 0.010927 0.035052 -0.001433 0.000000 0.000000 0.000000
# 3 0.002002 -0.001433 0.027733 0.000000 0.000000 0.000000
# 4 0.000000 0.000000 0.000000 0.025840 0.000000 0.000000
# 5 0.000000 0.000000 0.000000 0.000000 0.043056 0.000000
# 6 0.000000 0.000000 0.000000 0.000000 0.000000 0.031628
#
#
# Mechanical properties :
#
#
# Convention : Reuss Voigt Hill
#
# Bulk Modulus (GPa) = 7.20918 8.32072 7.76495
# Shear Modulus (GPa) = 20.87755 24.93011 22.90383
#
# Velocity S-wave (km/s) = 3.52191 3.84858 3.68886
# Velocity P-wave (km/s) = 4.56307 4.96913 4.77042
#
# Compressibility (1/GPa) = 0.13871200
#
# Stress axis : x y z
#
# Youngs Moduli (GPa) = 18.89061 28.52931 36.05819
#
# Poissons Ratio (x) = -0.31174 -0.07218
# Poissons Ratio (y) = -0.20642 0.05168
# Poissons Ratio (z) = -0.03781 0.04089
#
# Static dielectric constant tensor:
#      x y z
#    x 1.574240 0.000000 0.000000 
#    y 0.000000 1.585460 0.000000 
#    z 0.000000 0.000000 1.556500 
# 
# From -- ./inp_files/65462.got.cif
#   From: 2010.05.17/outbox.cif.g08.bks.cpg/sg65_33_cif.got.tgz:65462.got - 2010.06.03 17:01:31.
