data_PCOD9489098
_publ_section_title
;
Structure prediction by ZEFSAII (Michael W. Deem and Ramdas Pophale) SiO2 
 PCOD9489098
Probable space group: C M M M
;
_chemical_formula_sum "Si O2"
_cell_formula_units_Z 104
_cell_length_a 8.570259
_cell_length_b 31.462559
_cell_length_c 20.949708
_cell_angle_alpha 90.000000
_cell_angle_beta 90.000000
_cell_angle_gamma 90.000000
_cell_volume 5648.927019
_symmetry_space_group_name_H-M "C M M M"
_symmetry_group_IT_number 65
_symmetry_cell_setting 'orthorhombic'
loop_
_space_group_symop_operation_xyz
x,y,z
-x,-y,z
x,-y,-z
-x,y,-z
-x,-y,-z
x,y,-z
-x,y,z
x,-y,z
1/2+x,1/2+y,z
1/2-x,1/2-y,z
1/2+x,1/2-y,-z
1/2-x,1/2+y,-z
1/2-x,1/2-y,-z
1/2+x,1/2+y,-z
1/2-x,1/2+y,z
1/2+x,1/2-y,z
loop_
_atom_site_type_symbol
_atom_site_label
_atom_site_fract_x
_atom_site_fract_y
_atom_site_fract_z
Si Si1 0.320793 0.204131 0.746751
Si Si2 0.819314 0.294916 0.593466
Si Si3 0.179869 0.551541 0.000000
Si Si4 0.189780 0.450370 0.859723
Si Si5 0.322786 0.941622 0.500000
Si Si6 0.186635 0.110492 0.749173
Si Si7 0.187699 0.953411 0.640506
Si Si8 0.674788 0.643126 0.500000
O O1 0.500000 0.202916 0.767829
O O2 0.250000 0.250000 0.767291
O O3 0.315537 0.204213 0.669642
O O4 0.242854 0.158665 0.761946
O O5 0.750000 0.250000 0.572853
O O6 0.705820 0.329069 0.562279
O O7 0.000000 0.300206 0.573930
O O8 0.246607 0.563134 0.930854
O O9 0.176003 0.500000 0.000000
O O10 0.000000 0.566298 0.000000
O O11 0.232001 0.500000 0.849498
O O12 0.257484 0.420152 0.805855
O O13 0.000000 0.448355 0.859337
O O14 0.500000 0.955483 0.500000
O O15 0.243332 0.953222 0.567166
O O16 0.308346 0.891305 0.500000
O O17 0.243550 0.086432 0.683710
O O18 0.000000 0.111366 0.745919
O O19 0.000000 0.951593 0.640016
O O20 0.233977 0.000000 0.667986
O O21 0.500000 0.624991 0.500000
#
# Coordination Sequence:
#
# PCOD9489098 Si02
#       8
#    16  16   8  16   8  16  16   8
#     4  10  21  37  56  76 100 132 170 214 264 316
#     4  10  20  34  51  71  94 120 154 201 257 316
#     4   7  12  26  49  77 110 149 188 221 257 305
#     4   9  17  31  53  81 114 151 188 224 262 307
#     4  12  25  38  53  73  95 124 169 223 272 317
#     4  11  22  35  54  81 111 142 178 220 266 317
#     4  10  22  40  58  75 101 139 178 216 264 322
#     4  12  23  34  49  68  92 123 159 201 252 313
#
# _framework density 18.410575999999999
#
# number of rings (size 3 to 8) (size 9 to 14) (size 15 to 20)
#    0.000    1.923    0.000    5.538    0.000    7.692 
#    0.000    0.385    0.000    1.385    0.000    0.538 
#    0.000    0.000    0.000    0.000    0.000    0.000 
#
# Total GULP energy -289875.046619 kJ/mol
# GULP energy per Si atom -5574.520127 kJ/mol
# Density = 1.836867 g / cm^3
# Si number density = 18.410576 Si / 1000 Ang^3
#
#
#
# Elastic Constant Matrix: (Units=GPa)
#
#
# Indices 1 2 3 4 5 6 
#
# 1 63.3052 38.9536 20.2908 0.0000 0.0000 0.0000
# 2 38.9536 139.2961 47.0010 0.0000 0.0000 0.0000
# 3 20.2908 47.0010 88.7913 0.0000 0.0000 0.0000
# 4 0.0000 0.0000 0.0000 5.6820 0.0000 0.0000
# 5 0.0000 0.0000 0.0000 0.0000 17.1178 0.0000
# 6 0.0000 0.0000 0.0000 0.0000 0.0000 21.3963
#
#
#
# Elastic Compliance Matrix: (Units=1/GPa)
#
#
# Indices 1 2 3 4 5 6 
#
# 1 0.019338 -0.004768 -0.001895 0.000000 0.000000 0.000000
# 2 -0.004768 0.009916 -0.004159 0.000000 0.000000 0.000000
# 3 -0.001895 -0.004159 0.013897 0.000000 0.000000 0.000000
# 4 0.000000 0.000000 0.000000 0.175993 0.000000 0.000000
# 5 0.000000 0.000000 0.000000 0.000000 0.058419 0.000000
# 6 0.000000 0.000000 0.000000 0.000000 0.000000 0.046737
#
#
# Mechanical properties :
#
#
# Convention : Reuss Voigt Hill
#
# Bulk Modulus (GPa) = 46.49941 55.98706 51.24324
# Shear Modulus (GPa) = 14.15976 21.18237 17.67106
#
# Velocity S-wave (km/s) = 2.77629 3.39566 3.10148
# Velocity P-wave (km/s) = 5.96563 6.77129 6.38119
#
# Compressibility (1/GPa) = 0.02150565
#
# Stress axis : x y z
#
# Youngs Moduli (GPa) = 51.71154 100.84932 71.95766
#
# Poissons Ratio (x) = 0.48089 0.13637
# Poissons Ratio (y) = 0.24658 0.29928
# Poissons Ratio (z) = 0.09800 0.41945
#
# Static dielectric constant tensor:
#      x y z
#    x 1.644510 0.000000 0.000000 
#    y 0.000000 1.676570 0.000000 
#    z 0.000000 0.000000 1.643880 
# 
# From -- ./inp_files/60952.got.cif
#   From: 2010.05.17/outbox.cif.g08.bks.cpg/sg65_31_cif.got.tgz:60952.got - 2010.06.03 17:01:31.
