data_PCOD9489060
_publ_section_title
;
Structure prediction by ZEFSAII (Michael W. Deem and Ramdas Pophale) SiO2 
 PCOD9489060
Probable space group: C M M M
;
_chemical_formula_sum "Si O2"
_cell_formula_units_Z 104
_cell_length_a 7.395114
_cell_length_b 26.948846
_cell_length_c 25.031724
_cell_angle_alpha 90.000000
_cell_angle_beta 90.000000
_cell_angle_gamma 90.000000
_cell_volume 4988.566978
_symmetry_space_group_name_H-M "C M M M"
_symmetry_group_IT_number 65
_symmetry_cell_setting 'orthorhombic'
loop_
_space_group_symop_operation_xyz
x,y,z
-x,-y,z
x,-y,-z
-x,y,-z
-x,-y,-z
x,y,-z
-x,y,z
x,-y,z
1/2+x,1/2+y,z
1/2-x,1/2-y,z
1/2+x,1/2-y,-z
1/2-x,1/2+y,-z
1/2-x,1/2-y,-z
1/2+x,1/2+y,-z
1/2-x,1/2+y,z
1/2+x,1/2-y,z
loop_
_atom_site_type_symbol
_atom_site_label
_atom_site_fract_x
_atom_site_fract_y
_atom_site_fract_z
Si Si1 0.222339 0.109224 0.061436
Si Si2 0.719393 0.941509 0.558466
Si Si3 0.208563 0.406053 0.670780
Si Si4 0.780068 0.445009 0.217128
Si Si5 0.791943 0.000000 0.064970
Si Si6 0.704719 0.342316 0.162723
Si Si7 0.785547 0.194530 0.272949
O O1 0.287001 0.053845 0.078448
O O2 0.284223 0.150314 0.103870
O O3 0.000000 0.107822 0.062832
O O4 0.273563 0.117963 0.000000
O O5 0.783753 0.075954 0.500000
O O6 0.500000 0.063001 0.557167
O O7 0.786824 0.084831 0.612197
O O8 0.760448 0.000000 0.562952
O O9 0.281179 0.436679 0.721434
O O10 0.214180 0.348942 0.689341
O O11 0.000000 0.422062 0.667097
O O12 0.730657 0.500000 0.198381
O O13 0.702889 0.398936 0.184688
O O14 0.000000 0.440985 0.215626
O O15 0.000000 0.000000 0.083095
O O16 0.794913 0.000000 0.000000
O O17 0.500000 0.323660 0.155906
O O18 0.788535 0.312651 0.212373
O O19 0.750000 0.250000 0.291686
O O20 0.000000 0.186363 0.269840
#
# Coordination Sequence:
#
# PCOD9489060 Si02
#       7
#    16  16  16  16   8  16  16
#     4   8  13  22  37  59  86 112 139 174 214 255
#     4   8  13  22  41  72 105 133 161 189 213 246
#     4   9  16  28  47  69  93 122 154 187 223 260
#     4   9  17  27  39  59  90 125 153 176 210 260
#     4   7  10  16  28  50  79 109 137 161 190 233
#     4   9  18  29  44  67  87 107 142 186 226 264
#     4  10  20  34  50  68  88 111 145 189 237 283
#
# _framework density 20.847670000000001
#
# number of rings (size 3 to 8) (size 9 to 14) (size 15 to 20)
#    0.000    3.308    0.000    2.308    1.077    2.769 
#    0.000    0.000    0.000    3.231    0.000    2.154 
#    0.000    0.000    0.000    0.000    0.000    0.462 
#
# Total GULP energy -289830.439546 kJ/mol
# GULP energy per Si atom -5573.662299 kJ/mol
# Density = 2.080022 g / cm^3
# Si number density = 20.847670 Si / 1000 Ang^3
#
#
#
# Elastic Constant Matrix: (Units=GPa)
#
#
# Indices 1 2 3 4 5 6 
#
# 1 74.8331 -12.5025 -0.8522 0.0000 0.0000 0.0000
# 2 -12.5025 39.5326 7.0568 0.0000 0.0000 0.0000
# 3 -0.8522 7.0568 131.6064 0.0000 0.0000 0.0000
# 4 0.0000 0.0000 0.0000 18.5932 0.0000 0.0000
# 5 0.0000 0.0000 0.0000 0.0000 1.3511 0.0000
# 6 0.0000 0.0000 0.0000 0.0000 0.0000 -15.8985
#
#
#
# Elastic Compliance Matrix: (Units=1/GPa)
#
#
# Indices 1 2 3 4 5 6 
#
# 1 0.014111 0.004490 -0.000149 0.000000 0.000000 0.000000
# 2 0.004490 0.026968 -0.001417 0.000000 0.000000 0.000000
# 3 -0.000149 -0.001417 0.007673 0.000000 0.000000 0.000000
# 4 0.000000 0.000000 0.000000 0.053783 0.000000 0.000000
# 5 0.000000 0.000000 0.000000 0.000000 0.740128 0.000000
# 6 0.000000 0.000000 0.000000 0.000000 0.000000 -0.062899
#
#
# Mechanical properties :
#
#
# Convention : Reuss Voigt Hill
#
# Bulk Modulus (GPa) = 18.31516 25.93070 22.12293
# Shear Modulus (GPa) = 6.31218 17.62716 11.96967
#
# Velocity S-wave (km/s) = 1.74193 2.91094 2.39874
# Velocity P-wave (km/s) = 3.58470 4.87476 4.27863
#
# Compressibility (1/GPa) = 0.05459958
#
# Stress axis : x y z
#
# Youngs Moduli (GPa) = 70.86447 37.08051 130.31983
#
# Poissons Ratio (x) = -0.16647 0.01946
# Poissons Ratio (y) = -0.31815 0.18466
# Poissons Ratio (z) = 0.01058 0.05254
#
# Static dielectric constant tensor:
#      x y z
#    x 1.825450 0.000000 0.000000 
#    y 0.000000 1.709700 0.000000 
#    z 0.000000 0.000000 1.807290 
# 
# From -- ./inp_files/68282.got.cif
#   From: 2010.05.17/outbox.cif.g08.bks.cpg/sg65_35_cif.got.tgz:68282.got - 2010.06.03 17:01:31.
