data_PCOD9489675
_publ_section_title
;
Structure prediction by ZEFSAII (Michael W. Deem and Ramdas Pophale) SiO2 
 PCOD9489675
Probable space group: C M M M
;
_chemical_formula_sum "Si O2"
_cell_formula_units_Z 116
_cell_length_a 28.008916
_cell_length_b 9.881591
_cell_length_c 22.871659
_cell_angle_alpha 90.000000
_cell_angle_beta 90.000000
_cell_angle_gamma 90.000000
_cell_volume 6330.249723
_symmetry_space_group_name_H-M "C M M M"
_symmetry_group_IT_number 65
_symmetry_cell_setting 'orthorhombic'
loop_
_space_group_symop_operation_xyz
x,y,z
-x,-y,z
x,-y,-z
-x,y,-z
-x,-y,-z
x,y,-z
-x,y,z
x,-y,z
1/2+x,1/2+y,z
1/2-x,1/2-y,z
1/2+x,1/2-y,-z
1/2-x,1/2+y,-z
1/2-x,1/2-y,-z
1/2+x,1/2+y,-z
1/2-x,1/2+y,z
1/2+x,1/2-y,z
loop_
_atom_site_type_symbol
_atom_site_label
_atom_site_fract_x
_atom_site_fract_y
_atom_site_fract_z
Si Si1 0.795435 0.155517 0.268293
Si Si2 0.397540 0.147013 0.430643
Si Si3 0.127614 0.158578 0.834240
Si Si4 0.794941 0.841319 0.068919
Si Si5 0.176701 0.000000 0.500000
Si Si6 0.193632 0.225004 0.401211
Si Si7 0.557110 0.158242 0.773085
Si Si8 0.442646 0.655838 0.339701
O O1 0.750000 0.250000 0.257884
O O2 0.835894 0.176503 0.220034
O O3 0.813854 0.182261 0.333995
O O4 0.779754 0.000000 0.264951
O O5 0.403880 0.161089 0.500000
O O6 0.341452 0.151589 0.415041
O O7 0.421099 0.270610 0.396127
O O8 0.417601 0.000000 0.412673
O O9 0.158711 0.185598 0.892017
O O10 0.085012 0.263256 0.824059
O O11 0.112224 0.000000 0.834300
O O12 0.750000 0.750000 0.086887
O O13 0.782932 0.000000 0.077122
O O14 0.803783 0.818413 0.000000
O O15 0.178663 0.884390 0.551338
O O16 0.250000 0.250000 0.408171
O O17 0.500000 0.162779 0.781469
O O18 0.568148 0.247073 0.715194
O O19 0.571013 0.000000 0.767217
O O20 0.500000 0.651666 0.345272
O O21 0.425975 0.500000 0.331984
#
# Coordination Sequence:
#
# PCOD9489675 Si02
#       8
#    16  16  16  16   4  16  16  16
#     4  10  21  35  50  74 104 135 173 219 270 323
#     4  11  25  39  55  78 105 136 173 221 277 338
#     4  10  20  34  55  82 113 147 184 228 276 325
#     4   9  18  33  54  83 119 158 198 236 273 320
#     4  12  22  36  54  72  93 144 181 232 272 328
#     4  11  24  36  54  72 100 138 182 225 273 329
#     4  10  21  37  58  83 110 140 178 224 275 330
#     4  10  22  40  62  84 106 135 174 221 274 336
#
# _framework density 18.324712000000002
#
# number of rings (size 3 to 8) (size 9 to 14) (size 15 to 20)
#    0.000    1.793    1.379    2.276    1.931    4.966 
#    0.000    1.379    0.000    0.414    0.000    2.897 
#    0.000    0.000    0.000    0.000    0.000    0.000 
#
# Total GULP energy -323277.909969 kJ/mol
# GULP energy per Si atom -5573.757068 kJ/mol
# Density = 1.828300 g / cm^3
# Si number density = 18.324712 Si / 1000 Ang^3
#
#
#
# Elastic Constant Matrix: (Units=GPa)
#
#
# Indices 1 2 3 4 5 6 
#
# 1 46.8659 51.9419 31.9188 0.0000 0.0000 0.0000
# 2 51.9419 139.1085 46.3863 0.0000 0.0000 0.0000
# 3 31.9188 46.3863 67.3173 0.0000 0.0000 0.0000
# 4 0.0000 0.0000 0.0000 26.5297 0.0000 0.0000
# 5 0.0000 0.0000 0.0000 0.0000 11.6973 0.0000
# 6 0.0000 0.0000 0.0000 0.0000 0.0000 20.3102
#
#
#
# Elastic Compliance Matrix: (Units=1/GPa)
#
#
# Indices 1 2 3 4 5 6 
#
# 1 0.042807 -0.011965 -0.012052 0.000000 0.000000 0.000000
# 2 -0.011965 0.012677 -0.003062 0.000000 0.000000 0.000000
# 3 -0.012052 -0.003062 0.022680 0.000000 0.000000 0.000000
# 4 0.000000 0.000000 0.000000 0.037694 0.000000 0.000000
# 5 0.000000 0.000000 0.000000 0.000000 0.085490 0.000000
# 6 0.000000 0.000000 0.000000 0.000000 0.000000 0.049236
#
#
# Mechanical properties :
#
#
# Convention : Reuss Voigt Hill
#
# Bulk Modulus (GPa) = 41.65842 57.08732 49.37287
# Shear Modulus (GPa) = 15.98749 19.91041 17.94895
#
# Velocity S-wave (km/s) = 2.95694 3.29984 3.13308
# Velocity P-wave (km/s) = 5.86863 6.76309 6.33167
#
# Compressibility (1/GPa) = 0.02400475
#
# Stress axis : x y z
#
# Youngs Moduli (GPa) = 23.36089 78.88098 44.09174
#
# Poissons Ratio (x) = 0.94378 0.53141
# Poissons Ratio (y) = 0.27951 0.13503
# Poissons Ratio (z) = 0.28156 0.24157
#
# Static dielectric constant tensor:
#      x y z
#    x 1.657340 0.000000 0.000000 
#    y 0.000000 1.560290 0.000000 
#    z 0.000000 0.000000 1.620060 
# 
# From -- ./inp_files/72286.got.cif
#   From: 2010.05.17/outbox.cif.g08.bks.cpg/sg65_37_cif.got.tgz:72286.got - 2010.06.03 17:01:31.
