data_PCOD9489747
_publ_section_title
;
Structure prediction by ZEFSAII (Michael W. Deem and Ramdas Pophale) SiO2 
 PCOD9489747
Probable space group: C M M M
;
_chemical_formula_sum "Si O2"
_cell_formula_units_Z 100
_cell_length_a 9.069147
_cell_length_b 30.646590
_cell_length_c 20.545212
_cell_angle_alpha 90.000000
_cell_angle_beta 90.000000
_cell_angle_gamma 90.000000
_cell_volume 5710.303962
_symmetry_space_group_name_H-M "C M M M"
_symmetry_group_IT_number 65
_symmetry_cell_setting 'orthorhombic'
loop_
_space_group_symop_operation_xyz
x,y,z
-x,-y,z
x,-y,-z
-x,y,-z
-x,-y,-z
x,y,-z
-x,y,z
x,-y,z
1/2+x,1/2+y,z
1/2-x,1/2-y,z
1/2+x,1/2-y,-z
1/2-x,1/2+y,-z
1/2-x,1/2-y,-z
1/2+x,1/2+y,-z
1/2-x,1/2+y,z
1/2+x,1/2-y,z
loop_
_atom_site_type_symbol
_atom_site_label
_atom_site_fract_x
_atom_site_fract_y
_atom_site_fract_z
Si Si1 0.662805 0.631667 0.369623
Si Si2 0.176803 0.880821 0.926228
Si Si3 0.824603 0.296269 0.284199
Si Si4 0.324144 0.949394 0.323785
Si Si5 0.324811 0.203954 0.869714
Si Si6 0.500000 0.349089 0.500000
Si Si7 0.175734 0.050685 0.814917
O O1 0.500000 0.625959 0.338198
O O2 0.755385 0.665818 0.327665
O O3 0.744307 0.585320 0.369633
O O4 0.626179 0.648497 0.441772
O O5 0.256070 0.835701 0.909396
O O6 0.218206 0.917056 0.872960
O O7 0.000000 0.874583 0.921697
O O8 0.211053 0.894552 0.000000
O O9 0.750000 0.250000 0.300804
O O10 0.796603 0.304273 0.207412
O O11 0.000000 0.293677 0.293694
O O12 0.500000 0.944237 0.325941
O O13 0.264904 0.940153 0.250965
O O14 0.288145 0.000000 0.338676
O O15 0.500000 0.206699 0.879177
O O16 0.250000 0.250000 0.886482
O O17 0.000000 0.055492 0.802605
O O18 0.201411 0.000000 0.832518
#
# Coordination Sequence:
#
# PCOD9489747 Si02
#       7
#    16  16  16  16  16   4  16
#     4  10  20  38  58  78 113 147 183 222 265 320
#     4  10  21  35  51  74 108 149 188 223 270 329
#     4  10  20  35  60  89 112 140 181 231 279 326
#     4  10  20  34  56  86 113 141 180 230 284 329
#     4  10  21  36  55  81 108 135 177 229 280 325
#     4   8  24  40  57  82 114 152 184 220 261 322
#     4   9  18  33  54  81 110 141 183 230 275 322
#
# _framework density 17.512204000000001
#
# number of rings (size 3 to 8) (size 9 to 14) (size 15 to 20)
#    0.480    1.760    0.000    2.880    0.000    7.040 
#    0.000    4.400    0.000    0.960    0.000    3.360 
#    0.000    0.000    0.000    0.000    0.000    0.000 
#
# Total GULP energy -278365.903012 kJ/mol
# GULP energy per Si atom -5567.318060 kJ/mol
# Density = 1.747235 g / cm^3
# Si number density = 17.512204 Si / 1000 Ang^3
#
#
#
# Elastic Constant Matrix: (Units=GPa)
#
#
# Indices 1 2 3 4 5 6 
#
# 1 38.7270 8.1445 2.4992 0.0000 0.0000 0.0000
# 2 8.1445 29.9725 -3.0557 0.0000 0.0000 0.0000
# 3 2.4992 -3.0557 8.9489 0.0000 0.0000 0.0000
# 4 0.0000 0.0000 0.0000 -0.2803 0.0000 0.0000
# 5 0.0000 0.0000 0.0000 0.0000 21.2354 0.0000
# 6 0.0000 0.0000 0.0000 0.0000 0.0000 30.3503
#
#
#
# Elastic Compliance Matrix: (Units=1/GPa)
#
#
# Indices 1 2 3 4 5 6 
#
# 1 0.028385 -0.008829 -0.010942 0.000000 0.000000 0.000000
# 2 -0.008829 0.037313 0.015207 0.000000 0.000000 0.000000
# 3 -0.010942 0.015207 0.119993 0.000000 0.000000 0.000000
# 4 0.000000 0.000000 0.000000 -3.567456 0.000000 0.000000
# 5 0.000000 0.000000 0.000000 0.000000 0.047091 0.000000
# 6 0.000000 0.000000 0.000000 0.000000 0.000000 0.032949
#
#
# Mechanical properties :
#
#
# Convention : Reuss Voigt Hill
#
# Bulk Modulus (GPa) = 5.66368 10.31383 7.98876
# Shear Modulus (GPa) = -1.54620 14.93177 6.69279
#
# Velocity S-wave (km/s) = -0.94066 2.92318 1.95706
# Velocity P-wave (km/s) = 1.43575 4.15880 3.11103
#
# Compressibility (1/GPa) = 0.17656360
#
# Stress axis : x y z
#
# Youngs Moduli (GPa) = 35.23034 26.80010 8.33380
#
# Poissons Ratio (x) = 0.23661 0.09119
# Poissons Ratio (y) = 0.31103 -0.12673
# Poissons Ratio (z) = 0.38548 -0.40754
#
# Static dielectric constant tensor:
#      x y z
#    x 1.588410 0.000000 0.000000 
#    y 0.000000 1.591780 0.000000 
#    z 0.000000 0.000000 1.574600 
# 
# From -- ./inp_files/60917.got.cif
#   From: 2010.05.17/outbox.cif.g08.bks.cpg/sg65_31_cif.got.tgz:60917.got - 2010.06.03 17:01:31.
