data_PCOD9489283
_publ_section_title
;
Structure prediction by ZEFSAII (Michael W. Deem and Ramdas Pophale) SiO2 
 PCOD9489283
Probable space group: C M M M
;
_chemical_formula_sum "Si O2"
_cell_formula_units_Z 104
_cell_length_a 24.457610
_cell_length_b 27.046839
_cell_length_c 7.763755
_cell_angle_alpha 90.000000
_cell_angle_beta 90.000000
_cell_angle_gamma 90.000000
_cell_volume 5135.732007
_symmetry_space_group_name_H-M "C M M M"
_symmetry_group_IT_number 65
_symmetry_cell_setting 'orthorhombic'
loop_
_space_group_symop_operation_xyz
x,y,z
-x,-y,z
x,-y,-z
-x,y,-z
-x,-y,-z
x,y,-z
-x,y,z
x,-y,z
1/2+x,1/2+y,z
1/2-x,1/2-y,z
1/2+x,1/2-y,-z
1/2-x,1/2+y,-z
1/2-x,1/2-y,-z
1/2+x,1/2+y,-z
1/2-x,1/2+y,z
1/2+x,1/2-y,z
loop_
_atom_site_type_symbol
_atom_site_label
_atom_site_fract_x
_atom_site_fract_y
_atom_site_fract_z
Si Si1 0.340736 0.788309 0.202670
Si Si2 0.847297 0.178039 0.798700
Si Si3 0.436973 0.143239 0.291014
Si Si4 0.855095 0.556532 0.289344
Si Si5 0.062587 0.000000 0.294985
Si Si6 0.562055 0.393313 0.793845
Si Si7 0.760547 0.626081 0.302588
O O1 0.336448 0.732707 0.272514
O O2 0.401447 0.810662 0.224092
O O3 0.300665 0.826544 0.295267
O O4 0.325508 0.789177 0.000000
O O5 0.898941 0.149170 0.722723
O O6 0.794828 0.142819 0.786759
O O7 0.859197 0.186872 0.000000
O O8 0.435941 0.144954 0.500000
O O9 0.500000 0.143279 0.235615
O O10 0.404019 0.093595 0.237938
O O11 0.854198 0.556919 0.500000
O O12 0.861617 0.500000 0.233494
O O13 0.798016 0.581594 0.231770
O O14 0.086647 0.947768 0.238871
O O15 0.060462 0.000000 0.500000
O O16 0.000000 0.000000 0.224640
O O17 0.500000 0.391697 0.724678
O O18 0.558979 0.387735 0.000000
O O19 0.746861 0.614564 0.500000
#
# Coordination Sequence:
#
# PCOD9489283 Si02
#       7
#    16  16  16  16   8  16  16
#     4  10  20  34  53  74 101 138 175 213 256 304
#     4  10  21  35  52  76 102 130 171 216 256 305
#     4   9  18  32  51  78 108 137 173 215 259 309
#     4   8  15  30  51  74 102 135 171 210 252 301
#     4   9  17  31  51  73  97 125 159 199 242 289
#     4   9  18  34  54  73  97 131 168 205 249 304
#     4  10  20  34  53  76 102 134 171 212 261 312
#
# _framework density 20.250275999999999
#
# number of rings (size 3 to 8) (size 9 to 14) (size 15 to 20)
#    0.000    2.692    0.000    2.538    0.000    5.846 
#    1.385    3.077    0.000   12.923    0.000    4.308 
#    0.000    0.000    0.000    0.000    0.000    0.000 
#
# Total GULP energy -289983.925657 kJ/mol
# GULP energy per Si atom -5576.613955 kJ/mol
# Density = 2.020419 g / cm^3
# Si number density = 20.250276 Si / 1000 Ang^3
#
#
#
# Elastic Constant Matrix: (Units=GPa)
#
#
# Indices 1 2 3 4 5 6 
#
# 1 68.9214 8.3442 -10.1683 0.0000 0.0000 0.0000
# 2 8.3442 13.6477 -6.9825 0.0000 0.0000 0.0000
# 3 -10.1683 -6.9825 31.7096 0.0000 0.0000 0.0000
# 4 0.0000 0.0000 0.0000 5.4975 0.0000 0.0000
# 5 0.0000 0.0000 0.0000 0.0000 20.7295 0.0000
# 6 0.0000 0.0000 0.0000 0.0000 0.0000 12.1293
#
#
#
# Elastic Compliance Matrix: (Units=1/GPa)
#
#
# Indices 1 2 3 4 5 6 
#
# 1 0.015979 -0.008055 0.003350 0.000000 0.000000 0.000000
# 2 -0.008055 0.086636 0.016494 0.000000 0.000000 0.000000
# 3 0.003350 0.016494 0.036243 0.000000 0.000000 0.000000
# 4 0.000000 0.000000 0.000000 0.181900 0.000000 0.000000
# 5 0.000000 0.000000 0.000000 0.000000 0.048240 0.000000
# 6 0.000000 0.000000 0.000000 0.000000 0.000000 0.082445
#
#
# Mechanical properties :
#
#
# Convention : Reuss Voigt Hill
#
# Bulk Modulus (GPa) = 6.15628 10.74062 8.44845
# Shear Modulus (GPa) = 10.37321 15.87695 13.12508
#
# Velocity S-wave (km/s) = 2.26575 2.80310 2.54863
# Velocity P-wave (km/s) = 3.14508 3.97391 3.58354
#
# Compressibility (1/GPa) = 0.16243573
#
# Stress axis : x y z
#
# Youngs Moduli (GPa) = 62.58303 11.54250 27.59186
#
# Poissons Ratio (x) = 0.09298 -0.09243
# Poissons Ratio (y) = 0.50413 -0.45511
# Poissons Ratio (z) = -0.20966 -0.19039
#
# Static dielectric constant tensor:
#      x y z
#    x 1.716820 0.000000 0.000000 
#    y 0.000000 1.725810 0.000000 
#    z 0.000000 0.000000 1.736260 
# 
# From -- ./inp_files/14807.got.cif
#   From: 2010.05.17/outbox.cif.g08.bks.cpg/sg65_8_cif.got.tgz:14807.got - 2010.06.03 17:01:31.
