data_PCOD9489889
_publ_section_title
;
Structure prediction by ZEFSAII (Michael W. Deem and Ramdas Pophale) SiO2 
 PCOD9489889
Probable space group: C M M M
;
_chemical_formula_sum "Si O2"
_cell_formula_units_Z 104
_cell_length_a 31.453523
_cell_length_b 20.982233
_cell_length_c 7.553469
_cell_angle_alpha 90.000000
_cell_angle_beta 90.000000
_cell_angle_gamma 90.000000
_cell_volume 4985.026288
_symmetry_space_group_name_H-M "C M M M"
_symmetry_group_IT_number 65
_symmetry_cell_setting 'orthorhombic'
loop_
_space_group_symop_operation_xyz
x,y,z
-x,-y,z
x,-y,-z
-x,y,-z
-x,-y,-z
x,y,-z
-x,y,z
x,-y,z
1/2+x,1/2+y,z
1/2-x,1/2-y,z
1/2+x,1/2-y,-z
1/2-x,1/2+y,-z
1/2-x,1/2-y,-z
1/2+x,1/2+y,-z
1/2-x,1/2+y,z
1/2+x,1/2-y,z
loop_
_atom_site_type_symbol
_atom_site_label
_atom_site_fract_x
_atom_site_fract_y
_atom_site_fract_z
Si Si1 0.451626 0.857490 0.794104
Si Si2 0.726370 0.184454 0.217041
Si Si3 0.288348 0.427747 0.786580
Si Si4 0.051237 0.500000 0.299109
Si Si5 0.132780 0.705040 0.796158
Si Si6 0.872280 0.849450 0.290444
Si Si7 0.952533 0.073147 0.715952
O O1 0.500000 0.850935 0.718382
O O2 0.438227 0.932008 0.785015
O O3 0.412244 0.817567 0.715896
O O4 0.455424 0.839345 0.000000
O O5 0.750000 0.250000 0.271303
O O6 0.753274 0.123180 0.274158
O O7 0.677689 0.181875 0.280566
O O8 0.725663 0.185706 0.000000
O O9 0.283383 0.500000 0.721118
O O10 0.333954 0.398314 0.739246
O O11 0.285856 0.429555 0.000000
O O12 0.067070 0.500000 0.500000
O O13 0.000000 0.500000 0.300480
O O14 0.135898 0.781320 0.794599
O O15 0.131963 0.682382 0.000000
O O16 0.876266 0.838255 0.500000
O O17 0.915630 0.880778 0.222393
O O18 0.951760 0.073290 0.500000
O O19 0.000000 0.091843 0.770910
O O20 0.944964 0.000000 0.770291
#
# Coordination Sequence:
#
# PCOD9489889 Si02
#       7
#    16  16  16   8  16  16  16
#     4   9  18  33  53  78 107 137 172 217 267 315
#     4   9  16  32  56  76  98 132 173 214 251 297
#     4  10  20  35  56  79 101 129 169 217 261 306
#     4   9  17  31  53  77 103 139 177 213 257 313
#     4  10  20  35  54  75 102 138 176 212 254 305
#     4  11  21  32  51  78 105 134 170 211 256 308
#     4   8  15  29  47  67  95 131 168 205 245 291
#
# _framework density 20.862476999999998
#
# number of rings (size 3 to 8) (size 9 to 14) (size 15 to 20)
#    0.000    2.538    1.538    1.615    0.000    3.077 
#    1.385    1.538    0.000    1.385    0.000    5.385 
#    0.000    0.000    0.000    0.000    0.000    0.000 
#
# Total GULP energy -290072.042913 kJ/mol
# GULP energy per Si atom -5578.308518 kJ/mol
# Density = 2.081499 g / cm^3
# Si number density = 20.862477 Si / 1000 Ang^3
#
#
#
# Elastic Constant Matrix: (Units=GPa)
#
#
# Indices 1 2 3 4 5 6 
#
# 1 155.8027 67.3916 3.1473 0.0000 0.0000 0.0000
# 2 67.3916 107.8328 -4.7374 0.0000 0.0000 0.0000
# 3 3.1473 -4.7374 51.8979 0.0000 0.0000 0.0000
# 4 0.0000 0.0000 0.0000 33.5355 0.0000 0.0000
# 5 0.0000 0.0000 0.0000 0.0000 6.4734 0.0000
# 6 0.0000 0.0000 0.0000 0.0000 0.0000 42.8347
#
#
#
# Elastic Compliance Matrix: (Units=1/GPa)
#
#
# Indices 1 2 3 4 5 6 
#
# 1 0.008852 -0.005578 -0.001046 0.000000 0.000000 0.000000
# 2 -0.005578 0.012826 0.001509 0.000000 0.000000 0.000000
# 3 -0.001046 0.001509 0.019470 0.000000 0.000000 0.000000
# 4 0.000000 0.000000 0.000000 0.029819 0.000000 0.000000
# 5 0.000000 0.000000 0.000000 0.000000 0.154478 0.000000
# 6 0.000000 0.000000 0.000000 0.000000 0.000000 0.023346
#
#
# Mechanical properties :
#
#
# Convention : Reuss Voigt Hill
#
# Bulk Modulus (GPa) = 32.34389 49.68182 41.01286
# Shear Modulus (GPa) = 18.56474 33.21751 25.89112
#
# Velocity S-wave (km/s) = 2.98629 3.99458 3.52666
# Velocity P-wave (km/s) = 5.23714 6.71872 6.02366
#
# Compressibility (1/GPa) = 0.03091774
#
# Stress axis : x y z
#
# Youngs Moduli (GPa) = 112.96371 77.96539 51.36156
#
# Poissons Ratio (x) = 0.43492 0.05373
# Poissons Ratio (y) = 0.63015 -0.07751
# Poissons Ratio (z) = 0.11817 -0.11766
#
# Static dielectric constant tensor:
#      x y z
#    x 1.759340 0.000000 0.000000 
#    y 0.000000 1.713910 0.000000 
#    z 0.000000 0.000000 1.788820 
# 
# From -- ./inp_files/18688.got.cif
#   From: 2010.05.17/outbox.cif.g08.bks.cpg/sg65_10_cif.got.tgz:18688.got - 2010.06.03 17:01:31.
