data_PCOD9489905
_publ_section_title
;
Structure prediction by ZEFSAII (Michael W. Deem and Ramdas Pophale) SiO2 
 PCOD9489905
Probable space group: C M M M
;
_chemical_formula_sum "Si O2"
_cell_formula_units_Z 104
_cell_length_a 26.921870
_cell_length_b 24.399645
_cell_length_c 7.641806
_cell_angle_alpha 90.000000
_cell_angle_beta 90.000000
_cell_angle_gamma 90.000000
_cell_volume 5019.780633
_symmetry_space_group_name_H-M "C M M M"
_symmetry_group_IT_number 65
_symmetry_cell_setting 'orthorhombic'
loop_
_space_group_symop_operation_xyz
x,y,z
-x,-y,z
x,-y,-z
-x,y,-z
-x,-y,-z
x,y,-z
-x,y,z
x,-y,z
1/2+x,1/2+y,z
1/2-x,1/2-y,z
1/2+x,1/2-y,-z
1/2-x,1/2+y,-z
1/2-x,1/2-y,-z
1/2+x,1/2+y,-z
1/2-x,1/2+y,z
1/2+x,1/2-y,z
loop_
_atom_site_type_symbol
_atom_site_label
_atom_site_fract_x
_atom_site_fract_y
_atom_site_fract_z
Si Si1 0.198798 0.275921 0.706586
Si Si2 0.800765 0.500000 0.208832
Si Si3 0.555274 0.823234 0.214150
Si Si4 0.845894 0.386379 0.788674
Si Si5 0.897562 0.214307 0.802988
Si Si6 0.393111 0.591630 0.703635
Si Si7 0.500000 0.565120 0.699831
Si Si8 0.816379 0.000000 0.288392
O O1 0.192695 0.264666 0.500000
O O2 0.250000 0.250000 0.765418
O O3 0.194132 0.340482 0.736310
O O4 0.153615 0.247717 0.804883
O O5 0.827571 0.554872 0.276937
O O6 0.741264 0.500000 0.234923
O O7 0.808330 0.500000 0.000000
O O8 0.500000 0.840834 0.265587
O O9 0.600416 0.862772 0.271489
O O10 0.565531 0.760439 0.273610
O O11 0.557090 0.821721 0.000000
O O12 0.848060 0.388187 0.000000
O O13 0.886564 0.156736 0.712902
O O14 0.914169 0.201481 0.000000
O O15 0.397250 0.574924 0.500000
O O16 0.447575 0.581024 0.783675
O O17 0.348329 0.553465 0.771799
O O18 0.500000 0.500000 0.687572
O O19 0.500000 0.588825 0.500000
O O20 0.814684 0.000000 0.500000
#
# Coordination Sequence:
#
# PCOD9489905 Si02
#       8
#    16   8  16  16  16  16   8   8
#     4  10  21  36  55  78 105 138 179 226 269 317
#     4  10  22  38  56  81 113 146 182 225 270 326
#     4   8  15  31  54  78 106 139 173 212 261 319
#     4   9  19  36  56  80 110 144 180 220 271 327
#     4  10  21  34  52  78 109 142 174 216 271 328
#     4  10  20  35  54  77 104 137 185 232 272 323
#     4   9  16  32  55  73  97 139 181 226 277 320
#     4  10  22  37  54  75 103 143 188 233 274 320
#
# _framework density 20.718036000000001
#
# number of rings (size 3 to 8) (size 9 to 14) (size 15 to 20)
#    0.000    2.538    0.769    1.846    3.231    2.462 
#    0.000    0.385    0.000    6.923    0.000    0.000 
#    0.000    5.538    0.000    0.000    0.000    0.000 
#
# Total GULP energy -289885.078693 kJ/mol
# GULP energy per Si atom -5574.713052 kJ/mol
# Density = 2.067088 g / cm^3
# Si number density = 20.718036 Si / 1000 Ang^3
#
#
#
# Elastic Constant Matrix: (Units=GPa)
#
#
# Indices 1 2 3 4 5 6 
#
# 1 133.6823 80.8794 2.0516 0.0000 0.0000 0.0000
# 2 80.8794 161.2893 -0.5067 0.0000 0.0000 0.0000
# 3 2.0516 -0.5067 41.2941 0.0000 0.0000 0.0000
# 4 0.0000 0.0000 0.0000 12.9915 0.0000 0.0000
# 5 0.0000 0.0000 0.0000 0.0000 33.1801 0.0000
# 6 0.0000 0.0000 0.0000 0.0000 0.0000 10.5204
#
#
#
# Elastic Compliance Matrix: (Units=1/GPa)
#
#
# Indices 1 2 3 4 5 6 
#
# 1 0.010753 -0.005394 -0.000600 0.000000 0.000000 0.000000
# 2 -0.005394 0.008906 0.000377 0.000000 0.000000 0.000000
# 3 -0.000600 0.000377 0.024251 0.000000 0.000000 0.000000
# 4 0.000000 0.000000 0.000000 0.076973 0.000000 0.000000
# 5 0.000000 0.000000 0.000000 0.000000 0.030139 0.000000
# 6 0.000000 0.000000 0.000000 0.000000 0.000000 0.095054
#
#
# Mechanical properties :
#
#
# Convention : Reuss Voigt Hill
#
# Bulk Modulus (GPa) = 30.60373 55.67937 43.14155
# Shear Modulus (GPa) = 18.64264 28.26115 23.45190
#
# Velocity S-wave (km/s) = 3.00297 3.69736 3.36810
# Velocity P-wave (km/s) = 5.17951 6.72015 5.99949
#
# Compressibility (1/GPa) = 0.03267576
#
# Stress axis : x y z
#
# Youngs Moduli (GPa) = 92.99611 112.28228 41.23538
#
# Poissons Ratio (x) = 0.60566 0.02476
# Poissons Ratio (y) = 0.50163 -0.01556
# Poissons Ratio (z) = 0.05584 -0.04236
#
# Static dielectric constant tensor:
#      x y z
#    x 1.749100 0.000000 0.000000 
#    y 0.000000 1.753300 0.000000 
#    z 0.000000 0.000000 1.801490 
# 
# From -- ./inp_files/16854.got.cif
#   From: 2010.05.17/outbox.cif.g08.bks.cpg/sg65_9_cif.got.tgz:16854.got - 2010.06.03 17:01:31.
