data_PCOD9489786
_publ_section_title
;
Structure prediction by ZEFSAII (Michael W. Deem and Ramdas Pophale) SiO2 
 PCOD9489786
Probable space group: C M M M
;
_chemical_formula_sum "Si O2"
_cell_formula_units_Z 88
_cell_length_a 27.333892
_cell_length_b 20.149037
_cell_length_c 7.698482
_cell_angle_alpha 90.000000
_cell_angle_beta 90.000000
_cell_angle_gamma 90.000000
_cell_volume 4239.951289
_symmetry_space_group_name_H-M "C M M M"
_symmetry_group_IT_number 65
_symmetry_cell_setting 'orthorhombic'
loop_
_space_group_symop_operation_xyz
x,y,z
-x,-y,z
x,-y,-z
-x,y,-z
-x,-y,-z
x,y,-z
-x,y,z
x,-y,z
1/2+x,1/2+y,z
1/2-x,1/2-y,z
1/2+x,1/2-y,-z
1/2-x,1/2+y,-z
1/2-x,1/2-y,-z
1/2+x,1/2+y,-z
1/2-x,1/2+y,z
1/2+x,1/2-y,z
loop_
_atom_site_type_symbol
_atom_site_label
_atom_site_fract_x
_atom_site_fract_y
_atom_site_fract_z
Si Si1 0.802361 0.575829 0.289871
Si Si2 0.600297 0.151447 0.291856
Si Si3 0.942628 0.927937 0.711599
Si Si4 0.611765 0.300035 0.298345
Si Si5 0.222034 0.815903 0.794009
Si Si6 0.500000 0.075836 0.792699
O O1 0.804072 0.574339 0.500000
O O2 0.798663 0.500000 0.228565
O O3 0.852700 0.610185 0.226701
O O4 0.756383 0.621132 0.239678
O O5 0.606511 0.155635 0.500000
O O6 0.601863 0.226937 0.222516
O O7 0.549211 0.114630 0.259358
O O8 0.938305 0.928055 0.500000
O O9 0.916138 0.862781 0.780436
O O10 0.000000 0.924490 0.751678
O O11 0.923637 0.000000 0.771278
O O12 0.596041 0.295988 0.500000
O O13 0.669033 0.316508 0.290940
O O14 0.250000 0.750000 0.731235
O O15 0.214330 0.809383 0.000000
O O16 0.500000 0.000000 0.723856
O O17 0.500000 0.072288 0.000000
#
# Coordination Sequence:
#
# PCOD9489786 Si02
#       6
#    16  16  16  16  16   8
#     4  10  21  38  61  86 111 145 191 238 286 340
#     4  10  21  37  60  87 114 146 188 241 290 336
#     4   8  15  29  51  81 114 143 175 220 272 324
#     4  10  20  34  59  87 113 146 189 238 283 331
#     4  11  23  38  56  80 115 153 187 226 281 344
#     4  11  25  41  57  81 116 155 190 230 285 351
#
# _framework density 20.754957000000001
#
# number of rings (size 3 to 8) (size 9 to 14) (size 15 to 20)
#    0.000    2.091    1.818    1.909    1.273    4.727 
#    0.000    1.818    0.000    0.000    0.000    1.273 
#    0.000    0.000    0.000    0.000    0.000    0.000 
#
# Total GULP energy -245691.065559 kJ/mol
# GULP energy per Si atom -5583.887854 kJ/mol
# Density = 2.070772 g / cm^3
# Si number density = 20.754957 Si / 1000 Ang^3
#
#
#
# Elastic Constant Matrix: (Units=GPa)
#
#
# Indices 1 2 3 4 5 6 
#
# 1 90.2040 92.1073 -16.3795 0.0000 0.0000 0.0000
# 2 92.1073 237.6873 2.9729 0.0000 0.0000 0.0000
# 3 -16.3795 2.9729 34.8697 0.0000 0.0000 0.0000
# 4 0.0000 0.0000 0.0000 -13.3769 0.0000 0.0000
# 5 0.0000 0.0000 0.0000 0.0000 -209.0144 0.0000
# 6 0.0000 0.0000 0.0000 0.0000 0.0000 41.2021
#
#
#
# Elastic Compliance Matrix: (Units=1/GPa)
#
#
# Indices 1 2 3 4 5 6 
#
# 1 0.021888 -0.008620 0.011016 0.000000 0.000000 0.000000
# 2 -0.008620 0.007606 -0.004697 0.000000 0.000000 0.000000
# 3 0.011016 -0.004697 0.034253 0.000000 0.000000 0.000000
# 4 0.000000 0.000000 0.000000 -0.074756 0.000000 0.000000
# 5 0.000000 0.000000 0.000000 0.000000 -0.004784 0.000000
# 6 0.000000 0.000000 0.000000 0.000000 0.000000 0.024271
#
#
# Mechanical properties :
#
#
# Convention : Reuss Voigt Hill
#
# Bulk Modulus (GPa) = 16.90725 57.79581 37.35153
# Shear Modulus (GPa) = 152.46360 -17.30047 67.58157
#
# Velocity S-wave (km/s) = 8.58011 -2.89027 5.71247
# Velocity P-wave (km/s) = 10.31124 4.09499 7.84508
#
# Compressibility (1/GPa) = 0.05914622
#
# Stress axis : x y z
#
# Youngs Moduli (GPa) = 45.68730 131.47148 29.19410
#
# Poissons Ratio (x) = 1.13324 -0.32161
# Poissons Ratio (y) = 0.39381 0.13714
# Poissons Ratio (z) = -0.50331 0.61758
#
# Static dielectric constant tensor:
#      x y z
#    x 1.644220 0.000000 0.000000 
#    y 0.000000 1.759540 0.000000 
#    z 0.000000 0.000000 1.771060 
# 
# From -- ./inp_files/13976.got.cif
#   From: 2010.05.17/outbox.cif.g08.bks.cpg/sg65_7_cif.got.tgz:13976.got - 2010.06.03 17:01:31.
