data_PCOD9489690
_publ_section_title
;
Structure prediction by ZEFSAII (Michael W. Deem and Ramdas Pophale) SiO2 
 PCOD9489690
Probable space group: C M M M
;
_chemical_formula_sum "Si O2"
_cell_formula_units_Z 104
_cell_length_a 7.861432
_cell_length_b 23.232380
_cell_length_c 26.650884
_cell_angle_alpha 90.000000
_cell_angle_beta 90.000000
_cell_angle_gamma 90.000000
_cell_volume 4867.511472
_symmetry_space_group_name_H-M "C M M M"
_symmetry_group_IT_number 65
_symmetry_cell_setting 'orthorhombic'
loop_
_space_group_symop_operation_xyz
x,y,z
-x,-y,z
x,-y,-z
-x,y,-z
-x,-y,-z
x,y,-z
-x,y,z
x,-y,z
1/2+x,1/2+y,z
1/2-x,1/2-y,z
1/2+x,1/2-y,-z
1/2-x,1/2+y,-z
1/2-x,1/2-y,-z
1/2+x,1/2+y,-z
1/2-x,1/2+y,z
1/2+x,1/2-y,z
loop_
_atom_site_type_symbol
_atom_site_label
_atom_site_fract_x
_atom_site_fract_y
_atom_site_fract_z
Si Si1 0.308494 0.500000 0.905779
Si Si2 0.703047 0.683842 0.799459
Si Si3 0.200961 0.315439 0.000000
Si Si4 0.800690 0.399956 0.281662
Si Si5 0.702261 0.621770 0.900162
Si Si6 0.705037 0.314351 0.558130
Si Si7 0.295726 0.000000 0.795000
Si Si8 0.802433 0.066451 0.608910
O O1 0.500000 0.500000 0.927694
O O2 0.221657 0.439662 0.916303
O O3 0.309699 0.500000 0.845340
O O4 0.500000 0.678278 0.798776
O O5 0.750000 0.750000 0.806606
O O6 0.768828 0.660221 0.746130
O O7 0.770107 0.648225 0.848072
O O8 0.250000 0.250000 0.000000
O O9 0.274628 0.339438 0.948320
O O10 0.000000 0.324702 0.000000
O O11 0.754208 0.445253 0.238612
O O12 0.706826 0.417003 0.332367
O O13 0.000000 0.406274 0.292940
O O14 0.500000 0.612783 0.891977
O O15 0.761164 0.314360 0.500000
O O16 0.500000 0.316826 0.560069
O O17 0.750000 0.250000 0.579061
O O18 0.768948 0.374953 0.582432
O O19 0.500000 0.000000 0.805511
O O20 0.000000 0.062850 0.593332
O O21 0.733055 0.000000 0.601934
#
# Coordination Sequence:
#
# PCOD9489690 Si02
#       8
#     8  16   8  16  16  16   8  16
#     4  10  20  37  63  92 117 149 187 230 281 339
#     4  11  23  39  60  86 116 152 195 241 287 343
#     4  12  26  43  64  85 113 150 190 234 285 340
#     4  11  22  37  57  84 118 156 193 235 288 345
#     4  10  22  40  63  89 117 148 187 231 283 341
#     4   9  19  37  60  85 114 152 198 246 300 359
#     4  10  20  34  55  83 115 151 189 231 279 334
#     4  10  21  36  57  86 119 156 199 248 300 356
#
# _framework density 21.366154000000002
#
# number of rings (size 3 to 8) (size 9 to 14) (size 15 to 20)
#    0.000    1.692    2.308    2.077    0.000    5.538 
#    0.000    4.615    0.000    0.000    0.000    3.231 
#    0.000    0.000    0.000    0.000    0.000    0.000 
#
# Total GULP energy -289923.832326 kJ/mol
# GULP energy per Si atom -5575.458314 kJ/mol
# Density = 2.131752 g / cm^3
# Si number density = 21.366154 Si / 1000 Ang^3
#
#
#
# Elastic Constant Matrix: (Units=GPa)
#
#
# Indices 1 2 3 4 5 6 
#
# 1 23.6042 -5.2606 -5.0610 0.0000 0.0000 0.0000
# 2 -5.2606 195.7709 53.2101 0.0000 0.0000 0.0000
# 3 -5.0610 53.2101 61.5486 0.0000 0.0000 0.0000
# 4 0.0000 0.0000 0.0000 -122.6917 0.0000 0.0000
# 5 0.0000 0.0000 0.0000 0.0000 0.1862 0.0000
# 6 0.0000 0.0000 0.0000 0.0000 0.0000 17.3097
#
#
#
# Elastic Compliance Matrix: (Units=1/GPa)
#
#
# Indices 1 2 3 4 5 6 
#
# 1 0.043135 0.000255 0.003326 0.000000 0.000000 0.000000
# 2 0.000255 0.006678 -0.005753 0.000000 0.000000 0.000000
# 3 0.003326 -0.005753 0.021494 0.000000 0.000000 0.000000
# 4 0.000000 0.000000 0.000000 -0.008151 0.000000 0.000000
# 5 0.000000 0.000000 0.000000 0.000000 5.370595 0.000000
# 6 0.000000 0.000000 0.000000 0.000000 0.000000 0.057771
#
#
# Mechanical properties :
#
#
# Convention : Reuss Voigt Hill
#
# Bulk Modulus (GPa) = 14.93304 40.74453 27.83879
# Shear Modulus (GPa) = 0.90609 -5.17016 -2.13203
#
# Velocity S-wave (km/s) = 0.65192 -1.55725 -1.00001
# Velocity P-wave (km/s) = 2.75154 3.98468 3.42408
#
# Compressibility (1/GPa) = 0.06696558
#
# Stress axis : x y z
#
# Youngs Moduli (GPa) = 23.18279 149.73584 46.52427
#
# Poissons Ratio (x) = -0.03818 -0.15476
# Poissons Ratio (y) = -0.00591 0.26764
# Poissons Ratio (z) = -0.07712 0.86138
#
# Static dielectric constant tensor:
#      x y z
#    x 1.819550 0.000000 0.000000 
#    y 0.000000 1.831100 0.000000 
#    z 0.000000 0.000000 1.729940 
# 
# From -- ./inp_files/73388.got.cif
#   From: 2010.05.17/outbox.cif.g08.bks.cpg/sg65_37_cif.got.tgz:73388.got - 2010.06.03 17:01:31.
