data_PCOD9489088
_publ_section_title
;
Structure prediction by ZEFSAII (Michael W. Deem and Ramdas Pophale) SiO2 
 PCOD9489088
Probable space group: C M M M
;
_chemical_formula_sum "Si O2"
_cell_formula_units_Z 80
_cell_length_a 14.732801
_cell_length_b 9.010165
_cell_length_c 27.191067
_cell_angle_alpha 90.000000
_cell_angle_beta 90.000000
_cell_angle_gamma 90.000000
_cell_volume 3609.477317
_symmetry_space_group_name_H-M "C M M M"
_symmetry_group_IT_number 65
_symmetry_cell_setting 'orthorhombic'
loop_
_space_group_symop_operation_xyz
x,y,z
-x,-y,z
x,-y,-z
-x,y,-z
-x,-y,-z
x,y,-z
-x,y,z
x,-y,z
1/2+x,1/2+y,z
1/2-x,1/2-y,z
1/2+x,1/2-y,-z
1/2-x,1/2+y,-z
1/2-x,1/2-y,-z
1/2+x,1/2+y,-z
1/2-x,1/2+y,z
1/2+x,1/2-y,z
loop_
_atom_site_type_symbol
_atom_site_label
_atom_site_fract_x
_atom_site_fract_y
_atom_site_fract_z
Si Si1 0.650584 0.176887 0.150978
Si Si2 0.610641 0.327658 0.554253
Si Si3 0.606754 0.664009 0.250104
Si Si4 0.149222 0.822150 0.054269
Si Si5 0.111401 0.330917 0.346527
O O1 0.750000 0.250000 0.151206
O O2 0.613310 0.229578 0.203215
O O3 0.605407 0.247496 0.102195
O O4 0.652407 0.000000 0.146982
O O5 0.638750 0.273384 0.500000
O O6 0.500000 0.325432 0.554614
O O7 0.637338 0.500000 0.559426
O O8 0.640624 0.234423 0.601109
O O9 0.500000 0.646489 0.258857
O O10 0.646047 0.500000 0.239413
O O11 0.643263 0.734290 0.300232
O O12 0.250000 0.750000 0.051711
O O13 0.155581 0.000000 0.061310
O O14 0.108156 0.796231 0.000000
O O15 0.140658 0.500000 0.340647
O O16 0.000000 0.329909 0.346416
#
# Coordination Sequence:
#
# PCOD9489088 Si02
#       5
#    16  16  16  16  16
#     4  11  21  33  51  74 101 128 158 197 238 281
#     4   8  13  21  33  50  75 109 147 185 227 275
#     4  10  20  34  51  69  93 127 164 199 238 286
#     4   9  16  27  45  69  96 124 155 191 232 278
#     4   9  16  25  38  58  84 114 150 190 232 279
#
# _framework density 22.163874
#
# number of rings (size 3 to 8) (size 9 to 14) (size 15 to 20)
#    0.000    2.600    0.000    5.400    0.000    5.200 
#    0.000    2.000    0.000    0.600    0.000    4.200 
#    0.000    0.800    0.000    3.000    0.000    7.000 
#
# Total GULP energy -223227.879317 kJ/mol
# GULP energy per Si atom -5580.696983 kJ/mol
# Density = 2.211343 g / cm^3
# Si number density = 22.163874 Si / 1000 Ang^3
#
#
#
# Elastic Constant Matrix: (Units=GPa)
#
#
# Indices 1 2 3 4 5 6 
#
# 1 51.3471 11.1409 7.7952 0.0000 0.0000 0.0000
# 2 11.1409 171.3482 103.5167 0.0000 0.0000 0.0000
# 3 7.7952 103.5167 212.1899 0.0000 0.0000 0.0000
# 4 0.0000 0.0000 0.0000 -50.0301 0.0000 0.0000
# 5 0.0000 0.0000 0.0000 0.0000 0.9035 0.0000
# 6 0.0000 0.0000 0.0000 0.0000 0.0000 6.5898
#
#
#
# Elastic Compliance Matrix: (Units=1/GPa)
#
#
# Indices 1 2 3 4 5 6 
#
# 1 0.019757 -0.001200 -0.000141 0.000000 0.000000 0.000000
# 2 -0.001200 0.008348 -0.004028 0.000000 0.000000 0.000000
# 3 -0.000141 -0.004028 0.006683 0.000000 0.000000 0.000000
# 4 0.000000 0.000000 0.000000 -0.019988 0.000000 0.000000
# 5 0.000000 0.000000 0.000000 0.000000 1.106866 0.000000
# 6 0.000000 0.000000 0.000000 0.000000 0.000000 0.151750
#
#
# Mechanical properties :
#
#
# Convention : Reuss Voigt Hill
#
# Bulk Modulus (GPa) = 41.57888 75.53232 58.55560
# Shear Modulus (GPa) = 3.86946 12.32145 8.09546
#
# Velocity S-wave (km/s) = 1.32274 2.36036 1.91324
# Velocity P-wave (km/s) = 4.59710 6.44837 5.59977
#
# Compressibility (1/GPa) = 0.02405067
#
# Stress axis : x y z
#
# Youngs Moduli (GPa) = 50.61510 119.79307 149.62983
#
# Poissons Ratio (x) = 0.14371 0.02103
# Poissons Ratio (y) = 0.06072 0.60276
# Poissons Ratio (z) = 0.00711 0.48257
#
# Static dielectric constant tensor:
#      x y z
#    x 1.960640 0.000000 0.000000 
#    y 0.000000 1.771380 0.000000 
#    z 0.000000 0.000000 1.848060 
# 
# From -- ./inp_files/75033.got.cif
#   From: 2010.05.17/outbox.cif.g08.bks.cpg/sg65_38_cif.got.tgz:75033.got - 2010.06.03 17:01:31.
