data_PCOD9489372
_publ_section_title
;
Structure prediction by ZEFSAII (Michael W. Deem and Ramdas Pophale) SiO2 
 PCOD9489372
Probable space group: C M M M
;
_chemical_formula_sum "Si O2"
_cell_formula_units_Z 48
_cell_length_a 7.961110
_cell_length_b 25.714955
_cell_length_c 12.180984
_cell_angle_alpha 90.000000
_cell_angle_beta 90.000000
_cell_angle_gamma 90.000000
_cell_volume 2493.685994
_symmetry_space_group_name_H-M "C M M M"
_symmetry_group_IT_number 65
_symmetry_cell_setting 'orthorhombic'
loop_
_space_group_symop_operation_xyz
x,y,z
-x,-y,z
x,-y,-z
-x,y,-z
-x,-y,-z
x,y,-z
-x,y,z
x,-y,z
1/2+x,1/2+y,z
1/2-x,1/2-y,z
1/2+x,1/2-y,-z
1/2-x,1/2+y,-z
1/2-x,1/2-y,-z
1/2+x,1/2+y,-z
1/2-x,1/2+y,z
1/2+x,1/2-y,z
loop_
_atom_site_type_symbol
_atom_site_label
_atom_site_fract_x
_atom_site_fract_y
_atom_site_fract_z
Si Si1 0.311133 0.918229 0.873806
Si Si2 0.000000 0.169361 0.374394
Si Si3 0.189227 0.192960 0.169777
Si Si4 0.500000 0.443346 0.282584
O O1 0.500000 0.934335 0.842659
O O2 0.299883 0.855244 0.867096
O O3 0.164272 0.938105 0.794908
O O4 0.280978 0.933630 0.000000
O O5 0.157935 0.189293 0.301753
O O6 0.000000 0.106783 0.360797
O O7 0.000000 0.184919 0.500000
O O8 0.250000 0.250000 0.139778
O O9 0.000000 0.183892 0.126485
O O10 0.500000 0.500000 0.335908
#
# Coordination Sequence:
#
# PCOD9489372 Si02
#       4
#    16   8  16   8
#     4  10  20  34  53  77 107 142 179 215 255 311
#     4   8  18  34  53  78 104 137 178 216 268 321
#     4   9  18  31  50  75 108 141 173 213 259 303
#     4  10  21  37  56  77 107 138 171 228 274 307
#
# _framework density 19.248614
#
# number of rings (size 3 to 8) (size 9 to 14) (size 15 to 20)
#    1.000    1.667    1.667    1.500    0.000    3.667 
#    0.000    1.667    0.000    9.000    0.000    9.333 
#    0.000    0.000    0.000    0.000    0.000    0.000 
#
# Total GULP energy -133695.655132 kJ/mol
# GULP energy per Si atom -5570.652297 kJ/mol
# Density = 1.920480 g / cm^3
# Si number density = 19.248614 Si / 1000 Ang^3
#
#
#
# Elastic Constant Matrix: (Units=GPa)
#
#
# Indices 1 2 3 4 5 6 
#
# 1 90.2616 -1.7246 11.3633 0.0000 0.0000 0.0000
# 2 -1.7246 96.9479 -19.3578 0.0000 0.0000 0.0000
# 3 11.3633 -19.3578 81.8883 0.0000 0.0000 0.0000
# 4 0.0000 0.0000 0.0000 -14.7694 0.0000 0.0000
# 5 0.0000 0.0000 0.0000 0.0000 8.7588 0.0000
# 6 0.0000 0.0000 0.0000 0.0000 0.0000 4.3652
#
#
#
# Elastic Compliance Matrix: (Units=1/GPa)
#
#
# Indices 1 2 3 4 5 6 
#
# 1 0.011277 -0.000117 -0.001593 0.000000 0.000000 0.000000
# 2 -0.000117 0.010827 0.002576 0.000000 0.000000 0.000000
# 3 -0.001593 0.002576 0.013042 0.000000 0.000000 0.000000
# 4 0.000000 0.000000 0.000000 -0.067707 0.000000 0.000000
# 5 0.000000 0.000000 0.000000 0.000000 0.114170 0.000000
# 6 0.000000 0.000000 0.000000 0.000000 0.000000 0.229086
#
#
# Mechanical properties :
#
#
# Convention : Reuss Voigt Hill
#
# Bulk Modulus (GPa) = 27.11701 27.73996 27.42849
# Shear Modulus (GPa) = 15.56391 18.25871 16.91131
#
# Velocity S-wave (km/s) = 2.84663 3.08323 2.96729
# Velocity P-wave (km/s) = 4.99227 5.20747 5.10101
#
# Compressibility (1/GPa) = 0.03687722
#
# Stress axis : x y z
#
# Youngs Moduli (GPa) = 88.67480 92.36142 76.67748
#
# Poissons Ratio (x) = 0.01084 0.12212
# Poissons Ratio (y) = 0.01041 -0.19750
# Poissons Ratio (z) = 0.14123 -0.23790
#
# Static dielectric constant tensor:
#      x y z
#    x 1.662010 0.000000 0.000000 
#    y 0.000000 1.690900 0.000000 
#    z 0.000000 0.000000 1.662120 
# 
# From -- ./inp_files/20079.got.cif
#   From: 2010.05.17/outbox.cif.g08.bks.cpg/sg65_11_cif.got.tgz:20079.got - 2010.06.03 17:01:31.
