data_PCOD9489100
_publ_section_title
;
Structure prediction by ZEFSAII (Michael W. Deem and Ramdas Pophale) SiO2 
 PCOD9489100
Probable space group: C M M M
;
_chemical_formula_sum "Si O2"
_cell_formula_units_Z 64
_cell_length_a 29.030338
_cell_length_b 7.415647
_cell_length_c 17.317719
_cell_angle_alpha 90.000000
_cell_angle_beta 90.000000
_cell_angle_gamma 90.000000
_cell_volume 3728.136707
_symmetry_space_group_name_H-M "C M M M"
_symmetry_group_IT_number 65
_symmetry_cell_setting 'orthorhombic'
loop_
_space_group_symop_operation_xyz
x,y,z
-x,-y,z
x,-y,-z
-x,y,-z
-x,-y,-z
x,y,-z
-x,y,z
x,-y,z
1/2+x,1/2+y,z
1/2-x,1/2-y,z
1/2+x,1/2-y,-z
1/2-x,1/2+y,-z
1/2-x,1/2-y,-z
1/2+x,1/2+y,-z
1/2-x,1/2+y,z
1/2+x,1/2-y,z
loop_
_atom_site_type_symbol
_atom_site_label
_atom_site_fract_x
_atom_site_fract_y
_atom_site_fract_z
Si Si1 0.551725 0.500000 0.091474
Si Si2 0.390646 0.217275 0.819592
Si Si3 0.444177 0.792946 0.500000
Si Si4 0.303407 0.214731 0.912731
Si Si5 0.553393 0.779957 0.330692
O O1 0.500000 0.500000 0.121893
O O2 0.576886 0.321784 0.121228
O O3 0.551448 0.500000 0.000000
O O4 0.339372 0.272931 0.847041
O O5 0.410485 0.270266 0.735658
O O6 0.394533 0.000000 0.825065
O O7 0.500000 0.797570 0.500000
O O8 0.432349 0.714763 0.583740
O O9 0.427428 0.000000 0.500000
O O10 0.250000 0.250000 0.895155
O O11 0.308644 0.000000 0.917599
O O12 0.313123 0.286672 0.000000
O O13 0.500000 0.725278 0.314633
O O14 0.552411 0.000000 0.333719
#
# Coordination Sequence:
#
# PCOD9489100 Si02
#       5
#     8  16   8  16  16
#     4  11  24  36  48  69  97 133 169 198 235 285
#     4  10  20  34  51  71  96 126 163 202 243 286
#     4   7  10  18  36  65  94 119 152 188 226 274
#     4   9  18  31  48  69  90 116 153 201 253 295
#     4   8  13  23  42  67  95 125 154 189 231 277
#
# _framework density 17.166753
#
# number of rings (size 3 to 8) (size 9 to 14) (size 15 to 20)
#    0.000    3.000    0.000    3.000    1.750    3.000 
#    0.000    1.250    0.000    0.750    0.000    4.375 
#    0.000    0.000    0.000    0.000    0.000    0.500 
#
# Total GULP energy -178148.794216 kJ/mol
# GULP energy per Si atom -5567.149819 kJ/mol
# Density = 1.712768 g / cm^3
# Si number density = 17.166753 Si / 1000 Ang^3
#
#
#
# Elastic Constant Matrix: (Units=GPa)
#
#
# Indices 1 2 3 4 5 6 
#
# 1 116.7019 9.7174 85.2877 0.0000 0.0000 0.0000
# 2 9.7174 52.9732 16.9319 0.0000 0.0000 0.0000
# 3 85.2877 16.9319 150.0824 0.0000 0.0000 0.0000
# 4 0.0000 0.0000 0.0000 -6.1704 0.0000 0.0000
# 5 0.0000 0.0000 0.0000 0.0000 49.1286 0.0000
# 6 0.0000 0.0000 0.0000 0.0000 0.0000 7.8588
#
#
#
# Elastic Compliance Matrix: (Units=1/GPa)
#
#
# Indices 1 2 3 4 5 6 
#
# 1 0.014655 -0.000027 -0.008325 0.000000 0.000000 0.000000
# 2 -0.000027 0.019584 -0.002194 0.000000 0.000000 0.000000
# 3 -0.008325 -0.002194 0.011641 0.000000 0.000000 0.000000
# 4 0.000000 0.000000 0.000000 -0.162064 0.000000 0.000000
# 5 0.000000 0.000000 0.000000 0.000000 0.020355 0.000000
# 6 0.000000 0.000000 0.000000 0.000000 0.000000 0.127246
#
#
# Mechanical properties :
#
#
# Convention : Reuss Voigt Hill
#
# Bulk Modulus (GPa) = 40.34244 60.40349 50.37297
# Shear Modulus (GPa) = 82.27437 24.01809 53.14623
#
# Velocity S-wave (km/s) = 6.93041 3.74452 5.57010
# Velocity P-wave (km/s) = 9.35907 7.34561 8.41279
#
# Compressibility (1/GPa) = 0.02478779
#
# Stress axis : x y z
#
# Youngs Moduli (GPa) = 68.23506 51.06285 85.90022
#
# Poissons Ratio (x) = 0.00140 0.71513
# Poissons Ratio (y) = 0.00187 0.18845
# Poissons Ratio (z) = 0.56806 0.11202
#
# Static dielectric constant tensor:
#      x y z
#    x 1.570600 0.000000 0.000000 
#    y 0.000000 1.409920 0.000000 
#    z 0.000000 0.000000 1.615890 
# 
# From -- ./inp_files/47392.got.cif
#   From: 2010.05.17/outbox.cif.g08.bks.cpg/sg65_24_cif.got.tgz:47392.got - 2010.06.03 17:01:31.
