data_PCOD9489782
_publ_section_title
;
Structure prediction by ZEFSAII (Michael W. Deem and Ramdas Pophale) SiO2 
 PCOD9489782
Probable space group: C M M M
;
_chemical_formula_sum "Si O2"
_cell_formula_units_Z 66
_cell_length_a 16.586192
_cell_length_b 23.529514
_cell_length_c 7.635859
_cell_angle_alpha 90.000000
_cell_angle_beta 90.000000
_cell_angle_gamma 90.000000
_cell_volume 2980.008794
_symmetry_space_group_name_H-M "C M M M"
_symmetry_group_IT_number 65
_symmetry_cell_setting 'orthorhombic'
loop_
_space_group_symop_operation_xyz
x,y,z
-x,-y,z
x,-y,-z
-x,y,-z
-x,-y,-z
x,y,-z
-x,y,z
x,-y,z
1/2+x,1/2+y,z
1/2-x,1/2-y,z
1/2+x,1/2-y,-z
1/2-x,1/2+y,-z
1/2-x,1/2-y,-z
1/2+x,1/2+y,-z
1/2-x,1/2+y,z
1/2+x,1/2-y,z
loop_
_atom_site_type_symbol
_atom_site_label
_atom_site_fract_x
_atom_site_fract_y
_atom_site_fract_z
Si Si1 0.654551 0.374330 0.708713
Si Si2 0.671752 0.878655 0.287084
Si Si3 0.000000 0.500000 0.500000
Si Si4 0.369270 0.000000 0.192969
Si Si5 0.500000 0.694323 0.285198
Si Si6 0.500000 0.173817 0.286384
Si Si7 0.406728 0.500000 0.790757
O O1 0.655382 0.365992 0.500000
O O2 0.742586 0.352814 0.769889
O O3 0.579477 0.338262 0.778247
O O4 0.636014 0.441165 0.736822
O O5 0.668978 0.878283 0.500000
O O6 0.679178 0.942589 0.218868
O O7 0.584576 0.854665 0.228474
O O8 0.067922 0.500000 0.348197
O O9 0.405400 0.000000 0.000000
O O10 0.500000 0.692664 0.500000
O O11 0.500000 0.760326 0.237299
O O12 0.500000 0.168909 0.500000
O O13 0.500000 0.500000 0.725267
O O14 0.409056 0.500000 0.000000
#
# Coordination Sequence:
#
# PCOD9489782 Si02
#       7
#    16  16   2   8   8   8   8
#     4  10  20  34  58  86 118 152 194 246 307 358
#     4  10  20  36  58  86 121 163 198 251 307 362
#     4  12  22  40  60  86 132 158 206 256 296 352
#     4  12  24  38  63  93 125 167 206 248 310 375
#     4   9  18  34  54  85 116 151 208 255 293 368
#     4   9  19  34  56  80 115 158 203 247 300 354
#     4  11  22  35  55  84 114 148 188 234 299 376
#
# _framework density 22.147583999999998
#
# number of rings (size 3 to 8) (size 9 to 14) (size 15 to 20)
#    0.000    1.818    2.424    2.000    1.697    5.333 
#    0.000    4.848    0.000    2.909    0.000    3.394 
#    0.000    0.000    0.000    0.000    0.000    0.000 
#
# Total GULP energy -183929.844050 kJ/mol
# GULP energy per Si atom -5573.631638 kJ/mol
# Density = 2.209718 g / cm^3
# Si number density = 22.147584 Si / 1000 Ang^3
#
#
#
# Elastic Constant Matrix: (Units=GPa)
#
#
# Indices 1 2 3 4 5 6 
#
# 1 248.8097 89.8496 19.7618 0.0000 0.0000 0.0000
# 2 89.8496 118.4589 -17.0648 0.0000 0.0000 0.0000
# 3 19.7618 -17.0648 74.6085 0.0000 0.0000 0.0000
# 4 0.0000 0.0000 0.0000 -1.9615 0.0000 0.0000
# 5 0.0000 0.0000 0.0000 0.0000 8.5182 0.0000
# 6 0.0000 0.0000 0.0000 0.0000 0.0000 -14.7867
#
#
#
# Elastic Compliance Matrix: (Units=1/GPa)
#
#
# Indices 1 2 3 4 5 6 
#
# 1 0.006030 -0.004968 -0.002733 0.000000 0.000000 0.000000
# 2 -0.004968 0.012822 0.004248 0.000000 0.000000 0.000000
# 3 -0.002733 0.004248 0.015099 0.000000 0.000000 0.000000
# 4 0.000000 0.000000 0.000000 -0.509813 0.000000 0.000000
# 5 0.000000 0.000000 0.000000 0.000000 0.117396 0.000000
# 6 0.000000 0.000000 0.000000 0.000000 0.000000 -0.067628
#
#
# Mechanical properties :
#
#
# Convention : Reuss Voigt Hill
#
# Bulk Modulus (GPa) = 36.97468 69.66337 53.31902
# Shear Modulus (GPa) = -12.18992 21.64270 4.72639
#
# Velocity S-wave (km/s) = -2.34860 3.12942 1.46242
# Velocity P-wave (km/s) = 3.06209 6.67683 5.19406
#
# Compressibility (1/GPa) = 0.02704553
#
# Stress axis : x y z
#
# Youngs Moduli (GPa) = 165.83489 77.99370 66.22953
#
# Poissons Ratio (x) = 0.38743 0.18103
# Poissons Ratio (y) = 0.82379 -0.28137
# Poissons Ratio (z) = 0.45329 -0.33135
#
# Static dielectric constant tensor:
#      x y z
#    x 1.850590 0.000000 0.000000 
#    y 0.000000 1.826840 0.000000 
#    z 0.000000 0.000000 1.790590 
# 
# From -- ./inp_files/6893.got.cif
#   From: 2010.05.17/outbox.cif.g08.bks.cpg/sg65_4_cif.got.tgz:6893.got - 2010.06.03 17:01:31.
