data_PCOD9489473
_publ_section_title
;
Structure prediction by ZEFSAII (Michael W. Deem and Ramdas Pophale) SiO2 
 PCOD9489473
Probable space group: C M M M
;
_chemical_formula_sum "Si O2"
_cell_formula_units_Z 72
_cell_length_a 7.791167
_cell_length_b 18.616316
_cell_length_c 24.022804
_cell_angle_alpha 90.000000
_cell_angle_beta 90.000000
_cell_angle_gamma 90.000000
_cell_volume 3484.335402
_symmetry_space_group_name_H-M "C M M M"
_symmetry_group_IT_number 65
_symmetry_cell_setting 'orthorhombic'
loop_
_space_group_symop_operation_xyz
x,y,z
-x,-y,z
x,-y,-z
-x,y,-z
-x,-y,-z
x,y,-z
-x,y,z
x,-y,z
1/2+x,1/2+y,z
1/2-x,1/2-y,z
1/2+x,1/2-y,-z
1/2-x,1/2+y,-z
1/2-x,1/2-y,-z
1/2+x,1/2+y,-z
1/2-x,1/2+y,z
1/2+x,1/2-y,z
loop_
_atom_site_type_symbol
_atom_site_label
_atom_site_fract_x
_atom_site_fract_y
_atom_site_fract_z
Si Si1 0.289727 0.417277 0.329356
Si Si2 0.293328 0.666648 0.562106
Si Si3 0.294896 0.418533 0.888721
Si Si4 0.706808 0.333699 0.219461
Si Si5 0.797360 0.666179 0.000000
O O1 0.500000 0.416079 0.329630
O O2 0.237507 0.500000 0.324338
O O3 0.230640 0.381942 0.387168
O O4 0.232135 0.370989 0.276325
O O5 0.229379 0.647698 0.500000
O O6 0.500000 0.660478 0.560981
O O7 0.250000 0.750000 0.572326
O O8 0.500000 0.423898 0.881597
O O9 0.227015 0.500000 0.892699
O O10 0.227411 0.375826 0.834926
O O11 0.266117 0.373968 0.944790
O O12 0.500000 0.339276 0.219409
O O13 0.750000 0.250000 0.217324
O O14 0.750000 0.750000 0.000000
O O15 0.000000 0.661092 0.000000
#
# Coordination Sequence:
#
# PCOD9489473 Si02
#       5
#    16  16  16  16   8
#     4   9  17  30  49  73 100 130 168 213 256 300
#     4   9  17  29  47  71  98 130 167 207 252 301
#     4  10  21  38  59  82 109 140 174 214 262 313
#     4  10  20  34  54  78 103 135 173 212 256 306
#     4  12  25  40  59  83 111 143 179 216 257 306
#
# _framework density 20.663912
#
# number of rings (size 3 to 8) (size 9 to 14) (size 15 to 20)
#    0.000    2.222    0.000    3.333    0.000    7.556 
#    0.000    2.222    0.000    4.000    0.000    3.111 
#    0.000    0.000    0.000    0.000    0.000    0.000 
#
# Total GULP energy -201101.835557 kJ/mol
# GULP energy per Si atom -5586.162099 kJ/mol
# Density = 2.061688 g / cm^3
# Si number density = 20.663912 Si / 1000 Ang^3
#
#
#
# Elastic Constant Matrix: (Units=GPa)
#
#
# Indices 1 2 3 4 5 6 
#
# 1 28.3273 1.3388 5.2219 0.0000 0.0000 0.0000
# 2 1.3388 209.7881 145.1821 0.0000 0.0000 0.0000
# 3 5.2219 145.1821 217.2957 0.0000 0.0000 0.0000
# 4 0.0000 0.0000 0.0000 16.8795 0.0000 0.0000
# 5 0.0000 0.0000 0.0000 0.0000 -12.8582 0.0000
# 6 0.0000 0.0000 0.0000 0.0000 0.0000 25.9957
#
#
#
# Elastic Compliance Matrix: (Units=1/GPa)
#
#
# Indices 1 2 3 4 5 6 
#
# 1 0.035510 0.000677 -0.001306 0.000000 0.000000 0.000000
# 2 0.000677 0.008879 -0.005949 0.000000 0.000000 0.000000
# 3 -0.001306 -0.005949 0.008608 0.000000 0.000000 0.000000
# 4 0.000000 0.000000 0.000000 0.059243 0.000000 0.000000
# 5 0.000000 0.000000 0.000000 0.000000 -0.077772 0.000000
# 6 0.000000 0.000000 0.000000 0.000000 0.000000 0.038468
#
#
# Mechanical properties :
#
#
# Convention : Reuss Voigt Hill
#
# Bulk Modulus (GPa) = 25.09880 84.32185 54.71032
# Shear Modulus (GPa) = 50.31562 26.24796 38.28179
#
# Velocity S-wave (km/s) = 4.93988 3.56790 4.30884
# Velocity P-wave (km/s) = 6.68648 7.60711 7.16161
#
# Compressibility (1/GPa) = 0.03984255
#
# Stress axis : x y z
#
# Youngs Moduli (GPa) = 28.16085 112.62347 116.17212
#
# Poissons Ratio (x) = -0.07624 0.15168
# Poissons Ratio (y) = -0.01906 0.69107
# Poissons Ratio (z) = 0.03677 0.66996
#
# Static dielectric constant tensor:
#      x y z
#    x 1.762220 0.000000 0.000000 
#    y 0.000000 1.683360 0.000000 
#    z 0.000000 0.000000 1.769110 
# 
# From -- ./inp_files/67010.got.cif
#   From: 2010.05.17/outbox.cif.g08.bks.cpg/sg65_34_cif.got.tgz:67010.got - 2010.06.03 17:01:31.
