data_PCOD9489549
_publ_section_title
;
Structure prediction by ZEFSAII (Michael W. Deem and Ramdas Pophale) SiO2 
 PCOD9489549
Probable space group: C M M M
;
_chemical_formula_sum "Si O2"
_cell_formula_units_Z 104
_cell_length_a 29.001574
_cell_length_b 9.021470
_cell_length_c 23.686179
_cell_angle_alpha 90.000000
_cell_angle_beta 90.000000
_cell_angle_gamma 90.000000
_cell_volume 6197.176783
_symmetry_space_group_name_H-M "C M M M"
_symmetry_group_IT_number 65
_symmetry_cell_setting 'orthorhombic'
loop_
_space_group_symop_operation_xyz
x,y,z
-x,-y,z
x,-y,-z
-x,y,-z
-x,-y,-z
x,y,-z
-x,y,z
x,-y,z
1/2+x,1/2+y,z
1/2-x,1/2-y,z
1/2+x,1/2-y,-z
1/2-x,1/2+y,-z
1/2-x,1/2-y,-z
1/2+x,1/2+y,-z
1/2-x,1/2+y,z
1/2+x,1/2-y,z
loop_
_atom_site_type_symbol
_atom_site_label
_atom_site_fract_x
_atom_site_fract_y
_atom_site_fract_z
Si Si1 0.056006 0.170785 0.500000
Si Si2 0.053771 0.322036 0.616269
Si Si3 0.701520 0.325438 0.902396
Si Si4 0.108075 0.321880 0.729463
Si Si5 0.298479 0.325543 0.766304
Si Si6 0.892808 0.675881 0.064106
Si Si7 0.944908 0.173931 0.833262
O O1 0.070277 0.250202 0.557820
O O2 0.000000 0.176976 0.500000
O O3 0.070125 0.000000 0.500000
O O4 0.054876 0.500000 0.610445
O O5 0.084258 0.280739 0.670201
O O6 0.000000 0.279490 0.625859
O O7 0.701861 0.500000 0.916057
O O8 0.750000 0.250000 0.917920
O O9 0.695902 0.310515 0.834349
O O10 0.658293 0.243440 0.929754
O O11 0.109764 0.500000 0.733493
O O12 0.158765 0.254316 0.736811
O O13 0.077559 0.257320 0.780379
O O14 0.297833 0.500000 0.753488
O O15 0.250000 0.250000 0.751416
O O16 0.891196 0.500000 0.075394
O O17 0.924632 0.755725 0.109859
O O18 0.909165 0.698787 0.000000
O O19 0.000000 0.187171 0.831758
O O20 0.932277 0.000000 0.830772
#
# Coordination Sequence:
#
# PCOD9489549 Si02
#       7
#     8  16  16  16  16  16  16
#     4   9  17  29  47  73 106 145 186 227 267 303
#     4   9  18  32  50  75 109 149 187 220 259 309
#     4  10  20  35  57  81 107 137 169 209 262 320
#     4  11  21  34  56  83 111 142 178 220 266 315
#     4  10  20  34  54  80 109 140 174 213 263 318
#     4  11  24  40  58  79 103 134 174 218 265 320
#     4  11  24  40  57  78 105 138 175 218 268 317
#
# _framework density 16.781835000000001
#
# number of rings (size 3 to 8) (size 9 to 14) (size 15 to 20)
#    0.000    1.769    1.538    3.000    0.000    7.077 
#    0.000    3.077    0.000    0.000    0.000    0.538 
#    0.000    0.000    0.000    0.000    0.000    0.000 
#
# Total GULP energy -290482.995109 kJ/mol
# GULP energy per Si atom -5586.211444 kJ/mol
# Density = 1.674364 g / cm^3
# Si number density = 16.781835 Si / 1000 Ang^3
#
#
#
# Elastic Constant Matrix: (Units=GPa)
#
#
# Indices 1 2 3 4 5 6 
#
# 1 82.3439 52.6049 61.6964 0.0000 0.0000 0.0000
# 2 52.6049 96.7536 71.5641 0.0000 0.0000 0.0000
# 3 61.6964 71.5641 121.6164 0.0000 0.0000 0.0000
# 4 0.0000 0.0000 0.0000 12.7282 0.0000 0.0000
# 5 0.0000 0.0000 0.0000 0.0000 24.0560 0.0000
# 6 0.0000 0.0000 0.0000 0.0000 0.0000 29.6779
#
#
#
# Elastic Compliance Matrix: (Units=1/GPa)
#
#
# Indices 1 2 3 4 5 6 
#
# 1 0.021653 -0.006459 -0.007184 0.000000 0.000000 0.000000
# 2 -0.006459 0.020228 -0.008626 0.000000 0.000000 0.000000
# 3 -0.007184 -0.008626 0.016943 0.000000 0.000000 0.000000
# 4 0.000000 0.000000 0.000000 0.078566 0.000000 0.000000
# 5 0.000000 0.000000 0.000000 0.000000 0.041570 0.000000
# 6 0.000000 0.000000 0.000000 0.000000 0.000000 0.033695
#
#
# Mechanical properties :
#
#
# Convention : Reuss Voigt Hill
#
# Bulk Modulus (GPa) = 70.00102 74.71610 72.35856
# Shear Modulus (GPa) = 19.08730 20.94899 20.01814
#
# Velocity S-wave (km/s) = 3.37616 3.53698 3.45751
# Velocity P-wave (km/s) = 7.54989 7.82937 7.69090
#
# Compressibility (1/GPa) = 0.01428551
#
# Stress axis : x y z
#
# Youngs Moduli (GPa) = 46.18258 49.43719 59.02197
#
# Poissons Ratio (x) = 0.31933 0.42400
# Poissons Ratio (y) = 0.29831 0.50912
# Poissons Ratio (z) = 0.33177 0.42644
#
# Static dielectric constant tensor:
#      x y z
#    x 1.545430 0.000000 0.000000 
#    y 0.000000 1.559140 0.000000 
#    z 0.000000 0.000000 1.551980 
# 
# From -- ./inp_files/65862.got.cif
#   From: 2010.05.17/outbox.cif.g08.bks.cpg/sg65_33_cif.got.tgz:65862.got - 2010.06.03 17:01:31.
