data_PCOD9489202
_publ_section_title
;
Structure prediction by ZEFSAII (Michael W. Deem and Ramdas Pophale) SiO2 
 PCOD9489202
Probable space group: C M M M
;
_chemical_formula_sum "Si O2"
_cell_formula_units_Z 104
_cell_length_a 24.245422
_cell_length_b 8.711361
_cell_length_c 29.003315
_cell_angle_alpha 90.000000
_cell_angle_beta 90.000000
_cell_angle_gamma 90.000000
_cell_volume 6125.808249
_symmetry_space_group_name_H-M "C M M M"
_symmetry_group_IT_number 65
_symmetry_cell_setting 'orthorhombic'
loop_
_space_group_symop_operation_xyz
x,y,z
-x,-y,z
x,-y,-z
-x,y,-z
-x,-y,-z
x,y,-z
-x,y,z
x,-y,z
1/2+x,1/2+y,z
1/2-x,1/2-y,z
1/2+x,1/2-y,-z
1/2-x,1/2+y,-z
1/2-x,1/2-y,-z
1/2+x,1/2+y,-z
1/2-x,1/2+y,z
1/2+x,1/2-y,z
loop_
_atom_site_type_symbol
_atom_site_label
_atom_site_fract_x
_atom_site_fract_y
_atom_site_fract_z
Si Si1 0.311862 0.817084 0.272170
Si Si2 0.812553 0.684545 0.168397
Si Si3 0.688118 0.815402 0.000000
Si Si4 0.688541 0.317858 0.634503
Si Si5 0.000000 0.315350 0.055053
Si Si6 0.882512 0.815787 0.915131
Si Si7 0.000000 0.174664 0.555680
Si Si8 0.116545 0.316865 0.553752
O O1 0.250000 0.750000 0.271162
O O2 0.333128 0.783612 0.220745
O O3 0.338272 0.744822 0.317899
O O4 0.309705 0.000000 0.277902
O O5 0.810125 0.500000 0.162252
O O6 0.750000 0.750000 0.163129
O O7 0.853647 0.759218 0.131776
O O8 0.750000 0.750000 0.000000
O O9 0.655117 0.753901 0.955817
O O10 0.689162 0.000000 0.000000
O O11 0.691044 0.500000 0.636682
O O12 0.750000 0.250000 0.632334
O O13 0.657393 0.262887 0.589102
O O14 0.055553 0.246818 0.077279
O O15 0.000000 0.500000 0.059813
O O16 0.000000 0.280157 0.000000
O O17 0.882487 0.000000 0.917644
O O18 0.055265 0.264385 0.567742
O O19 0.000000 0.166689 0.500000
O O20 0.000000 0.000000 0.573355
O O21 0.125668 0.272543 0.500000
O O22 0.121651 0.500000 0.556678
#
# Coordination Sequence:
#
# PCOD9489202 Si02
#       8
#    16  16   8  16   8  16   8  16
#     4   9  17  31  52  76 104 138 176 217 261 315
#     4  10  20  35  56  83 113 143 177 219 269 320
#     4  12  24  39  56  79 112 146 178 216 264 314
#     4  11  21  33  51  75 106 141 177 218 265 320
#     4  11  23  41  63  82 106 145 188 228 263 311
#     4  12  24  38  58  83 111 143 180 222 264 314
#     4   9  17  31  51  74  99 128 167 213 259 307
#     4  10  20  34  52  74 102 137 177 220 265 316
#
# _framework density 16.977352
#
# number of rings (size 3 to 8) (size 9 to 14) (size 15 to 20)
#    0.000    1.538    0.769    6.692    0.000    4.308 
#    0.000    0.000    0.000    0.923    0.000    1.077 
#    0.000    0.000    0.000    0.000    0.000    0.000 
#
# Total GULP energy -290224.371654 kJ/mol
# GULP energy per Si atom -5581.237916 kJ/mol
# Density = 1.693871 g / cm^3
# Si number density = 16.977352 Si / 1000 Ang^3
#
#
#
# Elastic Constant Matrix: (Units=GPa)
#
#
# Indices 1 2 3 4 5 6 
#
# 1 109.5585 55.8062 71.9093 0.0000 0.0000 0.0000
# 2 55.8062 137.9517 79.3335 0.0000 0.0000 0.0000
# 3 71.9093 79.3335 148.1803 0.0000 0.0000 0.0000
# 4 0.0000 0.0000 0.0000 27.0641 0.0000 0.0000
# 5 0.0000 0.0000 0.0000 0.0000 -8.1163 0.0000
# 6 0.0000 0.0000 0.0000 0.0000 0.0000 30.1021
#
#
#
# Elastic Compliance Matrix: (Units=1/GPa)
#
#
# Indices 1 2 3 4 5 6 
#
# 1 0.013981 -0.002534 -0.005428 0.000000 0.000000 0.000000
# 2 -0.002534 0.010933 -0.004624 0.000000 0.000000 0.000000
# 3 -0.005428 -0.004624 0.011858 0.000000 0.000000 0.000000
# 4 0.000000 0.000000 0.000000 0.036949 0.000000 0.000000
# 5 0.000000 0.000000 0.000000 0.000000 -0.123209 0.000000
# 6 0.000000 0.000000 0.000000 0.000000 0.000000 0.033220
#
#
# Mechanical properties :
#
#
# Convention : Reuss Voigt Hill
#
# Bulk Modulus (GPa) = 86.20282 89.97651 88.08966
# Shear Modulus (GPa) = 391.50891 22.38608 206.94750
#
# Velocity S-wave (km/s) = 15.20221 3.63517 11.05264
# Velocity P-wave (km/s) = 18.94804 8.41025 14.65880
#
# Compressibility (1/GPa) = 0.01160055
#
# Stress axis : x y z
#
# Youngs Moduli (GPa) = 71.52500 91.46582 84.33129
#
# Poissons Ratio (x) = 0.23180 0.45775
# Poissons Ratio (y) = 0.18127 0.38991
# Poissons Ratio (z) = 0.38823 0.42289
#
# Static dielectric constant tensor:
#      x y z
#    x 1.537170 0.000000 0.000000 
#    y 0.000000 1.566690 0.000000 
#    z 0.000000 0.000000 1.600370 
# 
# From -- ./inp_files/75818.got.cif
#   From: 2010.05.17/outbox.cif.g08.bks.cpg/sg65_38_cif.got.tgz:75818.got - 2010.06.03 17:01:31.
