data_PCOD9489339
_publ_section_title
;
Structure prediction by ZEFSAII (Michael W. Deem and Ramdas Pophale) SiO2 
 PCOD9489339
Probable space group: C M M M
;
_chemical_formula_sum "Si O2"
_cell_formula_units_Z 88
_cell_length_a 8.991560
_cell_length_b 31.029277
_cell_length_c 17.802370
_cell_angle_alpha 90.000000
_cell_angle_beta 90.000000
_cell_angle_gamma 90.000000
_cell_volume 4966.889819
_symmetry_space_group_name_H-M "C M M M"
_symmetry_group_IT_number 65
_symmetry_cell_setting 'orthorhombic'
loop_
_space_group_symop_operation_xyz
x,y,z
-x,-y,z
x,-y,-z
-x,y,-z
-x,-y,-z
x,y,-z
-x,y,z
x,-y,z
1/2+x,1/2+y,z
1/2-x,1/2-y,z
1/2+x,1/2-y,-z
1/2-x,1/2+y,-z
1/2-x,1/2-y,-z
1/2+x,1/2+y,-z
1/2-x,1/2+y,z
1/2+x,1/2-y,z
loop_
_atom_site_type_symbol
_atom_site_label
_atom_site_fract_x
_atom_site_fract_y
_atom_site_fract_z
Si Si1 0.181195 0.450594 0.415581
Si Si2 0.671929 0.294351 0.112679
Si Si3 0.321414 0.117872 0.293757
Si Si4 0.170244 0.206660 0.704604
Si Si5 0.321174 0.551009 0.000000
Si Si6 0.821339 0.614961 0.882370
O O1 0.225984 0.437279 0.500000
O O2 0.227862 0.500000 0.403729
O O3 0.231912 0.419290 0.349676
O O4 0.000000 0.450405 0.414449
O O5 0.500000 0.296064 0.088917
O O6 0.750000 0.250000 0.087549
O O7 0.672895 0.292864 0.203975
O O8 0.757476 0.338369 0.092574
O O9 0.500000 0.120411 0.297655
O O10 0.254414 0.163464 0.317706
O O11 0.284970 0.109908 0.206189
O O12 0.250000 0.250000 0.678614
O O13 0.000000 0.205823 0.680590
O O14 0.252601 0.576664 0.070654
O O15 0.284411 0.500000 0.000000
O O16 0.500000 0.555095 0.000000
O O17 0.000000 0.614674 0.891495
#
# Coordination Sequence:
#
# PCOD9489339 Si02
#       6
#    16  16  16  16   8  16
#     4   8  14  26  46  73 103 132 162 199 245 295
#     4   9  16  28  48  74 104 135 166 201 245 296
#     4   9  17  29  49  77 104 130 164 205 245 289
#     4   9  16  26  43  68  99 133 167 203 243 289
#     4  11  25  43  58  71  94 131 171 211 257 303
#     4  10  20  34  53  77 103 131 167 209 252 298
#
# _framework density 17.717324999999999
#
# number of rings (size 3 to 8) (size 9 to 14) (size 15 to 20)
#    0.000    2.818    0.000    2.455    0.000    6.545 
#    0.000    2.273    0.000    1.636    0.000    1.273 
#    0.000    0.000    0.000    0.000    0.000    0.000 
#
# Total GULP energy -245332.209081 kJ/mol
# GULP energy per Si atom -5575.732025 kJ/mol
# Density = 1.767700 g / cm^3
# Si number density = 17.717325 Si / 1000 Ang^3
#
#
#
# Elastic Constant Matrix: (Units=GPa)
#
#
# Indices 1 2 3 4 5 6 
#
# 1 61.9509 63.7339 36.4683 0.0000 0.0000 0.0000
# 2 63.7339 178.9625 83.0961 0.0000 0.0000 0.0000
# 3 36.4683 83.0961 85.4459 0.0000 0.0000 0.0000
# 4 0.0000 0.0000 0.0000 -185.1577 0.0000 0.0000
# 5 0.0000 0.0000 0.0000 0.0000 4.9152 0.0000
# 6 0.0000 0.0000 0.0000 0.0000 0.0000 30.0065
#
#
#
# Elastic Compliance Matrix: (Units=1/GPa)
#
#
# Indices 1 2 3 4 5 6 
#
# 1 0.026147 -0.007531 -0.003836 0.000000 0.000000 0.000000
# 2 -0.007531 0.012357 -0.008803 0.000000 0.000000 0.000000
# 3 -0.003836 -0.008803 0.021902 0.000000 0.000000 0.000000
# 4 0.000000 0.000000 0.000000 -0.005401 0.000000 0.000000
# 5 0.000000 0.000000 0.000000 0.000000 0.203449 0.000000
# 6 0.000000 0.000000 0.000000 0.000000 0.000000 0.033326
#
#
# Mechanical properties :
#
#
# Convention : Reuss Voigt Hill
#
# Bulk Modulus (GPa) = 49.83506 76.99511 63.41508
# Shear Modulus (GPa) = 14.75755 -20.50979 -2.87612
#
# Velocity S-wave (km/s) = 2.88921 -3.40606 -1.27549
# Velocity P-wave (km/s) = 6.27048 5.29939 5.80528
#
# Compressibility (1/GPa) = 0.02006620
#
# Stress axis : x y z
#
# Youngs Moduli (GPa) = 38.24467 80.92435 45.65842
#
# Poissons Ratio (x) = 0.60942 0.17515
# Poissons Ratio (y) = 0.28801 0.40194
# Poissons Ratio (z) = 0.14671 0.71240
#
# Static dielectric constant tensor:
#      x y z
#    x 1.592480 0.000000 0.000000 
#    y 0.000000 1.581920 0.000000 
#    z 0.000000 0.000000 1.620760 
# 
# From -- ./inp_files/50411.got.cif
#   From: 2010.05.17/outbox.cif.g08.bks.cpg/sg65_26_cif.got.tgz:50411.got - 2010.06.03 17:01:31.
