data_PCOD9489087
_publ_section_title
;
Structure prediction by ZEFSAII (Michael W. Deem and Ramdas Pophale) SiO2 
 PCOD9489087
Probable space group: C M M M
;
_chemical_formula_sum "Si O2"
_cell_formula_units_Z 88
_cell_length_a 8.884815
_cell_length_b 26.288856
_cell_length_c 22.733143
_cell_angle_alpha 90.000000
_cell_angle_beta 90.000000
_cell_angle_gamma 90.000000
_cell_volume 5309.817086
_symmetry_space_group_name_H-M "C M M M"
_symmetry_group_IT_number 65
_symmetry_cell_setting 'orthorhombic'
loop_
_space_group_symop_operation_xyz
x,y,z
-x,-y,z
x,-y,-z
-x,y,-z
-x,-y,-z
x,y,-z
-x,y,z
x,-y,z
1/2+x,1/2+y,z
1/2-x,1/2-y,z
1/2+x,1/2-y,-z
1/2-x,1/2+y,-z
1/2-x,1/2-y,-z
1/2+x,1/2+y,-z
1/2-x,1/2+y,z
1/2+x,1/2-y,z
loop_
_atom_site_type_symbol
_atom_site_label
_atom_site_fract_x
_atom_site_fract_y
_atom_site_fract_z
Si Si1 0.820037 0.806151 0.064861
Si Si2 0.179860 0.500000 0.567966
Si Si3 0.824231 0.655021 0.816369
Si Si4 0.170937 0.058279 0.778549
Si Si5 0.681634 0.304194 0.303813
Si Si6 0.674694 0.588801 0.643211
O O1 0.750000 0.750000 0.064264
O O2 0.747597 0.832447 0.121028
O O3 0.000000 0.803380 0.071603
O O4 0.788194 0.829164 0.000000
O O5 0.228849 0.500000 0.500000
O O6 0.238131 0.448936 0.600218
O O7 0.000000 0.500000 0.570360
O O8 0.792807 0.595754 0.804917
O O9 0.741995 0.683369 0.761956
O O10 0.000000 0.667785 0.815227
O O11 0.180032 0.063717 0.708083
O O12 0.000000 0.075020 0.794740
O O13 0.189763 0.000000 0.795453
O O14 0.500000 0.302241 0.302410
O O15 0.750000 0.250000 0.322331
O O16 0.725474 0.352731 0.344840
O O17 0.500000 0.590509 0.624742
#
# Coordination Sequence:
#
# PCOD9489087 Si02
#       6
#    16   8  16  16  16  16
#     4  10  20  34  51  69  92 125 164 206 252 299
#     4  11  23  35  51  79 111 139 170 213 256 293
#     4  11  21  31  47  73 103 133 166 204 250 303
#     4   9  17  32  52  73 100 130 163 205 252 300
#     4  10  20  34  52  76 106 137 171 210 256 308
#     4   9  18  34  54  76 102 136 173 209 252 302
#
# _framework density 16.573076
#
# number of rings (size 3 to 8) (size 9 to 14) (size 15 to 20)
#    0.000    2.091    0.909    4.636    0.000    5.818 
#    0.000    0.000    0.000    1.091    0.000    3.818 
#    0.000    0.000    0.000    0.000    0.000    0.000 
#
# Total GULP energy -245290.446351 kJ/mol
# GULP energy per Si atom -5574.782872 kJ/mol
# Density = 1.653535 g / cm^3
# Si number density = 16.573076 Si / 1000 Ang^3
#
#
#
# Elastic Constant Matrix: (Units=GPa)
#
#
# Indices 1 2 3 4 5 6 
#
# 1 75.6069 40.2682 46.1702 0.0000 0.0000 0.0000
# 2 40.2682 107.2399 48.4040 0.0000 0.0000 0.0000
# 3 46.1702 48.4040 91.9288 0.0000 0.0000 0.0000
# 4 0.0000 0.0000 0.0000 19.5744 0.0000 0.0000
# 5 0.0000 0.0000 0.0000 0.0000 22.9713 0.0000
# 6 0.0000 0.0000 0.0000 0.0000 0.0000 30.5230
#
#
#
# Elastic Compliance Matrix: (Units=1/GPa)
#
#
# Indices 1 2 3 4 5 6 
#
# 1 0.020283 -0.003959 -0.008102 0.000000 0.000000 0.000000
# 2 -0.003959 0.013005 -0.004859 0.000000 0.000000 0.000000
# 3 -0.008102 -0.004859 0.017506 0.000000 0.000000 0.000000
# 4 0.000000 0.000000 0.000000 0.051087 0.000000 0.000000
# 5 0.000000 0.000000 0.000000 0.000000 0.043533 0.000000
# 6 0.000000 0.000000 0.000000 0.000000 0.000000 0.032762
#
#
# Mechanical properties :
#
#
# Convention : Reuss Voigt Hill
#
# Bulk Modulus (GPa) = 58.98850 60.49561 59.74206
# Shear Modulus (GPa) = 22.97096 23.94260 23.45678
#
# Velocity S-wave (km/s) = 3.72700 3.80500 3.76620
# Velocity P-wave (km/s) = 7.36145 7.47567 7.41878
#
# Compressibility (1/GPa) = 0.01695246
#
# Stress axis : x y z
#
# Youngs Moduli (GPa) = 49.30349 76.89519 57.12436
#
# Poissons Ratio (x) = 0.30443 0.46283
# Poissons Ratio (y) = 0.19520 0.27757
# Poissons Ratio (z) = 0.39946 0.37364
#
# Static dielectric constant tensor:
#      x y z
#    x 1.563140 0.000000 0.000000 
#    y 0.000000 1.584870 0.000000 
#    z 0.000000 0.000000 1.548040 
# 
# From -- ./inp_files/59812.got.cif
#   From: 2010.05.17/outbox.cif.g08.bks.cpg/sg65_30_cif.got.tgz:59812.got - 2010.06.03 17:01:31.
