data_PCOD9489732
_publ_section_title
;
Structure prediction by ZEFSAII (Michael W. Deem and Ramdas Pophale) SiO2 
 PCOD9489732
Probable space group: C M M M
;
_chemical_formula_sum "Si O2"
_cell_formula_units_Z 104
_cell_length_a 19.768198
_cell_length_b 14.789835
_cell_length_c 15.430350
_cell_angle_alpha 90.000000
_cell_angle_beta 90.000000
_cell_angle_gamma 90.000000
_cell_volume 4511.346535
_symmetry_space_group_name_H-M "C M M M"
_symmetry_group_IT_number 65
_symmetry_cell_setting 'orthorhombic'
loop_
_space_group_symop_operation_xyz
x,y,z
-x,-y,z
x,-y,-z
-x,y,-z
-x,-y,-z
x,y,-z
-x,y,z
x,-y,z
1/2+x,1/2+y,z
1/2-x,1/2-y,z
1/2+x,1/2-y,-z
1/2-x,1/2+y,-z
1/2-x,1/2-y,-z
1/2+x,1/2+y,-z
1/2-x,1/2+y,z
1/2+x,1/2-y,z
loop_
_atom_site_type_symbol
_atom_site_label
_atom_site_fract_x
_atom_site_fract_y
_atom_site_fract_z
Si Si1 0.735663 0.099097 0.784389
Si Si2 0.628010 0.600260 0.895788
Si Si3 0.721998 0.852340 0.594099
Si Si4 0.076078 0.700914 0.355983
Si Si5 0.080173 0.401266 0.000000
Si Si6 0.889101 0.709380 0.829779
Si Si7 0.918319 0.097051 0.601751
O O1 0.799651 0.100543 0.847578
O O2 0.750880 0.104668 0.681737
O O3 0.687991 0.184391 0.804598
O O4 0.701774 0.000000 0.797953
O O5 0.597536 0.500000 0.881645
O O6 0.593247 0.687384 0.853437
O O7 0.634362 0.612818 0.000000
O O8 0.739568 0.891992 0.500000
O O9 0.750000 0.750000 0.593625
O O10 0.639791 0.850385 0.602654
O O11 0.072637 0.676393 0.255212
O O12 0.098575 0.806779 0.357432
O O13 0.000000 0.692346 0.393917
O O14 0.098887 0.347264 0.915050
O O15 0.112561 0.500000 0.000000
O O16 0.000000 0.409472 0.000000
O O17 0.900172 0.102188 0.500000
O O18 0.000000 0.094055 0.605660
O O19 0.894002 0.000000 0.637330
#
# Coordination Sequence:
#
# PCOD9489732 Si02
#       7
#    16  16  16  16   8  16  16
#     4  10  21  36  58  89 119 154 203 253 310 374
#     4  10  21  37  60  91 124 158 201 253 307 377
#     4  10  21  38  58  83 119 159 200 252 315 377
#     4  10  20  34  56  84 113 154 206 252 299 364
#     4  11  24  40  58  81 111 153 204 254 308 367
#     4  11  21  37  58  84 119 157 196 255 312 366
#     4   8  14  26  46  75 110 144 184 237 288 338
#
# _framework density 23.052983999999999
#
# number of rings (size 3 to 8) (size 9 to 14) (size 15 to 20)
#    0.000    2.077    0.769    4.154    1.077    2.462 
#    0.000    0.769    0.000    6.923    0.000    4.308 
#    0.000    0.000    0.000    0.000    0.000    0.000 
#
# Total GULP energy -290212.999009 kJ/mol
# GULP energy per Si atom -5581.019212 kJ/mol
# Density = 2.300051 g / cm^3
# Si number density = 23.052984 Si / 1000 Ang^3
#
#
#
# Elastic Constant Matrix: (Units=GPa)
#
#
# Indices 1 2 3 4 5 6 
#
# 1 80.3954 -9.0153 2.4807 0.0000 0.0000 0.0000
# 2 -9.0153 68.0504 7.7702 0.0000 0.0000 0.0000
# 3 2.4807 7.7702 123.4460 0.0000 0.0000 0.0000
# 4 0.0000 0.0000 0.0000 -5.2327 0.0000 0.0000
# 5 0.0000 0.0000 0.0000 0.0000 -10.1022 0.0000
# 6 0.0000 0.0000 0.0000 0.0000 0.0000 7.7495
#
#
#
# Elastic Compliance Matrix: (Units=1/GPa)
#
#
# Indices 1 2 3 4 5 6 
#
# 1 0.012642 0.001716 -0.000362 0.000000 0.000000 0.000000
# 2 0.001716 0.015034 -0.000981 0.000000 0.000000 0.000000
# 3 -0.000362 -0.000981 0.008170 0.000000 0.000000 0.000000
# 4 0.000000 0.000000 0.000000 -0.191105 0.000000 0.000000
# 5 0.000000 0.000000 0.000000 0.000000 -0.098988 0.000000
# 6 0.000000 0.000000 0.000000 0.000000 0.000000 0.129041
#
#
# Mechanical properties :
#
#
# Convention : Reuss Voigt Hill
#
# Bulk Modulus (GPa) = 27.32781 30.48478 28.90630
# Shear Modulus (GPa) = -43.95410 16.52665 -13.71373
#
# Velocity S-wave (km/s) = -4.37126 2.68040 -2.44166
# Velocity P-wave (km/s) = 3.68744 4.77827 2.14880
#
# Compressibility (1/GPa) = 0.03659276
#
# Stress axis : x y z
#
# Youngs Moduli (GPa) = 79.10052 66.51443 122.40323
#
# Poissons Ratio (x) = -0.11415 0.04432
# Poissons Ratio (y) = -0.13575 0.12005
# Poissons Ratio (z) = 0.02864 0.06524
#
# Static dielectric constant tensor:
#      x y z
#    x 1.957800 0.000000 0.000000 
#    y 0.000000 1.911950 0.000000 
#    z 0.000000 0.000000 1.862410 
# 
# From -- ./inp_files/45802.got.cif
#   From: 2010.05.17/outbox.cif.g08.bks.cpg/sg65_23_cif.got.tgz:45802.got - 2010.06.03 17:01:31.
