data_PCOD9489428
_publ_section_title
;
Structure prediction by ZEFSAII (Michael W. Deem and Ramdas Pophale) SiO2 
 PCOD9489428
Probable space group: C M M M
;
_chemical_formula_sum "Si O2"
_cell_formula_units_Z 96
_cell_length_a 24.304593
_cell_length_b 13.659754
_cell_length_c 14.453661
_cell_angle_alpha 90.000000
_cell_angle_beta 90.000000
_cell_angle_gamma 90.000000
_cell_volume 4798.539736
_symmetry_space_group_name_H-M "C M M M"
_symmetry_group_IT_number 65
_symmetry_cell_setting 'orthorhombic'
loop_
_space_group_symop_operation_xyz
x,y,z
-x,-y,z
x,-y,-z
-x,y,-z
-x,-y,-z
x,y,-z
-x,y,z
x,-y,z
1/2+x,1/2+y,z
1/2-x,1/2-y,z
1/2+x,1/2-y,-z
1/2-x,1/2+y,-z
1/2-x,1/2-y,-z
1/2+x,1/2+y,-z
1/2-x,1/2+y,z
1/2+x,1/2-y,z
loop_
_atom_site_type_symbol
_atom_site_label
_atom_site_fract_x
_atom_site_fract_y
_atom_site_fract_z
Si Si1 0.721325 0.618857 0.294121
Si Si2 0.826438 0.882434 0.898037
Si Si3 0.562208 0.732123 0.103626
Si Si4 0.394325 0.385706 0.389954
Si Si5 0.330705 0.117475 0.395201
Si Si6 0.438717 0.197737 0.698812
O O1 0.725133 0.500000 0.289535
O O2 0.707222 0.653429 0.190666
O O3 0.668454 0.637201 0.359215
O O4 0.779089 0.653598 0.335101
O O5 0.889162 0.846187 0.887875
O O6 0.825771 0.000000 0.896532
O O7 0.806688 0.850253 0.000000
O O8 0.500000 0.691135 0.110836
O O9 0.568296 0.804326 0.190339
O O10 0.567053 0.775577 0.000000
O O11 0.400850 0.372590 0.500000
O O12 0.404808 0.500000 0.368147
O O13 0.432154 0.310610 0.334123
O O14 0.327159 0.155338 0.500000
O O15 0.388987 0.143907 0.351136
O O16 0.326543 0.000000 0.399163
O O17 0.500000 0.162724 0.674864
#
# Coordination Sequence:
#
# PCOD9489428 Si02
#       6
#    16  16  16  16  16  16
#     4   9  17  33  54  78 110 144 179 224 275 327
#     4   9  16  28  50  80 113 148 186 229 274 321
#     4   9  18  33  52  75 108 149 187 224 268 323
#     4  10  20  34  53  79 113 151 184 217 266 331
#     4  10  22  40  61  82 105 140 188 240 287 329
#     4  11  23  38  57  82 112 144 184 233 281 331
#
# _framework density 20.006086
#
# number of rings (size 3 to 8) (size 9 to 14) (size 15 to 20)
#    0.000    2.333    1.667    1.000    0.000    5.000 
#    0.000    7.500    0.000    3.500    0.000    2.333 
#    0.000    0.000    0.000    0.000    0.000    0.000 
#
# Total GULP energy -267862.732246 kJ/mol
# GULP energy per Si atom -5580.473588 kJ/mol
# Density = 1.996055 g / cm^3
# Si number density = 20.006086 Si / 1000 Ang^3
#
#
#
# Elastic Constant Matrix: (Units=GPa)
#
#
# Indices 1 2 3 4 5 6 
#
# 1 129.5862 8.2637 78.1826 0.0000 0.0000 0.0000
# 2 8.2637 23.2494 9.7714 0.0000 0.0000 0.0000
# 3 78.1826 9.7714 164.2518 0.0000 0.0000 0.0000
# 4 0.0000 0.0000 0.0000 17.7572 0.0000 0.0000
# 5 0.0000 0.0000 0.0000 0.0000 20.9817 0.0000
# 6 0.0000 0.0000 0.0000 0.0000 0.0000 24.4391
#
#
#
# Elastic Compliance Matrix: (Units=1/GPa)
#
#
# Indices 1 2 3 4 5 6 
#
# 1 0.010894 -0.001736 -0.005082 0.000000 0.000000 0.000000
# 2 -0.001736 0.044392 -0.001815 0.000000 0.000000 0.000000
# 3 -0.005082 -0.001815 0.008615 0.000000 0.000000 0.000000
# 4 0.000000 0.000000 0.000000 0.056315 0.000000 0.000000
# 5 0.000000 0.000000 0.000000 0.000000 0.047660 0.000000
# 6 0.000000 0.000000 0.000000 0.000000 0.000000 0.040918
#
#
# Mechanical properties :
#
#
# Convention : Reuss Voigt Hill
#
# Bulk Modulus (GPa) = 21.44302 56.61363 39.02833
# Shear Modulus (GPa) = 20.69496 27.36024 24.02760
#
# Velocity S-wave (km/s) = 3.21975 3.70211 3.46933
# Velocity P-wave (km/s) = 4.95620 6.82890 5.96648
#
# Compressibility (1/GPa) = 0.04663522
#
# Stress axis : x y z
#
# Youngs Moduli (GPa) = 91.79608 22.52677 116.07422
#
# Poissons Ratio (x) = 0.03911 0.58989
# Poissons Ratio (y) = 0.15937 0.21062
# Poissons Ratio (z) = 0.46651 0.04087
#
# Static dielectric constant tensor:
#      x y z
#    x 1.680170 0.000000 0.000000 
#    y 0.000000 1.734010 0.000000 
#    z 0.000000 0.000000 1.729740 
# 
# From -- ./inp_files/40322.got.cif
#   From: 2010.05.17/outbox.cif.g08.bks.cpg/sg65_21_cif.got.tgz:40322.got - 2010.06.03 17:01:31.
