data_PCOD9489769
_publ_section_title
;
Structure prediction by ZEFSAII (Michael W. Deem and Ramdas Pophale) SiO2 
 PCOD9489769
Probable space group: C M M M
;
_chemical_formula_sum "Si O2"
_cell_formula_units_Z 90
_cell_length_a 8.191478
_cell_length_b 24.738416
_cell_length_c 23.013874
_cell_angle_alpha 90.000000
_cell_angle_beta 90.000000
_cell_angle_gamma 90.000000
_cell_volume 4663.627865
_symmetry_space_group_name_H-M "C M M M"
_symmetry_group_IT_number 65
_symmetry_cell_setting 'orthorhombic'
loop_
_space_group_symop_operation_xyz
x,y,z
-x,-y,z
x,-y,-z
-x,y,-z
-x,-y,-z
x,y,-z
-x,y,z
x,-y,z
1/2+x,1/2+y,z
1/2-x,1/2-y,z
1/2+x,1/2-y,-z
1/2-x,1/2+y,-z
1/2-x,1/2-y,-z
1/2+x,1/2+y,-z
1/2-x,1/2+y,z
1/2+x,1/2-y,z
loop_
_atom_site_type_symbol
_atom_site_label
_atom_site_fract_x
_atom_site_fract_y
_atom_site_fract_z
Si Si1 0.306257 0.106170 0.684673
Si Si2 0.297048 0.618880 0.887185
Si Si3 0.257409 0.500000 0.889197
Si Si4 0.807163 0.811423 0.224063
Si Si5 0.196725 0.937740 0.435082
Si Si6 0.500000 0.500000 0.000000
Si Si7 0.695004 0.311680 0.000000
Si Si8 0.200462 0.500000 0.758959
O O1 0.500000 0.107973 0.686839
O O2 0.240167 0.158988 0.716547
O O3 0.253341 0.098013 0.618451
O O4 0.256131 0.053071 0.721781
O O5 0.500000 0.608829 0.887212
O O6 0.200778 0.562457 0.891465
O O7 0.249003 0.651181 0.829382
O O8 0.257085 0.655734 0.942476
O O9 0.363458 0.500000 0.947964
O O10 0.297804 0.500000 0.819644
O O11 0.750000 0.750000 0.220043
O O12 0.000000 0.810755 0.218891
O O13 0.250660 0.921284 0.500000
O O14 0.000000 0.938342 0.435138
O O15 0.251985 0.000000 0.425636
O O16 0.750000 0.250000 0.000000
O O17 0.500000 0.311416 0.000000
O O18 0.000000 0.500000 0.769704
#
# Coordination Sequence:
#
# PCOD9489769 Si02
#       8
#    16  16   8  16  16   2   8   8
#     4  11  21  37  59  87 123 163 203 250 303 362
#     4  10  20  34  57  84 112 140 183 235 295 356
#     4  12  20  38  57  90 117 147 189 240 303 359
#     4  11  23  39  58  85 113 154 201 254 308 363
#     4   9  18  33  54  86 128 168 206 248 297 357
#     4  12  24  32  62  88 120 148 194 246 296 354
#     4  10  21  38  56  78 106 142 188 236 287 343
#     4  10  22  38  56  85 124 161 194 241 307 369
#
# _framework density 19.298282
#
# number of rings (size 3 to 8) (size 9 to 14) (size 15 to 20)
#    0.000    1.600    3.556    2.667    1.244    0.356 
#    1.600    2.889    0.000    0.533    0.000    0.000 
#    0.000    0.000    0.000    0.000    0.000    0.000 
#
# Total GULP energy -250578.142351 kJ/mol
# GULP energy per Si atom -5568.403163 kJ/mol
# Density = 1.925436 g / cm^3
# Si number density = 19.298282 Si / 1000 Ang^3
#
#
#
# Elastic Constant Matrix: (Units=GPa)
#
#
# Indices 1 2 3 4 5 6 
#
# 1 17.9474 21.7724 14.5479 0.0000 0.0000 0.0000
# 2 21.7724 164.6945 77.3913 0.0000 0.0000 0.0000
# 3 14.5479 77.3913 147.9347 0.0000 0.0000 0.0000
# 4 0.0000 0.0000 0.0000 11.4754 0.0000 0.0000
# 5 0.0000 0.0000 0.0000 0.0000 13.9745 0.0000
# 6 0.0000 0.0000 0.0000 0.0000 0.0000 -88.6905
#
#
#
# Elastic Compliance Matrix: (Units=1/GPa)
#
#
# Indices 1 2 3 4 5 6 
#
# 1 0.067105 -0.007651 -0.002596 0.000000 0.000000 0.000000
# 2 -0.007651 0.008923 -0.003916 0.000000 0.000000 0.000000
# 3 -0.002596 -0.003916 0.009064 0.000000 0.000000 0.000000
# 4 0.000000 0.000000 0.000000 0.087143 0.000000 0.000000
# 5 0.000000 0.000000 0.000000 0.000000 0.071559 0.000000
# 6 0.000000 0.000000 0.000000 0.000000 0.000000 -0.011275
#
#
# Mechanical properties :
#
#
# Convention : Reuss Voigt Hill
#
# Bulk Modulus (GPa) = 17.61649 61.99998 39.80824
# Shear Modulus (GPa) = 17.87203 1.80954 9.84079
#
# Velocity S-wave (km/s) = 3.04648 0.96938 2.26061
# Velocity P-wave (km/s) = 4.63930 5.78359 5.24276
#
# Compressibility (1/GPa) = 0.05676499
#
# Stress axis : x y z
#
# Youngs Moduli (GPa) = 14.90209 112.06511 110.33129
#
# Poissons Ratio (x) = 0.85742 0.28647
# Poissons Ratio (y) = 0.11402 0.43204
# Poissons Ratio (z) = 0.03869 0.43883
#
# Static dielectric constant tensor:
#      x y z
#    x 1.718000 0.000000 0.000000 
#    y 0.000000 1.656140 0.000000 
#    z 0.000000 0.000000 1.739980 
# 
# From -- ./inp_files/59970.got.cif
#   From: 2010.05.17/outbox.cif.g08.bks.cpg/sg65_30_cif.got.tgz:59970.got - 2010.06.03 17:01:31.
