data_PCOD9489730
_publ_section_title
;
Structure prediction by ZEFSAII (Michael W. Deem and Ramdas Pophale) SiO2 
 PCOD9489730
Probable space group: C M M M
;
_chemical_formula_sum "Si O2"
_cell_formula_units_Z 100
_cell_length_a 29.391232
_cell_length_b 7.721785
_cell_length_c 19.389808
_cell_angle_alpha 90.000000
_cell_angle_beta 90.000000
_cell_angle_gamma 90.000000
_cell_volume 4400.570720
_symmetry_space_group_name_H-M "C M M M"
_symmetry_group_IT_number 65
_symmetry_cell_setting 'orthorhombic'
loop_
_space_group_symop_operation_xyz
x,y,z
-x,-y,z
x,-y,-z
-x,y,-z
-x,-y,-z
x,y,-z
-x,y,z
x,-y,z
1/2+x,1/2+y,z
1/2-x,1/2-y,z
1/2+x,1/2-y,-z
1/2-x,1/2+y,-z
1/2-x,1/2-y,-z
1/2+x,1/2+y,-z
1/2-x,1/2+y,z
1/2+x,1/2-y,z
loop_
_atom_site_type_symbol
_atom_site_label
_atom_site_fract_x
_atom_site_fract_y
_atom_site_fract_z
Si Si1 0.569533 0.500000 0.000000
Si Si2 0.801817 0.700030 0.867541
Si Si3 0.552138 0.294550 0.766829
Si Si4 0.101265 0.703401 0.900691
Si Si5 0.301860 0.293342 0.707911
Si Si6 0.648539 0.701229 0.426316
Si Si7 0.449746 0.798071 0.392361
O O1 0.571613 0.655554 0.059022
O O2 0.804608 0.500000 0.883151
O O3 0.750000 0.750000 0.884692
O O4 0.846390 0.772663 0.905488
O O5 0.808492 0.724962 0.785354
O O6 0.500000 0.269376 0.790706
O O7 0.561171 0.500000 0.761717
O O8 0.586005 0.212009 0.821220
O O9 0.554933 0.219043 0.690285
O O10 0.097762 0.500000 0.921909
O O11 0.308136 0.500000 0.713720
O O12 0.250000 0.250000 0.689268
O O13 0.332639 0.223786 0.645468
O O14 0.663547 0.778379 0.500000
O O15 0.662844 0.500000 0.426311
O O16 0.594101 0.708653 0.423358
O O17 0.500000 0.729538 0.410578
O O18 0.448194 0.000000 0.411317
#
# Coordination Sequence:
#
# PCOD9489730 Si02
#       7
#     4  16  16  16  16  16  16
#     4  12  26  44  67  88 130 174 196 248 297 360
#     4  10  21  36  62  91 118 149 197 252 302 359
#     4  10  20  37  64  95 121 155 200 248 307 360
#     4  11  24  42  65  92 124 164 208 249 297 360
#     4  10  20  34  56  84 113 146 190 246 303 355
#     4  10  22  38  54  76 111 156 202 242 295 367
#     4  10  21  36  56  85 118 149 192 249 302 353
#
# _framework density 22.724325
#
# number of rings (size 3 to 8) (size 9 to 14) (size 15 to 20)
#    0.000    1.760    0.800    4.080    2.240    6.720 
#    0.000    2.800    0.000    0.960    0.000    0.000 
#    0.000    0.000    0.000    0.000    0.000    0.000 
#
# Total GULP energy -278666.123134 kJ/mol
# GULP energy per Si atom -5573.322463 kJ/mol
# Density = 2.267260 g / cm^3
# Si number density = 22.724325 Si / 1000 Ang^3
#
#
#
# Elastic Constant Matrix: (Units=GPa)
#
#
# Indices 1 2 3 4 5 6 
#
# 1 49.1071 2.0185 5.2246 0.0000 0.0000 0.0000
# 2 2.0185 69.7686 -8.4964 0.0000 0.0000 0.0000
# 3 5.2246 -8.4964 29.7073 0.0000 0.0000 0.0000
# 4 0.0000 0.0000 0.0000 -51.3313 0.0000 0.0000
# 5 0.0000 0.0000 0.0000 0.0000 -5.9654 0.0000
# 6 0.0000 0.0000 0.0000 0.0000 0.0000 9.0036
#
#
#
# Elastic Compliance Matrix: (Units=1/GPa)
#
#
# Indices 1 2 3 4 5 6 
#
# 1 0.020831 -0.001087 -0.003974 0.000000 0.000000 0.000000
# 2 -0.001087 0.014907 0.004455 0.000000 0.000000 0.000000
# 3 -0.003974 0.004455 0.035635 0.000000 0.000000 0.000000
# 4 0.000000 0.000000 0.000000 -0.019481 0.000000 0.000000
# 5 0.000000 0.000000 0.000000 0.000000 -0.167634 0.000000
# 6 0.000000 0.000000 0.000000 0.000000 0.000000 0.111067
#
#
# Mechanical properties :
#
#
# Convention : Reuss Voigt Hill
#
# Bulk Modulus (GPa) = 14.25312 16.23070 15.24191
# Shear Modulus (GPa) = 250.94610 0.33047 125.63829
#
# Velocity S-wave (km/s) = 10.52000 0.38176 7.44366
# Velocity P-wave (km/s) = 12.40348 2.71151 8.97771
#
# Compressibility (1/GPa) = 0.07016007
#
# Stress axis : x y z
#
# Youngs Moduli (GPa) = 48.00502 67.08251 28.06249
#
# Poissons Ratio (x) = 0.07290 0.11153
# Poissons Ratio (y) = 0.05217 -0.12501
# Poissons Ratio (z) = 0.19079 -0.29882
#
# Static dielectric constant tensor:
#      x y z
#    x 1.918540 0.000000 0.000000 
#    y 0.000000 1.817330 0.000000 
#    z 0.000000 0.000000 1.901760 
# 
# From -- ./inp_files/65937.got.cif
#   From: 2010.05.17/outbox.cif.g08.bks.cpg/sg65_33_cif.got.tgz:65937.got - 2010.06.03 17:01:31.
