data_PCOD9489424
_publ_section_title
;
Structure prediction by ZEFSAII (Michael W. Deem and Ramdas Pophale) SiO2 
 PCOD9489424
Probable space group: C M M M
;
_chemical_formula_sum "Si O2"
_cell_formula_units_Z 104
_cell_length_a 8.792961
_cell_length_b 29.016472
_cell_length_c 23.505352
_cell_angle_alpha 90.000000
_cell_angle_beta 90.000000
_cell_angle_gamma 90.000000
_cell_volume 5997.172119
_symmetry_space_group_name_H-M "C M M M"
_symmetry_group_IT_number 65
_symmetry_cell_setting 'orthorhombic'
loop_
_space_group_symop_operation_xyz
x,y,z
-x,-y,z
x,-y,-z
-x,y,-z
-x,-y,-z
x,y,-z
-x,y,z
x,-y,z
1/2+x,1/2+y,z
1/2-x,1/2-y,z
1/2+x,1/2-y,-z
1/2-x,1/2+y,-z
1/2-x,1/2-y,-z
1/2+x,1/2+y,-z
1/2-x,1/2+y,z
1/2+x,1/2-y,z
loop_
_atom_site_type_symbol
_atom_site_label
_atom_site_fract_x
_atom_site_fract_y
_atom_site_fract_z
Si Si1 0.681337 0.198829 0.500000
Si Si2 0.318018 0.052648 0.648560
Si Si3 0.319706 0.447001 0.774749
Si Si4 0.682704 0.140772 0.827433
Si Si5 0.681326 0.644394 0.606076
Si Si6 0.182090 0.198939 0.276850
Si Si7 0.683260 0.199750 0.935275
O O1 0.500000 0.201587 0.500000
O O2 0.750000 0.250000 0.500000
O O3 0.739225 0.171686 0.444644
O O4 0.500000 0.057753 0.647922
O O5 0.257980 0.058641 0.713062
O O6 0.241946 0.092381 0.611405
O O7 0.280469 0.000000 0.631343
O O8 0.500000 0.438925 0.768082
O O9 0.296368 0.500000 0.792671
O O10 0.249742 0.409758 0.816905
O O11 0.500000 0.139353 0.824414
O O12 0.745440 0.172734 0.776654
O O13 0.728936 0.163245 0.887450
O O14 0.500000 0.644571 0.597790
O O15 0.714428 0.670216 0.665755
O O16 0.250000 0.250000 0.281527
O O17 0.000000 0.201282 0.269826
O O18 0.500000 0.202975 0.934188
O O19 0.750000 0.250000 0.921610
O O20 0.729701 0.187916 0.000000
#
# Coordination Sequence:
#
# PCOD9489424 Si02
#       7
#     8  16  16  16  16  16  16
#     4  12  26  44  65  86 113 150 194 239 277 331
#     4  10  20  35  58  87 117 148 184 228 278 333
#     4  10  20  34  53  79 112 147 183 226 276 332
#     4  11  21  33  54  81 110 143 182 230 279 332
#     4  11  23  40  61  85 114 150 189 231 279 333
#     4  11  23  36  53  79 112 146 180 226 277 330
#     4   9  19  35  53  76 107 145 187 228 273 327
#
# _framework density 17.341508000000001
#
# number of rings (size 3 to 8) (size 9 to 14) (size 15 to 20)
#    0.000    1.538    1.538    3.923    0.000    7.385 
#    0.000    0.385    0.000    2.769    0.000    3.231 
#    0.000    0.000    0.000    0.000    0.000    0.000 
#
# Total GULP energy -290555.899503 kJ/mol
# GULP energy per Si atom -5587.613452 kJ/mol
# Density = 1.730204 g / cm^3
# Si number density = 17.341508 Si / 1000 Ang^3
#
#
#
# Elastic Constant Matrix: (Units=GPa)
#
#
# Indices 1 2 3 4 5 6 
#
# 1 73.6544 65.5744 54.0027 0.0000 0.0000 0.0000
# 2 65.5744 152.5925 77.7720 0.0000 0.0000 0.0000
# 3 54.0027 77.7720 99.5810 0.0000 0.0000 0.0000
# 4 0.0000 0.0000 0.0000 28.4650 0.0000 0.0000
# 5 0.0000 0.0000 0.0000 0.0000 20.9954 0.0000
# 6 0.0000 0.0000 0.0000 0.0000 0.0000 35.8151
#
#
#
# Elastic Compliance Matrix: (Units=1/GPa)
#
#
# Indices 1 2 3 4 5 6 
#
# 1 0.026036 -0.006632 -0.008939 0.000000 0.000000 0.000000
# 2 -0.006632 0.012576 -0.006225 0.000000 0.000000 0.000000
# 3 -0.008939 -0.006225 0.019752 0.000000 0.000000 0.000000
# 4 0.000000 0.000000 0.000000 0.035131 0.000000 0.000000
# 5 0.000000 0.000000 0.000000 0.000000 0.047630 0.000000
# 6 0.000000 0.000000 0.000000 0.000000 0.000000 0.027921
#
#
# Mechanical properties :
#
#
# Convention : Reuss Voigt Hill
#
# Bulk Modulus (GPa) = 67.70516 80.05845 73.88180
# Shear Modulus (GPa) = 22.98175 25.62036 24.30106
#
# Velocity S-wave (km/s) = 3.64434 3.84787 3.74749
# Velocity P-wave (km/s) = 7.53892 8.12450 7.83718
#
# Compressibility (1/GPa) = 0.01476992
#
# Stress axis : x y z
#
# Youngs Moduli (GPa) = 38.40820 79.51352 50.62799
#
# Poissons Ratio (x) = 0.52737 0.45259
# Poissons Ratio (y) = 0.25474 0.31518
# Poissons Ratio (z) = 0.34335 0.49500
#
# Static dielectric constant tensor:
#      x y z
#    x 1.580790 0.000000 0.000000 
#    y 0.000000 1.581480 0.000000 
#    z 0.000000 0.000000 1.568270 
# 
# From -- ./inp_files/60412.got.cif
#   From: 2010.05.17/outbox.cif.g08.bks.cpg/sg65_31_cif.got.tgz:60412.got - 2010.06.03 17:01:31.
