data_PCOD9489933
_publ_section_title
;
Structure prediction by ZEFSAII (Michael W. Deem and Ramdas Pophale) SiO2 
 PCOD9489933
Probable space group: C M M M
;
_chemical_formula_sum "Si O2"
_cell_formula_units_Z 96
_cell_length_a 28.482406
_cell_length_b 21.359959
_cell_length_c 9.197867
_cell_angle_alpha 90.000000
_cell_angle_beta 90.000000
_cell_angle_gamma 90.000000
_cell_volume 5595.826143
_symmetry_space_group_name_H-M "C M M M"
_symmetry_group_IT_number 65
_symmetry_cell_setting 'orthorhombic'
loop_
_space_group_symop_operation_xyz
x,y,z
-x,-y,z
x,-y,-z
-x,y,-z
-x,-y,-z
x,y,-z
-x,y,z
x,-y,z
1/2+x,1/2+y,z
1/2-x,1/2-y,z
1/2+x,1/2-y,-z
1/2-x,1/2+y,-z
1/2-x,1/2-y,-z
1/2+x,1/2+y,-z
1/2-x,1/2+y,z
1/2+x,1/2-y,z
loop_
_atom_site_type_symbol
_atom_site_label
_atom_site_fract_x
_atom_site_fract_y
_atom_site_fract_z
Si Si1 0.445373 0.871812 0.174446
Si Si2 0.860867 0.718072 0.825623
Si Si3 0.000000 0.076352 0.667732
Si Si4 0.056952 0.500000 0.666454
Si Si5 0.094025 0.075275 0.166968
Si Si6 0.738819 0.824577 0.164614
Si Si7 0.330472 0.653609 0.327157
O O1 0.500000 0.858686 0.212930
O O2 0.409352 0.816287 0.211151
O O3 0.430003 0.936268 0.250997
O O4 0.443477 0.880494 0.000000
O O5 0.816106 0.672667 0.797481
O O6 0.851182 0.781492 0.738182
O O7 0.859922 0.731416 0.000000
O O8 0.953532 0.096638 0.753097
O O9 0.000000 0.096741 0.500000
O O10 0.000000 0.000000 0.667211
O O11 0.073354 0.500000 0.500000
O O12 0.000000 0.500000 0.665401
O O13 0.137979 0.099985 0.256414
O O14 0.093560 0.000000 0.165250
O O15 0.095404 0.097414 0.000000
O O16 0.750000 0.750000 0.162170
O O17 0.776828 0.852574 0.273041
O O18 0.746286 0.848093 0.000000
O O19 0.333124 0.653898 0.500000
#
# Coordination Sequence:
#
# PCOD9489933 Si02
#       7
#    16  16   8   8  16  16  16
#     4   9  17  31  52  76 101 131 169 208 244 289
#     4   9  18  33  52  74 102 134 169 210 253 299
#     4   9  17  31  51  75 101 127 161 206 253 298
#     4   9  17  29  47  71  99 133 167 199 239 290
#     4  10  20  35  55  75  98 134 177 214 250 301
#     4   8  15  30  51  71  94 127 167 207 245 297
#     4  11  21  32  50  76 103 132 166 211 262 307
#
# _framework density 17.155643000000001
#
# number of rings (size 3 to 8) (size 9 to 14) (size 15 to 20)
#    0.000    2.667    0.000    3.500    0.000    6.667 
#    1.500    0.000    1.833    0.000    0.000    0.000 
#    0.000    0.000    0.000    0.000    0.000    0.000 
#
# Total GULP energy -267496.029345 kJ/mol
# GULP energy per Si atom -5572.833945 kJ/mol
# Density = 1.711660 g / cm^3
# Si number density = 17.155643 Si / 1000 Ang^3
#
#
#
# Elastic Constant Matrix: (Units=GPa)
#
#
# Indices 1 2 3 4 5 6 
#
# 1 97.6892 20.2170 47.6259 0.0000 0.0000 0.0000
# 2 20.2170 20.5973 21.8542 0.0000 0.0000 0.0000
# 3 47.6259 21.8542 99.7853 0.0000 0.0000 0.0000
# 4 0.0000 0.0000 0.0000 17.9485 0.0000 0.0000
# 5 0.0000 0.0000 0.0000 0.0000 2.5311 0.0000
# 6 0.0000 0.0000 0.0000 0.0000 0.0000 22.5070
#
#
#
# Elastic Compliance Matrix: (Units=1/GPa)
#
#
# Indices 1 2 3 4 5 6 
#
# 1 0.014514 -0.008983 -0.004960 0.000000 0.000000 0.000000
# 2 -0.008983 0.068808 -0.010782 0.000000 0.000000 0.000000
# 3 -0.004960 -0.010782 0.014750 0.000000 0.000000 0.000000
# 4 0.000000 0.000000 0.000000 0.055715 0.000000 0.000000
# 5 0.000000 0.000000 0.000000 0.000000 0.395091 0.000000
# 6 0.000000 0.000000 0.000000 0.000000 0.000000 0.044431
#
#
# Mechanical properties :
#
#
# Convention : Reuss Voigt Hill
#
# Bulk Modulus (GPa) = 20.56717 44.16289 32.36503
# Shear Modulus (GPa) = 7.58765 17.15562 12.37163
#
# Velocity S-wave (km/s) = 2.10533 3.16571 2.68832
# Velocity P-wave (km/s) = 4.23373 6.25785 5.34252
#
# Compressibility (1/GPa) = 0.04862118
#
# Stress axis : x y z
#
# Youngs Moduli (GPa) = 68.90082 14.53325 67.79615
#
# Poissons Ratio (x) = 0.13056 0.33625
# Poissons Ratio (y) = 0.61896 0.73099
# Poissons Ratio (z) = 0.34172 0.15670
#
# Static dielectric constant tensor:
#      x y z
#    x 1.602610 0.000000 0.000000 
#    y 0.000000 1.571150 0.000000 
#    z 0.000000 0.000000 1.574250 
# 
# From -- ./inp_files/14380.got.cif
#   From: 2010.05.17/outbox.cif.g08.bks.cpg/sg65_8_cif.got.tgz:14380.got - 2010.06.03 17:01:31.
