data_PCOD9489274
_publ_section_title
;
Structure prediction by ZEFSAII (Michael W. Deem and Ramdas Pophale) SiO2 
 PCOD9489274
Probable space group: C M M M
;
_chemical_formula_sum "Si O2"
_cell_formula_units_Z 112
_cell_length_a 15.282043
_cell_length_b 26.630077
_cell_length_c 14.269697
_cell_angle_alpha 90.000000
_cell_angle_beta 90.000000
_cell_angle_gamma 90.000000
_cell_volume 5807.224171
_symmetry_space_group_name_H-M "C M M M"
_symmetry_group_IT_number 65
_symmetry_cell_setting 'orthorhombic'
loop_
_space_group_symop_operation_xyz
x,y,z
-x,-y,z
x,-y,-z
-x,y,-z
-x,-y,-z
x,y,-z
-x,y,z
x,-y,z
1/2+x,1/2+y,z
1/2-x,1/2-y,z
1/2+x,1/2-y,-z
1/2-x,1/2+y,-z
1/2-x,1/2-y,-z
1/2+x,1/2+y,-z
1/2-x,1/2+y,z
1/2+x,1/2-y,z
loop_
_atom_site_type_symbol
_atom_site_label
_atom_site_fract_x
_atom_site_fract_y
_atom_site_fract_z
Si Si1 0.100920 0.558875 0.276182
Si Si2 0.146173 0.373775 0.891705
Si Si3 0.399770 0.231190 0.389293
Si Si4 0.403481 0.658646 0.692189
Si Si5 0.655286 0.341718 0.106585
Si Si6 0.402464 0.235576 0.888173
Si Si7 0.218232 0.635795 0.611102
O O1 0.121467 0.500000 0.278437
O O2 0.112652 0.581771 0.172490
O O3 0.164337 0.591735 0.340214
O O4 0.000000 0.565614 0.305239
O O5 0.251268 0.368490 0.890283
O O6 0.114792 0.319904 0.850737
O O7 0.118688 0.379383 0.000000
O O8 0.387544 0.244744 0.500000
O O9 0.500000 0.211892 0.380012
O O10 0.393210 0.281377 0.327558
O O11 0.329130 0.188881 0.364907
O O12 0.500000 0.645397 0.654952
O O13 0.398722 0.643769 0.801806
O O14 0.318417 0.635581 0.643857
O O15 0.663856 0.281520 0.122838
O O16 0.619373 0.347719 0.000000
O O17 0.500000 0.252653 0.859485
O O18 0.403665 0.227711 0.000000
O O19 0.213322 0.631150 0.500000
#
# Coordination Sequence:
#
# PCOD9489274 Si02
#       7
#    16  16  16  16  16  16  16
#     4  11  25  43  64  91 118 146 190 246 301 359
#     4  10  20  36  58  84 118 161 200 237 285 344
#     4   9  19  35  56  86 122 159 199 241 286 344
#     4  11  22  35  57  90 125 161 199 239 282 339
#     4  10  20  34  52  81 122 164 201 234 274 333
#     4   9  17  28  45  76 118 160 199 234 270 323
#     4  11  23  41  63  86 117 156 197 245 301 355
#
# _framework density 19.286322999999999
#
# number of rings (size 3 to 8) (size 9 to 14) (size 15 to 20)
#    0.000    1.857    1.429    2.571    2.000    8.000 
#    0.000    1.429    0.000    0.429    0.000    1.000 
#    0.000    2.286    0.000    0.000    0.000    0.000 
#
# Total GULP energy -312565.429923 kJ/mol
# GULP energy per Si atom -5581.525534 kJ/mol
# Density = 1.924243 g / cm^3
# Si number density = 19.286323 Si / 1000 Ang^3
#
#
#
# Elastic Constant Matrix: (Units=GPa)
#
#
# Indices 1 2 3 4 5 6 
#
# 1 109.1754 46.7862 34.2535 0.0000 0.0000 0.0000
# 2 46.7862 69.2261 22.4362 0.0000 0.0000 0.0000
# 3 34.2535 22.4362 96.1152 0.0000 0.0000 0.0000
# 4 0.0000 0.0000 0.0000 61.0432 0.0000 0.0000
# 5 0.0000 0.0000 0.0000 0.0000 19.1689 0.0000
# 6 0.0000 0.0000 0.0000 0.0000 0.0000 23.9791
#
#
#
# Elastic Compliance Matrix: (Units=1/GPa)
#
#
# Indices 1 2 3 4 5 6 
#
# 1 0.013614 -0.008253 -0.002925 0.000000 0.000000 0.000000
# 2 -0.008253 0.020631 -0.001875 0.000000 0.000000 0.000000
# 3 -0.002925 -0.001875 0.011884 0.000000 0.000000 0.000000
# 4 0.000000 0.000000 0.000000 0.016382 0.000000 0.000000
# 5 0.000000 0.000000 0.000000 0.000000 0.052168 0.000000
# 6 0.000000 0.000000 0.000000 0.000000 0.000000 0.041703
#
#
# Mechanical properties :
#
#
# Convention : Reuss Voigt Hill
#
# Bulk Modulus (GPa) = 49.94176 53.49650 51.71913
# Shear Modulus (GPa) = 26.43238 32.24097 29.33667
#
# Velocity S-wave (km/s) = 3.70608 4.09308 3.90438
# Velocity P-wave (km/s) = 6.65315 7.08068 6.87024
#
# Compressibility (1/GPa) = 0.02002332
#
# Stress axis : x y z
#
# Youngs Moduli (GPa) = 73.45317 48.47139 84.14457
#
# Poissons Ratio (x) = 0.40003 0.24615
# Poissons Ratio (y) = 0.60621 0.15774
# Poissons Ratio (z) = 0.21487 0.09087
#
# Static dielectric constant tensor:
#      x y z
#    x 1.709430 0.000000 0.000000 
#    y 0.000000 1.633510 0.000000 
#    z 0.000000 0.000000 1.728150 
# 
# From -- ./inp_files/40842.got.cif
#   From: 2010.05.17/outbox.cif.g08.bks.cpg/sg65_21_cif.got.tgz:40842.got - 2010.06.03 17:01:31.
