data_PCOD9489517
_publ_section_title
;
Structure prediction by ZEFSAII (Michael W. Deem and Ramdas Pophale) SiO2 
 PCOD9489517
Probable space group: C M M M
;
_chemical_formula_sum "Si O2"
_cell_formula_units_Z 72
_cell_length_a 8.419387
_cell_length_b 15.737834
_cell_length_c 27.359729
_cell_angle_alpha 90.000000
_cell_angle_beta 90.000000
_cell_angle_gamma 90.000000
_cell_volume 3625.243846
_symmetry_space_group_name_H-M "C M M M"
_symmetry_group_IT_number 65
_symmetry_cell_setting 'orthorhombic'
loop_
_space_group_symop_operation_xyz
x,y,z
-x,-y,z
x,-y,-z
-x,y,-z
-x,-y,-z
x,y,-z
-x,y,z
x,-y,z
1/2+x,1/2+y,z
1/2-x,1/2-y,z
1/2+x,1/2-y,-z
1/2-x,1/2+y,-z
1/2-x,1/2-y,-z
1/2+x,1/2+y,-z
1/2-x,1/2+y,z
1/2+x,1/2-y,z
loop_
_atom_site_type_symbol
_atom_site_label
_atom_site_fract_x
_atom_site_fract_y
_atom_site_fract_z
Si Si1 0.188720 0.162054 0.757582
Si Si2 0.189393 0.500000 0.069774
Si Si3 0.807815 0.346919 0.552836
Si Si4 0.309670 0.649876 0.000000
Si Si5 0.193304 0.000000 0.180298
Si Si6 0.691414 0.095183 0.658809
O O1 0.250000 0.250000 0.778761
O O2 0.245589 0.082474 0.789239
O O3 0.245642 0.153747 0.701676
O O4 0.000000 0.161314 0.757427
O O5 0.254403 0.587470 0.044693
O O6 0.238503 0.500000 0.126147
O O7 0.000000 0.500000 0.063633
O O8 0.757311 0.384119 0.500000
O O9 0.750000 0.250000 0.553500
O O10 0.752095 0.386988 0.603641
O O11 0.000000 0.349553 0.553438
O O12 0.250000 0.750000 0.000000
O O13 0.500000 0.654208 0.000000
O O14 0.000000 0.000000 0.177743
O O15 0.500000 0.100439 0.658302
O O16 0.739805 0.000000 0.672201
#
# Coordination Sequence:
#
# PCOD9489517 Si02
#       6
#    16   8  16   8   8  16
#     4  11  23  40  61  85 115 154 198 247 302 361
#     4  11  23  40  65  98 134 173 215 263 316 366
#     4   9  18  32  49  71 100 135 176 225 283 348
#     4  11  22  41  68  98 136 179 222 265 308 362
#     4  10  23  43  62  86 124 165 206 254 308 361
#     4  10  20  34  54  79 107 141 185 237 291 354
#
# _framework density 19.860733
#
# number of rings (size 3 to 8) (size 9 to 14) (size 15 to 20)
#    0.000    1.778    1.111    4.000    0.000    5.778 
#    0.000    4.444    0.000    0.000    0.000    4.667 
#    0.000    0.000    0.000    0.000    0.000    0.000 
#
# Total GULP energy -200826.610272 kJ/mol
# GULP energy per Si atom -5578.516952 kJ/mol
# Density = 1.981553 g / cm^3
# Si number density = 19.860733 Si / 1000 Ang^3
#
#
#
# Elastic Constant Matrix: (Units=GPa)
#
#
# Indices 1 2 3 4 5 6 
#
# 1 50.6494 38.2471 26.9151 0.0000 0.0000 0.0000
# 2 38.2471 168.3936 73.2452 0.0000 0.0000 0.0000
# 3 26.9151 73.2452 147.9276 0.0000 0.0000 0.0000
# 4 0.0000 0.0000 0.0000 0.3699 0.0000 0.0000
# 5 0.0000 0.0000 0.0000 0.0000 26.3024 0.0000
# 6 0.0000 0.0000 0.0000 0.0000 0.0000 28.6836
#
#
#
# Elastic Compliance Matrix: (Units=1/GPa)
#
#
# Indices 1 2 3 4 5 6 
#
# 1 0.024359 -0.004594 -0.002157 0.000000 0.000000 0.000000
# 2 -0.004594 0.008435 -0.003341 0.000000 0.000000 0.000000
# 3 -0.002157 -0.003341 0.008807 0.000000 0.000000 0.000000
# 4 0.000000 0.000000 0.000000 2.703664 0.000000 0.000000
# 5 0.000000 0.000000 0.000000 0.000000 0.038019 0.000000
# 6 0.000000 0.000000 0.000000 0.000000 0.000000 0.034863
#
#
# Mechanical properties :
#
#
# Convention : Reuss Voigt Hill
#
# Bulk Modulus (GPa) = 46.69297 71.53173 59.11235
# Shear Modulus (GPa) = 1.75718 26.30873 14.03295
#
# Velocity S-wave (km/s) = 0.94163 3.64354 2.66102
# Velocity P-wave (km/s) = 4.97428 7.33453 6.26653
#
# Compressibility (1/GPa) = 0.02141650
#
# Stress axis : x y z
#
# Youngs Moduli (GPa) = 41.05209 118.55322 113.55070
#
# Poissons Ratio (x) = 0.54468 0.24496
# Poissons Ratio (y) = 0.18861 0.37933
# Poissons Ratio (z) = 0.08856 0.39604
#
# Static dielectric constant tensor:
#      x y z
#    x 1.680590 0.000000 0.000000 
#    y 0.000000 1.721950 0.000000 
#    z 0.000000 0.000000 1.706100 
# 
# From -- ./inp_files/76375.got.cif
#   From: 2010.05.17/outbox.cif.g08.bks.cpg/sg65_39_cif.got.tgz:76375.got - 2010.06.03 17:01:31.
