data_PCOD9489486
_publ_section_title
;
Structure prediction by ZEFSAII (Michael W. Deem and Ramdas Pophale) SiO2 
 PCOD9489486
Probable space group: C M M M
;
_chemical_formula_sum "Si O2"
_cell_formula_units_Z 56
_cell_length_a 14.370543
_cell_length_b 10.302990
_cell_length_c 21.231486
_cell_angle_alpha 90.000000
_cell_angle_beta 90.000000
_cell_angle_gamma 90.000000
_cell_volume 3143.524493
_symmetry_space_group_name_H-M "C M M M"
_symmetry_group_IT_number 65
_symmetry_cell_setting 'orthorhombic'
loop_
_space_group_symop_operation_xyz
x,y,z
-x,-y,z
x,-y,-z
-x,y,-z
-x,-y,-z
x,y,-z
-x,y,z
x,-y,z
1/2+x,1/2+y,z
1/2-x,1/2-y,z
1/2+x,1/2-y,-z
1/2-x,1/2+y,-z
1/2-x,1/2-y,-z
1/2+x,1/2+y,-z
1/2-x,1/2+y,z
1/2+x,1/2-y,z
loop_
_atom_site_type_symbol
_atom_site_label
_atom_site_fract_x
_atom_site_fract_y
_atom_site_fract_z
Si Si1 0.865277 0.000000 0.926839
Si Si2 0.361704 0.247125 0.847099
Si Si3 0.139957 0.500000 0.070993
Si Si4 0.840756 0.341400 0.500000
Si Si5 0.500000 0.844009 0.401155
Si Si6 0.000000 0.341176 0.255541
O O1 0.890492 0.125231 0.885625
O O2 0.752661 0.000000 0.930688
O O3 0.896772 0.000000 0.000000
O O4 0.250000 0.250000 0.838842
O O5 0.387634 0.126800 0.891394
O O6 0.412447 0.219396 0.781556
O O7 0.106470 0.500000 0.000000
O O8 0.822612 0.500000 0.500000
O O9 0.750000 0.250000 0.500000
O O10 0.907266 0.309005 0.440217
O O11 0.500000 0.803040 0.328725
O O12 0.500000 0.000000 0.401053
O O13 0.000000 0.500000 0.250653
#
# Coordination Sequence:
#
# PCOD9489486 Si02
#       6
#     8  16   8   8   8   8
#     4   9  18  33  53  73 104 143 177 231 300 343
#     4  10  20  34  54  78 105 140 185 230 283 333
#     4   9  16  31  53  77 100 133 183 235 280 333
#     4   9  17  35  64  92 116 145 183 223 260 310
#     4   8  18  35  57  84 116 153 184 214 263 321
#     4  11  21  37  57  79 111 150 189 223 261 324
#
# _framework density 17.814398000000001
#
# number of rings (size 3 to 8) (size 9 to 14) (size 15 to 20)
#    0.000    2.571    1.429    1.714    0.000    5.143 
#    0.000    5.714    6.286    0.000    0.000    0.000 
#    0.000    0.000    0.000    0.000    0.000    0.000 
#
# Total GULP energy -156102.561828 kJ/mol
# GULP energy per Si atom -5575.091494 kJ/mol
# Density = 1.777385 g / cm^3
# Si number density = 17.814398 Si / 1000 Ang^3
#
#
#
# Elastic Constant Matrix: (Units=GPa)
#
#
# Indices 1 2 3 4 5 6 
#
# 1 133.5873 45.8769 72.5414 0.0000 0.0000 0.0000
# 2 45.8769 131.2183 73.1827 0.0000 0.0000 0.0000
# 3 72.5414 73.1827 201.8212 0.0000 0.0000 0.0000
# 4 0.0000 0.0000 0.0000 32.2670 0.0000 0.0000
# 5 0.0000 0.0000 0.0000 0.0000 11.8844 0.0000
# 6 0.0000 0.0000 0.0000 0.0000 0.0000 9.6845
#
#
#
# Elastic Compliance Matrix: (Units=1/GPa)
#
#
# Indices 1 2 3 4 5 6 
#
# 1 0.009629 -0.001800 -0.002808 0.000000 0.000000 0.000000
# 2 -0.001800 0.009889 -0.002939 0.000000 0.000000 0.000000
# 3 -0.002808 -0.002939 0.007030 0.000000 0.000000 0.000000
# 4 0.000000 0.000000 0.000000 0.030991 0.000000 0.000000
# 5 0.000000 0.000000 0.000000 0.000000 0.084144 0.000000
# 6 0.000000 0.000000 0.000000 0.000000 0.000000 0.103258
#
#
# Mechanical properties :
#
#
# Convention : Reuss Voigt Hill
#
# Bulk Modulus (GPa) = 87.30992 94.42543 90.86768
# Shear Modulus (GPa) = 18.94984 29.10222 24.02603
#
# Velocity S-wave (km/s) = 3.26504 4.04621 3.67643
# Velocity P-wave (km/s) = 7.95809 8.65732 8.31506
#
# Compressibility (1/GPa) = 0.01145345
#
# Stress axis : x y z
#
# Youngs Moduli (GPa) = 103.85392 101.11828 142.24951
#
# Poissons Ratio (x) = 0.18205 0.39946
# Poissons Ratio (y) = 0.18697 0.41806
# Poissons Ratio (z) = 0.29164 0.29718
#
# Static dielectric constant tensor:
#      x y z
#    x 1.650980 0.000000 0.000000 
#    y 0.000000 1.615050 0.000000 
#    z 0.000000 0.000000 1.591880 
# 
# From -- ./inp_files/62236.got.cif
#   From: 2010.05.17/outbox.cif.g08.bks.cpg/sg65_32_cif.got.tgz:62236.got - 2010.06.03 17:01:31.
