data_PCOD9489475
_publ_section_title
;
Structure prediction by ZEFSAII (Michael W. Deem and Ramdas Pophale) SiO2 
 PCOD9489475
Probable space group: C M M M
;
_chemical_formula_sum "Si O2"
_cell_formula_units_Z 88
_cell_length_a 18.928972
_cell_length_b 28.998830
_cell_length_c 8.655578
_cell_angle_alpha 90.000000
_cell_angle_beta 90.000000
_cell_angle_gamma 90.000000
_cell_volume 4751.202920
_symmetry_space_group_name_H-M "C M M M"
_symmetry_group_IT_number 65
_symmetry_cell_setting 'orthorhombic'
loop_
_space_group_symop_operation_xyz
x,y,z
-x,-y,z
x,-y,-z
-x,y,-z
-x,-y,-z
x,y,-z
-x,y,z
x,-y,z
1/2+x,1/2+y,z
1/2-x,1/2-y,z
1/2+x,1/2-y,-z
1/2-x,1/2+y,-z
1/2-x,1/2-y,-z
1/2+x,1/2+y,-z
1/2-x,1/2+y,z
1/2+x,1/2-y,z
loop_
_atom_site_type_symbol
_atom_site_label
_atom_site_fract_x
_atom_site_fract_y
_atom_site_fract_z
Si Si1 0.500000 0.053312 0.688661
Si Si2 0.135968 0.387671 0.686536
Si Si3 0.685742 0.285577 0.816271
Si Si4 0.579071 0.446448 0.813826
Si Si5 0.081720 0.707935 0.813640
Si Si6 0.293506 0.386534 0.316187
O O1 0.500000 0.053863 0.500000
O O2 0.429099 0.080175 0.739426
O O3 0.500000 0.000000 0.737248
O O4 0.135290 0.388164 0.500000
O O5 0.121157 0.335787 0.742270
O O6 0.214811 0.401540 0.738134
O O7 0.750000 0.250000 0.792184
O O8 0.617076 0.256301 0.769037
O O9 0.696584 0.333145 0.729184
O O10 0.682195 0.295582 0.000000
O O11 0.500000 0.431396 0.763740
O O12 0.587824 0.500000 0.767723
O O13 0.642703 0.415895 0.752667
O O14 0.579915 0.444839 0.000000
O O15 0.000000 0.705758 0.769369
O O16 0.087391 0.704587 0.000000
O O17 0.295100 0.391201 0.500000
#
# Coordination Sequence:
#
# PCOD9489475 Si02
#       6
#     8  16  16  16  16  16
#     4   9  18  34  55  77 105 145 191 231 270 327
#     4  10  20  34  54  79 108 148 189 228 277 335
#     4  10  20  35  54  77 108 150 193 231 278 332
#     4   9  20  41  66  87 110 147 192 234 282 346
#     4  10  20  34  54  78 103 139 188 237 279 326
#     4  11  23  35  55  89 122 149 185 236 290 342
#
# _framework density 18.521626000000001
#
# number of rings (size 3 to 8) (size 9 to 14) (size 15 to 20)
#    0.000    2.091    2.727    1.091    0.000    4.000 
#    0.000    4.545    0.000    1.091    0.000    0.000 
#    0.000    0.000    0.000    0.000    0.000    0.000 
#
# Total GULP energy -245524.859524 kJ/mol
# GULP energy per Si atom -5580.110444 kJ/mol
# Density = 1.847947 g / cm^3
# Si number density = 18.521626 Si / 1000 Ang^3
#
#
#
# Elastic Constant Matrix: (Units=GPa)
#
#
# Indices 1 2 3 4 5 6 
#
# 1 179.6478 75.5678 31.8164 0.0000 0.0000 0.0000
# 2 75.5678 89.4087 17.8185 0.0000 0.0000 0.0000
# 3 31.8164 17.8185 8.3338 0.0000 0.0000 0.0000
# 4 0.0000 0.0000 0.0000 -18.1066 0.0000 0.0000
# 5 0.0000 0.0000 0.0000 0.0000 23.2306 0.0000
# 6 0.0000 0.0000 0.0000 0.0000 0.0000 32.0788
#
#
#
# Elastic Compliance Matrix: (Units=1/GPa)
#
#
# Indices 1 2 3 4 5 6 
#
# 1 0.017522 -0.002575 -0.061388 0.000000 0.000000 0.000000
# 2 -0.002575 0.019868 -0.032648 0.000000 0.000000 0.000000
# 3 -0.061388 -0.032648 0.424164 0.000000 0.000000 0.000000
# 4 0.000000 0.000000 0.000000 -0.055229 0.000000 0.000000
# 5 0.000000 0.000000 0.000000 0.000000 0.043047 0.000000
# 6 0.000000 0.000000 0.000000 0.000000 0.000000 0.031173
#
#
# Mechanical properties :
#
#
# Convention : Reuss Voigt Hill
#
# Bulk Modulus (GPa) = 3.72674 58.64396 31.18535
# Shear Modulus (GPa) = 6.55127 17.58639 12.06883
#
# Velocity S-wave (km/s) = 1.88276 3.08475 2.55543
# Velocity P-wave (km/s) = 2.59670 6.66474 5.05774
#
# Compressibility (1/GPa) = 0.26833094
#
# Stress axis : x y z
#
# Youngs Moduli (GPa) = 57.07205 50.33333 2.35758
#
# Poissons Ratio (x) = 0.12961 0.14473
# Poissons Ratio (y) = 0.14696 0.07697
# Poissons Ratio (z) = 3.50354 1.64329
#
# Static dielectric constant tensor:
#      x y z
#    x 1.668440 0.000000 0.000000 
#    y 0.000000 1.600330 0.000000 
#    z 0.000000 0.000000 1.630510 
# 
# From -- ./inp_files/10032.got.cif
#   From: 2010.05.17/outbox.cif.g08.bks.cpg/sg65_6_cif.got.tgz:10032.got - 2010.06.03 17:01:31.
