data_PCOD9489427
_publ_section_title
;
Structure prediction by ZEFSAII (Michael W. Deem and Ramdas Pophale) SiO2 
 PCOD9489427
Probable space group: C M M M
;
_chemical_formula_sum "Si O2"
_cell_formula_units_Z 64
_cell_length_a 31.002508
_cell_length_b 7.686581
_cell_length_c 14.234482
_cell_angle_alpha 90.000000
_cell_angle_beta 90.000000
_cell_angle_gamma 90.000000
_cell_volume 3392.123877
_symmetry_space_group_name_H-M "C M M M"
_symmetry_group_IT_number 65
_symmetry_cell_setting 'orthorhombic'
loop_
_space_group_symop_operation_xyz
x,y,z
-x,-y,z
x,-y,-z
-x,y,-z
-x,-y,-z
x,y,-z
-x,y,z
x,-y,z
1/2+x,1/2+y,z
1/2-x,1/2-y,z
1/2+x,1/2-y,-z
1/2-x,1/2+y,-z
1/2-x,1/2-y,-z
1/2+x,1/2+y,-z
1/2-x,1/2+y,z
1/2+x,1/2-y,z
loop_
_atom_site_type_symbol
_atom_site_label
_atom_site_fract_x
_atom_site_fract_y
_atom_site_fract_z
Si Si1 0.500000 0.805140 0.887599
Si Si2 0.904760 0.799427 0.893068
Si Si3 0.796532 0.291654 0.393446
Si Si4 0.886738 0.700648 0.307210
Si Si5 0.448594 0.500000 0.613790
O O1 0.544354 0.709846 0.868039
O O2 0.500000 0.000000 0.845907
O O3 0.500000 0.822610 0.000000
O O4 0.883664 0.703822 0.805904
O O5 0.891238 0.000000 0.892864
O O6 0.899258 0.731270 0.000000
O O7 0.796033 0.221448 0.500000
O O8 0.799103 0.500000 0.397354
O O9 0.750000 0.250000 0.349392
O O10 0.840548 0.234373 0.345005
O O11 0.894583 0.500000 0.337359
O O12 0.923713 0.831386 0.344117
O O13 0.500000 0.500000 0.636179
O O14 0.444408 0.500000 0.500000
#
# Coordination Sequence:
#
# PCOD9489427 Si02
#       5
#     8  16  16  16   8
#     4   9  17  29  47  73 103 140 187 239 291 337
#     4  10  20  34  53  79 112 150 194 243 292 343
#     4   9  19  35  58  88 115 144 186 241 304 358
#     4  11  23  39  61  88 120 157 199 246 295 356
#     4  11  26  44  61  85 119 163 208 244 292 354
#
# _framework density 18.867235999999998
#
# number of rings (size 3 to 8) (size 9 to 14) (size 15 to 20)
#    0.000    2.000    1.250    1.875    3.500    5.000 
#    0.000    1.250    0.000    0.750    0.000    0.000 
#    0.000    0.000    0.000    0.000    0.000    0.000 
#
# Total GULP energy -178368.157883 kJ/mol
# GULP energy per Si atom -5574.004934 kJ/mol
# Density = 1.882429 g / cm^3
# Si number density = 18.867236 Si / 1000 Ang^3
#
#
#
# Elastic Constant Matrix: (Units=GPa)
#
#
# Indices 1 2 3 4 5 6 
#
# 1 142.0058 36.2534 58.7522 0.0000 0.0000 0.0000
# 2 36.2534 91.3164 19.7187 0.0000 0.0000 0.0000
# 3 58.7522 19.7187 94.1969 0.0000 0.0000 0.0000
# 4 0.0000 0.0000 0.0000 18.5715 0.0000 0.0000
# 5 0.0000 0.0000 0.0000 0.0000 12.9281 0.0000
# 6 0.0000 0.0000 0.0000 0.0000 0.0000 21.4625
#
#
#
# Elastic Compliance Matrix: (Units=1/GPa)
#
#
# Indices 1 2 3 4 5 6 
#
# 1 0.010124 -0.002781 -0.005732 0.000000 0.000000 0.000000
# 2 -0.002781 0.012234 -0.000826 0.000000 0.000000 0.000000
# 3 -0.005732 -0.000826 0.014364 0.000000 0.000000 0.000000
# 4 0.000000 0.000000 0.000000 0.053846 0.000000 0.000000
# 5 0.000000 0.000000 0.000000 0.000000 0.077351 0.000000
# 6 0.000000 0.000000 0.000000 0.000000 0.000000 0.046593
#
#
# Mechanical properties :
#
#
# Convention : Reuss Voigt Hill
#
# Bulk Modulus (GPa) = 55.42540 61.88528 58.65534
# Shear Modulus (GPa) = 20.90267 24.77874 22.84071
#
# Velocity S-wave (km/s) = 3.33210 3.62791 3.48314
# Velocity P-wave (km/s) = 6.65163 7.10074 6.87985
#
# Compressibility (1/GPa) = 0.01804227
#
# Stress axis : x y z
#
# Youngs Moduli (GPa) = 98.77971 81.74241 69.61787
#
# Poissons Ratio (x) = 0.22736 0.39905
# Poissons Ratio (y) = 0.27474 0.05751
# Poissons Ratio (z) = 0.56620 0.06753
#
# Static dielectric constant tensor:
#      x y z
#    x 1.654970 0.000000 0.000000 
#    y 0.000000 1.702770 0.000000 
#    z 0.000000 0.000000 1.685310 
# 
# From -- ./inp_files/47359.got.cif
#   From: 2010.05.17/outbox.cif.g08.bks.cpg/sg65_24_cif.got.tgz:47359.got - 2010.06.03 17:01:31.
