data_PCOD9489749
_publ_section_title
;
Structure prediction by ZEFSAII (Michael W. Deem and Ramdas Pophale) SiO2 
 PCOD9489749
Probable space group: C M M M
;
_chemical_formula_sum "Si O2"
_cell_formula_units_Z 80
_cell_length_a 29.967290
_cell_length_b 16.189441
_cell_length_c 7.574617
_cell_angle_alpha 90.000000
_cell_angle_beta 90.000000
_cell_angle_gamma 90.000000
_cell_volume 3674.853262
_symmetry_space_group_name_H-M "C M M M"
_symmetry_group_IT_number 65
_symmetry_cell_setting 'orthorhombic'
loop_
_space_group_symop_operation_xyz
x,y,z
-x,-y,z
x,-y,-z
-x,y,-z
-x,-y,-z
x,y,-z
-x,y,z
x,-y,z
1/2+x,1/2+y,z
1/2-x,1/2-y,z
1/2+x,1/2-y,-z
1/2-x,1/2+y,-z
1/2-x,1/2-y,-z
1/2+x,1/2+y,-z
1/2-x,1/2+y,z
1/2+x,1/2-y,z
loop_
_atom_site_type_symbol
_atom_site_label
_atom_site_fract_x
_atom_site_fract_y
_atom_site_fract_z
Si Si1 0.143276 0.409786 0.212825
Si Si2 0.950918 0.151257 0.786980
Si Si3 0.549030 0.155494 0.784919
Si Si4 0.854493 0.089649 0.708309
Si Si5 0.699643 0.252861 0.288991
O O1 0.158713 0.500000 0.274798
O O2 0.092723 0.392359 0.275903
O O3 0.174124 0.332850 0.259743
O O4 0.141676 0.411695 0.000000
O O5 0.946552 0.247856 0.735670
O O6 0.907465 0.103615 0.725492
O O7 0.000000 0.121978 0.727853
O O8 0.950732 0.148520 0.000000
O O9 0.500000 0.126056 0.727066
O O10 0.548955 0.152667 0.000000
O O11 0.844591 0.086954 0.500000
O O12 0.828738 0.169409 0.782328
O O13 0.842346 0.000000 0.784312
O O14 0.702448 0.263522 0.500000
O O15 0.750000 0.250000 0.218754
#
# Coordination Sequence:
#
# PCOD9489749 Si02
#       5
#    16  16  16  16  16
#     4  10  20  34  56  86 115 142 176 219 266 317
#     4   9  17  31  53  79 107 142 181 217 257 311
#     4   8  14  27  49  77 109 143 176 211 253 305
#     4  10  21  36  54  78 107 138 177 224 271 319
#     4  10  22  40  60  79 102 139 183 226 275 325
#
# _framework density 21.769576000000001
#
# number of rings (size 3 to 8) (size 9 to 14) (size 15 to 20)
#    0.000    2.600    2.000    1.200    0.000    3.200 
#    0.000    6.000    0.000    0.600    0.000    1.400 
#    0.000    0.000    0.000    0.000    0.000    0.000 
#
# Total GULP energy -223279.247291 kJ/mol
# GULP energy per Si atom -5581.981182 kJ/mol
# Density = 2.172003 g / cm^3
# Si number density = 21.769576 Si / 1000 Ang^3
#
#
#
# Elastic Constant Matrix: (Units=GPa)
#
#
# Indices 1 2 3 4 5 6 
#
# 1 160.8165 105.5499 1.5699 0.0000 0.0000 0.0000
# 2 105.5499 177.7673 6.1299 0.0000 0.0000 0.0000
# 3 1.5699 6.1299 48.1874 0.0000 0.0000 0.0000
# 4 0.0000 0.0000 0.0000 15.4346 0.0000 0.0000
# 5 0.0000 0.0000 0.0000 0.0000 8.9747 0.0000
# 6 0.0000 0.0000 0.0000 0.0000 0.0000 -6.0030
#
#
#
# Elastic Compliance Matrix: (Units=1/GPa)
#
#
# Indices 1 2 3 4 5 6 
#
# 1 0.010198 -0.006070 0.000440 0.000000 0.000000 0.000000
# 2 -0.006070 0.009263 -0.000981 0.000000 0.000000 0.000000
# 3 0.000440 -0.000981 0.020863 0.000000 0.000000 0.000000
# 4 0.000000 0.000000 0.000000 0.064790 0.000000 0.000000
# 5 0.000000 0.000000 0.000000 0.000000 0.111425 0.000000
# 6 0.000000 0.000000 0.000000 0.000000 0.000000 -0.166582
#
#
# Mechanical properties :
#
#
# Convention : Reuss Voigt Hill
#
# Bulk Modulus (GPa) = 36.89726 68.14118 52.51922
# Shear Modulus (GPa) = 69.24013 21.91601 45.57807
#
# Velocity S-wave (km/s) = 5.64579 3.17634 4.58062
# Velocity P-wave (km/s) = 7.71270 6.69486 7.22174
#
# Compressibility (1/GPa) = 0.02710228
#
# Stress axis : x y z
#
# Youngs Moduli (GPa) = 98.05664 107.95110 47.93235
#
# Poissons Ratio (x) = 0.65530 -0.02109
# Poissons Ratio (y) = 0.59524 0.04700
# Poissons Ratio (z) = -0.04314 0.10586
#
# Static dielectric constant tensor:
#      x y z
#    x 1.773560 0.000000 0.000000 
#    y 0.000000 1.801020 0.000000 
#    z 0.000000 0.000000 1.832800 
# 
# From -- ./inp_files/16036.got.cif
#   From: 2010.05.17/outbox.cif.g08.bks.cpg/sg65_9_cif.got.tgz:16036.got - 2010.06.03 17:01:31.
