data_PCOD9489841
_publ_section_title
;
Structure prediction by ZEFSAII (Michael W. Deem and Ramdas Pophale) SiO2 
 PCOD9489841
Probable space group: C M M M
;
_chemical_formula_sum "Si O2"
_cell_formula_units_Z 76
_cell_length_a 17.744882
_cell_length_b 28.239005
_cell_length_c 7.207902
_cell_angle_alpha 90.000000
_cell_angle_beta 90.000000
_cell_angle_gamma 90.000000
_cell_volume 3611.863918
_symmetry_space_group_name_H-M "C M M M"
_symmetry_group_IT_number 65
_symmetry_cell_setting 'orthorhombic'
loop_
_space_group_symop_operation_xyz
x,y,z
-x,-y,z
x,-y,-z
-x,y,-z
-x,-y,-z
x,y,-z
-x,y,z
x,-y,z
1/2+x,1/2+y,z
1/2-x,1/2-y,z
1/2+x,1/2-y,-z
1/2-x,1/2+y,-z
1/2-x,1/2-y,-z
1/2+x,1/2+y,-z
1/2-x,1/2+y,z
1/2+x,1/2-y,z
loop_
_atom_site_type_symbol
_atom_site_label
_atom_site_fract_x
_atom_site_fract_y
_atom_site_fract_z
Si Si1 0.875030 0.202007 0.777685
Si Si2 0.085403 0.310327 0.224762
Si Si3 0.000000 0.942608 0.208496
Si Si4 0.500000 0.667800 0.500000
Si Si5 0.165487 0.945602 0.773118
Si Si6 0.266685 0.859109 0.775891
O O1 0.889480 0.256854 0.729496
O O2 0.934802 0.172689 0.661686
O O3 0.791555 0.183251 0.734297
O O4 0.886184 0.196533 0.000000
O O5 0.149843 0.346301 0.288857
O O6 0.000000 0.318516 0.288818
O O7 0.083909 0.312358 0.000000
O O8 0.918808 0.931749 0.292994
O O9 0.000000 0.000000 0.197455
O O10 0.000000 0.923074 0.000000
O O11 0.227513 0.907773 0.714255
O O12 0.180792 0.000000 0.720363
O O13 0.161694 0.944927 0.000000
O O14 0.270239 0.861921 0.000000
#
# Coordination Sequence:
#
# PCOD9489841 Si02
#       6
#    16  16   8   4  16  16
#     4  10  20  35  53  75 106 141 178 215 255 309
#     4   9  16  30  50  68  95 136 178 216 260 315
#     4   7  10  17  28  45  77 119 154 192 243 292
#     4  12  22  34  54  80 109 142 173 214 264 308
#     4   8  13  22  38  64  98 131 168 214 258 306
#     4   9  17  28  47  73  99 135 178 219 263 310
#
# _framework density 21.041767
#
# number of rings (size 3 to 8) (size 9 to 14) (size 15 to 20)
#    0.000    3.053    1.053    2.211    0.000    3.368 
#    0.000    5.263    0.000    0.632    0.000    5.895 
#    0.000    0.000    0.000    0.947    0.000    2.316 
#
# Total GULP energy -211697.421479 kJ/mol
# GULP energy per Si atom -5570.984776 kJ/mol
# Density = 2.099387 g / cm^3
# Si number density = 21.041767 Si / 1000 Ang^3
#
#
#
# Elastic Constant Matrix: (Units=GPa)
#
#
# Indices 1 2 3 4 5 6 
#
# 1 215.7406 112.6719 17.6886 0.0000 0.0000 0.0000
# 2 112.6719 132.6593 10.3620 0.0000 0.0000 0.0000
# 3 17.6886 10.3620 106.8164 0.0000 0.0000 0.0000
# 4 0.0000 0.0000 0.0000 -30.9619 0.0000 0.0000
# 5 0.0000 0.0000 0.0000 0.0000 -393.7946 0.0000
# 6 0.0000 0.0000 0.0000 0.0000 0.0000 73.5442
#
#
#
# Elastic Compliance Matrix: (Units=1/GPa)
#
#
# Indices 1 2 3 4 5 6 
#
# 1 0.008382 -0.007064 -0.000703 0.000000 0.000000 0.000000
# 2 -0.007064 0.013549 -0.000145 0.000000 0.000000 0.000000
# 3 -0.000703 -0.000145 0.009492 0.000000 0.000000 0.000000
# 4 0.000000 0.000000 0.000000 -0.032298 0.000000 0.000000
# 5 0.000000 0.000000 0.000000 0.000000 -0.002539 0.000000
# 6 0.000000 0.000000 0.000000 0.000000 0.000000 0.013597
#
#
# Mechanical properties :
#
#
# Convention : Reuss Voigt Hill
#
# Bulk Modulus (GPa) = 64.10071 81.85127 72.97599
# Shear Modulus (GPa) = 160.21672 -49.27620 55.47026
#
# Velocity S-wave (km/s) = 8.73542 -4.84449 5.13996
# Velocity P-wave (km/s) = 11.50100 2.77339 8.36555
#
# Compressibility (1/GPa) = 0.01560045
#
# Stress axis : x y z
#
# Youngs Moduli (GPa) = 119.29946 73.80371 105.34904
#
# Poissons Ratio (x) = 0.52138 0.07404
# Poissons Ratio (y) = 0.84278 0.01523
# Poissons Ratio (z) = 0.08384 0.01067
#
# Static dielectric constant tensor:
#      x y z
#    x 1.734710 0.000000 0.000000 
#    y 0.000000 1.766530 0.000000 
#    z 0.000000 0.000000 1.784520 
# 
# From -- ./inp_files/9755.got.cif
#   From: 2010.05.17/outbox.cif.g08.bks.cpg/sg65_5_cif.got.tgz:9755.got - 2010.06.03 17:01:31.
