data_PCOD9489323
_publ_section_title
;
Structure prediction by ZEFSAII (Michael W. Deem and Ramdas Pophale) SiO2 
 PCOD9489323
Probable space group: C M M M
;
_chemical_formula_sum "Si O2"
_cell_formula_units_Z 88
_cell_length_a 28.816258
_cell_length_b 19.689138
_cell_length_c 8.454127
_cell_angle_alpha 90.000000
_cell_angle_beta 90.000000
_cell_angle_gamma 90.000000
_cell_volume 4796.595044
_symmetry_space_group_name_H-M "C M M M"
_symmetry_group_IT_number 65
_symmetry_cell_setting 'orthorhombic'
loop_
_space_group_symop_operation_xyz
x,y,z
-x,-y,z
x,-y,-z
-x,y,-z
-x,-y,-z
x,y,-z
-x,y,z
x,-y,z
1/2+x,1/2+y,z
1/2-x,1/2-y,z
1/2+x,1/2-y,-z
1/2-x,1/2+y,-z
1/2-x,1/2-y,-z
1/2+x,1/2+y,-z
1/2-x,1/2+y,z
1/2+x,1/2-y,z
loop_
_atom_site_type_symbol
_atom_site_label
_atom_site_fract_x
_atom_site_fract_y
_atom_site_fract_z
Si Si1 0.946621 0.304478 0.191118
Si Si2 0.177165 0.077933 0.689518
Si Si3 0.500000 0.579607 0.810490
Si Si4 0.223948 0.417511 0.182386
Si Si5 0.877967 0.578165 0.806369
Si Si6 0.588653 0.661792 0.310288
O O1 0.918119 0.370693 0.243809
O O2 0.920627 0.236607 0.244576
O O3 0.000000 0.303581 0.247227
O O4 0.947699 0.305207 0.000000
O O5 0.173647 0.074964 0.500000
O O6 0.228826 0.102498 0.731848
O O7 0.136168 0.126577 0.747645
O O8 0.171458 0.000000 0.749420
O O9 0.500000 0.500000 0.771847
O O10 0.454506 0.615468 0.742055
O O11 0.500000 0.587702 0.000000
O O12 0.222592 0.500000 0.185049
O O13 0.173325 0.397303 0.246329
O O14 0.227423 0.395924 0.000000
O O15 0.885419 0.500000 0.756967
O O16 0.876510 0.577690 0.000000
O O17 0.589822 0.665026 0.500000
#
# Coordination Sequence:
#
# PCOD9489323 Si02
#       6
#    16  16   8  16  16  16
#     4  10  20  34  53  76 104 137 174 218 263 308
#     4   9  18  32  50  73 100 131 171 214 253 299
#     4  11  23  37  55  79 104 131 172 223 261 296
#     4   8  14  27  49  75 101 130 165 208 260 310
#     4   8  15  30  53  80 106 132 168 214 262 315
#     4  11  22  36  53  73 103 143 177 209 256 311
#
# _framework density 18.346347000000002
#
# number of rings (size 3 to 8) (size 9 to 14) (size 15 to 20)
#    0.000    2.636    0.909    2.455    0.000    3.273 
#    0.000    5.455    0.000    7.091    0.000    1.273 
#    0.000    0.000    0.000    0.000    0.000    0.000 
#
# Total GULP energy -245289.081056 kJ/mol
# GULP energy per Si atom -5574.751842 kJ/mol
# Density = 1.830459 g / cm^3
# Si number density = 18.346347 Si / 1000 Ang^3
#
#
#
# Elastic Constant Matrix: (Units=GPa)
#
#
# Indices 1 2 3 4 5 6 
#
# 1 147.0327 84.0637 18.6180 0.0000 0.0000 0.0000
# 2 84.0637 104.1736 14.1504 0.0000 0.0000 0.0000
# 3 18.6180 14.1504 3.7256 0.0000 0.0000 0.0000
# 4 0.0000 0.0000 0.0000 10.9889 0.0000 0.0000
# 5 0.0000 0.0000 0.0000 0.0000 68.8633 0.0000
# 6 0.0000 0.0000 0.0000 0.0000 0.0000 100.7554
#
#
#
# Elastic Compliance Matrix: (Units=1/GPa)
#
#
# Indices 1 2 3 4 5 6 
#
# 1 0.019818 -0.005246 -0.079114 0.000000 0.000000 0.000000
# 2 -0.005246 0.021219 -0.054378 0.000000 0.000000 0.000000
# 3 -0.079114 -0.054378 0.870320 0.000000 0.000000 0.000000
# 4 0.000000 0.000000 0.000000 0.091001 0.000000 0.000000
# 5 0.000000 0.000000 0.000000 0.000000 0.014522 0.000000
# 6 0.000000 0.000000 0.000000 0.000000 0.000000 0.009925
#
#
# Mechanical properties :
#
#
# Convention : Reuss Voigt Hill
#
# Bulk Modulus (GPa) = 1.57758 54.28845 27.93302
# Shear Modulus (GPa) = 3.29907 45.32815 24.31361
#
# Velocity S-wave (km/s) = 1.34243 4.97600 3.64436
# Velocity P-wave (km/s) = 1.80682 7.91639 5.74168
#
# Compressibility (1/GPa) = 0.63388072
#
# Stress axis : x y z
#
# Youngs Moduli (GPa) = 50.45804 47.12697 1.14900
#
# Poissons Ratio (x) = 0.24724 0.09090
# Poissons Ratio (y) = 0.26471 0.06248
# Poissons Ratio (z) = 3.99195 2.56268
#
# Static dielectric constant tensor:
#      x y z
#    x 1.641920 0.000000 0.000000 
#    y 0.000000 1.615830 0.000000 
#    z 0.000000 0.000000 1.638000 
# 
# From -- ./inp_files/18316.got.cif
#   From: 2010.05.17/outbox.cif.g08.bks.cpg/sg65_10_cif.got.tgz:18316.got - 2010.06.03 17:01:31.
