data_PCOD9489719
_publ_section_title
;
Structure prediction by ZEFSAII (Michael W. Deem and Ramdas Pophale) SiO2 
 PCOD9489719
Probable space group: C M M M
;
_chemical_formula_sum "Si O2"
_cell_formula_units_Z 42
_cell_length_a 8.085251
_cell_length_b 32.589852
_cell_length_c 7.736846
_cell_angle_alpha 90.000000
_cell_angle_beta 90.000000
_cell_angle_gamma 90.000000
_cell_volume 2038.636743
_symmetry_space_group_name_H-M "C M M M"
_symmetry_group_IT_number 65
_symmetry_cell_setting 'orthorhombic'
loop_
_space_group_symop_operation_xyz
x,y,z
-x,-y,z
x,-y,-z
-x,y,-z
-x,-y,-z
x,y,-z
-x,y,z
x,-y,z
1/2+x,1/2+y,z
1/2-x,1/2-y,z
1/2+x,1/2-y,-z
1/2-x,1/2+y,-z
1/2-x,1/2-y,-z
1/2+x,1/2+y,-z
1/2-x,1/2+y,z
1/2+x,1/2-y,z
loop_
_atom_site_type_symbol
_atom_site_label
_atom_site_fract_x
_atom_site_fract_y
_atom_site_fract_z
Si Si1 0.500000 0.000000 0.500000
Si Si2 0.500000 0.067714 0.191539
Si Si3 0.817475 0.118151 0.702829
Si Si4 0.809169 0.705093 0.209225
O O1 0.500000 0.035613 0.347191
O O2 0.336490 0.095949 0.208699
O O3 0.500000 0.049174 0.000000
O O4 0.810435 0.107786 0.500000
O O5 0.794537 0.166966 0.722459
O O6 0.000000 0.106415 0.768911
O O7 0.750000 0.750000 0.265834
O O8 0.000000 0.699196 0.259236
O O9 0.798924 0.704159 0.000000
#
# Coordination Sequence:
#
# PCOD9489719 Si02
#       4
#     2   8  16  16
#     4  12  26  52  78 110 144 170 218 292 338 438
#     4  12  25  47  77 106 139 181 224 279 351 414
#     4  11  23  41  66  97 138 185 230 281 340 405
#     4  10  20  34  55  88 131 180 235 287 335 393
#
# _framework density 20.602004000000001
#
# number of rings (size 3 to 8) (size 9 to 14) (size 15 to 20)
#    0.000    1.143    3.810    2.571    0.000    5.333 
#    0.000    1.905    0.000    2.286    0.000    0.000 
#    0.000    0.000    0.000    0.000    0.000    0.000 
#
# Total GULP energy -117141.290650 kJ/mol
# GULP energy per Si atom -5578.156698 kJ/mol
# Density = 2.055511 g / cm^3
# Si number density = 20.602004 Si / 1000 Ang^3
#
#
#
# Elastic Constant Matrix: (Units=GPa)
#
#
# Indices 1 2 3 4 5 6 
#
# 1 163.9931 44.4183 35.4433 0.0000 0.0000 0.0000
# 2 44.4183 110.8156 34.1410 0.0000 0.0000 0.0000
# 3 35.4433 34.1410 107.3089 0.0000 0.0000 0.0000
# 4 0.0000 0.0000 0.0000 37.3184 0.0000 0.0000
# 5 0.0000 0.0000 0.0000 0.0000 -25.3416 0.0000
# 6 0.0000 0.0000 0.0000 0.0000 0.0000 -10.6271
#
#
#
# Elastic Compliance Matrix: (Units=1/GPa)
#
#
# Indices 1 2 3 4 5 6 
#
# 1 0.007077 -0.002347 -0.001591 0.000000 0.000000 0.000000
# 2 -0.002347 0.010783 -0.002656 0.000000 0.000000 0.000000
# 3 -0.001591 -0.002656 0.010689 0.000000 0.000000 0.000000
# 4 0.000000 0.000000 0.000000 0.026796 0.000000 0.000000
# 5 0.000000 0.000000 0.000000 0.000000 -0.039461 0.000000
# 6 0.000000 0.000000 0.000000 0.000000 0.000000 -0.094099
#
#
# Mechanical properties :
#
#
# Convention : Reuss Voigt Hill
#
# Bulk Modulus (GPa) = 65.09142 67.79142 66.44142
# Shear Modulus (GPa) = -83.46308 18.14427 -32.65941
#
# Velocity S-wave (km/s) = -6.37182 2.97089 -3.98584
# Velocity P-wave (km/s) = 4.74027 6.68916 3.33727
#
# Compressibility (1/GPa) = 0.01536301
#
# Stress axis : x y z
#
# Youngs Moduli (GPa) = 141.29762 92.74085 93.55190
#
# Poissons Ratio (x) = 0.21763 0.14884
# Poissons Ratio (y) = 0.33157 0.24843
# Poissons Ratio (z) = 0.22480 0.24628
#
# Static dielectric constant tensor:
#      x y z
#    x 1.743600 0.000000 0.000000 
#    y 0.000000 1.689470 0.000000 
#    z 0.000000 0.000000 1.751210 
# 
# From -- ./inp_files/2901.got.cif
#   From: 2010.05.17/outbox.cif.g08.bks.cpg/sg65_2_cif.got.tgz:2901.got - 2010.06.03 17:01:31.
