data_PCOD9489856
_publ_section_title
;
Structure prediction by ZEFSAII (Michael W. Deem and Ramdas Pophale) SiO2 
 PCOD9489856
Probable space group: C M M M
;
_chemical_formula_sum "Si O2"
_cell_formula_units_Z 88
_cell_length_a 24.334255
_cell_length_b 10.006388
_cell_length_c 21.596200
_cell_angle_alpha 90.000000
_cell_angle_beta 90.000000
_cell_angle_gamma 90.000000
_cell_volume 5258.631448
_symmetry_space_group_name_H-M "C M M M"
_symmetry_group_IT_number 65
_symmetry_cell_setting 'orthorhombic'
loop_
_space_group_symop_operation_xyz
x,y,z
-x,-y,z
x,-y,-z
-x,y,-z
-x,-y,-z
x,y,-z
-x,y,z
x,-y,z
1/2+x,1/2+y,z
1/2-x,1/2-y,z
1/2+x,1/2-y,-z
1/2-x,1/2+y,-z
1/2-x,1/2-y,-z
1/2+x,1/2+y,-z
1/2-x,1/2+y,z
1/2+x,1/2-y,z
loop_
_atom_site_type_symbol
_atom_site_label
_atom_site_fract_x
_atom_site_fract_y
_atom_site_fract_z
Si Si1 0.803128 0.843796 0.135985
Si Si2 0.880973 0.754910 0.622200
Si Si3 0.500000 0.155767 0.232291
Si Si4 0.602069 0.659903 0.764103
Si Si5 0.500000 0.154927 0.617029
Si Si6 0.302982 0.656140 0.000000
Si Si7 0.314612 0.000000 0.575798
Si Si8 0.687989 0.500000 0.572662
O O1 0.750000 0.750000 0.142297
O O2 0.846880 0.822380 0.189937
O O3 0.829590 0.820727 0.067380
O O4 0.786297 0.000000 0.138628
O O5 0.883654 0.790042 0.695016
O O6 0.846188 0.625425 0.604384
O O7 0.943580 0.729290 0.599613
O O8 0.847897 0.874305 0.591709
O O9 0.552660 0.244256 0.214147
O O10 0.500000 0.151075 0.307700
O O11 0.500000 0.000000 0.211695
O O12 0.588102 0.500000 0.762105
O O13 0.500000 0.000000 0.595537
O O14 0.250000 0.750000 0.000000
O O15 0.286874 0.500000 0.000000
O O16 0.317982 0.000000 0.500000
O O17 0.250734 0.000000 0.596553
O O18 0.694842 0.500000 0.500000
#
# Coordination Sequence:
#
# PCOD9489856 Si02
#       8
#    16  16   8  16   8   8   8   8
#     4   9  18  31  49  77 110 145 181 220 266 315
#     4  11  21  39  60  82 108 140 180 226 276 320
#     4   9  19  33  57  79 103 140 181 217 262 326
#     4  10  20  35  53  81 111 140 173 219 273 316
#     4   9  18  36  59  81 104 132 170 222 275 323
#     4   8  14  28  48  69 102 145 185 218 256 312
#     4  11  24  41  61  79 107 149 184 219 262 329
#     4  11  24  41  57  79 109 145 184 215 262 331
#
# _framework density 16.734393000000001
#
# number of rings (size 3 to 8) (size 9 to 14) (size 15 to 20)
#    0.000    2.182    1.818    1.364    1.273    4.000 
#    0.000    2.727    0.000    0.545    0.000    3.818 
#    0.000    0.000    0.000    0.000    0.000    0.000 
#
# Total GULP energy -245023.515107 kJ/mol
# GULP energy per Si atom -5568.716252 kJ/mol
# Density = 1.669630 g / cm^3
# Si number density = 16.734393 Si / 1000 Ang^3
#
#
#
# Elastic Constant Matrix: (Units=GPa)
#
#
# Indices 1 2 3 4 5 6 
#
# 1 144.6545 84.8685 40.9047 0.0000 0.0000 0.0000
# 2 84.8685 143.7174 39.1252 0.0000 0.0000 0.0000
# 3 40.9047 39.1252 51.1347 0.0000 0.0000 0.0000
# 4 0.0000 0.0000 0.0000 80.9339 0.0000 0.0000
# 5 0.0000 0.0000 0.0000 0.0000 -23.7005 0.0000
# 6 0.0000 0.0000 0.0000 0.0000 0.0000 32.1214
#
#
#
# Elastic Compliance Matrix: (Units=1/GPa)
#
#
# Indices 1 2 3 4 5 6 
#
# 1 0.011533 -0.005430 -0.005071 0.000000 0.000000 0.000000
# 2 -0.005430 0.011345 -0.004337 0.000000 0.000000 0.000000
# 3 -0.005071 -0.004337 0.026931 0.000000 0.000000 0.000000
# 4 0.000000 0.000000 0.000000 0.012356 0.000000 0.000000
# 5 0.000000 0.000000 0.000000 0.000000 -0.042193 0.000000
# 6 0.000000 0.000000 0.000000 0.000000 0.000000 0.031132
#
#
# Mechanical properties :
#
#
# Convention : Reuss Voigt Hill
#
# Bulk Modulus (GPa) = 49.66888 74.36702 62.01795
# Shear Modulus (GPa) = 57.14928 29.51150 43.33039
#
# Velocity S-wave (km/s) = 5.85021 4.20399 5.09404
# Velocity P-wave (km/s) = 8.68207 8.25232 8.46992
#
# Compressibility (1/GPa) = 0.02013333
#
# Stress axis : x y z
#
# Youngs Moduli (GPa) = 86.71091 88.14248 37.13177
#
# Poissons Ratio (x) = 0.47860 0.18829
# Poissons Ratio (y) = 0.47082 0.16105
# Poissons Ratio (z) = 0.43969 0.38229
#
# Static dielectric constant tensor:
#      x y z
#    x 1.560250 0.000000 0.000000 
#    y 0.000000 1.521170 0.000000 
#    z 0.000000 0.000000 1.578360 
# 
# From -- ./inp_files/65285.got.cif
#   From: 2010.05.17/outbox.cif.g08.bks.cpg/sg65_33_cif.got.tgz:65285.got - 2010.06.03 17:01:31.
