data_PCOD9489354
_publ_section_title
;
Structure prediction by ZEFSAII (Michael W. Deem and Ramdas Pophale) SiO2 
 PCOD9489354
Probable space group: C M M M
;
_chemical_formula_sum "Si O2"
_cell_formula_units_Z 96
_cell_length_a 8.939673
_cell_length_b 19.175390
_cell_length_c 31.378825
_cell_angle_alpha 90.000000
_cell_angle_beta 90.000000
_cell_angle_gamma 90.000000
_cell_volume 5379.012035
_symmetry_space_group_name_H-M "C M M M"
_symmetry_group_IT_number 65
_symmetry_cell_setting 'orthorhombic'
loop_
_space_group_symop_operation_xyz
x,y,z
-x,-y,z
x,-y,-z
-x,y,-z
-x,-y,-z
x,y,-z
-x,y,z
x,-y,z
1/2+x,1/2+y,z
1/2-x,1/2-y,z
1/2+x,1/2-y,-z
1/2-x,1/2+y,-z
1/2-x,1/2-y,-z
1/2+x,1/2+y,-z
1/2-x,1/2+y,z
1/2+x,1/2-y,z
loop_
_atom_site_type_symbol
_atom_site_label
_atom_site_fract_x
_atom_site_fract_y
_atom_site_fract_z
Si Si1 0.182259 0.580261 0.782738
Si Si2 0.821590 0.826039 0.951825
Si Si3 0.321513 0.675342 0.549918
Si Si4 0.680775 0.826488 0.296888
Si Si5 0.323367 0.916658 0.121295
Si Si6 0.180188 0.581010 0.620906
O O1 0.229253 0.500000 0.774573
O O2 0.229804 0.632747 0.745825
O O3 0.228045 0.601255 0.830580
O O4 0.000000 0.579257 0.782791
O O5 0.750000 0.750000 0.945729
O O6 0.762751 0.877090 0.915580
O O7 0.000000 0.820271 0.949528
O O8 0.781462 0.849737 0.000000
O O9 0.287210 0.662676 0.500000
O O10 0.500000 0.679371 0.554713
O O11 0.250000 0.750000 0.561701
O O12 0.254922 0.616089 0.579965
O O13 0.500000 0.820974 0.296060
O O14 0.750000 0.750000 0.299711
O O15 0.721433 0.873682 0.337629
O O16 0.500000 0.900184 0.118033
O O17 0.307559 0.000000 0.117109
O O18 0.221812 0.500000 0.625953
O O19 0.000000 0.584306 0.616590
#
# Coordination Sequence:
#
# PCOD9489354 Si02
#       6
#    16  16  16  16  16  16
#     4   8  15  31  54  76 100 133 171 208 248 299
#     4  10  21  36  53  73 100 135 173 214 260 308
#     4  10  21  37  57  80 107 140 176 215 261 311
#     4  10  20  34  53  77 105 136 172 213 256 305
#     4   9  18  33  54  79 105 135 171 210 254 305
#     4  10  21  36  55  79 106 139 178 218 261 308
#
# _framework density 17.847142999999999
#
# number of rings (size 3 to 8) (size 9 to 14) (size 15 to 20)
#    0.000    2.500    0.000    3.000    0.000    8.000 
#    0.000    5.833    0.000    2.500    0.000    0.000 
#    0.000    0.000    0.000    0.000    0.000    0.000 
#
# Total GULP energy -267840.109705 kJ/mol
# GULP energy per Si atom -5580.002286 kJ/mol
# Density = 1.780652 g / cm^3
# Si number density = 17.847143 Si / 1000 Ang^3
#
#
#
# Elastic Constant Matrix: (Units=GPa)
#
#
# Indices 1 2 3 4 5 6 
#
# 1 28.0320 43.2628 48.9525 0.0000 0.0000 0.0000
# 2 43.2628 127.8697 100.6650 0.0000 0.0000 0.0000
# 3 48.9525 100.6650 138.2723 0.0000 0.0000 0.0000
# 4 0.0000 0.0000 0.0000 40.2819 0.0000 0.0000
# 5 0.0000 0.0000 0.0000 0.0000 16.6021 0.0000
# 6 0.0000 0.0000 0.0000 0.0000 0.0000 32.7404
#
#
#
# Elastic Compliance Matrix: (Units=1/GPa)
#
#
# Indices 1 2 3 4 5 6 
#
# 1 0.103774 -0.014495 -0.026186 0.000000 0.000000 0.000000
# 2 -0.014495 0.020345 -0.009680 0.000000 0.000000 0.000000
# 3 -0.026186 -0.009680 0.023550 0.000000 0.000000 0.000000
# 4 0.000000 0.000000 0.000000 0.024825 0.000000 0.000000
# 5 0.000000 0.000000 0.000000 0.000000 0.060233 0.000000
# 6 0.000000 0.000000 0.000000 0.000000 0.000000 0.030543
#
#
# Mechanical properties :
#
#
# Convention : Reuss Voigt Hill
#
# Bulk Modulus (GPa) = 21.30102 75.54828 48.42465
# Shear Modulus (GPa) = 13.17031 24.67781 18.92406
#
# Velocity S-wave (km/s) = 2.71947 3.72254 3.25982
# Velocity P-wave (km/s) = 4.67139 7.80379 6.43121
#
# Compressibility (1/GPa) = 0.04694610
#
# Stress axis : x y z
#
# Youngs Moduli (GPa) = 9.63637 49.15146 42.46290
#
# Poissons Ratio (x) = 0.71247 1.11193
# Poissons Ratio (y) = 0.13968 0.41104
# Poissons Ratio (z) = 0.25234 0.47579
#
# Static dielectric constant tensor:
#      x y z
#    x 1.599630 0.000000 0.000000 
#    y 0.000000 1.576900 0.000000 
#    z 0.000000 0.000000 1.611520 
# 
# From -- ./inp_files/73175.got.cif
#   From: 2010.05.17/outbox.cif.g08.bks.cpg/sg65_37_cif.got.tgz:73175.got - 2010.06.03 17:01:31.
