data_PCOD9489828
_publ_section_title
;
Structure prediction by ZEFSAII (Michael W. Deem and Ramdas Pophale) SiO2 
 PCOD9489828
Probable space group: C M M M
;
_chemical_formula_sum "Si O2"
_cell_formula_units_Z 116
_cell_length_a 25.278477
_cell_length_b 17.700841
_cell_length_c 15.148447
_cell_angle_alpha 90.000000
_cell_angle_beta 90.000000
_cell_angle_gamma 90.000000
_cell_volume 6778.177186
_symmetry_space_group_name_H-M "C M M M"
_symmetry_group_IT_number 65
_symmetry_cell_setting 'orthorhombic'
loop_
_space_group_symop_operation_xyz
x,y,z
-x,-y,z
x,-y,-z
-x,y,-z
-x,-y,-z
x,y,-z
-x,y,z
x,-y,z
1/2+x,1/2+y,z
1/2-x,1/2-y,z
1/2+x,1/2-y,-z
1/2-x,1/2+y,-z
1/2-x,1/2-y,-z
1/2+x,1/2+y,-z
1/2-x,1/2+y,z
1/2+x,1/2-y,z
loop_
_atom_site_type_symbol
_atom_site_label
_atom_site_fract_x
_atom_site_fract_y
_atom_site_fract_z
Si Si1 0.088455 0.690538 0.652248
Si Si2 0.251964 0.341411 0.756834
Si Si3 0.187534 0.411823 0.399254
Si Si4 0.000000 0.713677 0.500000
Si Si5 0.936684 0.087709 0.900858
Si Si6 0.941223 0.411320 0.818092
Si Si7 0.161792 0.660602 0.896950
Si Si8 0.866501 0.808058 0.788192
O O1 0.135534 0.639001 0.613748
O O2 0.063318 0.639887 0.730662
O O3 0.114505 0.762724 0.701472
O O4 0.046343 0.710700 0.577850
O O5 0.250000 0.250000 0.745582
O O6 0.229886 0.381950 0.670576
O O7 0.212006 0.362447 0.836544
O O8 0.313401 0.356076 0.773583
O O9 0.206080 0.404750 0.500000
O O10 0.175216 0.500000 0.382475
O O11 0.911746 0.140041 0.827496
O O12 0.000000 0.092407 0.898289
O O13 0.922155 0.000000 0.888759
O O14 0.919584 0.110675 0.000000
O O15 0.937618 0.500000 0.796005
O O16 0.890618 0.388699 0.876768
O O17 0.000000 0.398291 0.857974
O O18 0.147321 0.743858 0.860704
O O19 0.174298 0.660145 0.000000
#
# Coordination Sequence:
#
# PCOD9489828 Si02
#       8
#    16  16  16   4  16  16  16  16
#     4  11  21  37  54  84 116 147 188 241 294 346
#     4  10  20  38  56  83 111 148 193 240 293 345
#     4  11  22  38  59  82 113 152 193 242 298 347
#     4  12  24  36  57  90 123 144 198 246 298 354
#     4   9  19  36  58  86 116 144 181 233 290 346
#     4  10  20  35  53  73 111 160 203 241 280 333
#     4  10  21  34  52  80 115 149 190 241 287 336
#     4  10  21  36  60  83 112 151 188 227 290 354
#
# _framework density 17.113745000000002
#
# number of rings (size 3 to 8) (size 9 to 14) (size 15 to 20)
#    0.000    1.793    5.517    1.241    0.966    4.966 
#    1.241    2.069    0.000    0.000    0.000    0.483 
#    0.000    0.000    0.000    0.000    0.000    0.000 
#
# Total GULP energy -322874.385010 kJ/mol
# GULP energy per Si atom -5566.799742 kJ/mol
# Density = 1.707479 g / cm^3
# Si number density = 17.113745 Si / 1000 Ang^3
#
#
#
# Elastic Constant Matrix: (Units=GPa)
#
#
# Indices 1 2 3 4 5 6 
#
# 1 104.3890 44.4728 57.9304 0.0000 0.0000 0.0000
# 2 44.4728 39.8951 44.4654 0.0000 0.0000 0.0000
# 3 57.9304 44.4654 129.6715 0.0000 0.0000 0.0000
# 4 0.0000 0.0000 0.0000 18.0433 0.0000 0.0000
# 5 0.0000 0.0000 0.0000 0.0000 13.9258 0.0000
# 6 0.0000 0.0000 0.0000 0.0000 0.0000 23.7554
#
#
#
# Elastic Compliance Matrix: (Units=1/GPa)
#
#
# Indices 1 2 3 4 5 6 
#
# 1 0.018539 -0.018509 -0.001935 0.000000 0.000000 0.000000
# 2 -0.018509 0.059051 -0.011980 0.000000 0.000000 0.000000
# 3 -0.001935 -0.011980 0.012685 0.000000 0.000000 0.000000
# 4 0.000000 0.000000 0.000000 0.055422 0.000000 0.000000
# 5 0.000000 0.000000 0.000000 0.000000 0.071809 0.000000
# 6 0.000000 0.000000 0.000000 0.000000 0.000000 0.042096
#
#
# Mechanical properties :
#
#
# Convention : Reuss Voigt Hill
#
# Bulk Modulus (GPa) = 39.33079 63.07698 51.20389
# Shear Modulus (GPa) = 15.01834 19.61738 17.31786
#
# Velocity S-wave (km/s) = 2.96558 3.38937 3.18453
# Velocity P-wave (km/s) = 5.89560 7.22874 6.59593
#
# Compressibility (1/GPa) = 0.02542537
#
# Stress axis : x y z
#
# Youngs Moduli (GPa) = 53.94035 16.93441 78.83622
#
# Poissons Ratio (x) = 0.31344 0.15257
# Poissons Ratio (y) = 0.99839 0.94448
# Poissons Ratio (z) = 0.10439 0.20288
#
# Static dielectric constant tensor:
#      x y z
#    x 1.604470 0.000000 0.000000 
#    y 0.000000 1.566920 0.000000 
#    z 0.000000 0.000000 1.568850 
# 
# From -- ./inp_files/46026.got.cif
#   From: 2010.05.17/outbox.cif.g08.bks.cpg/sg65_24_cif.got.tgz:46026.got - 2010.06.03 17:01:31.
