data_PCOD9489773
_publ_section_title
;
Structure prediction by ZEFSAII (Michael W. Deem and Ramdas Pophale) SiO2 
 PCOD9489773
Probable space group: C M M M
;
_chemical_formula_sum "Si O2"
_cell_formula_units_Z 104
_cell_length_a 16.823168
_cell_length_b 18.683560
_cell_length_c 17.484232
_cell_angle_alpha 90.000000
_cell_angle_beta 90.000000
_cell_angle_gamma 90.000000
_cell_volume 5495.585557
_symmetry_space_group_name_H-M "C M M M"
_symmetry_group_IT_number 65
_symmetry_cell_setting 'orthorhombic'
loop_
_space_group_symop_operation_xyz
x,y,z
-x,-y,z
x,-y,-z
-x,y,-z
-x,-y,-z
x,y,-z
-x,y,z
x,-y,z
1/2+x,1/2+y,z
1/2-x,1/2-y,z
1/2+x,1/2-y,-z
1/2-x,1/2+y,-z
1/2-x,1/2-y,-z
1/2+x,1/2+y,-z
1/2-x,1/2+y,z
1/2+x,1/2-y,z
loop_
_atom_site_type_symbol
_atom_site_label
_atom_site_fract_x
_atom_site_fract_y
_atom_site_fract_z
Si Si1 0.407001 0.578692 0.500000
Si Si2 0.355789 0.673141 0.642500
Si Si3 0.705937 0.081119 0.322149
Si Si4 0.251605 0.081330 0.144459
Si Si5 0.337088 0.213444 0.085060
Si Si6 0.908477 0.166135 0.817371
Si Si7 0.405373 0.171747 0.411435
O O1 0.367831 0.500000 0.500000
O O2 0.500000 0.569047 0.500000
O O3 0.389462 0.623490 0.575740
O O4 0.267869 0.641641 0.651678
O O5 0.396660 0.665751 0.725665
O O6 0.365669 0.754297 0.615824
O O7 0.714444 0.081225 0.230882
O O8 0.623630 0.107674 0.357391
O O9 0.725394 0.000000 0.347561
O O10 0.313148 0.131562 0.099591
O O11 0.162305 0.115517 0.149064
O O12 0.246983 0.000000 0.116597
O O13 0.250000 0.250000 0.088352
O O14 0.389109 0.255185 0.147761
O O15 0.370546 0.224047 0.000000
O O16 0.000000 0.146253 0.835188
O O17 0.383597 0.157679 0.500000
O O18 0.500000 0.181453 0.407223
#
# Coordination Sequence:
#
# PCOD9489773 Si02
#       7
#     8  16  16  16  16  16  16
#     4  11  22  34  51  78 114 152 191 239 286 332
#     4  11  21  37  57  79 110 149 195 238 285 343
#     4  10  22  38  56  79 110 148 190 235 284 344
#     4   9  19  36  56  82 114 149 189 232 277 334
#     4   9  18  34  57  84 112 147 189 229 272 330
#     4  10  20  34  57  86 116 152 187 231 291 348
#     4  11  23  37  55  78 105 140 187 246 299 341
#
# _framework density 18.924278999999999
#
# number of rings (size 3 to 8) (size 9 to 14) (size 15 to 20)
#    0.000    1.923    0.769    3.231    1.077    5.231 
#    0.000    0.769    0.000    1.385    0.000    5.385 
#    0.000    0.000    0.000    0.000    0.000    0.000 
#
# Total GULP energy -289859.427781 kJ/mol
# GULP energy per Si atom -5574.219765 kJ/mol
# Density = 1.888121 g / cm^3
# Si number density = 18.924279 Si / 1000 Ang^3
#
#
#
# Elastic Constant Matrix: (Units=GPa)
#
#
# Indices 1 2 3 4 5 6 
#
# 1 32.3114 37.3959 24.9955 0.0000 0.0000 0.0000
# 2 37.3959 92.8421 27.9180 0.0000 0.0000 0.0000
# 3 24.9955 27.9180 66.8143 0.0000 0.0000 0.0000
# 4 0.0000 0.0000 0.0000 19.7571 0.0000 0.0000
# 5 0.0000 0.0000 0.0000 0.0000 -39.3025 0.0000
# 6 0.0000 0.0000 0.0000 0.0000 0.0000 21.7040
#
#
#
# Elastic Compliance Matrix: (Units=1/GPa)
#
#
# Indices 1 2 3 4 5 6 
#
# 1 0.071366 -0.023694 -0.016798 0.000000 0.000000 0.000000
# 2 -0.023694 0.020186 0.000430 0.000000 0.000000 0.000000
# 3 -0.016798 0.000430 0.021071 0.000000 0.000000 0.000000
# 4 0.000000 0.000000 0.000000 0.050615 0.000000 0.000000
# 5 0.000000 0.000000 0.000000 0.000000 -0.025444 0.000000
# 6 0.000000 0.000000 0.000000 0.000000 0.000000 0.046074
#
#
# Mechanical properties :
#
#
# Convention : Reuss Voigt Hill
#
# Bulk Modulus (GPa) = 30.77088 41.39851 36.08470
# Shear Modulus (GPa) = 18.19330 7.20894 12.70112
#
# Velocity S-wave (km/s) = 3.10397 1.95388 2.59348
# Velocity P-wave (km/s) = 5.39828 5.19746 5.29882
#
# Compressibility (1/GPa) = 0.03249826
#
# Stress axis : x y z
#
# Youngs Moduli (GPa) = 14.01225 49.54018 47.45763
#
# Poissons Ratio (x) = 1.17383 0.79718
# Poissons Ratio (y) = 0.33201 -0.02039
# Poissons Ratio (z) = 0.23537 -0.02129
#
# Static dielectric constant tensor:
#      x y z
#    x 1.662420 0.000000 0.000000 
#    y 0.000000 1.746740 0.000000 
#    z 0.000000 0.000000 1.567130 
# 
# From -- ./inp_files/54603.got.cif
#   From: 2010.05.17/outbox.cif.g08.bks.cpg/sg65_28_cif.got.tgz:54603.got - 2010.06.03 17:01:31.
