data_PCOD9489245
_publ_section_title
;
Structure prediction by ZEFSAII (Michael W. Deem and Ramdas Pophale) SiO2 
 PCOD9489245
Probable space group: C M M M
;
_chemical_formula_sum "Si O2"
_cell_formula_units_Z 96
_cell_length_a 11.823645
_cell_length_b 25.536341
_cell_length_c 18.728326
_cell_angle_alpha 90.000000
_cell_angle_beta 90.000000
_cell_angle_gamma 90.000000
_cell_volume 5654.692736
_symmetry_space_group_name_H-M "C M M M"
_symmetry_group_IT_number 65
_symmetry_cell_setting 'orthorhombic'
loop_
_space_group_symop_operation_xyz
x,y,z
-x,-y,z
x,-y,-z
-x,y,-z
-x,-y,-z
x,y,-z
-x,y,z
x,-y,z
1/2+x,1/2+y,z
1/2-x,1/2-y,z
1/2+x,1/2-y,-z
1/2-x,1/2+y,-z
1/2-x,1/2-y,-z
1/2+x,1/2+y,-z
1/2-x,1/2+y,z
1/2+x,1/2-y,z
loop_
_atom_site_type_symbol
_atom_site_label
_atom_site_fract_x
_atom_site_fract_y
_atom_site_fract_z
Si Si1 0.500000 0.866422 0.918382
Si Si2 0.263407 0.190668 0.082755
Si Si3 0.127953 0.128926 0.803507
Si Si4 0.000000 0.436871 0.776199
Si Si5 0.266022 0.061810 0.700882
Si Si6 0.370085 0.280997 0.682093
Si Si7 0.130079 0.876239 0.415892
O O1 0.391246 0.829288 0.912443
O O2 0.500000 0.907334 0.852625
O O3 0.500000 0.889108 0.000000
O O4 0.250000 0.250000 0.110179
O O5 0.191698 0.150166 0.128047
O O6 0.228087 0.190871 0.000000
O O7 0.185748 0.080031 0.765388
O O8 0.131226 0.176328 0.745852
O O9 0.000000 0.116808 0.820755
O O10 0.109685 0.422931 0.728996
O O11 0.000000 0.500000 0.787630
O O12 0.219010 0.091344 0.631219
O O13 0.263277 0.000000 0.689103
O O14 0.500000 0.256593 0.684558
O O15 0.250000 0.250000 0.687278
O O16 0.364282 0.316207 0.610499
O O17 0.148979 0.881229 0.500000
O O18 0.000000 0.893731 0.399754
#
# Coordination Sequence:
#
# PCOD9489245 Si02
#       7
#     8  16  16   8  16  16  16
#     4  10  20  37  58  81 109 146 189 227 265 317
#     4  10  21  35  52  77 108 142 179 219 264 316
#     4  10  20  34  52  76 106 138 174 219 271 319
#     4  10  20  37  59  82 108 145 183 227 279 316
#     4  10  20  36  57  80 105 135 175 221 270 322
#     4   9  18  34  52  77 108 142 182 223 267 318
#     4   9  19  36  56  78 108 141 174 219 269 320
#
# _framework density 16.977049000000001
#
# number of rings (size 3 to 8) (size 9 to 14) (size 15 to 20)
#    0.000    2.333    1.667    2.000    1.167    2.500 
#    7.500    1.250    0.000    2.000    0.000    1.167 
#    0.000    0.000    0.000    0.000    0.000    0.000 
#
# Total GULP energy -267312.689776 kJ/mol
# GULP energy per Si atom -5569.014370 kJ/mol
# Density = 1.693841 g / cm^3
# Si number density = 16.977049 Si / 1000 Ang^3
#
#
#
# Elastic Constant Matrix: (Units=GPa)
#
#
# Indices 1 2 3 4 5 6 
#
# 1 126.3301 14.9532 29.3945 0.0000 0.0000 0.0000
# 2 14.9532 10.3058 -1.1313 0.0000 0.0000 0.0000
# 3 29.3945 -1.1313 58.6628 0.0000 0.0000 0.0000
# 4 0.0000 0.0000 0.0000 16.3389 0.0000 0.0000
# 5 0.0000 0.0000 0.0000 0.0000 -4.4808 0.0000
# 6 0.0000 0.0000 0.0000 0.0000 0.0000 26.2431
#
#
#
# Elastic Compliance Matrix: (Units=1/GPa)
#
#
# Indices 1 2 3 4 5 6 
#
# 1 0.011341 -0.017114 -0.006013 0.000000 0.000000 0.000000
# 2 -0.017114 0.123067 0.010949 0.000000 0.000000 0.000000
# 3 -0.006013 0.010949 0.020270 0.000000 0.000000 0.000000
# 4 0.000000 0.000000 0.000000 0.061204 0.000000 0.000000
# 5 0.000000 0.000000 0.000000 0.000000 -0.223174 0.000000
# 6 0.000000 0.000000 0.000000 0.000000 0.000000 0.038105
#
#
# Mechanical properties :
#
#
# Convention : Reuss Voigt Hill
#
# Bulk Modulus (GPa) = 7.67333 31.30351 19.48842
# Shear Modulus (GPa) = 50.70545 17.75906 34.23225
#
# Velocity S-wave (km/s) = 5.47100 3.23780 4.49529
# Velocity P-wave (km/s) = 6.66625 5.69706 6.20062
#
# Compressibility (1/GPa) = 0.13032147
#
# Stress axis : x y z
#
# Youngs Moduli (GPa) = 88.17933 8.12568 49.33294
#
# Poissons Ratio (x) = 0.13907 0.29661
# Poissons Ratio (y) = 1.50914 -0.54014
# Poissons Ratio (z) = 0.53018 -0.08897
#
# Static dielectric constant tensor:
#      x y z
#    x 1.613110 0.000000 0.000000 
#    y 0.000000 1.564620 0.000000 
#    z 0.000000 0.000000 1.574860 
# 
# From -- ./inp_files/51707.got.cif
#   From: 2010.05.17/outbox.cif.g08.bks.cpg/sg65_26_cif.got.tgz:51707.got - 2010.06.03 17:01:31.
