data_PCOD9489310
_publ_section_title
;
Structure prediction by ZEFSAII (Michael W. Deem and Ramdas Pophale) SiO2 
 PCOD9489310
Probable space group: C M M M
;
_chemical_formula_sum "Si O2"
_cell_formula_units_Z 72
_cell_length_a 7.856038
_cell_length_b 19.785589
_cell_length_c 23.310185
_cell_angle_alpha 90.000000
_cell_angle_beta 90.000000
_cell_angle_gamma 90.000000
_cell_volume 3623.249819
_symmetry_space_group_name_H-M "C M M M"
_symmetry_group_IT_number 65
_symmetry_cell_setting 'orthorhombic'
loop_
_space_group_symop_operation_xyz
x,y,z
-x,-y,z
x,-y,-z
-x,y,-z
-x,-y,-z
x,y,-z
-x,y,z
x,-y,z
1/2+x,1/2+y,z
1/2-x,1/2-y,z
1/2+x,1/2-y,-z
1/2-x,1/2+y,-z
1/2-x,1/2-y,-z
1/2+x,1/2+y,-z
1/2-x,1/2+y,z
1/2+x,1/2-y,z
loop_
_atom_site_type_symbol
_atom_site_label
_atom_site_fract_x
_atom_site_fract_y
_atom_site_fract_z
Si Si1 0.295060 0.326324 0.397891
Si Si2 0.294716 0.173331 0.065204
Si Si3 0.208758 0.922286 0.500000
Si Si4 0.796414 0.423666 0.834773
Si Si5 0.796978 0.173695 0.267639
O O1 0.500000 0.330698 0.396127
O O2 0.250000 0.250000 0.415795
O O3 0.234639 0.381059 0.443785
O O4 0.230834 0.336320 0.332752
O O5 0.500000 0.168880 0.063996
O O6 0.250000 0.250000 0.081977
O O7 0.229142 0.119762 0.111430
O O8 0.232555 0.162078 0.000000
O O9 0.000000 0.922001 0.500000
O O10 0.263261 0.000000 0.500000
O O11 0.728569 0.500000 0.832097
O O12 0.765561 0.381412 0.777164
O O13 0.000000 0.428072 0.842133
O O14 0.750000 0.250000 0.249621
O O15 0.000000 0.169542 0.269391
#
# Coordination Sequence:
#
# PCOD9489310 Si02
#       5
#    16  16   8  16  16
#     4   9  18  32  52  75  97 126 163 204 246 289
#     4   9  18  33  53  75  98 127 165 207 248 292
#     4   9  17  30  49  73 100 129 162 200 242 289
#     4  10  21  35  51  74 104 136 168 204 249 298
#     4  10  20  34  53  76 101 131 169 210 251 296
#
# _framework density 19.871663999999999
#
# number of rings (size 3 to 8) (size 9 to 14) (size 15 to 20)
#    0.000    2.556    0.000    1.667    0.000    5.333 
#    0.000    4.444    0.000    1.333    0.000    4.667 
#    0.000    0.000    0.000    0.000    0.000    0.000 
#
# Total GULP energy -200940.600113 kJ/mol
# GULP energy per Si atom -5581.683336 kJ/mol
# Density = 1.982644 g / cm^3
# Si number density = 19.871664 Si / 1000 Ang^3
#
#
#
# Elastic Constant Matrix: (Units=GPa)
#
#
# Indices 1 2 3 4 5 6 
#
# 1 22.1134 3.9967 4.5754 0.0000 0.0000 0.0000
# 2 3.9967 214.7486 136.8592 0.0000 0.0000 0.0000
# 3 4.5754 136.8592 133.1516 0.0000 0.0000 0.0000
# 4 0.0000 0.0000 0.0000 -6.5568 0.0000 0.0000
# 5 0.0000 0.0000 0.0000 0.0000 7.8625 0.0000
# 6 0.0000 0.0000 0.0000 0.0000 0.0000 22.4506
#
#
#
# Elastic Compliance Matrix: (Units=1/GPa)
#
#
# Indices 1 2 3 4 5 6 
#
# 1 0.045559 0.000434 -0.002012 0.000000 0.000000 0.000000
# 2 0.000434 0.013503 -0.013894 0.000000 0.000000 0.000000
# 3 -0.002012 -0.013894 0.021861 0.000000 0.000000 0.000000
# 4 0.000000 0.000000 0.000000 -0.152513 0.000000 0.000000
# 5 0.000000 0.000000 0.000000 0.000000 0.127186 0.000000
# 6 0.000000 0.000000 0.000000 0.000000 0.000000 0.044542
#
#
# Mechanical properties :
#
#
# Convention : Reuss Voigt Hill
#
# Bulk Modulus (GPa) = 20.00823 73.43068 46.71946
# Shear Modulus (GPa) = 33.84281 19.72340 26.78310
#
# Velocity S-wave (km/s) = 4.13130 3.15388 3.67523
# Velocity P-wave (km/s) = 5.73127 7.09192 6.44759
#
# Compressibility (1/GPa) = 0.04997942
#
# Stress axis : x y z
#
# Youngs Moduli (GPa) = 21.94942 74.05575 45.74455
#
# Poissons Ratio (x) = -0.03216 0.09203
# Poissons Ratio (y) = -0.00953 0.63559
# Poissons Ratio (z) = 0.04416 1.02895
#
# Static dielectric constant tensor:
#      x y z
#    x 1.735470 0.000000 0.000000 
#    y 0.000000 1.656440 0.000000 
#    z 0.000000 0.000000 1.712700 
# 
# From -- ./inp_files/67069.got.cif
#   From: 2010.05.17/outbox.cif.g08.bks.cpg/sg65_34_cif.got.tgz:67069.got - 2010.06.03 17:01:31.
