data_PCOD9489389
_publ_section_title
;
Structure prediction by ZEFSAII (Michael W. Deem and Ramdas Pophale) SiO2 
 PCOD9489389
Probable space group: C M M M
;
_chemical_formula_sum "Si O2"
_cell_formula_units_Z 88
_cell_length_a 8.377812
_cell_length_b 22.461849
_cell_length_c 23.801450
_cell_angle_alpha 90.000000
_cell_angle_beta 90.000000
_cell_angle_gamma 90.000000
_cell_volume 4478.984187
_symmetry_space_group_name_H-M "C M M M"
_symmetry_group_IT_number 65
_symmetry_cell_setting 'orthorhombic'
loop_
_space_group_symop_operation_xyz
x,y,z
-x,-y,z
x,-y,-z
-x,y,-z
-x,-y,-z
x,y,-z
-x,y,z
x,-y,z
1/2+x,1/2+y,z
1/2-x,1/2-y,z
1/2+x,1/2-y,-z
1/2-x,1/2+y,-z
1/2-x,1/2-y,-z
1/2+x,1/2+y,-z
1/2-x,1/2+y,z
1/2+x,1/2-y,z
loop_
_atom_site_type_symbol
_atom_site_label
_atom_site_fract_x
_atom_site_fract_y
_atom_site_fract_z
Si Si1 0.809601 0.685145 0.761861
Si Si2 0.688459 0.000000 0.064892
Si Si3 0.820990 0.898736 0.853683
Si Si4 0.693026 0.185028 0.368365
Si Si5 0.313019 0.184058 0.061636
Si Si6 0.805705 0.566635 0.434251
O O1 0.750000 0.750000 0.783330
O O2 0.753971 0.627557 0.796886
O O3 0.755873 0.680497 0.696948
O O4 0.000000 0.686711 0.763478
O O5 0.734668 0.945592 0.105725
O O6 0.500000 0.000000 0.058505
O O7 0.755664 0.000000 0.000000
O O8 0.807859 0.842446 0.894165
O O9 0.000000 0.919100 0.843056
O O10 0.500000 0.185501 0.369969
O O11 0.750000 0.250000 0.389710
O O12 0.748539 0.125687 0.401141
O O13 0.500000 0.181283 0.079492
O O14 0.250000 0.250000 0.055016
O O15 0.305209 0.154102 0.000000
O O16 0.762758 0.571811 0.500000
O O17 0.754269 0.500000 0.414632
O O18 0.000000 0.566624 0.431267
#
# Coordination Sequence:
#
# PCOD9489389 Si02
#       6
#    16   8  16  16  16  16
#     4  10  20  36  56  80 110 145 184 230 281 335
#     4  11  25  45  65  83 107 141 180 223 270 325
#     4  12  24  38  57  80 107 139 176 219 268 326
#     4   9  18  32  52  80 111 148 192 237 290 344
#     4  10  20  34  53  78 106 134 167 210 261 317
#     4   8  14  27  49  78 112 148 190 240 289 340
#
# _framework density 19.647313
#
# number of rings (size 3 to 8) (size 9 to 14) (size 15 to 20)
#    0.000    2.091    0.000    4.636    0.000    5.091 
#    1.636    0.000    0.000    0.545    0.000    1.273 
#    0.000    0.000    0.000    0.000    0.000    0.000 
#
# Total GULP energy -244997.305990 kJ/mol
# GULP energy per Si atom -5568.120591 kJ/mol
# Density = 1.960259 g / cm^3
# Si number density = 19.647313 Si / 1000 Ang^3
#
#
#
# Elastic Constant Matrix: (Units=GPa)
#
#
# Indices 1 2 3 4 5 6 
#
# 1 48.1921 12.2355 14.1858 0.0000 0.0000 0.0000
# 2 12.2355 147.5229 75.5242 0.0000 0.0000 0.0000
# 3 14.1858 75.5242 79.9382 0.0000 0.0000 0.0000
# 4 0.0000 0.0000 0.0000 47.5884 0.0000 0.0000
# 5 0.0000 0.0000 0.0000 0.0000 33.8450 0.0000
# 6 0.0000 0.0000 0.0000 0.0000 0.0000 29.6406
#
#
#
# Elastic Compliance Matrix: (Units=1/GPa)
#
#
# Indices 1 2 3 4 5 6 
#
# 1 0.021903 0.000336 -0.004204 0.000000 0.000000 0.000000
# 2 0.000336 0.013134 -0.012468 0.000000 0.000000 0.000000
# 3 -0.004204 -0.012468 0.025035 0.000000 0.000000 0.000000
# 4 0.000000 0.000000 0.000000 0.021014 0.000000 0.000000
# 5 0.000000 0.000000 0.000000 0.000000 0.029546 0.000000
# 6 0.000000 0.000000 0.000000 0.000000 0.000000 0.033737
#
#
# Mechanical properties :
#
#
# Convention : Reuss Voigt Hill
#
# Bulk Modulus (GPa) = 36.49788 53.28269 44.89028
# Shear Modulus (GPa) = 26.85645 33.79531 30.32588
#
# Velocity S-wave (km/s) = 3.70121 4.15191 3.93302
# Velocity P-wave (km/s) = 6.07306 7.08258 6.59716
#
# Compressibility (1/GPa) = 0.02739885
#
# Stress axis : x y z
#
# Youngs Moduli (GPa) = 45.65683 76.13924 39.94353
#
# Poissons Ratio (x) = -0.02555 0.16792
# Poissons Ratio (y) = -0.01532 0.49802
# Poissons Ratio (z) = 0.19193 0.94932
#
# Static dielectric constant tensor:
#      x y z
#    x 1.709700 0.000000 0.000000 
#    y 0.000000 1.771250 0.000000 
#    z 0.000000 0.000000 1.713540 
# 
# From -- ./inp_files/67585.got.cif
#   From: 2010.05.17/outbox.cif.g08.bks.cpg/sg65_34_cif.got.tgz:67585.got - 2010.06.03 17:01:31.
