data_PCOD9489338
_publ_section_title
;
Structure prediction by ZEFSAII (Michael W. Deem and Ramdas Pophale) SiO2 
 PCOD9489338
Probable space group: C M M M
;
_chemical_formula_sum "Si O2"
_cell_formula_units_Z 80
_cell_length_a 26.770991
_cell_length_b 9.356809
_cell_length_c 14.868735
_cell_angle_alpha 90.000000
_cell_angle_beta 90.000000
_cell_angle_gamma 90.000000
_cell_volume 3724.485035
_symmetry_space_group_name_H-M "C M M M"
_symmetry_group_IT_number 65
_symmetry_cell_setting 'orthorhombic'
loop_
_space_group_symop_operation_xyz
x,y,z
-x,-y,z
x,-y,-z
-x,y,-z
-x,-y,-z
x,y,-z
-x,y,z
x,-y,z
1/2+x,1/2+y,z
1/2-x,1/2-y,z
1/2+x,1/2-y,-z
1/2-x,1/2+y,-z
1/2-x,1/2-y,-z
1/2+x,1/2+y,-z
1/2-x,1/2+y,z
1/2+x,1/2-y,z
loop_
_atom_site_type_symbol
_atom_site_label
_atom_site_fract_x
_atom_site_fract_y
_atom_site_fract_z
Si Si1 0.500000 0.838163 0.889446
Si Si2 0.500000 0.334355 0.389813
Si Si3 0.701363 0.663817 0.641714
Si Si4 0.400833 0.836402 0.392018
Si Si5 0.703380 0.661790 0.857094
Si Si6 0.905480 0.838586 0.892709
O O1 0.549179 0.755398 0.858977
O O2 0.500000 0.000000 0.858567
O O3 0.500000 0.839541 0.000000
O O4 0.500000 0.500000 0.360352
O O5 0.500000 0.336094 0.500000
O O6 0.550163 0.250688 0.361160
O O7 0.698866 0.500000 0.607994
O O8 0.750000 0.750000 0.607391
O O9 0.650203 0.749881 0.625725
O O10 0.707494 0.654548 0.749443
O O11 0.405268 0.845868 0.500000
O O12 0.398816 0.000000 0.357008
O O13 0.703640 0.500000 0.892734
O O14 0.750000 0.750000 0.892079
O O15 0.649074 0.725532 0.876755
O O16 0.906563 0.000000 0.854567
O O17 0.911842 0.850096 0.000000
#
# Coordination Sequence:
#
# PCOD9489338 Si02
#       6
#     8   8  16  16  16  16
#     4   9  17  29  46  71 100 127 159 201 246 287
#     4   9  17  31  52  77 104 133 163 197 242 293
#     4  10  20  35  53  72  98 132 168 205 247 295
#     4  10  20  34  53  77 103 130 163 204 247 292
#     4   9  19  34  51  72  98 130 165 201 243 290
#     4   9  17  31  51  73  98 129 163 198 240 291
#
# _framework density 21.479479999999999
#
# number of rings (size 3 to 8) (size 9 to 14) (size 15 to 20)
#    0.000    2.600    0.000    1.800    0.000    6.000 
#    0.000    1.000    0.000    2.400    0.000    0.000 
#    0.000    0.000    0.000    0.000    0.000    0.000 
#
# Total GULP energy -223347.680113 kJ/mol
# GULP energy per Si atom -5583.692003 kJ/mol
# Density = 2.143059 g / cm^3
# Si number density = 21.479480 Si / 1000 Ang^3
#
#
#
# Elastic Constant Matrix: (Units=GPa)
#
#
# Indices 1 2 3 4 5 6 
#
# 1 261.1910 141.2439 -3.6417 0.0000 0.0000 0.0000
# 2 141.2439 180.3048 6.3382 0.0000 0.0000 0.0000
# 3 -3.6417 6.3382 46.7129 0.0000 0.0000 0.0000
# 4 0.0000 0.0000 0.0000 7.5160 0.0000 0.0000
# 5 0.0000 0.0000 0.0000 0.0000 27.0866 0.0000
# 6 0.0000 0.0000 0.0000 0.0000 0.0000 31.7289
#
#
#
# Elastic Compliance Matrix: (Units=1/GPa)
#
#
# Indices 1 2 3 4 5 6 
#
# 1 0.006714 -0.005303 0.001243 0.000000 0.000000 0.000000
# 2 -0.005303 0.009761 -0.001738 0.000000 0.000000 0.000000
# 3 0.001243 -0.001738 0.021740 0.000000 0.000000 0.000000
# 4 0.000000 0.000000 0.000000 0.133050 0.000000 0.000000
# 5 0.000000 0.000000 0.000000 0.000000 0.036919 0.000000
# 6 0.000000 0.000000 0.000000 0.000000 0.000000 0.031517
#
#
# Mechanical properties :
#
#
# Convention : Reuss Voigt Hill
#
# Bulk Modulus (GPa) = 37.56673 86.23217 61.89945
# Shear Modulus (GPa) = 19.21827 36.21752 27.71789
#
# Velocity S-wave (km/s) = 2.99444 4.11072 3.59616
# Velocity P-wave (km/s) = 5.42984 7.92239 6.79144
#
# Compressibility (1/GPa) = 0.02661930
#
# Stress axis : x y z
#
# Youngs Moduli (GPa) = 148.95259 102.44555 45.99806
#
# Poissons Ratio (x) = 0.54325 -0.05717
# Poissons Ratio (y) = 0.78987 0.07994
# Poissons Ratio (z) = -0.18513 0.17804
#
# Static dielectric constant tensor:
#      x y z
#    x 1.747970 0.000000 0.000000 
#    y 0.000000 1.768730 0.000000 
#    z 0.000000 0.000000 1.815720 
# 
# From -- ./inp_files/59673.got.cif
#   From: 2010.05.17/outbox.cif.g08.bks.cpg/sg65_30_cif.got.tgz:59673.got - 2010.06.03 17:01:31.
