data_PCOD9489249
_publ_section_title
;
Structure prediction by ZEFSAII (Michael W. Deem and Ramdas Pophale) SiO2 
 PCOD9489249
Probable space group: C M M M
;
_chemical_formula_sum "Si O2"
_cell_formula_units_Z 92
_cell_length_a 28.438426
_cell_length_b 21.956923
_cell_length_c 7.827508
_cell_angle_alpha 90.000000
_cell_angle_beta 90.000000
_cell_angle_gamma 90.000000
_cell_volume 4887.655128
_symmetry_space_group_name_H-M "C M M M"
_symmetry_group_IT_number 65
_symmetry_cell_setting 'orthorhombic'
loop_
_space_group_symop_operation_xyz
x,y,z
-x,-y,z
x,-y,-z
-x,y,-z
-x,-y,-z
x,y,-z
-x,y,z
x,-y,z
1/2+x,1/2+y,z
1/2-x,1/2-y,z
1/2+x,1/2-y,-z
1/2-x,1/2+y,-z
1/2-x,1/2-y,-z
1/2+x,1/2+y,-z
1/2-x,1/2+y,z
1/2+x,1/2-y,z
loop_
_atom_site_type_symbol
_atom_site_label
_atom_site_fract_x
_atom_site_fract_y
_atom_site_fract_z
Si Si1 0.552648 0.750989 0.206270
Si Si2 0.802632 0.681184 0.697326
Si Si3 0.727718 0.500000 0.500000
Si Si4 0.719851 0.401393 0.190096
Si Si5 0.350812 0.306401 0.702775
Si Si6 0.446245 0.000000 0.704774
Si Si7 0.897210 0.374358 0.797721
O O1 0.500000 0.737323 0.267806
O O2 0.594397 0.706914 0.264852
O O3 0.568416 0.819365 0.258183
O O4 0.551925 0.749840 0.000000
O O5 0.788723 0.689211 0.500000
O O6 0.759786 0.650708 0.793765
O O7 0.822507 0.745824 0.762635
O O8 0.847389 0.636120 0.708019
O O9 0.727024 0.447157 0.347378
O O10 0.670544 0.365940 0.212006
O O11 0.722936 0.428258 0.000000
O O12 0.343379 0.311238 0.500000
O O13 0.419861 0.060650 0.763508
O O14 0.500000 0.000000 0.768210
O O15 0.447005 0.000000 0.500000
O O16 0.889188 0.367494 0.000000
#
# Coordination Sequence:
#
# PCOD9489249 Si02
#       7
#    16  16   4  16  16   8  16
#     4   9  18  33  54  83 117 148 186 241 298 352
#     4  10  20  37  59  86 120 154 192 247 300 347
#     4  12  26  46  58  86 121 154 199 244 282 352
#     4  12  24  41  65  89 119 160 199 243 295 351
#     4  10  20  36  60  90 122 155 194 242 297 353
#     4  11  23  36  49  67  97 145 201 248 294 346
#     4  10  20  34  52  76 106 148 198 245 294 346
#
# _framework density 18.822932999999999
#
# number of rings (size 3 to 8) (size 9 to 14) (size 15 to 20)
#    0.000    1.652    1.739    3.130    0.000    7.304 
#    1.565    1.739    0.000    0.000    0.000    1.217 
#    0.000    2.783    0.000    0.000    0.000    0.000 
#
# Total GULP energy -256418.676636 kJ/mol
# GULP energy per Si atom -5574.319057 kJ/mol
# Density = 1.878009 g / cm^3
# Si number density = 18.822933 Si / 1000 Ang^3
#
#
#
# Elastic Constant Matrix: (Units=GPa)
#
#
# Indices 1 2 3 4 5 6 
#
# 1 98.1180 30.6772 20.1106 0.0000 0.0000 0.0000
# 2 30.6772 31.9600 17.4045 0.0000 0.0000 0.0000
# 3 20.1106 17.4045 102.3379 0.0000 0.0000 0.0000
# 4 0.0000 0.0000 0.0000 16.7508 0.0000 0.0000
# 5 0.0000 0.0000 0.0000 0.0000 5.3009 0.0000
# 6 0.0000 0.0000 0.0000 0.0000 0.0000 8.0884
#
#
#
# Elastic Compliance Matrix: (Units=1/GPa)
#
#
# Indices 1 2 3 4 5 6 
#
# 1 0.014588 -0.013712 -0.000535 0.000000 0.000000 0.000000
# 2 -0.013712 0.047370 -0.005362 0.000000 0.000000 0.000000
# 3 -0.000535 -0.005362 0.010789 0.000000 0.000000 0.000000
# 4 0.000000 0.000000 0.000000 0.059699 0.000000 0.000000
# 5 0.000000 0.000000 0.000000 0.000000 0.188649 0.000000
# 6 0.000000 0.000000 0.000000 0.000000 0.000000 0.123634
#
#
# Mechanical properties :
#
#
# Convention : Reuss Voigt Hill
#
# Bulk Modulus (GPa) = 29.82338 40.97784 35.40061
# Shear Modulus (GPa) = 10.09852 16.97625 13.53739
#
# Velocity S-wave (km/s) = 2.31876 3.00641 2.68469
# Velocity P-wave (km/s) = 4.80078 5.81969 5.33461
#
# Compressibility (1/GPa) = 0.03353073
#
# Stress axis : x y z
#
# Youngs Moduli (GPa) = 68.54729 21.11034 92.69114
#
# Poissons Ratio (x) = 0.28946 0.04958
# Poissons Ratio (y) = 0.93989 0.49698
# Poissons Ratio (z) = 0.03667 0.11319
#
# Static dielectric constant tensor:
#      x y z
#    x 1.659950 0.000000 0.000000 
#    y 0.000000 1.635470 0.000000 
#    z 0.000000 0.000000 1.683130 
# 
# From -- ./inp_files/16390.got.cif
#   From: 2010.05.17/outbox.cif.g08.bks.cpg/sg65_9_cif.got.tgz:16390.got - 2010.06.03 17:01:31.
