data_PCOD9489704
_publ_section_title
;
Structure prediction by ZEFSAII (Michael W. Deem and Ramdas Pophale) SiO2 
 PCOD9489704
Probable space group: C M M M
;
_chemical_formula_sum "Si O2"
_cell_formula_units_Z 88
_cell_length_a 20.095696
_cell_length_b 7.954316
_cell_length_c 25.146434
_cell_angle_alpha 90.000000
_cell_angle_beta 90.000000
_cell_angle_gamma 90.000000
_cell_volume 4019.595017
_symmetry_space_group_name_H-M "C M M M"
_symmetry_group_IT_number 65
_symmetry_cell_setting 'orthorhombic'
loop_
_space_group_symop_operation_xyz
x,y,z
-x,-y,z
x,-y,-z
-x,y,-z
-x,-y,-z
x,y,-z
-x,y,z
x,-y,z
1/2+x,1/2+y,z
1/2-x,1/2-y,z
1/2+x,1/2-y,-z
1/2-x,1/2+y,-z
1/2-x,1/2-y,-z
1/2+x,1/2+y,-z
1/2-x,1/2+y,z
1/2+x,1/2-y,z
loop_
_atom_site_type_symbol
_atom_site_label
_atom_site_fract_x
_atom_site_fract_y
_atom_site_fract_z
Si Si1 0.679340 0.194587 0.673423
Si Si2 0.575125 0.704897 0.938823
Si Si3 0.075397 0.197902 0.753277
Si Si4 0.827500 0.796800 0.153663
Si Si5 0.145011 0.205081 0.560252
Si Si6 0.000000 0.186936 0.563675
O O1 0.750000 0.250000 0.697771
O O2 0.615737 0.285281 0.698430
O O3 0.683573 0.229227 0.610636
O O4 0.670518 0.000000 0.683387
O O5 0.500000 0.755198 0.921557
O O6 0.575333 0.500000 0.938499
O O7 0.633579 0.760171 0.899575
O O8 0.584520 0.758162 0.000000
O O9 0.126263 0.267070 0.797742
O O10 0.000000 0.267847 0.752370
O O11 0.068768 0.000000 0.764633
O O12 0.750000 0.750000 0.156240
O O13 0.829137 0.000000 0.154793
O O14 0.164150 0.256209 0.500000
O O15 0.070311 0.269407 0.573043
O O16 0.144285 0.000000 0.560421
O O17 0.000000 0.164269 0.500000
O O18 0.000000 0.000000 0.588773
#
# Coordination Sequence:
#
# PCOD9489704 Si02
#       6
#    16  16  16  16  16   8
#     4  12  26  42  60  84 117 152 190 235 286 342
#     4   8  14  27  50  80 113 150 195 244 286 329
#     4  10  22  41  64  86 110 145 190 239 291 348
#     4  10  20  34  55  84 116 151 191 235 286 343
#     4   9  18  35  60  88 117 151 189 228 276 336
#     4   7  12  26  51  81 109 139 175 213 256 313
#
# _framework density 21.892754
#
# number of rings (size 3 to 8) (size 9 to 14) (size 15 to 20)
#    0.000    2.455    0.000    4.364    1.273    5.818 
#    0.000    0.000    0.000    3.273    0.000    1.273 
#    0.000    0.000    0.000    0.000    0.000    0.000 
#
# Total GULP energy -245354.575568 kJ/mol
# GULP energy per Si atom -5576.240354 kJ/mol
# Density = 2.184292 g / cm^3
# Si number density = 21.892754 Si / 1000 Ang^3
#
#
#
# Elastic Constant Matrix: (Units=GPa)
#
#
# Indices 1 2 3 4 5 6 
#
# 1 201.3723 9.5753 62.0406 0.0000 0.0000 0.0000
# 2 9.5753 26.7085 -0.3840 0.0000 0.0000 0.0000
# 3 62.0406 -0.3840 84.5463 0.0000 0.0000 0.0000
# 4 0.0000 0.0000 0.0000 0.8859 0.0000 0.0000
# 5 0.0000 0.0000 0.0000 0.0000 25.4090 0.0000
# 6 0.0000 0.0000 0.0000 0.0000 0.0000 21.0624
#
#
#
# Elastic Compliance Matrix: (Units=1/GPa)
#
#
# Indices 1 2 3 4 5 6 
#
# 1 0.006570 -0.002425 -0.004832 0.000000 0.000000 0.000000
# 2 -0.002425 0.038339 0.001954 0.000000 0.000000 0.000000
# 3 -0.004832 0.001954 0.015383 0.000000 0.000000 0.000000
# 4 0.000000 0.000000 0.000000 1.128844 0.000000 0.000000
# 5 0.000000 0.000000 0.000000 0.000000 0.039356 0.000000
# 6 0.000000 0.000000 0.000000 0.000000 0.000000 0.047478
#
#
# Mechanical properties :
#
#
# Convention : Reuss Voigt Hill
#
# Bulk Modulus (GPa) = 20.12705 50.56565 35.34635
# Shear Modulus (GPa) = 3.83689 25.56447 14.70068
#
# Velocity S-wave (km/s) = 1.32529 3.42089 2.59412
# Velocity P-wave (km/s) = 3.39931 6.22499 5.01526
#
# Compressibility (1/GPa) = 0.04968438
#
# Stress axis : x y z
#
# Youngs Moduli (GPa) = 152.20843 26.08327 65.00885
#
# Poissons Ratio (x) = 0.06325 0.31413
# Poissons Ratio (y) = 0.36909 -0.12700
# Poissons Ratio (z) = 0.73548 -0.05095
#
# Static dielectric constant tensor:
#      x y z
#    x 1.899350 0.000000 0.000000 
#    y 0.000000 1.806480 0.000000 
#    z 0.000000 0.000000 1.823650 
# 
# From -- ./inp_files/71004.got.cif
#   From: 2010.05.17/outbox.cif.g08.bks.cpg/sg65_36_cif.got.tgz:71004.got - 2010.06.03 17:01:31.
