data_PCOD9489838
_publ_section_title
;
Structure prediction by ZEFSAII (Michael W. Deem and Ramdas Pophale) SiO2 
 PCOD9489838
Probable space group: C M M M
;
_chemical_formula_sum "Si O2"
_cell_formula_units_Z 88
_cell_length_a 27.839512
_cell_length_b 8.715798
_cell_length_c 21.784106
_cell_angle_alpha 90.000000
_cell_angle_beta 90.000000
_cell_angle_gamma 90.000000
_cell_volume 5285.773097
_symmetry_space_group_name_H-M "C M M M"
_symmetry_group_IT_number 65
_symmetry_cell_setting 'orthorhombic'
loop_
_space_group_symop_operation_xyz
x,y,z
-x,-y,z
x,-y,-z
-x,y,-z
-x,-y,-z
x,y,-z
-x,y,z
x,-y,z
1/2+x,1/2+y,z
1/2-x,1/2-y,z
1/2+x,1/2-y,-z
1/2-x,1/2+y,-z
1/2-x,1/2-y,-z
1/2+x,1/2+y,-z
1/2-x,1/2+y,z
1/2+x,1/2-y,z
loop_
_atom_site_type_symbol
_atom_site_label
_atom_site_fract_x
_atom_site_fract_y
_atom_site_fract_z
Si Si1 0.055675 0.684721 0.931537
Si Si2 0.801532 0.184105 0.742478
Si Si3 0.851693 0.683387 0.377768
Si Si4 0.555255 0.685437 0.683431
Si Si5 0.695935 0.316207 0.500000
Si Si6 0.397283 0.316502 0.188379
O O1 0.056527 0.500000 0.930911
O O2 0.086311 0.744829 0.875098
O O3 0.000000 0.732670 0.923426
O O4 0.071195 0.734982 0.000000
O O5 0.750000 0.250000 0.759524
O O6 0.818707 0.256494 0.678196
O O7 0.843137 0.222398 0.791334
O O8 0.799860 0.000000 0.735883
O O9 0.849632 0.500000 0.381119
O O10 0.905522 0.738372 0.360790
O O11 0.831895 0.756487 0.440023
O O12 0.500000 0.725343 0.670682
O O13 0.560391 0.500000 0.679223
O O14 0.569499 0.729292 0.753411
O O15 0.697998 0.500000 0.500000
O O16 0.750000 0.250000 0.500000
O O17 0.400819 0.500000 0.183242
#
# Coordination Sequence:
#
# PCOD9489838 Si02
#       6
#    16  16  16  16   8  16
#     4   9  18  31  46  68 100 134 166 202 245 293
#     4  10  20  35  53  75 102 131 165 206 253 300
#     4  11  22  36  54  79 107 134 168 207 249 298
#     4   9  18  34  54  76 105 138 170 207 252 298
#     4  12  24  40  59  78 103 134 168 207 255 303
#     4   9  18  31  49  74 101 129 164 206 248 294
#
# _framework density 16.648461999999999
#
# number of rings (size 3 to 8) (size 9 to 14) (size 15 to 20)
#    0.000    2.182    0.000    5.727    0.000    5.455 
#    0.000    1.364    0.000    3.273    0.000    0.000 
#    0.000    0.000    0.000    0.000    0.000    0.000 
#
# Total GULP energy -245560.864953 kJ/mol
# GULP energy per Si atom -5580.928749 kJ/mol
# Density = 1.661057 g / cm^3
# Si number density = 16.648462 Si / 1000 Ang^3
#
#
#
# Elastic Constant Matrix: (Units=GPa)
#
#
# Indices 1 2 3 4 5 6 
#
# 1 135.4495 59.4008 87.5101 0.0000 0.0000 0.0000
# 2 59.4008 76.7300 59.3122 0.0000 0.0000 0.0000
# 3 87.5101 59.3122 159.9174 0.0000 0.0000 0.0000
# 4 0.0000 0.0000 0.0000 28.7238 0.0000 0.0000
# 5 0.0000 0.0000 0.0000 0.0000 15.1763 0.0000
# 6 0.0000 0.0000 0.0000 0.0000 0.0000 30.7732
#
#
#
# Elastic Compliance Matrix: (Units=1/GPa)
#
#
# Indices 1 2 3 4 5 6 
#
# 1 0.013459 -0.006626 -0.004908 0.000000 0.000000 0.000000
# 2 -0.006626 0.021533 -0.004361 0.000000 0.000000 0.000000
# 3 -0.004908 -0.004361 0.010556 0.000000 0.000000 0.000000
# 4 0.000000 0.000000 0.000000 0.034814 0.000000 0.000000
# 5 0.000000 0.000000 0.000000 0.000000 0.065892 0.000000
# 6 0.000000 0.000000 0.000000 0.000000 0.000000 0.032496
#
#
# Mechanical properties :
#
#
# Convention : Reuss Voigt Hill
#
# Bulk Modulus (GPa) = 72.67458 87.17144 79.92301
# Shear Modulus (GPa) = 23.24223 25.99292 24.61757
#
# Velocity S-wave (km/s) = 3.74044 3.95559 3.84952
# Velocity P-wave (km/s) = 7.89948 8.56364 8.23826
#
# Compressibility (1/GPa) = 0.01375997
#
# Stress axis : x y z
#
# Youngs Moduli (GPa) = 74.29788 46.44058 94.73170
#
# Poissons Ratio (x) = 0.30771 0.46492
# Poissons Ratio (y) = 0.49229 0.41308
# Poissons Ratio (z) = 0.36463 0.20251
#
# Static dielectric constant tensor:
#      x y z
#    x 1.555100 0.000000 0.000000 
#    y 0.000000 1.561230 0.000000 
#    z 0.000000 0.000000 1.538970 
# 
# From -- ./inp_files/57969.got.cif
#   From: 2010.05.17/outbox.cif.g08.bks.cpg/sg65_29_cif.got.tgz:57969.got - 2010.06.03 17:01:31.
