data_PCOD9489979
_publ_section_title
;
Structure prediction by ZEFSAII (Michael W. Deem and Ramdas Pophale) SiO2 
 PCOD9489979
Probable space group: C M M M
;
_chemical_formula_sum "Si O2"
_cell_formula_units_Z 104
_cell_length_a 29.605448
_cell_length_b 8.981234
_cell_length_c 20.474767
_cell_angle_alpha 90.000000
_cell_angle_beta 90.000000
_cell_angle_gamma 90.000000
_cell_volume 5444.106562
_symmetry_space_group_name_H-M "C M M M"
_symmetry_group_IT_number 65
_symmetry_cell_setting 'orthorhombic'
loop_
_space_group_symop_operation_xyz
x,y,z
-x,-y,z
x,-y,-z
-x,y,-z
-x,-y,-z
x,y,-z
-x,y,z
x,-y,z
1/2+x,1/2+y,z
1/2-x,1/2-y,z
1/2+x,1/2-y,-z
1/2-x,1/2+y,-z
1/2-x,1/2-y,-z
1/2+x,1/2+y,-z
1/2-x,1/2+y,z
1/2+x,1/2-y,z
loop_
_atom_site_type_symbol
_atom_site_label
_atom_site_fract_x
_atom_site_fract_y
_atom_site_fract_z
Si Si1 0.446266 0.827353 0.688359
Si Si2 0.390299 0.322592 0.427390
Si Si3 0.200487 0.678998 0.000000
Si Si4 0.797768 0.321809 0.609618
Si Si5 0.297026 0.822607 0.763555
Si Si6 0.051911 0.177731 0.829324
Si Si7 0.862457 0.320785 0.122468
O O1 0.500000 0.822610 0.675190
O O2 0.419589 0.749916 0.629903
O O3 0.439193 0.747028 0.757617
O O4 0.431962 0.000000 0.693945
O O5 0.409457 0.294107 0.500000
O O6 0.387461 0.500000 0.417959
O O7 0.340461 0.252111 0.424418
O O8 0.250000 0.750000 0.000000
O O9 0.170838 0.719717 0.063386
O O10 0.205753 0.500000 0.000000
O O11 0.796858 0.500000 0.600364
O O12 0.750000 0.250000 0.589906
O O13 0.804080 0.289444 0.687250
O O14 0.250000 0.750000 0.784550
O O15 0.337361 0.775021 0.810499
O O16 0.292690 0.000000 0.769700
O O17 0.088892 0.244788 0.877887
O O18 0.000000 0.215327 0.846588
O O19 0.055881 0.000000 0.825944
O O20 0.867948 0.500000 0.122175
#
# Coordination Sequence:
#
# PCOD9489979 Si02
#       7
#    16  16   8  16  16  16  16
#     4  10  21  38  61  87 114 145 181 225 280 340
#     4  11  24  39  55  78 109 146 188 232 279 333
#     4  10  22  38  57  84 119 159 200 237 275 326
#     4  10  20  35  55  78 105 139 182 233 287 340
#     4   9  18  31  50  77 105 134 173 222 274 327
#     4  10  21  37  59  87 114 142 182 231 283 337
#     4  10  20  35  55  81 114 151 191 232 276 328
#
# _framework density 19.103225999999999
#
# number of rings (size 3 to 8) (size 9 to 14) (size 15 to 20)
#    0.000    2.000    0.000    3.231    0.000    6.769 
#    0.000    1.923    0.000    2.308    0.000    0.000 
#    0.000    0.000    0.000    0.000    0.000    0.000 
#
# Total GULP energy -290516.959148 kJ/mol
# GULP energy per Si atom -5586.864599 kJ/mol
# Density = 1.905975 g / cm^3
# Si number density = 19.103226 Si / 1000 Ang^3
#
#
#
# Elastic Constant Matrix: (Units=GPa)
#
#
# Indices 1 2 3 4 5 6 
#
# 1 126.4586 51.5024 64.5758 0.0000 0.0000 0.0000
# 2 51.5024 55.8497 38.2322 0.0000 0.0000 0.0000
# 3 64.5758 38.2322 60.6038 0.0000 0.0000 0.0000
# 4 0.0000 0.0000 0.0000 18.5702 0.0000 0.0000
# 5 0.0000 0.0000 0.0000 0.0000 7.7938 0.0000
# 6 0.0000 0.0000 0.0000 0.0000 0.0000 39.0862
#
#
#
# Elastic Compliance Matrix: (Units=1/GPa)
#
#
# Indices 1 2 3 4 5 6 
#
# 1 0.018519 -0.006282 -0.015769 0.000000 0.000000 0.000000
# 2 -0.006282 0.033647 -0.014532 0.000000 0.000000 0.000000
# 3 -0.015769 -0.014532 0.042471 0.000000 0.000000 0.000000
# 4 0.000000 0.000000 0.000000 0.053850 0.000000 0.000000
# 5 0.000000 0.000000 0.000000 0.000000 0.128307 0.000000
# 6 0.000000 0.000000 0.000000 0.000000 0.000000 0.025584
#
#
# Mechanical properties :
#
#
# Convention : Reuss Voigt Hill
#
# Bulk Modulus (GPa) = 46.57858 61.28144 53.93001
# Shear Modulus (GPa) = 13.06502 18.99682 16.03092
#
# Velocity S-wave (km/s) = 2.61802 3.15688 2.89999
# Velocity P-wave (km/s) = 5.79432 6.74067 6.28533
#
# Compressibility (1/GPa) = 0.02146910
#
# Stress axis : x y z
#
# Youngs Moduli (GPa) = 53.99871 29.72076 23.54545
#
# Poissons Ratio (x) = 0.18672 0.37130
# Poissons Ratio (y) = 0.33924 0.34216
# Poissons Ratio (z) = 0.85153 0.43190
#
# Static dielectric constant tensor:
#      x y z
#    x 1.657500 0.000000 0.000000 
#    y 0.000000 1.633640 0.000000 
#    z 0.000000 0.000000 1.673330 
# 
# From -- ./inp_files/60364.got.cif
#   From: 2010.05.17/outbox.cif.g08.bks.cpg/sg65_31_cif.got.tgz:60364.got - 2010.06.03 17:01:31.
