data_PCOD9489643
_publ_section_title
;
Structure prediction by ZEFSAII (Michael W. Deem and Ramdas Pophale) SiO2 
 PCOD9489643
Probable space group: C M M M
;
_chemical_formula_sum "Si O2"
_cell_formula_units_Z 112
_cell_length_a 15.382436
_cell_length_b 23.151732
_cell_length_c 15.103366
_cell_angle_alpha 90.000000
_cell_angle_beta 90.000000
_cell_angle_gamma 90.000000
_cell_volume 5378.762274
_symmetry_space_group_name_H-M "C M M M"
_symmetry_group_IT_number 65
_symmetry_cell_setting 'orthorhombic'
loop_
_space_group_symop_operation_xyz
x,y,z
-x,-y,z
x,-y,-z
-x,y,-z
-x,-y,-z
x,y,-z
-x,y,z
x,-y,z
1/2+x,1/2+y,z
1/2-x,1/2-y,z
1/2+x,1/2-y,-z
1/2-x,1/2+y,-z
1/2-x,1/2-y,-z
1/2+x,1/2+y,-z
1/2-x,1/2+y,z
1/2+x,1/2-y,z
loop_
_atom_site_type_symbol
_atom_site_label
_atom_site_fract_x
_atom_site_fract_y
_atom_site_fract_z
Si Si1 0.153148 0.772154 0.404440
Si Si2 0.345524 0.410698 0.403504
Si Si3 0.358365 0.066443 0.398057
Si Si4 0.896713 0.634888 0.778712
Si Si5 0.398581 0.605091 0.208571
Si Si6 0.095977 0.761659 0.780907
Si Si7 0.236191 0.567448 0.900432
O O1 0.126829 0.749051 0.500000
O O2 0.250000 0.750000 0.384817
O O3 0.157058 0.841167 0.408595
O O4 0.091590 0.756227 0.325275
O O5 0.381679 0.430192 0.500000
O O6 0.246856 0.432510 0.397204
O O7 0.390537 0.420294 0.308744
O O8 0.384469 0.080250 0.500000
O O9 0.386133 0.111866 0.322573
O O10 0.386399 0.000000 0.378530
O O11 0.862474 0.699904 0.801383
O O12 0.837480 0.594611 0.838866
O O13 0.000000 0.633056 0.797856
O O14 0.500000 0.601658 0.183344
O O15 0.369917 0.673365 0.206329
O O16 0.330203 0.575068 0.144879
O O17 0.000000 0.761904 0.821209
O O18 0.218054 0.500000 0.905551
O O19 0.236071 0.592035 0.000000
#
# Coordination Sequence:
#
# PCOD9489643 Si02
#       7
#    16  16  16  16  16  16  16
#     4   9  16  25  43  73 110 156 204 243 283 335
#     4   9  17  30  51  82 121 163 204 245 290 346
#     4  10  20  34  54  83 123 169 215 259 300 350
#     4  11  23  40  63  91 126 165 205 251 304 360
#     4  10  21  39  64  94 128 163 201 247 302 363
#     4   9  20  35  54  86 123 159 198 242 293 357
#     4  11  26  47  69  93 118 149 199 258 315 373
#
# _framework density 20.822634000000001
#
# number of rings (size 3 to 8) (size 9 to 14) (size 15 to 20)
#    0.000    2.143    1.429    1.286    2.000    4.571 
#    0.000    7.857    0.000    2.571    0.000    3.000 
#    0.000    0.000    0.000    0.000    0.000    0.000 
#
# Total GULP energy -311995.113538 kJ/mol
# GULP energy per Si atom -5571.341313 kJ/mol
# Density = 2.077524 g / cm^3
# Si number density = 20.822634 Si / 1000 Ang^3
#
#
#
# Elastic Constant Matrix: (Units=GPa)
#
#
# Indices 1 2 3 4 5 6 
#
# 1 61.7836 2.6663 25.1559 0.0000 0.0000 0.0000
# 2 2.6663 70.0571 18.6850 0.0000 0.0000 0.0000
# 3 25.1559 18.6850 79.2787 0.0000 0.0000 0.0000
# 4 0.0000 0.0000 0.0000 -18.6880 0.0000 0.0000
# 5 0.0000 0.0000 0.0000 0.0000 -14.6661 0.0000
# 6 0.0000 0.0000 0.0000 0.0000 0.0000 47.5667
#
#
#
# Elastic Compliance Matrix: (Units=1/GPa)
#
#
# Indices 1 2 3 4 5 6 
#
# 1 0.018643 0.000926 -0.006134 0.000000 0.000000 0.000000
# 2 0.000926 0.015278 -0.003895 0.000000 0.000000 0.000000
# 3 -0.006134 -0.003895 0.015478 0.000000 0.000000 0.000000
# 4 0.000000 0.000000 0.000000 -0.053510 0.000000 0.000000
# 5 0.000000 0.000000 0.000000 0.000000 -0.068185 0.000000
# 6 0.000000 0.000000 0.000000 0.000000 0.000000 0.021023
#
#
# Mechanical properties :
#
#
# Convention : Reuss Voigt Hill
#
# Bulk Modulus (GPa) = 32.05722 33.79265 32.92494
# Shear Modulus (GPa) = -220.55010 13.81668 -103.36671
#
# Velocity S-wave (km/s) = -10.30283 2.57872 -7.05332
# Velocity P-wave (km/s) = 11.22953 5.01303 7.10535
#
# Compressibility (1/GPa) = 0.03119422
#
# Stress axis : x y z
#
# Youngs Moduli (GPa) = 53.63926 65.45538 64.60766
#
# Poissons Ratio (x) = -0.06064 0.39630
# Poissons Ratio (y) = -0.04970 0.25163
# Poissons Ratio (z) = 0.32902 0.25493
#
# Static dielectric constant tensor:
#      x y z
#    x 1.772350 0.000000 0.000000 
#    y 0.000000 1.668550 0.000000 
#    z 0.000000 0.000000 1.767580 
# 
# From -- ./inp_files/40873.got.cif
#   From: 2010.05.17/outbox.cif.g08.bks.cpg/sg65_21_cif.got.tgz:40873.got - 2010.06.03 17:01:31.
