data_PCOD9489132
_publ_section_title
;
Structure prediction by ZEFSAII (Michael W. Deem and Ramdas Pophale) SiO2 
 PCOD9489132
Probable space group: C M M M
;
_chemical_formula_sum "Si O2"
_cell_formula_units_Z 80
_cell_length_a 8.186680
_cell_length_b 28.345339
_cell_length_c 19.516807
_cell_angle_alpha 90.000000
_cell_angle_beta 90.000000
_cell_angle_gamma 90.000000
_cell_volume 4528.957423
_symmetry_space_group_name_H-M "C M M M"
_symmetry_group_IT_number 65
_symmetry_cell_setting 'orthorhombic'
loop_
_space_group_symop_operation_xyz
x,y,z
-x,-y,z
x,-y,-z
-x,y,-z
-x,-y,-z
x,y,-z
-x,y,z
x,-y,z
1/2+x,1/2+y,z
1/2-x,1/2-y,z
1/2+x,1/2-y,-z
1/2-x,1/2+y,-z
1/2-x,1/2-y,-z
1/2+x,1/2+y,-z
1/2-x,1/2+y,z
1/2+x,1/2-y,z
loop_
_atom_site_type_symbol
_atom_site_label
_atom_site_fract_x
_atom_site_fract_y
_atom_site_fract_z
Si Si1 0.199301 0.445188 0.576531
Si Si2 0.694630 0.352615 0.923674
Si Si3 0.199464 0.604541 0.286634
Si Si4 0.806335 0.697347 0.212663
Si Si5 0.302390 0.946799 0.852588
O O1 0.251927 0.430692 0.500000
O O2 0.245134 0.500000 0.586857
O O3 0.256998 0.413775 0.639916
O O4 0.000000 0.444015 0.576889
O O5 0.500000 0.347785 0.923781
O O6 0.761787 0.319082 0.864107
O O7 0.738022 0.406200 0.902496
O O8 0.757452 0.342197 0.000000
O O9 0.257806 0.656267 0.263233
O O10 0.243324 0.569111 0.224650
O O11 0.000000 0.605270 0.288630
O O12 0.750000 0.750000 0.227159
O O13 0.000000 0.696395 0.218043
O O14 0.500000 0.945886 0.856071
O O15 0.247339 0.000000 0.867338
#
# Coordination Sequence:
#
# PCOD9489132 Si02
#       5
#    16  16  16  16  16
#     4   8  12  18  33  61  95 126 152 180 217 259
#     4  10  21  35  49  67  92 119 148 186 231 278
#     4   8  14  25  41  62  89 120 153 188 225 265
#     4  10  20  34  52  70  88 114 149 190 234 278
#     4   9  17  29  46  67  92 125 161 193 225 265
#
# _framework density 17.664110000000001
#
# number of rings (size 3 to 8) (size 9 to 14) (size 15 to 20)
#    0.000    3.000    0.000    3.600    0.000    5.200 
#    0.000    2.000    0.000    0.600    0.000    0.000 
#    0.000   19.200    0.000   64.200    0.000   58.800 
#
# Total GULP energy -222928.501894 kJ/mol
# GULP energy per Si atom -5573.212547 kJ/mol
# Density = 1.762391 g / cm^3
# Si number density = 17.664110 Si / 1000 Ang^3
#
#
#
# Elastic Constant Matrix: (Units=GPa)
#
#
# Indices 1 2 3 4 5 6 
#
# 1 12.6781 6.7505 4.3926 0.0000 0.0000 0.0000
# 2 6.7505 78.4805 35.7179 0.0000 0.0000 0.0000
# 3 4.3926 35.7179 123.0484 0.0000 0.0000 0.0000
# 4 0.0000 0.0000 0.0000 13.0979 0.0000 0.0000
# 5 0.0000 0.0000 0.0000 0.0000 -7.3786 0.0000
# 6 0.0000 0.0000 0.0000 0.0000 0.0000 23.5172
#
#
#
# Elastic Compliance Matrix: (Units=1/GPa)
#
#
# Indices 1 2 3 4 5 6 
#
# 1 0.082774 -0.006654 -0.001023 0.000000 0.000000 0.000000
# 2 -0.006654 0.015216 -0.004179 0.000000 0.000000 0.000000
# 3 -0.001023 -0.004179 0.009377 0.000000 0.000000 0.000000
# 4 0.000000 0.000000 0.000000 0.076348 0.000000 0.000000
# 5 0.000000 0.000000 0.000000 0.000000 -0.135526 0.000000
# 6 0.000000 0.000000 0.000000 0.000000 0.000000 0.042522
#
#
# Mechanical properties :
#
#
# Convention : Reuss Voigt Hill
#
# Bulk Modulus (GPa) = 11.95411 34.21431 23.08421
# Shear Modulus (GPa) = 35.13490 17.00371 26.06930
#
# Velocity S-wave (km/s) = 4.46472 3.10597 3.84583
# Velocity P-wave (km/s) = 5.77585 5.68103 5.72864
#
# Compressibility (1/GPa) = 0.08365326
#
# Stress axis : x y z
#
# Youngs Moduli (GPa) = 12.08112 65.71817 106.64850
#
# Poissons Ratio (x) = 0.43729 0.10914
# Poissons Ratio (y) = 0.08039 0.44573
# Poissons Ratio (z) = 0.01236 0.27466
#
# Static dielectric constant tensor:
#      x y z
#    x 1.628130 0.000000 0.000000 
#    y 0.000000 1.601650 0.000000 
#    z 0.000000 0.000000 1.612380 
# 
# From -- ./inp_files/49873.got.cif
#   From: 2010.05.17/outbox.cif.g08.bks.cpg/sg65_25_cif.got.tgz:49873.got - 2010.06.03 17:01:31.
