data_PCOD9489761
_publ_section_title
;
Structure prediction by ZEFSAII (Michael W. Deem and Ramdas Pophale) SiO2 
 PCOD9489761
Probable space group: C M M M
;
_chemical_formula_sum "Si O2"
_cell_formula_units_Z 72
_cell_length_a 17.355290
_cell_length_b 25.195319
_cell_length_c 8.500413
_cell_angle_alpha 90.000000
_cell_angle_beta 90.000000
_cell_angle_gamma 90.000000
_cell_volume 3716.993170
_symmetry_space_group_name_H-M "C M M M"
_symmetry_group_IT_number 65
_symmetry_cell_setting 'orthorhombic'
loop_
_space_group_symop_operation_xyz
x,y,z
-x,-y,z
x,-y,-z
-x,y,-z
-x,-y,-z
x,y,-z
-x,y,z
x,-y,z
1/2+x,1/2+y,z
1/2-x,1/2-y,z
1/2+x,1/2-y,-z
1/2-x,1/2+y,-z
1/2-x,1/2-y,-z
1/2+x,1/2+y,-z
1/2-x,1/2+y,z
1/2+x,1/2-y,z
loop_
_atom_site_type_symbol
_atom_site_label
_atom_site_fract_x
_atom_site_fract_y
_atom_site_fract_z
Si Si1 0.875750 0.643194 0.813390
Si Si2 0.087196 0.939849 0.691608
Si Si3 0.797346 0.847976 0.308975
Si Si4 0.915150 0.241677 0.689633
Si Si5 0.500000 0.061404 0.311573
O O1 0.787470 0.644696 0.757447
O O2 0.909625 0.699474 0.756938
O O3 0.925615 0.594855 0.744003
O O4 0.880018 0.640034 0.000000
O O5 0.086667 0.939148 0.500000
O O6 0.149173 0.897037 0.741305
O O7 0.000000 0.927088 0.741993
O O8 0.105295 0.000000 0.740442
O O9 0.792395 0.846882 0.500000
O O10 0.843917 0.795099 0.259300
O O11 0.911080 0.244965 0.500000
O O12 0.000000 0.218740 0.728692
O O13 0.500000 0.060787 0.500000
O O14 0.500000 0.000000 0.256116
#
# Coordination Sequence:
#
# PCOD9489761 Si02
#       5
#    16  16  16  16   8
#     4  12  25  40  59  86 121 157 191 240 303 363
#     4   8  14  27  50  81 115 147 186 240 293 338
#     4  10  20  34  56  87 119 156 204 250 294 348
#     4  10  20  36  60  86 117 158 205 254 300 348
#     4  11  25  47  73  93 111 147 200 253 304 361
#
# _framework density 19.370495999999999
#
# number of rings (size 3 to 8) (size 9 to 14) (size 15 to 20)
#    0.000    1.889    1.111    4.333    0.000    8.000 
#    0.000    2.222    0.000    2.000    0.000    1.556 
#    0.000    0.000    0.000    0.000    0.000    0.000 
#
# Total GULP energy -201028.049467 kJ/mol
# GULP energy per Si atom -5584.112485 kJ/mol
# Density = 1.932641 g / cm^3
# Si number density = 19.370496 Si / 1000 Ang^3
#
#
#
# Elastic Constant Matrix: (Units=GPa)
#
#
# Indices 1 2 3 4 5 6 
#
# 1 163.0831 98.0236 39.8910 0.0000 0.0000 0.0000
# 2 98.0236 146.3756 29.6976 0.0000 0.0000 0.0000
# 3 39.8910 29.6976 23.7684 0.0000 0.0000 0.0000
# 4 0.0000 0.0000 0.0000 -11.5364 0.0000 0.0000
# 5 0.0000 0.0000 0.0000 0.0000 -57.1928 0.0000
# 6 0.0000 0.0000 0.0000 0.0000 0.0000 -6.3693
#
#
#
# Elastic Compliance Matrix: (Units=1/GPa)
#
#
# Indices 1 2 3 4 5 6 
#
# 1 0.013353 -0.005888 -0.015054 0.000000 0.000000 0.000000
# 2 -0.005888 0.011748 -0.004797 0.000000 0.000000 0.000000
# 3 -0.015054 -0.004797 0.073332 0.000000 0.000000 0.000000
# 4 0.000000 0.000000 0.000000 -0.086682 0.000000 0.000000
# 5 0.000000 0.000000 0.000000 0.000000 -0.017485 0.000000
# 6 0.000000 0.000000 0.000000 0.000000 0.000000 -0.157002
#
#
# Mechanical properties :
#
#
# Convention : Reuss Voigt Hill
#
# Bulk Modulus (GPa) = 21.29685 74.27237 47.78461
# Shear Modulus (GPa) = -52.29764 -3.97871 -28.13818
#
# Velocity S-wave (km/s) = -5.20166 -1.43474 -3.81547
# Velocity P-wave (km/s) = 5.00579 5.97341 2.30475
#
# Compressibility (1/GPa) = 0.04695529
#
# Stress axis : x y z
#
# Youngs Moduli (GPa) = 74.88804 85.12144 13.63664
#
# Poissons Ratio (x) = 0.50119 0.20529
# Poissons Ratio (y) = 0.44094 0.06541
# Poissons Ratio (z) = 1.12739 0.40829
#
# Static dielectric constant tensor:
#      x y z
#    x 1.681180 0.000000 0.000000 
#    y 0.000000 1.671380 0.000000 
#    z 0.000000 0.000000 1.659440 
# 
# From -- ./inp_files/9281.got.cif
#   From: 2010.05.17/outbox.cif.g08.bks.cpg/sg65_5_cif.got.tgz:9281.got - 2010.06.03 17:01:31.
