data_PCOD9489790
_publ_section_title
;
Structure prediction by ZEFSAII (Michael W. Deem and Ramdas Pophale) SiO2 
 PCOD9489790
Probable space group: C M M M
;
_chemical_formula_sum "Si O2"
_cell_formula_units_Z 64
_cell_length_a 27.489137
_cell_length_b 9.525685
_cell_length_c 12.264527
_cell_angle_alpha 90.000000
_cell_angle_beta 90.000000
_cell_angle_gamma 90.000000
_cell_volume 3211.501471
_symmetry_space_group_name_H-M "C M M M"
_symmetry_group_IT_number 65
_symmetry_cell_setting 'orthorhombic'
loop_
_space_group_symop_operation_xyz
x,y,z
-x,-y,z
x,-y,-z
-x,y,-z
-x,-y,-z
x,y,-z
-x,y,z
x,-y,z
1/2+x,1/2+y,z
1/2-x,1/2-y,z
1/2+x,1/2-y,-z
1/2-x,1/2+y,-z
1/2-x,1/2-y,-z
1/2+x,1/2+y,-z
1/2-x,1/2+y,z
1/2+x,1/2-y,z
loop_
_atom_site_type_symbol
_atom_site_label
_atom_site_fract_x
_atom_site_fract_y
_atom_site_fract_z
Si Si1 0.802951 0.826828 0.000000
Si Si2 0.940628 0.000000 0.131184
Si Si3 0.441945 0.000000 0.124733
Si Si4 0.442104 0.661060 0.500000
Si Si5 0.901104 0.255421 0.727228
Si Si6 0.801198 0.329515 0.214185
O O1 0.750000 0.750000 0.000000
O O2 0.822772 0.753452 0.891881
O O3 0.801988 0.000000 0.000000
O O4 0.915707 0.124903 0.197074
O O5 0.000000 0.000000 0.142587
O O6 0.930380 0.000000 0.000000
O O7 0.423344 0.874117 0.197028
O O8 0.500000 0.000000 0.118489
O O9 0.423178 0.000000 0.000000
O O10 0.423214 0.500000 0.500000
O O11 0.500000 0.655225 0.500000
O O12 0.425439 0.735057 0.610317
O O13 0.844669 0.294493 0.704094
O O14 0.794865 0.500000 0.198902
O O15 0.750000 0.250000 0.238242
#
# Coordination Sequence:
#
# PCOD9489790 Si02
#       6
#     8   8   8   8  16  16
#     4  10  20  34  60  92 129 176 223 276 337 402
#     4  11  24  41  66 102 139 179 229 283 345 420
#     4  11  24  43  66 100 141 179 221 281 353 418
#     4  11  24  45  72 101 136 179 234 287 328 399
#     4  12  25  42  70 100 137 183 229 279 345 402
#     4  11  24  41  63  95 136 178 229 284 341 409
#
# _framework density 19.928374000000002
#
# number of rings (size 3 to 8) (size 9 to 14) (size 15 to 20)
#    0.000    0.875    2.500    6.375    7.000    2.500 
#    0.000    1.875    0.000    0.000    0.000    0.000 
#    0.000    0.000    0.000    0.000    0.000    0.000 
#
# Total GULP energy -178200.812113 kJ/mol
# GULP energy per Si atom -5568.775379 kJ/mol
# Density = 1.988302 g / cm^3
# Si number density = 19.928374 Si / 1000 Ang^3
#
#
#
# Elastic Constant Matrix: (Units=GPa)
#
#
# Indices 1 2 3 4 5 6 
#
# 1 124.9849 53.0232 51.1339 0.0000 0.0000 0.0000
# 2 53.0232 217.1199 68.4709 0.0000 0.0000 0.0000
# 3 51.1339 68.4709 149.2455 0.0000 0.0000 0.0000
# 4 0.0000 0.0000 0.0000 132.1623 0.0000 0.0000
# 5 0.0000 0.0000 0.0000 0.0000 35.2886 0.0000
# 6 0.0000 0.0000 0.0000 0.0000 0.0000 37.1430
#
#
#
# Elastic Compliance Matrix: (Units=1/GPa)
#
#
# Indices 1 2 3 4 5 6 
#
# 1 0.009731 -0.001549 -0.002623 0.000000 0.000000 0.000000
# 2 -0.001549 0.005631 -0.002053 0.000000 0.000000 0.000000
# 3 -0.002623 -0.002053 0.008541 0.000000 0.000000 0.000000
# 4 0.000000 0.000000 0.000000 0.007566 0.000000 0.000000
# 5 0.000000 0.000000 0.000000 0.000000 0.028338 0.000000
# 6 0.000000 0.000000 0.000000 0.000000 0.000000 0.026923
#
#
# Mechanical properties :
#
#
# Convention : Reuss Voigt Hill
#
# Bulk Modulus (GPa) = 87.31309 92.95627 90.13468
# Shear Modulus (GPa) = 48.54384 62.16694 55.35539
#
# Velocity S-wave (km/s) = 4.94085 5.59132 5.27612
# Velocity P-wave (km/s) = 8.74402 9.40374 9.07988
#
# Compressibility (1/GPa) = 0.01145304
#
# Stress axis : x y z
#
# Youngs Moduli (GPa) = 102.75914 177.57372 117.08255
#
# Poissons Ratio (x) = 0.27510 0.30716
# Poissons Ratio (y) = 0.15920 0.24035
# Poissons Ratio (z) = 0.26958 0.36453
#
# Static dielectric constant tensor:
#      x y z
#    x 1.825810 0.000000 0.000000 
#    y 0.000000 1.627170 0.000000 
#    z 0.000000 0.000000 1.740680 
# 
# From -- ./inp_files/33299.got.cif
#   From: 2010.05.17/outbox.cif.g08.bks.cpg/sg65_17_cif.got.tgz:33299.got - 2010.06.03 17:01:31.
