data_PCOD9489269
_publ_section_title
;
Structure prediction by ZEFSAII (Michael W. Deem and Ramdas Pophale) SiO2 
 PCOD9489269
Probable space group: C M M M
;
_chemical_formula_sum "Si O2"
_cell_formula_units_Z 88
_cell_length_a 17.149779
_cell_length_b 31.127734
_cell_length_c 7.383212
_cell_angle_alpha 90.000000
_cell_angle_beta 90.000000
_cell_angle_gamma 90.000000
_cell_volume 3941.407814
_symmetry_space_group_name_H-M "C M M M"
_symmetry_group_IT_number 65
_symmetry_cell_setting 'orthorhombic'
loop_
_space_group_symop_operation_xyz
x,y,z
-x,-y,z
x,-y,-z
-x,y,-z
-x,-y,-z
x,y,-z
-x,y,z
x,-y,z
1/2+x,1/2+y,z
1/2-x,1/2-y,z
1/2+x,1/2-y,-z
1/2-x,1/2+y,-z
1/2-x,1/2-y,-z
1/2+x,1/2+y,-z
1/2-x,1/2+y,z
1/2+x,1/2-y,z
loop_
_atom_site_type_symbol
_atom_site_label
_atom_site_fract_x
_atom_site_fract_y
_atom_site_fract_z
Si Si1 0.000000 0.860662 0.783370
Si Si2 0.090716 0.000000 0.722773
Si Si3 0.500000 0.739342 0.219889
Si Si4 0.189342 0.630264 0.279950
Si Si5 0.831277 0.729652 0.791022
Si Si6 0.909164 0.452616 0.280060
Si Si7 0.154565 0.911220 0.707671
O O1 0.000000 0.810908 0.737800
O O2 0.076233 0.883978 0.711640
O O3 0.000000 0.864858 0.000000
O O4 0.133998 0.042612 0.786935
O O5 0.089751 0.000000 0.500000
O O6 0.000000 0.000000 0.776900
O O7 0.416431 0.757509 0.286032
O O8 0.500000 0.745412 0.000000
O O9 0.185939 0.632935 0.500000
O O10 0.171986 0.678071 0.214534
O O11 0.134423 0.590595 0.221903
O O12 0.275081 0.616235 0.216119
O O13 0.750000 0.750000 0.714321
O O14 0.832765 0.744817 0.000000
O O15 0.905532 0.452696 0.500000
O O16 0.878613 0.500000 0.222404
O O17 0.000000 0.450409 0.229081
O O18 0.177787 0.919960 0.500000
#
# Coordination Sequence:
#
# PCOD9489269 Si02
#       7
#     8   8   8  16  16  16  16
#     4  11  21  36  58  79 102 135 181 224 267 318
#     4   9  16  30  52  74 103 145 184 213 252 318
#     4   9  20  37  58  80 100 137 186 223 269 338
#     4  10  21  33  54  85 112 139 178 225 271 316
#     4  10  21  39  59  77 105 144 185 227 276 335
#     4   8  15  29  49  76 111 144 173 211 261 316
#     4  10  20  34  52  78 111 144 178 217 263 315
#
# _framework density 22.327048999999999
#
# number of rings (size 3 to 8) (size 9 to 14) (size 15 to 20)
#    0.000    2.455    0.909    1.909    2.545    2.545 
#    0.000    2.727    0.000    0.545    0.000    1.273 
#    0.000    0.000    0.000    0.000    0.000    0.000 
#
# Total GULP energy -245601.404008 kJ/mol
# GULP energy per Si atom -5581.850091 kJ/mol
# Density = 2.227623 g / cm^3
# Si number density = 22.327049 Si / 1000 Ang^3
#
#
#
# Elastic Constant Matrix: (Units=GPa)
#
#
# Indices 1 2 3 4 5 6 
#
# 1 150.9851 82.4014 -3.2011 0.0000 0.0000 0.0000
# 2 82.4014 163.7902 -9.3197 0.0000 0.0000 0.0000
# 3 -3.2011 -9.3197 76.0024 0.0000 0.0000 0.0000
# 4 0.0000 0.0000 0.0000 16.8329 0.0000 0.0000
# 5 0.0000 0.0000 0.0000 0.0000 -12.2707 0.0000
# 6 0.0000 0.0000 0.0000 0.0000 0.0000 62.1738
#
#
#
# Elastic Compliance Matrix: (Units=1/GPa)
#
#
# Indices 1 2 3 4 5 6 
#
# 1 0.009132 -0.004605 -0.000180 0.000000 0.000000 0.000000
# 2 -0.004605 0.008470 0.000845 0.000000 0.000000 0.000000
# 3 -0.000180 0.000845 0.013253 0.000000 0.000000 0.000000
# 4 0.000000 0.000000 0.000000 0.059407 0.000000 0.000000
# 5 0.000000 0.000000 0.000000 0.000000 -0.081495 0.000000
# 6 0.000000 0.000000 0.000000 0.000000 0.000000 0.016084
#
#
# Mechanical properties :
#
#
# Convention : Reuss Voigt Hill
#
# Bulk Modulus (GPa) = 43.52387 58.94875 51.23631
# Shear Modulus (GPa) = 123.79095 34.74035 79.26565
#
# Velocity S-wave (km/s) = 7.45418 3.94887 5.96483
# Velocity P-wave (km/s) = 9.67587 6.87394 8.39266
#
# Compressibility (1/GPa) = 0.02297590
#
# Stress axis : x y z
#
# Youngs Moduli (GPa) = 109.50035 118.06374 75.45193
#
# Poissons Ratio (x) = 0.54364 0.01358
# Poissons Ratio (y) = 0.50421 -0.06373
# Poissons Ratio (z) = 0.01971 -0.09973
#
# Static dielectric constant tensor:
#      x y z
#    x 1.804060 0.000000 0.000000 
#    y 0.000000 1.775190 0.000000 
#    z 0.000000 0.000000 1.908730 
# 
# From -- ./inp_files/10222.got.cif
#   From: 2010.05.17/outbox.cif.g08.bks.cpg/sg65_6_cif.got.tgz:10222.got - 2010.06.03 17:01:31.
