data_PCOD9489168
_publ_section_title
;
Structure prediction by ZEFSAII (Michael W. Deem and Ramdas Pophale) SiO2 
 PCOD9489168
Probable space group: C M M M
;
_chemical_formula_sum "Si O2"
_cell_formula_units_Z 104
_cell_length_a 8.773569
_cell_length_b 31.156534
_cell_length_c 23.735451
_cell_angle_alpha 90.000000
_cell_angle_beta 90.000000
_cell_angle_gamma 90.000000
_cell_volume 6488.180493
_symmetry_space_group_name_H-M "C M M M"
_symmetry_group_IT_number 65
_symmetry_cell_setting 'orthorhombic'
loop_
_space_group_symop_operation_xyz
x,y,z
-x,-y,z
x,-y,-z
-x,y,-z
-x,-y,-z
x,y,-z
-x,y,z
x,-y,z
1/2+x,1/2+y,z
1/2-x,1/2-y,z
1/2+x,1/2-y,-z
1/2-x,1/2+y,-z
1/2-x,1/2-y,-z
1/2+x,1/2+y,-z
1/2-x,1/2+y,z
1/2+x,1/2-y,z
loop_
_atom_site_type_symbol
_atom_site_label
_atom_site_fract_x
_atom_site_fract_y
_atom_site_fract_z
Si Si1 0.672173 0.500000 0.432859
Si Si2 0.818417 0.176583 0.437436
Si Si3 0.816917 0.705026 0.319018
Si Si4 0.322626 0.884761 0.727165
Si Si5 0.320610 0.551966 0.939469
Si Si6 0.684319 0.450228 0.815575
Si Si7 0.676382 0.089248 0.403126
O O1 0.500000 0.500000 0.409413
O O2 0.662797 0.500000 0.500000
O O3 0.760403 0.457440 0.415500
O O4 0.771274 0.191823 0.500000
O O5 0.737738 0.197736 0.383573
O O6 0.775215 0.126309 0.432324
O O7 0.000000 0.182118 0.432174
O O8 0.750000 0.750000 0.299027
O O9 0.765992 0.664208 0.281429
O O10 0.000000 0.705411 0.319109
O O11 0.500000 0.883200 0.744206
O O12 0.236911 0.916445 0.769109
O O13 0.315891 0.903105 0.663797
O O14 0.500000 0.563760 0.939997
O O15 0.315474 0.500000 0.939403
O O16 0.258611 0.563914 0.878003
O O17 0.254124 0.566384 0.000000
O O18 0.500000 0.450970 0.817418
O O19 0.732843 0.500000 0.804656
O O20 0.500000 0.093751 0.420672
#
# Coordination Sequence:
#
# PCOD9489168 Si02
#       7
#     8  16  16  16  16  16  16
#     4  11  23  35  47  65  87 113 150 195 240 283
#     4  10  20  34  52  73  95 117 143 180 229 283
#     4  10  21  37  55  73  92 118 152 189 235 288
#     4   9  20  35  48  66  93 123 152 186 232 280
#     4   7  10  19  36  59  90 125 159 196 231 259
#     4   9  17  27  43  70  97 126 166 200 226 262
#     4  10  21  35  49  65  87 119 156 192 232 279
#
# _framework density 16.029146999999998
#
# number of rings (size 3 to 8) (size 9 to 14) (size 15 to 20)
#    0.000    2.692    0.000    4.385    1.077    8.000 
#    0.000    0.000    0.000    0.462    0.000    2.154 
#    0.000    0.615    0.000    1.385    0.000    2.154 
#
# Total GULP energy -289659.653315 kJ/mol
# GULP energy per Si atom -5570.377948 kJ/mol
# Density = 1.599266 g / cm^3
# Si number density = 16.029147 Si / 1000 Ang^3
#
#
#
# Elastic Constant Matrix: (Units=GPa)
#
#
# Indices 1 2 3 4 5 6 
#
# 1 31.3610 18.4823 22.3112 0.0000 0.0000 0.0000
# 2 18.4823 97.5307 37.7592 0.0000 0.0000 0.0000
# 3 22.3112 37.7592 81.8218 0.0000 0.0000 0.0000
# 4 0.0000 0.0000 0.0000 8.4583 0.0000 0.0000
# 5 0.0000 0.0000 0.0000 0.0000 201.8991 0.0000
# 6 0.0000 0.0000 0.0000 0.0000 0.0000 47.8975
#
#
#
# Elastic Compliance Matrix: (Units=1/GPa)
#
#
# Indices 1 2 3 4 5 6 
#
# 1 0.040916 -0.004181 -0.009227 0.000000 0.000000 0.000000
# 2 -0.004181 0.012911 -0.004818 0.000000 0.000000 0.000000
# 3 -0.009227 -0.004818 0.016961 0.000000 0.000000 0.000000
# 4 0.000000 0.000000 0.000000 0.118227 0.000000 0.000000
# 5 0.000000 0.000000 0.000000 0.000000 0.004953 0.000000
# 6 0.000000 0.000000 0.000000 0.000000 0.000000 0.020878
#
#
# Mechanical properties :
#
#
# Convention : Reuss Voigt Hill
#
# Bulk Modulus (GPa) = 29.12518 40.86877 34.99697
# Shear Modulus (GPa) = 19.02996 60.46169 39.74583
#
# Velocity S-wave (km/s) = 3.44933 6.14831 4.98496
# Velocity P-wave (km/s) = 5.83724 8.71517 7.41713
#
# Compressibility (1/GPa) = 0.03433455
#
# Stress axis : x y z
#
# Youngs Moduli (GPa) = 24.44059 77.45443 58.95811
#
# Poissons Ratio (x) = 0.32385 0.54403
# Poissons Ratio (y) = 0.10219 0.28406
# Poissons Ratio (z) = 0.22552 0.37317
#
# Static dielectric constant tensor:
#      x y z
#    x 1.549730 0.000000 0.000000 
#    y 0.000000 1.517770 0.000000 
#    z 0.000000 0.000000 1.559030 
# 
# From -- ./inp_files/68576.got.cif
#   From: 2010.05.17/outbox.cif.g08.bks.cpg/sg65_35_cif.got.tgz:68576.got - 2010.06.03 17:01:31.
