data_PCOD9489809
_publ_section_title
;
Structure prediction by ZEFSAII (Michael W. Deem and Ramdas Pophale) SiO2 
 PCOD9489809
Probable space group: C M M M
;
_chemical_formula_sum "Si O2"
_cell_formula_units_Z 72
_cell_length_a 29.250914
_cell_length_b 8.465830
_cell_length_c 16.216690
_cell_angle_alpha 90.000000
_cell_angle_beta 90.000000
_cell_angle_gamma 90.000000
_cell_volume 4015.791897
_symmetry_space_group_name_H-M "C M M M"
_symmetry_group_IT_number 65
_symmetry_cell_setting 'orthorhombic'
loop_
_space_group_symop_operation_xyz
x,y,z
-x,-y,z
x,-y,-z
-x,y,-z
-x,-y,-z
x,y,-z
-x,y,z
x,-y,z
1/2+x,1/2+y,z
1/2-x,1/2-y,z
1/2+x,1/2-y,-z
1/2-x,1/2+y,-z
1/2-x,1/2-y,-z
1/2+x,1/2+y,-z
1/2-x,1/2+y,z
1/2+x,1/2-y,z
loop_
_atom_site_type_symbol
_atom_site_label
_atom_site_fract_x
_atom_site_fract_y
_atom_site_fract_z
Si Si1 0.301659 0.189137 0.680691
Si Si2 0.945848 0.309891 0.592536
Si Si3 0.447150 0.307413 0.092341
Si Si4 0.197921 0.690355 0.500000
Si Si5 0.890597 0.811343 0.249634
O O1 0.250000 0.250000 0.692077
O O2 0.319539 0.242345 0.589293
O O3 0.338914 0.250442 0.744082
O O4 0.300488 0.000000 0.681514
O O5 0.931239 0.258011 0.500000
O O6 0.940788 0.500000 0.594487
O O7 0.918264 0.241239 0.669005
O O8 0.000000 0.274051 0.600681
O O9 0.500000 0.260743 0.105157
O O10 0.446370 0.500000 0.092979
O O11 0.416099 0.251768 0.167543
O O12 0.433144 0.257548 0.000000
O O13 0.196180 0.500000 0.500000
O O14 0.250000 0.750000 0.500000
O O15 0.890135 0.000000 0.247568
#
# Coordination Sequence:
#
# PCOD9489809 Si02
#       5
#    16  16  16   8  16
#     4  10  20  35  52  72 100 136 175 216 259 305
#     4   9  19  35  51  68  98 141 180 210 247 300
#     4   8  15  30  52  77 105 135 167 207 256 308
#     4   8  16  30  48  66  87 122 165 206 246 289
#     4  11  21  31  50  80 106 132 169 214 260 309
#
# _framework density 17.929217000000001
#
# number of rings (size 3 to 8) (size 9 to 14) (size 15 to 20)
#    0.000    2.667    0.000    3.333    1.556    2.667 
#    0.000    1.111    0.000    3.333    0.000    7.778 
#    0.000    0.000    0.000    0.000    0.000    0.000 
#
# Total GULP energy -200703.440254 kJ/mol
# GULP energy per Si atom -5575.095563 kJ/mol
# Density = 1.788841 g / cm^3
# Si number density = 17.929217 Si / 1000 Ang^3
#
#
#
# Elastic Constant Matrix: (Units=GPa)
#
#
# Indices 1 2 3 4 5 6 
#
# 1 105.4646 26.9782 98.0132 0.0000 0.0000 0.0000
# 2 26.9782 19.0066 24.6636 0.0000 0.0000 0.0000
# 3 98.0132 24.6636 151.2269 0.0000 0.0000 0.0000
# 4 0.0000 0.0000 0.0000 4.8068 0.0000 0.0000
# 5 0.0000 0.0000 0.0000 0.0000 28.4996 0.0000
# 6 0.0000 0.0000 0.0000 0.0000 0.0000 27.0184
#
#
#
# Elastic Compliance Matrix: (Units=1/GPa)
#
#
# Indices 1 2 3 4 5 6 
#
# 1 0.029520 -0.021658 -0.015601 0.000000 0.000000 0.000000
# 2 -0.021658 0.082626 0.000561 0.000000 0.000000 0.000000
# 3 -0.015601 0.000561 0.016632 0.000000 0.000000 0.000000
# 4 0.000000 0.000000 0.000000 0.208037 0.000000 0.000000
# 5 0.000000 0.000000 0.000000 0.000000 0.035088 0.000000
# 6 0.000000 0.000000 0.000000 0.000000 0.000000 0.037012
#
#
# Mechanical properties :
#
#
# Convention : Reuss Voigt Hill
#
# Bulk Modulus (GPa) = 18.05560 63.88979 40.97269
# Shear Modulus (GPa) = 9.98462 20.46783 15.22623
#
# Velocity S-wave (km/s) = 2.36241 3.38241 2.91734
# Velocity P-wave (km/s) = 4.18732 7.13905 5.85234
#
# Compressibility (1/GPa) = 0.05538448
#
# Stress axis : x y z
#
# Youngs Moduli (GPa) = 33.87506 12.10276 60.12477
#
# Poissons Ratio (x) = 0.26212 0.93798
# Poissons Ratio (y) = 0.73365 -0.03374
# Poissons Ratio (z) = 0.52847 -0.00679
#
# Static dielectric constant tensor:
#      x y z
#    x 1.608160 0.000000 0.000000 
#    y 0.000000 1.628840 0.000000 
#    z 0.000000 0.000000 1.633810 
# 
# From -- ./inp_files/36959.got.cif
#   From: 2010.05.17/outbox.cif.g08.bks.cpg/sg65_19_cif.got.tgz:36959.got - 2010.06.03 17:01:31.
