data_PCOD9489959
_publ_section_title
;
Structure prediction by ZEFSAII (Michael W. Deem and Ramdas Pophale) SiO2 
 PCOD9489959
Probable space group: C M M M
;
_chemical_formula_sum "Si O2"
_cell_formula_units_Z 104
_cell_length_a 8.857626
_cell_length_b 20.319659
_cell_length_c 33.817808
_cell_angle_alpha 90.000000
_cell_angle_beta 90.000000
_cell_angle_gamma 90.000000
_cell_volume 6086.662322
_symmetry_space_group_name_H-M "C M M M"
_symmetry_group_IT_number 65
_symmetry_cell_setting 'orthorhombic'
loop_
_space_group_symop_operation_xyz
x,y,z
-x,-y,z
x,-y,-z
-x,y,-z
-x,-y,-z
x,y,-z
-x,y,z
x,-y,z
1/2+x,1/2+y,z
1/2-x,1/2-y,z
1/2+x,1/2-y,-z
1/2-x,1/2+y,-z
1/2-x,1/2-y,-z
1/2+x,1/2+y,-z
1/2-x,1/2+y,z
1/2+x,1/2-y,z
loop_
_atom_site_type_symbol
_atom_site_label
_atom_site_fract_x
_atom_site_fract_y
_atom_site_fract_z
Si Si1 0.682108 0.178581 0.545203
Si Si2 0.818202 0.576324 0.387514
Si Si3 0.819511 0.923049 0.302267
Si Si4 0.681792 0.821085 0.149244
Si Si5 0.818878 0.321575 0.240590
Si Si6 0.817907 0.423742 0.082685
Si Si7 0.826158 0.079923 0.000000
O O1 0.725868 0.161500 0.500000
O O2 0.500000 0.182817 0.546277
O O3 0.750000 0.250000 0.554404
O O4 0.729119 0.124382 0.577151
O O5 0.782037 0.500000 0.396429
O O6 0.741831 0.593790 0.345916
O O7 0.000000 0.581021 0.383085
O O8 0.745569 0.876147 0.269873
O O9 0.000000 0.916379 0.301374
O O10 0.781249 0.000000 0.295114
O O11 0.500000 0.816739 0.147447
O O12 0.750000 0.750000 0.139342
O O13 0.722111 0.836524 0.194801
O O14 0.731191 0.876849 0.118438
O O15 0.750000 0.250000 0.250018
O O16 0.000000 0.318792 0.243573
O O17 0.771324 0.500000 0.088850
O O18 0.000000 0.422943 0.080846
O O19 0.754319 0.399930 0.040574
O O20 0.000000 0.100566 0.000000
O O21 0.820818 0.000000 0.000000
#
# Coordination Sequence:
#
# PCOD9489959 Si02
#       7
#    16  16  16  16  16  16   8
#     4   9  18  32  50  73 100 129 162 202 247 294
#     4   9  18  33  52  73  98 130 167 205 247 295
#     4  10  21  36  53  75 104 135 168 209 254 299
#     4   9  19  34  52  74 100 130 162 200 245 293
#     4  10  20  35  55  77 102 133 169 208 251 301
#     4   9  17  31  51  73  97 127 163 200 240 288
#     4   9  17  29  46  71 100 127 159 201 246 287
#
# _framework density 17.086538999999998
#
# number of rings (size 3 to 8) (size 9 to 14) (size 15 to 20)
#    0.000    2.692    0.000    1.154    0.000    5.231 
#    0.000    5.000    0.000    1.846    0.000    4.308 
#    0.000    0.000    0.000    0.000    0.000    0.000 
#
# Total GULP energy -289959.543001 kJ/mol
# GULP energy per Si atom -5576.145058 kJ/mol
# Density = 1.704765 g / cm^3
# Si number density = 17.086539 Si / 1000 Ang^3
#
#
#
# Elastic Constant Matrix: (Units=GPa)
#
#
# Indices 1 2 3 4 5 6 
#
# 1 27.3382 39.7917 46.6887 0.0000 0.0000 0.0000
# 2 39.7917 112.1856 118.3598 0.0000 0.0000 0.0000
# 3 46.6887 118.3598 156.6186 0.0000 0.0000 0.0000
# 4 0.0000 0.0000 0.0000 318.0655 0.0000 0.0000
# 5 0.0000 0.0000 0.0000 0.0000 19.7833 0.0000
# 6 0.0000 0.0000 0.0000 0.0000 0.0000 27.0936
#
#
#
# Elastic Compliance Matrix: (Units=1/GPa)
#
#
# Indices 1 2 3 4 5 6 
#
# 1 0.079832 -0.015827 -0.011837 0.000000 0.000000 0.000000
# 2 -0.015827 0.047116 -0.030888 0.000000 0.000000 0.000000
# 3 -0.011837 -0.030888 0.033256 0.000000 0.000000 0.000000
# 4 0.000000 0.000000 0.000000 0.003144 0.000000 0.000000
# 5 0.000000 0.000000 0.000000 0.000000 0.050548 0.000000
# 6 0.000000 0.000000 0.000000 0.000000 0.000000 0.036909
#
#
# Mechanical properties :
#
#
# Convention : Reuss Voigt Hill
#
# Bulk Modulus (GPa) = 23.20254 78.42477 50.81365
# Shear Modulus (GPa) = 13.07956 79.07530 46.07743
#
# Velocity S-wave (km/s) = 2.76975 6.81027 5.19862
# Velocity P-wave (km/s) = 4.88237 10.38450 8.11405
#
# Compressibility (1/GPa) = 0.04309874
#
# Stress axis : x y z
#
# Youngs Moduli (GPa) = 12.52633 21.22439 30.06946
#
# Poissons Ratio (x) = 0.33592 0.35594
# Poissons Ratio (y) = 0.19826 0.92879
# Poissons Ratio (z) = 0.14828 0.65558
#
# Static dielectric constant tensor:
#      x y z
#    x 1.573800 0.000000 0.000000 
#    y 0.000000 1.556180 0.000000 
#    z 0.000000 0.000000 1.565710 
# 
# From -- ./inp_files/76879.got.cif
#   From: 2010.05.17/outbox.cif.g08.bks.cpg/sg65_39_cif.got.tgz:76879.got - 2010.06.03 17:01:31.
