data_PCOD9489573
_publ_section_title
;
Structure prediction by ZEFSAII (Michael W. Deem and Ramdas Pophale) SiO2 
 PCOD9489573
Probable space group: C M M M
;
_chemical_formula_sum "Si O2"
_cell_formula_units_Z 88
_cell_length_a 10.053217
_cell_length_b 26.438620
_cell_length_c 19.933438
_cell_angle_alpha 90.000000
_cell_angle_beta 90.000000
_cell_angle_gamma 90.000000
_cell_volume 5298.171955
_symmetry_space_group_name_H-M "C M M M"
_symmetry_group_IT_number 65
_symmetry_cell_setting 'orthorhombic'
loop_
_space_group_symop_operation_xyz
x,y,z
-x,-y,z
x,-y,-z
-x,y,-z
-x,-y,-z
x,y,-z
-x,y,z
x,-y,z
1/2+x,1/2+y,z
1/2-x,1/2-y,z
1/2+x,1/2-y,-z
1/2-x,1/2+y,-z
1/2-x,1/2-y,-z
1/2+x,1/2+y,-z
1/2-x,1/2+y,z
1/2+x,1/2-y,z
loop_
_atom_site_type_symbol
_atom_site_label
_atom_site_fract_x
_atom_site_fract_y
_atom_site_fract_z
Si Si1 0.500000 0.940185 0.080230
Si Si2 0.249358 0.599813 0.841949
Si Si3 0.500000 0.560243 0.076716
Si Si4 0.154033 0.139094 0.364461
Si Si5 0.842519 0.440573 0.698427
Si Si6 0.655814 0.701599 0.500000
Si Si7 0.342248 0.299141 0.226592
O O1 0.625554 0.911201 0.110356
O O2 0.500000 0.000000 0.101089
O O3 0.500000 0.939457 0.000000
O O4 0.373887 0.577574 0.881125
O O5 0.216187 0.571551 0.772128
O O6 0.284540 0.657231 0.821940
O O7 0.500000 0.500000 0.072851
O O8 0.500000 0.579907 0.000000
O O9 0.257524 0.094103 0.351657
O O10 0.178426 0.168269 0.433567
O O11 0.167290 0.177602 0.301732
O O12 0.000000 0.120954 0.363827
O O13 0.829158 0.500000 0.684279
O O14 0.000000 0.427754 0.698049
O O15 0.500000 0.716896 0.500000
O O16 0.750000 0.750000 0.500000
O O17 0.500000 0.289931 0.213416
O O18 0.250000 0.250000 0.221547
#
# Coordination Sequence:
#
# PCOD9489573 Si02
#       7
#     8  16   8  16  16   8  16
#     4  11  22  36  57  85 115 146 180 221 276 337
#     4  11  21  37  55  84 114 144 185 231 276 332
#     4  11  22  36  57  83 113 148 180 221 280 341
#     4   9  20  36  54  83 113 142 182 226 273 330
#     4  10  20  34  54  80 111 146 186 228 272 323
#     4  10  20  36  57  82 113 145 180 225 279 332
#     4  10  21  36  57  82 108 141 185 231 276 321
#
# _framework density 16.609503
#
# number of rings (size 3 to 8) (size 9 to 14) (size 15 to 20)
#    0.000    1.818    1.818    2.727    2.545    3.273 
#    0.000    0.455    0.000    6.000    0.000    0.000 
#    0.000    0.000    0.000    0.000    0.000    0.000 
#
# Total GULP energy -245498.682201 kJ/mol
# GULP energy per Si atom -5579.515505 kJ/mol
# Density = 1.657170 g / cm^3
# Si number density = 16.609503 Si / 1000 Ang^3
#
#
#
# Elastic Constant Matrix: (Units=GPa)
#
#
# Indices 1 2 3 4 5 6 
#
# 1 177.6262 97.4814 76.0585 0.0000 0.0000 0.0000
# 2 97.4814 123.5925 60.0000 0.0000 0.0000 0.0000
# 3 76.0585 60.0000 101.9076 0.0000 0.0000 0.0000
# 4 0.0000 0.0000 0.0000 14.4533 0.0000 0.0000
# 5 0.0000 0.0000 0.0000 0.0000 31.7121 0.0000
# 6 0.0000 0.0000 0.0000 0.0000 0.0000 33.8009
#
#
#
# Elastic Compliance Matrix: (Units=1/GPa)
#
#
# Indices 1 2 3 4 5 6 
#
# 1 0.011186 -0.006679 -0.004417 0.000000 0.000000 0.000000
# 2 -0.006679 0.015317 -0.004033 0.000000 0.000000 0.000000
# 3 -0.004417 -0.004033 0.015484 0.000000 0.000000 0.000000
# 4 0.000000 0.000000 0.000000 0.069188 0.000000 0.000000
# 5 0.000000 0.000000 0.000000 0.000000 0.031534 0.000000
# 6 0.000000 0.000000 0.000000 0.000000 0.000000 0.029585
#
#
# Mechanical properties :
#
#
# Convention : Reuss Voigt Hill
#
# Bulk Modulus (GPa) = 85.25535 96.68955 90.97245
# Shear Modulus (GPa) = 24.21755 27.29902 25.75829
#
# Velocity S-wave (km/s) = 3.82259 4.05851 3.94231
# Velocity P-wave (km/s) = 8.42162 8.96112 8.69555
#
# Compressibility (1/GPa) = 0.01172947
#
# Stress axis : x y z
#
# Youngs Moduli (GPa) = 89.39466 65.28651 64.58342
#
# Poissons Ratio (x) = 0.43605 0.28524
# Poissons Ratio (y) = 0.59706 0.26049
# Poissons Ratio (z) = 0.39482 0.26333
#
# Static dielectric constant tensor:
#      x y z
#    x 1.803880 0.000000 0.000000 
#    y 0.000000 1.536060 0.000000 
#    z 0.000000 0.000000 1.546410 
# 
# From -- ./inp_files/59851.got.cif
#   From: 2010.05.17/outbox.cif.g08.bks.cpg/sg65_30_cif.got.tgz:59851.got - 2010.06.03 17:01:31.
