data_PCOD9489969
_publ_section_title
;
Structure prediction by ZEFSAII (Michael W. Deem and Ramdas Pophale) SiO2 
 PCOD9489969
Probable space group: C M M M
;
_chemical_formula_sum "Si O2"
_cell_formula_units_Z 112
_cell_length_a 17.791195
_cell_length_b 22.751200
_cell_length_c 14.821332
_cell_angle_alpha 90.000000
_cell_angle_beta 90.000000
_cell_angle_gamma 90.000000
_cell_volume 5999.245904
_symmetry_space_group_name_H-M "C M M M"
_symmetry_group_IT_number 65
_symmetry_cell_setting 'orthorhombic'
loop_
_space_group_symop_operation_xyz
x,y,z
-x,-y,z
x,-y,-z
-x,y,-z
-x,-y,-z
x,y,-z
-x,y,z
x,-y,z
1/2+x,1/2+y,z
1/2-x,1/2-y,z
1/2+x,1/2-y,-z
1/2-x,1/2+y,-z
1/2-x,1/2-y,-z
1/2+x,1/2+y,-z
1/2-x,1/2+y,z
1/2+x,1/2-y,z
loop_
_atom_site_type_symbol
_atom_site_label
_atom_site_fract_x
_atom_site_fract_y
_atom_site_fract_z
Si Si1 0.815620 0.069397 0.601965
Si Si2 0.359354 0.898596 0.397241
Si Si3 0.086928 0.845135 0.282912
Si Si4 0.147417 0.196964 0.894640
Si Si5 0.411091 0.232041 0.396003
Si Si6 0.587046 0.066794 0.791562
Si Si7 0.176936 0.667850 0.106189
O O1 0.838356 0.087487 0.500000
O O2 0.727141 0.082530 0.610435
O O3 0.862185 0.104437 0.675453
O O4 0.827118 0.000000 0.610437
O O5 0.385003 0.911621 0.500000
O O6 0.367109 0.828498 0.383890
O O7 0.404471 0.928229 0.316542
O O8 0.097096 0.837038 0.176572
O O9 0.111700 0.783941 0.329776
O O10 0.000000 0.854548 0.306644
O O11 0.142824 0.267188 0.877192
O O12 0.233759 0.176460 0.879130
O O13 0.129983 0.187405 0.000000
O O14 0.401791 0.251234 0.500000
O O15 0.500000 0.219390 0.381987
O O16 0.500000 0.077275 0.816250
O O17 0.639402 0.116719 0.835382
O O18 0.607504 0.000000 0.818675
O O19 0.166041 0.654715 0.000000
#
# Coordination Sequence:
#
# PCOD9489969 Si02
#       7
#    16  16  16  16  16  16  16
#     4  10  22  39  58  80 105 139 187 233 269 314
#     4  10  20  35  55  77 107 147 186 226 270 314
#     4  11  22  35  55  82 112 143 174 218 276 330
#     4   9  19  36  59  85 107 134 177 224 274 331
#     4   9  18  32  51  79 113 145 178 216 263 321
#     4  11  23  35  51  80 115 151 189 221 254 309
#     4   9  19  38  60  79 106 143 181 226 274 316
#
# _framework density 18.669014000000001
#
# number of rings (size 3 to 8) (size 9 to 14) (size 15 to 20)
#    0.000    2.143    0.000    3.857    0.000    7.143 
#    0.000    5.714    0.000    1.286    0.000    1.000 
#    0.000    0.000    0.000    0.000    0.000    0.000 
#
# Total GULP energy -312685.455804 kJ/mol
# GULP energy per Si atom -5583.668854 kJ/mol
# Density = 1.862652 g / cm^3
# Si number density = 18.669014 Si / 1000 Ang^3
#
#
#
# Elastic Constant Matrix: (Units=GPa)
#
#
# Indices 1 2 3 4 5 6 
#
# 1 18.9456 30.1299 26.9365 0.0000 0.0000 0.0000
# 2 30.1299 90.3919 54.0091 0.0000 0.0000 0.0000
# 3 26.9365 54.0091 70.4629 0.0000 0.0000 0.0000
# 4 0.0000 0.0000 0.0000 20.7141 0.0000 0.0000
# 5 0.0000 0.0000 0.0000 0.0000 15.7195 0.0000
# 6 0.0000 0.0000 0.0000 0.0000 0.0000 24.2607
#
#
#
# Elastic Compliance Matrix: (Units=1/GPa)
#
#
# Indices 1 2 3 4 5 6 
#
# 1 0.146782 -0.028411 -0.034335 0.000000 0.000000 0.000000
# 2 -0.028411 0.025910 -0.008999 0.000000 0.000000 0.000000
# 3 -0.034335 -0.008999 0.034215 0.000000 0.000000 0.000000
# 4 0.000000 0.000000 0.000000 0.048276 0.000000 0.000000
# 5 0.000000 0.000000 0.000000 0.000000 0.063615 0.000000
# 6 0.000000 0.000000 0.000000 0.000000 0.000000 0.041219
#
#
# Mechanical properties :
#
#
# Convention : Reuss Voigt Hill
#
# Bulk Modulus (GPa) = 15.76851 44.66127 30.21489
# Shear Modulus (GPa) = 9.53024 16.72052 13.12538
#
# Velocity S-wave (km/s) = 2.26184 2.99595 2.65440
# Velocity P-wave (km/s) = 3.90972 5.99519 5.06104
#
# Compressibility (1/GPa) = 0.06341752
#
# Stress axis : x y z
#
# Youngs Moduli (GPa) = 6.81280 38.59557 29.22723
#
# Poissons Ratio (x) = 1.09654 1.00352
# Poissons Ratio (y) = 0.19356 0.26300
# Poissons Ratio (z) = 0.23392 0.34730
#
# Static dielectric constant tensor:
#      x y z
#    x 1.624400 0.000000 0.000000 
#    y 0.000000 1.626690 0.000000 
#    z 0.000000 0.000000 1.659510 
# 
# From -- ./inp_files/40763.got.cif
#   From: 2010.05.17/outbox.cif.g08.bks.cpg/sg65_21_cif.got.tgz:40763.got - 2010.06.03 17:01:31.
