data_PCOD9489333
_publ_section_title
;
Structure prediction by ZEFSAII (Michael W. Deem and Ramdas Pophale) SiO2 
 PCOD9489333
Probable space group: C M M M
;
_chemical_formula_sum "Si O2"
_cell_formula_units_Z 104
_cell_length_a 26.152302
_cell_length_b 20.306632
_cell_length_c 9.528519
_cell_angle_alpha 90.000000
_cell_angle_beta 90.000000
_cell_angle_gamma 90.000000
_cell_volume 5060.264588
_symmetry_space_group_name_H-M "C M M M"
_symmetry_group_IT_number 65
_symmetry_cell_setting 'orthorhombic'
loop_
_space_group_symop_operation_xyz
x,y,z
-x,-y,z
x,-y,-z
-x,y,-z
-x,-y,-z
x,y,-z
-x,y,z
x,-y,z
1/2+x,1/2+y,z
1/2-x,1/2-y,z
1/2+x,1/2-y,-z
1/2-x,1/2+y,-z
1/2-x,1/2-y,-z
1/2+x,1/2+y,-z
1/2-x,1/2+y,z
1/2+x,1/2-y,z
loop_
_atom_site_type_symbol
_atom_site_label
_atom_site_fract_x
_atom_site_fract_y
_atom_site_fract_z
Si Si1 0.809166 0.896087 0.834842
Si Si2 0.909023 0.071076 0.331912
Si Si3 0.404404 0.077521 0.657212
Si Si4 0.500000 0.919041 0.160910
Si Si5 0.153322 0.250383 0.159970
Si Si6 0.556418 0.283270 0.331332
Si Si7 0.694075 0.107174 0.163860
O O1 0.853861 0.926208 0.742025
O O2 0.816333 0.817323 0.818128
O O3 0.751189 0.914449 0.797700
O O4 0.816633 0.911439 0.000000
O O5 0.902929 0.073385 0.500000
O O6 0.937581 0.138712 0.293272
O O7 0.933277 0.000000 0.297047
O O8 0.403938 0.106381 0.500000
O O9 0.449791 0.103499 0.755328
O O10 0.350490 0.082638 0.735599
O O11 0.415350 0.000000 0.642920
O O12 0.500000 0.000000 0.156990
O O13 0.500000 0.896885 0.000000
O O14 0.104800 0.252117 0.262256
O O15 0.189094 0.313668 0.173148
O O16 0.133648 0.249430 0.000000
O O17 0.559418 0.278295 0.500000
O O18 0.500000 0.260696 0.286788
O O19 0.684736 0.088999 0.000000
#
# Coordination Sequence:
#
# PCOD9489333 Si02
#       7
#    16  16  16   8  16  16  16
#     4   9  18  33  53  74 100 133 169 212 259 303
#     4   9  18  32  50  74 104 137 173 211 253 304
#     4  10  21  36  53  75 104 135 166 204 252 302
#     4   9  17  33  57  77  95 125 163 201 242 291
#     4   9  18  34  54  75  99 130 169 213 259 306
#     4   9  18  33  52  74 102 136 172 211 256 305
#     4  10  20  34  53  77 101 131 172 213 253 304
#
# _framework density 20.552284
#
# number of rings (size 3 to 8) (size 9 to 14) (size 15 to 20)
#    0.000    2.692    0.000    1.154    0.000    6.462 
#    1.385    4.615    0.000    4.615    0.000    4.308 
#    0.000    0.000    0.000    0.000    0.000    0.000 
#
# Total GULP energy -290211.569283 kJ/mol
# GULP energy per Si atom -5580.991717 kJ/mol
# Density = 2.050551 g / cm^3
# Si number density = 20.552284 Si / 1000 Ang^3
#
#
#
# Elastic Constant Matrix: (Units=GPa)
#
#
# Indices 1 2 3 4 5 6 
#
# 1 121.1222 -10.0791 49.1008 0.0000 0.0000 0.0000
# 2 -10.0791 49.7804 -0.8998 0.0000 0.0000 0.0000
# 3 49.1008 -0.8998 64.9875 0.0000 0.0000 0.0000
# 4 0.0000 0.0000 0.0000 19.9552 0.0000 0.0000
# 5 0.0000 0.0000 0.0000 0.0000 36.0382 0.0000
# 6 0.0000 0.0000 0.0000 0.0000 0.0000 -14.5111
#
#
#
# Elastic Compliance Matrix: (Units=1/GPa)
#
#
# Indices 1 2 3 4 5 6 
#
# 1 0.012158 0.002296 -0.009154 0.000000 0.000000 0.000000
# 2 0.002296 0.020527 -0.001451 0.000000 0.000000 0.000000
# 3 -0.009154 -0.001451 0.022284 0.000000 0.000000 0.000000
# 4 0.000000 0.000000 0.000000 0.050112 0.000000 0.000000
# 5 0.000000 0.000000 0.000000 0.000000 0.027748 0.000000
# 6 0.000000 0.000000 0.000000 0.000000 0.000000 -0.068913
#
#
# Mechanical properties :
#
#
# Convention : Reuss Voigt Hill
#
# Bulk Modulus (GPa) = 26.07455 34.68156 30.37805
# Shear Modulus (GPa) = 53.58018 21.48099 37.53058
#
# Velocity S-wave (km/s) = 5.11144 3.23644 4.27793
# Velocity P-wave (km/s) = 6.89566 5.55675 6.26210
#
# Compressibility (1/GPa) = 0.03835158
#
# Stress axis : x y z
#
# Youngs Moduli (GPa) = 82.24935 48.71654 44.87552
#
# Poissons Ratio (x) = -0.11186 0.41080
# Poissons Ratio (y) = -0.18886 0.06510
# Poissons Ratio (z) = 0.75293 0.07067
#
# Static dielectric constant tensor:
#      x y z
#    x 1.686560 0.000000 0.000000 
#    y 0.000000 1.806000 0.000000 
#    z 0.000000 0.000000 1.696780 
# 
# From -- ./inp_files/14763.got.cif
#   From: 2010.05.17/outbox.cif.g08.bks.cpg/sg65_8_cif.got.tgz:14763.got - 2010.06.03 17:01:31.
