data_PCOD9489327
_publ_section_title
;
Structure prediction by ZEFSAII (Michael W. Deem and Ramdas Pophale) SiO2 
 PCOD9489327
Probable space group: C M M M
;
_chemical_formula_sum "Si O2"
_cell_formula_units_Z 56
_cell_length_a 8.752356
_cell_length_b 29.523158
_cell_length_c 13.059054
_cell_angle_alpha 90.000000
_cell_angle_beta 90.000000
_cell_angle_gamma 90.000000
_cell_volume 3374.422845
_symmetry_space_group_name_H-M "C M M M"
_symmetry_group_IT_number 65
_symmetry_cell_setting 'orthorhombic'
loop_
_space_group_symop_operation_xyz
x,y,z
-x,-y,z
x,-y,-z
-x,y,-z
-x,-y,-z
x,y,-z
-x,y,z
x,-y,z
1/2+x,1/2+y,z
1/2-x,1/2-y,z
1/2+x,1/2-y,-z
1/2-x,1/2+y,-z
1/2-x,1/2-y,-z
1/2+x,1/2+y,-z
1/2-x,1/2+y,z
1/2+x,1/2-y,z
loop_
_atom_site_type_symbol
_atom_site_label
_atom_site_fract_x
_atom_site_fract_y
_atom_site_fract_z
Si Si1 0.185959 0.052036 0.000000
Si Si2 0.316014 0.947627 0.381517
Si Si3 0.817253 0.298544 0.120115
Si Si4 0.816902 0.890247 0.801370
O O1 0.233883 0.078991 0.101605
O O2 0.000000 0.051268 0.000000
O O3 0.238776 0.000000 0.000000
O O4 0.275541 0.938328 0.500000
O O5 0.500000 0.944395 0.373168
O O6 0.238994 0.914290 0.301510
O O7 0.273671 0.000000 0.359192
O O8 0.750000 0.250000 0.151644
O O9 0.751120 0.340436 0.182931
O O10 0.000000 0.297566 0.126933
O O11 0.774633 0.305333 0.000000
O O12 0.000000 0.887791 0.803089
#
# Coordination Sequence:
#
# PCOD9489327 Si02
#       4
#     8  16  16  16
#     4   9  18  30  44  69 106 141 168 203 254 305
#     4   9  19  36  55  75 103 140 181 223 264 307
#     4  10  20  34  53  76 105 138 176 216 259 311
#     4  11  20  32  52  77 108 140 174 215 262 314
#
# _framework density 16.59543
#
# number of rings (size 3 to 8) (size 9 to 14) (size 15 to 20)
#    0.000    2.143    1.429    3.429    0.000    3.429 
#    0.000    1.429    0.000    4.286    0.000    0.000 
#    0.000    0.000    0.000    0.000    0.000    0.000 
#
# Total GULP energy -156298.289564 kJ/mol
# GULP energy per Si atom -5582.081770 kJ/mol
# Density = 1.655766 g / cm^3
# Si number density = 16.595430 Si / 1000 Ang^3
#
#
#
# Elastic Constant Matrix: (Units=GPa)
#
#
# Indices 1 2 3 4 5 6 
#
# 1 40.7050 52.1628 40.1385 0.0000 0.0000 0.0000
# 2 52.1628 173.3539 92.0187 0.0000 0.0000 0.0000
# 3 40.1385 92.0187 98.9952 0.0000 0.0000 0.0000
# 4 0.0000 0.0000 0.0000 21.8656 0.0000 0.0000
# 5 0.0000 0.0000 0.0000 0.0000 25.4751 0.0000
# 6 0.0000 0.0000 0.0000 0.0000 0.0000 25.3727
#
#
#
# Elastic Compliance Matrix: (Units=1/GPa)
#
#
# Indices 1 2 3 4 5 6 
#
# 1 0.045624 -0.007716 -0.011326 0.000000 0.000000 0.000000
# 2 -0.007716 0.012692 -0.008669 0.000000 0.000000 0.000000
# 3 -0.011326 -0.008669 0.022752 0.000000 0.000000 0.000000
# 4 0.000000 0.000000 0.000000 0.045734 0.000000 0.000000
# 5 0.000000 0.000000 0.000000 0.000000 0.039254 0.000000
# 6 0.000000 0.000000 0.000000 0.000000 0.000000 0.039412
#
#
# Mechanical properties :
#
#
# Convention : Reuss Voigt Hill
#
# Bulk Modulus (GPa) = 38.99399 75.74379 57.36889
# Shear Modulus (GPa) = 18.55709 23.12495 20.84102
#
# Velocity S-wave (km/s) = 3.34758 3.73695 3.54761
# Velocity P-wave (km/s) = 6.20400 8.02248 7.17111
#
# Compressibility (1/GPa) = 0.02564497
#
# Stress axis : x y z
#
# Youngs Moduli (GPa) = 21.91837 78.78998 43.95282
#
# Poissons Ratio (x) = 0.60797 0.49781
# Poissons Ratio (y) = 0.16913 0.38102
# Poissons Ratio (z) = 0.24825 0.68302
#
# Static dielectric constant tensor:
#      x y z
#    x 1.551230 0.000000 0.000000 
#    y 0.000000 1.538760 0.000000 
#    z 0.000000 0.000000 1.539090 
# 
# From -- ./inp_files/20456.got.cif
#   From: 2010.05.17/outbox.cif.g08.bks.cpg/sg65_11_cif.got.tgz:20456.got - 2010.06.03 17:01:31.
