data_PCOD9489037
_publ_section_title
;
Structure prediction by ZEFSAII (Michael W. Deem and Ramdas Pophale) SiO2 
 PCOD9489037
Probable space group: C M M M
;
_chemical_formula_sum "Si O2"
_cell_formula_units_Z 96
_cell_length_a 30.832911
_cell_length_b 13.374881
_cell_length_c 13.684247
_cell_angle_alpha 90.000000
_cell_angle_beta 90.000000
_cell_angle_gamma 90.000000
_cell_volume 5643.198938
_symmetry_space_group_name_H-M "C M M M"
_symmetry_group_IT_number 65
_symmetry_cell_setting 'orthorhombic'
loop_
_space_group_symop_operation_xyz
x,y,z
-x,-y,z
x,-y,-z
-x,y,-z
-x,-y,-z
x,y,-z
-x,y,z
x,-y,z
1/2+x,1/2+y,z
1/2-x,1/2-y,z
1/2+x,1/2-y,-z
1/2-x,1/2+y,-z
1/2-x,1/2-y,-z
1/2+x,1/2+y,-z
1/2-x,1/2+y,z
1/2+x,1/2-y,z
loop_
_atom_site_type_symbol
_atom_site_label
_atom_site_fract_x
_atom_site_fract_y
_atom_site_fract_z
Si Si1 0.047517 0.121060 0.801759
Si Si2 0.906602 0.879861 0.609744
Si Si3 0.360109 0.613292 0.884306
Si Si4 0.201763 0.294351 0.888875
Si Si5 0.308488 0.678987 0.614849
Si Si6 0.218305 0.610243 0.690239
O O1 0.059999 0.154589 0.692193
O O2 0.089994 0.142983 0.865222
O O3 0.000000 0.157897 0.832483
O O4 0.045293 0.000000 0.801489
O O5 0.914561 0.841825 0.500000
O O6 0.857291 0.853725 0.638856
O O7 0.909431 0.000000 0.606722
O O8 0.352815 0.500000 0.843587
O O9 0.329039 0.703569 0.853536
O O10 0.352833 0.605687 0.000000
O O11 0.250000 0.250000 0.894560
O O12 0.204477 0.375557 0.803240
O O13 0.189574 0.325907 0.000000
O O14 0.301498 0.655711 0.500000
O O15 0.270058 0.626640 0.675512
O O16 0.302674 0.797340 0.632289
O O17 0.206715 0.500000 0.655398
#
# Coordination Sequence:
#
# PCOD9489037 Si02
#       6
#    16  16  16  16  16  16
#     4   9  17  27  42  67  97 127 159 193 228 273
#     4   9  17  29  46  65  89 124 159 191 229 274
#     4   9  18  32  50  69  93 128 163 194 232 279
#     4  10  20  34  48  67  94 123 161 201 235 278
#     4  10  20  34  48  67  92 122 164 203 235 279
#     4  11  21  32  47  67  92 124 158 198 245 282
#
# _framework density 17.011628000000002
#
# number of rings (size 3 to 8) (size 9 to 14) (size 15 to 20)
#    0.000    2.333    1.667    2.500    0.000    3.667 
#    0.000    5.000    0.000    0.000    0.000    0.000 
#    0.000   10.667    0.000   29.333    0.000    1.667 
#
# Total GULP energy -267425.396325 kJ/mol
# GULP energy per Si atom -5571.362423 kJ/mol
# Density = 1.697291 g / cm^3
# Si number density = 17.011628 Si / 1000 Ang^3
#
#
#
# Elastic Constant Matrix: (Units=GPa)
#
#
# Indices 1 2 3 4 5 6 
#
# 1 72.8837 18.6377 0.1896 0.0000 0.0000 0.0000
# 2 18.6377 51.1415 5.8357 0.0000 0.0000 0.0000
# 3 0.1896 5.8357 43.4396 0.0000 0.0000 0.0000
# 4 0.0000 0.0000 0.0000 14.3966 0.0000 0.0000
# 5 0.0000 0.0000 0.0000 0.0000 44.0381 0.0000
# 6 0.0000 0.0000 0.0000 0.0000 0.0000 16.7378
#
#
#
# Elastic Compliance Matrix: (Units=1/GPa)
#
#
# Indices 1 2 3 4 5 6 
#
# 1 0.015151 -0.005600 0.000686 0.000000 0.000000 0.000000
# 2 -0.005600 0.021928 -0.002921 0.000000 0.000000 0.000000
# 3 0.000686 -0.002921 0.023410 0.000000 0.000000 0.000000
# 4 0.000000 0.000000 0.000000 0.069461 0.000000 0.000000
# 5 0.000000 0.000000 0.000000 0.000000 0.022708 0.000000
# 6 0.000000 0.000000 0.000000 0.000000 0.000000 0.059745
#
#
# Mechanical properties :
#
#
# Convention : Reuss Voigt Hill
#
# Bulk Modulus (GPa) = 22.31226 24.08787 23.20007
# Shear Modulus (GPa) = 20.57521 24.55463 22.56492
#
# Velocity S-wave (km/s) = 3.48153 3.80334 3.64598
# Velocity P-wave (km/s) = 5.41348 5.78598 5.60282
#
# Compressibility (1/GPa) = 0.04481842
#
# Stress axis : x y z
#
# Youngs Moduli (GPa) = 66.00369 45.60441 42.71695
#
# Poissons Ratio (x) = 0.25537 -0.02931
# Poissons Ratio (y) = 0.36960 0.12479
# Poissons Ratio (z) = -0.04529 0.13323
#
# Static dielectric constant tensor:
#      x y z
#    x 1.576000 0.000000 0.000000 
#    y 0.000000 1.564460 0.000000 
#    z 0.000000 0.000000 1.662570 
# 
# From -- ./inp_files/41259.got.cif
#   From: 2010.05.17/outbox.cif.g08.bks.cpg/sg65_21_cif.got.tgz:41259.got - 2010.06.03 17:01:31.
