data_PCOD9489494
_publ_section_title
;
Structure prediction by ZEFSAII (Michael W. Deem and Ramdas Pophale) SiO2 
 PCOD9489494
Probable space group: C M M M
;
_chemical_formula_sum "Si O2"
_cell_formula_units_Z 72
_cell_length_a 18.562010
_cell_length_b 9.113348
_cell_length_c 25.481072
_cell_angle_alpha 90.000000
_cell_angle_beta 90.000000
_cell_angle_gamma 90.000000
_cell_volume 4310.430547
_symmetry_space_group_name_H-M "C M M M"
_symmetry_group_IT_number 65
_symmetry_cell_setting 'orthorhombic'
loop_
_space_group_symop_operation_xyz
x,y,z
-x,-y,z
x,-y,-z
-x,y,-z
-x,-y,-z
x,y,-z
-x,y,z
x,-y,z
1/2+x,1/2+y,z
1/2-x,1/2-y,z
1/2+x,1/2-y,-z
1/2-x,1/2+y,-z
1/2-x,1/2-y,-z
1/2+x,1/2+y,-z
1/2-x,1/2+y,z
1/2+x,1/2-y,z
loop_
_atom_site_type_symbol
_atom_site_label
_atom_site_fract_x
_atom_site_fract_y
_atom_site_fract_z
Si Si1 0.827967 0.823325 0.058125
Si Si2 0.176351 0.833605 0.359279
Si Si3 0.414835 0.175034 0.730402
Si Si4 0.585261 0.500000 0.437703
Si Si5 0.414288 0.673299 0.838820
O O1 0.750000 0.750000 0.062318
O O2 0.875709 0.778917 0.107730
O O3 0.820813 0.000000 0.059965
O O4 0.857800 0.786115 0.000000
O O5 0.250000 0.750000 0.371741
O O6 0.132077 0.749639 0.314738
O O7 0.193556 0.000000 0.340703
O O8 0.124988 0.862849 0.409575
O O9 0.500000 0.211242 0.723278
O O10 0.392513 0.237017 0.787277
O O11 0.407321 0.000000 0.728960
O O12 0.500000 0.500000 0.426069
O O13 0.595067 0.500000 0.500000
O O14 0.500000 0.689784 0.845269
O O15 0.399544 0.500000 0.830174
#
# Coordination Sequence:
#
# PCOD9489494 Si02
#       5
#    16  16  16   8  16
#     4   9  18  32  49  69  94 127 167 212 267 326
#     4  10  21  35  57  84 116 148 186 228 276 324
#     4  10  20  34  54  78 109 146 184 227 274 331
#     4   9  20  38  62  88 115 153 194 228 271 330
#     4   9  18  32  50  73 100 134 176 220 269 322
#
# _framework density 16.703668
#
# number of rings (size 3 to 8) (size 9 to 14) (size 15 to 20)
#    0.667    1.889    0.000    2.000    0.000    3.556 
#    0.000    4.444    0.000    0.000    0.000   10.889 
#    0.000    0.000    0.000    0.000    0.000    0.000 
#
# Total GULP energy -200510.689575 kJ/mol
# GULP energy per Si atom -5569.741377 kJ/mol
# Density = 1.666565 g / cm^3
# Si number density = 16.703668 Si / 1000 Ang^3
#
#
#
# Elastic Constant Matrix: (Units=GPa)
#
#
# Indices 1 2 3 4 5 6 
#
# 1 91.0251 47.8312 86.3886 0.0000 0.0000 0.0000
# 2 47.8312 53.2058 53.1827 0.0000 0.0000 0.0000
# 3 86.3886 53.1827 155.2635 0.0000 0.0000 0.0000
# 4 0.0000 0.0000 0.0000 15.2747 0.0000 0.0000
# 5 0.0000 0.0000 0.0000 0.0000 -19.9083 0.0000
# 6 0.0000 0.0000 0.0000 0.0000 0.0000 30.4879
#
#
#
# Elastic Compliance Matrix: (Units=1/GPa)
#
#
# Indices 1 2 3 4 5 6 
#
# 1 0.029896 -0.015585 -0.011296 0.000000 0.000000 0.000000
# 2 -0.015585 0.036705 -0.003901 0.000000 0.000000 0.000000
# 3 -0.011296 -0.003901 0.014062 0.000000 0.000000 0.000000
# 4 0.000000 0.000000 0.000000 0.065468 0.000000 0.000000
# 5 0.000000 0.000000 0.000000 0.000000 -0.050230 0.000000
# 6 0.000000 0.000000 0.000000 0.000000 0.000000 0.032800
#
#
# Mechanical properties :
#
#
# Convention : Reuss Voigt Hill
#
# Bulk Modulus (GPa) = 52.35874 74.92217 63.64045
# Shear Modulus (GPa) = 25.42846 12.64365 19.03606
#
# Velocity S-wave (km/s) = 3.90593 2.75424 3.37951
# Velocity P-wave (km/s) = 7.19413 7.42061 7.30825
#
# Compressibility (1/GPa) = 0.01909901
#
# Stress axis : x y z
#
# Youngs Moduli (GPa) = 33.44955 27.24410 71.11465
#
# Poissons Ratio (x) = 0.42460 0.80328
# Poissons Ratio (y) = 0.52132 0.27743
# Poissons Ratio (z) = 0.37783 0.10628
#
# Static dielectric constant tensor:
#      x y z
#    x 1.547590 0.000000 0.000000 
#    y 0.000000 1.556810 0.000000 
#    z 0.000000 0.000000 1.551540 
# 
# From -- ./inp_files/70752.got.cif
#   From: 2010.05.17/outbox.cif.g08.bks.cpg/sg65_36_cif.got.tgz:70752.got - 2010.06.03 17:01:31.
