data_PCOD9489373
_publ_section_title
;
Structure prediction by ZEFSAII (Michael W. Deem and Ramdas Pophale) SiO2 
 PCOD9489373
Probable space group: C M M M
;
_chemical_formula_sum "Si O2"
_cell_formula_units_Z 100
_cell_length_a 7.724424
_cell_length_b 20.614375
_cell_length_c 32.830432
_cell_angle_alpha 90.000000
_cell_angle_beta 90.000000
_cell_angle_gamma 90.000000
_cell_volume 5227.726689
_symmetry_space_group_name_H-M "C M M M"
_symmetry_group_IT_number 65
_symmetry_cell_setting 'orthorhombic'
loop_
_space_group_symop_operation_xyz
x,y,z
-x,-y,z
x,-y,-z
-x,y,-z
-x,-y,-z
x,y,-z
-x,y,z
x,-y,z
1/2+x,1/2+y,z
1/2-x,1/2-y,z
1/2+x,1/2-y,-z
1/2-x,1/2+y,-z
1/2-x,1/2-y,-z
1/2+x,1/2+y,-z
1/2-x,1/2+y,z
1/2+x,1/2-y,z
loop_
_atom_site_type_symbol
_atom_site_label
_atom_site_fract_x
_atom_site_fract_y
_atom_site_fract_z
Si Si1 0.704522 0.823392 0.114047
Si Si2 0.801160 0.678414 0.568695
Si Si3 0.292439 0.573073 0.954432
Si Si4 0.208598 0.675790 0.794356
Si Si5 0.000000 0.161582 0.500000
Si Si6 0.209561 0.573999 0.727431
Si Si7 0.294798 0.425485 0.634341
O O1 0.500000 0.826060 0.118131
O O2 0.750000 0.750000 0.101807
O O3 0.752810 0.875491 0.080275
O O4 0.777109 0.835478 0.159617
O O5 0.750000 0.750000 0.584522
O O6 0.654967 0.662672 0.535218
O O7 0.792220 0.624904 0.603956
O O8 0.000000 0.681645 0.552619
O O9 0.500000 0.569710 0.956650
O O10 0.228783 0.500000 0.945150
O O11 0.229505 0.591048 0.000000
O O12 0.250000 0.750000 0.783337
O O13 0.273043 0.624411 0.761255
O O14 0.000000 0.669744 0.795262
O O15 0.267102 0.500000 0.735619
O O16 0.264647 0.591175 0.681616
O O17 0.000000 0.574183 0.728069
O O18 0.500000 0.424219 0.626364
O O19 0.233696 0.500000 0.628403
#
# Coordination Sequence:
#
# PCOD9489373 Si02
#       7
#    16  16  16  16   4  16  16
#     4  10  20  34  53  77 107 142 182 225 277 331
#     4  12  24  40  66  93 121 161 200 242 298 349
#     4   9  19  36  55  75 102 137 176 223 278 332
#     4   9  19  34  52  77 108 143 178 226 277 329
#     4  12  24  44  63  96 125 158 200 248 296 344
#     4   9  18  34  56  79 107 146 187 226 276 336
#     4  10  21  40  61  86 121 155 194 244 289 338
#
# _framework density 19.128774
#
# number of rings (size 3 to 8) (size 9 to 14) (size 15 to 20)
#    0.000    2.080    1.600    1.920    0.000    4.480 
#    0.000    4.800    0.000    2.880    0.000    0.000 
#    0.000    0.000    0.000    0.000    0.000    0.000 
#
# Total GULP energy -278409.984384 kJ/mol
# GULP energy per Si atom -5568.199688 kJ/mol
# Density = 1.908524 g / cm^3
# Si number density = 19.128774 Si / 1000 Ang^3
#
#
#
# Elastic Constant Matrix: (Units=GPa)
#
#
# Indices 1 2 3 4 5 6 
#
# 1 88.8805 25.4011 27.2724 0.0000 0.0000 0.0000
# 2 25.4011 130.1481 125.4179 0.0000 0.0000 0.0000
# 3 27.2724 125.4179 142.1916 0.0000 0.0000 0.0000
# 4 0.0000 0.0000 0.0000 -287.6649 0.0000 0.0000
# 5 0.0000 0.0000 0.0000 0.0000 24.6448 0.0000
# 6 0.0000 0.0000 0.0000 0.0000 0.0000 21.8569
#
#
#
# Elastic Compliance Matrix: (Units=1/GPa)
#
#
# Indices 1 2 3 4 5 6 
#
# 1 0.011968 -0.000825 -0.001568 0.000000 0.000000 0.000000
# 2 -0.000825 0.051273 -0.045066 0.000000 0.000000 0.000000
# 3 -0.001568 -0.045066 0.047083 0.000000 0.000000 0.000000
# 4 0.000000 0.000000 0.000000 -0.003476 0.000000 0.000000
# 5 0.000000 0.000000 0.000000 0.000000 0.040577 0.000000
# 6 0.000000 0.000000 0.000000 0.000000 0.000000 0.045752
#
#
# Mechanical properties :
#
#
# Convention : Reuss Voigt Hill
#
# Bulk Modulus (GPa) = 64.90877 79.71144 72.31010
# Shear Modulus (GPa) = 17.05151 -36.02404 -9.48627
#
# Velocity S-wave (km/s) = 2.98888 -4.34434 -2.22933
# Velocity P-wave (km/s) = 6.77624 4.07395 5.59082
#
# Compressibility (1/GPa) = 0.01540624
#
# Stress axis : x y z
#
# Youngs Moduli (GPa) = 83.55688 19.50357 21.23897
#
# Poissons Ratio (x) = 0.01609 0.03330
# Poissons Ratio (y) = 0.06893 0.95716
# Poissons Ratio (z) = 0.13100 0.87895
#
# Static dielectric constant tensor:
#      x y z
#    x 1.701280 0.000000 0.000000 
#    y 0.000000 1.640850 0.000000 
#    z 0.000000 0.000000 1.661090 
# 
# From -- ./inp_files/73351.got.cif
#   From: 2010.05.17/outbox.cif.g08.bks.cpg/sg65_37_cif.got.tgz:73351.got - 2010.06.03 17:01:31.
