data_PCOD9489829
_publ_section_title
;
Structure prediction by ZEFSAII (Michael W. Deem and Ramdas Pophale) SiO2 
 PCOD9489829
Probable space group: C M M M
;
_chemical_formula_sum "Si O2"
_cell_formula_units_Z 104
_cell_length_a 8.722232
_cell_length_b 27.739288
_cell_length_c 27.281192
_cell_angle_alpha 90.000000
_cell_angle_beta 90.000000
_cell_angle_gamma 90.000000
_cell_volume 6600.643631
_symmetry_space_group_name_H-M "C M M M"
_symmetry_group_IT_number 65
_symmetry_cell_setting 'orthorhombic'
loop_
_space_group_symop_operation_xyz
x,y,z
-x,-y,z
x,-y,-z
-x,y,-z
-x,-y,-z
x,y,-z
-x,y,z
x,-y,z
1/2+x,1/2+y,z
1/2-x,1/2-y,z
1/2+x,1/2-y,-z
1/2-x,1/2+y,-z
1/2-x,1/2-y,-z
1/2+x,1/2+y,-z
1/2-x,1/2+y,z
1/2+x,1/2-y,z
loop_
_atom_site_type_symbol
_atom_site_label
_atom_site_fract_x
_atom_site_fract_y
_atom_site_fract_z
Si Si1 0.817338 0.851322 0.248608
Si Si2 0.816986 0.944547 0.000000
Si Si3 0.684427 0.944659 0.798690
Si Si4 0.816489 0.398731 0.902425
Si Si5 0.183143 0.695661 0.654668
Si Si6 0.816147 0.804377 0.553716
Si Si7 0.184149 0.301914 0.152030
O O1 0.767802 0.905590 0.234897
O O2 0.743918 0.834214 0.299326
O O3 0.752062 0.818475 0.204337
O O4 0.000000 0.846729 0.250533
O O5 0.760253 0.917670 0.951376
O O6 0.000000 0.945436 0.000000
O O7 0.760132 0.000000 0.000000
O O8 0.500000 0.938205 0.793766
O O9 0.722587 0.931517 0.855132
O O10 0.722443 0.000000 0.788168
O O11 0.775420 0.344252 0.886371
O O12 0.000000 0.400717 0.908690
O O13 0.250000 0.750000 0.658965
O O14 0.242711 0.674399 0.602849
O O15 0.000000 0.698145 0.654557
O O16 0.780927 0.826242 0.500000
O O17 0.750000 0.750000 0.552148
O O18 0.000000 0.802346 0.558950
O O19 0.250000 0.250000 0.138554
O O20 0.000000 0.300213 0.155970
#
# Coordination Sequence:
#
# PCOD9489829 Si02
#       7
#    16   8  16  16  16  16  16
#     4  11  21  32  47  69  97 126 158 194 233 278
#     4  11  23  35  50  75 102 123 150 193 236 273
#     4   9  18  34  54  74  96 122 153 190 233 280
#     4   9  19  35  54  74  96 124 156 187 224 277
#     4  11  20  30  44  63  91 125 162 200 237 276
#     4   9  16  26  40  59  85 118 156 195 235 279
#     4  10  20  35  53  73  96 124 159 194 232 276
#
# _framework density 15.756038999999999
#
# number of rings (size 3 to 8) (size 9 to 14) (size 15 to 20)
#    0.000    2.077    0.000    6.692    0.000    5.538 
#    0.000    0.385    0.000    0.000    0.000    0.000 
#    0.000    0.615    0.000    6.462    0.000    2.769 
#
# Total GULP energy -290101.319874 kJ/mol
# GULP energy per Si atom -5578.871536 kJ/mol
# Density = 1.572018 g / cm^3
# Si number density = 15.756039 Si / 1000 Ang^3
#
#
#
# Elastic Constant Matrix: (Units=GPa)
#
#
# Indices 1 2 3 4 5 6 
#
# 1 91.7221 45.0563 62.7329 0.0000 0.0000 0.0000
# 2 45.0563 90.8389 60.3249 0.0000 0.0000 0.0000
# 3 62.7329 60.3249 152.1956 0.0000 0.0000 0.0000
# 4 0.0000 0.0000 0.0000 17.5679 0.0000 0.0000
# 5 0.0000 0.0000 0.0000 0.0000 24.0751 0.0000
# 6 0.0000 0.0000 0.0000 0.0000 0.0000 23.7662
#
#
#
# Elastic Compliance Matrix: (Units=1/GPa)
#
#
# Indices 1 2 3 4 5 6 
#
# 1 0.016730 -0.005047 -0.004895 0.000000 0.000000 0.000000
# 2 -0.005047 0.016464 -0.004445 0.000000 0.000000 0.000000
# 3 -0.004895 -0.004445 0.010350 0.000000 0.000000 0.000000
# 4 0.000000 0.000000 0.000000 0.056922 0.000000 0.000000
# 5 0.000000 0.000000 0.000000 0.000000 0.041537 0.000000
# 6 0.000000 0.000000 0.000000 0.000000 0.000000 0.042077
#
#
# Mechanical properties :
#
#
# Convention : Reuss Voigt Hill
#
# Bulk Modulus (GPa) = 67.71175 74.55384 71.13280
# Shear Modulus (GPa) = 22.95917 24.19135 23.57526
#
# Velocity S-wave (km/s) = 3.82143 3.92263 3.87236
# Velocity P-wave (km/s) = 7.90819 8.24235 8.07700
#
# Compressibility (1/GPa) = 0.01476848
#
# Stress axis : x y z
#
# Youngs Moduli (GPa) = 59.77312 60.73853 96.61584
#
# Poissons Ratio (x) = 0.30656 0.47297
# Poissons Ratio (y) = 0.30168 0.42949
# Poissons Ratio (z) = 0.29261 0.27001
#
# Static dielectric constant tensor:
#      x y z
#    x 1.528860 0.000000 0.000000 
#    y 0.000000 1.512440 0.000000 
#    z 0.000000 0.000000 1.533580 
# 
# From -- ./inp_files/68241.got.cif
#   From: 2010.05.17/outbox.cif.g08.bks.cpg/sg65_35_cif.got.tgz:68241.got - 2010.06.03 17:01:31.
