data_PCOD9489440
_publ_section_title
;
Structure prediction by ZEFSAII (Michael W. Deem and Ramdas Pophale) SiO2 
 PCOD9489440
Probable space group: C M M M
;
_chemical_formula_sum "Si O2"
_cell_formula_units_Z 104
_cell_length_a 24.696348
_cell_length_b 18.049646
_cell_length_c 14.001510
_cell_angle_alpha 90.000000
_cell_angle_beta 90.000000
_cell_angle_gamma 90.000000
_cell_volume 6241.317843
_symmetry_space_group_name_H-M "C M M M"
_symmetry_group_IT_number 65
_symmetry_cell_setting 'orthorhombic'
loop_
_space_group_symop_operation_xyz
x,y,z
-x,-y,z
x,-y,-z
-x,y,-z
-x,-y,-z
x,y,-z
-x,y,z
x,-y,z
1/2+x,1/2+y,z
1/2-x,1/2-y,z
1/2+x,1/2-y,-z
1/2-x,1/2+y,-z
1/2-x,1/2-y,-z
1/2+x,1/2+y,-z
1/2-x,1/2+y,z
1/2+x,1/2-y,z
loop_
_atom_site_type_symbol
_atom_site_label
_atom_site_fract_x
_atom_site_fract_y
_atom_site_fract_z
Si Si1 0.064590 0.915053 0.386875
Si Si2 0.500000 0.121392 0.107855
Si Si3 0.500000 0.300719 0.107659
Si Si4 0.898606 0.799143 0.238809
Si Si5 0.805004 0.412153 0.107757
Si Si6 0.098805 0.373803 0.755633
Si Si7 0.065480 0.500000 0.386434
Si Si8 0.293932 0.315671 0.890539
O O1 0.074303 0.908143 0.500000
O O2 0.096752 0.854445 0.327264
O O3 0.000000 0.903961 0.371756
O O4 0.077268 0.000000 0.358809
O O5 0.500000 0.210963 0.102325
O O6 0.553048 0.101461 0.167877
O O7 0.500000 0.092353 0.000000
O O8 0.446563 0.321250 0.165950
O O9 0.500000 0.329742 0.000000
O O10 0.908441 0.713178 0.267390
O O11 0.842256 0.806234 0.183009
O O12 0.810360 0.500000 0.107940
O O13 0.844587 0.381492 0.188656
O O14 0.743136 0.388001 0.123687
O O15 0.819893 0.384503 0.000000
O O16 0.090671 0.428026 0.666096
O O17 0.075515 0.500000 0.500000
O O18 0.000000 0.500000 0.372377
O O19 0.250000 0.250000 0.881133
O O20 0.314550 0.314386 0.000000
#
# Coordination Sequence:
#
# PCOD9489440 Si02
#       8
#    16   8   8  16  16  16   8  16
#     4   9  19  37  60  85 111 138 177 232 292 345
#     4   9  18  29  46  76 111 141 173 220 274 321
#     4   9  18  30  47  81 119 146 172 213 270 329
#     4  11  20  33  59  86 111 145 184 229 277 330
#     4  10  20  34  54  80 111 148 191 233 266 312
#     4  11  20  34  53  79 109 143 189 229 273 331
#     4  11  24  40  54  74 112 154 188 231 286 341
#     4  10  20  34  53  81 115 152 186 217 265 325
#
# _framework density 16.663148
#
# number of rings (size 3 to 8) (size 9 to 14) (size 15 to 20)
#    0.000    1.923    3.846    1.385    0.000    2.462 
#    0.000    1.923    0.000    3.231    0.000    0.000 
#    0.000    0.000    0.000    0.000    0.000    0.000 
#
# Total GULP energy -290031.384945 kJ/mol
# GULP energy per Si atom -5577.526634 kJ/mol
# Density = 1.662522 g / cm^3
# Si number density = 16.663148 Si / 1000 Ang^3
#
#
#
# Elastic Constant Matrix: (Units=GPa)
#
#
# Indices 1 2 3 4 5 6 
#
# 1 67.5368 30.8080 45.6057 0.0000 0.0000 0.0000
# 2 30.8080 88.2600 59.8171 0.0000 0.0000 0.0000
# 3 45.6057 59.8171 108.6035 0.0000 0.0000 0.0000
# 4 0.0000 0.0000 0.0000 28.0355 0.0000 0.0000
# 5 0.0000 0.0000 0.0000 0.0000 25.3925 0.0000
# 6 0.0000 0.0000 0.0000 0.0000 0.0000 22.4860
#
#
#
# Elastic Compliance Matrix: (Units=1/GPa)
#
#
# Indices 1 2 3 4 5 6 
#
# 1 0.020920 -0.002152 -0.007600 0.000000 0.000000 0.000000
# 2 -0.002152 0.018300 -0.009176 0.000000 0.000000 0.000000
# 3 -0.007600 -0.009176 0.017453 0.000000 0.000000 0.000000
# 4 0.000000 0.000000 0.000000 0.035669 0.000000 0.000000
# 5 0.000000 0.000000 0.000000 0.000000 0.039382 0.000000
# 6 0.000000 0.000000 0.000000 0.000000 0.000000 0.044472
#
#
# Mechanical properties :
#
#
# Convention : Reuss Voigt Hill
#
# Bulk Modulus (GPa) = 53.13891 59.65132 56.39512
# Shear Modulus (GPa) = 22.69389 23.72746 23.21067
#
# Velocity S-wave (km/s) = 3.69442 3.77762 3.73625
# Velocity P-wave (km/s) = 7.08221 7.40967 7.24779
#
# Compressibility (1/GPa) = 0.01881860
#
# Stress axis : x y z
#
# Youngs Moduli (GPa) = 47.80057 54.64485 57.29652
#
# Poissons Ratio (x) = 0.11758 0.43545
# Poissons Ratio (y) = 0.10285 0.52574
# Poissons Ratio (z) = 0.36328 0.50141
#
# Static dielectric constant tensor:
#      x y z
#    x 1.551240 0.000000 0.000000 
#    y 0.000000 1.589000 0.000000 
#    z 0.000000 0.000000 1.547900 
# 
# From -- ./inp_files/32592.got.cif
#   From: 2010.05.17/outbox.cif.g08.bks.cpg/sg65_17_cif.got.tgz:32592.got - 2010.06.03 17:01:31.
