data_PCOD9489820
_publ_section_title
;
Structure prediction by ZEFSAII (Michael W. Deem and Ramdas Pophale) SiO2 
 PCOD9489820
Probable space group: C M M M
;
_chemical_formula_sum "Si O2"
_cell_formula_units_Z 104
_cell_length_a 27.523896
_cell_length_b 7.684781
_cell_length_c 25.134066
_cell_angle_alpha 90.000000
_cell_angle_beta 90.000000
_cell_angle_gamma 90.000000
_cell_volume 5316.234811
_symmetry_space_group_name_H-M "C M M M"
_symmetry_group_IT_number 65
_symmetry_cell_setting 'orthorhombic'
loop_
_space_group_symop_operation_xyz
x,y,z
-x,-y,z
x,-y,-z
-x,y,-z
-x,-y,-z
x,y,-z
-x,y,z
x,-y,z
1/2+x,1/2+y,z
1/2-x,1/2-y,z
1/2+x,1/2-y,-z
1/2-x,1/2+y,-z
1/2-x,1/2-y,-z
1/2+x,1/2+y,-z
1/2-x,1/2+y,z
1/2+x,1/2-y,z
loop_
_atom_site_type_symbol
_atom_site_label
_atom_site_fract_x
_atom_site_fract_y
_atom_site_fract_z
Si Si1 0.945854 0.788148 0.276850
Si Si2 0.443113 0.287838 0.941084
Si Si3 0.151562 0.701460 0.335900
Si Si4 0.108781 0.293602 0.559953
Si Si5 0.400737 0.705830 0.167956
Si Si6 0.195514 0.707050 0.770930
Si Si7 0.000000 0.804259 0.564489
O O1 0.902454 0.709915 0.310944
O O2 0.935280 0.731879 0.215970
O O3 0.000000 0.739113 0.293662
O O4 0.942032 0.000000 0.279502
O O5 0.500000 0.244168 0.934007
O O6 0.440449 0.500000 0.942086
O O7 0.413208 0.222942 0.890188
O O8 0.427634 0.227793 0.000000
O O9 0.166327 0.500000 0.342630
O O10 0.144280 0.780044 0.394578
O O11 0.184417 0.779437 0.288705
O O12 0.113855 0.221275 0.500000
O O13 0.117617 0.500000 0.557001
O O14 0.052356 0.274222 0.577561
O O15 0.409740 0.500000 0.164824
O O16 0.346023 0.730682 0.188821
O O17 0.189964 0.500000 0.767804
O O18 0.250000 0.750000 0.787140
O O19 0.000000 0.805880 0.500000
O O20 0.000000 0.000000 0.585656
#
# Coordination Sequence:
#
# PCOD9489820 Si02
#       7
#    16  16  16  16  16  16   8
#     4   9  17  27  40  62  92 124 154 184 221 265
#     4   8  13  22  41  72 106 137 167 195 221 255
#     4   9  19  32  46  66  88 113 147 186 227 273
#     4   9  17  30  46  62  84 117 153 184 217 264
#     4   9  16  28  47  70  96 125 157 192 229 269
#     4  10  20  35  53  71  90 113 147 192 242 290
#     4   9  17  27  39  59  87 119 153 185 214 247
#
# _framework density 19.562716000000002
#
# number of rings (size 3 to 8) (size 9 to 14) (size 15 to 20)
#    0.000    3.000    0.000    1.615    1.077    4.308 
#    0.000    0.000    0.000    2.769    0.000    1.077 
#    0.000    0.000    0.000    0.000    0.000    0.462 
#
# Total GULP energy -289734.027907 kJ/mol
# GULP energy per Si atom -5571.808229 kJ/mol
# Density = 1.951819 g / cm^3
# Si number density = 19.562716 Si / 1000 Ang^3
#
#
#
# Elastic Constant Matrix: (Units=GPa)
#
#
# Indices 1 2 3 4 5 6 
#
# 1 36.1214 -15.9175 14.4731 0.0000 0.0000 0.0000
# 2 -15.9175 30.0512 1.0317 0.0000 0.0000 0.0000
# 3 14.4731 1.0317 130.7130 0.0000 0.0000 0.0000
# 4 0.0000 0.0000 0.0000 8.7874 0.0000 0.0000
# 5 0.0000 0.0000 0.0000 0.0000 12.2924 0.0000
# 6 0.0000 0.0000 0.0000 0.0000 0.0000 -1.9356
#
#
#
# Elastic Compliance Matrix: (Units=1/GPa)
#
#
# Indices 1 2 3 4 5 6 
#
# 1 0.038515 0.020553 -0.004427 0.000000 0.000000 0.000000
# 2 0.020553 0.044253 -0.002625 0.000000 0.000000 0.000000
# 3 -0.004427 -0.002625 0.008161 0.000000 0.000000 0.000000
# 4 0.000000 0.000000 0.000000 0.113799 0.000000 0.000000
# 5 0.000000 0.000000 0.000000 0.000000 0.081351 0.000000
# 6 0.000000 0.000000 0.000000 0.000000 0.000000 -0.516638
#
#
# Mechanical properties :
#
#
# Convention : Reuss Voigt Hill
#
# Bulk Modulus (GPa) = 8.47954 21.78447 15.13200
# Shear Modulus (GPa) = -22.90951 16.98207 -2.96372
#
# Velocity S-wave (km/s) = -3.42582 2.94952 -1.23218
# Velocity P-wave (km/s) = 3.36219 4.77069 2.39323
#
# Compressibility (1/GPa) = 0.11793096
#
# Stress axis : x y z
#
# Youngs Moduli (GPa) = 25.96387 22.59738 122.53072
#
# Poissons Ratio (x) = -0.46444 0.54242
# Poissons Ratio (y) = -0.53363 0.32164
# Poissons Ratio (z) = 0.11494 0.05932
#
# Static dielectric constant tensor:
#      x y z
#    x 1.695620 0.000000 0.000000 
#    y 0.000000 1.743900 0.000000 
#    z 0.000000 0.000000 1.760820 
# 
# From -- ./inp_files/76034.got.cif
#   From: 2010.05.17/outbox.cif.g08.bks.cpg/sg65_39_cif.got.tgz:76034.got - 2010.06.03 17:01:31.
