data_PCOD9489692
_publ_section_title
;
Structure prediction by ZEFSAII (Michael W. Deem and Ramdas Pophale) SiO2 
 PCOD9489692
Probable space group: C M M M
;
_chemical_formula_sum "Si O2"
_cell_formula_units_Z 80
_cell_length_a 9.577536
_cell_length_b 26.576150
_cell_length_c 17.440089
_cell_angle_alpha 90.000000
_cell_angle_beta 90.000000
_cell_angle_gamma 90.000000
_cell_volume 4439.096195
_symmetry_space_group_name_H-M "C M M M"
_symmetry_group_IT_number 65
_symmetry_cell_setting 'orthorhombic'
loop_
_space_group_symop_operation_xyz
x,y,z
-x,-y,z
x,-y,-z
-x,y,-z
-x,-y,-z
x,y,-z
-x,y,z
x,-y,z
1/2+x,1/2+y,z
1/2-x,1/2-y,z
1/2+x,1/2-y,-z
1/2-x,1/2+y,-z
1/2-x,1/2-y,-z
1/2+x,1/2+y,-z
1/2-x,1/2+y,z
1/2+x,1/2-y,z
loop_
_atom_site_type_symbol
_atom_site_label
_atom_site_fract_x
_atom_site_fract_y
_atom_site_fract_z
Si Si1 0.500000 0.440067 0.914886
Si Si2 0.500000 0.938831 0.907673
Si Si3 0.666724 0.441962 0.642420
Si Si4 0.165577 0.348447 0.411993
Si Si5 0.241128 0.096380 0.191860
Si Si6 0.330043 0.699810 0.273341
O O1 0.500000 0.500000 0.918255
O O2 0.626967 0.421256 0.866830
O O3 0.500000 0.419587 0.000000
O O4 0.375531 0.915700 0.857805
O O5 0.500000 0.000000 0.902844
O O6 0.500000 0.927123 0.000000
O O7 0.500000 0.428669 0.640344
O O8 0.679616 0.500000 0.618657
O O9 0.761686 0.403328 0.594948
O O10 0.721493 0.435089 0.729549
O O11 0.172380 0.331459 0.500000
O O12 0.258710 0.314730 0.354989
O O13 0.000000 0.349858 0.389500
O O14 0.212776 0.153391 0.218645
O O15 0.500000 0.704163 0.277812
O O16 0.250000 0.750000 0.247566
#
# Coordination Sequence:
#
# PCOD9489692 Si02
#       6
#     8   8  16  16  16  16
#     4  11  20  34  61  91 122 159 195 237 291 349
#     4  11  24  38  57  91 130 165 197 235 293 355
#     4  10  20  34  55  83 117 162 208 247 293 350
#     4  10  22  39  58  86 122 155 194 245 299 356
#     4  11  21  38  58  87 123 158 199 249 291 349
#     4  11  24  42  67  92 114 153 203 251 304 355
#
# _framework density 18.021685999999999
#
# number of rings (size 3 to 8) (size 9 to 14) (size 15 to 20)
#    0.000    1.400    2.000    4.800    7.000    4.400 
#    0.000    2.000    0.000    3.600    0.000    0.000 
#    0.000    0.000    0.000    0.000    0.000    0.000 
#
# Total GULP energy -222951.888988 kJ/mol
# GULP energy per Si atom -5573.797225 kJ/mol
# Density = 1.798067 g / cm^3
# Si number density = 18.021686 Si / 1000 Ang^3
#
#
#
# Elastic Constant Matrix: (Units=GPa)
#
#
# Indices 1 2 3 4 5 6 
#
# 1 180.1862 39.1282 46.3838 0.0000 0.0000 0.0000
# 2 39.1282 90.5745 14.9991 0.0000 0.0000 0.0000
# 3 46.3838 14.9991 90.5414 0.0000 0.0000 0.0000
# 4 0.0000 0.0000 0.0000 8.1595 0.0000 0.0000
# 5 0.0000 0.0000 0.0000 0.0000 62.5903 0.0000
# 6 0.0000 0.0000 0.0000 0.0000 0.0000 30.7228
#
#
#
# Elastic Compliance Matrix: (Units=1/GPa)
#
#
# Indices 1 2 3 4 5 6 
#
# 1 0.006887 -0.002458 -0.003121 0.000000 0.000000 0.000000
# 2 -0.002458 0.012230 -0.000767 0.000000 0.000000 0.000000
# 3 -0.003121 -0.000767 0.012770 0.000000 0.000000 0.000000
# 4 0.000000 0.000000 0.000000 0.122556 0.000000 0.000000
# 5 0.000000 0.000000 0.000000 0.000000 0.015977 0.000000
# 6 0.000000 0.000000 0.000000 0.000000 0.000000 0.032549
#
#
# Mechanical properties :
#
#
# Convention : Reuss Voigt Hill
#
# Bulk Modulus (GPa) = 52.09577 62.48048 57.28813
# Shear Modulus (GPa) = 22.51651 37.68058 30.09855
#
# Velocity S-wave (km/s) = 3.53854 4.57754 4.09116
# Velocity P-wave (km/s) = 6.75759 7.91728 7.36031
#
# Compressibility (1/GPa) = 0.01919542
#
# Stress axis : x y z
#
# Youngs Moduli (GPa) = 145.19987 81.76879 78.30551
#
# Poissons Ratio (x) = 0.20102 0.24439
# Poissons Ratio (y) = 0.35696 0.06002
# Poissons Ratio (z) = 0.45316 0.06268
#
# Static dielectric constant tensor:
#      x y z
#    x 1.617850 0.000000 0.000000 
#    y 0.000000 1.624190 0.000000 
#    z 0.000000 0.000000 1.629990 
# 
# From -- ./inp_files/49981.got.cif
#   From: 2010.05.17/outbox.cif.g08.bks.cpg/sg65_25_cif.got.tgz:49981.got - 2010.06.03 17:01:31.
