data_PCOD9489677
_publ_section_title
;
Structure prediction by ZEFSAII (Michael W. Deem and Ramdas Pophale) SiO2 
 PCOD9489677
Probable space group: C M M M
;
_chemical_formula_sum "Si O2"
_cell_formula_units_Z 72
_cell_length_a 15.057499
_cell_length_b 7.655044
_cell_length_c 30.114930
_cell_angle_alpha 90.000000
_cell_angle_beta 90.000000
_cell_angle_gamma 90.000000
_cell_volume 3471.222022
_symmetry_space_group_name_H-M "C M M M"
_symmetry_group_IT_number 65
_symmetry_cell_setting 'orthorhombic'
loop_
_space_group_symop_operation_xyz
x,y,z
-x,-y,z
x,-y,-z
-x,y,-z
-x,-y,-z
x,y,-z
-x,y,z
x,-y,z
1/2+x,1/2+y,z
1/2-x,1/2-y,z
1/2+x,1/2-y,-z
1/2-x,1/2+y,-z
1/2-x,1/2-y,-z
1/2+x,1/2+y,-z
1/2-x,1/2+y,z
1/2+x,1/2-y,z
loop_
_atom_site_type_symbol
_atom_site_label
_atom_site_fract_x
_atom_site_fract_y
_atom_site_fract_z
Si Si1 0.150739 0.791539 0.117179
Si Si2 0.500000 0.285633 0.949250
Si Si3 0.391604 0.699881 0.549910
Si Si4 0.608962 0.000000 0.383973
Si Si5 0.108799 0.500000 0.282303
Si Si6 0.107434 0.200283 0.215821
O O1 0.250000 0.750000 0.103964
O O2 0.083701 0.727149 0.079887
O O3 0.134463 0.727883 0.167394
O O4 0.137106 0.000000 0.120335
O O5 0.500000 0.500000 0.950484
O O6 0.500000 0.226304 0.000000
O O7 0.365012 0.754904 0.500000
O O8 0.500000 0.700935 0.550171
O O9 0.363626 0.500000 0.557048
O O10 0.362282 0.831442 0.587899
O O11 0.638785 0.000000 0.333140
O O12 0.500000 0.000000 0.383395
O O13 0.136784 0.329372 0.254655
O O14 0.000000 0.500000 0.282682
O O15 0.000000 0.195693 0.215911
O O16 0.138884 0.000000 0.221272
#
# Coordination Sequence:
#
# PCOD9489677 Si02
#       6
#    16   8  16   8   8  16
#     4  10  20  34  55  83 106 140 185 225 273 327
#     4   9  18  36  59  81 113 151 181 217 275 340
#     4   8  13  20  30  44  67 107 155 203 253 307
#     4   9  15  22  31  50  78 104 151 208 262 315
#     4   9  18  27  42  67  88 125 166 214 278 322
#     4   9  17  32  50  68  97 132 172 217 265 325
#
# _framework density 20.741973999999999
#
# number of rings (size 3 to 8) (size 9 to 14) (size 15 to 20)
#    0.000    3.000    1.111    1.000    1.556    2.667 
#    0.000    5.000    0.000    0.667    0.000    0.000 
#    0.000    0.000    0.000    0.000    0.000    4.444 
#
# Total GULP energy -200970.945001 kJ/mol
# GULP energy per Si atom -5582.526250 kJ/mol
# Density = 2.069476 g / cm^3
# Si number density = 20.741974 Si / 1000 Ang^3
#
#
#
# Elastic Constant Matrix: (Units=GPa)
#
#
# Indices 1 2 3 4 5 6 
#
# 1 56.2747 20.4019 53.0129 0.0000 0.0000 0.0000
# 2 20.4019 85.4536 92.7247 0.0000 0.0000 0.0000
# 3 53.0129 92.7247 241.9387 0.0000 0.0000 0.0000
# 4 0.0000 0.0000 0.0000 -15.1618 0.0000 0.0000
# 5 0.0000 0.0000 0.0000 0.0000 -9.2679 0.0000
# 6 0.0000 0.0000 0.0000 0.0000 0.0000 9.0010
#
#
#
# Elastic Compliance Matrix: (Units=1/GPa)
#
#
# Indices 1 2 3 4 5 6 
#
# 1 0.022392 -0.000038 -0.004892 0.000000 0.000000 0.000000
# 2 -0.000038 0.020034 -0.007670 0.000000 0.000000 0.000000
# 3 -0.004892 -0.007670 0.008145 0.000000 0.000000 0.000000
# 4 0.000000 0.000000 0.000000 -0.065955 0.000000 0.000000
# 5 0.000000 0.000000 0.000000 0.000000 -0.107899 0.000000
# 6 0.000000 0.000000 0.000000 0.000000 0.000000 0.111098
#
#
# Mechanical properties :
#
#
# Convention : Reuss Voigt Hill
#
# Bulk Modulus (GPa) = 39.41459 79.54956 59.48208
# Shear Modulus (GPa) = 232.88129 11.41611 122.14870
#
# Velocity S-wave (km/s) = 10.60750 2.34858 7.68228
# Velocity P-wave (km/s) = 13.00266 6.76681 10.36481
#
# Compressibility (1/GPa) = 0.02537132
#
# Stress axis : x y z
#
# Youngs Moduli (GPa) = 44.65852 49.91603 122.77948
#
# Poissons Ratio (x) = 0.00189 0.60064
# Poissons Ratio (y) = 0.00169 0.94169
# Poissons Ratio (z) = 0.21847 0.38284
#
# Static dielectric constant tensor:
#      x y z
#    x 1.755850 0.000000 0.000000 
#    y 0.000000 1.755840 0.000000 
#    z 0.000000 0.000000 1.701530 
# 
# From -- ./inp_files/70390.got.cif
#   From: 2010.05.17/outbox.cif.g08.bks.cpg/sg65_36_cif.got.tgz:70390.got - 2010.06.03 17:01:31.
