data_PCOD9489141
_publ_section_title
;
Structure prediction by ZEFSAII (Michael W. Deem and Ramdas Pophale) SiO2 
 PCOD9489141
Probable space group: C M M M
;
_chemical_formula_sum "Si O2"
_cell_formula_units_Z 56
_cell_length_a 41.759548
_cell_length_b 9.741704
_cell_length_c 7.428872
_cell_angle_alpha 90.000000
_cell_angle_beta 90.000000
_cell_angle_gamma 90.000000
_cell_volume 3022.133147
_symmetry_space_group_name_H-M "C M M M"
_symmetry_group_IT_number 65
_symmetry_cell_setting 'orthorhombic'
loop_
_space_group_symop_operation_xyz
x,y,z
-x,-y,z
x,-y,-z
-x,y,-z
-x,-y,-z
x,y,-z
-x,y,z
x,-y,z
1/2+x,1/2+y,z
1/2-x,1/2-y,z
1/2+x,1/2-y,-z
1/2-x,1/2+y,-z
1/2-x,1/2-y,-z
1/2+x,1/2+y,-z
1/2-x,1/2+y,z
1/2+x,1/2-y,z
loop_
_atom_site_type_symbol
_atom_site_label
_atom_site_fract_x
_atom_site_fract_y
_atom_site_fract_z
Si Si1 0.464364 0.658783 0.219367
Si Si2 0.905137 0.341889 0.219954
Si Si3 0.165387 0.666746 0.205083
Si Si4 0.717353 0.834086 0.500000
O O1 0.500000 0.705063 0.275127
O O2 0.460480 0.500000 0.272413
O O3 0.434898 0.751050 0.280540
O O4 0.464077 0.661704 0.000000
O O5 0.908983 0.500000 0.276351
O O6 0.869809 0.289774 0.273227
O O7 0.904695 0.341656 0.000000
O O8 0.163644 0.500000 0.203148
O O9 0.195064 0.702563 0.329666
O O10 0.169768 0.713619 0.000000
O O11 0.750000 0.750000 0.500000
O O12 0.722657 0.000000 0.500000
#
# Coordination Sequence:
#
# PCOD9489141 Si02
#       4
#    16  16  16   8
#     4   8  13  20  30  49  81 116 145 177 220 264
#     4   8  13  22  37  56  78 107 145 184 217 254
#     4   8  15  29  48  69  93 121 152 186 226 270
#     4  10  20  34  52  72  95 122 149 181 224 273
#
# _framework density 18.529957
#
# number of rings (size 3 to 8) (size 9 to 14) (size 15 to 20)
#    0.000    3.714    0.000    2.571    0.000    1.143 
#    0.000    4.286    0.000    1.714    0.000    1.000 
#    0.000    8.000    0.000    0.857    0.000    0.000 
#
# Total GULP energy -155992.959135 kJ/mol
# GULP energy per Si atom -5571.177112 kJ/mol
# Density = 1.848778 g / cm^3
# Si number density = 18.529957 Si / 1000 Ang^3
#
#
#
# Elastic Constant Matrix: (Units=GPa)
#
#
# Indices 1 2 3 4 5 6 
#
# 1 239.5439 83.9607 58.4419 0.0000 0.0000 0.0000
# 2 83.9607 47.1304 20.4194 0.0000 0.0000 0.0000
# 3 58.4419 20.4194 74.7241 0.0000 0.0000 0.0000
# 4 0.0000 0.0000 0.0000 1.0295 0.0000 0.0000
# 5 0.0000 0.0000 0.0000 0.0000 70.3270 0.0000
# 6 0.0000 0.0000 0.0000 0.0000 0.0000 39.3980
#
#
#
# Elastic Compliance Matrix: (Units=1/GPa)
#
#
# Indices 1 2 3 4 5 6 
#
# 1 0.012109 -0.019815 -0.004056 0.000000 0.000000 0.000000
# 2 -0.019815 0.056491 0.000060 0.000000 0.000000 0.000000
# 3 -0.004056 0.000060 0.016538 0.000000 0.000000 0.000000
# 4 0.000000 0.000000 0.000000 0.971387 0.000000 0.000000
# 5 0.000000 0.000000 0.000000 0.000000 0.014219 0.000000
# 6 0.000000 0.000000 0.000000 0.000000 0.000000 0.025382
#
#
# Mechanical properties :
#
#
# Convention : Reuss Voigt Hill
#
# Bulk Modulus (GPa) = 26.65429 76.33805 51.49617
# Shear Modulus (GPa) = 4.32431 35.38933 19.85682
#
# Velocity S-wave (km/s) = 1.52930 4.37492 3.27709
# Velocity P-wave (km/s) = 4.18736 8.17352 6.49386
#
# Compressibility (1/GPa) = 0.03751742
#
# Stress axis : x y z
#
# Youngs Moduli (GPa) = 82.58081 17.70189 60.46574
#
# Poissons Ratio (x) = 0.35076 0.24525
# Poissons Ratio (y) = 1.63634 -0.00365
# Poissons Ratio (z) = 0.33495 -0.00107
#
# Static dielectric constant tensor:
#      x y z
#    x 1.633300 0.000000 0.000000 
#    y 0.000000 1.605830 0.000000 
#    z 0.000000 0.000000 1.728950 
# 
# From -- ./inp_files/4405.got.cif
#   From: 2010.05.17/outbox.cif.g08.bks.cpg/sg65_3_cif.got.tgz:4405.got - 2010.06.03 17:01:31.
