data_PCOD9489640
_publ_section_title
;
Structure prediction by ZEFSAII (Michael W. Deem and Ramdas Pophale) SiO2 
 PCOD9489640
Probable space group: C M M M
;
_chemical_formula_sum "Si O2"
_cell_formula_units_Z 96
_cell_length_a 23.491714
_cell_length_b 15.760221
_cell_length_c 14.040102
_cell_angle_alpha 90.000000
_cell_angle_beta 90.000000
_cell_angle_gamma 90.000000
_cell_volume 5198.131608
_symmetry_space_group_name_H-M "C M M M"
_symmetry_group_IT_number 65
_symmetry_cell_setting 'orthorhombic'
loop_
_space_group_symop_operation_xyz
x,y,z
-x,-y,z
x,-y,-z
-x,y,-z
-x,-y,-z
x,y,-z
-x,y,z
x,-y,z
1/2+x,1/2+y,z
1/2-x,1/2-y,z
1/2+x,1/2-y,-z
1/2-x,1/2+y,-z
1/2-x,1/2-y,-z
1/2+x,1/2+y,-z
1/2-x,1/2+y,z
1/2+x,1/2-y,z
loop_
_atom_site_type_symbol
_atom_site_label
_atom_site_fract_x
_atom_site_fract_y
_atom_site_fract_z
Si Si1 0.564499 0.190688 0.891237
Si Si2 0.435091 0.265933 0.695399
Si Si3 0.317096 0.899290 0.891581
Si Si4 0.350690 0.594808 0.612199
Si Si5 0.763955 0.652669 0.698577
Si Si6 0.116251 0.596427 0.386260
O O1 0.500000 0.155648 0.878633
O O2 0.572033 0.260875 0.809644
O O3 0.616431 0.125458 0.879060
O O4 0.568017 0.222529 0.000000
O O5 0.500000 0.287267 0.672126
O O6 0.392442 0.332280 0.648881
O O7 0.421261 0.170745 0.659519
O O8 0.280655 0.855149 0.809472
O O9 0.310835 0.000000 0.880821
O O10 0.301163 0.875655 0.000000
O O11 0.339076 0.607749 0.500000
O O12 0.374849 0.500000 0.624246
O O13 0.291813 0.601602 0.669234
O O14 0.750000 0.750000 0.674408
O O15 0.818915 0.618180 0.642677
O O16 0.110362 0.600060 0.500000
O O17 0.102855 0.500000 0.354845
#
# Coordination Sequence:
#
# PCOD9489640 Si02
#       6
#    16  16  16  16  16  16
#     4   9  18  34  57  85 117 156 199 237 284 350
#     4  11  23  40  62  88 119 156 196 246 301 352
#     4  10  20  34  54  83 119 155 195 245 297 351
#     4  11  24  41  62  87 116 156 206 254 296 346
#     4  12  22  37  60  85 116 156 197 247 298 353
#     4  11  23  38  58  86 120 155 191 237 293 356
#
# _framework density 18.468174999999999
#
# number of rings (size 3 to 8) (size 9 to 14) (size 15 to 20)
#    0.000    1.333    3.333    2.500    0.000    4.667 
#    0.000    5.833    0.000    1.500    0.000    2.333 
#    0.000    0.000    0.000    0.000    0.000    0.000 
#
# Total GULP energy -267971.005547 kJ/mol
# GULP energy per Si atom -5582.729282 kJ/mol
# Density = 1.842614 g / cm^3
# Si number density = 18.468175 Si / 1000 Ang^3
#
#
#
# Elastic Constant Matrix: (Units=GPa)
#
#
# Indices 1 2 3 4 5 6 
#
# 1 77.7590 17.9510 31.5312 0.0000 0.0000 0.0000
# 2 17.9510 79.0219 28.7443 0.0000 0.0000 0.0000
# 3 31.5312 28.7443 87.8390 0.0000 0.0000 0.0000
# 4 0.0000 0.0000 0.0000 23.0257 0.0000 0.0000
# 5 0.0000 0.0000 0.0000 0.0000 19.2579 0.0000
# 6 0.0000 0.0000 0.0000 0.0000 0.0000 -0.3514
#
#
#
# Elastic Compliance Matrix: (Units=1/GPa)
#
#
# Indices 1 2 3 4 5 6 
#
# 1 0.015243 -0.001671 -0.004925 0.000000 0.000000 0.000000
# 2 -0.001671 0.014548 -0.004161 0.000000 0.000000 0.000000
# 3 -0.004925 -0.004161 0.014514 0.000000 0.000000 0.000000
# 4 0.000000 0.000000 0.000000 0.043430 0.000000 0.000000
# 5 0.000000 0.000000 0.000000 0.000000 0.051927 0.000000
# 6 0.000000 0.000000 0.000000 0.000000 0.000000 -2.846006
#
#
# Mechanical properties :
#
#
# Convention : Reuss Voigt Hill
#
# Bulk Modulus (GPa) = 43.87663 44.56364 44.22013
# Shear Modulus (GPa) = -1.86760 19.47935 8.80588
#
# Velocity S-wave (km/s) = -1.00670 3.25122 2.18597
# Velocity P-wave (km/s) = 4.73902 6.18678 5.51065
#
# Compressibility (1/GPa) = 0.02279118
#
# Stress axis : x y z
#
# Youngs Moduli (GPa) = 65.60356 68.73876 68.89974
#
# Poissons Ratio (x) = 0.11488 0.33932
# Poissons Ratio (y) = 0.10964 0.28667
# Poissons Ratio (z) = 0.32309 0.28600
#
# Static dielectric constant tensor:
#      x y z
#    x 1.619850 0.000000 0.000000 
#    y 0.000000 1.622100 0.000000 
#    z 0.000000 0.000000 1.659950 
# 
# From -- ./inp_files/40313.got.cif
#   From: 2010.05.17/outbox.cif.g08.bks.cpg/sg65_21_cif.got.tgz:40313.got - 2010.06.03 17:01:31.
