data_PCOD9489798
_publ_section_title
;
Structure prediction by ZEFSAII (Michael W. Deem and Ramdas Pophale) SiO2 
 PCOD9489798
Probable space group: C M M M
;
_chemical_formula_sum "Si O2"
_cell_formula_units_Z 96
_cell_length_a 8.138071
_cell_length_b 30.157746
_cell_length_c 22.227804
_cell_angle_alpha 90.000000
_cell_angle_beta 90.000000
_cell_angle_gamma 90.000000
_cell_volume 5455.278316
_symmetry_space_group_name_H-M "C M M M"
_symmetry_group_IT_number 65
_symmetry_cell_setting 'orthorhombic'
loop_
_space_group_symop_operation_xyz
x,y,z
-x,-y,z
x,-y,-z
-x,y,-z
-x,-y,-z
x,y,-z
-x,y,z
x,-y,z
1/2+x,1/2+y,z
1/2-x,1/2-y,z
1/2+x,1/2-y,-z
1/2-x,1/2+y,-z
1/2-x,1/2-y,-z
1/2+x,1/2+y,-z
1/2-x,1/2+y,z
1/2+x,1/2-y,z
loop_
_atom_site_type_symbol
_atom_site_label
_atom_site_fract_x
_atom_site_fract_y
_atom_site_fract_z
Si Si1 0.304276 0.298569 0.276155
Si Si2 0.308048 0.611542 0.927532
Si Si3 0.305304 0.698932 0.500000
Si Si4 0.700219 0.048863 0.570547
Si Si5 0.804159 0.642183 0.384602
Si Si6 0.000000 0.448978 0.926800
Si Si7 0.197020 0.798425 0.139190
O O1 0.500000 0.299064 0.273488
O O2 0.250000 0.250000 0.298229
O O3 0.249241 0.335624 0.322607
O O4 0.239417 0.303767 0.207847
O O5 0.500000 0.601828 0.909902
O O6 0.258442 0.659322 0.900727
O O7 0.167913 0.576405 0.908599
O O8 0.306567 0.613633 0.000000
O O9 0.250000 0.750000 0.500000
O O10 0.245972 0.672980 0.559279
O O11 0.000000 0.801680 0.500000
O O12 0.742911 0.053726 0.500000
O O13 0.500000 0.048678 0.573194
O O14 0.760579 0.092243 0.605169
O O15 0.755976 0.000000 0.591017
O O16 0.000000 0.639902 0.385101
O O17 0.000000 0.500000 0.906591
O O18 0.000000 0.449088 0.000000
O O19 0.250000 0.750000 0.116627
O O20 0.000000 0.797896 0.141537
#
# Coordination Sequence:
#
# PCOD9489798 Si02
#       7
#    16  16   8  16  16   8  16
#     4  10  20  35  51  71 100 133 173 210 247 300
#     4   9  18  33  52  79 113 144 180 227 277 327
#     4  12  24  36  49  68  97 129 158 197 249 300
#     4   8  14  27  49  74  96 118 149 191 236 288
#     4  11  20  33  52  75  98 125 163 203 250 297
#     4   9  18  32  52  80 110 144 186 229 276 326
#     4   9  19  33  51  75 103 141 181 216 259 316
#
# _framework density 17.597636000000001
#
# number of rings (size 3 to 8) (size 9 to 14) (size 15 to 20)
#    0.000    2.417    0.833    2.750    1.167    1.333 
#    0.000    1.667    0.000    3.500    0.000    2.333 
#    0.000    0.000    0.000    0.000    0.000    0.000 
#
# Total GULP energy -267567.764450 kJ/mol
# GULP energy per Si atom -5574.328426 kJ/mol
# Density = 1.755758 g / cm^3
# Si number density = 17.597636 Si / 1000 Ang^3
#
#
#
# Elastic Constant Matrix: (Units=GPa)
#
#
# Indices 1 2 3 4 5 6 
#
# 1 64.8562 53.0534 20.4321 0.0000 0.0000 0.0000
# 2 53.0534 177.5174 40.7969 0.0000 0.0000 0.0000
# 3 20.4321 40.7969 24.4891 0.0000 0.0000 0.0000
# 4 0.0000 0.0000 0.0000 9.2747 0.0000 0.0000
# 5 0.0000 0.0000 0.0000 0.0000 -8.0341 0.0000
# 6 0.0000 0.0000 0.0000 0.0000 0.0000 23.1359
#
#
#
# Elastic Compliance Matrix: (Units=1/GPa)
#
#
# Indices 1 2 3 4 5 6 
#
# 1 0.022468 -0.003900 -0.012249 0.000000 0.000000 0.000000
# 2 -0.003900 0.009805 -0.013080 0.000000 0.000000 0.000000
# 3 -0.012249 -0.013080 0.072845 0.000000 0.000000 0.000000
# 4 0.000000 0.000000 0.000000 0.107820 0.000000 0.000000
# 5 0.000000 0.000000 0.000000 0.000000 -0.124470 0.000000
# 6 0.000000 0.000000 0.000000 0.000000 0.000000 0.043223
#
#
# Mechanical properties :
#
#
# Convention : Reuss Voigt Hill
#
# Bulk Modulus (GPa) = 21.43183 55.04751 38.23967
# Shear Modulus (GPa) = 24.30691 15.04732 19.67712
#
# Velocity S-wave (km/s) = 3.72056 2.92734 3.34753
# Velocity P-wave (km/s) = 5.53733 6.54025 6.05958
#
# Compressibility (1/GPa) = 0.04665957
#
# Stress axis : x y z
#
# Youngs Moduli (GPa) = 44.50845 101.99011 13.72770
#
# Poissons Ratio (x) = 0.39773 0.16815
# Poissons Ratio (y) = 0.17357 0.17957
# Poissons Ratio (z) = 0.54518 1.33408
#
# Static dielectric constant tensor:
#      x y z
#    x 1.620830 0.000000 0.000000 
#    y 0.000000 1.621750 0.000000 
#    z 0.000000 0.000000 1.571490 
# 
# From -- ./inp_files/68121.got.cif
#   From: 2010.05.17/outbox.cif.g08.bks.cpg/sg65_35_cif.got.tgz:68121.got - 2010.06.03 17:01:31.
