data_PCOD9489662
_publ_section_title
;
Structure prediction by ZEFSAII (Michael W. Deem and Ramdas Pophale) SiO2 
 PCOD9489662
Probable space group: C M M M
;
_chemical_formula_sum "Si O2"
_cell_formula_units_Z 72
_cell_length_a 10.572701
_cell_length_b 21.624373
_cell_length_c 17.145037
_cell_angle_alpha 90.000000
_cell_angle_beta 90.000000
_cell_angle_gamma 90.000000
_cell_volume 3919.836034
_symmetry_space_group_name_H-M "C M M M"
_symmetry_group_IT_number 65
_symmetry_cell_setting 'orthorhombic'
loop_
_space_group_symop_operation_xyz
x,y,z
-x,-y,z
x,-y,-z
-x,y,-z
-x,-y,-z
x,y,-z
-x,y,z
x,-y,z
1/2+x,1/2+y,z
1/2-x,1/2-y,z
1/2+x,1/2-y,-z
1/2-x,1/2+y,-z
1/2-x,1/2-y,-z
1/2+x,1/2+y,-z
1/2-x,1/2+y,z
1/2+x,1/2-y,z
loop_
_atom_site_type_symbol
_atom_site_label
_atom_site_fract_x
_atom_site_fract_y
_atom_site_fract_z
Si Si1 0.639597 0.664484 0.586391
Si Si2 0.143906 0.631740 0.799581
Si Si3 0.355848 0.426292 0.907018
Si Si4 0.250000 0.250000 0.714733
Si Si5 0.356898 0.927647 0.368419
O O1 0.646133 0.693295 0.500000
O O2 0.500000 0.635934 0.594294
O O3 0.658846 0.713104 0.655662
O O4 0.750100 0.614387 0.593617
O O5 0.249054 0.610164 0.860563
O O6 0.177789 0.699564 0.766479
O O7 0.150080 0.586811 0.724102
O O8 0.000000 0.630094 0.829829
O O9 0.500000 0.409177 0.883599
O O10 0.341610 0.500000 0.893292
O O11 0.344996 0.416434 0.000000
O O12 0.500000 0.910658 0.393332
O O13 0.338160 0.000000 0.383354
#
# Coordination Sequence:
#
# PCOD9489662 Si02
#       5
#    16  16  16   8  16
#     4  10  21  36  55  78 102 133 177 225 267 310
#     4  10  20  34  55  81 106 136 178 223 260 302
#     4   9  19  36  57  82 112 143 172 205 253 312
#     4  10  21  38  55  74 104 142 176 216 267 320
#     4   9  19  35  53  76 108 142 173 210 264 324
#
# _framework density 18.368116000000001
#
# number of rings (size 3 to 8) (size 9 to 14) (size 15 to 20)
#    0.000    2.444    0.000    2.333    0.000    8.444 
#    0.000    3.889    0.000    0.000    0.000    0.000 
#    0.000    0.000    0.000    0.000    0.000    0.000 
#
# Total GULP energy -200817.026324 kJ/mol
# GULP energy per Si atom -5578.250731 kJ/mol
# Density = 1.832631 g / cm^3
# Si number density = 18.368116 Si / 1000 Ang^3
#
#
#
# Elastic Constant Matrix: (Units=GPa)
#
#
# Indices 1 2 3 4 5 6 
#
# 1 185.7163 70.8571 75.6611 0.0000 0.0000 0.0000
# 2 70.8571 73.1699 38.0046 0.0000 0.0000 0.0000
# 3 75.6611 38.0046 68.1403 0.0000 0.0000 0.0000
# 4 0.0000 0.0000 0.0000 -12.5255 0.0000 0.0000
# 5 0.0000 0.0000 0.0000 0.0000 79.1227 0.0000
# 6 0.0000 0.0000 0.0000 0.0000 0.0000 17.8062
#
#
#
# Elastic Compliance Matrix: (Units=1/GPa)
#
#
# Indices 1 2 3 4 5 6 
#
# 1 0.011641 -0.006419 -0.009346 0.000000 0.000000 0.000000
# 2 -0.006419 0.022780 -0.005578 0.000000 0.000000 0.000000
# 3 -0.009346 -0.005578 0.028164 0.000000 0.000000 0.000000
# 4 0.000000 0.000000 0.000000 -0.079837 0.000000 0.000000
# 5 0.000000 0.000000 0.000000 0.000000 0.012639 0.000000
# 6 0.000000 0.000000 0.000000 0.000000 0.000000 0.056160
#
#
# Mechanical properties :
#
#
# Convention : Reuss Voigt Hill
#
# Bulk Modulus (GPa) = 50.25201 77.34133 63.79667
# Shear Modulus (GPa) = 49.57077 26.38093 37.97585
#
# Velocity S-wave (km/s) = 5.20058 3.79388 4.55190
# Velocity P-wave (km/s) = 7.96737 7.83512 7.90152
#
# Compressibility (1/GPa) = 0.01989970
#
# Stress axis : x y z
#
# Youngs Moduli (GPa) = 85.90242 43.89811 35.50622
#
# Poissons Ratio (x) = 0.28178 0.33184
# Poissons Ratio (y) = 0.55140 0.19805
# Poissons Ratio (z) = 0.80284 0.24486
#
# Static dielectric constant tensor:
#      x y z
#    x 1.632710 0.000000 0.000000 
#    y 0.000000 1.612040 0.000000 
#    z 0.000000 0.000000 1.623750 
# 
# From -- ./inp_files/49524.got.cif
#   From: 2010.05.17/outbox.cif.g08.bks.cpg/sg65_25_cif.got.tgz:49524.got - 2010.06.03 17:01:31.
