data_PCOD9489023
_publ_section_title
;
Structure prediction by ZEFSAII (Michael W. Deem and Ramdas Pophale) SiO2 
 PCOD9489023
Probable space group: C M M M
;
_chemical_formula_sum "Si O2"
_cell_formula_units_Z 88
_cell_length_a 22.108056
_cell_length_b 19.314301
_cell_length_c 11.354322
_cell_angle_alpha 90.000000
_cell_angle_beta 90.000000
_cell_angle_gamma 90.000000
_cell_volume 4848.314207
_symmetry_space_group_name_H-M "C M M M"
_symmetry_group_IT_number 65
_symmetry_cell_setting 'orthorhombic'
loop_
_space_group_symop_operation_xyz
x,y,z
-x,-y,z
x,-y,-z
-x,y,-z
-x,-y,-z
x,y,-z
-x,y,z
x,-y,z
1/2+x,1/2+y,z
1/2-x,1/2-y,z
1/2+x,1/2-y,-z
1/2-x,1/2+y,-z
1/2-x,1/2-y,-z
1/2+x,1/2+y,-z
1/2-x,1/2+y,z
1/2+x,1/2-y,z
loop_
_atom_site_type_symbol
_atom_site_label
_atom_site_fract_x
_atom_site_fract_y
_atom_site_fract_z
Si Si1 0.705171 0.420809 0.870669
Si Si2 0.112804 0.833749 0.253471
Si Si3 0.340795 0.922549 0.788121
Si Si4 0.928946 0.612313 0.000000
Si Si5 0.570342 0.278432 0.000000
Si Si6 0.813992 0.714375 0.361184
Si Si7 0.500000 0.581884 0.641843
O O1 0.684088 0.500000 0.867831
O O2 0.671624 0.380891 0.767966
O O3 0.776884 0.420912 0.856290
O O4 0.690890 0.391759 0.000000
O O5 0.133597 0.769898 0.333256
O O6 0.058597 0.878742 0.306745
O O7 0.096133 0.806169 0.123269
O O8 0.394097 0.913365 0.883334
O O9 0.333357 0.857198 0.701457
O O10 0.346042 0.000000 0.733978
O O11 0.923704 0.695547 0.000000
O O12 0.000000 0.593696 0.000000
O O13 0.500000 0.297413 0.000000
O O14 0.807655 0.702490 0.500000
O O15 0.750000 0.750000 0.319702
O O16 0.500000 0.500000 0.673590
O O17 0.500000 0.586514 0.500000
#
# Coordination Sequence:
#
# PCOD9489023 Si02
#       7
#    16  16  16   8   8  16   8
#     4  10  20  33  55  90 126 159 194 246 315 377
#     4  12  21  39  64  89 122 162 211 258 312 374
#     4  11  22  39  62  89 126 162 201 254 314 380
#     4  11  23  39  63  95 126 158 198 253 316 395
#     4  11  22  36  58  92 121 151 198 252 311 368
#     4  11  24  41  62  89 121 162 213 261 307 366
#     4  11  26  45  63  87 126 176 222 262 306 368
#
# _framework density 18.150639000000002
#
# number of rings (size 3 to 8) (size 9 to 14) (size 15 to 20)
#    0.000    1.000    6.364    1.364    0.000    1.091 
#    0.000    3.182    0.000    0.000    0.000    1.273 
#    0.000    0.000    0.000    0.000    0.000    0.000 
#
# Total GULP energy -245408.244121 kJ/mol
# GULP energy per Si atom -5577.460094 kJ/mol
# Density = 1.810933 g / cm^3
# Si number density = 18.150639 Si / 1000 Ang^3
#
#
#
# Elastic Constant Matrix: (Units=GPa)
#
#
# Indices 1 2 3 4 5 6 
#
# 1 108.0476 57.9677 28.3297 0.0000 0.0000 0.0000
# 2 57.9677 137.7259 53.2696 0.0000 0.0000 0.0000
# 3 28.3297 53.2696 69.1679 0.0000 0.0000 0.0000
# 4 0.0000 0.0000 0.0000 17.6160 0.0000 0.0000
# 5 0.0000 0.0000 0.0000 0.0000 24.8613 0.0000
# 6 0.0000 0.0000 0.0000 0.0000 0.0000 28.8790
#
#
#
# Elastic Compliance Matrix: (Units=1/GPa)
#
#
# Indices 1 2 3 4 5 6 
#
# 1 0.012058 -0.004508 -0.001467 0.000000 0.000000 0.000000
# 2 -0.004508 0.012026 -0.007416 0.000000 0.000000 0.000000
# 3 -0.001467 -0.007416 0.020770 0.000000 0.000000 0.000000
# 4 0.000000 0.000000 0.000000 0.056766 0.000000 0.000000
# 5 0.000000 0.000000 0.000000 0.000000 0.040223 0.000000
# 6 0.000000 0.000000 0.000000 0.000000 0.000000 0.034627
#
#
# Mechanical properties :
#
#
# Convention : Reuss Voigt Hill
#
# Bulk Modulus (GPa) = 55.33131 66.00837 60.66984
# Shear Modulus (GPa) = 23.89176 25.96288 24.92732
#
# Velocity S-wave (km/s) = 3.63203 3.78618 3.70990
# Velocity P-wave (km/s) = 6.93826 7.45382 7.20066
#
# Compressibility (1/GPa) = 0.01807295
#
# Stress axis : x y z
#
# Youngs Moduli (GPa) = 82.93050 83.15057 48.14683
#
# Poissons Ratio (x) = 0.37482 0.07064
# Poissons Ratio (y) = 0.37383 0.35705
# Poissons Ratio (z) = 0.12167 0.61663
#
# Static dielectric constant tensor:
#      x y z
#    x 1.611900 0.000000 0.000000 
#    y 0.000000 1.636230 0.000000 
#    z 0.000000 0.000000 1.605610 
# 
# From -- ./inp_files/26854.got.cif
#   From: 2010.05.17/outbox.cif.g08.bks.cpg/sg65_14_cif.got.tgz:26854.got - 2010.06.03 17:01:31.
