data_PCOD9489148
_publ_section_title
;
Structure prediction by ZEFSAII (Michael W. Deem and Ramdas Pophale) SiO2 
 PCOD9489148
Probable space group: C M M M
;
_chemical_formula_sum "Si O2"
_cell_formula_units_Z 80
_cell_length_a 19.962677
_cell_length_b 7.731441
_cell_length_c 26.123924
_cell_angle_alpha 90.000000
_cell_angle_beta 90.000000
_cell_angle_gamma 90.000000
_cell_volume 4031.973207
_symmetry_space_group_name_H-M "C M M M"
_symmetry_group_IT_number 65
_symmetry_cell_setting 'orthorhombic'
loop_
_space_group_symop_operation_xyz
x,y,z
-x,-y,z
x,-y,-z
-x,y,-z
-x,-y,-z
x,y,-z
-x,y,z
x,-y,z
1/2+x,1/2+y,z
1/2-x,1/2-y,z
1/2+x,1/2-y,-z
1/2-x,1/2+y,-z
1/2-x,1/2-y,-z
1/2+x,1/2+y,-z
1/2-x,1/2+y,z
1/2+x,1/2-y,z
loop_
_atom_site_type_symbol
_atom_site_label
_atom_site_fract_x
_atom_site_fract_y
_atom_site_fract_z
Si Si1 0.673311 0.206078 0.762597
Si Si2 0.674167 0.708323 0.058292
Si Si3 0.422587 0.211226 0.557191
Si Si4 0.075748 0.206031 0.145716
Si Si5 0.673474 0.208099 0.353084
O O1 0.750000 0.250000 0.777157
O O2 0.619234 0.268358 0.803270
O O3 0.661372 0.273794 0.704780
O O4 0.668675 0.000000 0.761050
O O5 0.669037 0.500000 0.056856
O O6 0.750000 0.750000 0.074919
O O7 0.619388 0.775817 0.098149
O O8 0.665447 0.772684 0.000000
O O9 0.401081 0.265376 0.500000
O O10 0.500000 0.261693 0.564294
O O11 0.376292 0.273730 0.603272
O O12 0.421010 0.000000 0.557575
O O13 0.000000 0.275440 0.149068
O O14 0.070513 0.000000 0.137995
O O15 0.750000 0.250000 0.366291
O O16 0.666623 0.000000 0.351348
#
# Coordination Sequence:
#
# PCOD9489148 Si02
#       5
#    16  16  16  16  16
#     4  10  20  34  52  72  97 130 166 204 245 291
#     4   9  18  33  53  75  98 127 163 200 239 285
#     4   8  14  26  45  68  93 122 157 195 233 276
#     4  10  21  35  51  74 103 132 163 201 244 289
#     4   9  18  31  48  71  96 122 155 196 240 284
#
# _framework density 19.841401999999999
#
# number of rings (size 3 to 8) (size 9 to 14) (size 15 to 20)
#    0.000    2.800    0.000    1.800    0.000    5.200 
#    0.000    4.000    0.000    0.600    0.000    5.600 
#    0.000    0.000    0.000    0.000    0.000    0.000 
#
# Total GULP energy -223145.528481 kJ/mol
# GULP energy per Si atom -5578.638212 kJ/mol
# Density = 1.979624 g / cm^3
# Si number density = 19.841402 Si / 1000 Ang^3
#
#
#
# Elastic Constant Matrix: (Units=GPa)
#
#
# Indices 1 2 3 4 5 6 
#
# 1 176.3677 2.9975 136.2169 0.0000 0.0000 0.0000
# 2 2.9975 31.3143 3.6216 0.0000 0.0000 0.0000
# 3 136.2169 3.6216 151.6789 0.0000 0.0000 0.0000
# 4 0.0000 0.0000 0.0000 352.6477 0.0000 0.0000
# 5 0.0000 0.0000 0.0000 0.0000 -40.7449 0.0000
# 6 0.0000 0.0000 0.0000 0.0000 0.0000 19.2320
#
#
#
# Elastic Compliance Matrix: (Units=1/GPa)
#
#
# Indices 1 2 3 4 5 6 
#
# 1 0.018507 0.000151 -0.016624 0.000000 0.000000 0.000000
# 2 0.000151 0.032024 -0.000900 0.000000 0.000000 0.000000
# 3 -0.016624 -0.000900 0.021543 0.000000 0.000000 0.000000
# 4 0.000000 0.000000 0.000000 0.002836 0.000000 0.000000
# 5 0.000000 0.000000 0.000000 0.000000 -0.024543 0.000000
# 6 0.000000 0.000000 0.000000 0.000000 0.000000 0.051997
#
#
# Mechanical properties :
#
#
# Convention : Reuss Voigt Hill
#
# Bulk Modulus (GPa) = 26.78941 71.67034 49.22987
# Shear Modulus (GPa) = 33.43313 80.66194 57.04754
#
# Velocity S-wave (km/s) = 4.10935 6.38291 5.36788
# Velocity P-wave (km/s) = 6.00390 9.51431 7.95515
#
# Compressibility (1/GPa) = 0.03732819
#
# Stress axis : x y z
#
# Youngs Moduli (GPa) = 54.03454 31.22664 46.41773
#
# Poissons Ratio (x) = -0.00472 0.77164
# Poissons Ratio (y) = -0.00816 0.04179
# Poissons Ratio (z) = 0.89826 0.02811
#
# Static dielectric constant tensor:
#      x y z
#    x 1.655830 0.000000 0.000000 
#    y 0.000000 1.819210 0.000000 
#    z 0.000000 0.000000 1.713890 
# 
# From -- ./inp_files/72767.got.cif
#   From: 2010.05.17/outbox.cif.g08.bks.cpg/sg65_37_cif.got.tgz:72767.got - 2010.06.03 17:01:31.
