data_PCOD9489379
_publ_section_title
;
Structure prediction by ZEFSAII (Michael W. Deem and Ramdas Pophale) SiO2 
 PCOD9489379
Probable space group: C M M M
;
_chemical_formula_sum "Si O2"
_cell_formula_units_Z 104
_cell_length_a 29.717308
_cell_length_b 8.936166
_cell_length_c 23.463235
_cell_angle_alpha 90.000000
_cell_angle_beta 90.000000
_cell_angle_gamma 90.000000
_cell_volume 6230.868469
_symmetry_space_group_name_H-M "C M M M"
_symmetry_group_IT_number 65
_symmetry_cell_setting 'orthorhombic'
loop_
_space_group_symop_operation_xyz
x,y,z
-x,-y,z
x,-y,-z
-x,y,-z
-x,-y,-z
x,y,-z
-x,y,z
x,-y,z
1/2+x,1/2+y,z
1/2-x,1/2-y,z
1/2+x,1/2-y,-z
1/2-x,1/2+y,-z
1/2-x,1/2-y,-z
1/2+x,1/2+y,-z
1/2-x,1/2+y,z
1/2+x,1/2-y,z
loop_
_atom_site_type_symbol
_atom_site_label
_atom_site_fract_x
_atom_site_fract_y
_atom_site_fract_z
Si Si1 0.889887 0.680474 0.110328
Si Si2 0.201691 0.821216 0.067961
Si Si3 0.946109 0.671848 0.668055
Si Si4 0.551607 0.181545 0.000000
Si Si5 0.205385 0.170025 0.569236
Si Si6 0.605738 0.318372 0.433990
Si Si7 0.446888 0.320859 0.211942
O O1 0.887378 0.500000 0.112164
O O2 0.840316 0.748085 0.100620
O O3 0.920682 0.725659 0.056009
O O4 0.915276 0.743109 0.165564
O O5 0.250000 0.750000 0.083568
O O6 0.202623 0.000000 0.076481
O O7 0.195178 0.792648 0.000000
O O8 0.930543 0.500000 0.672215
O O9 0.927414 0.749232 0.611580
O O10 0.934286 0.762439 0.725175
O O11 0.000000 0.671193 0.664939
O O12 0.500000 0.235925 0.000000
O O13 0.549928 0.000000 0.000000
O O14 0.207261 0.167656 0.500000
O O15 0.250000 0.250000 0.590248
O O16 0.156311 0.234335 0.581961
O O17 0.206324 0.000000 0.589312
O O18 0.596517 0.277506 0.500000
O O19 0.605280 0.500000 0.431610
O O20 0.500000 0.282936 0.202084
O O21 0.442694 0.500000 0.209034
#
# Coordination Sequence:
#
# PCOD9489379 Si02
#       7
#    16  16  16   8  16  16  16
#     4  11  20  33  54  79 109 141 176 215 263 314
#     4  10  20  34  53  77 108 142 181 223 265 312
#     4  10  21  36  53  74 100 132 173 218 261 308
#     4   9  18  30  46  73 108 141 170 205 252 305
#     4   8  14  25  42  66  96 128 161 196 236 287
#     4   9  18  32  50  74 104 136 169 207 256 313
#     4  10  21  37  56  77 102 136 177 217 260 314
#
# _framework density 16.691092000000001
#
# number of rings (size 3 to 8) (size 9 to 14) (size 15 to 20)
#    0.000    2.385    0.769    3.231    0.000    4.308 
#    0.000    3.077    0.000    2.769    0.000    4.308 
#    0.000    0.000    0.000    0.000    0.000    0.000 
#
# Total GULP energy -289894.658836 kJ/mol
# GULP energy per Si atom -5574.897285 kJ/mol
# Density = 1.665310 g / cm^3
# Si number density = 16.691092 Si / 1000 Ang^3
#
#
#
# Elastic Constant Matrix: (Units=GPa)
#
#
# Indices 1 2 3 4 5 6 
#
# 1 101.4371 49.6720 64.7766 0.0000 0.0000 0.0000
# 2 49.6720 66.3956 46.3584 0.0000 0.0000 0.0000
# 3 64.7766 46.3584 103.6326 0.0000 0.0000 0.0000
# 4 0.0000 0.0000 0.0000 25.1501 0.0000 0.0000
# 5 0.0000 0.0000 0.0000 0.0000 2.4804 0.0000
# 6 0.0000 0.0000 0.0000 0.0000 0.0000 29.9234
#
#
#
# Elastic Compliance Matrix: (Units=1/GPa)
#
#
# Indices 1 2 3 4 5 6 
#
# 1 0.019392 -0.008790 -0.008189 0.000000 0.000000 0.000000
# 2 -0.008790 0.025886 -0.006086 0.000000 0.000000 0.000000
# 3 -0.008189 -0.006086 0.017491 0.000000 0.000000 0.000000
# 4 0.000000 0.000000 0.000000 0.039761 0.000000 0.000000
# 5 0.000000 0.000000 0.000000 0.000000 0.403160 0.000000
# 6 0.000000 0.000000 0.000000 0.000000 0.000000 0.033419
#
#
# Mechanical properties :
#
#
# Convention : Reuss Voigt Hill
#
# Bulk Modulus (GPa) = 60.09805 65.89771 62.99788
# Shear Modulus (GPa) = 8.46332 18.88801 13.67566
#
# Velocity S-wave (km/s) = 2.25423 3.36761 2.86552
# Velocity P-wave (km/s) = 6.54673 7.39510 6.98381
#
# Compressibility (1/GPa) = 0.01663947
#
# Stress axis : x y z
#
# Youngs Moduli (GPa) = 51.56747 38.63075 57.17378
#
# Poissons Ratio (x) = 0.33956 0.46821
# Poissons Ratio (y) = 0.45327 0.34794
# Poissons Ratio (z) = 0.42230 0.23509
#
# Static dielectric constant tensor:
#      x y z
#    x 1.565740 0.000000 0.000000 
#    y 0.000000 1.573900 0.000000 
#    z 0.000000 0.000000 1.531410 
# 
# From -- ./inp_files/66389.got.cif
#   From: 2010.05.17/outbox.cif.g08.bks.cpg/sg65_34_cif.got.tgz:66389.got - 2010.06.03 17:01:31.
