data_PCOD9489228
_publ_section_title
;
Structure prediction by ZEFSAII (Michael W. Deem and Ramdas Pophale) SiO2 
 PCOD9489228
Probable space group: C M M M
;
_chemical_formula_sum "Si O2"
_cell_formula_units_Z 72
_cell_length_a 8.938649
_cell_length_b 17.201559
_cell_length_c 24.482627
_cell_angle_alpha 90.000000
_cell_angle_beta 90.000000
_cell_angle_gamma 90.000000
_cell_volume 3764.416855
_symmetry_space_group_name_H-M "C M M M"
_symmetry_group_IT_number 65
_symmetry_cell_setting 'orthorhombic'
loop_
_space_group_symop_operation_xyz
x,y,z
-x,-y,z
x,-y,-z
-x,y,-z
-x,-y,-z
x,y,-z
-x,y,z
x,-y,z
1/2+x,1/2+y,z
1/2-x,1/2-y,z
1/2+x,1/2-y,-z
1/2-x,1/2+y,-z
1/2-x,1/2-y,-z
1/2+x,1/2+y,-z
1/2-x,1/2+y,z
1/2+x,1/2-y,z
loop_
_atom_site_type_symbol
_atom_site_label
_atom_site_fract_x
_atom_site_fract_y
_atom_site_fract_z
Si Si1 0.681583 0.092187 0.441289
Si Si2 0.677848 0.834824 0.893532
Si Si3 0.171923 0.092838 0.000000
Si Si4 0.825200 0.594995 0.322657
Si Si5 0.328900 0.406101 0.788690
O O1 0.732937 0.125229 0.500000
O O2 0.500000 0.096865 0.440331
O O3 0.731726 0.122910 0.382195
O O4 0.717705 0.000000 0.442144
O O5 0.500000 0.830728 0.897540
O O6 0.750000 0.750000 0.892796
O O7 0.727262 0.876880 0.837911
O O8 0.745082 0.878344 0.945947
O O9 0.000000 0.121574 0.000000
O O10 0.169214 0.000000 0.000000
O O11 0.820444 0.500000 0.324145
O O12 0.731879 0.620482 0.270224
O O13 0.000000 0.616003 0.316080
O O14 0.500000 0.380493 0.797247
O O15 0.326842 0.500000 0.788635
#
# Coordination Sequence:
#
# PCOD9489228 Si02
#       5
#    16  16   8  16  16
#     4   7   9  14  27  50  81 117 158 205 255 305
#     4  12  25  41  61  84 112 143 178 218 261 309
#     4  11  24  43  66  91 119 147 176 211 252 299
#     4   8  13  22  38  61  89 124 168 214 259 309
#     4  10  20  34  52  75 105 140 178 220 266 314
#
# _framework density 19.126467999999999
#
# number of rings (size 3 to 8) (size 9 to 14) (size 15 to 20)
#    0.000    2.556    0.000    6.000    0.000    4.889 
#    0.000    0.000    0.000    0.667    0.000    4.667 
#    0.000    0.889    0.000    2.444    0.000    6.222 
#
# Total GULP energy -200706.335878 kJ/mol
# GULP energy per Si atom -5575.175997 kJ/mol
# Density = 1.908294 g / cm^3
# Si number density = 19.126468 Si / 1000 Ang^3
#
#
#
# Elastic Constant Matrix: (Units=GPa)
#
#
# Indices 1 2 3 4 5 6 
#
# 1 126.0862 20.7549 71.8952 0.0000 0.0000 0.0000
# 2 20.7549 17.2674 25.6608 0.0000 0.0000 0.0000
# 3 71.8952 25.6608 196.0889 0.0000 0.0000 0.0000
# 4 0.0000 0.0000 0.0000 -22.3683 0.0000 0.0000
# 5 0.0000 0.0000 0.0000 0.0000 20.5175 0.0000
# 6 0.0000 0.0000 0.0000 0.0000 0.0000 17.2150
#
#
#
# Elastic Compliance Matrix: (Units=1/GPa)
#
#
# Indices 1 2 3 4 5 6 
#
# 1 0.011053 -0.009017 -0.002873 0.000000 0.000000 0.000000
# 2 -0.009017 0.079249 -0.007065 0.000000 0.000000 0.000000
# 3 -0.002873 -0.007065 0.007078 0.000000 0.000000 0.000000
# 4 0.000000 0.000000 0.000000 -0.044706 0.000000 0.000000
# 5 0.000000 0.000000 0.000000 0.000000 0.048739 0.000000
# 6 0.000000 0.000000 0.000000 0.000000 0.000000 0.058089
#
#
# Mechanical properties :
#
#
# Convention : Reuss Voigt Hill
#
# Bulk Modulus (GPa) = 16.81476 64.00715 40.41096
# Shear Modulus (GPa) = 23.01666 17.81496 20.41581
#
# Velocity S-wave (km/s) = 3.47276 3.05524 3.27067
# Velocity P-wave (km/s) = 4.98904 6.78114 5.95292
#
# Compressibility (1/GPa) = 0.05947154
#
# Stress axis : x y z
#
# Youngs Moduli (GPa) = 90.47040 12.61843 141.29225
#
# Poissons Ratio (x) = 0.11378 0.40589
# Poissons Ratio (y) = 0.81574 0.99821
# Poissons Ratio (z) = 0.25990 0.08915
#
# Static dielectric constant tensor:
#      x y z
#    x 1.644780 0.000000 0.000000 
#    y 0.000000 1.664890 0.000000 
#    z 0.000000 0.000000 1.714890 
# 
# From -- ./inp_files/67002.got.cif
#   From: 2010.05.17/outbox.cif.g08.bks.cpg/sg65_34_cif.got.tgz:67002.got - 2010.06.03 17:01:31.
