data_PCOD9489939
_publ_section_title
;
Structure prediction by ZEFSAII (Michael W. Deem and Ramdas Pophale) SiO2 
 PCOD9489939
Probable space group: C M M M
;
_chemical_formula_sum "Si O2"
_cell_formula_units_Z 72
_cell_length_a 28.149023
_cell_length_b 16.744374
_cell_length_c 9.039169
_cell_angle_alpha 90.000000
_cell_angle_beta 90.000000
_cell_angle_gamma 90.000000
_cell_volume 4260.501749
_symmetry_space_group_name_H-M "C M M M"
_symmetry_group_IT_number 65
_symmetry_cell_setting 'orthorhombic'
loop_
_space_group_symop_operation_xyz
x,y,z
-x,-y,z
x,-y,-z
-x,y,-z
-x,-y,-z
x,y,-z
-x,y,z
x,-y,z
1/2+x,1/2+y,z
1/2-x,1/2-y,z
1/2+x,1/2-y,-z
1/2-x,1/2+y,-z
1/2-x,1/2-y,-z
1/2+x,1/2+y,-z
1/2-x,1/2+y,z
1/2+x,1/2-y,z
loop_
_atom_site_type_symbol
_atom_site_label
_atom_site_fract_x
_atom_site_fract_y
_atom_site_fract_z
Si Si1 0.942314 0.000000 0.169779
Si Si2 0.056486 0.165700 0.675547
Si Si3 0.687447 0.909504 0.321855
Si Si4 0.281888 0.669327 0.332029
Si Si5 0.363002 0.241155 0.824288
O O1 0.928641 0.080620 0.254517
O O2 0.000000 0.000000 0.167078
O O3 0.925613 0.000000 0.000000
O O4 0.064760 0.165220 0.500000
O O5 0.087156 0.234059 0.752824
O O6 0.000000 0.175577 0.700670
O O7 0.683973 0.897218 0.500000
O O8 0.743254 0.896045 0.284716
O O9 0.656812 0.842063 0.241039
O O10 0.673189 0.000000 0.287593
O O11 0.298550 0.653086 0.500000
O O12 0.250000 0.750000 0.337404
O O13 0.325419 0.690808 0.227504
O O14 0.365602 0.237625 0.000000
#
# Coordination Sequence:
#
# PCOD9489939 Si02
#       5
#     8  16  16  16  16
#     4   9  17  31  51  75 103 129 157 203 259 305
#     4  10  20  35  55  76 100 136 179 215 250 301
#     4   9  18  34  55  76 100 134 175 216 256 303
#     4   8  15  30  50  70  96 129 167 208 247 297
#     4  11  21  32  50  76 107 139 169 210 262 309
#
# _framework density 16.899419000000002
#
# number of rings (size 3 to 8) (size 9 to 14) (size 15 to 20)
#    0.000    2.556    0.000    4.333    0.000    7.111 
#    2.000    0.000    0.000    0.667    0.000    4.667 
#    0.000    0.000    0.000    0.000    0.000    0.000 
#
# Total GULP energy -200684.964085 kJ/mol
# GULP energy per Si atom -5574.582336 kJ/mol
# Density = 1.686096 g / cm^3
# Si number density = 16.899419 Si / 1000 Ang^3
#
#
#
# Elastic Constant Matrix: (Units=GPa)
#
#
# Indices 1 2 3 4 5 6 
#
# 1 68.8668 50.5312 62.5115 0.0000 0.0000 0.0000
# 2 50.5312 103.3048 63.0740 0.0000 0.0000 0.0000
# 3 62.5115 63.0740 116.8794 0.0000 0.0000 0.0000
# 4 0.0000 0.0000 0.0000 13.3134 0.0000 0.0000
# 5 0.0000 0.0000 0.0000 0.0000 19.1316 0.0000
# 6 0.0000 0.0000 0.0000 0.0000 0.0000 23.8126
#
#
#
# Elastic Compliance Matrix: (Units=1/GPa)
#
#
# Indices 1 2 3 4 5 6 
#
# 1 0.031888 -0.007733 -0.012882 0.000000 0.000000 0.000000
# 2 -0.007733 0.016312 -0.004667 0.000000 0.000000 0.000000
# 3 -0.012882 -0.004667 0.017964 0.000000 0.000000 0.000000
# 4 0.000000 0.000000 0.000000 0.075112 0.000000 0.000000
# 5 0.000000 0.000000 0.000000 0.000000 0.052270 0.000000
# 6 0.000000 0.000000 0.000000 0.000000 0.000000 0.041995
#
#
# Mechanical properties :
#
#
# Convention : Reuss Voigt Hill
#
# Bulk Modulus (GPa) = 64.09950 71.25383 67.67666
# Shear Modulus (GPa) = 17.16424 18.78048 17.97236
#
# Velocity S-wave (km/s) = 3.19042 3.33725 3.26466
# Velocity P-wave (km/s) = 7.18220 7.55676 7.37186
#
# Compressibility (1/GPa) = 0.01560075
#
# Stress axis : x y z
#
# Youngs Moduli (GPa) = 31.36015 61.30455 55.66656
#
# Poissons Ratio (x) = 0.47404 0.71709
# Poissons Ratio (y) = 0.24249 0.25980
# Poissons Ratio (z) = 0.40398 0.28611
#
# Static dielectric constant tensor:
#      x y z
#    x 1.583600 0.000000 0.000000 
#    y 0.000000 1.576580 0.000000 
#    z 0.000000 0.000000 1.561600 
# 
# From -- ./inp_files/7270.got.cif
#   From: 2010.05.17/outbox.cif.g08.bks.cpg/sg65_4_cif.got.tgz:7270.got - 2010.06.03 17:01:31.
