data_PCOD9489133
_publ_section_title
;
Structure prediction by ZEFSAII (Michael W. Deem and Ramdas Pophale) SiO2 
 PCOD9489133
Probable space group: C M M M
;
_chemical_formula_sum "Si O2"
_cell_formula_units_Z 104
_cell_length_a 9.229470
_cell_length_b 28.619336
_cell_length_c 29.390597
_cell_angle_alpha 90.000000
_cell_angle_beta 90.000000
_cell_angle_gamma 90.000000
_cell_volume 7763.270588
_symmetry_space_group_name_H-M "C M M M"
_symmetry_group_IT_number 65
_symmetry_cell_setting 'orthorhombic'
loop_
_space_group_symop_operation_xyz
x,y,z
-x,-y,z
x,-y,-z
-x,y,-z
-x,-y,-z
x,y,-z
-x,y,z
x,-y,z
1/2+x,1/2+y,z
1/2-x,1/2-y,z
1/2+x,1/2-y,-z
1/2-x,1/2+y,-z
1/2-x,1/2-y,-z
1/2+x,1/2+y,-z
1/2-x,1/2+y,z
1/2+x,1/2-y,z
loop_
_atom_site_type_symbol
_atom_site_label
_atom_site_fract_x
_atom_site_fract_y
_atom_site_fract_z
Si Si1 0.172229 0.945366 0.176714
Si Si2 0.166666 0.443121 0.731578
Si Si3 0.833129 0.057003 0.359189
Si Si4 0.830778 0.443239 0.449572
Si Si5 0.670412 0.056042 0.000000
Si Si6 0.674156 0.607858 0.917025
Si Si7 0.671108 0.798898 0.945332
O O1 0.255474 0.929062 0.221743
O O2 0.202734 0.915443 0.131892
O O3 0.000000 0.943492 0.185587
O O4 0.209407 0.000000 0.168156
O O5 0.170206 0.500000 0.731172
O O6 0.248203 0.427647 0.685901
O O7 0.000000 0.428519 0.730890
O O8 0.759569 0.072923 0.406161
O O9 0.000000 0.070991 0.357002
O O10 0.828804 0.000000 0.359447
O O11 0.780918 0.428069 0.500000
O O12 0.824530 0.500000 0.449522
O O13 0.000000 0.430877 0.444464
O O14 0.751056 0.076654 0.043983
O O15 0.500000 0.069940 0.000000
O O16 0.677946 0.000000 0.000000
O O17 0.500000 0.609941 0.923973
O O18 0.745961 0.658680 0.921401
O O19 0.500000 0.797570 0.934257
O O20 0.750000 0.750000 0.935145
O O21 0.682832 0.806500 0.000000
#
# Coordination Sequence:
#
# PCOD9489133 Si02
#       7
#    16  16  16  16   8  16  16
#     4   9  18  31  44  59  80 105 132 161 193 231
#     4   9  16  25  37  51  66  88 119 153 188 225
#     4   9  15  21  30  43  59  80 107 142 182 224
#     4   8  13  20  28  38  54  76 102 135 177 224
#     4  11  23  35  46  63  88 115 141 167 193 227
#     4  11  21  33  50  68  87 110 135 162 197 238
#     4  10  20  34  52  71  91 110 132 161 194 231
#
# _framework density 13.396414999999999
#
# number of rings (size 3 to 8) (size 9 to 14) (size 15 to 20)
#    0.000    2.538    0.769    3.000    0.000    7.077 
#    0.000    3.077    0.000    0.000    0.000    0.000 
#    0.000    0.000    0.000    0.000    0.000    0.000 
#
# Total GULP energy -289727.109428 kJ/mol
# GULP energy per Si atom -5571.675181 kJ/mol
# Density = 1.336592 g / cm^3
# Si number density = 13.396415 Si / 1000 Ang^3
#
#
#
# Elastic Constant Matrix: (Units=GPa)
#
#
# Indices 1 2 3 4 5 6 
#
# 1 105.6074 37.1836 89.9429 0.0000 0.0000 0.0000
# 2 37.1836 45.9066 37.6619 0.0000 0.0000 0.0000
# 3 89.9429 37.6619 140.0338 0.0000 0.0000 0.0000
# 4 0.0000 0.0000 0.0000 0.8353 0.0000 0.0000
# 5 0.0000 0.0000 0.0000 0.0000 25.7967 0.0000
# 6 0.0000 0.0000 0.0000 0.0000 0.0000 13.8531
#
#
#
# Elastic Compliance Matrix: (Units=1/GPa)
#
#
# Indices 1 2 3 4 5 6 
#
# 1 0.023192 -0.008423 -0.012631 0.000000 0.000000 0.000000
# 2 -0.008423 0.031010 -0.002930 0.000000 0.000000 0.000000
# 3 -0.012631 -0.002930 0.016042 0.000000 0.000000 0.000000
# 4 0.000000 0.000000 0.000000 1.197236 0.000000 0.000000
# 5 0.000000 0.000000 0.000000 0.000000 0.038765 0.000000
# 6 0.000000 0.000000 0.000000 0.000000 0.000000 0.072186
#
#
# Mechanical properties :
#
#
# Convention : Reuss Voigt Hill
#
# Bulk Modulus (GPa) = 44.89118 69.01385 56.95251
# Shear Modulus (GPa) = 3.48718 16.54764 10.01741
#
# Velocity S-wave (km/s) = 1.61515 3.51840 2.73750
# Velocity P-wave (km/s) = 6.08777 8.25433 7.25241
#
# Compressibility (1/GPa) = 0.02227609
#
# Stress axis : x y z
#
# Youngs Moduli (GPa) = 43.11861 32.24814 62.33723
#
# Poissons Ratio (x) = 0.27162 0.78736
# Poissons Ratio (y) = 0.36318 0.18265
# Poissons Ratio (z) = 0.54462 0.09449
#
# Static dielectric constant tensor:
#      x y z
#    x 1.448190 0.000000 0.000000 
#    y 0.000000 1.403350 0.000000 
#    z 0.000000 0.000000 1.437950 
# 
# From -- ./inp_files/74052.got.cif
#   From: 2010.05.17/outbox.cif.g08.bks.cpg/sg65_38_cif.got.tgz:74052.got - 2010.06.03 17:01:31.
