data_PCOD9489892
_publ_section_title
;
Structure prediction by ZEFSAII (Michael W. Deem and Ramdas Pophale) SiO2 
 PCOD9489892
Probable space group: C M M M
;
_chemical_formula_sum "Si O2"
_cell_formula_units_Z 88
_cell_length_a 8.454124
_cell_length_b 28.123860
_cell_length_c 21.939757
_cell_angle_alpha 90.000000
_cell_angle_beta 90.000000
_cell_angle_gamma 90.000000
_cell_volume 5216.453663
_symmetry_space_group_name_H-M "C M M M"
_symmetry_group_IT_number 65
_symmetry_cell_setting 'orthorhombic'
loop_
_space_group_symop_operation_xyz
x,y,z
-x,-y,z
x,-y,-z
-x,y,-z
-x,-y,-z
x,y,-z
-x,y,z
x,-y,z
1/2+x,1/2+y,z
1/2-x,1/2-y,z
1/2+x,1/2-y,-z
1/2-x,1/2+y,-z
1/2-x,1/2-y,-z
1/2+x,1/2+y,-z
1/2-x,1/2+y,z
1/2+x,1/2-y,z
loop_
_atom_site_type_symbol
_atom_site_label
_atom_site_fract_x
_atom_site_fract_y
_atom_site_fract_z
Si Si1 0.692503 0.053043 0.746322
Si Si2 0.808783 0.696092 0.067569
Si Si3 0.310544 0.444898 0.500000
Si Si4 0.191820 0.351699 0.808370
Si Si5 0.810276 0.604577 0.622174
Si Si6 0.688301 0.697358 0.686239
O O1 0.500000 0.051997 0.747578
O O2 0.742625 0.094651 0.792196
O O3 0.737935 0.070676 0.678781
O O4 0.750101 0.000000 0.759079
O O5 0.750000 0.750000 0.074605
O O6 0.754160 0.665978 0.125631
O O7 0.000000 0.696272 0.068412
O O8 0.758390 0.679288 0.000000
O O9 0.254243 0.500000 0.500000
O O10 0.500000 0.445484 0.500000
O O11 0.252063 0.417338 0.559821
O O12 0.251095 0.318560 0.753257
O O13 0.000000 0.350252 0.806818
O O14 0.748941 0.657003 0.639588
O O15 0.000000 0.606139 0.620667
O O16 0.500000 0.697383 0.686436
O O17 0.750000 0.750000 0.672077
#
# Coordination Sequence:
#
# PCOD9489892 Si02
#       6
#    16  16   8  16  16  16
#     4   8  14  26  46  70  93 119 155 197 237 280
#     4   9  17  28  42  62  90 123 158 198 243 290
#     4  11  23  37  54  79 110 139 167 203 247 291
#     4   9  17  29  46  69  95 125 162 201 242 290
#     4  10  20  35  54  76 100 130 169 206 244 290
#     4  11  21  34  52  74 101 130 161 200 247 296
#
# _framework density 16.869698
#
# number of rings (size 3 to 8) (size 9 to 14) (size 15 to 20)
#    0.000    2.455    0.000    4.636    0.000    3.636 
#    0.000    0.455    0.000    5.455    0.000    3.818 
#    0.000    0.000    0.000   11.091    0.000   12.000 
#
# Total GULP energy -245380.047633 kJ/mol
# GULP energy per Si atom -5576.819264 kJ/mol
# Density = 1.683130 g / cm^3
# Si number density = 16.869698 Si / 1000 Ang^3
#
#
#
# Elastic Constant Matrix: (Units=GPa)
#
#
# Indices 1 2 3 4 5 6 
#
# 1 39.8704 28.8387 29.4581 0.0000 0.0000 0.0000
# 2 28.8387 151.8512 94.6377 0.0000 0.0000 0.0000
# 3 29.4581 94.6377 161.7937 0.0000 0.0000 0.0000
# 4 0.0000 0.0000 0.0000 13.2882 0.0000 0.0000
# 5 0.0000 0.0000 0.0000 0.0000 18.0321 0.0000
# 6 0.0000 0.0000 0.0000 0.0000 0.0000 16.3502
#
#
#
# Elastic Compliance Matrix: (Units=1/GPa)
#
#
# Indices 1 2 3 4 5 6 
#
# 1 0.030202 -0.003633 -0.003374 0.000000 0.000000 0.000000
# 2 -0.003633 0.010800 -0.005656 0.000000 0.000000 0.000000
# 3 -0.003374 -0.005656 0.010103 0.000000 0.000000 0.000000
# 4 0.000000 0.000000 0.000000 0.075255 0.000000 0.000000
# 5 0.000000 0.000000 0.000000 0.000000 0.055457 0.000000
# 6 0.000000 0.000000 0.000000 0.000000 0.000000 0.061161
#
#
# Mechanical properties :
#
#
# Convention : Reuss Voigt Hill
#
# Bulk Modulus (GPa) = 38.79007 73.26494 56.02751
# Shear Modulus (GPa) = 18.05726 22.90616 20.48171
#
# Velocity S-wave (km/s) = 3.27524 3.68887 3.48819
# Velocity P-wave (km/s) = 6.11120 7.85289 7.03614
#
# Compressibility (1/GPa) = 0.02577979
#
# Stress axis : x y z
#
# Youngs Moduli (GPa) = 33.11051 92.59016 98.97771
#
# Poissons Ratio (x) = 0.33639 0.33393
# Poissons Ratio (y) = 0.12029 0.55981
# Poissons Ratio (z) = 0.11171 0.52368
#
# Static dielectric constant tensor:
#      x y z
#    x 1.580510 0.000000 0.000000 
#    y 0.000000 1.564090 0.000000 
#    z 0.000000 0.000000 1.563470 
# 
# From -- ./inp_files/60682.got.cif
#   From: 2010.05.17/outbox.cif.g08.bks.cpg/sg65_31_cif.got.tgz:60682.got - 2010.06.03 17:01:31.
