data_PCOD9489264
_publ_section_title
;
Structure prediction by ZEFSAII (Michael W. Deem and Ramdas Pophale) SiO2 
 PCOD9489264
Probable space group: C M M M
;
_chemical_formula_sum "Si O2"
_cell_formula_units_Z 104
_cell_length_a 23.347555
_cell_length_b 28.344161
_cell_length_c 8.915390
_cell_angle_alpha 90.000000
_cell_angle_beta 90.000000
_cell_angle_gamma 90.000000
_cell_volume 5899.909627
_symmetry_space_group_name_H-M "C M M M"
_symmetry_group_IT_number 65
_symmetry_cell_setting 'orthorhombic'
loop_
_space_group_symop_operation_xyz
x,y,z
-x,-y,z
x,-y,-z
-x,y,-z
-x,-y,-z
x,y,-z
-x,y,z
x,-y,z
1/2+x,1/2+y,z
1/2-x,1/2-y,z
1/2+x,1/2-y,-z
1/2-x,1/2+y,-z
1/2-x,1/2-y,-z
1/2+x,1/2+y,-z
1/2-x,1/2+y,z
1/2+x,1/2-y,z
loop_
_atom_site_type_symbol
_atom_site_label
_atom_site_fract_x
_atom_site_fract_y
_atom_site_fract_z
Si Si1 0.757781 0.304246 0.318713
Si Si2 0.930263 0.000000 0.327350
Si Si3 0.874232 0.356045 0.319667
Si Si4 0.568993 0.403242 0.827333
Si Si5 0.130661 0.817313 0.677989
Si Si6 0.566923 0.054741 0.180717
Si Si7 0.434159 0.769397 0.178165
O O1 0.763671 0.301344 0.500000
O O2 0.750000 0.250000 0.265271
O O3 0.812974 0.333850 0.267702
O O4 0.696811 0.327547 0.284114
O O5 0.912038 0.953027 0.241347
O O6 0.911491 0.000000 0.500000
O O7 0.000000 0.000000 0.327775
O O8 0.874441 0.357809 0.500000
O O9 0.891711 0.406869 0.255100
O O10 0.920201 0.318162 0.260269
O O11 0.500000 0.402279 0.824383
O O12 0.592641 0.360817 0.729379
O O13 0.587083 0.398136 0.000000
O O14 0.126948 0.809289 0.500000
O O15 0.107778 0.770644 0.759374
O O16 0.500000 0.063958 0.221306
O O17 0.579473 0.000000 0.220255
O O18 0.570770 0.058738 0.000000
O O19 0.500000 0.755062 0.205691
O O20 0.426567 0.775041 0.000000
#
# Coordination Sequence:
#
# PCOD9489264 Si02
#       7
#    16   8  16  16  16  16  16
#     4   9  18  36  56  76 105 141 178 221 270 313
#     4   9  17  31  53  79 103 133 177 217 252 309
#     4  11  21  35  58  83 108 141 184 229 270 319
#     4  10  20  34  52  77 111 143 170 213 274 325
#     4  11  21  35  56  77 102 139 184 226 264 317
#     4   9  19  37  59  83 115 151 181 218 277 339
#     4  11  23  36  50  75 113 147 174 213 270 328
#
# _framework density 17.627389000000001
#
# number of rings (size 3 to 8) (size 9 to 14) (size 15 to 20)
#    0.000    1.923    1.538    3.462    0.000    7.385 
#    0.000    4.615    1.692    0.000    0.000    0.000 
#    0.000    0.000    0.000    0.000    0.000    0.000 
#
# Total GULP energy -290129.089576 kJ/mol
# GULP energy per Si atom -5579.405569 kJ/mol
# Density = 1.758727 g / cm^3
# Si number density = 17.627389 Si / 1000 Ang^3
#
#
#
# Elastic Constant Matrix: (Units=GPa)
#
#
# Indices 1 2 3 4 5 6 
#
# 1 80.2511 45.2601 37.9059 0.0000 0.0000 0.0000
# 2 45.2601 116.8330 27.2034 0.0000 0.0000 0.0000
# 3 37.9059 27.2034 45.8311 0.0000 0.0000 0.0000
# 4 0.0000 0.0000 0.0000 33.4736 0.0000 0.0000
# 5 0.0000 0.0000 0.0000 0.0000 4.6141 0.0000
# 6 0.0000 0.0000 0.0000 0.0000 0.0000 17.1062
#
#
#
# Elastic Compliance Matrix: (Units=1/GPa)
#
#
# Indices 1 2 3 4 5 6 
#
# 1 0.022855 -0.005166 -0.015836 0.000000 0.000000 0.000000
# 2 -0.005166 0.011100 -0.002315 0.000000 0.000000 0.000000
# 3 -0.015836 -0.002315 0.036291 0.000000 0.000000 0.000000
# 4 0.000000 0.000000 0.000000 0.029874 0.000000 0.000000
# 5 0.000000 0.000000 0.000000 0.000000 0.216725 0.000000
# 6 0.000000 0.000000 0.000000 0.000000 0.000000 0.058458
#
#
# Mechanical properties :
#
#
# Convention : Reuss Voigt Hill
#
# Bulk Modulus (GPa) = 42.35486 51.51712 46.93599
# Shear Modulus (GPa) = 11.63308 19.87518 15.75413
#
# Velocity S-wave (km/s) = 2.57172 3.36149 2.99278
# Velocity P-wave (km/s) = 5.73571 6.65997 6.21505
#
# Compressibility (1/GPa) = 0.02361004
#
# Stress axis : x y z
#
# Youngs Moduli (GPa) = 43.75469 90.09212 27.55495
#
# Poissons Ratio (x) = 0.46546 0.43636
# Poissons Ratio (y) = 0.22606 0.06380
# Poissons Ratio (z) = 0.69290 0.20859
#
# Static dielectric constant tensor:
#      x y z
#    x 1.611050 0.000000 0.000000 
#    y 0.000000 1.592520 0.000000 
#    z 0.000000 0.000000 1.594200 
# 
# From -- ./inp_files/14713.got.cif
#   From: 2010.05.17/outbox.cif.g08.bks.cpg/sg65_8_cif.got.tgz:14713.got - 2010.06.03 17:01:31.
