data_PCOD9489561
_publ_section_title
;
Structure prediction by ZEFSAII (Michael W. Deem and Ramdas Pophale) SiO2 
 PCOD9489561
Probable space group: C M M M
;
_chemical_formula_sum "Si O2"
_cell_formula_units_Z 100
_cell_length_a 30.635013
_cell_length_b 20.362762
_cell_length_c 7.742712
_cell_angle_alpha 90.000000
_cell_angle_beta 90.000000
_cell_angle_gamma 90.000000
_cell_volume 4830.008106
_symmetry_space_group_name_H-M "C M M M"
_symmetry_group_IT_number 65
_symmetry_cell_setting 'orthorhombic'
loop_
_space_group_symop_operation_xyz
x,y,z
-x,-y,z
x,-y,-z
-x,y,-z
-x,-y,-z
x,y,-z
-x,y,z
x,-y,z
1/2+x,1/2+y,z
1/2-x,1/2-y,z
1/2+x,1/2-y,-z
1/2-x,1/2+y,-z
1/2-x,1/2-y,-z
1/2+x,1/2+y,-z
1/2-x,1/2+y,z
1/2+x,1/2-y,z
loop_
_atom_site_type_symbol
_atom_site_label
_atom_site_fract_x
_atom_site_fract_y
_atom_site_fract_z
Si Si1 0.048294 0.716057 0.795340
Si Si2 0.417348 0.927310 0.292523
Si Si3 0.323866 0.428914 0.299985
Si Si4 0.184736 0.429655 0.206945
Si Si5 0.280886 0.500000 0.000000
Si Si6 0.365123 0.709448 0.700989
Si Si7 0.713472 0.204719 0.199734
O O1 0.058789 0.638924 0.764530
O O2 0.086248 0.763301 0.725833
O O3 0.000000 0.730220 0.724843
O O4 0.047902 0.725813 0.000000
O O5 0.417116 0.926938 0.500000
O O6 0.367345 0.923055 0.229413
O O7 0.434218 0.000000 0.237037
O O8 0.308949 0.421278 0.500000
O O9 0.348492 0.500000 0.293047
O O10 0.287480 0.442991 0.154147
O O11 0.353430 0.366017 0.254525
O O12 0.197804 0.500000 0.280650
O O13 0.206425 0.365604 0.283455
O O14 0.193192 0.433040 0.000000
O O15 0.354313 0.717185 0.500000
O O16 0.332080 0.756995 0.799712
O O17 0.750000 0.250000 0.282691
O O18 0.726185 0.193695 0.000000
#
# Coordination Sequence:
#
# PCOD9489561 Si02
#       7
#    16  16  16  16   4  16  16
#     4  11  24  38  55  82 113 148 193 240 289 347
#     4  10  20  34  54  80 109 146 190 235 286 340
#     4   8  17  31  51  84 112 140 187 229 276 343
#     4   9  17  32  54  76 106 149 191 233 283 335
#     4   8  14  28  56  82 107 150 176 228 284 334
#     4  11  22  37  59  82 113 152 186 235 289 341
#     4  10  21  35  54  83 114 147 192 240 282 343
#
# _framework density 20.703897999999999
#
# number of rings (size 3 to 8) (size 9 to 14) (size 15 to 20)
#    0.480    1.760    1.600    1.440    2.240    2.880 
#    0.000    2.400    0.000    1.440    0.000    3.920 
#    0.000    0.000    0.000    0.000    0.000    0.000 
#
# Total GULP energy -278396.540006 kJ/mol
# GULP energy per Si atom -5567.930800 kJ/mol
# Density = 2.065678 g / cm^3
# Si number density = 20.703898 Si / 1000 Ang^3
#
#
#
# Elastic Constant Matrix: (Units=GPa)
#
#
# Indices 1 2 3 4 5 6 
#
# 1 90.4583 37.1172 -0.9473 0.0000 0.0000 0.0000
# 2 37.1172 88.6119 6.6089 0.0000 0.0000 0.0000
# 3 -0.9473 6.6089 63.9179 0.0000 0.0000 0.0000
# 4 0.0000 0.0000 0.0000 18.2265 0.0000 0.0000
# 5 0.0000 0.0000 0.0000 0.0000 29.1114 0.0000
# 6 0.0000 0.0000 0.0000 0.0000 0.0000 24.7539
#
#
#
# Elastic Compliance Matrix: (Units=1/GPa)
#
#
# Indices 1 2 3 4 5 6 
#
# 1 0.013388 -0.005666 0.000784 0.000000 0.000000 0.000000
# 2 -0.005666 0.013771 -0.001508 0.000000 0.000000 0.000000
# 3 0.000784 -0.001508 0.015813 0.000000 0.000000 0.000000
# 4 0.000000 0.000000 0.000000 0.054865 0.000000 0.000000
# 5 0.000000 0.000000 0.000000 0.000000 0.034351 0.000000
# 6 0.000000 0.000000 0.000000 0.000000 0.000000 0.040398
#
#
# Mechanical properties :
#
#
# Convention : Reuss Voigt Hill
#
# Bulk Modulus (GPa) = 33.12152 36.50510 34.81331
# Shear Modulus (GPa) = 25.58470 27.76565 26.67518
#
# Velocity S-wave (km/s) = 3.51913 3.66605 3.59334
# Velocity P-wave (km/s) = 5.70480 5.96575 5.83674
#
# Compressibility (1/GPa) = 0.03019185
#
# Stress axis : x y z
#
# Youngs Moduli (GPa) = 74.69325 72.61564 63.24074
#
# Poissons Ratio (x) = 0.41147 -0.04960
# Poissons Ratio (y) = 0.42324 0.09536
# Poissons Ratio (z) = -0.05858 0.10950
#
# Static dielectric constant tensor:
#      x y z
#    x 1.764170 0.000000 0.000000 
#    y 0.000000 1.754640 0.000000 
#    z 0.000000 0.000000 1.766700 
# 
# From -- ./inp_files/18616.got.cif
#   From: 2010.05.17/outbox.cif.g08.bks.cpg/sg65_10_cif.got.tgz:18616.got - 2010.06.03 17:01:31.
