data_PCOD9489759
_publ_section_title
;
Structure prediction by ZEFSAII (Michael W. Deem and Ramdas Pophale) SiO2 
 PCOD9489759
Probable space group: C M M M
;
_chemical_formula_sum "Si O2"
_cell_formula_units_Z 84
_cell_length_a 13.690328
_cell_length_b 19.872371
_cell_length_c 14.926268
_cell_angle_alpha 90.000000
_cell_angle_beta 90.000000
_cell_angle_gamma 90.000000
_cell_volume 4060.829682
_symmetry_space_group_name_H-M "C M M M"
_symmetry_group_IT_number 65
_symmetry_cell_setting 'orthorhombic'
loop_
_space_group_symop_operation_xyz
x,y,z
-x,-y,z
x,-y,-z
-x,y,-z
-x,-y,-z
x,y,-z
-x,y,z
x,-y,z
1/2+x,1/2+y,z
1/2-x,1/2-y,z
1/2+x,1/2-y,-z
1/2-x,1/2+y,-z
1/2-x,1/2-y,-z
1/2+x,1/2+y,-z
1/2-x,1/2+y,z
1/2+x,1/2-y,z
loop_
_atom_site_type_symbol
_atom_site_label
_atom_site_fract_x
_atom_site_fract_y
_atom_site_fract_z
Si Si1 0.712302 0.324950 0.399231
Si Si2 0.813498 0.401349 0.163538
Si Si3 0.109500 0.128489 0.777677
Si Si4 0.110672 0.577654 0.640680
Si Si5 0.888884 0.736913 0.896452
Si Si6 0.852791 0.500000 0.000000
O O1 0.671372 0.324079 0.500000
O O2 0.750000 0.250000 0.376980
O O3 0.638717 0.350618 0.323225
O O4 0.806480 0.373683 0.396941
O O5 0.699425 0.415495 0.185157
O O6 0.874788 0.418212 0.251932
O O7 0.823300 0.321915 0.143774
O O8 0.849383 0.441972 0.078505
O O9 0.110290 0.196064 0.837660
O O10 0.000000 0.099744 0.781994
O O11 0.125154 0.500000 0.613487
O O12 0.000000 0.597709 0.617450
O O13 0.000000 0.709926 0.894885
O O14 0.864520 0.751800 0.000000
#
# Coordination Sequence:
#
# PCOD9489759 Si02
#       6
#    16  16  16  16  16   4
#     4  10  22  40  63  91 123 159 198 248 308 367
#     4  11  21  38  55  83 120 160 198 242 286 344
#     4  10  22  39  61  85 112 151 199 251 299 347
#     4  10  21  39  63  92 128 163 195 239 302 369
#     4  10  20  34  56  87 118 151 191 238 293 350
#     4  12  24  36  56  80 114 162 208 238 286 336
#
# _framework density 20.685428999999999
#
# number of rings (size 3 to 8) (size 9 to 14) (size 15 to 20)
#    0.000    1.714    1.905    3.429    1.333    4.190 
#    0.000    5.714    0.000    0.000    0.000    2.667 
#    0.000    0.000    0.000    0.000    0.000    0.000 
#
# Total GULP energy -234163.207192 kJ/mol
# GULP energy per Si atom -5575.314457 kJ/mol
# Density = 2.063835 g / cm^3
# Si number density = 20.685429 Si / 1000 Ang^3
#
#
#
# Elastic Constant Matrix: (Units=GPa)
#
#
# Indices 1 2 3 4 5 6 
#
# 1 110.9553 4.8594 -1.8789 0.0000 0.0000 0.0000
# 2 4.8594 52.2951 1.0814 0.0000 0.0000 0.0000
# 3 -1.8789 1.0814 97.1990 0.0000 0.0000 0.0000
# 4 0.0000 0.0000 0.0000********** 0.0000 0.0000
# 5 0.0000 0.0000 0.0000 0.0000 3.4680 0.0000
# 6 0.0000 0.0000 0.0000 0.0000 0.0000 11.9159
#
#
#
# Elastic Compliance Matrix: (Units=1/GPa)
#
#
# Indices 1 2 3 4 5 6 
#
# 1 0.009053 -0.000845 0.000184 0.000000 0.000000 0.000000
# 2 -0.000845 0.019206 -0.000230 0.000000 0.000000 0.000000
# 3 0.000184 -0.000230 0.010294 0.000000 0.000000 0.000000
# 4 0.000000 0.000000 0.000000 -0.000030 0.000000 0.000000
# 5 0.000000 0.000000 0.000000 0.000000 0.288349 0.000000
# 6 0.000000 0.000000 0.000000 0.000000 0.000000 0.083921
#
#
# Mechanical properties :
#
#
# Convention : Reuss Voigt Hill
#
# Bulk Modulus (GPa) = 27.19511 29.84147 28.51829
# Shear Modulus (GPa) = 11.76937 -6732.29301 -3360.26182
#
# Velocity S-wave (km/s) = 2.38790 -57.11105 -40.34830
# Velocity P-wave (km/s) = 4.55832 65.83645 46.44168
#
# Compressibility (1/GPa) = 0.03677132
#
# Stress axis : x y z
#
# Youngs Moduli (GPa) = 110.46347 52.06835 97.14118
#
# Poissons Ratio (x) = 0.04400 -0.01791
# Poissons Ratio (y) = 0.09334 0.02234
# Poissons Ratio (z) = -0.02037 0.01198
#
# Static dielectric constant tensor:
#      x y z
#    x 1.776320 0.000000 0.000000 
#    y 0.000000 1.718170 0.000000 
#    z 0.000000 0.000000 1.725650 
# 
# From -- ./inp_files/40209.got.cif
#   From: 2010.05.17/outbox.cif.g08.bks.cpg/sg65_21_cif.got.tgz:40209.got - 2010.06.03 17:01:31.
