data_PCOD9489727
_publ_section_title
;
Structure prediction by ZEFSAII (Michael W. Deem and Ramdas Pophale) SiO2 
 PCOD9489727
Probable space group: C M M M
;
_chemical_formula_sum "Si O2"
_cell_formula_units_Z 90
_cell_length_a 22.773846
_cell_length_b 24.797933
_cell_length_c 7.918690
_cell_angle_alpha 90.000000
_cell_angle_beta 90.000000
_cell_angle_gamma 90.000000
_cell_volume 4472.035098
_symmetry_space_group_name_H-M "C M M M"
_symmetry_group_IT_number 65
_symmetry_cell_setting 'orthorhombic'
loop_
_space_group_symop_operation_xyz
x,y,z
-x,-y,z
x,-y,-z
-x,y,-z
-x,-y,-z
x,y,-z
-x,y,z
x,-y,z
1/2+x,1/2+y,z
1/2-x,1/2-y,z
1/2+x,1/2-y,-z
1/2-x,1/2+y,-z
1/2-x,1/2-y,-z
1/2+x,1/2+y,-z
1/2-x,1/2+y,z
1/2+x,1/2-y,z
loop_
_atom_site_type_symbol
_atom_site_label
_atom_site_fract_x
_atom_site_fract_y
_atom_site_fract_z
Si Si1 0.707333 0.117159 0.200460
Si Si2 0.342672 0.500000 0.298369
Si Si3 0.500000 0.092857 0.294952
Si Si4 0.934757 0.201820 0.198014
Si Si5 0.098627 0.318445 0.694523
Si Si6 0.206962 0.500000 0.298051
Si Si7 0.000000 0.500000 0.000000
Si Si8 0.341776 0.383271 0.202068
O O1 0.664587 0.161111 0.278524
O O2 0.774427 0.119656 0.267603
O O3 0.682429 0.056907 0.236089
O O4 0.708014 0.124905 0.000000
O O5 0.342320 0.500000 0.500000
O O6 0.274713 0.500000 0.236825
O O7 0.367036 0.442924 0.237819
O O8 0.500000 0.077565 0.500000
O O9 0.556019 0.131693 0.264929
O O10 0.500000 0.046666 0.153491
O O11 0.916478 0.264146 0.208026
O O12 0.884619 0.162790 0.270765
O O13 0.000000 0.195053 0.272194
O O14 0.938509 0.187665 0.000000
O O15 0.088240 0.304988 0.500000
O O16 0.205253 0.500000 0.500000
O O17 0.336678 0.377504 0.000000
#
# Coordination Sequence:
#
# PCOD9489727 Si02
#       8
#    16   8   8  16  16   8   2  16
#     4  10  20  34  56  83 115 150 192 236 291 357
#     4   9  17  31  55  83 115 153 187 227 280 350
#     4  10  25  45  63  92 125 162 213 262 313 371
#     4  10  21  38  63  86 110 149 202 244 289 357
#     4  11  23  40  60  82 117 155 194 248 301 350
#     4   9  17  32  52  78 112 149 188 229 284 343
#     4  12  26  40  76  90 124 168 210 266 326 362
#     4   9  19  36  57  87 119 151 189 242 293 345
#
# _framework density 20.125067000000001
#
# number of rings (size 3 to 8) (size 9 to 14) (size 15 to 20)
#    0.000    2.133    0.889    1.733    2.489    4.978 
#    0.000    4.889    0.000    2.667    0.000    0.000 
#    0.000    0.000    0.000    0.000    0.000    0.000 
#
# Total GULP energy -250724.798988 kJ/mol
# GULP energy per Si atom -5571.662200 kJ/mol
# Density = 2.007926 g / cm^3
# Si number density = 20.125067 Si / 1000 Ang^3
#
#
#
# Elastic Constant Matrix: (Units=GPa)
#
#
# Indices 1 2 3 4 5 6 
#
# 1 98.3192 61.3402 9.0496 0.0000 0.0000 0.0000
# 2 61.3402 93.7289 16.7675 0.0000 0.0000 0.0000
# 3 9.0496 16.7675 38.9977 0.0000 0.0000 0.0000
# 4 0.0000 0.0000 0.0000 130.0023 0.0000 0.0000
# 5 0.0000 0.0000 0.0000 0.0000 9.4687 0.0000
# 6 0.0000 0.0000 0.0000 0.0000 0.0000 -39.5972
#
#
#
# Elastic Compliance Matrix: (Units=1/GPa)
#
#
# Indices 1 2 3 4 5 6 
#
# 1 0.017220 -0.011434 0.000920 0.000000 0.000000 0.000000
# 2 -0.011434 0.019150 -0.005581 0.000000 0.000000 0.000000
# 3 0.000920 -0.005581 0.027828 0.000000 0.000000 0.000000
# 4 0.000000 0.000000 0.000000 0.007692 0.000000 0.000000
# 5 0.000000 0.000000 0.000000 0.000000 0.105611 0.000000
# 6 0.000000 0.000000 0.000000 0.000000 0.000000 -0.025254
#
#
# Mechanical properties :
#
#
# Convention : Reuss Voigt Hill
#
# Bulk Modulus (GPa) = 31.24036 45.04002 38.14019
# Shear Modulus (GPa) = 25.62708 29.56733 27.59721
#
# Velocity S-wave (km/s) = 3.57233 3.83715 3.70710
# Velocity P-wave (km/s) = 5.70721 6.48539 6.10870
#
# Compressibility (1/GPa) = 0.03200988
#
# Stress axis : x y z
#
# Youngs Moduli (GPa) = 58.07274 52.21856 35.93446
#
# Poissons Ratio (x) = 0.59707 -0.03307
# Poissons Ratio (y) = 0.66400 0.20053
# Poissons Ratio (z) = -0.05344 0.29141
#
# Static dielectric constant tensor:
#      x y z
#    x 1.753520 0.000000 0.000000 
#    y 0.000000 1.697740 0.000000 
#    z 0.000000 0.000000 1.713760 
# 
# From -- ./inp_files/14092.got.cif
#   From: 2010.05.17/outbox.cif.g08.bks.cpg/sg65_8_cif.got.tgz:14092.got - 2010.06.03 17:01:31.
