data_PCOD9489231
_publ_section_title
;
Structure prediction by ZEFSAII (Michael W. Deem and Ramdas Pophale) SiO2 
 PCOD9489231
Probable space group: C M M M
;
_chemical_formula_sum "Si O2"
_cell_formula_units_Z 100
_cell_length_a 20.398484
_cell_length_b 29.683271
_cell_length_c 7.722301
_cell_angle_alpha 90.000000
_cell_angle_beta 90.000000
_cell_angle_gamma 90.000000
_cell_volume 4675.804826
_symmetry_space_group_name_H-M "C M M M"
_symmetry_group_IT_number 65
_symmetry_cell_setting 'orthorhombic'
loop_
_space_group_symop_operation_xyz
x,y,z
-x,-y,z
x,-y,-z
-x,y,-z
-x,-y,-z
x,y,-z
-x,y,z
x,-y,z
1/2+x,1/2+y,z
1/2-x,1/2-y,z
1/2+x,1/2-y,-z
1/2-x,1/2+y,-z
1/2-x,1/2-y,-z
1/2+x,1/2+y,-z
1/2-x,1/2+y,z
1/2+x,1/2-y,z
loop_
_atom_site_type_symbol
_atom_site_label
_atom_site_fract_x
_atom_site_fract_y
_atom_site_fract_z
Si Si1 0.200840 0.194311 0.303947
Si Si2 0.000000 0.742472 0.000000
Si Si3 0.611507 0.449889 0.703400
Si Si4 0.675814 0.141633 0.196971
Si Si5 0.391230 0.227845 0.300778
Si Si6 0.571271 0.354171 0.200151
Si Si7 0.235451 0.449591 0.789842
O O1 0.226373 0.194827 0.500000
O O2 0.254169 0.167420 0.195885
O O3 0.175337 0.244006 0.257930
O O4 0.133034 0.166281 0.296044
O O5 0.943207 0.739916 0.845668
O O6 0.595430 0.447650 0.500000
O O7 0.594482 0.500000 0.767793
O O8 0.577928 0.407985 0.794029
O O9 0.690035 0.444636 0.724478
O O10 0.626355 0.175081 0.291213
O O11 0.691336 0.092127 0.270336
O O12 0.652295 0.136694 0.000000
O O13 0.409011 0.239444 0.500000
O O14 0.500000 0.341061 0.270093
O O15 0.573730 0.339131 0.000000
O O16 0.212976 0.500000 0.742179
O O17 0.238490 0.447026 0.000000
#
# Coordination Sequence:
#
# PCOD9489231 Si02
#       7
#    16   4  16  16  16  16  16
#     4  11  24  39  59  88 124 162 207 262 309 362
#     4  12  26  48  70  94 129 166 205 264 306 380
#     4  10  20  34  52  75 105 146 195 250 311 366
#     4  11  21  37  64  96 128 166 208 256 315 365
#     4  11  26  44  67  96 127 169 211 254 314 376
#     4  11  24  37  53  76 106 154 209 257 308 365
#     4   9  18  33  56  87 122 157 198 248 305 366
#
# _framework density 21.386693999999999
#
# number of rings (size 3 to 8) (size 9 to 14) (size 15 to 20)
#    0.000    1.440    2.400    2.640    3.360    5.120 
#    0.000    1.600    0.000    0.000    0.000    1.120 
#    0.000    1.280    0.000    0.000    0.000    0.000 
#
# Total GULP energy -279024.319013 kJ/mol
# GULP energy per Si atom -5580.486380 kJ/mol
# Density = 2.133802 g / cm^3
# Si number density = 21.386694 Si / 1000 Ang^3
#
#
#
# Elastic Constant Matrix: (Units=GPa)
#
#
# Indices 1 2 3 4 5 6 
#
# 1 37.4276 15.6765 24.0253 0.0000 0.0000 0.0000
# 2 15.6765 135.1738 16.2190 0.0000 0.0000 0.0000
# 3 24.0253 16.2190 85.0559 0.0000 0.0000 0.0000
# 4 0.0000 0.0000 0.0000 23.9108 0.0000 0.0000
# 5 0.0000 0.0000 0.0000 0.0000 7.7436 0.0000
# 6 0.0000 0.0000 0.0000 0.0000 0.0000 -2.3770
#
#
#
# Elastic Compliance Matrix: (Units=1/GPa)
#
#
# Indices 1 2 3 4 5 6 
#
# 1 0.033660 -0.002828 -0.008969 0.000000 0.000000 0.000000
# 2 -0.002828 0.007809 -0.000690 0.000000 0.000000 0.000000
# 3 -0.008969 -0.000690 0.014422 0.000000 0.000000 0.000000
# 4 0.000000 0.000000 0.000000 0.041822 0.000000 0.000000
# 5 0.000000 0.000000 0.000000 0.000000 0.129138 0.000000
# 6 0.000000 0.000000 0.000000 0.000000 0.000000 -0.420694
#
#
# Mechanical properties :
#
#
# Convention : Reuss Voigt Hill
#
# Bulk Modulus (GPa) = 32.34419 41.05544 36.69981
# Shear Modulus (GPa) = -31.53292 19.30456 -6.11418
#
# Velocity S-wave (km/s) = -3.84398 3.00766 -1.69265
# Velocity P-wave (km/s) = 2.13196 5.59462 3.65749
#
# Compressibility (1/GPa) = 0.03091745
#
# Stress axis : x y z
#
# Youngs Moduli (GPa) = 29.70920 128.06345 69.33899
#
# Poissons Ratio (x) = 0.36210 0.62187
# Poissons Ratio (y) = 0.08400 0.04787
# Poissons Ratio (z) = 0.26645 0.08840
#
# Static dielectric constant tensor:
#      x y z
#    x 1.748690 0.000000 0.000000 
#    y 0.000000 1.849200 0.000000 
#    z 0.000000 0.000000 1.763850 
# 
# From -- ./inp_files/12758.got.cif
#   From: 2010.05.17/outbox.cif.g08.bks.cpg/sg65_7_cif.got.tgz:12758.got - 2010.06.03 17:01:31.
