data_PCOD9489826
_publ_section_title
;
Structure prediction by ZEFSAII (Michael W. Deem and Ramdas Pophale) SiO2 
 PCOD9489826
Probable space group: C M M M
;
_chemical_formula_sum "Si O2"
_cell_formula_units_Z 104
_cell_length_a 26.648633
_cell_length_b 24.623886
_cell_length_c 7.710742
_cell_angle_alpha 90.000000
_cell_angle_beta 90.000000
_cell_angle_gamma 90.000000
_cell_volume 5059.734162
_symmetry_space_group_name_H-M "C M M M"
_symmetry_group_IT_number 65
_symmetry_cell_setting 'orthorhombic'
loop_
_space_group_symop_operation_xyz
x,y,z
-x,-y,z
x,-y,-z
-x,y,-z
-x,-y,-z
x,y,-z
-x,y,z
x,-y,z
1/2+x,1/2+y,z
1/2-x,1/2-y,z
1/2+x,1/2-y,-z
1/2-x,1/2+y,-z
1/2-x,1/2-y,-z
1/2+x,1/2+y,-z
1/2-x,1/2+y,z
1/2+x,1/2-y,z
loop_
_atom_site_type_symbol
_atom_site_label
_atom_site_fract_x
_atom_site_fract_y
_atom_site_fract_z
Si Si1 0.000000 0.938983 0.206510
Si Si2 0.849474 0.224502 0.797251
Si Si3 0.366225 0.159672 0.211665
Si Si4 0.896206 0.113020 0.296928
Si Si5 0.201809 0.058279 0.709835
Si Si6 0.748774 0.170166 0.202040
Si Si7 0.058538 0.437198 0.211499
O O1 0.048854 0.907049 0.262348
O O2 0.000000 0.000000 0.278882
O O3 0.000000 0.942261 0.000000
O O4 0.879262 0.278056 0.735841
O O5 0.881798 0.170325 0.783708
O O6 0.793452 0.209271 0.723822
O O7 0.840684 0.234148 0.000000
O O8 0.307708 0.162105 0.271050
O O9 0.402300 0.110061 0.270781
O O10 0.366787 0.154793 0.000000
O O11 0.888444 0.121074 0.500000
O O12 0.856277 0.067317 0.242191
O O13 0.206349 0.059897 0.500000
O O14 0.228906 0.110050 0.785075
O O15 0.220460 0.000000 0.770209
O O16 0.743542 0.184813 0.000000
O O17 0.070929 0.500000 0.263724
O O18 0.000000 0.426620 0.261891
O O19 0.059381 0.436795 0.000000
#
# Coordination Sequence:
#
# PCOD9489826 Si02
#       7
#     8  16  16  16  16  16  16
#     4  11  23  37  55  79 103 129 168 215 256 295
#     4   9  17  31  48  69  99 131 163 204 252 298
#     4   9  16  27  45  68  94 129 167 202 247 304
#     4  10  20  35  53  72  98 134 171 208 252 300
#     4   9  18  32  48  67  95 131 167 202 246 301
#     4   9  17  28  45  69  97 127 161 203 250 298
#     4   8  14  25  40  60  90 124 157 198 247 296
#
# _framework density 20.554441000000001
#
# number of rings (size 3 to 8) (size 9 to 14) (size 15 to 20)
#    0.000    2.846    0.000    2.077    0.000    4.615 
#    1.385    2.308    0.000    3.692    0.000    0.000 
#    0.000    0.000    0.000    5.385    0.000    5.538 
#
# Total GULP energy -289497.390897 kJ/mol
# GULP energy per Si atom -5567.257517 kJ/mol
# Density = 2.050766 g / cm^3
# Si number density = 20.554441 Si / 1000 Ang^3
#
#
#
# Elastic Constant Matrix: (Units=GPa)
#
#
# Indices 1 2 3 4 5 6 
#
# 1 102.1900 78.5968 -1.9660 0.0000 0.0000 0.0000
# 2 78.5968 180.7604 11.6181 0.0000 0.0000 0.0000
# 3 -1.9660 11.6181 26.4080 0.0000 0.0000 0.0000
# 4 0.0000 0.0000 0.0000 139.7088 0.0000 0.0000
# 5 0.0000 0.0000 0.0000 0.0000 10.7366 0.0000
# 6 0.0000 0.0000 0.0000 0.0000 0.0000 31.8698
#
#
#
# Elastic Compliance Matrix: (Units=1/GPa)
#
#
# Indices 1 2 3 4 5 6 
#
# 1 0.015130 -0.006844 0.004138 0.000000 0.000000 0.000000
# 2 -0.006844 0.008790 -0.004376 0.000000 0.000000 0.000000
# 3 0.004138 -0.004376 0.040101 0.000000 0.000000 0.000000
# 4 0.000000 0.000000 0.000000 0.007158 0.000000 0.000000
# 5 0.000000 0.000000 0.000000 0.000000 0.093139 0.000000
# 6 0.000000 0.000000 0.000000 0.000000 0.000000 0.031378
#
#
# Mechanical properties :
#
#
# Convention : Reuss Voigt Hill
#
# Bulk Modulus (GPa) = 20.05893 53.98401 37.02147
# Shear Modulus (GPa) = 22.07711 51.20368 36.64039
#
# Velocity S-wave (km/s) = 3.28087 4.99653 4.22667
# Velocity P-wave (km/s) = 4.91246 7.72062 6.47071
#
# Compressibility (1/GPa) = 0.04985311
#
# Stress axis : x y z
#
# Youngs Moduli (GPa) = 66.09600 113.77196 24.93717
#
# Poissons Ratio (x) = 0.77870 -0.10318
# Poissons Ratio (y) = 0.45239 0.10914
# Poissons Ratio (z) = -0.27348 0.49792
#
# Static dielectric constant tensor:
#      x y z
#    x 1.742610 0.000000 0.000000 
#    y 0.000000 1.771730 0.000000 
#    z 0.000000 0.000000 1.761990 
# 
# From -- ./inp_files/16782.got.cif
#   From: 2010.05.17/outbox.cif.g08.bks.cpg/sg65_9_cif.got.tgz:16782.got - 2010.06.03 17:01:31.
