data_PCOD9489534
_publ_section_title
;
Structure prediction by ZEFSAII (Michael W. Deem and Ramdas Pophale) SiO2 
 PCOD9489534
Probable space group: C M M M
;
_chemical_formula_sum "Si O2"
_cell_formula_units_Z 66
_cell_length_a 8.268939
_cell_length_b 14.757439
_cell_length_c 25.647307
_cell_angle_alpha 90.000000
_cell_angle_beta 90.000000
_cell_angle_gamma 90.000000
_cell_volume 3129.698886
_symmetry_space_group_name_H-M "C M M M"
_symmetry_group_IT_number 65
_symmetry_cell_setting 'orthorhombic'
loop_
_space_group_symop_operation_xyz
x,y,z
-x,-y,z
x,-y,-z
-x,y,-z
-x,-y,-z
x,y,-z
-x,y,z
x,-y,z
1/2+x,1/2+y,z
1/2-x,1/2-y,z
1/2+x,1/2-y,-z
1/2-x,1/2+y,-z
1/2-x,1/2-y,-z
1/2+x,1/2+y,-z
1/2-x,1/2+y,z
1/2+x,1/2-y,z
loop_
_atom_site_type_symbol
_atom_site_label
_atom_site_fract_x
_atom_site_fract_y
_atom_site_fract_z
Si Si1 0.000000 0.601867 0.892546
Si Si2 0.320126 0.394985 0.843968
Si Si3 0.676432 0.104853 0.615023
Si Si4 0.500000 0.389167 0.438944
Si Si5 0.500000 0.000000 0.000000
Si Si6 0.308813 0.647127 0.275287
O O1 0.833558 0.646197 0.873491
O O2 0.000000 0.577874 0.953389
O O3 0.000000 0.500000 0.866342
O O4 0.500000 0.354920 0.852010
O O5 0.330990 0.500000 0.861387
O O6 0.286663 0.393371 0.782118
O O7 0.500000 0.146331 0.604408
O O8 0.711046 0.105726 0.676825
O O9 0.835130 0.145044 0.587791
O O10 0.668475 0.000000 0.598011
O O11 0.500000 0.500000 0.432607
O O12 0.500000 0.369329 0.500000
O O13 0.500000 0.640643 0.287416
O O14 0.250000 0.750000 0.271783
#
# Coordination Sequence:
#
# PCOD9489534 Si02
#       6
#     8  16  16   8   2  16
#     4   8  16  30  49  73 107 129 168 211 255 299
#     4   9  18  32  50  74 106 138 172 209 262 310
#     4  10  20  34  54  80 106 138 178 213 267 321
#     4   9  18  34  55  78 105 134 173 225 267 308
#     4   8  16  32  50  84 108 134 180 216 262 308
#     4  11  22  34  50  77 111 144 178 216 263 326
#
# _framework density 21.088291999999999
#
# number of rings (size 3 to 8) (size 9 to 14) (size 15 to 20)
#    0.364    2.061    1.212    1.455    3.394    1.455 
#    0.000    3.636    0.000    0.727    0.000    0.848 
#    0.000    0.000    0.000    0.000    0.000    0.000 
#
# Total GULP energy -183712.828191 kJ/mol
# GULP energy per Si atom -5567.055400 kJ/mol
# Density = 2.104029 g / cm^3
# Si number density = 21.088292 Si / 1000 Ang^3
#
#
#
# Elastic Constant Matrix: (Units=GPa)
#
#
# Indices 1 2 3 4 5 6 
#
# 1 224.2876 14.8959 103.2461 0.0000 0.0000 0.0000
# 2 14.8959 43.1614 -7.9353 0.0000 0.0000 0.0000
# 3 103.2461 -7.9353 99.3222 0.0000 0.0000 0.0000
# 4 0.0000 0.0000 0.0000 -32.0120 0.0000 0.0000
# 5 0.0000 0.0000 0.0000 0.0000 3.5076 0.0000
# 6 0.0000 0.0000 0.0000 0.0000 0.0000 15.1122
#
#
#
# Elastic Compliance Matrix: (Units=1/GPa)
#
#
# Indices 1 2 3 4 5 6 
#
# 1 0.009582 -0.005215 -0.010377 0.000000 0.000000 0.000000
# 2 -0.005215 0.026352 0.007526 0.000000 0.000000 0.000000
# 3 -0.010377 0.007526 0.021456 0.000000 0.000000 0.000000
# 4 0.000000 0.000000 0.000000 -0.031238 0.000000 0.000000
# 5 0.000000 0.000000 0.000000 0.000000 0.285097 0.000000
# 6 0.000000 0.000000 0.000000 0.000000 0.000000 0.066172
#
#
# Mechanical properties :
#
#
# Convention : Reuss Voigt Hill
#
# Bulk Modulus (GPa) = 24.23694 65.24275 44.73984
# Shear Modulus (GPa) = 12.27583 14.42584 13.35084
#
# Velocity S-wave (km/s) = 2.41533 2.61831 2.51886
# Velocity P-wave (km/s) = 4.39277 6.33607 5.45171
#
# Compressibility (1/GPa) = 0.04125934
#
# Stress axis : x y z
#
# Youngs Moduli (GPa) = 104.36645 37.94750 46.60644
#
# Poissons Ratio (x) = 0.19788 0.48362
# Poissons Ratio (y) = 0.54423 -0.35076
# Poissons Ratio (z) = 1.08299 -0.28559
#
# Static dielectric constant tensor:
#      x y z
#    x 1.848280 0.000000 0.000000 
#    y 0.000000 1.784420 0.000000 
#    z 0.000000 0.000000 1.695800 
# 
# From -- ./inp_files/67203.got.cif
#   From: 2010.05.17/outbox.cif.g08.bks.cpg/sg65_34_cif.got.tgz:67203.got - 2010.06.03 17:01:31.
