data_PCOD9489252
_publ_section_title
;
Structure prediction by ZEFSAII (Michael W. Deem and Ramdas Pophale) SiO2 
 PCOD9489252
Probable space group: C M M M
;
_chemical_formula_sum "Si O2"
_cell_formula_units_Z 88
_cell_length_a 18.626887
_cell_length_b 7.740008
_cell_length_c 30.615613
_cell_angle_alpha 90.000000
_cell_angle_beta 90.000000
_cell_angle_gamma 90.000000
_cell_volume 4413.921946
_symmetry_space_group_name_H-M "C M M M"
_symmetry_group_IT_number 65
_symmetry_cell_setting 'orthorhombic'
loop_
_space_group_symop_operation_xyz
x,y,z
-x,-y,z
x,-y,-z
-x,y,-z
-x,-y,-z
x,y,-z
-x,y,z
x,-y,z
1/2+x,1/2+y,z
1/2-x,1/2-y,z
1/2+x,1/2-y,-z
1/2-x,1/2+y,-z
1/2-x,1/2-y,-z
1/2+x,1/2+y,-z
1/2-x,1/2+y,z
1/2+x,1/2-y,z
loop_
_atom_site_type_symbol
_atom_site_label
_atom_site_fract_x
_atom_site_fract_y
_atom_site_fract_z
Si Si1 0.416212 0.789326 0.952210
Si Si2 0.666857 0.195393 0.600395
Si Si3 0.417489 0.297629 0.684074
Si Si4 0.166495 0.292223 0.132679
Si Si5 0.665840 0.206767 0.229741
Si Si6 0.583848 0.500000 0.552287
O O1 0.500000 0.743724 0.949600
O O2 0.375618 0.724984 0.909404
O O3 0.412420 0.000000 0.951934
O O4 0.388478 0.732753 0.000000
O O5 0.750000 0.250000 0.603003
O O6 0.631343 0.203999 0.648372
O O7 0.623493 0.331963 0.571300
O O8 0.661850 0.000000 0.583533
O O9 0.500000 0.236693 0.683620
O O10 0.417083 0.500000 0.672171
O O11 0.382635 0.278936 0.731665
O O12 0.158148 0.500000 0.133324
O O13 0.250000 0.250000 0.127601
O O14 0.144840 0.229754 0.181092
O O15 0.750000 0.250000 0.236447
O O16 0.659048 0.000000 0.230585
O O17 0.500000 0.500000 0.565529
O O18 0.587601 0.500000 0.500000
#
# Coordination Sequence:
#
# PCOD9489252 Si02
#       6
#    16  16  16  16  16   8
#     4   8  14  26  45  68  93 125 167 216 270 329
#     4  12  24  44  71 102 135 179 226 274 328 387
#     4  11  23  39  60  87 123 160 201 254 310 371
#     4   9  18  31  48  71 100 132 171 222 277 335
#     4  10  20  34  52  76 107 146 189 235 289 354
#     4  11  26  48  72 104 145 181 223 281 335 387
#
# _framework density 19.936917999999999
#
# number of rings (size 3 to 8) (size 9 to 14) (size 15 to 20)
#    0.000    1.909    1.818    2.727    0.000    5.091 
#    0.000    2.727    0.000    0.545    0.000    1.273 
#    0.000    0.000    0.000    0.000    0.000    0.000 
#
# Total GULP energy -245752.285970 kJ/mol
# GULP energy per Si atom -5585.279227 kJ/mol
# Density = 1.989154 g / cm^3
# Si number density = 19.936918 Si / 1000 Ang^3
#
#
#
# Elastic Constant Matrix: (Units=GPa)
#
#
# Indices 1 2 3 4 5 6 
#
# 1 124.0698 37.7174 78.9928 0.0000 0.0000 0.0000
# 2 37.7174 92.5169 33.5266 0.0000 0.0000 0.0000
# 3 78.9928 33.5266 136.0091 0.0000 0.0000 0.0000
# 4 0.0000 0.0000 0.0000 28.6949 0.0000 0.0000
# 5 0.0000 0.0000 0.0000 0.0000 47.2581 0.0000
# 6 0.0000 0.0000 0.0000 0.0000 0.0000 20.4664
#
#
#
# Elastic Compliance Matrix: (Units=1/GPa)
#
#
# Indices 1 2 3 4 5 6 
#
# 1 0.013470 -0.002917 -0.007104 0.000000 0.000000 0.000000
# 2 -0.002917 0.012501 -0.001387 0.000000 0.000000 0.000000
# 3 -0.007104 -0.001387 0.011820 0.000000 0.000000 0.000000
# 4 0.000000 0.000000 0.000000 0.034849 0.000000 0.000000
# 5 0.000000 0.000000 0.000000 0.000000 0.021160 0.000000
# 6 0.000000 0.000000 0.000000 0.000000 0.000000 0.048861
#
#
# Mechanical properties :
#
#
# Convention : Reuss Voigt Hill
#
# Bulk Modulus (GPa) = 66.78147 72.56325 69.67236
# Shear Modulus (GPa) = 29.33078 32.77449 31.05264
#
# Velocity S-wave (km/s) = 3.83976 4.05891 3.95086
# Velocity P-wave (km/s) = 7.29571 7.64472 7.47226
#
# Compressibility (1/GPa) = 0.01497421
#
# Stress axis : x y z
#
# Youngs Moduli (GPa) = 74.24032 79.99505 84.59945
#
# Poissons Ratio (x) = 0.23334 0.60100
# Poissons Ratio (y) = 0.21656 0.11737
# Poissons Ratio (z) = 0.52741 0.11098
#
# Static dielectric constant tensor:
#      x y z
#    x 1.655130 0.000000 0.000000 
#    y 0.000000 1.731950 0.000000 
#    z 0.000000 0.000000 1.714340 
# 
# From -- ./inp_files/78104.got.cif
#   From: 2010.05.17/outbox.cif.g08.bks.cpg/sg65_40_cif.got.tgz:78104.got - 2010.06.03 17:01:31.
