data_PCOD9489011
_publ_section_title
;
Structure prediction by ZEFSAII (Michael W. Deem and Ramdas Pophale) SiO2 
 PCOD9489011
Probable space group: C M M M
;
_chemical_formula_sum "Si O2"
_cell_formula_units_Z 104
_cell_length_a 16.395676
_cell_length_b 17.130485
_cell_length_c 17.123911
_cell_angle_alpha 90.000000
_cell_angle_beta 90.000000
_cell_angle_gamma 90.000000
_cell_volume 4809.522363
_symmetry_space_group_name_H-M "C M M M"
_symmetry_group_IT_number 65
_symmetry_cell_setting 'orthorhombic'
loop_
_space_group_symop_operation_xyz
x,y,z
-x,-y,z
x,-y,-z
-x,y,-z
-x,-y,-z
x,y,-z
-x,y,z
x,-y,z
1/2+x,1/2+y,z
1/2-x,1/2-y,z
1/2+x,1/2-y,-z
1/2-x,1/2+y,-z
1/2-x,1/2-y,-z
1/2+x,1/2+y,-z
1/2-x,1/2+y,z
1/2+x,1/2-y,z
loop_
_atom_site_type_symbol
_atom_site_label
_atom_site_fract_x
_atom_site_fract_y
_atom_site_fract_z
Si Si1 0.407872 0.215140 0.500000
Si Si2 0.905058 0.912388 0.823892
Si Si3 0.591662 0.397075 0.500000
Si Si4 0.098753 0.739037 0.816169
Si Si5 0.901025 0.414295 0.091869
Si Si6 0.903063 0.500000 0.406516
Si Si7 0.825398 0.084930 0.664876
Si Si8 0.839281 0.661483 0.339832
O O1 0.500000 0.178339 0.500000
O O2 0.417862 0.305754 0.500000
O O3 0.357082 0.197167 0.423622
O O4 0.871550 0.825275 0.844922
O O5 0.895047 0.908385 0.729867
O O6 0.000000 0.913520 0.846150
O O7 0.871989 0.000000 0.847099
O O8 0.500000 0.426826 0.500000
O O9 0.639712 0.416066 0.578398
O O10 0.128314 0.664112 0.866019
O O11 0.121355 0.713348 0.728080
O O12 0.000000 0.742577 0.820853
O O13 0.872978 0.500000 0.122019
O O14 0.000000 0.414268 0.098722
O O15 0.881946 0.410676 0.000000
O O16 0.872568 0.500000 0.500000
O O17 0.877348 0.575622 0.356239
O O18 0.000000 0.500000 0.412523
O O19 0.756026 0.148865 0.675613
O O20 0.786563 0.000000 0.678717
#
# Coordination Sequence:
#
# PCOD9489011 Si02
#       8
#     8  16   8  16  16   8  16  16
#     4  11  23  38  51  69 101 141 186 233 279 330
#     4   9  19  37  57  75 101 138 180 232 289 332
#     4  11  24  38  55  73  93 131 189 249 296 341
#     4  10  20  33  55  84 111 146 193 230 266 336
#     4   8  15  29  50  80 119 155 183 222 276 326
#     4  11  22  36  52  70 103 155 189 217 268 327
#     4  11  23  37  52  74 104 134 177 235 290 341
#     4  12  23  35  52  76 108 144 184 229 277 331
#
# _framework density 21.623767999999998
#
# number of rings (size 3 to 8) (size 9 to 14) (size 15 to 20)
#    0.000    1.769    1.538    3.923    1.077    6.769 
#    0.000    0.000    0.000    0.462    0.000    5.385 
#    0.000    1.231    0.000    0.000    0.000    0.154 
#
# Total GULP energy -289753.830715 kJ/mol
# GULP energy per Si atom -5572.189052 kJ/mol
# Density = 2.157455 g / cm^3
# Si number density = 21.623768 Si / 1000 Ang^3
#
#
#
# Elastic Constant Matrix: (Units=GPa)
#
#
# Indices 1 2 3 4 5 6 
#
# 1 33.5758 8.6845 -9.9803 0.0000 0.0000 0.0000
# 2 8.6845 214.8246 36.0359 0.0000 0.0000 0.0000
# 3 -9.9803 36.0359 33.6451 0.0000 0.0000 0.0000
# 4 0.0000 0.0000 0.0000 23.4606 0.0000 0.0000
# 5 0.0000 0.0000 0.0000 0.0000 -6.4048 0.0000
# 6 0.0000 0.0000 0.0000 0.0000 0.0000 23.3492
#
#
#
# Elastic Compliance Matrix: (Units=1/GPa)
#
#
# Indices 1 2 3 4 5 6 
#
# 1 0.035106 -0.003859 0.014547 0.000000 0.000000 0.000000
# 2 -0.003859 0.006099 -0.007677 0.000000 0.000000 0.000000
# 3 0.014547 -0.007677 0.042260 0.000000 0.000000 0.000000
# 4 0.000000 0.000000 0.000000 0.042625 0.000000 0.000000
# 5 0.000000 0.000000 0.000000 0.000000 -0.156132 0.000000
# 6 0.000000 0.000000 0.000000 0.000000 0.000000 0.042828
#
#
# Mechanical properties :
#
#
# Convention : Reuss Voigt Hill
#
# Bulk Modulus (GPa) = 11.17494 39.05840 25.11667
# Shear Modulus (GPa) = 136.64278 24.56802 80.60540
#
# Velocity S-wave (km/s) = 7.95790 3.37435 6.11206
# Velocity P-wave (km/s) = 9.46661 5.76919 7.83901
#
# Compressibility (1/GPa) = 0.08948591
#
# Stress axis : x y z
#
# Youngs Moduli (GPa) = 28.48540 163.96767 23.66316
#
# Poissons Ratio (x) = 0.63282 -0.34423
# Poissons Ratio (y) = 0.10994 0.18166
# Poissons Ratio (z) = -0.41438 1.25878
#
# Static dielectric constant tensor:
#      x y z
#    x 1.781960 0.000000 0.000000 
#    y 0.000000 1.912340 0.000000 
#    z 0.000000 0.000000 1.746590 
# 
# From -- ./inp_files/54641.got.cif
#   From: 2010.05.17/outbox.cif.g08.bks.cpg/sg65_28_cif.got.tgz:54641.got - 2010.06.03 17:01:31.
