data_PCOD9489673
_publ_section_title
;
Structure prediction by ZEFSAII (Michael W. Deem and Ramdas Pophale) SiO2 
 PCOD9489673
Probable space group: C M M M
;
_chemical_formula_sum "Si O2"
_cell_formula_units_Z 128
_cell_length_a 18.337384
_cell_length_b 18.677976
_cell_length_c 19.762093
_cell_angle_alpha 90.000000
_cell_angle_beta 90.000000
_cell_angle_gamma 90.000000
_cell_volume 6768.619976
_symmetry_space_group_name_H-M "C M M M"
_symmetry_group_IT_number 65
_symmetry_cell_setting 'orthorhombic'
loop_
_space_group_symop_operation_xyz
x,y,z
-x,-y,z
x,-y,-z
-x,y,-z
-x,-y,-z
x,y,-z
-x,y,z
x,-y,z
1/2+x,1/2+y,z
1/2-x,1/2-y,z
1/2+x,1/2-y,-z
1/2-x,1/2+y,-z
1/2-x,1/2-y,-z
1/2+x,1/2+y,-z
1/2-x,1/2+y,z
1/2+x,1/2-y,z
loop_
_atom_site_type_symbol
_atom_site_label
_atom_site_fract_x
_atom_site_fract_y
_atom_site_fract_z
Si Si1 0.776749 0.668884 0.209540
Si Si2 0.420551 0.414161 0.894817
Si Si3 0.765580 0.827194 0.422264
Si Si4 0.361838 0.582603 0.251670
Si Si5 0.243178 0.086455 0.075132
Si Si6 0.869815 0.583839 0.580713
Si Si7 0.579256 0.338098 0.370939
Si Si8 0.080343 0.682921 0.698914
O O1 0.750000 0.750000 0.198329
O O2 0.711277 0.630038 0.250592
O O3 0.779939 0.627133 0.137794
O O4 0.852402 0.668142 0.250818
O O5 0.500000 0.385755 0.916681
O O6 0.423028 0.500000 0.905850
O O7 0.409025 0.400778 0.815029
O O8 0.342778 0.391284 0.924740
O O9 0.744026 0.818761 0.500000
O O10 0.750000 0.750000 0.387581
O O11 0.713041 0.891555 0.401163
O O12 0.850558 0.841270 0.417739
O O13 0.340474 0.500000 0.247379
O O14 0.409158 0.599381 0.316869
O O15 0.245433 0.000000 0.086146
O O16 0.272962 0.101163 0.000000
O O17 0.884704 0.595968 0.500000
O O18 0.880398 0.500000 0.593050
O O19 0.914587 0.632919 0.632187
O O20 0.500000 0.340641 0.403668
O O21 0.584666 0.264124 0.328593
O O22 0.000000 0.673003 0.730371
#
# Coordination Sequence:
#
# PCOD9489673 Si02
#       8
#    16  16  16  16  16  16  16  16
#     4  11  21  37  60  85 115 154 195 240 290 347
#     4   8  14  26  46  75 112 147 178 220 275 327
#     4  10  20  36  57  78 105 145 189 232 280 341
#     4  10  20  34  55  82 111 149 191 229 272 332
#     4   9  19  35  55  82 114 151 199 247 288 340
#     4  10  22  40  63  89 115 149 196 249 300 350
#     4  11  22  34  53  82 114 148 185 227 279 340
#     4  11  24  39  57  85 120 154 191 240 299 355
#
# _framework density 18.910796999999999
#
# number of rings (size 3 to 8) (size 9 to 14) (size 15 to 20)
#    0.000    2.000    2.500    2.250    0.000    4.500 
#    0.000    3.125    0.000    0.375    0.000    3.500 
#    0.000    0.000    0.000    0.000    0.000    0.000 
#
# Total GULP energy -356707.490394 kJ/mol
# GULP energy per Si atom -5573.554537 kJ/mol
# Density = 1.886776 g / cm^3
# Si number density = 18.910797 Si / 1000 Ang^3
#
#
#
# Elastic Constant Matrix: (Units=GPa)
#
#
# Indices 1 2 3 4 5 6 
#
# 1 97.0907 18.1234 7.4379 0.0000 0.0000 0.0000
# 2 18.1234 50.1376 27.5513 0.0000 0.0000 0.0000
# 3 7.4379 27.5513 48.7860 0.0000 0.0000 0.0000
# 4 0.0000 0.0000 0.0000 15.2231 0.0000 0.0000
# 5 0.0000 0.0000 0.0000 0.0000 18.5124 0.0000
# 6 0.0000 0.0000 0.0000 0.0000 0.0000 3.8699
#
#
#
# Elastic Compliance Matrix: (Units=1/GPa)
#
#
# Indices 1 2 3 4 5 6 
#
# 1 0.011068 -0.004457 0.000829 0.000000 0.000000 0.000000
# 2 -0.004457 0.030714 -0.016666 0.000000 0.000000 0.000000
# 3 0.000829 -0.016666 0.029783 0.000000 0.000000 0.000000
# 4 0.000000 0.000000 0.000000 0.065690 0.000000 0.000000
# 5 0.000000 0.000000 0.000000 0.000000 0.054018 0.000000
# 6 0.000000 0.000000 0.000000 0.000000 0.000000 0.258404
#
#
# Mechanical properties :
#
#
# Convention : Reuss Voigt Hill
#
# Bulk Modulus (GPa) = 32.27995 33.58215 32.93105
# Shear Modulus (GPa) = 9.98822 17.04786 13.51804
#
# Velocity S-wave (km/s) = 2.30070 3.00574 2.67653
# Velocity P-wave (km/s) = 4.91572 5.46285 5.19649
#
# Compressibility (1/GPa) = 0.03097898
#
# Stress axis : x y z
#
# Youngs Moduli (GPa) = 90.35067 32.55827 33.57603
#
# Poissons Ratio (x) = 0.14510 -0.02785
# Poissons Ratio (y) = 0.40265 0.55958
# Poissons Ratio (z) = -0.07493 0.54262
#
# Static dielectric constant tensor:
#      x y z
#    x 1.674210 0.000000 0.000000 
#    y 0.000000 1.656750 0.000000 
#    z 0.000000 0.000000 1.690150 
# 
# From -- ./inp_files/64096.got.cif
#   From: 2010.05.17/outbox.cif.g08.bks.cpg/sg65_33_cif.got.tgz:64096.got - 2010.06.03 17:01:31.
