data_PCOD9489329
_publ_section_title
;
Structure prediction by ZEFSAII (Michael W. Deem and Ramdas Pophale) SiO2 
 PCOD9489329
Probable space group: C M M M
;
_chemical_formula_sum "Si O2"
_cell_formula_units_Z 120
_cell_length_a 30.114941
_cell_length_b 8.741674
_cell_length_c 26.084372
_cell_angle_alpha 90.000000
_cell_angle_beta 90.000000
_cell_angle_gamma 90.000000
_cell_volume 6866.841266
_symmetry_space_group_name_H-M "C M M M"
_symmetry_group_IT_number 65
_symmetry_cell_setting 'orthorhombic'
loop_
_space_group_symop_operation_xyz
x,y,z
-x,-y,z
x,-y,-z
-x,y,-z
-x,-y,-z
x,y,-z
-x,y,z
x,-y,z
1/2+x,1/2+y,z
1/2-x,1/2-y,z
1/2+x,1/2-y,-z
1/2-x,1/2+y,-z
1/2-x,1/2-y,-z
1/2+x,1/2+y,-z
1/2-x,1/2+y,z
1/2+x,1/2-y,z
loop_
_atom_site_type_symbol
_atom_site_label
_atom_site_fract_x
_atom_site_fract_y
_atom_site_fract_z
Si Si1 0.296132 0.325349 0.836974
Si Si2 0.948797 0.313899 0.942669
Si Si3 0.382145 0.817965 0.667822
Si Si4 0.795467 0.825690 0.286596
Si Si5 0.447944 0.316291 0.251897
Si Si6 0.000000 0.329051 0.561617
Si Si7 0.607366 0.816161 0.844433
Si Si8 0.903044 0.687077 0.442195
O O1 0.299305 0.500000 0.855253
O O2 0.250000 0.250000 0.855337
O O3 0.293503 0.328984 0.775043
O O4 0.341625 0.236498 0.848065
O O5 0.948354 0.500000 0.942729
O O6 0.918153 0.264827 0.895919
O O7 0.000000 0.267200 0.934393
O O8 0.935207 0.264436 0.000000
O O9 0.338111 0.769960 0.697543
O O10 0.423885 0.741692 0.696450
O O11 0.375687 0.772539 0.608152
O O12 0.388452 0.000000 0.669890
O O13 0.750000 0.750000 0.305520
O O14 0.799815 0.000000 0.304748
O O15 0.500000 0.269761 0.248885
O O16 0.446036 0.500000 0.250380
O O17 0.418793 0.251747 0.204544
O O18 0.047265 0.255623 0.571793
O O19 0.000000 0.500000 0.585120
O O20 0.000000 0.346227 0.500000
O O21 0.605745 0.000000 0.840395
O O22 0.890788 0.737198 0.500000
O O23 0.905363 0.500000 0.444595
#
# Coordination Sequence:
#
# PCOD9489329 Si02
#       8
#    16  16  16  16  16   8  16  16
#     4  10  20  34  53  76 106 140 173 214 263 312
#     4   8  15  29  50  78 110 142 178 220 262 302
#     4  11  21  32  53  80 105 133 171 214 258 312
#     4  10  20  35  55  76 104 135 168 211 261 311
#     4  11  24  38  49  68 106 150 181 211 258 309
#     4   7  10  20  38  60  89 123 159 199 242 283
#     4  11  20  32  55  82 108 138 177 220 262 313
#     4   8  15  27  44  69 100 131 165 209 257 302
#
# _framework density 17.475285
#
# number of rings (size 3 to 8) (size 9 to 14) (size 15 to 20)
#    0.000    2.333    1.333    3.600    0.933    2.667 
#    0.000    0.000    0.000    4.000    0.000    5.600 
#    0.000    0.000    0.000    0.000    0.000    0.000 
#
# Total GULP energy -334243.821131 kJ/mol
# GULP energy per Si atom -5570.730352 kJ/mol
# Density = 1.743551 g / cm^3
# Si number density = 17.475285 Si / 1000 Ang^3
#
#
#
# Elastic Constant Matrix: (Units=GPa)
#
#
# Indices 1 2 3 4 5 6 
#
# 1 105.9090 31.1594 40.4038 0.0000 0.0000 0.0000
# 2 31.1594 50.7784 26.3359 0.0000 0.0000 0.0000
# 3 40.4038 26.3359 89.0868 0.0000 0.0000 0.0000
# 4 0.0000 0.0000 0.0000 0.7726 0.0000 0.0000
# 5 0.0000 0.0000 0.0000 0.0000 9.8118 0.0000
# 6 0.0000 0.0000 0.0000 0.0000 0.0000 18.7654
#
#
#
# Elastic Compliance Matrix: (Units=1/GPa)
#
#
# Indices 1 2 3 4 5 6 
#
# 1 0.012659 -0.005658 -0.004069 0.000000 0.000000 0.000000
# 2 -0.005658 0.025788 -0.005058 0.000000 0.000000 0.000000
# 3 -0.004069 -0.005058 0.014565 0.000000 0.000000 0.000000
# 4 0.000000 0.000000 0.000000 1.294270 0.000000 0.000000
# 5 0.000000 0.000000 0.000000 0.000000 0.101918 0.000000
# 6 0.000000 0.000000 0.000000 0.000000 0.000000 0.053290
#
#
# Mechanical properties :
#
#
# Convention : Reuss Voigt Hill
#
# Bulk Modulus (GPa) = 42.65377 49.06361 45.85869
# Shear Modulus (GPa) = 3.24702 15.72829 9.48766
#
# Velocity S-wave (km/s) = 1.36459 3.00331 2.33259
# Velocity P-wave (km/s) = 5.19075 6.33746 5.79255
#
# Compressibility (1/GPa) = 0.02344459
#
# Stress axis : x y z
#
# Youngs Moduli (GPa) = 78.99650 38.77730 68.65577
#
# Poissons Ratio (x) = 0.21939 0.27934
# Poissons Ratio (y) = 0.44694 0.34723
# Poissons Ratio (z) = 0.32141 0.19612
#
# Static dielectric constant tensor:
#      x y z
#    x 1.600080 0.000000 0.000000 
#    y 0.000000 1.607460 0.000000 
#    z 0.000000 0.000000 1.602910 
# 
# From -- ./inp_files/76156.got.cif
#   From: 2010.05.17/outbox.cif.g08.bks.cpg/sg65_39_cif.got.tgz:76156.got - 2010.06.03 17:01:31.
