data_PCOD9489240
_publ_section_title
;
Structure prediction by ZEFSAII (Michael W. Deem and Ramdas Pophale) SiO2 
 PCOD9489240
Probable space group: C M M M
;
_chemical_formula_sum "Si O2"
_cell_formula_units_Z 80
_cell_length_a 8.916131
_cell_length_b 27.679934
_cell_length_c 18.935108
_cell_angle_alpha 90.000000
_cell_angle_beta 90.000000
_cell_angle_gamma 90.000000
_cell_volume 4673.145224
_symmetry_space_group_name_H-M "C M M M"
_symmetry_group_IT_number 65
_symmetry_cell_setting 'orthorhombic'
loop_
_space_group_symop_operation_xyz
x,y,z
-x,-y,z
x,-y,-z
-x,y,-z
-x,-y,-z
x,y,-z
-x,y,z
x,-y,z
1/2+x,1/2+y,z
1/2-x,1/2-y,z
1/2+x,1/2-y,-z
1/2-x,1/2+y,-z
1/2-x,1/2-y,-z
1/2+x,1/2+y,-z
1/2-x,1/2+y,z
1/2+x,1/2-y,z
loop_
_atom_site_type_symbol
_atom_site_label
_atom_site_fract_x
_atom_site_fract_y
_atom_site_fract_z
Si Si1 0.679937 0.351066 0.648026
Si Si2 0.320307 0.198880 0.215861
Si Si3 0.319727 0.055385 0.710228
Si Si4 0.180459 0.803065 0.500000
Si Si5 0.320964 0.100570 0.860932
Si Si6 0.820730 0.055967 0.000000
O O1 0.500000 0.349275 0.654796
O O2 0.753442 0.318170 0.709030
O O3 0.738080 0.405161 0.662299
O O4 0.723369 0.331395 0.571140
O O5 0.500000 0.202385 0.221675
O O6 0.250000 0.250000 0.195807
O O7 0.285214 0.155650 0.161230
O O8 0.500000 0.061242 0.702959
O O9 0.283460 0.068667 0.791681
O O10 0.280648 0.000000 0.695107
O O11 0.250000 0.750000 0.500000
O O12 0.000000 0.798743 0.500000
O O13 0.500000 0.097162 0.871724
O O14 0.239242 0.082032 0.930051
O O15 0.000000 0.056719 0.000000
O O16 0.770017 0.000000 0.000000
#
# Coordination Sequence:
#
# PCOD9489240 Si02
#       6
#    16  16  16   8  16   8
#     4  10  20  34  52  76 105 136 172 212 255 304
#     4  10  20  35  55  79 104 133 171 212 255 303
#     4   9  18  34  55  78 103 133 172 215 256 301
#     4  10  22  36  51  74 103 135 170 209 255 306
#     4   9  19  35  54  75 101 134 170 206 248 302
#     4  11  23  35  50  77 108 133 164 209 254 297
#
# _framework density 17.119091000000001
#
# number of rings (size 3 to 8) (size 9 to 14) (size 15 to 20)
#    0.000    2.300    0.000    3.900    0.000    9.200 
#    0.000    1.000    0.000    3.000    0.000    0.000 
#    0.000    0.000    0.000    0.000    0.000    0.000 
#
# Total GULP energy -223263.856006 kJ/mol
# GULP energy per Si atom -5581.596400 kJ/mol
# Density = 1.708013 g / cm^3
# Si number density = 17.119091 Si / 1000 Ang^3
#
#
#
# Elastic Constant Matrix: (Units=GPa)
#
#
# Indices 1 2 3 4 5 6 
#
# 1 46.7468 59.5212 55.6289 0.0000 0.0000 0.0000
# 2 59.5212 155.0007 86.5607 0.0000 0.0000 0.0000
# 3 55.6289 86.5607 141.0531 0.0000 0.0000 0.0000
# 4 0.0000 0.0000 0.0000 12.4478 0.0000 0.0000
# 5 0.0000 0.0000 0.0000 0.0000 27.9593 0.0000
# 6 0.0000 0.0000 0.0000 0.0000 0.0000 33.0648
#
#
#
# Elastic Compliance Matrix: (Units=1/GPa)
#
#
# Indices 1 2 3 4 5 6 
#
# 1 0.054102 -0.013479 -0.013065 0.000000 0.000000 0.000000
# 2 -0.013479 0.013174 -0.002768 0.000000 0.000000 0.000000
# 3 -0.013065 -0.002768 0.013941 0.000000 0.000000 0.000000
# 4 0.000000 0.000000 0.000000 0.080336 0.000000 0.000000
# 5 0.000000 0.000000 0.000000 0.000000 0.035766 0.000000
# 6 0.000000 0.000000 0.000000 0.000000 0.000000 0.030244
#
#
# Mechanical properties :
#
#
# Convention : Reuss Voigt Hill
#
# Bulk Modulus (GPa) = 44.26467 82.91356 63.58912
# Shear Modulus (GPa) = 17.02315 24.10038 20.56176
#
# Velocity S-wave (km/s) = 3.15682 3.75615 3.46945
# Velocity P-wave (km/s) = 6.26102 8.20671 7.29899
#
# Compressibility (1/GPa) = 0.02259138
#
# Stress axis : x y z
#
# Youngs Moduli (GPa) = 18.48366 75.90873 71.73082
#
# Poissons Ratio (x) = 1.02319 0.93716
# Poissons Ratio (y) = 0.24915 0.19858
# Poissons Ratio (z) = 0.24149 0.21014
#
# Static dielectric constant tensor:
#      x y z
#    x 1.573780 0.000000 0.000000 
#    y 0.000000 1.574210 0.000000 
#    z 0.000000 0.000000 1.550660 
# 
# From -- ./inp_files/49954.got.cif
#   From: 2010.05.17/outbox.cif.g08.bks.cpg/sg65_25_cif.got.tgz:49954.got - 2010.06.03 17:01:31.
