data_PCOD9489048
_publ_section_title
;
Structure prediction by ZEFSAII (Michael W. Deem and Ramdas Pophale) SiO2 
 PCOD9489048
Probable space group: C M M M
;
_chemical_formula_sum "Si O2"
_cell_formula_units_Z 96
_cell_length_a 28.382048
_cell_length_b 19.916629
_cell_length_c 9.649881
_cell_angle_alpha 90.000000
_cell_angle_beta 90.000000
_cell_angle_gamma 90.000000
_cell_volume 5454.833783
_symmetry_space_group_name_H-M "C M M M"
_symmetry_group_IT_number 65
_symmetry_cell_setting 'orthorhombic'
loop_
_space_group_symop_operation_xyz
x,y,z
-x,-y,z
x,-y,-z
-x,y,-z
-x,-y,-z
x,y,-z
-x,y,z
x,-y,z
1/2+x,1/2+y,z
1/2-x,1/2-y,z
1/2+x,1/2-y,-z
1/2-x,1/2+y,-z
1/2-x,1/2-y,-z
1/2+x,1/2+y,-z
1/2-x,1/2+y,z
1/2+x,1/2-y,z
loop_
_atom_site_type_symbol
_atom_site_label
_atom_site_fract_x
_atom_site_fract_y
_atom_site_fract_z
Si Si1 0.666424 0.422047 0.340899
Si Si2 0.556764 0.781417 0.338840
Si Si3 0.280034 0.076258 0.662740
Si Si4 0.056269 0.571864 0.332700
Si Si5 0.294123 0.795322 0.838908
Si Si6 0.119849 0.191340 0.160310
O O1 0.655874 0.402168 0.500000
O O2 0.653365 0.500000 0.323195
O O3 0.723110 0.418365 0.324625
O O4 0.640410 0.374182 0.234447
O O5 0.571340 0.773795 0.500000
O O6 0.500000 0.782146 0.336669
O O7 0.573644 0.855218 0.285888
O O8 0.576997 0.722704 0.245629
O O9 0.292002 0.083685 0.500000
O O10 0.300136 0.137139 0.751464
O O11 0.293311 0.000000 0.704393
O O12 0.061193 0.572492 0.500000
O O13 0.076018 0.500000 0.282360
O O14 0.000000 0.570635 0.305104
O O15 0.250000 0.750000 0.788041
O O16 0.339255 0.747663 0.832807
O O17 0.284399 0.812682 0.000000
O O18 0.108547 0.179039 0.000000
#
# Coordination Sequence:
#
# PCOD9489048 Si02
#       6
#    16  16  16  16  16  16
#     4   9  18  33  53  77 103 130 165 210 257 307
#     4   9  18  33  53  76 102 134 172 214 262 312
#     4   9  18  32  51  76 103 133 172 216 260 302
#     4   7  10  20  42  70  94 117 153 201 246 288
#     4  10  20  34  49  71 104 140 175 207 244 300
#     4  11  22  34  51  76 105 137 173 212 253 301
#
# _framework density 17.599069
#
# number of rings (size 3 to 8) (size 9 to 14) (size 15 to 20)
#    0.000    2.833    1.667    3.000    0.000    2.667 
#    0.000    2.500    0.000    4.000    0.000    5.833 
#    0.000    0.000    0.000    0.000    0.000    0.000 
#
# Total GULP energy -267464.709388 kJ/mol
# GULP energy per Si atom -5572.181446 kJ/mol
# Density = 1.755901 g / cm^3
# Si number density = 17.599069 Si / 1000 Ang^3
#
#
#
# Elastic Constant Matrix: (Units=GPa)
#
#
# Indices 1 2 3 4 5 6 
#
# 1 18.1942 9.3024 16.8727 0.0000 0.0000 0.0000
# 2 9.3024 91.9137 59.7504 0.0000 0.0000 0.0000
# 3 16.8727 59.7504 75.6878 0.0000 0.0000 0.0000
# 4 0.0000 0.0000 0.0000 13.3926 0.0000 0.0000
# 5 0.0000 0.0000 0.0000 0.0000 17.6260 0.0000
# 6 0.0000 0.0000 0.0000 0.0000 0.0000 17.8166
#
#
#
# Elastic Compliance Matrix: (Units=1/GPa)
#
#
# Indices 1 2 3 4 5 6 
#
# 1 0.071062 0.006381 -0.020879 0.000000 0.000000 0.000000
# 2 0.006381 0.022922 -0.019518 0.000000 0.000000 0.000000
# 3 -0.020879 -0.019518 0.033274 0.000000 0.000000 0.000000
# 4 0.000000 0.000000 0.000000 0.074668 0.000000 0.000000
# 5 0.000000 0.000000 0.000000 0.000000 0.056734 0.000000
# 6 0.000000 0.000000 0.000000 0.000000 0.000000 0.056127
#
#
# Mechanical properties :
#
#
# Convention : Reuss Voigt Hill
#
# Bulk Modulus (GPa) = 16.88415 39.73853 28.31134
# Shear Modulus (GPa) = 12.42044 16.42506 14.42275
#
# Velocity S-wave (km/s) = 2.65947 3.05830 2.86583
# Velocity P-wave (km/s) = 4.36405 5.92451 5.20311
#
# Compressibility (1/GPa) = 0.05922713
#
# Stress axis : x y z
#
# Youngs Moduli (GPa) = 14.07217 43.62643 30.05312
#
# Poissons Ratio (x) = -0.27836 0.62747
# Poissons Ratio (y) = -0.08979 0.58657
# Poissons Ratio (z) = 0.29381 0.85149
#
# Static dielectric constant tensor:
#      x y z
#    x 1.616050 0.000000 0.000000 
#    y 0.000000 1.613280 0.000000 
#    z 0.000000 0.000000 1.584640 
# 
# From -- ./inp_files/16333.got.cif
#   From: 2010.05.17/outbox.cif.g08.bks.cpg/sg65_9_cif.got.tgz:16333.got - 2010.06.03 17:01:31.
