data_PCOD9489915
_publ_section_title
;
Structure prediction by ZEFSAII (Michael W. Deem and Ramdas Pophale) SiO2 
 PCOD9489915
Probable space group: C M M M
;
_chemical_formula_sum "Si O2"
_cell_formula_units_Z 88
_cell_length_a 17.681856
_cell_length_b 11.227394
_cell_length_c 26.556476
_cell_angle_alpha 90.000000
_cell_angle_beta 90.000000
_cell_angle_gamma 90.000000
_cell_volume 5272.022526
_symmetry_space_group_name_H-M "C M M M"
_symmetry_group_IT_number 65
_symmetry_cell_setting 'orthorhombic'
loop_
_space_group_symop_operation_xyz
x,y,z
-x,-y,z
x,-y,-z
-x,y,-z
-x,-y,-z
x,y,-z
-x,y,z
x,-y,z
1/2+x,1/2+y,z
1/2-x,1/2-y,z
1/2+x,1/2-y,-z
1/2-x,1/2+y,-z
1/2-x,1/2-y,-z
1/2+x,1/2+y,-z
1/2-x,1/2+y,z
1/2+x,1/2-y,z
loop_
_atom_site_type_symbol
_atom_site_label
_atom_site_fract_x
_atom_site_fract_y
_atom_site_fract_z
Si Si1 0.086510 0.144174 0.609375
Si Si2 0.087402 0.139952 0.194595
Si Si3 0.159781 0.255602 0.096825
Si Si4 0.914667 0.859251 0.000000
Si Si5 0.310365 0.642415 0.706088
Si Si6 0.907911 0.136879 0.500000
Si Si7 0.590126 0.000000 0.939639
O O1 0.142124 0.167427 0.655291
O O2 0.112747 0.190398 0.554339
O O3 0.000000 0.184470 0.619177
O O4 0.082729 0.000000 0.604916
O O5 0.125260 0.210193 0.149013
O O6 0.134070 0.152191 0.246013
O O7 0.000000 0.175569 0.201520
O O8 0.088364 0.000000 0.181042
O O9 0.250000 0.250000 0.098601
O O10 0.129095 0.386065 0.084622
O O11 0.128842 0.179216 0.049973
O O12 0.000000 0.805867 0.000000
O O13 0.921091 0.000000 0.000000
O O14 0.285143 0.500000 0.704542
O O15 0.250000 0.750000 0.710684
O O16 0.000000 0.133516 0.500000
O O17 0.880492 0.000000 0.500000
O O18 0.500000 0.000000 0.931064
O O19 0.602469 0.000000 0.000000
#
# Coordination Sequence:
#
# PCOD9489915 Si02
#       7
#    16  16  16   8  16   8   8
#     4   8  13  24  46  74 103 138 182 227 270 313
#     4  10  21  39  61  80 103 134 177 225 271 320
#     4  12  25  38  60  85 115 141 178 221 269 321
#     4  11  23  39  61  83 109 141 179 221 265 311
#     4  10  20  35  54  78 108 141 178 219 272 324
#     4   7  10  18  37  70 105 133 172 229 274 306
#     4  11  24  42  62  82 116 156 184 211 263 337
#
# _framework density 16.691886
#
# number of rings (size 3 to 8) (size 9 to 14) (size 15 to 20)
#    0.000    2.091    0.909    4.636    2.545    3.636 
#    1.636    0.455    0.000    1.636    0.000    0.000 
#    0.000    2.182    0.000    0.000    0.000    0.000 
#
# Total GULP energy -245200.504502 kJ/mol
# GULP energy per Si atom -5572.738739 kJ/mol
# Density = 1.665389 g / cm^3
# Si number density = 16.691886 Si / 1000 Ang^3
#
#
#
# Elastic Constant Matrix: (Units=GPa)
#
#
# Indices 1 2 3 4 5 6 
#
# 1 129.2738 63.9850 70.4676 0.0000 0.0000 0.0000
# 2 63.9850 82.9541 58.2147 0.0000 0.0000 0.0000
# 3 70.4676 58.2147 145.3305 0.0000 0.0000 0.0000
# 4 0.0000 0.0000 0.0000 50.0083 0.0000 0.0000
# 5 0.0000 0.0000 0.0000 0.0000 20.4345 0.0000
# 6 0.0000 0.0000 0.0000 0.0000 0.0000 27.1047
#
#
#
# Elastic Compliance Matrix: (Units=1/GPa)
#
#
# Indices 1 2 3 4 5 6 
#
# 1 0.013575 -0.008140 -0.003322 0.000000 0.000000 0.000000
# 2 -0.008140 0.021649 -0.004725 0.000000 0.000000 0.000000
# 3 -0.003322 -0.004725 0.010384 0.000000 0.000000 0.000000
# 4 0.000000 0.000000 0.000000 0.019997 0.000000 0.000000
# 5 0.000000 0.000000 0.000000 0.000000 0.048937 0.000000
# 6 0.000000 0.000000 0.000000 0.000000 0.000000 0.036894
#
#
# Mechanical properties :
#
#
# Convention : Reuss Voigt Hill
#
# Bulk Modulus (GPa) = 75.55591 82.54365 79.04978
# Shear Modulus (GPa) = 26.56449 30.50225 28.53337
#
# Velocity S-wave (km/s) = 3.99364 4.27941 4.13899
# Velocity P-wave (km/s) = 8.16265 8.60096 8.38467
#
# Compressibility (1/GPa) = 0.01323523
#
# Stress axis : x y z
#
# Youngs Moduli (GPa) = 73.66471 46.19085 96.29946
#
# Poissons Ratio (x) = 0.37598 0.31988
# Poissons Ratio (y) = 0.59961 0.45504
# Poissons Ratio (z) = 0.24469 0.21826
#
# Static dielectric constant tensor:
#      x y z
#    x 1.555820 0.000000 0.000000 
#    y 0.000000 1.534470 0.000000 
#    z 0.000000 0.000000 1.572710 
# 
# From -- ./inp_files/74803.got.cif
#   From: 2010.05.17/outbox.cif.g08.bks.cpg/sg65_38_cif.got.tgz:74803.got - 2010.06.03 17:01:31.
