data_PCOD9489410
_publ_section_title
;
Structure prediction by ZEFSAII (Michael W. Deem and Ramdas Pophale) SiO2 
 PCOD9489410
Probable space group: C M M M
;
_chemical_formula_sum "Si O2"
_cell_formula_units_Z 104
_cell_length_a 22.679144
_cell_length_b 27.973213
_cell_length_c 9.336843
_cell_angle_alpha 90.000000
_cell_angle_beta 90.000000
_cell_angle_gamma 90.000000
_cell_volume 5923.372803
_symmetry_space_group_name_H-M "C M M M"
_symmetry_group_IT_number 65
_symmetry_cell_setting 'orthorhombic'
loop_
_space_group_symop_operation_xyz
x,y,z
-x,-y,z
x,-y,-z
-x,y,-z
-x,-y,-z
x,y,-z
-x,y,z
x,-y,z
1/2+x,1/2+y,z
1/2-x,1/2-y,z
1/2+x,1/2-y,-z
1/2-x,1/2+y,-z
1/2-x,1/2-y,-z
1/2+x,1/2+y,-z
1/2-x,1/2+y,z
1/2+x,1/2-y,z
loop_
_atom_site_type_symbol
_atom_site_label
_atom_site_fract_x
_atom_site_fract_y
_atom_site_fract_z
Si Si1 0.760940 0.304980 0.332279
Si Si2 0.928136 0.000000 0.335942
Si Si3 0.864683 0.359828 0.168718
Si Si4 0.571087 0.406416 0.836015
Si Si5 0.125900 0.819841 0.665747
Si Si6 0.569316 0.056015 0.328266
Si Si7 0.431234 0.763342 0.166395
O O1 0.779749 0.302725 0.500000
O O2 0.750000 0.250000 0.283554
O O3 0.807645 0.335381 0.242297
O O4 0.695892 0.327455 0.325562
O O5 0.909143 0.952768 0.252223
O O6 0.908385 0.000000 0.500000
O O7 0.000000 0.000000 0.336783
O O8 0.888513 0.407252 0.246078
O O9 0.914665 0.318729 0.181649
O O10 0.854059 0.368196 0.000000
O O11 0.500000 0.406331 0.836563
O O12 0.593112 0.359234 0.758672
O O13 0.591141 0.408593 0.000000
O O14 0.108116 0.822542 0.500000
O O15 0.108226 0.768604 0.729933
O O16 0.575819 0.062168 0.500000
O O17 0.500000 0.064984 0.293621
O O18 0.581281 0.000000 0.295716
O O19 0.500000 0.755034 0.196067
O O20 0.419782 0.749956 0.000000
#
# Coordination Sequence:
#
# PCOD9489410 Si02
#       7
#    16   8  16  16  16  16  16
#     4  10  21  39  58  77 106 145 189 232 273 322
#     4   9  17  31  53  79 105 135 175 217 254 307
#     4  11  22  35  57  85 114 148 188 233 280 335
#     4  10  20  34  53  78 110 144 174 213 272 331
#     4  11  22  35  54  78 104 139 184 231 272 319
#     4   9  19  37  61  88 118 153 191 232 284 345
#     4  10  21  35  50  75 113 148 176 214 270 332
#
# _framework density 17.557566000000001
#
# number of rings (size 3 to 8) (size 9 to 14) (size 15 to 20)
#    0.000    1.923    1.538    3.000    0.000    7.385 
#    0.000    0.769    1.692    0.000    0.000    0.000 
#    0.000    0.000    0.000    0.000    0.000    0.000 
#
# Total GULP energy -290201.159375 kJ/mol
# GULP energy per Si atom -5580.791526 kJ/mol
# Density = 1.751760 g / cm^3
# Si number density = 17.557566 Si / 1000 Ang^3
#
#
#
# Elastic Constant Matrix: (Units=GPa)
#
#
# Indices 1 2 3 4 5 6 
#
# 1 58.0845 34.0302 51.2184 0.0000 0.0000 0.0000
# 2 34.0302 113.1119 73.1374 0.0000 0.0000 0.0000
# 3 51.2184 73.1374 124.0320 0.0000 0.0000 0.0000
# 4 0.0000 0.0000 0.0000 34.9487 0.0000 0.0000
# 5 0.0000 0.0000 0.0000 0.0000 21.3262 0.0000
# 6 0.0000 0.0000 0.0000 0.0000 0.0000 21.2163
#
#
#
# Elastic Compliance Matrix: (Units=1/GPa)
#
#
# Indices 1 2 3 4 5 6 
#
# 1 0.027230 -0.001490 -0.010366 0.000000 0.000000 0.000000
# 2 -0.001490 0.014370 -0.007859 0.000000 0.000000 0.000000
# 3 -0.010366 -0.007859 0.016977 0.000000 0.000000 0.000000
# 4 0.000000 0.000000 0.000000 0.028613 0.000000 0.000000
# 5 0.000000 0.000000 0.000000 0.000000 0.046891 0.000000
# 6 0.000000 0.000000 0.000000 0.000000 0.000000 0.047134
#
#
# Mechanical properties :
#
#
# Convention : Reuss Voigt Hill
#
# Bulk Modulus (GPa) = 52.22313 68.00005 60.11159
# Shear Modulus (GPa) = 22.02398 24.62107 23.32252
#
# Velocity S-wave (km/s) = 3.54557 3.74880 3.64860
# Velocity P-wave (km/s) = 6.82422 7.58629 7.21532
#
# Compressibility (1/GPa) = 0.01914860
#
# Stress axis : x y z
#
# Youngs Moduli (GPa) = 36.72470 69.58838 58.90349
#
# Poissons Ratio (x) = 0.10366 0.61059
# Poissons Ratio (y) = 0.05470 0.46289
# Poissons Ratio (z) = 0.38069 0.54686
#
# Static dielectric constant tensor:
#      x y z
#    x 1.584970 0.000000 0.000000 
#    y 0.000000 1.593030 0.000000 
#    z 0.000000 0.000000 1.592620 
# 
# From -- ./inp_files/12453.got.cif
#   From: 2010.05.17/outbox.cif.g08.bks.cpg/sg65_7_cif.got.tgz:12453.got - 2010.06.03 17:01:31.
