data_PCOD9489818
_publ_section_title
;
Structure prediction by ZEFSAII (Michael W. Deem and Ramdas Pophale) SiO2 
 PCOD9489818
Probable space group: C M M M
;
_chemical_formula_sum "Si O2"
_cell_formula_units_Z 104
_cell_length_a 8.023088
_cell_length_b 28.431495
_cell_length_c 25.133879
_cell_angle_alpha 90.000000
_cell_angle_beta 90.000000
_cell_angle_gamma 90.000000
_cell_volume 5733.248582
_symmetry_space_group_name_H-M "C M M M"
_symmetry_group_IT_number 65
_symmetry_cell_setting 'orthorhombic'
loop_
_space_group_symop_operation_xyz
x,y,z
-x,-y,z
x,-y,-z
-x,y,-z
-x,-y,-z
x,y,-z
-x,y,z
x,-y,z
1/2+x,1/2+y,z
1/2-x,1/2-y,z
1/2+x,1/2-y,-z
1/2-x,1/2+y,-z
1/2-x,1/2-y,-z
1/2+x,1/2+y,-z
1/2-x,1/2+y,z
1/2+x,1/2-y,z
loop_
_atom_site_type_symbol
_atom_site_label
_atom_site_fract_x
_atom_site_fract_y
_atom_site_fract_z
Si Si1 0.299312 0.554619 0.615114
Si Si2 0.300552 0.195929 0.672848
Si Si3 0.697860 0.057012 0.942722
Si Si4 0.201456 0.305279 0.443282
Si Si5 0.200040 0.446478 0.172133
Si Si6 0.303751 0.605068 0.721848
Si Si7 0.801606 0.445710 0.500000
O O1 0.500000 0.555003 0.616514
O O2 0.242873 0.500000 0.616924
O O3 0.234250 0.580463 0.667986
O O4 0.249125 0.574816 0.557297
O O5 0.500000 0.193500 0.672590
O O6 0.250000 0.250000 0.680113
O O7 0.236473 0.178795 0.614404
O O8 0.231776 0.160150 0.715869
O O9 0.500000 0.068108 0.944060
O O10 0.764880 0.072361 0.885050
O O11 0.709920 0.000000 0.941541
O O12 0.769385 0.072657 0.000000
O O13 0.262112 0.325146 0.500000
O O14 0.250000 0.250000 0.443970
O O15 0.000000 0.309243 0.443134
O O16 0.262416 0.500000 0.180200
O O17 0.236791 0.416320 0.223863
O O18 0.000000 0.449146 0.166806
O O19 0.500000 0.596659 0.721734
O O20 0.734953 0.500000 0.500000
O O21 0.000000 0.446920 0.500000
#
# Coordination Sequence:
#
# PCOD9489818 Si02
#       7
#    16  16  16  16  16  16   8
#     4   9  18  33  50  65  87 121 156 190 231 281
#     4  10  20  35  53  70  92 119 152 194 241 291
#     4   7  10  19  38  65  96 129 163 196 230 270
#     4   8  14  26  45  66  85 105 130 166 218 278
#     4   9  17  29  47  72 101 132 166 203 239 275
#     4  11  22  34  48  68  95 127 163 197 236 285
#     4   9  17  29  47  69  88 109 144 193 243 283
#
# _framework density 18.139803000000001
#
# number of rings (size 3 to 8) (size 9 to 14) (size 15 to 20)
#    0.000    3.000    0.000    3.000    0.000    3.692 
#    1.385    1.538    0.000    0.462    0.000    2.154 
#    0.000    0.615    0.000    1.692    0.000    2.462 
#
# Total GULP energy -289675.926166 kJ/mol
# GULP energy per Si atom -5570.690888 kJ/mol
# Density = 1.809852 g / cm^3
# Si number density = 18.139803 Si / 1000 Ang^3
#
#
#
# Elastic Constant Matrix: (Units=GPa)
#
#
# Indices 1 2 3 4 5 6 
#
# 1 18.0726 -3.0119 13.9444 0.0000 0.0000 0.0000
# 2 -3.0119 52.4490 62.7532 0.0000 0.0000 0.0000
# 3 13.9444 62.7532 194.6076 0.0000 0.0000 0.0000
# 4 0.0000 0.0000 0.0000 19.2281 0.0000 0.0000
# 5 0.0000 0.0000 0.0000 0.0000 -9.2067 0.0000
# 6 0.0000 0.0000 0.0000 0.0000 0.0000 8.4706
#
#
#
# Elastic Compliance Matrix: (Units=1/GPa)
#
#
# Indices 1 2 3 4 5 6 
#
# 1 0.065260 0.015211 -0.009581 0.000000 0.000000 0.000000
# 2 0.015211 0.034588 -0.012243 0.000000 0.000000 0.000000
# 3 -0.009581 -0.012243 0.009773 0.000000 0.000000 0.000000
# 4 0.000000 0.000000 0.000000 0.052007 0.000000 0.000000
# 5 0.000000 0.000000 0.000000 0.000000 -0.108617 0.000000
# 6 0.000000 0.000000 0.000000 0.000000 0.000000 0.118055
#
#
# Mechanical properties :
#
#
# Convention : Reuss Voigt Hill
#
# Bulk Modulus (GPa) = 10.37408 45.83342 28.10375
# Shear Modulus (GPa) = 23.10276 16.46130 19.78203
#
# Velocity S-wave (km/s) = 3.57262 3.01569 3.30590
# Velocity P-wave (km/s) = 4.76964 6.11943 5.48621
#
# Compressibility (1/GPa) = 0.09639405
#
# Stress axis : x y z
#
# Youngs Moduli (GPa) = 15.32340 28.91162 102.32251
#
# Poissons Ratio (x) = -0.43977 0.98035
# Poissons Ratio (y) = -0.23308 1.25276
# Poissons Ratio (z) = 0.14681 0.35397
#
# Static dielectric constant tensor:
#      x y z
#    x 1.638070 0.000000 0.000000 
#    y 0.000000 1.629470 0.000000 
#    z 0.000000 0.000000 1.684250 
# 
# From -- ./inp_files/68539.got.cif
#   From: 2010.05.17/outbox.cif.g08.bks.cpg/sg65_35_cif.got.tgz:68539.got - 2010.06.03 17:01:31.
