data_PCOD9489301
_publ_section_title
;
Structure prediction by ZEFSAII (Michael W. Deem and Ramdas Pophale) SiO2 
 PCOD9489301
Probable space group: C M M M
;
_chemical_formula_sum "Si O2"
_cell_formula_units_Z 128
_cell_length_a 14.668627
_cell_length_b 24.039786
_cell_length_c 19.196433
_cell_angle_alpha 90.000000
_cell_angle_beta 90.000000
_cell_angle_gamma 90.000000
_cell_volume 6769.250723
_symmetry_space_group_name_H-M "C M M M"
_symmetry_group_IT_number 65
_symmetry_cell_setting 'orthorhombic'
loop_
_space_group_symop_operation_xyz
x,y,z
-x,-y,z
x,-y,-z
-x,y,-z
-x,-y,-z
x,y,-z
-x,y,z
x,-y,z
1/2+x,1/2+y,z
1/2-x,1/2-y,z
1/2+x,1/2-y,-z
1/2-x,1/2+y,-z
1/2-x,1/2-y,-z
1/2+x,1/2+y,-z
1/2-x,1/2+y,z
1/2+x,1/2-y,z
loop_
_atom_site_type_symbol
_atom_site_label
_atom_site_fract_x
_atom_site_fract_y
_atom_site_fract_z
Si Si1 0.651739 0.731959 0.787234
Si Si2 0.111290 0.436118 0.727416
Si Si3 0.393366 0.381007 0.717113
Si Si4 0.611034 0.564333 0.577749
Si Si5 0.213220 0.164440 0.921752
Si Si6 0.108499 0.567204 0.424930
Si Si7 0.102496 0.652891 0.156593
Si Si8 0.390158 0.435134 0.139684
O O1 0.750000 0.750000 0.759444
O O2 0.614544 0.683372 0.738466
O O3 0.668461 0.703876 0.863126
O O4 0.599717 0.788986 0.801023
O O5 0.141335 0.500000 0.738234
O O6 0.142725 0.414968 0.651166
O O7 0.134455 0.394804 0.789718
O O8 0.000000 0.437245 0.725092
O O9 0.500000 0.394956 0.714072
O O10 0.356365 0.398534 0.642019
O O11 0.358383 0.416981 0.782526
O O12 0.640196 0.581112 0.500000
O O13 0.500000 0.564895 0.576678
O O14 0.638726 0.500000 0.589002
O O15 0.319434 0.158857 0.901231
O O16 0.163099 0.105363 0.912013
O O17 0.201725 0.185077 0.000000
O O18 0.145446 0.586951 0.500000
O O19 0.117232 0.500000 0.424205
O O20 0.000000 0.579068 0.425811
O O21 0.000000 0.640540 0.131411
O O22 0.500000 0.425413 0.134758
O O23 0.373639 0.500000 0.128037
#
# Coordination Sequence:
#
# PCOD9489301 Si02
#       8
#    16  16  16  16  16  16  16  16
#     4   9  19  34  51  69  92 123 163 209 255 299
#     4   8  14  25  42  66  96 128 163 203 244 288
#     4   9  15  26  47  72  98 128 163 204 247 292
#     4   8  13  21  37  67 104 134 159 192 237 289
#     4  10  22  38  54  76 104 129 158 202 253 303
#     4   7   9  15  31  57  88 120 153 191 236 280
#     4  10  20  34  53  75  99 131 170 208 247 295
#     4   9  18  33  54  80 107 135 167 202 246 301
#
# _framework density 18.909033999999998
#
# number of rings (size 3 to 8) (size 9 to 14) (size 15 to 20)
#    0.000    3.250    0.000    2.250    0.000    5.500 
#    0.000    0.625    0.000    1.125    0.000   13.125 
#    0.000   18.000    0.000    1.250    0.000    0.000 
#
# Total GULP energy -356517.946621 kJ/mol
# GULP energy per Si atom -5570.592916 kJ/mol
# Density = 1.886600 g / cm^3
# Si number density = 18.909034 Si / 1000 Ang^3
#
#
#
# Elastic Constant Matrix: (Units=GPa)
#
#
# Indices 1 2 3 4 5 6 
#
# 1 58.9780 12.8868 4.4786 0.0000 0.0000 0.0000
# 2 12.8868 70.9735 26.0036 0.0000 0.0000 0.0000
# 3 4.4786 26.0036 103.0001 0.0000 0.0000 0.0000
# 4 0.0000 0.0000 0.0000 5.5462 0.0000 0.0000
# 5 0.0000 0.0000 0.0000 0.0000 63.7568 0.0000
# 6 0.0000 0.0000 0.0000 0.0000 0.0000 -37.4940
#
#
#
# Elastic Compliance Matrix: (Units=1/GPa)
#
#
# Indices 1 2 3 4 5 6 
#
# 1 0.017656 -0.003223 0.000046 0.000000 0.000000 0.000000
# 2 -0.003223 0.016114 -0.003928 0.000000 0.000000 0.000000
# 3 0.000046 -0.003928 0.010698 0.000000 0.000000 0.000000
# 4 0.000000 0.000000 0.000000 0.180303 0.000000 0.000000
# 5 0.000000 0.000000 0.000000 0.000000 0.015685 0.000000
# 6 0.000000 0.000000 0.000000 0.000000 0.000000 -0.026671
#
#
# Mechanical properties :
#
#
# Convention : Reuss Voigt Hill
#
# Bulk Modulus (GPa) = 33.04808 35.52107 34.28457
# Shear Modulus (GPa) = 21.00126 19.00064 20.00095
#
# Velocity S-wave (km/s) = 3.33625 3.17337 3.25583
# Velocity P-wave (km/s) = 5.68824 5.67917 5.68371
#
# Compressibility (1/GPa) = 0.03025895
#
# Stress axis : x y z
#
# Youngs Moduli (GPa) = 56.63754 62.05749 93.47171
#
# Poissons Ratio (x) = 0.19999 -0.00429
# Poissons Ratio (y) = 0.18252 0.36716
# Poissons Ratio (z) = -0.00260 0.24377
#
# Static dielectric constant tensor:
#      x y z
#    x 1.731470 0.000000 0.000000 
#    y 0.000000 1.644630 0.000000 
#    z 0.000000 0.000000 1.682770 
# 
# From -- ./inp_files/55100.got.cif
#   From: 2010.05.17/outbox.cif.g08.bks.cpg/sg65_28_cif.got.tgz:55100.got - 2010.06.03 17:01:31.
