data_PCOD9489409
_publ_section_title
;
Structure prediction by ZEFSAII (Michael W. Deem and Ramdas Pophale) SiO2 
 PCOD9489409
Probable space group: C M M M
;
_chemical_formula_sum "Si O2"
_cell_formula_units_Z 80
_cell_length_a 7.906370
_cell_length_b 28.762900
_cell_length_c 20.396410
_cell_angle_alpha 90.000000
_cell_angle_beta 90.000000
_cell_angle_gamma 90.000000
_cell_volume 4638.350243
_symmetry_space_group_name_H-M "C M M M"
_symmetry_group_IT_number 65
_symmetry_cell_setting 'orthorhombic'
loop_
_space_group_symop_operation_xyz
x,y,z
-x,-y,z
x,-y,-z
-x,y,-z
-x,-y,-z
x,y,-z
-x,y,z
x,-y,z
1/2+x,1/2+y,z
1/2-x,1/2-y,z
1/2+x,1/2-y,-z
1/2-x,1/2+y,-z
1/2-x,1/2-y,-z
1/2+x,1/2+y,-z
1/2-x,1/2+y,z
1/2+x,1/2-y,z
loop_
_atom_site_type_symbol
_atom_site_label
_atom_site_fract_x
_atom_site_fract_y
_atom_site_fract_z
Si Si1 0.704107 0.196266 0.357273
Si Si2 0.301032 0.894235 0.294209
Si Si3 0.296698 0.195449 0.500000
Si Si4 0.188245 0.055505 0.165427
Si Si5 0.296174 0.555201 0.427295
Si Si6 0.500000 0.056616 0.924897
O O1 0.500000 0.194075 0.359282
O O2 0.750000 0.250000 0.346636
O O3 0.761339 0.158592 0.304626
O O4 0.768354 0.179588 0.429261
O O5 0.500000 0.893992 0.278279
O O6 0.209490 0.920642 0.235834
O O7 0.278853 0.919418 0.364353
O O8 0.500000 0.190014 0.500000
O O9 0.250000 0.250000 0.500000
O O10 0.334060 0.070931 0.115590
O O11 0.000000 0.064248 0.139445
O O12 0.207110 0.000000 0.174995
O O13 0.238798 0.571706 0.500000
O O14 0.500000 0.559920 0.424972
O O15 0.258377 0.500000 0.423359
O O16 0.500000 0.000000 0.926442
O O17 0.500000 0.072681 0.000000
#
# Coordination Sequence:
#
# PCOD9489409 Si02
#       6
#    16  16   8  16  16   8
#     4   9  19  32  47  65  89 122 161 215 266 316
#     4  11  21  31  48  71  98 133 170 215 260 312
#     4   8  14  28  44  58  79 110 153 205 265 312
#     4  10  20  34  53  78 109 145 178 207 248 303
#     4   9  19  34  47  62  88 123 169 221 264 304
#     4   9  18  34  56  82 113 143 171 207 246 292
#
# _framework density 17.247512
#
# number of rings (size 3 to 8) (size 9 to 14) (size 15 to 20)
#    0.000    2.500    1.000    1.800    1.400    5.200 
#    0.000    3.000    0.000    0.000    0.000    0.000 
#    0.000    0.800    0.400    0.000    0.000    0.000 
#
# Total GULP energy -223067.949670 kJ/mol
# GULP energy per Si atom -5576.698742 kJ/mol
# Density = 1.720826 g / cm^3
# Si number density = 17.247512 Si / 1000 Ang^3
#
#
#
# Elastic Constant Matrix: (Units=GPa)
#
#
# Indices 1 2 3 4 5 6 
#
# 1 68.0042 25.1264 42.7968 0.0000 0.0000 0.0000
# 2 25.1264 45.6944 34.0289 0.0000 0.0000 0.0000
# 3 42.7968 34.0289 104.6290 0.0000 0.0000 0.0000
# 4 0.0000 0.0000 0.0000 10.9538 0.0000 0.0000
# 5 0.0000 0.0000 0.0000 0.0000 10.4083 0.0000
# 6 0.0000 0.0000 0.0000 0.0000 0.0000 15.0514
#
#
#
# Elastic Compliance Matrix: (Units=1/GPa)
#
#
# Indices 1 2 3 4 5 6 
#
# 1 0.021335 -0.006905 -0.006481 0.000000 0.000000 0.000000
# 2 -0.006905 0.031114 -0.007295 0.000000 0.000000 0.000000
# 3 -0.006481 -0.007295 0.014581 0.000000 0.000000 0.000000
# 4 0.000000 0.000000 0.000000 0.091293 0.000000 0.000000
# 5 0.000000 0.000000 0.000000 0.000000 0.096077 0.000000
# 6 0.000000 0.000000 0.000000 0.000000 0.000000 0.066439
#
#
# Mechanical properties :
#
#
# Convention : Reuss Voigt Hill
#
# Bulk Modulus (GPa) = 38.95903 46.91464 42.93684
# Shear Modulus (GPa) = 13.48594 15.04108 14.26351
#
# Velocity S-wave (km/s) = 2.79929 2.95629 2.87886
# Velocity P-wave (km/s) = 5.75198 6.23801 5.99992
#
# Compressibility (1/GPa) = 0.02566799
#
# Stress axis : x y z
#
# Youngs Moduli (GPa) = 46.87140 32.13977 68.58236
#
# Poissons Ratio (x) = 0.22194 0.44447
# Poissons Ratio (y) = 0.32366 0.50030
# Poissons Ratio (z) = 0.30377 0.23445
#
# Static dielectric constant tensor:
#      x y z
#    x 1.624470 0.000000 0.000000 
#    y 0.000000 1.588310 0.000000 
#    z 0.000000 0.000000 1.568750 
# 
# From -- ./inp_files/50165.got.cif
#   From: 2010.05.17/outbox.cif.g08.bks.cpg/sg65_26_cif.got.tgz:50165.got - 2010.06.03 17:01:31.
