data_PCOD9489955
_publ_section_title
;
Structure prediction by ZEFSAII (Michael W. Deem and Ramdas Pophale) SiO2 
 PCOD9489955
Probable space group: C M M M
;
_chemical_formula_sum "Si O2"
_cell_formula_units_Z 88
_cell_length_a 23.375550
_cell_length_b 23.461064
_cell_length_c 8.003108
_cell_angle_alpha 90.000000
_cell_angle_beta 90.000000
_cell_angle_gamma 90.000000
_cell_volume 4389.026671
_symmetry_space_group_name_H-M "C M M M"
_symmetry_group_IT_number 65
_symmetry_cell_setting 'orthorhombic'
loop_
_space_group_symop_operation_xyz
x,y,z
-x,-y,z
x,-y,-z
-x,y,-z
-x,-y,-z
x,y,-z
-x,y,z
x,-y,z
1/2+x,1/2+y,z
1/2-x,1/2-y,z
1/2+x,1/2-y,-z
1/2-x,1/2+y,-z
1/2-x,1/2-y,-z
1/2+x,1/2+y,-z
1/2-x,1/2+y,z
1/2+x,1/2-y,z
loop_
_atom_site_type_symbol
_atom_site_label
_atom_site_fract_x
_atom_site_fract_y
_atom_site_fract_z
Si Si1 0.214407 0.938355 0.201242
Si Si2 0.373823 0.214656 0.803046
Si Si3 0.000000 0.856987 0.689553
Si Si4 0.658884 0.093825 0.205007
Si Si5 0.376409 0.654746 0.302355
Si Si6 0.000000 0.732785 0.804969
Si Si7 0.433439 0.000000 0.204179
O O1 0.280208 0.931803 0.255525
O O2 0.174926 0.886221 0.253740
O O3 0.192189 0.000000 0.259641
O O4 0.215033 0.938521 0.000000
O O5 0.342371 0.159301 0.734105
O O6 0.365136 0.279015 0.741142
O O7 0.441134 0.200606 0.780027
O O8 0.361686 0.217444 0.000000
O O9 0.937696 0.867591 0.770472
O O10 0.000000 0.787913 0.688841
O O11 0.000000 0.880159 0.500000
O O12 0.604845 0.054942 0.255490
O O13 0.657360 0.094699 0.000000
O O14 0.383691 0.652896 0.500000
O O15 0.000000 0.752536 0.000000
O O16 0.500000 0.000000 0.259329
O O17 0.434700 0.000000 0.000000
#
# Coordination Sequence:
#
# PCOD9489955 Si02
#       7
#    16  16   8  16  16   8   8
#     4  10  20  36  55  73 100 139 176 208 252 308
#     4   9  17  29  48  76 106 136 169 209 257 304
#     4   8  16  32  51  71  97 128 159 199 252 305
#     4   9  17  30  48  73 107 143 175 210 254 302
#     4  10  20  35  55  77 102 131 168 212 258 309
#     4   8  14  24  42  70 103 132 162 200 244 295
#     4   9  16  26  46  78 113 144 177 218 256 293
#
# _framework density 20.050004000000001
#
# number of rings (size 3 to 8) (size 9 to 14) (size 15 to 20)
#    0.000    2.818    0.909    0.545    1.273    1.818 
#    0.000    5.000    0.000    2.727    0.000    0.000 
#    0.000    2.909    0.000    0.000    0.000    0.000 
#
# Total GULP energy -244958.914035 kJ/mol
# GULP energy per Si atom -5567.248046 kJ/mol
# Density = 2.000437 g / cm^3
# Si number density = 20.050004 Si / 1000 Ang^3
#
#
#
# Elastic Constant Matrix: (Units=GPa)
#
#
# Indices 1 2 3 4 5 6 
#
# 1 117.9610 79.2880 11.2074 0.0000 0.0000 0.0000
# 2 79.2880 142.9519 10.6256 0.0000 0.0000 0.0000
# 3 11.2074 10.6256 9.6818 0.0000 0.0000 0.0000
# 4 0.0000 0.0000 0.0000 -37.3564 0.0000 0.0000
# 5 0.0000 0.0000 0.0000 0.0000 8.2098 0.0000
# 6 0.0000 0.0000 0.0000 0.0000 0.0000 15.0880
#
#
#
# Elastic Compliance Matrix: (Units=1/GPa)
#
#
# Indices 1 2 3 4 5 6 
#
# 1 0.014123 -0.007206 -0.008440 0.000000 0.000000 0.000000
# 2 -0.007206 0.011293 -0.004053 0.000000 0.000000 0.000000
# 3 -0.008440 -0.004053 0.117505 0.000000 0.000000 0.000000
# 4 0.000000 0.000000 0.000000 -0.026769 0.000000 0.000000
# 5 0.000000 0.000000 0.000000 0.000000 0.121806 0.000000
# 6 0.000000 0.000000 0.000000 0.000000 0.000000 0.066278
#
#
# Mechanical properties :
#
#
# Convention : Reuss Voigt Hill
#
# Bulk Modulus (GPa) = 9.65963 52.53741 31.09852
# Shear Modulus (GPa) = 13.22262 8.48653 10.85457
#
# Velocity S-wave (km/s) = 2.57082 2.05958 2.32927
# Velocity P-wave (km/s) = 3.69329 5.64942 4.77265
#
# Compressibility (1/GPa) = 0.10352359
#
# Stress axis : x y z
#
# Youngs Moduli (GPa) = 70.80832 88.54817 8.51029
#
# Poissons Ratio (x) = 0.63806 0.07183
# Poissons Ratio (y) = 0.51023 0.03449
# Poissons Ratio (z) = 0.59761 0.35889
#
# Static dielectric constant tensor:
#      x y z
#    x 1.752360 0.000000 0.000000 
#    y 0.000000 1.706290 0.000000 
#    z 0.000000 0.000000 1.739650 
# 
# From -- ./inp_files/11902.got.cif
#   From: 2010.05.17/outbox.cif.g08.bks.cpg/sg65_6_cif.got.tgz:11902.got - 2010.06.03 17:01:31.
