data_PCOD9489921
_publ_section_title
;
Structure prediction by ZEFSAII (Michael W. Deem and Ramdas Pophale) SiO2 
 PCOD9489921
Probable space group: C M M M
;
_chemical_formula_sum "Si O2"
_cell_formula_units_Z 100
_cell_length_a 7.895642
_cell_length_b 20.241067
_cell_length_c 31.169902
_cell_angle_alpha 90.000000
_cell_angle_beta 90.000000
_cell_angle_gamma 90.000000
_cell_volume 4981.455876
_symmetry_space_group_name_H-M "C M M M"
_symmetry_group_IT_number 65
_symmetry_cell_setting 'orthorhombic'
loop_
_space_group_symop_operation_xyz
x,y,z
-x,-y,z
x,-y,-z
-x,y,-z
-x,-y,-z
x,y,-z
-x,y,z
x,-y,z
1/2+x,1/2+y,z
1/2-x,1/2-y,z
1/2+x,1/2-y,-z
1/2-x,1/2+y,-z
1/2-x,1/2-y,-z
1/2+x,1/2+y,-z
1/2-x,1/2+y,z
1/2+x,1/2-y,z
loop_
_atom_site_type_symbol
_atom_site_label
_atom_site_fract_x
_atom_site_fract_y
_atom_site_fract_z
Si Si1 0.701031 0.924858 0.500000
Si Si2 0.500000 0.500000 0.866689
Si Si3 0.202975 0.325454 0.237039
Si Si4 0.800996 0.604389 0.150837
Si Si5 0.700348 0.575024 0.407506
Si Si6 0.293246 0.423979 0.000000
Si Si7 0.298944 0.825215 0.667148
Si Si8 0.702608 0.321863 0.072839
O O1 0.500000 0.928489 0.500000
O O2 0.752838 0.895857 0.454239
O O3 0.773468 0.000000 0.500000
O O4 0.653252 0.443819 0.865667
O O5 0.250000 0.250000 0.226977
O O6 0.251870 0.374107 0.198862
O O7 0.270891 0.340287 0.284953
O O8 0.000000 0.328838 0.238634
O O9 0.789760 0.666256 0.118570
O O10 0.000000 0.581812 0.151252
O O11 0.500000 0.569140 0.406649
O O12 0.773717 0.500000 0.404005
O O13 0.749684 0.622284 0.368713
O O14 0.242351 0.381272 0.958679
O O15 0.234661 0.500000 0.000000
O O16 0.500000 0.426335 0.000000
O O17 0.500000 0.826756 0.670244
O O18 0.250000 0.750000 0.656019
O O19 0.500000 0.324462 0.076643
O O20 0.750000 0.250000 0.055360
#
# Coordination Sequence:
#
# PCOD9489921 Si02
#       8
#     8   4  16  16  16   8  16  16
#     4   9  17  31  54  79 106 145 190 235 289 353
#     4  12  26  44  64  95 134 176 200 253 326 376
#     4   9  20  37  61  88 117 154 201 252 300 353
#     4  11  24  43  66  96 129 167 214 260 308 375
#     4  10  20  35  54  82 113 148 190 241 292 350
#     4   9  21  38  63  91 130 175 217 263 323 387
#     4  10  20  37  58  83 116 155 196 243 296 354
#     4  11  22  39  66  97 129 169 219 271 319 371
#
# _framework density 20.074452999999998
#
# number of rings (size 3 to 8) (size 9 to 14) (size 15 to 20)
#    0.000    1.920    0.800    2.640    2.240    3.840 
#    1.440    1.600    0.000    1.920    0.000    0.000 
#    0.000    0.000    0.000    0.000    0.000    0.000 
#
# Total GULP energy -278384.252395 kJ/mol
# GULP energy per Si atom -5567.685048 kJ/mol
# Density = 2.002876 g / cm^3
# Si number density = 20.074453 Si / 1000 Ang^3
#
#
#
# Elastic Constant Matrix: (Units=GPa)
#
#
# Indices 1 2 3 4 5 6 
#
# 1 75.2129 20.7923 17.6590 0.0000 0.0000 0.0000
# 2 20.7923 102.0912 55.5696 0.0000 0.0000 0.0000
# 3 17.6590 55.5696 110.8373 0.0000 0.0000 0.0000
# 4 0.0000 0.0000 0.0000 32.6446 0.0000 0.0000
# 5 0.0000 0.0000 0.0000 0.0000 16.4060 0.0000
# 6 0.0000 0.0000 0.0000 0.0000 0.0000 160.2197
#
#
#
# Elastic Compliance Matrix: (Units=1/GPa)
#
#
# Indices 1 2 3 4 5 6 
#
# 1 0.014189 -0.002282 -0.001116 0.000000 0.000000 0.000000
# 2 -0.002282 0.013839 -0.006575 0.000000 0.000000 0.000000
# 3 -0.001116 -0.006575 0.012496 0.000000 0.000000 0.000000
# 4 0.000000 0.000000 0.000000 0.030633 0.000000 0.000000
# 5 0.000000 0.000000 0.000000 0.000000 0.060953 0.000000
# 6 0.000000 0.000000 0.000000 0.000000 0.000000 0.006241
#
#
# Mechanical properties :
#
#
# Convention : Reuss Voigt Hill
#
# Bulk Modulus (GPa) = 48.59692 52.90925 50.75308
# Shear Modulus (GPa) = 30.27435 54.79544 42.53489
#
# Velocity S-wave (km/s) = 3.88764 5.23024 4.60810
# Velocity P-wave (km/s) = 6.66428 7.93017 7.32462
#
# Compressibility (1/GPa) = 0.02057744
#
# Stress axis : x y z
#
# Youngs Moduli (GPa) = 70.47929 72.26201 80.02349
#
# Poissons Ratio (x) = 0.16490 0.08934
# Poissons Ratio (y) = 0.16083 0.52612
# Poissons Ratio (z) = 0.07869 0.47509
#
# Static dielectric constant tensor:
#      x y z
#    x 1.706940 0.000000 0.000000 
#    y 0.000000 1.697100 0.000000 
#    z 0.000000 0.000000 1.769610 
# 
# From -- ./inp_files/73413.got.cif
#   From: 2010.05.17/outbox.cif.g08.bks.cpg/sg65_37_cif.got.tgz:73413.got - 2010.06.03 17:01:31.
