data_PCOD9489218
_publ_section_title
;
Structure prediction by ZEFSAII (Michael W. Deem and Ramdas Pophale) SiO2 
 PCOD9489218
Probable space group: C M M M
;
_chemical_formula_sum "Si O2"
_cell_formula_units_Z 72
_cell_length_a 9.703257
_cell_length_b 14.964459
_cell_length_c 27.906136
_cell_angle_alpha 90.000000
_cell_angle_beta 90.000000
_cell_angle_gamma 90.000000
_cell_volume 4052.082336
_symmetry_space_group_name_H-M "C M M M"
_symmetry_group_IT_number 65
_symmetry_cell_setting 'orthorhombic'
loop_
_space_group_symop_operation_xyz
x,y,z
-x,-y,z
x,-y,-z
-x,y,-z
-x,-y,-z
x,y,-z
-x,y,z
x,-y,z
1/2+x,1/2+y,z
1/2-x,1/2-y,z
1/2+x,1/2-y,-z
1/2-x,1/2+y,-z
1/2-x,1/2-y,-z
1/2+x,1/2+y,-z
1/2-x,1/2+y,z
1/2+x,1/2-y,z
loop_
_atom_site_type_symbol
_atom_site_label
_atom_site_fract_x
_atom_site_fract_y
_atom_site_fract_z
Si Si1 0.332339 0.156031 0.500000
Si Si2 0.840453 0.109062 0.052986
Si Si3 0.658080 0.108235 0.858249
Si Si4 0.166939 0.500000 0.682664
Si Si5 0.166919 0.500000 0.426256
Si Si6 0.165882 0.336435 0.249524
O O1 0.500000 0.170628 0.500000
O O2 0.250000 0.250000 0.500000
O O3 0.296328 0.090597 0.455095
O O4 0.751895 0.139721 0.098001
O O5 0.000000 0.135474 0.057748
O O6 0.837471 0.000000 0.053505
O O7 0.789980 0.136401 0.000000
O O8 0.500000 0.135787 0.866175
O O9 0.701304 0.139448 0.805518
O O10 0.661083 0.000000 0.857453
O O11 0.218375 0.500000 0.628233
O O12 0.205155 0.585323 0.714121
O O13 0.000000 0.500000 0.680144
O O14 0.000000 0.500000 0.425882
O O15 0.250000 0.250000 0.263332
O O16 0.000000 0.324789 0.251387
#
# Coordination Sequence:
#
# PCOD9489218 Si02
#       6
#     8  16  16   8   8  16
#     4   9  17  31  52  80 110 141 181 219 254 300
#     4   8  14  24  39  63  93 121 151 191 242 298
#     4   9  16  28  46  66  90 122 159 198 241 295
#     4   9  17  34  56  74 101 141 178 212 255 304
#     4   8  16  31  52  76 104 143 183 213 249 308
#     4  10  20  34  52  74  99 130 169 211 255 305
#
# _framework density 17.768642
#
# number of rings (size 3 to 8) (size 9 to 14) (size 15 to 20)
#    0.000    3.111    1.111    1.333    0.000    2.222 
#    0.000    3.889    0.000    2.000    0.000    0.000 
#    0.000    0.000    0.000    0.000    0.000    0.000 
#
# Total GULP energy -200572.259705 kJ/mol
# GULP energy per Si atom -5571.451658 kJ/mol
# Density = 1.772820 g / cm^3
# Si number density = 17.768642 Si / 1000 Ang^3
#
#
#
# Elastic Constant Matrix: (Units=GPa)
#
#
# Indices 1 2 3 4 5 6 
#
# 1 28.1866 43.4287 55.0466 0.0000 0.0000 0.0000
# 2 43.4287 115.5826 80.9898 0.0000 0.0000 0.0000
# 3 55.0466 80.9898 185.0634 0.0000 0.0000 0.0000
# 4 0.0000 0.0000 0.0000 -59.4287 0.0000 0.0000
# 5 0.0000 0.0000 0.0000 0.0000 10.5736 0.0000
# 6 0.0000 0.0000 0.0000 0.0000 0.0000 23.9822
#
#
#
# Elastic Compliance Matrix: (Units=1/GPa)
#
#
# Indices 1 2 3 4 5 6 
#
# 1 0.139929 -0.033767 -0.026844 0.000000 0.000000 0.000000
# 2 -0.033767 0.020627 0.001017 0.000000 0.000000 0.000000
# 3 -0.026844 0.001017 0.012943 0.000000 0.000000 0.000000
# 4 0.000000 0.000000 0.000000 -0.016827 0.000000 0.000000
# 5 0.000000 0.000000 0.000000 0.000000 0.094575 0.000000
# 6 0.000000 0.000000 0.000000 0.000000 0.000000 0.041698
#
#
# Mechanical properties :
#
#
# Convention : Reuss Voigt Hill
#
# Bulk Modulus (GPa) = 18.41238 76.41809 47.41524
# Shear Modulus (GPa) = 11.62149 4.98325 8.30237
#
# Velocity S-wave (km/s) = 2.56020 1.67649 2.16394
# Velocity P-wave (km/s) = 4.37314 6.84457 5.74336
#
# Compressibility (1/GPa) = 0.05431127
#
# Stress axis : x y z
#
# Youngs Moduli (GPa) = 7.14646 48.48081 77.26046
#
# Poissons Ratio (x) = 1.63704 2.07399
# Poissons Ratio (y) = 0.24131 -0.07857
# Poissons Ratio (z) = 0.19184 -0.04930
#
# Static dielectric constant tensor:
#      x y z
#    x 1.589670 0.000000 0.000000 
#    y 0.000000 1.625810 0.000000 
#    z 0.000000 0.000000 1.615150 
# 
# From -- ./inp_files/72605.got.cif
#   From: 2010.05.17/outbox.cif.g08.bks.cpg/sg65_37_cif.got.tgz:72605.got - 2010.06.03 17:01:31.
