data_PCOD9489139
_publ_section_title
;
Structure prediction by ZEFSAII (Michael W. Deem and Ramdas Pophale) SiO2 
 PCOD9489139
Probable space group: C M M M
;
_chemical_formula_sum "Si O2"
_cell_formula_units_Z 104
_cell_length_a 30.933321
_cell_length_b 8.938383
_cell_length_c 23.695806
_cell_angle_alpha 90.000000
_cell_angle_beta 90.000000
_cell_angle_gamma 90.000000
_cell_volume 6551.745117
_symmetry_space_group_name_H-M "C M M M"
_symmetry_group_IT_number 65
_symmetry_cell_setting 'orthorhombic'
loop_
_space_group_symop_operation_xyz
x,y,z
-x,-y,z
x,-y,-z
-x,y,-z
-x,-y,-z
x,y,-z
-x,y,z
x,-y,z
1/2+x,1/2+y,z
1/2-x,1/2-y,z
1/2+x,1/2-y,-z
1/2-x,1/2+y,-z
1/2-x,1/2-y,-z
1/2+x,1/2+y,-z
1/2-x,1/2+y,z
1/2+x,1/2-y,z
loop_
_atom_site_type_symbol
_atom_site_label
_atom_site_fract_x
_atom_site_fract_y
_atom_site_fract_z
Si Si1 0.793758 0.171377 0.777449
Si Si2 0.614365 0.820279 0.910321
Si Si3 0.552377 0.177313 0.439265
Si Si4 0.049960 0.683061 0.683936
Si Si5 0.705426 0.672730 0.085289
Si Si6 0.949065 0.820350 0.000000
Si Si7 0.116680 0.679746 0.778550
O O1 0.750000 0.250000 0.757887
O O2 0.793134 0.174305 0.846111
O O3 0.837147 0.255859 0.760578
O O4 0.794874 0.000000 0.759559
O O5 0.661299 0.758641 0.929663
O O6 0.576400 0.747541 0.946667
O O7 0.608939 0.780057 0.844108
O O8 0.613863 0.000000 0.915922
O O9 0.567002 0.241192 0.500000
O O10 0.500000 0.187387 0.438386
O O11 0.566264 0.235607 0.377889
O O12 0.562596 0.000000 0.440147
O O13 0.050263 0.500000 0.682713
O O14 0.079685 0.731243 0.735699
O O15 0.000000 0.727950 0.691400
O O16 0.703525 0.500000 0.067434
O O17 0.750000 0.750000 0.066232
O O18 0.000000 0.782074 0.000000
O O19 0.945149 0.000000 0.000000
O O20 0.118633 0.500000 0.776766
#
# Coordination Sequence:
#
# PCOD9489139 Si02
#       7
#    16  16  16  16  16   8  16
#     4   9  16  26  42  63  88 117 147 178 213 257
#     4  10  20  34  52  72  92 115 146 183 223 267
#     4   7   9  14  26  46  75 112 149 180 210 245
#     4   8  13  21  34  55  85 119 151 181 213 250
#     4   9  16  28  48  73  99 123 145 171 210 261
#     4  11  25  43  58  69  84 111 149 191 231 267
#     4   9  17  28  44  67  93 118 144 177 218 262
#
# _framework density 15.873633
#
# number of rings (size 3 to 8) (size 9 to 14) (size 15 to 20)
#    0.000    3.154    0.000    3.000    0.000    5.538 
#    0.000    1.923    0.000    0.462    0.000    0.000 
#    0.000    1.231    0.000    4.923    0.000    4.615 
#
# Total GULP energy -289502.212535 kJ/mol
# GULP energy per Si atom -5567.350241 kJ/mol
# Density = 1.583750 g / cm^3
# Si number density = 15.873633 Si / 1000 Ang^3
#
#
#
# Elastic Constant Matrix: (Units=GPa)
#
#
# Indices 1 2 3 4 5 6 
#
# 1 127.8700 39.9972 68.9925 0.0000 0.0000 0.0000
# 2 39.9972 37.6710 28.9324 0.0000 0.0000 0.0000
# 3 68.9925 28.9324 102.5202 0.0000 0.0000 0.0000
# 4 0.0000 0.0000 0.0000 1.4725 0.0000 0.0000
# 5 0.0000 0.0000 0.0000 0.0000 -9.7383 0.0000
# 6 0.0000 0.0000 0.0000 0.0000 0.0000 22.1791
#
#
#
# Elastic Compliance Matrix: (Units=1/GPa)
#
#
# Indices 1 2 3 4 5 6 
#
# 1 0.014890 -0.010358 -0.007097 0.000000 0.000000 0.000000
# 2 -0.010358 0.041098 -0.004627 0.000000 0.000000 0.000000
# 3 -0.007097 -0.004627 0.015836 0.000000 0.000000 0.000000
# 4 0.000000 0.000000 0.000000 0.679107 0.000000 0.000000
# 5 0.000000 0.000000 0.000000 0.000000 -0.102687 0.000000
# 6 0.000000 0.000000 0.000000 0.000000 0.000000 0.045087
#
#
# Mechanical properties :
#
#
# Convention : Reuss Voigt Hill
#
# Bulk Modulus (GPa) = 36.15608 60.43394 48.29501
# Shear Modulus (GPa) = 6.69599 11.45860 9.07730
#
# Velocity S-wave (km/s) = 2.05608 2.68967 2.39393
# Velocity P-wave (km/s) = 5.33512 6.91378 6.17510
#
# Compressibility (1/GPa) = 0.02765787
#
# Stress axis : x y z
#
# Youngs Moduli (GPa) = 67.16042 24.33225 63.14686
#
# Poissons Ratio (x) = 0.25205 0.44815
# Poissons Ratio (y) = 0.69568 0.29220
# Poissons Ratio (z) = 0.47664 0.11259
#
# Static dielectric constant tensor:
#      x y z
#    x 1.507370 0.000000 0.000000 
#    y 0.000000 1.528520 0.000000 
#    z 0.000000 0.000000 1.571810 
# 
# From -- ./inp_files/72163.got.cif
#   From: 2010.05.17/outbox.cif.g08.bks.cpg/sg65_37_cif.got.tgz:72163.got - 2010.06.03 17:01:31.
