data_PCOD9489854
_publ_section_title
;
Structure prediction by ZEFSAII (Michael W. Deem and Ramdas Pophale) SiO2 
 PCOD9489854
Probable space group: C M M M
;
_chemical_formula_sum "Si O2"
_cell_formula_units_Z 120
_cell_length_a 20.265319
_cell_length_b 25.633571
_cell_length_c 12.834649
_cell_angle_alpha 90.000000
_cell_angle_beta 90.000000
_cell_angle_gamma 90.000000
_cell_volume 6667.247118
_symmetry_space_group_name_H-M "C M M M"
_symmetry_group_IT_number 65
_symmetry_cell_setting 'orthorhombic'
loop_
_space_group_symop_operation_xyz
x,y,z
-x,-y,z
x,-y,-z
-x,y,-z
-x,-y,-z
x,y,-z
-x,y,z
x,-y,z
1/2+x,1/2+y,z
1/2-x,1/2-y,z
1/2+x,1/2-y,-z
1/2-x,1/2+y,-z
1/2-x,1/2-y,-z
1/2+x,1/2+y,-z
1/2-x,1/2+y,z
1/2+x,1/2-y,z
loop_
_atom_site_type_symbol
_atom_site_label
_atom_site_fract_x
_atom_site_fract_y
_atom_site_fract_z
Si Si1 0.253152 0.371096 0.713045
Si Si2 0.108143 0.351971 0.374642
Si Si3 0.391144 0.363900 0.617917
Si Si4 0.075167 0.242428 0.266848
Si Si5 0.428019 0.437942 0.804807
Si Si6 0.212932 0.938151 0.888438
Si Si7 0.309990 0.289954 0.882693
Si Si8 0.500000 0.938806 0.626152
O O1 0.183575 0.358028 0.662854
O O2 0.312206 0.372334 0.629956
O O3 0.249096 0.422337 0.784175
O O4 0.281048 0.331921 0.801719
O O5 0.105081 0.347105 0.500000
O O6 0.082837 0.298359 0.322593
O O7 0.063295 0.402442 0.344973
O O8 0.412208 0.372570 0.500000
O O9 0.408461 0.305205 0.654240
O O10 0.422359 0.404087 0.700048
O O11 0.126853 0.235748 0.172838
O O12 0.000000 0.236119 0.231432
O O13 0.500000 0.428430 0.853192
O O14 0.423339 0.500000 0.782888
O O15 0.364202 0.423283 0.872352
O O16 0.214132 0.000000 0.893982
O O17 0.238003 0.917496 0.000000
O O18 0.250000 0.250000 0.890936
O O19 0.325934 0.308016 0.000000
O O20 0.500000 0.941442 0.500000
O O21 0.500000 0.000000 0.662262
#
# Coordination Sequence:
#
# PCOD9489854 Si02
#       8
#    16  16  16  16  16  16  16   8
#     4  10  20  35  53  79 107 140 180 225 271 329
#     4  11  21  35  57  82 110 143 180 225 277 333
#     4  10  21  34  50  74 108 147 184 223 269 320
#     4  11  22  36  55  83 113 142 185 232 278 330
#     4   9  18  32  49  72 103 139 181 222 261 313
#     4   9  18  33  53  76 102 132 171 221 273 322
#     4  10  20  36  56  78 108 144 181 225 276 334
#     4   9  20  38  58  82 111 145 184 226 281 344
#
# _framework density 17.998432999999999
#
# number of rings (size 3 to 8) (size 9 to 14) (size 15 to 20)
#    0.000    2.067    2.000    1.600    0.000    2.933 
#    0.000    4.000    0.000    7.200    0.000    0.000 
#    0.000    3.733    0.000    0.000    0.000    0.000 
#
# Total GULP energy -334295.569988 kJ/mol
# GULP energy per Si atom -5571.592833 kJ/mol
# Density = 1.795747 g / cm^3
# Si number density = 17.998433 Si / 1000 Ang^3
#
#
#
# Elastic Constant Matrix: (Units=GPa)
#
#
# Indices 1 2 3 4 5 6 
#
# 1 108.6709 22.5296 15.7314 0.0000 0.0000 0.0000
# 2 22.5296 78.6054 23.6985 0.0000 0.0000 0.0000
# 3 15.7314 23.6985 79.7192 0.0000 0.0000 0.0000
# 4 0.0000 0.0000 0.0000 17.5354 0.0000 0.0000
# 5 0.0000 0.0000 0.0000 0.0000 9.0801 0.0000
# 6 0.0000 0.0000 0.0000 0.0000 0.0000 23.2904
#
#
#
# Elastic Compliance Matrix: (Units=1/GPa)
#
#
# Indices 1 2 3 4 5 6 
#
# 1 0.009890 -0.002467 -0.001218 0.000000 0.000000 0.000000
# 2 -0.002467 0.014590 -0.003850 0.000000 0.000000 0.000000
# 3 -0.001218 -0.003850 0.013929 0.000000 0.000000 0.000000
# 4 0.000000 0.000000 0.000000 0.057027 0.000000 0.000000
# 5 0.000000 0.000000 0.000000 0.000000 0.110131 0.000000
# 6 0.000000 0.000000 0.000000 0.000000 0.000000 0.042936
#
#
# Mechanical properties :
#
#
# Convention : Reuss Voigt Hill
#
# Bulk Modulus (GPa) = 42.85013 43.43495 43.14254
# Shear Modulus (GPa) = 18.42613 23.65025 21.03819
#
# Velocity S-wave (km/s) = 3.20310 3.62887 3.42261
# Velocity P-wave (km/s) = 6.12692 6.46090 6.29613
#
# Compressibility (1/GPa) = 0.02333715
#
# Stress axis : x y z
#
# Youngs Moduli (GPa) = 101.11248 68.54117 71.79263
#
# Poissons Ratio (x) = 0.16912 0.08745
# Poissons Ratio (y) = 0.24948 0.27642
# Poissons Ratio (z) = 0.12317 0.26390
#
# Static dielectric constant tensor:
#      x y z
#    x 1.615520 0.000000 0.000000 
#    y 0.000000 1.672810 0.000000 
#    z 0.000000 0.000000 1.607680 
# 
# From -- ./inp_files/29435.got.cif
#   From: 2010.05.17/outbox.cif.g08.bks.cpg/sg65_15_cif.got.tgz:29435.got - 2010.06.03 17:01:31.
