data_PCOD9489845
_publ_section_title
;
Structure prediction by ZEFSAII (Michael W. Deem and Ramdas Pophale) SiO2 
 PCOD9489845
Probable space group: C M M M
;
_chemical_formula_sum "Si O2"
_cell_formula_units_Z 100
_cell_length_a 31.773684
_cell_length_b 7.548352
_cell_length_c 21.230849
_cell_angle_alpha 90.000000
_cell_angle_beta 90.000000
_cell_angle_gamma 90.000000
_cell_volume 5091.984557
_symmetry_space_group_name_H-M "C M M M"
_symmetry_group_IT_number 65
_symmetry_cell_setting 'orthorhombic'
loop_
_space_group_symop_operation_xyz
x,y,z
-x,-y,z
x,-y,-z
-x,y,-z
-x,-y,-z
x,y,-z
-x,y,z
x,-y,z
1/2+x,1/2+y,z
1/2-x,1/2-y,z
1/2+x,1/2-y,-z
1/2-x,1/2+y,-z
1/2-x,1/2-y,-z
1/2+x,1/2+y,-z
1/2-x,1/2+y,z
1/2+x,1/2-y,z
loop_
_atom_site_type_symbol
_atom_site_label
_atom_site_fract_x
_atom_site_fract_y
_atom_site_fract_z
Si Si1 0.000000 0.000000 0.177919
Si Si2 0.162934 0.284982 0.800673
Si Si3 0.434809 0.202719 0.782406
Si Si4 0.866837 0.712262 0.570725
Si Si5 0.798254 0.712533 0.671224
Si Si6 0.299591 0.787443 0.068949
Si Si7 0.046513 0.788420 0.639077
O O1 0.963648 0.155853 0.183084
O O2 0.167003 0.500000 0.801889
O O3 0.114149 0.247796 0.788343
O O4 0.190184 0.220642 0.741215
O O5 0.177891 0.218133 0.868555
O O6 0.446442 0.209085 0.708309
O O7 0.440384 0.000000 0.804683
O O8 0.861228 0.781878 0.500000
O O9 0.861652 0.500000 0.568318
O O10 0.832254 0.780163 0.620491
O O11 0.914013 0.745272 0.595420
O O12 0.803119 0.500000 0.673024
O O13 0.750000 0.750000 0.654848
O O14 0.194826 0.500000 0.068083
O O15 0.250000 0.750000 0.074439
O O16 0.313607 0.720102 0.000000
O O17 0.000000 0.734717 0.615395
O O18 0.045833 0.000000 0.647906
#
# Coordination Sequence:
#
# PCOD9489845 Si02
#       7
#     4  16  16  16  16  16  16
#     4  12  22  36  52  94 118 144 202 230 288 352
#     4   9  18  33  54  80 110 148 188 225 281 337
#     4  11  20  35  57  81 117 154 184 237 289 335
#     4  10  22  39  56  74 102 144 189 231 283 346
#     4  10  20  35  53  76 103 137 182 232 279 336
#     4   9  17  31  51  79 116 153 190 231 277 339
#     4  11  21  36  56  83 112 138 183 232 284 348
#
# _framework density 19.638707
#
# number of rings (size 3 to 8) (size 9 to 14) (size 15 to 20)
#    0.000    1.920    3.200    1.200    0.000    2.560 
#    2.880    1.600    0.000    0.000    0.000    1.120 
#    0.000    3.840    0.000    0.000    0.000    0.000 
#
# Total GULP energy -278601.346043 kJ/mol
# GULP energy per Si atom -5572.026921 kJ/mol
# Density = 1.959401 g / cm^3
# Si number density = 19.638707 Si / 1000 Ang^3
#
#
#
# Elastic Constant Matrix: (Units=GPa)
#
#
# Indices 1 2 3 4 5 6 
#
# 1 147.9984 9.0778 82.9594 0.0000 0.0000 0.0000
# 2 9.0778 68.1167 6.7297 0.0000 0.0000 0.0000
# 3 82.9594 6.7297 127.7677 0.0000 0.0000 0.0000
# 4 0.0000 0.0000 0.0000 -3.2601 0.0000 0.0000
# 5 0.0000 0.0000 0.0000 0.0000 -5.3227 0.0000
# 6 0.0000 0.0000 0.0000 0.0000 0.0000 24.8703
#
#
#
# Elastic Compliance Matrix: (Units=1/GPa)
#
#
# Indices 1 2 3 4 5 6 
#
# 1 0.010660 -0.000741 -0.006883 0.000000 0.000000 0.000000
# 2 -0.000741 0.014809 -0.000299 0.000000 0.000000 0.000000
# 3 -0.006883 -0.000299 0.012311 0.000000 0.000000 0.000000
# 4 0.000000 0.000000 0.000000 -0.306737 0.000000 0.000000
# 5 0.000000 0.000000 0.000000 0.000000 -0.187874 0.000000
# 6 0.000000 0.000000 0.000000 0.000000 0.000000 0.040209
#
#
# Mechanical properties :
#
#
# Convention : Reuss Voigt Hill
#
# Bulk Modulus (GPa) = 45.58783 60.15742 52.87263
# Shear Modulus (GPa) = -12.70762 19.59854 3.44546
#
# Velocity S-wave (km/s) = -2.54652 3.16247 1.32598
# Velocity P-wave (km/s) = 3.82326 6.63578 5.41529
#
# Compressibility (1/GPa) = 0.02193568
#
# Stress axis : x y z
#
# Youngs Moduli (GPa) = 93.80575 67.52675 81.22551
#
# Poissons Ratio (x) = 0.05002 0.55905
# Poissons Ratio (y) = 0.06948 0.02429
# Poissons Ratio (z) = 0.64564 0.02020
#
# Static dielectric constant tensor:
#      x y z
#    x 1.669410 0.000000 0.000000 
#    y 0.000000 1.726310 0.000000 
#    z 0.000000 0.000000 1.696150 
# 
# From -- ./inp_files/66400.got.cif
#   From: 2010.05.17/outbox.cif.g08.bks.cpg/sg65_34_cif.got.tgz:66400.got - 2010.06.03 17:01:31.
