data_PCOD9489619
_publ_section_title
;
Structure prediction by ZEFSAII (Michael W. Deem and Ramdas Pophale) SiO2 
 PCOD9489619
Probable space group: C M M M
;
_chemical_formula_sum "Si O2"
_cell_formula_units_Z 88
_cell_length_a 8.908001
_cell_length_b 30.924755
_cell_length_c 17.509150
_cell_angle_alpha 90.000000
_cell_angle_beta 90.000000
_cell_angle_gamma 90.000000
_cell_volume 4823.381220
_symmetry_space_group_name_H-M "C M M M"
_symmetry_group_IT_number 65
_symmetry_cell_setting 'orthorhombic'
loop_
_space_group_symop_operation_xyz
x,y,z
-x,-y,z
x,-y,-z
-x,y,-z
-x,-y,-z
x,y,-z
-x,y,z
x,-y,z
1/2+x,1/2+y,z
1/2-x,1/2-y,z
1/2+x,1/2-y,-z
1/2-x,1/2+y,-z
1/2-x,1/2-y,-z
1/2+x,1/2+y,-z
1/2-x,1/2+y,z
1/2+x,1/2-y,z
loop_
_atom_site_type_symbol
_atom_site_label
_atom_site_fract_x
_atom_site_fract_y
_atom_site_fract_z
Si Si1 0.680473 0.948778 0.500000
Si Si2 0.826251 0.294770 0.382799
Si Si3 0.177310 0.948453 0.087333
Si Si4 0.171263 0.293245 0.803225
Si Si5 0.180437 0.387037 0.791507
Si Si6 0.320029 0.386132 0.623938
O O1 0.500000 0.943952 0.500000
O O2 0.750451 0.923703 0.572020
O O3 0.714897 0.000000 0.500000
O O4 0.750000 0.250000 0.408740
O O5 0.824714 0.293253 0.289775
O O6 0.740075 0.338904 0.403054
O O7 0.000000 0.297007 0.406528
O O8 0.274091 0.923570 0.149293
O O9 0.000000 0.939314 0.098986
O O10 0.196746 0.000000 0.094347
O O11 0.215781 0.936399 0.000000
O O12 0.250000 0.250000 0.830347
O O13 0.232242 0.340328 0.824238
O O14 0.000000 0.291116 0.827781
O O15 0.260592 0.392705 0.710102
O O16 0.000000 0.385165 0.779588
O O17 0.500000 0.386575 0.621047
#
# Coordination Sequence:
#
# PCOD9489619 Si02
#       6
#     8  16  16  16  16  16
#     4  11  25  45  64  79 102 139 181 229 283 331
#     4   9  16  29  50  78 111 144 179 219 266 318
#     4   9  19  36  56  79 108 140 175 219 273 330
#     4   8  15  26  43  70 103 137 173 213 254 301
#     4  10  20  34  54  82 112 142 180 223 265 316
#     4  11  22  37  58  83 111 144 183 225 271 324
#
# _framework density 18.244461999999999
#
# number of rings (size 3 to 8) (size 9 to 14) (size 15 to 20)
#    0.000    2.455    0.000    4.636    0.000    7.273 
#    0.000    1.364    0.000    0.545    0.000    0.000 
#    0.000    0.000    0.000    0.000    0.000    0.000 
#
# Total GULP energy -245448.931787 kJ/mol
# GULP energy per Si atom -5578.384813 kJ/mol
# Density = 1.820294 g / cm^3
# Si number density = 18.244462 Si / 1000 Ang^3
#
#
#
# Elastic Constant Matrix: (Units=GPa)
#
#
# Indices 1 2 3 4 5 6 
#
# 1 118.5980 79.1392 42.6570 0.0000 0.0000 0.0000
# 2 79.1392 132.8722 51.7970 0.0000 0.0000 0.0000
# 3 42.6570 51.7970 58.1640 0.0000 0.0000 0.0000
# 4 0.0000 0.0000 0.0000 -349.9310 0.0000 0.0000
# 5 0.0000 0.0000 0.0000 0.0000 3.5172 0.0000
# 6 0.0000 0.0000 0.0000 0.0000 0.0000 34.5138
#
#
#
# Elastic Compliance Matrix: (Units=1/GPa)
#
#
# Indices 1 2 3 4 5 6 
#
# 1 0.014751 -0.006998 -0.004586 0.000000 0.000000 0.000000
# 2 -0.006998 0.014848 -0.008090 0.000000 0.000000 0.000000
# 3 -0.004586 -0.008090 0.027761 0.000000 0.000000 0.000000
# 4 0.000000 0.000000 0.000000 -0.002858 0.000000 0.000000
# 5 0.000000 0.000000 0.000000 0.000000 0.284319 0.000000
# 6 0.000000 0.000000 0.000000 0.000000 0.000000 0.028974
#
#
# Mechanical properties :
#
#
# Convention : Reuss Voigt Hill
#
# Bulk Modulus (GPa) = 55.52245 72.98005 64.25125
# Shear Modulus (GPa) = 12.10220 -53.31061 -20.60421
#
# Velocity S-wave (km/s) = 2.57832 -5.41143 -3.36421
# Velocity P-wave (km/s) = 6.27393 1.02140 4.49475
#
# Compressibility (1/GPa) = 0.01801073
#
# Stress axis : x y z
#
# Youngs Moduli (GPa) = 67.79144 67.35005 36.02160
#
# Poissons Ratio (x) = 0.47131 0.16521
# Poissons Ratio (y) = 0.47440 0.29142
# Poissons Ratio (z) = 0.31093 0.54488
#
# Static dielectric constant tensor:
#      x y z
#    x 1.617400 0.000000 0.000000 
#    y 0.000000 1.633210 0.000000 
#    z 0.000000 0.000000 1.626050 
# 
# From -- ./inp_files/50393.got.cif
#   From: 2010.05.17/outbox.cif.g08.bks.cpg/sg65_26_cif.got.tgz:50393.got - 2010.06.03 17:01:31.
