data_PCOD9489112
_publ_section_title
;
Structure prediction by ZEFSAII (Michael W. Deem and Ramdas Pophale) SiO2 
 PCOD9489112
Probable space group: C M M M
;
_chemical_formula_sum "Si O2"
_cell_formula_units_Z 80
_cell_length_a 17.683018
_cell_length_b 18.218066
_cell_length_c 14.211557
_cell_angle_alpha 90.000000
_cell_angle_beta 90.000000
_cell_angle_gamma 90.000000
_cell_volume 4578.258616
_symmetry_space_group_name_H-M "C M M M"
_symmetry_group_IT_number 65
_symmetry_cell_setting 'orthorhombic'
loop_
_space_group_symop_operation_xyz
x,y,z
-x,-y,z
x,-y,-z
-x,y,-z
-x,-y,-z
x,y,-z
-x,y,z
x,-y,z
1/2+x,1/2+y,z
1/2-x,1/2-y,z
1/2+x,1/2-y,-z
1/2-x,1/2+y,-z
1/2-x,1/2-y,-z
1/2+x,1/2+y,-z
1/2-x,1/2+y,z
1/2+x,1/2-y,z
loop_
_atom_site_type_symbol
_atom_site_label
_atom_site_fract_x
_atom_site_fract_y
_atom_site_fract_z
Si Si1 0.837408 0.234896 0.387779
Si Si2 0.088285 0.693544 0.778534
Si Si3 0.178118 0.805940 0.892339
Si Si4 0.587539 0.581979 0.614259
Si Si5 0.800431 0.586384 0.112504
O O1 0.847069 0.243180 0.500000
O O2 0.750000 0.250000 0.363781
O O3 0.887380 0.291734 0.328735
O O4 0.861647 0.151914 0.361157
O O5 0.114107 0.768553 0.830761
O O6 0.137231 0.629819 0.827662
O O7 0.000000 0.680172 0.787928
O O8 0.250000 0.750000 0.889309
O O9 0.217509 0.881635 0.862569
O O10 0.152564 0.811518 0.000000
O O11 0.587333 0.579988 0.500000
O O12 0.500000 0.594284 0.643388
O O13 0.610986 0.500000 0.646083
O O14 0.805285 0.500000 0.126692
O O15 0.811023 0.601922 0.000000
#
# Coordination Sequence:
#
# PCOD9489112 Si02
#       5
#    16  16  16  16  16
#     4  10  20  34  51  71  99 137 180 220 256 301
#     4  11  21  32  50  76 106 137 168 208 259 311
#     4   8  15  30  51  74 100 128 159 198 247 302
#     4   8  14  27  49  74  96 118 150 201 261 306
#     4   9  18  34  57  81 103 132 172 216 257 297
#
# _framework density 17.473893
#
# number of rings (size 3 to 8) (size 9 to 14) (size 15 to 20)
#    0.000    2.800    0.000    4.800    0.000    3.200 
#    0.000    5.000    0.000    3.600    0.000    4.200 
#    0.000    0.000    0.000    0.000    0.000    0.000 
#
# Total GULP energy -222872.793090 kJ/mol
# GULP energy per Si atom -5571.819827 kJ/mol
# Density = 1.743412 g / cm^3
# Si number density = 17.473893 Si / 1000 Ang^3
#
#
#
# Elastic Constant Matrix: (Units=GPa)
#
#
# Indices 1 2 3 4 5 6 
#
# 1 39.4041 41.3167 10.8019 0.0000 0.0000 0.0000
# 2 41.3167 124.3306 29.2546 0.0000 0.0000 0.0000
# 3 10.8019 29.2546 42.9156 0.0000 0.0000 0.0000
# 4 0.0000 0.0000 0.0000 19.6984 0.0000 0.0000
# 5 0.0000 0.0000 0.0000 0.0000 1.1457 0.0000
# 6 0.0000 0.0000 0.0000 0.0000 0.0000 26.5039
#
#
#
# Elastic Compliance Matrix: (Units=1/GPa)
#
#
# Indices 1 2 3 4 5 6 
#
# 1 0.038999 -0.012685 -0.001169 0.000000 0.000000 0.000000
# 2 -0.012685 0.013705 -0.006150 0.000000 0.000000 0.000000
# 3 -0.001169 -0.006150 0.027788 0.000000 0.000000 0.000000
# 4 0.000000 0.000000 0.000000 0.050765 0.000000 0.000000
# 5 0.000000 0.000000 0.000000 0.000000 0.872820 0.000000
# 6 0.000000 0.000000 0.000000 0.000000 0.000000 0.037730
#
#
# Mechanical properties :
#
#
# Convention : Reuss Voigt Hill
#
# Bulk Modulus (GPa) = 24.70057 41.04408 32.87232
# Shear Modulus (GPa) = 4.56492 17.82142 11.19317
#
# Velocity S-wave (km/s) = 1.61805 3.19703 2.53368
# Velocity P-wave (km/s) = 4.20204 6.09654 5.23569
#
# Compressibility (1/GPa) = 0.04048489
#
# Stress axis : x y z
#
# Youngs Moduli (GPa) = 25.64166 72.96358 35.98657
#
# Poissons Ratio (x) = 0.92553 0.04207
# Poissons Ratio (y) = 0.32526 0.22132
# Poissons Ratio (z) = 0.02998 0.44872
#
# Static dielectric constant tensor:
#      x y z
#    x 1.534980 0.000000 0.000000 
#    y 0.000000 1.616470 0.000000 
#    z 0.000000 0.000000 1.622670 
# 
# From -- ./inp_files/42328.got.cif
#   From: 2010.05.17/outbox.cif.g08.bks.cpg/sg65_22_cif.got.tgz:42328.got - 2010.06.03 17:01:31.
