data_PCOD9489126
_publ_section_title
;
Structure prediction by ZEFSAII (Michael W. Deem and Ramdas Pophale) SiO2 
 PCOD9489126
Probable space group: C M M M
;
_chemical_formula_sum "Si O2"
_cell_formula_units_Z 100
_cell_length_a 20.759106
_cell_length_b 29.761355
_cell_length_c 7.563436
_cell_angle_alpha 90.000000
_cell_angle_beta 90.000000
_cell_angle_gamma 90.000000
_cell_volume 4672.835398
_symmetry_space_group_name_H-M "C M M M"
_symmetry_group_IT_number 65
_symmetry_cell_setting 'orthorhombic'
loop_
_space_group_symop_operation_xyz
x,y,z
-x,-y,z
x,-y,-z
-x,y,-z
-x,-y,-z
x,y,-z
-x,y,z
x,-y,z
1/2+x,1/2+y,z
1/2-x,1/2-y,z
1/2+x,1/2-y,-z
1/2-x,1/2+y,-z
1/2-x,1/2-y,-z
1/2+x,1/2+y,-z
1/2-x,1/2+y,z
1/2+x,1/2-y,z
loop_
_atom_site_type_symbol
_atom_site_label
_atom_site_fract_x
_atom_site_fract_y
_atom_site_fract_z
Si Si1 0.000000 0.748487 0.000000
Si Si2 0.892204 0.725277 0.707409
Si Si3 0.108446 0.950187 0.207190
Si Si4 0.804766 0.196155 0.200640
Si Si5 0.181988 0.359308 0.702720
Si Si6 0.259848 0.949830 0.285207
Si Si7 0.569400 0.354166 0.297158
O O1 0.056188 0.744724 0.843137
O O2 0.912237 0.723795 0.500000
O O3 0.829141 0.757351 0.717208
O O4 0.870877 0.675574 0.771828
O O5 0.185707 0.944942 0.225960
O O6 0.075646 0.907869 0.296366
O O7 0.091908 0.000000 0.274968
O O8 0.092037 0.948494 0.000000
O O9 0.749202 0.168015 0.294084
O O10 0.868922 0.165504 0.202317
O O11 0.783720 0.203272 0.000000
O O12 0.163235 0.367255 0.500000
O O13 0.197862 0.408080 0.781914
O O14 0.258626 0.947843 0.500000
O O15 0.281518 0.000000 0.233571
O O16 0.571706 0.338110 0.500000
O O17 0.500000 0.341620 0.218199
#
# Coordination Sequence:
#
# PCOD9489126 Si02
#       7
#     4  16  16  16  16  16  16
#     4  12  26  48  66  98 125 162 209 254 308 380
#     4  11  25  44  67  93 127 167 207 255 309 372
#     4  10  20  34  51  75 106 145 193 250 311 364
#     4  12  24  38  60  90 123 162 210 262 308 362
#     4  10  21  38  62  94 128 164 205 254 313 364
#     4   9  17  32  57  87 120 156 197 245 300 364
#     4  11  24  38  53  75 106 155 209 256 309 363
#
# _framework density 21.400283000000002
#
# number of rings (size 3 to 8) (size 9 to 14) (size 15 to 20)
#    0.000    1.440    2.400    3.120    2.240    4.480 
#    0.000    1.600    0.000    0.000    0.000    1.120 
#    0.000    3.840    0.000    0.000    0.000    0.000 
#
# Total GULP energy -278951.197811 kJ/mol
# GULP energy per Si atom -5579.023956 kJ/mol
# Density = 2.135157 g / cm^3
# Si number density = 21.400283 Si / 1000 Ang^3
#
#
#
# Elastic Constant Matrix: (Units=GPa)
#
#
# Indices 1 2 3 4 5 6 
#
# 1 33.3824 24.9316 -1.2506 0.0000 0.0000 0.0000
# 2 24.9316 136.8897 -3.9391 0.0000 0.0000 0.0000
# 3 -1.2506 -3.9391 92.4163 0.0000 0.0000 0.0000
# 4 0.0000 0.0000 0.0000 -26.9677 0.0000 0.0000
# 5 0.0000 0.0000 0.0000 0.0000 56.0610 0.0000
# 6 0.0000 0.0000 0.0000 0.0000 0.0000 20.6099
#
#
#
# Elastic Compliance Matrix: (Units=1/GPa)
#
#
# Indices 1 2 3 4 5 6 
#
# 1 0.034676 -0.006310 0.000200 0.000000 0.000000 0.000000
# 2 -0.006310 0.008462 0.000275 0.000000 0.000000 0.000000
# 3 0.000200 0.000275 0.010835 0.000000 0.000000 0.000000
# 4 0.000000 0.000000 0.000000 -0.037081 0.000000 0.000000
# 5 0.000000 0.000000 0.000000 0.000000 0.017838 0.000000
# 6 0.000000 0.000000 0.000000 0.000000 0.000000 0.048520
#
#
# Mechanical properties :
#
#
# Convention : Reuss Voigt Hill
#
# Bulk Modulus (GPa) = 23.63793 33.57471 28.60632
# Shear Modulus (GPa) = 45.86326 26.13706 36.00016
#
# Velocity S-wave (km/s) = 4.63440 3.49856 4.10595
# Velocity P-wave (km/s) = 6.30131 5.66064 5.98955
#
# Compressibility (1/GPa) = 0.04230489
#
# Stress axis : x y z
#
# Youngs Moduli (GPa) = 28.83854 118.17177 92.29308
#
# Poissons Ratio (x) = 0.74563 -0.01849
# Poissons Ratio (y) = 0.18196 -0.02541
# Poissons Ratio (z) = -0.00578 -0.03253
#
# Static dielectric constant tensor:
#      x y z
#    x 1.755300 0.000000 0.000000 
#    y 0.000000 1.844020 0.000000 
#    z 0.000000 0.000000 1.804240 
# 
# From -- ./inp_files/12755.got.cif
#   From: 2010.05.17/outbox.cif.g08.bks.cpg/sg65_7_cif.got.tgz:12755.got - 2010.06.03 17:01:31.
