data_PCOD9489893
_publ_section_title
;
Structure prediction by ZEFSAII (Michael W. Deem and Ramdas Pophale) SiO2 
 PCOD9489893
Probable space group: C M M M
;
_chemical_formula_sum "Si O2"
_cell_formula_units_Z 72
_cell_length_a 22.063924
_cell_length_b 7.497469
_cell_length_c 20.737435
_cell_angle_alpha 90.000000
_cell_angle_beta 90.000000
_cell_angle_gamma 90.000000
_cell_volume 3430.460866
_symmetry_space_group_name_H-M "C M M M"
_symmetry_group_IT_number 65
_symmetry_cell_setting 'orthorhombic'
loop_
_space_group_symop_operation_xyz
x,y,z
-x,-y,z
x,-y,-z
-x,y,-z
-x,-y,-z
x,y,-z
-x,y,z
x,-y,z
1/2+x,1/2+y,z
1/2-x,1/2-y,z
1/2+x,1/2-y,-z
1/2-x,1/2+y,-z
1/2-x,1/2-y,-z
1/2+x,1/2+y,-z
1/2-x,1/2+y,z
1/2+x,1/2-y,z
loop_
_atom_site_type_symbol
_atom_site_label
_atom_site_fract_x
_atom_site_fract_y
_atom_site_fract_z
Si Si1 0.122563 0.705025 0.366015
Si Si2 0.680176 0.289860 0.500000
Si Si3 0.179736 0.713618 0.764089
Si Si4 0.073095 0.297791 0.000000
Si Si5 0.500000 0.220089 0.424037
Si Si6 0.570372 0.218788 0.142536
O O1 0.110399 0.500000 0.347546
O O2 0.155121 0.709018 0.434517
O O3 0.162911 0.780135 0.308110
O O4 0.057903 0.784767 0.384309
O O5 0.667085 0.500000 0.500000
O O6 0.750000 0.250000 0.500000
O O7 0.176493 0.500000 0.765288
O O8 0.250000 0.750000 0.780939
O O9 0.124251 0.775896 0.809743
O O10 0.087053 0.218876 0.930071
O O11 0.097907 0.500000 0.000000
O O12 0.000000 0.309158 0.000000
O O13 0.500000 0.272912 0.500000
O O14 0.500000 0.000000 0.425642
O O15 0.500000 0.271134 0.157718
O O16 0.569385 0.000000 0.141499
#
# Coordination Sequence:
#
# PCOD9489893 Si02
#       6
#    16   8  16   8   8  16
#     4  10  20  35  54  76 101 131 164 205 256 305
#     4  12  24  37  54  73  95 128 170 212 251 304
#     4  10  21  34  51  74 104 137 171 211 252 301
#     4   7  10  20  41  70 105 133 158 205 260 298
#     4   9  16  30  54  78  98 119 155 205 252 301
#     4   8  14  26  47  76 103 131 170 213 254 296
#
# _framework density 20.988434000000002
#
# number of rings (size 3 to 8) (size 9 to 14) (size 15 to 20)
#    0.000    2.667    1.111    3.000    1.556    2.667 
#    0.000    1.667    0.000    0.667    0.000    0.000 
#    0.000    2.667    0.000    0.000    0.000    0.000 
#
# Total GULP energy -200528.251052 kJ/mol
# GULP energy per Si atom -5570.229196 kJ/mol
# Density = 2.094066 g / cm^3
# Si number density = 20.988434 Si / 1000 Ang^3
#
#
#
# Elastic Constant Matrix: (Units=GPa)
#
#
# Indices 1 2 3 4 5 6 
#
# 1 181.8746 -1.6617 90.0036 0.0000 0.0000 0.0000
# 2 -1.6617 62.1202 1.1588 0.0000 0.0000 0.0000
# 3 90.0036 1.1588 153.4015 0.0000 0.0000 0.0000
# 4 0.0000 0.0000 0.0000 -165.4423 0.0000 0.0000
# 5 0.0000 0.0000 0.0000 0.0000 -3.1845 0.0000
# 6 0.0000 0.0000 0.0000 0.0000 0.0000 6.5567
#
#
#
# Elastic Compliance Matrix: (Units=1/GPa)
#
#
# Indices 1 2 3 4 5 6 
#
# 1 0.007753 0.000292 -0.004551 0.000000 0.000000 0.000000
# 2 0.000292 0.016111 -0.000293 0.000000 0.000000 0.000000
# 3 -0.004551 -0.000293 0.009191 0.000000 0.000000 0.000000
# 4 0.000000 0.000000 0.000000 -0.006044 0.000000 0.000000
# 5 0.000000 0.000000 0.000000 0.000000 -0.314024 0.000000
# 6 0.000000 0.000000 0.000000 0.000000 0.000000 0.152517
#
#
# Mechanical properties :
#
#
# Convention : Reuss Voigt Hill
#
# Bulk Modulus (GPa) = 41.75104 64.04418 52.89761
# Shear Modulus (GPa) = -42.58627 -11.88766 -27.23696
#
# Velocity S-wave (km/s) = -4.50937 -2.38248 -3.60629
# Velocity P-wave (km/s) = 2.67898 4.79708 2.81381
#
# Compressibility (1/GPa) = 0.02395150
#
# Stress axis : x y z
#
# Youngs Moduli (GPa) = 128.97948 62.06893 108.79853
#
# Poissons Ratio (x) = -0.01814 0.49516
# Poissons Ratio (y) = -0.03770 0.03190
# Poissons Ratio (z) = 0.58700 0.01820
#
# Static dielectric constant tensor:
#      x y z
#    x 2.302230 0.000000 0.000000 
#    y 0.000000 1.860900 0.000000 
#    z 0.000000 0.000000 1.666310 
# 
# From -- ./inp_files/64386.got.cif
#   From: 2010.05.17/outbox.cif.g08.bks.cpg/sg65_33_cif.got.tgz:64386.got - 2010.06.03 17:01:31.
