data_PCOD9489383
_publ_section_title
;
Structure prediction by ZEFSAII (Michael W. Deem and Ramdas Pophale) SiO2 
 PCOD9489383
Probable space group: C M M M
;
_chemical_formula_sum "Si O2"
_cell_formula_units_Z 72
_cell_length_a 10.856247
_cell_length_b 17.954640
_cell_length_c 19.524460
_cell_angle_alpha 90.000000
_cell_angle_beta 90.000000
_cell_angle_gamma 90.000000
_cell_volume 3805.707873
_symmetry_space_group_name_H-M "C M M M"
_symmetry_group_IT_number 65
_symmetry_cell_setting 'orthorhombic'
loop_
_space_group_symop_operation_xyz
x,y,z
-x,-y,z
x,-y,-z
-x,y,-z
-x,-y,-z
x,y,-z
-x,y,z
x,-y,z
1/2+x,1/2+y,z
1/2-x,1/2-y,z
1/2+x,1/2-y,-z
1/2-x,1/2+y,-z
1/2-x,1/2-y,-z
1/2+x,1/2+y,-z
1/2-x,1/2+y,z
1/2+x,1/2-y,z
loop_
_atom_site_type_symbol
_atom_site_label
_atom_site_fract_x
_atom_site_fract_y
_atom_site_fract_z
Si Si1 0.249745 0.909063 0.844538
Si Si2 0.255865 0.338768 0.578624
Si Si3 0.000000 0.090753 0.920814
Si Si4 0.140047 0.912949 0.294518
Si Si5 0.000000 0.416006 0.582748
Si Si6 0.500000 0.090959 0.079777
O O1 0.231088 0.886482 0.765480
O O2 0.375783 0.885060 0.880931
O O3 0.126931 0.885024 0.885065
O O4 0.249644 0.000000 0.844667
O O5 0.283144 0.362290 0.500000
O O6 0.250000 0.250000 0.579225
O O7 0.348321 0.368701 0.635250
O O8 0.123895 0.372577 0.600061
O O9 0.000000 0.000000 0.918090
O O10 0.000000 0.112783 0.000000
O O11 0.000000 0.908624 0.267702
O O12 0.165596 0.000000 0.308828
O O13 0.000000 0.500000 0.610532
O O14 0.000000 0.420391 0.500000
O O15 0.500000 0.000000 0.080014
O O16 0.500000 0.113794 0.000000
#
# Coordination Sequence:
#
# PCOD9489383 Si02
#       6
#    16  16   8  16   8   8
#     4   9  16  27  41  65 102 140 177 218 266 319
#     4  10  22  37  56  80 108 141 183 238 292 337
#     4   9  14  22  39  60  90 135 175 206 253 315
#     4  10  20  34  53  77 109 147 184 224 272 334
#     4   9  18  35  56  77 104 139 182 228 279 349
#     4   9  16  25  41  69 105 143 181 222 269 322
#
# _framework density 18.918949999999999
#
# number of rings (size 3 to 8) (size 9 to 14) (size 15 to 20)
#    0.000    2.556    1.111    1.333    1.556    5.333 
#    0.000    3.333    0.000    0.000    0.000    0.000 
#    0.000    5.333    0.000    0.000    0.000    0.000 
#
# Total GULP energy -200683.464939 kJ/mol
# GULP energy per Si atom -5574.540693 kJ/mol
# Density = 1.887589 g / cm^3
# Si number density = 18.918950 Si / 1000 Ang^3
#
#
#
# Elastic Constant Matrix: (Units=GPa)
#
#
# Indices 1 2 3 4 5 6 
#
# 1 118.4110 21.4103 59.0984 0.0000 0.0000 0.0000
# 2 21.4103 32.9490 20.2431 0.0000 0.0000 0.0000
# 3 59.0984 20.2431 139.7436 0.0000 0.0000 0.0000
# 4 0.0000 0.0000 0.0000 6.0090 0.0000 0.0000
# 5 0.0000 0.0000 0.0000 0.0000 29.1208 0.0000
# 6 0.0000 0.0000 0.0000 0.0000 0.0000 9.2982
#
#
#
# Elastic Compliance Matrix: (Units=1/GPa)
#
#
# Indices 1 2 3 4 5 6 
#
# 1 0.011374 -0.004869 -0.004105 0.000000 0.000000 0.000000
# 2 -0.004869 0.035399 -0.003069 0.000000 0.000000 0.000000
# 3 -0.004105 -0.003069 0.009337 0.000000 0.000000 0.000000
# 4 0.000000 0.000000 0.000000 0.166417 0.000000 0.000000
# 5 0.000000 0.000000 0.000000 0.000000 0.034340 0.000000
# 6 0.000000 0.000000 0.000000 0.000000 0.000000 0.107547
#
#
# Mechanical properties :
#
#
# Convention : Reuss Voigt Hill
#
# Bulk Modulus (GPa) = 31.22601 54.73413 42.98007
# Shear Modulus (GPa) = 12.52584 21.57573 17.05079
#
# Velocity S-wave (km/s) = 2.57588 3.38069 3.00535
# Velocity P-wave (km/s) = 5.03864 6.65074 5.90001
#
# Compressibility (1/GPa) = 0.03202458
#
# Stress axis : x y z
#
# Youngs Moduli (GPa) = 87.91742 28.24919 107.10649
#
# Poissons Ratio (x) = 0.13755 0.43967
# Poissons Ratio (y) = 0.42807 0.32868
# Poissons Ratio (z) = 0.36090 0.08669
#
# Static dielectric constant tensor:
#      x y z
#    x 1.690630 0.000000 0.000000 
#    y 0.000000 1.623260 0.000000 
#    z 0.000000 0.000000 1.660150 
# 
# From -- ./inp_files/59367.got.cif
#   From: 2010.05.17/outbox.cif.g08.bks.cpg/sg65_30_cif.got.tgz:59367.got - 2010.06.03 17:01:31.
