data_PCOD9489004
_publ_section_title
;
Structure prediction by ZEFSAII (Michael W. Deem and Ramdas Pophale) SiO2 
 PCOD9489004
Probable space group: C M M M
;
_chemical_formula_sum "Si O2"
_cell_formula_units_Z 72
_cell_length_a 7.380410
_cell_length_b 25.240662
_cell_length_c 15.140349
_cell_angle_alpha 90.000000
_cell_angle_beta 90.000000
_cell_angle_gamma 90.000000
_cell_volume 2820.441628
_symmetry_space_group_name_H-M "C M M M"
_symmetry_group_IT_number 65
_symmetry_cell_setting 'orthorhombic'
loop_
_space_group_symop_operation_xyz
x,y,z
-x,-y,z
x,-y,-z
-x,y,-z
-x,-y,-z
x,y,-z
-x,y,z
x,-y,z
1/2+x,1/2+y,z
1/2-x,1/2-y,z
1/2+x,1/2-y,-z
1/2-x,1/2+y,-z
1/2-x,1/2-y,-z
1/2+x,1/2+y,-z
1/2-x,1/2+y,z
1/2+x,1/2-y,z
loop_
_atom_site_type_symbol
_atom_site_label
_atom_site_fract_x
_atom_site_fract_y
_atom_site_fract_z
Si Si1 0.711403 0.175964 0.402515
Si Si2 0.282128 0.557591 0.354421
Si Si3 0.219213 0.942928 0.146203
Si Si4 0.278656 0.326308 0.901341
Si Si5 0.250000 0.250000 0.250411
O O1 0.777840 0.190372 0.500000
O O2 0.500000 0.191130 0.393466
O O3 0.718475 0.112458 0.394890
O O4 0.810573 0.206011 0.323214
O O5 0.500000 0.557984 0.362372
O O6 0.219528 0.500000 0.388731
O O7 0.237609 0.559321 0.250323
O O8 0.276343 0.887765 0.104949
O O9 0.000000 0.943540 0.138532
O O10 0.283458 0.000000 0.111705
O O11 0.500000 0.322897 0.888010
O O12 0.188447 0.292637 0.823907
O O13 0.237203 0.307902 0.000000
#
# Coordination Sequence:
#
# PCOD9489004 Si02
#       5
#    16  16  16  16   8
#     4  11  25  41  59  86 117 155 203 251 302 354
#     4   9  18  36  63  91 118 152 193 238 295 361
#     4   8  14  28  52  82 113 143 178 224 280 341
#     4  10  20  33  54  85 114 145 190 241 292 344
#     4  12  22  40  58  74 112 162 206 244 288 346
#
# _framework density 25.527916999999999
#
# number of rings (size 3 to 8) (size 9 to 14) (size 15 to 20)
#    0.000    2.222    2.222    2.667    0.000    2.667 
#    0.000    4.444    0.000    0.000    0.000    0.000 
#    0.000    3.556    0.000    0.000    0.000    0.000 
#
# Total GULP energy -200754.214297 kJ/mol
# GULP energy per Si atom -5576.505953 kJ/mol
# Density = 2.546981 g / cm^3
# Si number density = 25.527917 Si / 1000 Ang^3
#
#
#
# Elastic Constant Matrix: (Units=GPa)
#
#
# Indices 1 2 3 4 5 6 
#
# 1 106.1270 11.4373 32.8928 0.0000 0.0000 0.0000
# 2 11.4373 262.5178 97.1280 0.0000 0.0000 0.0000
# 3 32.8928 97.1280 200.1262 0.0000 0.0000 0.0000
# 4 0.0000 0.0000 0.0000 -178.1740 0.0000 0.0000
# 5 0.0000 0.0000 0.0000 0.0000 -10.8730 0.0000
# 6 0.0000 0.0000 0.0000 0.0000 0.0000 -96.5529
#
#
#
# Elastic Compliance Matrix: (Units=1/GPa)
#
#
# Indices 1 2 3 4 5 6 
#
# 1 0.009938 0.000209 -0.001735 0.000000 0.000000 0.000000
# 2 0.000209 0.004647 -0.002290 0.000000 0.000000 0.000000
# 3 -0.001735 -0.002290 0.006393 0.000000 0.000000 0.000000
# 4 0.000000 0.000000 0.000000 -0.005612 0.000000 0.000000
# 5 0.000000 0.000000 0.000000 0.000000 -0.091971 0.000000
# 6 0.000000 0.000000 0.000000 0.000000 0.000000 -0.010357
#
#
# Mechanical properties :
#
#
# Convention : Reuss Voigt Hill
#
# Bulk Modulus (GPa) = 74.92301 94.63191 84.77746
# Shear Modulus (GPa) = -66.77191 -28.63245 -47.70218
#
# Velocity S-wave (km/s) = -5.11988 -3.35268 -4.32745
# Velocity P-wave (km/s) = 2.35325 4.70777 2.88317
#
# Compressibility (1/GPa) = 0.01334703
#
# Stress axis : x y z
#
# Youngs Moduli (GPa) = 100.62558 215.17491 156.41331
#
# Poissons Ratio (x) = -0.04494 0.27134
# Poissons Ratio (y) = -0.02102 0.35816
# Poissons Ratio (z) = 0.17456 0.49272
#
# Static dielectric constant tensor:
#      x y z
#    x 2.110370 0.000000 0.000000 
#    y 0.000000 1.984830 0.000000 
#    z 0.000000 0.000000 1.921570 
# 
# From -- ./inp_files/36540.got.cif
#   From: 2010.05.17/outbox.cif.g08.bks.cpg/sg65_19_cif.got.tgz:36540.got - 2010.06.03 17:01:31.
