data_PCOD9489022
_publ_section_title
;
Structure prediction by ZEFSAII (Michael W. Deem and Ramdas Pophale) SiO2 
 PCOD9489022
Probable space group: C M M M
;
_chemical_formula_sum "Si O2"
_cell_formula_units_Z 96
_cell_length_a 14.359844
_cell_length_b 19.824831
_cell_length_c 15.163933
_cell_angle_alpha 90.000000
_cell_angle_beta 90.000000
_cell_angle_gamma 90.000000
_cell_volume 4316.890896
_symmetry_space_group_name_H-M "C M M M"
_symmetry_group_IT_number 65
_symmetry_cell_setting 'orthorhombic'
loop_
_space_group_symop_operation_xyz
x,y,z
-x,-y,z
x,-y,-z
-x,y,-z
-x,-y,-z
x,y,-z
-x,y,z
x,-y,z
1/2+x,1/2+y,z
1/2-x,1/2-y,z
1/2+x,1/2-y,-z
1/2-x,1/2+y,-z
1/2-x,1/2-y,-z
1/2+x,1/2+y,-z
1/2-x,1/2+y,z
1/2+x,1/2-y,z
loop_
_atom_site_type_symbol
_atom_site_label
_atom_site_fract_x
_atom_site_fract_y
_atom_site_fract_z
Si Si1 0.894640 0.244952 0.100766
Si Si2 0.696677 0.604266 0.098284
Si Si3 0.110440 0.926099 0.282540
Si Si4 0.895921 0.609186 0.161941
Si Si5 0.606814 0.076458 0.633053
Si Si6 0.227242 0.825691 0.399966
O O1 0.821490 0.184929 0.108670
O O2 0.888311 0.309092 0.163713
O O3 0.000000 0.216128 0.110366
O O4 0.887672 0.271691 0.000000
O O5 0.642376 0.574793 0.181016
O O6 0.805449 0.587022 0.108428
O O7 0.663926 0.586305 0.000000
O O8 0.160122 0.866171 0.334653
O O9 0.000000 0.918902 0.287642
O O10 0.136987 0.000000 0.319807
O O11 0.888691 0.581011 0.260382
O O12 0.000000 0.593432 0.127346
O O13 0.500000 0.090065 0.608012
O O14 0.678322 0.130963 0.598446
O O15 0.630135 0.000000 0.606761
O O16 0.189241 0.822010 0.500000
O O17 0.250000 0.750000 0.369901
#
# Coordination Sequence:
#
# PCOD9489022 Si02
#       6
#    16  16  16  16  16  16
#     4   9  18  32  51  81 121 168 225 282 335 393
#     4  11  22  36  59  92 133 181 233 289 345 402
#     4  11  26  47  71 100 138 187 237 284 341 410
#     4  10  20  33  55  88 126 171 224 280 335 400
#     4  10  22  41  67  99 136 178 221 269 330 405
#     4  11  26  47  74 108 141 173 216 280 351 412
#
# _framework density 22.238227999999999
#
# number of rings (size 3 to 8) (size 9 to 14) (size 15 to 20)
#    0.000    1.667    1.667    2.000    2.333    6.333 
#    0.000    4.167    0.000    1.500    0.000   11.667 
#    0.000    0.000    0.000    0.000    0.000    0.000 
#
# Total GULP energy -268386.005527 kJ/mol
# GULP energy per Si atom -5591.375115 kJ/mol
# Density = 2.218761 g / cm^3
# Si number density = 22.238228 Si / 1000 Ang^3
#
#
#
# Elastic Constant Matrix: (Units=GPa)
#
#
# Indices 1 2 3 4 5 6 
#
# 1 113.3375 51.3328 34.7245 0.0000 0.0000 0.0000
# 2 51.3328 142.1850 50.9092 0.0000 0.0000 0.0000
# 3 34.7245 50.9092 95.8066 0.0000 0.0000 0.0000
# 4 0.0000 0.0000 0.0000 98.9068 0.0000 0.0000
# 5 0.0000 0.0000 0.0000 0.0000 2.9286 0.0000
# 6 0.0000 0.0000 0.0000 0.0000 0.0000 24.7025
#
#
#
# Elastic Compliance Matrix: (Units=1/GPa)
#
#
# Indices 1 2 3 4 5 6 
#
# 1 0.010946 -0.003126 -0.002306 0.000000 0.000000 0.000000
# 2 -0.003126 0.009578 -0.003957 0.000000 0.000000 0.000000
# 3 -0.002306 -0.003957 0.013376 0.000000 0.000000 0.000000
# 4 0.000000 0.000000 0.000000 0.010111 0.000000 0.000000
# 5 0.000000 0.000000 0.000000 0.000000 0.341464 0.000000
# 6 0.000000 0.000000 0.000000 0.000000 0.000000 0.040482
#
#
# Mechanical properties :
#
#
# Convention : Reuss Voigt Hill
#
# Bulk Modulus (GPa) = 66.12707 69.47357 67.80032
# Shear Modulus (GPa) = 11.11668 39.59840 25.35754
#
# Velocity S-wave (km/s) = 2.23825 4.22435 3.38045
# Velocity P-wave (km/s) = 6.03987 7.42307 6.76690
#
# Compressibility (1/GPa) = 0.01512240
#
# Stress axis : x y z
#
# Youngs Moduli (GPa) = 91.36125 104.40216 74.76064
#
# Poissons Ratio (x) = 0.32636 0.17241
# Poissons Ratio (y) = 0.28559 0.29581
# Poissons Ratio (z) = 0.21069 0.41309
#
# Static dielectric constant tensor:
#      x y z
#    x 1.814280 0.000000 0.000000 
#    y 0.000000 1.828430 0.000000 
#    z 0.000000 0.000000 1.806050 
# 
# From -- ./inp_files/40333.got.cif
#   From: 2010.05.17/outbox.cif.g08.bks.cpg/sg65_21_cif.got.tgz:40333.got - 2010.06.03 17:01:31.
