data_PCOD9489536
_publ_section_title
;
Structure prediction by ZEFSAII (Michael W. Deem and Ramdas Pophale) SiO2 
 PCOD9489536
Probable space group: C M M M
;
_chemical_formula_sum "Si O2"
_cell_formula_units_Z 80
_cell_length_a 9.095965
_cell_length_b 16.705959
_cell_length_c 27.238534
_cell_angle_alpha 90.000000
_cell_angle_beta 90.000000
_cell_angle_gamma 90.000000
_cell_volume 4139.080963
_symmetry_space_group_name_H-M "C M M M"
_symmetry_group_IT_number 65
_symmetry_cell_setting 'orthorhombic'
loop_
_space_group_symop_operation_xyz
x,y,z
-x,-y,z
x,-y,-z
-x,y,-z
-x,-y,-z
x,y,-z
-x,y,z
x,-y,z
1/2+x,1/2+y,z
1/2-x,1/2-y,z
1/2+x,1/2-y,-z
1/2-x,1/2+y,-z
1/2-x,1/2-y,-z
1/2+x,1/2+y,-z
1/2-x,1/2+y,z
1/2+x,1/2-y,z
loop_
_atom_site_type_symbol
_atom_site_label
_atom_site_fract_x
_atom_site_fract_y
_atom_site_fract_z
Si Si1 0.833725 0.903697 0.151787
Si Si2 0.828678 0.402407 0.945418
Si Si3 0.678451 0.594697 0.552724
Si Si4 0.829600 0.096664 0.659422
Si Si5 0.325361 0.163958 0.245563
O O1 0.767294 0.873757 0.100272
O O2 0.732497 0.881608 0.197504
O O3 0.000000 0.873894 0.159517
O O4 0.839403 0.000000 0.148931
O O5 0.823445 0.500000 0.945209
O O6 0.000000 0.380650 0.938957
O O7 0.780123 0.376656 0.000000
O O8 0.728595 0.629095 0.500000
O O9 0.500000 0.598627 0.553472
O O10 0.715885 0.500000 0.551949
O O11 0.725308 0.626859 0.605915
O O12 0.731670 0.122757 0.704739
O O13 0.000000 0.122425 0.666913
O O14 0.831577 0.000000 0.657133
O O15 0.500000 0.169267 0.245284
O O16 0.250000 0.250000 0.244053
#
# Coordination Sequence:
#
# PCOD9489536 Si02
#       5
#    16  16  16  16  16
#     4  10  20  34  54  80 108 136 169 209 251 299
#     4   8  14  26  46  74 107 139 170 205 245 289
#     4   7  10  19  40  72 105 133 161 195 238 289
#     4   9  17  31  53  80 108 135 166 206 249 297
#     4  12  25  39  54  71  97 133 173 216 261 309
#
# _framework density 19.327961999999999
#
# number of rings (size 3 to 8) (size 9 to 14) (size 15 to 20)
#    0.000    2.800    0.000    5.400    0.000    4.400 
#    0.000    2.000    0.000    1.800    0.000    2.800 
#    0.000    0.000    0.000    0.000    0.000    0.000 
#
# Total GULP energy -222899.776555 kJ/mol
# GULP energy per Si atom -5572.494414 kJ/mol
# Density = 1.928397 g / cm^3
# Si number density = 19.327962 Si / 1000 Ang^3
#
#
#
# Elastic Constant Matrix: (Units=GPa)
#
#
# Indices 1 2 3 4 5 6 
#
# 1 117.2575 13.5233 89.7548 0.0000 0.0000 0.0000
# 2 13.5233 8.9280 16.4796 0.0000 0.0000 0.0000
# 3 89.7548 16.4796 204.0816 0.0000 0.0000 0.0000
# 4 0.0000 0.0000 0.0000 -19.3081 0.0000 0.0000
# 5 0.0000 0.0000 0.0000 0.0000 -11.7545 0.0000
# 6 0.0000 0.0000 0.0000 0.0000 0.0000 7.5585
#
#
#
# Elastic Compliance Matrix: (Units=1/GPa)
#
#
# Indices 1 2 3 4 5 6 
#
# 1 0.013774 -0.011378 -0.005139 0.000000 0.000000 0.000000
# 2 -0.011378 0.141026 -0.006384 0.000000 0.000000 0.000000
# 3 -0.005139 -0.006384 0.007676 0.000000 0.000000 0.000000
# 4 0.000000 0.000000 0.000000 -0.051792 0.000000 0.000000
# 5 0.000000 0.000000 0.000000 0.000000 -0.085074 0.000000
# 6 0.000000 0.000000 0.000000 0.000000 0.000000 0.132302
#
#
# Mechanical properties :
#
#
# Convention : Reuss Voigt Hill
#
# Bulk Modulus (GPa) = 8.57091 63.30916 35.94004
# Shear Modulus (GPa) = 20.60968 9.33314 14.97141
#
# Velocity S-wave (km/s) = 3.26899 2.19984 2.78618
# Velocity P-wave (km/s) = 4.32348 6.26728 5.38383
#
# Compressibility (1/GPa) = 0.11667369
#
# Stress axis : x y z
#
# Youngs Moduli (GPa) = 72.59957 7.09091 130.28200
#
# Poissons Ratio (x) = 0.08068 0.66953
# Poissons Ratio (y) = 0.82604 0.83169
# Poissons Ratio (z) = 0.37310 0.04527
#
# Static dielectric constant tensor:
#      x y z
#    x 1.653610 0.000000 0.000000 
#    y 0.000000 1.695420 0.000000 
#    z 0.000000 0.000000 1.732360 
# 
# From -- ./inp_files/72824.got.cif
#   From: 2010.05.17/outbox.cif.g08.bks.cpg/sg65_37_cif.got.tgz:72824.got - 2010.06.03 17:01:31.
