data_PCOD9489447
_publ_section_title
;
Structure prediction by ZEFSAII (Michael W. Deem and Ramdas Pophale) SiO2 
 PCOD9489447
Probable space group: C M M M
;
_chemical_formula_sum "Si O2"
_cell_formula_units_Z 88
_cell_length_a 13.792411
_cell_length_b 18.058386
_cell_length_c 19.133816
_cell_angle_alpha 90.000000
_cell_angle_beta 90.000000
_cell_angle_gamma 90.000000
_cell_volume 4765.634327
_symmetry_space_group_name_H-M "C M M M"
_symmetry_group_IT_number 65
_symmetry_cell_setting 'orthorhombic'
loop_
_space_group_symop_operation_xyz
x,y,z
-x,-y,z
x,-y,-z
-x,y,-z
-x,-y,-z
x,y,-z
-x,y,z
x,-y,z
1/2+x,1/2+y,z
1/2-x,1/2-y,z
1/2+x,1/2-y,-z
1/2-x,1/2+y,-z
1/2-x,1/2-y,-z
1/2+x,1/2+y,-z
1/2-x,1/2+y,z
1/2+x,1/2-y,z
loop_
_atom_site_type_symbol
_atom_site_label
_atom_site_fract_x
_atom_site_fract_y
_atom_site_fract_z
Si Si1 0.118047 0.803952 0.578738
Si Si2 0.883353 0.347894 0.346358
Si Si3 0.381890 0.000000 0.420488
Si Si4 0.616094 0.586866 0.704903
Si Si5 0.230896 0.664085 0.797173
Si Si6 0.112641 0.588983 0.919392
O O1 0.153333 0.817788 0.500000
O O2 0.145844 0.722648 0.606868
O O3 0.144062 0.865168 0.636475
O O4 0.000000 0.804406 0.575921
O O5 0.853645 0.425463 0.380698
O O6 0.840768 0.340555 0.269330
O O7 0.000000 0.347157 0.342544
O O8 0.500000 0.000000 0.422943
O O9 0.346381 0.000000 0.500000
O O10 0.500000 0.593873 0.713729
O O11 0.638981 0.500000 0.696718
O O12 0.673293 0.621956 0.769888
O O13 0.250000 0.750000 0.811089
O O14 0.182462 0.626163 0.863694
O O15 0.119543 0.500000 0.913572
O O16 0.000000 0.608874 0.905495
O O17 0.134411 0.608742 0.000000
#
# Coordination Sequence:
#
# PCOD9489447 Si02
#       6
#    16  16   8  16  16  16
#     4   9  17  33  56  76 103 147 196 248 301 345
#     4  10  20  34  53  82 115 149 191 239 298 360
#     4   9  18  32  52  78 112 154 194 241 302 364
#     4  10  22  39  56  77 110 152 203 252 289 330
#     4  12  23  36  59  86 118 152 192 233 281 342
#     4   9  20  40  66  96 125 149 176 219 280 347
#
# _framework density 18.465537000000001
#
# number of rings (size 3 to 8) (size 9 to 14) (size 15 to 20)
#    0.000    2.091    1.818    2.182    2.545    3.636 
#    0.000    4.545    0.000    0.545    0.000    2.545 
#    0.000    0.000    0.000    0.000    0.000    0.000 
#
# Total GULP energy -245902.888886 kJ/mol
# GULP energy per Si atom -5588.702020 kJ/mol
# Density = 1.842351 g / cm^3
# Si number density = 18.465537 Si / 1000 Ang^3
#
#
#
# Elastic Constant Matrix: (Units=GPa)
#
#
# Indices 1 2 3 4 5 6 
#
# 1 79.0038 53.8937 57.9554 0.0000 0.0000 0.0000
# 2 53.8937 145.2726 79.0349 0.0000 0.0000 0.0000
# 3 57.9554 79.0349 149.0322 0.0000 0.0000 0.0000
# 4 0.0000 0.0000 0.0000 33.5957 0.0000 0.0000
# 5 0.0000 0.0000 0.0000 0.0000 26.3549 0.0000
# 6 0.0000 0.0000 0.0000 0.0000 0.0000 23.1597
#
#
#
# Elastic Compliance Matrix: (Units=1/GPa)
#
#
# Indices 1 2 3 4 5 6 
#
# 1 0.019502 -0.004370 -0.005267 0.000000 0.000000 0.000000
# 2 -0.004370 0.010654 -0.003951 0.000000 0.000000 0.000000
# 3 -0.005267 -0.003951 0.010853 0.000000 0.000000 0.000000
# 4 0.000000 0.000000 0.000000 0.029766 0.000000 0.000000
# 5 0.000000 0.000000 0.000000 0.000000 0.037944 0.000000
# 6 0.000000 0.000000 0.000000 0.000000 0.000000 0.043178
#
#
# Mechanical properties :
#
#
# Convention : Reuss Voigt Hill
#
# Bulk Modulus (GPa) = 72.27963 83.89741 78.08852
# Shear Modulus (GPa) = 27.22084 28.78369 28.00227
#
# Velocity S-wave (km/s) = 3.84362 3.95242 3.89840
# Velocity P-wave (km/s) = 7.67632 8.14629 7.91479
#
# Compressibility (1/GPa) = 0.01383516
#
# Stress axis : x y z
#
# Youngs Moduli (GPa) = 51.27714 93.86054 92.13842
#
# Poissons Ratio (x) = 0.41013 0.48525
# Poissons Ratio (y) = 0.22406 0.36402
# Poissons Ratio (z) = 0.27005 0.37083
#
# Static dielectric constant tensor:
#      x y z
#    x 1.681900 0.000000 0.000000 
#    y 0.000000 1.654630 0.000000 
#    z 0.000000 0.000000 1.590400 
# 
# From -- ./inp_files/52984.got.cif
#   From: 2010.05.17/outbox.cif.g08.bks.cpg/sg65_27_cif.got.tgz:52984.got - 2010.06.03 17:01:31.
