data_PCOD9489962
_publ_section_title
;
Structure prediction by ZEFSAII (Michael W. Deem and Ramdas Pophale) SiO2 
 PCOD9489962
Probable space group: C M M M
;
_chemical_formula_sum "Si O2"
_cell_formula_units_Z 72
_cell_length_a 27.542960
_cell_length_b 15.568999
_cell_length_c 7.527738
_cell_angle_alpha 90.000000
_cell_angle_beta 90.000000
_cell_angle_gamma 90.000000
_cell_volume 3228.016882
_symmetry_space_group_name_H-M "C M M M"
_symmetry_group_IT_number 65
_symmetry_cell_setting 'orthorhombic'
loop_
_space_group_symop_operation_xyz
x,y,z
-x,-y,z
x,-y,-z
-x,y,-z
-x,-y,-z
x,y,-z
-x,y,z
x,-y,z
1/2+x,1/2+y,z
1/2-x,1/2-y,z
1/2+x,1/2-y,-z
1/2-x,1/2+y,-z
1/2-x,1/2-y,-z
1/2+x,1/2+y,-z
1/2-x,1/2+y,z
1/2+x,1/2-y,z
loop_
_atom_site_type_symbol
_atom_site_label
_atom_site_fract_x
_atom_site_fract_y
_atom_site_fract_z
Si Si1 0.740069 0.000000 0.212690
Si Si2 0.102680 0.822221 0.285407
Si Si3 0.288253 0.681871 0.289956
Si Si4 0.054049 0.643860 0.210815
Si Si5 0.444106 0.500000 0.282830
Si Si6 0.628430 0.000000 0.782499
O O1 0.767912 0.914109 0.269865
O O2 0.684198 0.000000 0.278112
O O3 0.738882 0.000000 0.000000
O O4 0.104221 0.826168 0.500000
O O5 0.157420 0.809118 0.217420
O O6 0.068884 0.742293 0.238011
O O7 0.082012 0.913230 0.223017
O O8 0.292210 0.699923 0.500000
O O9 0.250000 0.750000 0.213801
O O10 0.097111 0.582388 0.277200
O O11 0.000000 0.626250 0.283205
O O12 0.051616 0.627764 0.000000
O O13 0.500000 0.500000 0.228415
O O14 0.443171 0.500000 0.500000
O O15 0.630436 0.000000 0.000000
#
# Coordination Sequence:
#
# PCOD9489962 Si02
#       6
#     8  16  16  16   8   8
#     4  11  22  35  56  83 110 143 182 230 279 321
#     4  10  20  35  55  77 103 137 176 219 265 315
#     4  10  21  37  56  78 107 144 183 223 270 326
#     4  10  20  35  56  80 107 141 179 220 266 317
#     4   9  17  30  49  71  96 129 165 201 248 307
#     4   9  19  36  55  77 108 145 181 214 261 326
#
# _framework density 22.304717
#
# number of rings (size 3 to 8) (size 9 to 14) (size 15 to 20)
#    0.000    2.111    0.000    3.333    0.000    5.778 
#    0.000    2.222    0.000    3.333    0.000    0.000 
#    0.000    0.000    0.000    0.000    0.000    0.000 
#
# Total GULP energy -201270.444262 kJ/mol
# GULP energy per Si atom -5590.845674 kJ/mol
# Density = 2.225395 g / cm^3
# Si number density = 22.304717 Si / 1000 Ang^3
#
#
#
# Elastic Constant Matrix: (Units=GPa)
#
#
# Indices 1 2 3 4 5 6 
#
# 1 102.7019 -18.2020 0.1873 0.0000 0.0000 0.0000
# 2 -18.2020 59.3089 -19.3318 0.0000 0.0000 0.0000
# 3 0.1873 -19.3318 55.6387 0.0000 0.0000 0.0000
# 4 0.0000 0.0000 0.0000 78.7135 0.0000 0.0000
# 5 0.0000 0.0000 0.0000 0.0000 -20.6018 0.0000
# 6 0.0000 0.0000 0.0000 0.0000 0.0000 55.7178
#
#
#
# Elastic Compliance Matrix: (Units=1/GPa)
#
#
# Indices 1 2 3 4 5 6 
#
# 1 0.010368 0.003576 0.001207 0.000000 0.000000 0.000000
# 2 0.003576 0.020247 0.007023 0.000000 0.000000 0.000000
# 3 0.001207 0.007023 0.020409 0.000000 0.000000 0.000000
# 4 0.000000 0.000000 0.000000 0.012704 0.000000 0.000000
# 5 0.000000 0.000000 0.000000 0.000000 -0.048539 0.000000
# 6 0.000000 0.000000 0.000000 0.000000 0.000000 0.017948
#
#
# Mechanical properties :
#
#
# Convention : Reuss Voigt Hill
#
# Bulk Modulus (GPa) = 13.39813 15.88404 14.64109
# Shear Modulus (GPa) = 145.33039 39.76562 92.54801
#
# Velocity S-wave (km/s) = 8.08073 4.22694 6.44846
# Velocity P-wave (km/s) = 9.64802 5.56413 7.87540
#
# Compressibility (1/GPa) = 0.07463730
#
# Stress axis : x y z
#
# Youngs Moduli (GPa) = 96.44651 49.38902 48.99753
#
# Poissons Ratio (x) = -0.17660 -0.05916
# Poissons Ratio (y) = -0.34486 -0.34411
# Poissons Ratio (z) = -0.11646 -0.34686
#
# Static dielectric constant tensor:
#      x y z
#    x 1.813160 0.000000 0.000000 
#    y 0.000000 1.761700 0.000000 
#    z 0.000000 0.000000 1.833230 
# 
# From -- ./inp_files/7375.got.cif
#   From: 2010.05.17/outbox.cif.g08.bks.cpg/sg65_4_cif.got.tgz:7375.got - 2010.06.03 17:01:31.
