data_PCOD9489591
_publ_section_title
;
Structure prediction by ZEFSAII (Michael W. Deem and Ramdas Pophale) SiO2 
 PCOD9489591
Probable space group: C M M M
;
_chemical_formula_sum "Si O2"
_cell_formula_units_Z 96
_cell_length_a 8.728716
_cell_length_b 29.376946
_cell_length_c 20.949358
_cell_angle_alpha 90.000000
_cell_angle_beta 90.000000
_cell_angle_gamma 90.000000
_cell_volume 5371.897616
_symmetry_space_group_name_H-M "C M M M"
_symmetry_group_IT_number 65
_symmetry_cell_setting 'orthorhombic'
loop_
_space_group_symop_operation_xyz
x,y,z
-x,-y,z
x,-y,-z
-x,y,-z
-x,-y,-z
x,y,-z
-x,y,z
x,-y,z
1/2+x,1/2+y,z
1/2-x,1/2-y,z
1/2+x,1/2-y,-z
1/2-x,1/2+y,-z
1/2-x,1/2-y,-z
1/2+x,1/2+y,-z
1/2-x,1/2+y,z
1/2+x,1/2-y,z
loop_
_atom_site_type_symbol
_atom_site_label
_atom_site_fract_x
_atom_site_fract_y
_atom_site_fract_z
Si Si1 0.317052 0.299855 0.074717
Si Si2 0.817462 0.641278 0.813599
Si Si3 0.682288 0.448024 0.238472
Si Si4 0.316315 0.948877 0.381322
Si Si5 0.684730 0.300796 0.304356
Si Si6 0.184417 0.856473 0.429919
O O1 0.500000 0.299233 0.083656
O O2 0.250000 0.250000 0.089998
O O3 0.241934 0.336118 0.121531
O O4 0.284739 0.308909 0.000000
O O5 0.758716 0.589906 0.805201
O O6 0.747260 0.669890 0.754683
O O7 0.000000 0.643110 0.810235
O O8 0.500000 0.440126 0.242585
O O9 0.708182 0.500000 0.217050
O O10 0.752586 0.443904 0.309388
O O11 0.500000 0.945894 0.380297
O O12 0.249014 0.907175 0.420737
O O13 0.274206 0.000000 0.403753
O O14 0.500000 0.299773 0.301539
O O15 0.750000 0.250000 0.301290
O O16 0.733119 0.325272 0.370475
O O17 0.229748 0.838866 0.500000
O O18 0.000000 0.858889 0.427528
#
# Coordination Sequence:
#
# PCOD9489591 Si02
#       6
#    16  16  16  16  16  16
#     4  10  21  38  60  87 121 158 195 234 279 331
#     4  12  23  36  59  88 119 151 188 232 279 332
#     4  10  20  35  57  84 114 148 186 230 280 334
#     4  10  20  34  54  81 111 142 180 228 282 338
#     4  11  23  39  58  80 109 143 187 238 284 337
#     4  10  22  39  57  77 105 145 189 233 284 342
#
# _framework density 17.870781000000001
#
# number of rings (size 3 to 8) (size 9 to 14) (size 15 to 20)
#    0.000    1.500    1.667    4.000    0.000    4.667 
#    0.000    1.667    0.000    0.500    0.000    3.500 
#    0.000    0.000    0.000    0.000    0.000    0.000 
#
# Total GULP energy -268230.125966 kJ/mol
# GULP energy per Si atom -5588.127624 kJ/mol
# Density = 1.783011 g / cm^3
# Si number density = 17.870781 Si / 1000 Ang^3
#
#
#
# Elastic Constant Matrix: (Units=GPa)
#
#
# Indices 1 2 3 4 5 6 
#
# 1 52.0741 35.2459 31.6564 0.0000 0.0000 0.0000
# 2 35.2459 98.5183 47.0597 0.0000 0.0000 0.0000
# 3 31.6564 47.0597 71.9386 0.0000 0.0000 0.0000
# 4 0.0000 0.0000 0.0000 15.4112 0.0000 0.0000
# 5 0.0000 0.0000 0.0000 0.0000 14.3183 0.0000
# 6 0.0000 0.0000 0.0000 0.0000 0.0000 33.1261
#
#
#
# Elastic Compliance Matrix: (Units=1/GPa)
#
#
# Indices 1 2 3 4 5 6 
#
# 1 0.028552 -0.006128 -0.008556 0.000000 0.000000 0.000000
# 2 -0.006128 0.016079 -0.007822 0.000000 0.000000 0.000000
# 3 -0.008556 -0.007822 0.022782 0.000000 0.000000 0.000000
# 4 0.000000 0.000000 0.000000 0.064888 0.000000 0.000000
# 5 0.000000 0.000000 0.000000 0.000000 0.069841 0.000000
# 6 0.000000 0.000000 0.000000 0.000000 0.000000 0.030188
#
#
# Mechanical properties :
#
#
# Convention : Reuss Voigt Hill
#
# Bulk Modulus (GPa) = 44.63722 50.05057 47.34389
# Shear Modulus (GPa) = 17.55572 19.80907 18.68239
#
# Velocity S-wave (km/s) = 3.13768 3.33297 3.23680
# Velocity P-wave (km/s) = 6.17727 6.54823 6.36545
#
# Compressibility (1/GPa) = 0.02240283
#
# Stress axis : x y z
#
# Youngs Moduli (GPa) = 35.02368 62.19303 43.89376
#
# Poissons Ratio (x) = 0.38112 0.37554
# Poissons Ratio (y) = 0.21463 0.34332
# Poissons Ratio (z) = 0.29965 0.48645
#
# Static dielectric constant tensor:
#      x y z
#    x 1.595180 0.000000 0.000000 
#    y 0.000000 1.598580 0.000000 
#    z 0.000000 0.000000 1.602930 
# 
# From -- ./inp_files/60287.got.cif
#   From: 2010.05.17/outbox.cif.g08.bks.cpg/sg65_31_cif.got.tgz:60287.got - 2010.06.03 17:01:31.
