data_PCOD9489897
_publ_section_title
;
Structure prediction by ZEFSAII (Michael W. Deem and Ramdas Pophale) SiO2 
 PCOD9489897
Probable space group: C M M M
;
_chemical_formula_sum "Si O2"
_cell_formula_units_Z 88
_cell_length_a 26.626559
_cell_length_b 21.175751
_cell_length_c 8.425651
_cell_angle_alpha 90.000000
_cell_angle_beta 90.000000
_cell_angle_gamma 90.000000
_cell_volume 4750.697013
_symmetry_space_group_name_H-M "C M M M"
_symmetry_group_IT_number 65
_symmetry_cell_setting 'orthorhombic'
loop_
_space_group_symop_operation_xyz
x,y,z
-x,-y,z
x,-y,-z
-x,y,-z
-x,-y,-z
x,y,-z
-x,y,z
x,-y,z
1/2+x,1/2+y,z
1/2-x,1/2-y,z
1/2+x,1/2-y,-z
1/2-x,1/2+y,-z
1/2-x,1/2-y,-z
1/2+x,1/2+y,-z
1/2-x,1/2+y,z
1/2+x,1/2-y,z
loop_
_atom_site_type_symbol
_atom_site_label
_atom_site_fract_x
_atom_site_fract_y
_atom_site_fract_z
Si Si1 0.394760 0.573301 0.692316
Si Si2 0.694966 0.333569 0.692951
Si Si3 0.500000 0.631676 0.809055
Si Si4 0.805867 0.313398 0.308449
Si Si5 0.500000 0.778081 0.806287
Si Si6 0.443235 0.000000 0.310637
Si Si7 0.591301 0.133312 0.188803
O O1 0.394995 0.574881 0.500000
O O2 0.387562 0.500000 0.740693
O O3 0.348958 0.619090 0.747726
O O4 0.448889 0.598476 0.749816
O O5 0.693774 0.335994 0.500000
O O6 0.752919 0.344571 0.742262
O O7 0.688190 0.260211 0.739371
O O8 0.500000 0.705159 0.755329
O O9 0.500000 0.630218 0.000000
O O10 0.805924 0.314001 0.500000
O O11 0.853810 0.347726 0.242550
O O12 0.549125 0.816869 0.752446
O O13 0.500000 0.777386 0.000000
O O14 0.419067 0.936097 0.251380
O O15 0.500000 0.000000 0.249640
O O16 0.443373 0.000000 0.500000
O O17 0.587774 0.133352 0.000000
#
# Coordination Sequence:
#
# PCOD9489897 Si02
#       7
#    16  16   8  16   8   8  16
#     4  10  20  35  54  76 104 140 181 218 262 324
#     4   8  16  33  56  79 107 143 180 225 276 317
#     4  11  22  36  54  79 108 138 175 218 267 318
#     4   9  17  33  56  81 108 138 181 231 272 315
#     4   9  20  35  53  77 107 142 175 212 263 325
#     4  11  23  39  57  79 107 141 185 226 265 318
#     4  11  21  36  56  79 110 146 178 216 272 330
#
# _framework density 18.523599000000001
#
# number of rings (size 3 to 8) (size 9 to 14) (size 15 to 20)
#    0.000    2.273    0.909    3.545    0.000    1.818 
#    1.636    5.455    0.000    0.000    0.000    0.000 
#    0.000    0.000    0.000    0.000    0.000    0.000 
#
# Total GULP energy -245403.441508 kJ/mol
# GULP energy per Si atom -5577.350943 kJ/mol
# Density = 1.848144 g / cm^3
# Si number density = 18.523599 Si / 1000 Ang^3
#
#
#
# Elastic Constant Matrix: (Units=GPa)
#
#
# Indices 1 2 3 4 5 6 
#
# 1 150.8062 100.2970 34.1639 0.0000 0.0000 0.0000
# 2 100.2970 144.5745 26.7366 0.0000 0.0000 0.0000
# 3 34.1639 26.7366 9.9875 0.0000 0.0000 0.0000
# 4 0.0000 0.0000 0.0000 34.5473 0.0000 0.0000
# 5 0.0000 0.0000 0.0000 0.0000 9.4342 0.0000
# 6 0.0000 0.0000 0.0000 0.0000 0.0000 -6.5962
#
#
#
# Elastic Compliance Matrix: (Units=1/GPa)
#
#
# Indices 1 2 3 4 5 6 
#
# 1 0.030421 -0.003684 -0.094197 0.000000 0.000000 0.000000
# 2 -0.003684 0.014145 -0.025264 0.000000 0.000000 0.000000
# 3 -0.094197 -0.025264 0.489971 0.000000 0.000000 0.000000
# 4 0.000000 0.000000 0.000000 0.028946 0.000000 0.000000
# 5 0.000000 0.000000 0.000000 0.000000 0.105997 0.000000
# 6 0.000000 0.000000 0.000000 0.000000 0.000000 -0.151603
#
#
# Mechanical properties :
#
#
# Convention : Reuss Voigt Hill
#
# Bulk Modulus (GPa) = 3.46925 69.75148 36.61036
# Shear Modulus (GPa) = 5.81228 17.08844 11.45036
#
# Velocity S-wave (km/s) = 1.77330 3.04060 2.48896
# Velocity P-wave (km/s) = 2.46368 7.07561 5.29783
#
# Compressibility (1/GPa) = 0.28824700
#
# Stress axis : x y z
#
# Youngs Moduli (GPa) = 32.87247 70.69828 2.04094
#
# Poissons Ratio (x) = 0.26044 0.19225
# Poissons Ratio (y) = 0.12110 0.05156
# Poissons Ratio (z) = 3.09648 1.78611
#
# Static dielectric constant tensor:
#      x y z
#    x 1.610910 0.000000 0.000000 
#    y 0.000000 1.610760 0.000000 
#    z 0.000000 0.000000 1.636730 
# 
# From -- ./inp_files/14079.got.cif
#   From: 2010.05.17/outbox.cif.g08.bks.cpg/sg65_8_cif.got.tgz:14079.got - 2010.06.03 17:01:31.
