data_PCOD9489595
_publ_section_title
;
Structure prediction by ZEFSAII (Michael W. Deem and Ramdas Pophale) SiO2 
 PCOD9489595
Probable space group: C M M M
;
_chemical_formula_sum "Si O2"
_cell_formula_units_Z 80
_cell_length_a 18.510421
_cell_length_b 8.937427
_cell_length_c 26.499023
_cell_angle_alpha 90.000000
_cell_angle_beta 90.000000
_cell_angle_gamma 90.000000
_cell_volume 4383.880085
_symmetry_space_group_name_H-M "C M M M"
_symmetry_group_IT_number 65
_symmetry_cell_setting 'orthorhombic'
loop_
_space_group_symop_operation_xyz
x,y,z
-x,-y,z
x,-y,-z
-x,y,-z
-x,-y,-z
x,y,-z
-x,y,z
x,-y,z
1/2+x,1/2+y,z
1/2-x,1/2-y,z
1/2+x,1/2-y,-z
1/2-x,1/2+y,-z
1/2-x,1/2-y,-z
1/2+x,1/2+y,-z
1/2-x,1/2+y,z
1/2+x,1/2-y,z
loop_
_atom_site_type_symbol
_atom_site_label
_atom_site_fract_x
_atom_site_fract_y
_atom_site_fract_z
Si Si1 0.584537 0.819797 0.655840
Si Si2 0.912275 0.174521 0.055903
Si Si3 0.413222 0.824127 0.159577
Si Si4 0.829185 0.178207 0.748444
Si Si5 0.171451 0.680029 0.556919
O O1 0.500000 0.783977 0.659256
O O2 0.628769 0.739102 0.699572
O O3 0.616706 0.778049 0.601216
O O4 0.592247 0.000000 0.661819
O O5 0.889496 0.270922 0.103858
O O6 0.000000 0.179933 0.055150
O O7 0.892473 0.000000 0.062679
O O8 0.887690 0.223800 0.000000
O O9 0.500000 0.801372 0.163633
O O10 0.373018 0.731178 0.202352
O O11 0.399026 0.000000 0.166434
O O12 0.750000 0.250000 0.749538
O O13 0.823951 0.000000 0.746861
O O14 0.148834 0.723872 0.500000
O O15 0.178121 0.500000 0.557676
O O16 0.250000 0.750000 0.566617
#
# Coordination Sequence:
#
# PCOD9489595 Si02
#       5
#    16  16  16  16  16
#     4  10  21  37  57  82 112 143 178 223 271 319
#     4   8  14  26  46  74 108 144 181 220 262 310
#     4  10  20  34  54  81 112 143 178 222 269 318
#     4  12  25  40  58  78 104 139 180 224 272 328
#     4   9  18  33  54  80 110 146 185 222 263 313
#
# _framework density 18.248674999999999
#
# number of rings (size 3 to 8) (size 9 to 14) (size 15 to 20)
#    0.000    2.200    0.000    4.200    0.000    7.200 
#    0.000    4.000    0.000    0.600    0.000    4.200 
#    0.000    0.000    0.000    0.000    0.000    0.000 
#
# Total GULP energy -223267.906324 kJ/mol
# GULP energy per Si atom -5581.697658 kJ/mol
# Density = 1.820714 g / cm^3
# Si number density = 18.248675 Si / 1000 Ang^3
#
#
#
# Elastic Constant Matrix: (Units=GPa)
#
#
# Indices 1 2 3 4 5 6 
#
# 1 69.9646 53.6128 65.7512 0.0000 0.0000 0.0000
# 2 53.6128 72.8055 65.9299 0.0000 0.0000 0.0000
# 3 65.7512 65.9299 143.1473 0.0000 0.0000 0.0000
# 4 0.0000 0.0000 0.0000 25.0786 0.0000 0.0000
# 5 0.0000 0.0000 0.0000 0.0000 -333.4344 0.0000
# 6 0.0000 0.0000 0.0000 0.0000 0.0000 24.4640
#
#
#
# Elastic Compliance Matrix: (Units=1/GPa)
#
#
# Indices 1 2 3 4 5 6 
#
# 1 0.037121 -0.020406 -0.007652 0.000000 0.000000 0.000000
# 2 -0.020406 0.034780 -0.006646 0.000000 0.000000 0.000000
# 3 -0.007652 -0.006646 0.013562 0.000000 0.000000 0.000000
# 4 0.000000 0.000000 0.000000 0.039875 0.000000 0.000000
# 5 0.000000 0.000000 0.000000 0.000000 -0.002999 0.000000
# 6 0.000000 0.000000 0.000000 0.000000 0.000000 0.040876
#
#
# Mechanical properties :
#
#
# Convention : Reuss Voigt Hill
#
# Bulk Modulus (GPa) = 62.28656 72.94502 67.61579
# Shear Modulus (GPa) = 21.01074 -50.07012 -14.52969
#
# Velocity S-wave (km/s) = 3.39685 -5.24378 -2.82477
# Velocity P-wave (km/s) = 7.04208 1.84298 5.14721
#
# Compressibility (1/GPa) = 0.01605483
#
# Stress axis : x y z
#
# Youngs Moduli (GPa) = 26.93897 28.75227 73.73746
#
# Poissons Ratio (x) = 0.58671 0.56426
# Poissons Ratio (y) = 0.54971 0.49005
# Poissons Ratio (z) = 0.20614 0.19108
#
# Static dielectric constant tensor:
#      x y z
#    x 1.599290 0.000000 0.000000 
#    y 0.000000 1.610260 0.000000 
#    z 0.000000 0.000000 1.633740 
# 
# From -- ./inp_files/72765.got.cif
#   From: 2010.05.17/outbox.cif.g08.bks.cpg/sg65_37_cif.got.tgz:72765.got - 2010.06.03 17:01:31.
