data_PCOD9489335
_publ_section_title
;
Structure prediction by ZEFSAII (Michael W. Deem and Ramdas Pophale) SiO2 
 PCOD9489335
Probable space group: C M M M
;
_chemical_formula_sum "Si O2"
_cell_formula_units_Z 72
_cell_length_a 9.336687
_cell_length_b 14.683391
_cell_length_c 24.355316
_cell_angle_alpha 90.000000
_cell_angle_beta 90.000000
_cell_angle_gamma 90.000000
_cell_volume 3338.973193
_symmetry_space_group_name_H-M "C M M M"
_symmetry_group_IT_number 65
_symmetry_cell_setting 'orthorhombic'
loop_
_space_group_symop_operation_xyz
x,y,z
-x,-y,z
x,-y,-z
-x,y,-z
-x,-y,-z
x,y,-z
-x,y,z
x,-y,z
1/2+x,1/2+y,z
1/2-x,1/2-y,z
1/2+x,1/2-y,-z
1/2-x,1/2+y,-z
1/2-x,1/2-y,-z
1/2+x,1/2+y,-z
1/2-x,1/2+y,z
1/2+x,1/2-y,z
loop_
_atom_site_type_symbol
_atom_site_label
_atom_site_fract_x
_atom_site_fract_y
_atom_site_fract_z
Si Si1 0.333765 0.888567 0.288452
Si Si2 0.166165 0.888929 0.060004
Si Si3 0.659734 0.606784 0.392391
Si Si4 0.834423 0.610990 0.833216
Si Si5 0.171766 0.346329 0.500000
O O1 0.500000 0.860914 0.295522
O O2 0.234849 0.855283 0.337951
O O3 0.282169 0.861799 0.227486
O O4 0.334573 0.000000 0.289617
O O5 0.248418 0.857140 0.113840
O O6 0.000000 0.862368 0.062990
O O7 0.169884 0.000000 0.060709
O O8 0.224574 0.861327 0.000000
O O9 0.500000 0.645657 0.403654
O O10 0.641463 0.500000 0.381886
O O11 0.764938 0.611734 0.444298
O O12 0.830676 0.500000 0.833913
O O13 0.000000 0.638007 0.837729
O O14 0.250000 0.250000 0.500000
O O15 0.000000 0.345090 0.500000
#
# Coordination Sequence:
#
# PCOD9489335 Si02
#       5
#    16  16  16  16   8
#     4   8  14  25  40  59  83 110 142 181 226 272
#     4   8  13  19  25  35  55  86 125 168 213 261
#     4  10  20  34  53  77 102 126 157 196 234 277
#     4   8  13  20  30  45  66  93 128 172 217 260
#     4  12  25  40  57  75  99 129 159 192 233 280
#
# _framework density 21.563514999999999
#
# number of rings (size 3 to 8) (size 9 to 14) (size 15 to 20)
#    0.000    3.111    0.000    4.000    0.000    4.000 
#    0.000    6.667    0.000    0.000    0.000    0.000 
#    0.000    0.000    0.000    0.000    0.000    1.111 
#
# Total GULP energy -200755.157780 kJ/mol
# GULP energy per Si atom -5576.532161 kJ/mol
# Density = 2.151444 g / cm^3
# Si number density = 21.563515 Si / 1000 Ang^3
#
#
#
# Elastic Constant Matrix: (Units=GPa)
#
#
# Indices 1 2 3 4 5 6 
#
# 1 134.6643 8.0328 122.2742 0.0000 0.0000 0.0000
# 2 8.0328 46.3082 3.5811 0.0000 0.0000 0.0000
# 3 122.2742 3.5811 243.0132 0.0000 0.0000 0.0000
# 4 0.0000 0.0000 0.0000 -59.3600 0.0000 0.0000
# 5 0.0000 0.0000 0.0000 0.0000 43.2097 0.0000
# 6 0.0000 0.0000 0.0000 0.0000 0.0000 4.0870
#
#
#
# Elastic Compliance Matrix: (Units=1/GPa)
#
#
# Indices 1 2 3 4 5 6 
#
# 1 0.013831 -0.001863 -0.006932 0.000000 0.000000 0.000000
# 2 -0.001863 0.021870 0.000615 0.000000 0.000000 0.000000
# 3 -0.006932 0.000615 0.007594 0.000000 0.000000 0.000000
# 4 0.000000 0.000000 0.000000 -0.016846 0.000000 0.000000
# 5 0.000000 0.000000 0.000000 0.000000 0.023143 0.000000
# 6 0.000000 0.000000 0.000000 0.000000 0.000000 0.244676
#
#
# Mechanical properties :
#
#
# Convention : Reuss Voigt Hill
#
# Bulk Modulus (GPa) = 37.12593 76.86244 56.99419
# Shear Modulus (GPa) = 15.64428 16.92719 16.28574
#
# Velocity S-wave (km/s) = 2.69643 2.80481 2.75115
# Velocity P-wave (km/s) = 5.19121 6.79789 6.04814
#
# Compressibility (1/GPa) = 0.02693535
#
# Stress axis : x y z
#
# Youngs Moduli (GPa) = 72.30160 45.72463 131.68835
#
# Poissons Ratio (x) = 0.08519 0.91283
# Poissons Ratio (y) = 0.13471 -0.08101
# Poissons Ratio (z) = 0.50117 -0.02813
#
# Static dielectric constant tensor:
#      x y z
#    x 1.756190 0.000000 0.000000 
#    y 0.000000 2.001880 0.000000 
#    z 0.000000 0.000000 1.849850 
# 
# From -- ./inp_files/67014.got.cif
#   From: 2010.05.17/outbox.cif.g08.bks.cpg/sg65_34_cif.got.tgz:67014.got - 2010.06.03 17:01:31.
