data_PCOD9489661
_publ_section_title
;
Structure prediction by ZEFSAII (Michael W. Deem and Ramdas Pophale) SiO2 
 PCOD9489661
Probable space group: C M M M
;
_chemical_formula_sum "Si O2"
_cell_formula_units_Z 60
_cell_length_a 26.633635
_cell_length_b 10.586761
_cell_length_c 12.039157
_cell_angle_alpha 90.000000
_cell_angle_beta 90.000000
_cell_angle_gamma 90.000000
_cell_volume 3394.608001
_symmetry_space_group_name_H-M "C M M M"
_symmetry_group_IT_number 65
_symmetry_cell_setting 'orthorhombic'
loop_
_space_group_symop_operation_xyz
x,y,z
-x,-y,z
x,-y,-z
-x,y,-z
-x,-y,-z
x,y,-z
-x,y,z
x,-y,z
1/2+x,1/2+y,z
1/2-x,1/2-y,z
1/2+x,1/2-y,-z
1/2-x,1/2+y,-z
1/2-x,1/2-y,-z
1/2+x,1/2+y,-z
1/2-x,1/2+y,z
1/2+x,1/2-y,z
loop_
_atom_site_type_symbol
_atom_site_label
_atom_site_fract_x
_atom_site_fract_y
_atom_site_fract_z
Si Si1 0.798996 0.500000 0.000000
Si Si2 0.188257 0.769622 0.000000
Si Si3 0.558940 0.347786 0.627269
Si Si4 0.199579 0.500000 0.756520
Si Si5 0.848854 0.223762 0.761940
Si Si6 0.797712 0.000000 0.628827
O O1 0.831278 0.625399 0.000000
O O2 0.772776 0.500000 0.120836
O O3 0.250000 0.750000 0.000000
O O4 0.166760 0.822685 0.885726
O O5 0.573204 0.311163 0.500000
O O6 0.500000 0.319299 0.641432
O O7 0.564651 0.500000 0.633899
O O8 0.593971 0.287485 0.721070
O O9 0.169530 0.631424 0.751865
O O10 0.239461 0.500000 0.659238
O O11 0.820224 0.126858 0.681642
O O12 0.808028 0.000000 0.500000
#
# Coordination Sequence:
#
# PCOD9489661 Si02
#       6
#     4   8  16   8  16   8
#     4   8  16  36  52  68 101 146 183 210 264 332
#     4  10  20  34  55  80 111 150 188 226 274 336
#     4   9  18  36  60  82 109 149 192 233 285 345
#     4  10  22  36  55  80 113 148 181 235 281 331
#     4  11  21  37  58  82 111 147 192 233 281 337
#     4  12  24  36  51  77 114 153 190 227 279 345
#
# _framework density 17.675090000000001
#
# number of rings (size 3 to 8) (size 9 to 14) (size 15 to 20)
#    0.000    1.867    1.333    5.600    0.000    3.733 
#    0.000    1.333    0.000    3.200    0.000    5.600 
#    0.000    0.000    0.000    0.000    0.000    0.000 
#
# Total GULP energy -167068.256527 kJ/mol
# GULP energy per Si atom -5568.941884 kJ/mol
# Density = 1.763486 g / cm^3
# Si number density = 17.675090 Si / 1000 Ang^3
#
#
#
# Elastic Constant Matrix: (Units=GPa)
#
#
# Indices 1 2 3 4 5 6 
#
# 1 100.7885 28.4878 63.1872 0.0000 0.0000 0.0000
# 2 28.4878 92.3436 47.1725 0.0000 0.0000 0.0000
# 3 63.1872 47.1725 166.1609 0.0000 0.0000 0.0000
# 4 0.0000 0.0000 0.0000 45.0532 0.0000 0.0000
# 5 0.0000 0.0000 0.0000 0.0000 36.0685 0.0000
# 6 0.0000 0.0000 0.0000 0.0000 0.0000 21.3423
#
#
#
# Elastic Compliance Matrix: (Units=1/GPa)
#
#
# Indices 1 2 3 4 5 6 
#
# 1 0.013271 -0.001773 -0.004543 0.000000 0.000000 0.000000
# 2 -0.001773 0.012903 -0.002989 0.000000 0.000000 0.000000
# 3 -0.004543 -0.002989 0.008595 0.000000 0.000000 0.000000
# 4 0.000000 0.000000 0.000000 0.022196 0.000000 0.000000
# 5 0.000000 0.000000 0.000000 0.000000 0.027725 0.000000
# 6 0.000000 0.000000 0.000000 0.000000 0.000000 0.046855
#
#
# Mechanical properties :
#
#
# Convention : Reuss Voigt Hill
#
# Bulk Modulus (GPa) = 61.88890 70.77647 66.33268
# Shear Modulus (GPa) = 32.14571 35.18919 33.66745
#
# Velocity S-wave (km/s) = 4.26925 4.46678 4.36913
# Velocity P-wave (km/s) = 7.70667 8.16902 7.94121
#
# Compressibility (1/GPa) = 0.01615799
#
# Stress axis : x y z
#
# Youngs Moduli (GPa) = 75.35032 77.50174 116.35346
#
# Poissons Ratio (x) = 0.13743 0.52864
# Poissons Ratio (y) = 0.13362 0.34775
# Poissons Ratio (z) = 0.34234 0.23163
#
# Static dielectric constant tensor:
#      x y z
#    x 1.634990 0.000000 0.000000 
#    y 0.000000 1.633750 0.000000 
#    z 0.000000 0.000000 1.650640 
# 
# From -- ./inp_files/30177.got.cif
#   From: 2010.05.17/outbox.cif.g08.bks.cpg/sg65_16_cif.got.tgz:30177.got - 2010.06.03 17:01:31.
