data_PCOD9489602
_publ_section_title
;
Structure prediction by ZEFSAII (Michael W. Deem and Ramdas Pophale) SiO2 
 PCOD9489602
Probable space group: C M M M
;
_chemical_formula_sum "Si O2"
_cell_formula_units_Z 88
_cell_length_a 28.264544
_cell_length_b 19.567789
_cell_length_c 8.877458
_cell_angle_alpha 90.000000
_cell_angle_beta 90.000000
_cell_angle_gamma 90.000000
_cell_volume 4909.896827
_symmetry_space_group_name_H-M "C M M M"
_symmetry_group_IT_number 65
_symmetry_cell_setting 'orthorhombic'
loop_
_space_group_symop_operation_xyz
x,y,z
-x,-y,z
x,-y,-z
-x,y,-z
-x,-y,-z
x,y,-z
-x,y,z
x,-y,z
1/2+x,1/2+y,z
1/2-x,1/2-y,z
1/2+x,1/2-y,-z
1/2-x,1/2+y,-z
1/2-x,1/2-y,-z
1/2+x,1/2+y,-z
1/2-x,1/2+y,z
1/2+x,1/2-y,z
loop_
_atom_site_type_symbol
_atom_site_label
_atom_site_fract_x
_atom_site_fract_y
_atom_site_fract_z
Si Si1 0.000000 0.577839 0.316983
Si Si2 0.720785 0.417030 0.672838
Si Si3 0.680222 0.080567 0.180013
Si Si4 0.093116 0.338156 0.681063
Si Si5 0.554967 0.298787 0.181793
Si Si6 0.877991 0.921180 0.818826
O O1 0.952774 0.617448 0.270984
O O2 0.000000 0.500000 0.262874
O O3 0.000000 0.576532 0.500000
O O4 0.723403 0.394302 0.500000
O O5 0.720166 0.500000 0.674500
O O6 0.768010 0.397370 0.761970
O O7 0.671453 0.396263 0.748294
O O8 0.639592 0.125792 0.254550
O O9 0.673604 0.000000 0.220549
O O10 0.678179 0.085773 0.000000
O O11 0.095127 0.336947 0.500000
O O12 0.083927 0.262811 0.744424
O O13 0.500000 0.295827 0.228565
O O14 0.579654 0.370429 0.221772
O O15 0.556523 0.291927 0.000000
O O16 0.886423 0.000000 0.772502
O O17 0.873066 0.920733 0.000000
#
# Coordination Sequence:
#
# PCOD9489602 Si02
#       6
#     8  16  16  16  16  16
#     4   9  18  32  51  75 102 135 178 224 265 307
#     4   9  17  31  53  81 111 142 176 219 271 323
#     4  10  20  34  54  81 112 145 181 223 270 320
#     4  11  21  35  54  77 108 146 185 225 269 321
#     4  10  21  37  56  78 109 146 181 223 274 326
#     4   9  18  34  57  83 109 140 179 222 270 325
#
# _framework density 17.922984
#
# number of rings (size 3 to 8) (size 9 to 14) (size 15 to 20)
#    0.000    2.273    0.909    2.182    0.000    5.091 
#    0.000    2.727    0.000    7.636    0.000    3.818 
#    0.000    0.000    0.000    0.000    0.000    0.000 
#
# Total GULP energy -245508.657755 kJ/mol
# GULP energy per Si atom -5579.742222 kJ/mol
# Density = 1.788219 g / cm^3
# Si number density = 17.922984 Si / 1000 Ang^3
#
#
#
# Elastic Constant Matrix: (Units=GPa)
#
#
# Indices 1 2 3 4 5 6 
#
# 1 105.2304 54.2112 37.8181 0.0000 0.0000 0.0000
# 2 54.2112 92.1122 34.2134 0.0000 0.0000 0.0000
# 3 37.8181 34.2134 40.0182 0.0000 0.0000 0.0000
# 4 0.0000 0.0000 0.0000 19.9187 0.0000 0.0000
# 5 0.0000 0.0000 0.0000 0.0000 25.3598 0.0000
# 6 0.0000 0.0000 0.0000 0.0000 0.0000 -39.9868
#
#
#
# Elastic Compliance Matrix: (Units=1/GPa)
#
#
# Indices 1 2 3 4 5 6 
#
# 1 0.016161 -0.005625 -0.010464 0.000000 0.000000 0.000000
# 2 -0.005625 0.017866 -0.009959 0.000000 0.000000 0.000000
# 3 -0.010464 -0.009959 0.043391 0.000000 0.000000 0.000000
# 4 0.000000 0.000000 0.000000 0.050204 0.000000 0.000000
# 5 0.000000 0.000000 0.000000 0.000000 0.039432 0.000000
# 6 0.000000 0.000000 0.000000 0.000000 0.000000 -0.025008
#
#
# Mechanical properties :
#
#
# Convention : Reuss Voigt Hill
#
# Bulk Modulus (GPa) = 39.48877 54.42736 46.95807
# Shear Modulus (GPa) = 24.68137 8.46621 16.57379
#
# Velocity S-wave (km/s) = 3.71493 2.17576 3.04422
# Velocity P-wave (km/s) = 6.36249 6.06178 6.21395
#
# Compressibility (1/GPa) = 0.02532366
#
# Stress axis : x y z
#
# Youngs Moduli (GPa) = 61.87659 55.97321 23.04616
#
# Poissons Ratio (x) = 0.31484 0.24115
# Poissons Ratio (y) = 0.34805 0.22951
# Poissons Ratio (z) = 0.64746 0.55741
#
# Static dielectric constant tensor:
#      x y z
#    x 1.589950 0.000000 0.000000 
#    y 0.000000 1.606990 0.000000 
#    z 0.000000 0.000000 1.600880 
# 
# From -- ./inp_files/11833.got.cif
#   From: 2010.05.17/outbox.cif.g08.bks.cpg/sg65_6_cif.got.tgz:11833.got - 2010.06.03 17:01:31.
