data_PCOD9489180
_publ_section_title
;
Structure prediction by ZEFSAII (Michael W. Deem and Ramdas Pophale) SiO2 
 PCOD9489180
Probable space group: C M M M
;
_chemical_formula_sum "Si O2"
_cell_formula_units_Z 88
_cell_length_a 18.885966
_cell_length_b 7.669066
_cell_length_c 29.564241
_cell_angle_alpha 90.000000
_cell_angle_beta 90.000000
_cell_angle_gamma 90.000000
_cell_volume 4282.017252
_symmetry_space_group_name_H-M "C M M M"
_symmetry_group_IT_number 65
_symmetry_cell_setting 'orthorhombic'
loop_
_space_group_symop_operation_xyz
x,y,z
-x,-y,z
x,-y,-z
-x,y,-z
-x,-y,-z
x,y,-z
-x,y,z
x,-y,z
1/2+x,1/2+y,z
1/2-x,1/2-y,z
1/2+x,1/2-y,-z
1/2-x,1/2+y,-z
1/2-x,1/2-y,-z
1/2+x,1/2+y,-z
1/2-x,1/2+y,z
1/2+x,1/2-y,z
loop_
_atom_site_type_symbol
_atom_site_label
_atom_site_fract_x
_atom_site_fract_y
_atom_site_fract_z
Si Si1 0.419999 0.792856 0.174912
Si Si2 0.667300 0.292407 0.263326
Si Si3 0.832482 0.790337 0.636315
Si Si4 0.417838 0.786522 0.000000
Si Si5 0.833064 0.290251 0.911191
Si Si6 0.082494 0.212698 0.549686
O O1 0.500000 0.721366 0.174511
O O2 0.381734 0.769808 0.222818
O O3 0.370917 0.722950 0.134358
O O4 0.425562 0.000000 0.167355
O O5 0.661367 0.500000 0.264569
O O6 0.750000 0.250000 0.255120
O O7 0.647587 0.224262 0.313493
O O8 0.750000 0.750000 0.630203
O O9 0.875606 0.722832 0.593351
O O10 0.841265 0.000000 0.637115
O O11 0.375687 0.728502 0.955354
O O12 0.500000 0.732257 0.000000
O O13 0.417959 0.000000 0.000000
O O14 0.838370 0.500000 0.911130
O O15 0.750000 0.250000 0.912781
O O16 0.109060 0.269134 0.500000
O O17 0.000000 0.260046 0.553071
O O18 0.085636 0.000000 0.549944
#
# Coordination Sequence:
#
# PCOD9489180 Si02
#       6
#    16  16  16   8  16  16
#     4  10  21  36  53  75 103 133 167 208 252 297
#     4  10  20  34  52  73  99 132 168 206 249 297
#     4   9  18  31  48  71  97 124 157 198 241 287
#     4   9  17  32  55  79 102 131 168 206 244 291
#     4  10  20  34  54  78 103 133 168 205 246 294
#     4   8  14  26  45  68  93 122 157 196 237 282
#
# _framework density 20.551062000000002
#
# number of rings (size 3 to 8) (size 9 to 14) (size 15 to 20)
#    0.000    2.636    0.000    2.455    0.000    6.545 
#    0.000    1.818    0.000    2.727    0.000    1.273 
#    0.000    0.000    0.000    0.000    0.000    0.000 
#
# Total GULP energy -245547.428066 kJ/mol
# GULP energy per Si atom -5580.623365 kJ/mol
# Density = 2.050429 g / cm^3
# Si number density = 20.551062 Si / 1000 Ang^3
#
#
#
# Elastic Constant Matrix: (Units=GPa)
#
#
# Indices 1 2 3 4 5 6 
#
# 1 155.9845 1.6325 140.2323 0.0000 0.0000 0.0000
# 2 1.6325 37.6630 6.3611 0.0000 0.0000 0.0000
# 3 140.2323 6.3611 234.8151 0.0000 0.0000 0.0000
# 4 0.0000 0.0000 0.0000 8.7396 0.0000 0.0000
# 5 0.0000 0.0000 0.0000 0.0000 152.7894 0.0000
# 6 0.0000 0.0000 0.0000 0.0000 0.0000 18.4931
#
#
#
# Elastic Compliance Matrix: (Units=1/GPa)
#
#
# Indices 1 2 3 4 5 6 
#
# 1 0.013867 0.000801 -0.008303 0.000000 0.000000 0.000000
# 2 0.000801 0.026720 -0.001202 0.000000 0.000000 0.000000
# 3 -0.008303 -0.001202 0.009250 0.000000 0.000000 0.000000
# 4 0.000000 0.000000 0.000000 0.114422 0.000000 0.000000
# 5 0.000000 0.000000 0.000000 0.000000 0.006545 0.000000
# 6 0.000000 0.000000 0.000000 0.000000 0.000000 0.054074
#
#
# Mechanical properties :
#
#
# Convention : Reuss Voigt Hill
#
# Bulk Modulus (GPa) = 30.83737 80.54602 55.69169
# Shear Modulus (GPa) = 19.75538 54.68687 37.22113
#
# Velocity S-wave (km/s) = 3.10382 5.16411 4.26038
# Velocity P-wave (km/s) = 5.28041 8.65075 7.16653
#
# Compressibility (1/GPa) = 0.03242819
#
# Stress axis : x y z
#
# Youngs Moduli (GPa) = 72.11214 37.42570 108.10818
#
# Poissons Ratio (x) = -0.02999 0.89765
# Poissons Ratio (y) = -0.05778 0.12999
# Poissons Ratio (z) = 0.59877 0.04500
#
# Static dielectric constant tensor:
#      x y z
#    x 1.681810 0.000000 0.000000 
#    y 0.000000 1.777090 0.000000 
#    z 0.000000 0.000000 1.748620 
# 
# From -- ./inp_files/77959.got.cif
#   From: 2010.05.17/outbox.cif.g08.bks.cpg/sg65_39_cif.got.tgz:77959.got - 2010.06.03 17:01:31.
