data_PCOD9489695
_publ_section_title
;
Structure prediction by ZEFSAII (Michael W. Deem and Ramdas Pophale) SiO2 
 PCOD9489695
Probable space group: C M M M
;
_chemical_formula_sum "Si O2"
_cell_formula_units_Z 80
_cell_length_a 7.991810
_cell_length_b 19.694893
_cell_length_c 28.356876
_cell_angle_alpha 90.000000
_cell_angle_beta 90.000000
_cell_angle_gamma 90.000000
_cell_volume 4463.311112
_symmetry_space_group_name_H-M "C M M M"
_symmetry_group_IT_number 65
_symmetry_cell_setting 'orthorhombic'
loop_
_space_group_symop_operation_xyz
x,y,z
-x,-y,z
x,-y,-z
-x,y,-z
-x,-y,-z
x,y,-z
-x,y,z
x,-y,z
1/2+x,1/2+y,z
1/2-x,1/2-y,z
1/2+x,1/2-y,-z
1/2-x,1/2+y,-z
1/2-x,1/2-y,-z
1/2+x,1/2+y,-z
1/2-x,1/2+y,z
1/2+x,1/2-y,z
loop_
_atom_site_type_symbol
_atom_site_label
_atom_site_fract_x
_atom_site_fract_y
_atom_site_fract_z
Si Si1 0.298465 0.671538 0.793731
Si Si2 0.190214 0.580986 0.880333
Si Si3 0.201434 0.422810 0.601965
Si Si4 0.805978 0.582810 0.500000
Si Si5 0.000000 0.917582 0.053793
Si Si6 0.800829 0.827435 0.312636
O O1 0.500000 0.665368 0.796061
O O2 0.250000 0.750000 0.802559
O O3 0.219925 0.622520 0.832504
O O4 0.240432 0.654933 0.740305
O O5 0.209750 0.500000 0.871776
O O6 0.333350 0.602043 0.917482
O O7 0.000000 0.592201 0.897290
O O8 0.261890 0.500000 0.609626
O O9 0.267595 0.397471 0.550845
O O10 0.241084 0.376025 0.645998
O O11 0.000000 0.425883 0.597428
O O12 0.806225 0.500000 0.500000
O O13 0.000000 0.605418 0.500000
O O14 0.000000 0.000000 0.052173
O O15 0.000000 0.892863 0.000000
O O16 0.750000 0.750000 0.322217
O O17 0.000000 0.830745 0.311131
#
# Coordination Sequence:
#
# PCOD9489695 Si02
#       6
#    16  16  16   8   8  16
#     4  10  20  35  54  76 103 140 179 218 267 321
#     4  10  20  34  55  84 113 143 183 225 265 315
#     4   9  17  31  52  75  99 129 166 210 259 311
#     4   7  12  26  48  71  94 125 165 205 252 311
#     4   9  18  34  56  82 114 148 181 222 270 314
#     4  10  21  35  51  72 102 135 171 213 258 311
#
# _framework density 17.923912000000001
#
# number of rings (size 3 to 8) (size 9 to 14) (size 15 to 20)
#    0.000    2.600    1.000    2.400    0.000    4.000 
#    0.000    7.000    0.000    2.400    0.000    0.000 
#    0.000    0.000    0.000    0.000    0.000    0.000 
#
# Total GULP energy -222927.783100 kJ/mol
# GULP energy per Si atom -5573.194578 kJ/mol
# Density = 1.788312 g / cm^3
# Si number density = 17.923912 Si / 1000 Ang^3
#
#
#
# Elastic Constant Matrix: (Units=GPa)
#
#
# Indices 1 2 3 4 5 6 
#
# 1 76.9242 28.6703 56.1489 0.0000 0.0000 0.0000
# 2 28.6703 47.8230 75.8444 0.0000 0.0000 0.0000
# 3 56.1489 75.8444 178.2958 0.0000 0.0000 0.0000
# 4 0.0000 0.0000 0.0000 -34.6992 0.0000 0.0000
# 5 0.0000 0.0000 0.0000 0.0000 13.9145 0.0000
# 6 0.0000 0.0000 0.0000 0.0000 0.0000 21.0900
#
#
#
# Elastic Compliance Matrix: (Units=1/GPa)
#
#
# Indices 1 2 3 4 5 6 
#
# 1 0.017310 -0.005324 -0.003187 0.000000 0.000000 0.000000
# 2 -0.005324 0.065905 -0.026358 0.000000 0.000000 0.000000
# 3 -0.003187 -0.026358 0.017825 0.000000 0.000000 0.000000
# 4 0.000000 0.000000 0.000000 -0.028819 0.000000 0.000000
# 5 0.000000 0.000000 0.000000 0.000000 0.071868 0.000000
# 6 0.000000 0.000000 0.000000 0.000000 0.000000 0.047416
#
#
# Mechanical properties :
#
#
# Convention : Reuss Voigt Hill
#
# Bulk Modulus (GPa) = 31.94675 69.37448 50.66061
# Shear Modulus (GPa) = 18.40433 9.55302 13.97868
#
# Velocity S-wave (km/s) = 3.20785 2.31113 2.79568
# Velocity P-wave (km/s) = 5.61985 6.77575 6.22469
#
# Compressibility (1/GPa) = 0.03130209
#
# Stress axis : x y z
#
# Youngs Moduli (GPa) = 57.77011 15.17340 56.10193
#
# Poissons Ratio (x) = 0.08078 0.17878
# Poissons Ratio (y) = 0.30754 1.47876
# Poissons Ratio (z) = 0.18410 0.39995
#
# Static dielectric constant tensor:
#      x y z
#    x 1.643630 0.000000 0.000000 
#    y 0.000000 1.569820 0.000000 
#    z 0.000000 0.000000 1.632590 
# 
# From -- ./inp_files/67349.got.cif
#   From: 2010.05.17/outbox.cif.g08.bks.cpg/sg65_34_cif.got.tgz:67349.got - 2010.06.03 17:01:31.
