data_PCOD9489881
_publ_section_title
;
Structure prediction by ZEFSAII (Michael W. Deem and Ramdas Pophale) SiO2 
 PCOD9489881
Probable space group: C M M M
;
_chemical_formula_sum "Si O2"
_cell_formula_units_Z 96
_cell_length_a 9.014758
_cell_length_b 18.933411
_cell_length_c 32.185915
_cell_angle_alpha 90.000000
_cell_angle_beta 90.000000
_cell_angle_gamma 90.000000
_cell_volume 5493.495779
_symmetry_space_group_name_H-M "C M M M"
_symmetry_group_IT_number 65
_symmetry_cell_setting 'orthorhombic'
loop_
_space_group_symop_operation_xyz
x,y,z
-x,-y,z
x,-y,-z
-x,y,-z
-x,-y,-z
x,y,-z
-x,y,z
x,-y,z
1/2+x,1/2+y,z
1/2-x,1/2-y,z
1/2+x,1/2-y,-z
1/2-x,1/2+y,-z
1/2-x,1/2-y,-z
1/2+x,1/2+y,-z
1/2-x,1/2+y,z
1/2+x,1/2-y,z
loop_
_atom_site_type_symbol
_atom_site_label
_atom_site_fract_x
_atom_site_fract_y
_atom_site_fract_z
Si Si1 0.328231 0.413996 0.370304
Si Si2 0.177183 0.827328 0.119200
Si Si3 0.325843 0.915501 0.047992
Si Si4 0.321004 0.172678 0.204428
Si Si5 0.325566 0.085756 0.545545
Si Si6 0.822321 0.581926 0.285414
O O1 0.500000 0.395423 0.368916
O O2 0.316041 0.500000 0.370682
O O3 0.256742 0.388382 0.413366
O O4 0.248454 0.390488 0.328117
O O5 0.250000 0.750000 0.113461
O O6 0.224583 0.875121 0.080555
O O7 0.249535 0.856226 0.161888
O O8 0.000000 0.821609 0.123127
O O9 0.500000 0.898912 0.055728
O O10 0.309091 0.000000 0.051974
O O11 0.293051 0.896797 0.000000
O O12 0.500000 0.177078 0.200305
O O13 0.250000 0.250000 0.209948
O O14 0.284160 0.125978 0.244553
O O15 0.270531 0.109750 0.500000
O O16 0.500000 0.102107 0.548535
O O17 0.313741 0.000000 0.545492
O O18 0.777372 0.500000 0.279897
O O19 0.000000 0.583513 0.290113
#
# Coordination Sequence:
#
# PCOD9489881 Si02
#       6
#    16  16  16  16  16  16
#     4   9  16  24  36  57  85 115 147 189 238 281
#     4  11  22  36  55  78 105 136 170 209 251 296
#     4   9  19  37  59  81 107 139 172 207 249 296
#     4  10  20  35  54  74  98 129 164 204 249 294
#     4   8  13  21  33  49  73 110 152 188 225 275
#     4   9  18  32  49  68  91 123 161 196 234 286
#
# _framework density 17.475211000000002
#
# number of rings (size 3 to 8) (size 9 to 14) (size 15 to 20)
#    0.000    2.667    0.000    4.500    0.000    5.333 
#    0.000    4.167    0.000    0.000    0.000    0.000 
#    0.000    0.667    0.000    2.167    0.000    4.333 
#
# Total GULP energy -267537.130393 kJ/mol
# GULP energy per Si atom -5573.690217 kJ/mol
# Density = 1.743544 g / cm^3
# Si number density = 17.475211 Si / 1000 Ang^3
#
#
#
# Elastic Constant Matrix: (Units=GPa)
#
#
# Indices 1 2 3 4 5 6 
#
# 1 82.0372 26.5053 83.3885 0.0000 0.0000 0.0000
# 2 26.5053 19.2886 45.5956 0.0000 0.0000 0.0000
# 3 83.3885 45.5956 175.7727 0.0000 0.0000 0.0000
# 4 0.0000 0.0000 0.0000 -28.8257 0.0000 0.0000
# 5 0.0000 0.0000 0.0000 0.0000 26.8780 0.0000
# 6 0.0000 0.0000 0.0000 0.0000 0.0000 18.4589
#
#
#
# Elastic Compliance Matrix: (Units=1/GPa)
#
#
# Indices 1 2 3 4 5 6 
#
# 1 0.025450 -0.016626 -0.007761 0.000000 0.000000 0.000000
# 2 -0.016626 0.144890 -0.029697 0.000000 0.000000 0.000000
# 3 -0.007761 -0.029697 0.017075 0.000000 0.000000 0.000000
# 4 0.000000 0.000000 0.000000 -0.034691 0.000000 0.000000
# 5 0.000000 0.000000 0.000000 0.000000 0.037205 0.000000
# 6 0.000000 0.000000 0.000000 0.000000 0.000000 0.054174
#
#
# Mechanical properties :
#
#
# Convention : Reuss Voigt Hill
#
# Bulk Modulus (GPa) = 12.61885 65.34194 38.98039
# Shear Modulus (GPa) = 13.20353 11.40952 12.30652
#
# Velocity S-wave (km/s) = 2.75172 2.55796 2.65661
# Velocity P-wave (km/s) = 4.16325 6.79681 5.63601
#
# Compressibility (1/GPa) = 0.07924653
#
# Stress axis : x y z
#
# Youngs Moduli (GPa) = 39.29258 6.90178 58.56684
#
# Poissons Ratio (x) = 0.11475 0.45454
# Poissons Ratio (y) = 0.65328 1.73926
# Poissons Ratio (z) = 0.30495 0.20496
#
# Static dielectric constant tensor:
#      x y z
#    x 1.583020 0.000000 0.000000 
#    y 0.000000 1.582250 0.000000 
#    z 0.000000 0.000000 1.607480 
# 
# From -- ./inp_files/73157.got.cif
#   From: 2010.05.17/outbox.cif.g08.bks.cpg/sg65_37_cif.got.tgz:73157.got - 2010.06.03 17:01:31.
