data_PCOD9489555
_publ_section_title
;
Structure prediction by ZEFSAII (Michael W. Deem and Ramdas Pophale) SiO2 
 PCOD9489555
Probable space group: C M M M
;
_chemical_formula_sum "Si O2"
_cell_formula_units_Z 88
_cell_length_a 8.171855
_cell_length_b 18.474736
_cell_length_c 29.762040
_cell_angle_alpha 90.000000
_cell_angle_beta 90.000000
_cell_angle_gamma 90.000000
_cell_volume 4493.260410
_symmetry_space_group_name_H-M "C M M M"
_symmetry_group_IT_number 65
_symmetry_cell_setting 'orthorhombic'
loop_
_space_group_symop_operation_xyz
x,y,z
-x,-y,z
x,-y,-z
-x,y,-z
-x,-y,-z
x,y,-z
-x,y,z
x,-y,z
1/2+x,1/2+y,z
1/2-x,1/2-y,z
1/2+x,1/2-y,-z
1/2-x,1/2+y,-z
1/2-x,1/2-y,-z
1/2+x,1/2+y,-z
1/2-x,1/2+y,z
1/2+x,1/2-y,z
loop_
_atom_site_type_symbol
_atom_site_label
_atom_site_fract_x
_atom_site_fract_y
_atom_site_fract_z
Si Si1 0.299859 0.916391 0.000000
Si Si2 0.197774 0.333145 0.910359
Si Si3 0.803267 0.414523 0.548498
Si Si4 0.804144 0.167222 0.267353
Si Si5 0.196576 0.916666 0.644735
Si Si6 0.802427 0.417154 0.821464
O O1 0.246066 0.874778 0.955142
O O2 0.500000 0.916268 0.000000
O O3 0.248152 0.000000 0.000000
O O4 0.250000 0.250000 0.910815
O O5 0.256002 0.373517 0.865304
O O6 0.000000 0.335572 0.910243
O O7 0.746759 0.384448 0.500000
O O8 0.757453 0.500000 0.548581
O O9 0.740497 0.385130 0.595795
O O10 0.000000 0.410881 0.549094
O O11 0.750000 0.250000 0.264473
O O12 0.742103 0.129740 0.313243
O O13 0.746524 0.123009 0.224006
O O14 0.000000 0.165088 0.268208
O O15 0.000000 0.919545 0.647294
O O16 0.257877 0.000000 0.647730
O O17 0.743454 0.500000 0.821820
O O18 0.000000 0.418774 0.823485
#
# Coordination Sequence:
#
# PCOD9489555 Si02
#       6
#     8  16  16  16  16  16
#     4   9  17  32  55  79 104 139 182 224 264 307
#     4  10  20  34  54  80 109 141 177 217 262 314
#     4   8  14  25  43  70 102 132 163 202 249 301
#     4  11  23  38  55  76 104 138 176 217 263 315
#     4   9  18  32  50  73 100 130 166 209 256 306
#     4  10  21  37  57  81 107 136 174 218 263 315
#
# _framework density 19.584886000000001
#
# number of rings (size 3 to 8) (size 9 to 14) (size 15 to 20)
#    0.000    2.455    0.000    3.000    0.000    7.273 
#    0.000    3.636    0.000    2.727    0.000    0.000 
#    0.000    0.000    0.000    0.000    0.000    0.000 
#
# Total GULP energy -245511.055440 kJ/mol
# GULP energy per Si atom -5579.796715 kJ/mol
# Density = 1.954031 g / cm^3
# Si number density = 19.584886 Si / 1000 Ang^3
#
#
#
# Elastic Constant Matrix: (Units=GPa)
#
#
# Indices 1 2 3 4 5 6 
#
# 1 8.4088 10.6593 18.0959 0.0000 0.0000 0.0000
# 2 10.6593 151.0694 115.9281 0.0000 0.0000 0.0000
# 3 18.0959 115.9281 244.8059 0.0000 0.0000 0.0000
# 4 0.0000 0.0000 0.0000 23.6219 0.0000 0.0000
# 5 0.0000 0.0000 0.0000 0.0000 31.9929 0.0000
# 6 0.0000 0.0000 0.0000 0.0000 0.0000 18.8794
#
#
#
# Elastic Compliance Matrix: (Units=1/GPa)
#
#
# Indices 1 2 3 4 5 6 
#
# 1 0.142334 -0.003093 -0.009056 0.000000 0.000000 0.000000
# 2 -0.003093 0.010465 -0.004727 0.000000 0.000000 0.000000
# 3 -0.009056 -0.004727 0.006993 0.000000 0.000000 0.000000
# 4 0.000000 0.000000 0.000000 0.042334 0.000000 0.000000
# 5 0.000000 0.000000 0.000000 0.000000 0.031257 0.000000
# 6 0.000000 0.000000 0.000000 0.000000 0.000000 0.052968
#
#
# Mechanical properties :
#
#
# Convention : Reuss Voigt Hill
#
# Bulk Modulus (GPa) = 7.93409 77.07231 42.50320
# Shear Modulus (GPa) = 13.80769 32.20555 23.00662
#
# Velocity S-wave (km/s) = 2.65810 4.05953 3.43113
# Velocity P-wave (km/s) = 3.67159 7.83654 6.11931
#
# Compressibility (1/GPa) = 0.12603842
#
# Stress axis : x y z
#
# Youngs Moduli (GPa) = 7.02573 95.55380 143.00219
#
# Poissons Ratio (x) = 0.29556 1.29510
# Poissons Ratio (y) = 0.02173 0.67600
# Poissons Ratio (z) = 0.06363 0.45170
#
# Static dielectric constant tensor:
#      x y z
#    x 1.693670 0.000000 0.000000 
#    y 0.000000 2.314890 0.000000 
#    z 0.000000 0.000000 1.699800 
# 
# From -- ./inp_files/76665.got.cif
#   From: 2010.05.17/outbox.cif.g08.bks.cpg/sg65_39_cif.got.tgz:76665.got - 2010.06.03 17:01:31.
