data_PCOD9489358
_publ_section_title
;
Structure prediction by ZEFSAII (Michael W. Deem and Ramdas Pophale) SiO2 
 PCOD9489358
Probable space group: C M M M
;
_chemical_formula_sum "Si O2"
_cell_formula_units_Z 104
_cell_length_a 21.449736
_cell_length_b 8.824998
_cell_length_c 30.492791
_cell_angle_alpha 90.000000
_cell_angle_beta 90.000000
_cell_angle_gamma 90.000000
_cell_volume 5772.098638
_symmetry_space_group_name_H-M "C M M M"
_symmetry_group_IT_number 65
_symmetry_cell_setting 'orthorhombic'
loop_
_space_group_symop_operation_xyz
x,y,z
-x,-y,z
x,-y,-z
-x,y,-z
-x,-y,-z
x,y,-z
-x,y,z
x,-y,z
1/2+x,1/2+y,z
1/2-x,1/2-y,z
1/2+x,1/2-y,-z
1/2-x,1/2+y,-z
1/2-x,1/2-y,-z
1/2+x,1/2+y,-z
1/2-x,1/2+y,z
1/2+x,1/2-y,z
loop_
_atom_site_type_symbol
_atom_site_label
_atom_site_fract_x
_atom_site_fract_y
_atom_site_fract_z
Si Si1 0.570805 0.681577 0.607728
Si Si2 0.816381 0.179794 0.137183
Si Si3 0.320801 0.682463 0.766509
Si Si4 0.816696 0.680293 0.447784
Si Si5 0.500000 0.669486 0.947785
Si Si6 0.630393 0.819573 0.949957
Si Si7 0.928659 0.682187 0.294761
O O1 0.500000 0.715406 0.591725
O O2 0.576618 0.500000 0.611152
O O3 0.625160 0.746165 0.577177
O O4 0.576613 0.755094 0.655818
O O5 0.750000 0.250000 0.146343
O O6 0.848157 0.214239 0.184090
O O7 0.833451 0.249758 0.090492
O O8 0.816001 0.000000 0.131930
O O9 0.315525 0.500000 0.762373
O O10 0.250000 0.750000 0.760533
O O11 0.372112 0.748214 0.733346
O O12 0.822915 0.707737 0.500000
O O13 0.815931 0.500000 0.440347
O O14 0.750000 0.750000 0.433847
O O15 0.500000 0.500000 0.927896
O O16 0.560738 0.766117 0.938967
O O17 0.500000 0.649929 0.000000
O O18 0.635789 0.000000 0.949866
O O19 0.645978 0.767204 0.000000
O O20 0.923532 0.500000 0.294648
O O21 0.000000 0.720784 0.279569
#
# Coordination Sequence:
#
# PCOD9489358 Si02
#       7
#    16  16  16  16   8  16  16
#     4  10  21  37  58  84 115 151 190 235 286 339
#     4  10  21  37  56  78 105 139 175 218 266 317
#     4  10  21  38  60  84 111 145 184 228 277 334
#     4  10  21  37  57  82 115 154 196 243 290 337
#     4   9  17  31  51  73  99 131 167 209 255 303
#     4  10  20  34  53  77 105 138 175 216 262 314
#     4  10  21  38  60  86 116 148 185 232 283 336
#
# _framework density 18.017710999999998
#
# number of rings (size 3 to 8) (size 9 to 14) (size 15 to 20)
#    0.000    2.077    0.000    3.000    0.000    7.692 
#    1.385    4.615    0.000    0.000    0.000    0.000 
#    0.000    0.000    0.000    0.000    0.000    0.000 
#
# Total GULP energy -289616.475198 kJ/mol
# GULP energy per Si atom -5569.547600 kJ/mol
# Density = 1.797670 g / cm^3
# Si number density = 18.017711 Si / 1000 Ang^3
#
#
#
# Elastic Constant Matrix: (Units=GPa)
#
#
# Indices 1 2 3 4 5 6 
#
# 1 122.2655 55.7965 76.9123 0.0000 0.0000 0.0000
# 2 55.7965 80.8676 55.6355 0.0000 0.0000 0.0000
# 3 76.9123 55.6355 87.8984 0.0000 0.0000 0.0000
# 4 0.0000 0.0000 0.0000 16.3777 0.0000 0.0000
# 5 0.0000 0.0000 0.0000 0.0000 82.3093 0.0000
# 6 0.0000 0.0000 0.0000 0.0000 0.0000 38.8080
#
#
#
# Elastic Compliance Matrix: (Units=1/GPa)
#
#
# Indices 1 2 3 4 5 6 
#
# 1 0.018568 -0.002894 -0.014415 0.000000 0.000000 0.000000
# 2 -0.002894 0.022355 -0.011618 0.000000 0.000000 0.000000
# 3 -0.014415 -0.011618 0.031344 0.000000 0.000000 0.000000
# 4 0.000000 0.000000 0.000000 0.061059 0.000000 0.000000
# 5 0.000000 0.000000 0.000000 0.000000 0.012149 0.000000
# 6 0.000000 0.000000 0.000000 0.000000 0.000000 0.025768
#
#
# Mechanical properties :
#
#
# Convention : Reuss Voigt Hill
#
# Bulk Modulus (GPa) = 69.38119 74.19114 71.78616
# Shear Modulus (GPa) = 21.37658 34.34480 27.86069
#
# Velocity S-wave (km/s) = 3.44818 4.37071 3.93656
# Velocity P-wave (km/s) = 7.37862 8.16927 7.78399
#
# Compressibility (1/GPa) = 0.01441313
#
# Stress axis : x y z
#
# Youngs Moduli (GPa) = 53.85737 44.73204 31.90405
#
# Poissons Ratio (x) = 0.12944 0.45991
# Poissons Ratio (y) = 0.15584 0.37066
# Poissons Ratio (z) = 0.77637 0.51969
#
# Static dielectric constant tensor:
#      x y z
#    x 1.592790 0.000000 0.000000 
#    y 0.000000 1.637380 0.000000 
#    z 0.000000 0.000000 1.633430 
# 
# From -- ./inp_files/75474.got.cif
#   From: 2010.05.17/outbox.cif.g08.bks.cpg/sg65_38_cif.got.tgz:75474.got - 2010.06.03 17:01:31.
