data_PCOD9489531
_publ_section_title
;
Structure prediction by ZEFSAII (Michael W. Deem and Ramdas Pophale) SiO2 
 PCOD9489531
Probable space group: C M M M
;
_chemical_formula_sum "Si O2"
_cell_formula_units_Z 96
_cell_length_a 25.739225
_cell_length_b 24.139627
_cell_length_c 8.749574
_cell_angle_alpha 90.000000
_cell_angle_beta 90.000000
_cell_angle_gamma 90.000000
_cell_volume 5436.419105
_symmetry_space_group_name_H-M "C M M M"
_symmetry_group_IT_number 65
_symmetry_cell_setting 'orthorhombic'
loop_
_space_group_symop_operation_xyz
x,y,z
-x,-y,z
x,-y,-z
-x,y,-z
-x,-y,-z
x,y,-z
-x,y,z
x,-y,z
1/2+x,1/2+y,z
1/2-x,1/2-y,z
1/2+x,1/2-y,-z
1/2-x,1/2+y,-z
1/2-x,1/2-y,-z
1/2+x,1/2+y,-z
1/2-x,1/2+y,z
1/2+x,1/2-y,z
loop_
_atom_site_type_symbol
_atom_site_label
_atom_site_fract_x
_atom_site_fract_y
_atom_site_fract_z
Si Si1 0.805926 0.500000 0.682316
Si Si2 0.345215 0.621067 0.184427
Si Si3 0.253661 0.184957 0.317378
Si Si4 0.310328 0.500000 0.184094
Si Si5 0.060936 0.681950 0.682105
Si Si6 0.559754 0.697540 0.816002
Si Si7 0.847051 0.386029 0.818237
O O1 0.806111 0.500000 0.500000
O O2 0.746548 0.500000 0.741436
O O3 0.833649 0.445062 0.744600
O O4 0.297880 0.653936 0.260645
O O5 0.339996 0.556462 0.225619
O O6 0.399236 0.650324 0.227159
O O7 0.339831 0.625122 0.000000
O O8 0.258947 0.178877 0.500000
O O9 0.250000 0.250000 0.280926
O O10 0.302778 0.156619 0.237526
O O11 0.303323 0.500000 0.000000
O O12 0.068263 0.679247 0.500000
O O13 0.073862 0.743871 0.740012
O O14 0.098226 0.638286 0.762799
O O15 0.000000 0.672652 0.716418
O O16 0.500000 0.684365 0.774692
O O17 0.561850 0.704377 0.000000
O O18 0.845461 0.390720 0.000000
#
# Coordination Sequence:
#
# PCOD9489531 Si02
#       7
#     8  16  16   8  16  16  16
#     4  12  24  40  61  84 113 151 193 235 284 339
#     4  10  20  34  54  79 111 149 192 239 285 339
#     4  11  23  36  53  81 115 147 185 236 289 344
#     4  10  20  36  55  79 111 152 195 236 284 338
#     4  10  21  38  60  86 116 150 188 234 286 338
#     4   9  18  34  56  83 115 153 194 236 287 344
#     4  12  24  39  60  85 115 150 190 234 283 341
#
# _framework density 17.658684000000001
#
# number of rings (size 3 to 8) (size 9 to 14) (size 15 to 20)
#    0.000    1.500    1.667    4.250    0.000    5.667 
#    0.000    0.833    0.000    5.000    0.000    0.000 
#    0.000    4.667    0.000    0.000    0.000    0.000 
#
# Total GULP energy -268240.020729 kJ/mol
# GULP energy per Si atom -5588.333765 kJ/mol
# Density = 1.761849 g / cm^3
# Si number density = 17.658684 Si / 1000 Ang^3
#
#
#
# Elastic Constant Matrix: (Units=GPa)
#
#
# Indices 1 2 3 4 5 6 
#
# 1 92.8819 77.2825 47.0211 0.0000 0.0000 0.0000
# 2 77.2825 152.6172 65.1040 0.0000 0.0000 0.0000
# 3 47.0211 65.1040 62.2542 0.0000 0.0000 0.0000
# 4 0.0000 0.0000 0.0000 27.1875 0.0000 0.0000
# 5 0.0000 0.0000 0.0000 0.0000 23.0591 0.0000
# 6 0.0000 0.0000 0.0000 0.0000 0.0000 13.5820
#
#
#
# Elastic Compliance Matrix: (Units=1/GPa)
#
#
# Indices 1 2 3 4 5 6 
#
# 1 0.020825 -0.006925 -0.008487 0.000000 0.000000 0.000000
# 2 -0.006925 0.014132 -0.009549 0.000000 0.000000 0.000000
# 3 -0.008487 -0.009549 0.032460 0.000000 0.000000 0.000000
# 4 0.000000 0.000000 0.000000 0.036782 0.000000 0.000000
# 5 0.000000 0.000000 0.000000 0.000000 0.043367 0.000000
# 6 0.000000 0.000000 0.000000 0.000000 0.000000 0.073627
#
#
# Mechanical properties :
#
#
# Convention : Reuss Voigt Hill
#
# Bulk Modulus (GPa) = 57.15989 76.28538 66.72263
# Shear Modulus (GPa) = 18.05406 20.65545 19.35475
#
# Velocity S-wave (km/s) = 3.20095 3.42380 3.31425
# Velocity P-wave (km/s) = 6.78977 7.67617 7.24654
#
# Compressibility (1/GPa) = 0.01749479
#
# Stress axis : x y z
#
# Youngs Moduli (GPa) = 48.01973 70.75999 30.80721
#
# Poissons Ratio (x) = 0.48999 0.26148
# Poissons Ratio (y) = 0.33252 0.29418
# Poissons Ratio (z) = 0.40757 0.67568
#
# Static dielectric constant tensor:
#      x y z
#    x 1.585190 0.000000 0.000000 
#    y 0.000000 1.580690 0.000000 
#    z 0.000000 0.000000 1.593790 
# 
# From -- ./inp_files/14436.got.cif
#   From: 2010.05.17/outbox.cif.g08.bks.cpg/sg65_8_cif.got.tgz:14436.got - 2010.06.03 17:01:31.
