data_PCOD9489104
_publ_section_title
;
Structure prediction by ZEFSAII (Michael W. Deem and Ramdas Pophale) SiO2 
 PCOD9489104
Probable space group: C M M M
;
_chemical_formula_sum "Si O2"
_cell_formula_units_Z 104
_cell_length_a 8.424444
_cell_length_b 20.653770
_cell_length_c 33.883215
_cell_angle_alpha 90.000000
_cell_angle_beta 90.000000
_cell_angle_gamma 90.000000
_cell_volume 5895.561793
_symmetry_space_group_name_H-M "C M M M"
_symmetry_group_IT_number 65
_symmetry_cell_setting 'orthorhombic'
loop_
_space_group_symop_operation_xyz
x,y,z
-x,-y,z
x,-y,-z
-x,y,-z
-x,-y,-z
x,y,-z
-x,y,z
x,-y,z
1/2+x,1/2+y,z
1/2-x,1/2-y,z
1/2+x,1/2-y,-z
1/2-x,1/2+y,-z
1/2-x,1/2-y,-z
1/2+x,1/2+y,-z
1/2-x,1/2+y,z
1/2+x,1/2-y,z
loop_
_atom_site_type_symbol
_atom_site_label
_atom_site_fract_x
_atom_site_fract_y
_atom_site_fract_z
Si Si1 0.682625 0.921576 0.500000
Si Si2 0.808045 0.321491 0.737610
Si Si3 0.810806 0.074517 0.415108
Si Si4 0.193612 0.425984 0.801179
Si Si5 0.191937 0.322008 0.954901
Si Si6 0.806357 0.574087 0.890908
Si Si7 0.310202 0.178429 0.647223
O O1 0.500000 0.901150 0.500000
O O2 0.762497 0.902104 0.541069
O O3 0.689132 0.000000 0.500000
O O4 0.750000 0.250000 0.748697
O O5 0.751359 0.375302 0.768482
O O6 0.755888 0.334066 0.692432
O O7 0.000000 0.321776 0.737893
O O8 0.746696 0.123004 0.382251
O O9 0.000000 0.072967 0.412859
O O10 0.751919 0.000000 0.409942
O O11 0.242317 0.500000 0.792850
O O12 0.242132 0.409519 0.846035
O O13 0.000000 0.425368 0.800747
O O14 0.250000 0.250000 0.944955
O O15 0.248667 0.374949 0.923469
O O16 0.000000 0.322070 0.954391
O O17 0.242537 0.336441 0.000000
O O18 0.757885 0.500000 0.899261
O O19 0.000000 0.574674 0.891383
O O20 0.500000 0.179582 0.647114
O O21 0.250000 0.250000 0.635881
#
# Coordination Sequence:
#
# PCOD9489104 Si02
#       7
#     8  16  16  16  16  16  16
#     4   9  17  31  52  77 104 133 166 203 241 283
#     4   9  18  31  48  69  92 120 153 190 231 277
#     4  10  20  34  53  77 104 133 165 201 242 287
#     4   8  14  26  44  66  91 117 148 188 231 273
#     4   9  17  28  42  62  88 116 147 185 228 273
#     4   8  14  25  42  64  88 114 147 188 230 270
#     4  10  20  34  51  71  98 130 163 200 242 287
#
# _framework density 17.640388999999999
#
# number of rings (size 3 to 8) (size 9 to 14) (size 15 to 20)
#    0.000    3.000    0.000    2.077    0.000    4.000 
#    0.000    3.462    0.000    0.923    0.000    4.308 
#    0.000    0.000    0.000    0.000    0.000    0.000 
#
# Total GULP energy -289776.260021 kJ/mol
# GULP energy per Si atom -5572.620385 kJ/mol
# Density = 1.760024 g / cm^3
# Si number density = 17.640389 Si / 1000 Ang^3
#
#
#
# Elastic Constant Matrix: (Units=GPa)
#
#
# Indices 1 2 3 4 5 6 
#
# 1 15.2389 18.9802 20.5354 0.0000 0.0000 0.0000
# 2 18.9802 137.7479 128.2390 0.0000 0.0000 0.0000
# 3 20.5354 128.2390 149.6646 0.0000 0.0000 0.0000
# 4 0.0000 0.0000 0.0000 -416.7428 0.0000 0.0000
# 5 0.0000 0.0000 0.0000 0.0000 10.5093 0.0000
# 6 0.0000 0.0000 0.0000 0.0000 0.0000 24.5165
#
#
#
# Elastic Compliance Matrix: (Units=1/GPa)
#
#
# Indices 1 2 3 4 5 6 
#
# 1 0.080955 -0.004022 -0.007661 0.000000 0.000000 0.000000
# 2 -0.004022 0.036084 -0.030367 0.000000 0.000000 0.000000
# 3 -0.007661 -0.030367 0.033752 0.000000 0.000000 0.000000
# 4 0.000000 0.000000 0.000000 -0.002400 0.000000 0.000000
# 5 0.000000 0.000000 0.000000 0.000000 0.095154 0.000000
# 6 0.000000 0.000000 0.000000 0.000000 0.000000 0.040789
#
#
# Mechanical properties :
#
#
# Convention : Reuss Voigt Hill
#
# Bulk Modulus (GPa) = 14.99446 70.90673 42.95059
# Shear Modulus (GPa) = 12.79867 -67.35027 -27.27580
#
# Velocity S-wave (km/s) = 2.69649 -6.18567 -3.93646
# Velocity P-wave (km/s) = 4.26770 3.27623 1.93386
#
# Compressibility (1/GPa) = 0.06669131
#
# Stress axis : x y z
#
# Youngs Moduli (GPa) = 12.35248 27.71295 29.62768
#
# Poissons Ratio (x) = 0.11147 0.22699
# Poissons Ratio (y) = 0.04968 0.89969
# Poissons Ratio (z) = 0.09464 0.84155
#
# Static dielectric constant tensor:
#      x y z
#    x 1.608250 0.000000 0.000000 
#    y 0.000000 1.578080 0.000000 
#    z 0.000000 0.000000 1.603210 
# 
# From -- ./inp_files/76837.got.cif
#   From: 2010.05.17/outbox.cif.g08.bks.cpg/sg65_39_cif.got.tgz:76837.got - 2010.06.03 17:01:31.
