data_PCOD9489366
_publ_section_title
;
Structure prediction by ZEFSAII (Michael W. Deem and Ramdas Pophale) SiO2 
 PCOD9489366
Probable space group: C M M M
;
_chemical_formula_sum "Si O2"
_cell_formula_units_Z 80
_cell_length_a 15.566631
_cell_length_b 16.150283
_cell_length_c 15.294032
_cell_angle_alpha 90.000000
_cell_angle_beta 90.000000
_cell_angle_gamma 90.000000
_cell_volume 3845.003701
_symmetry_space_group_name_H-M "C M M M"
_symmetry_group_IT_number 65
_symmetry_cell_setting 'orthorhombic'
loop_
_space_group_symop_operation_xyz
x,y,z
-x,-y,z
x,-y,-z
-x,y,-z
-x,-y,-z
x,y,-z
-x,y,z
x,-y,z
1/2+x,1/2+y,z
1/2-x,1/2-y,z
1/2+x,1/2-y,-z
1/2-x,1/2+y,-z
1/2-x,1/2-y,-z
1/2+x,1/2+y,-z
1/2-x,1/2+y,z
1/2+x,1/2-y,z
loop_
_atom_site_type_symbol
_atom_site_label
_atom_site_fract_x
_atom_site_fract_y
_atom_site_fract_z
Si Si1 0.400391 0.099745 0.237795
Si Si2 0.839207 0.700250 0.402714
Si Si3 0.243443 0.601479 0.899532
Si Si4 0.402101 0.596643 0.787589
Si Si5 0.597177 0.623996 0.594385
O O1 0.500000 0.124434 0.226486
O O2 0.362589 0.138572 0.326247
O O3 0.338873 0.125856 0.158037
O O4 0.397695 0.000000 0.243349
O O5 0.837553 0.662568 0.500000
O O6 0.750000 0.750000 0.389168
O O7 0.904676 0.776820 0.403574
O O8 0.245545 0.500000 0.898587
O O9 0.330606 0.632326 0.852243
O O10 0.238559 0.627702 0.000000
O O11 0.500000 0.631796 0.789484
O O12 0.410329 0.500000 0.810189
O O13 0.366059 0.599155 0.688075
O O14 0.636924 0.600527 0.500000
O O15 0.500000 0.592013 0.594544
#
# Coordination Sequence:
#
# PCOD9489366 Si02
#       5
#    16  16  16  16  16
#     4  10  21  36  56  83 112 144 185 232 279 325
#     4  10  20  34  53  77 106 142 181 218 262 321
#     4   9  18  33  52  74 102 135 174 226 284 336
#     4   9  17  29  48  76 107 140 182 230 277 326
#     4   9  17  29  46  69  99 136 173 209 256 316
#
# _framework density 20.806222999999999
#
# number of rings (size 3 to 8) (size 9 to 14) (size 15 to 20)
#    0.000    2.600    0.000    1.800    0.000    2.800 
#    0.000    7.000    0.000   12.600    0.000    5.600 
#    0.000    0.000    0.000    0.000    0.000    0.000 
#
# Total GULP energy -222950.480845 kJ/mol
# GULP energy per Si atom -5573.762021 kJ/mol
# Density = 2.075887 g / cm^3
# Si number density = 20.806223 Si / 1000 Ang^3
#
#
#
# Elastic Constant Matrix: (Units=GPa)
#
#
# Indices 1 2 3 4 5 6 
#
# 1 148.5463 18.5848 107.6899 0.0000 0.0000 0.0000
# 2 18.5848 17.0191 23.3608 0.0000 0.0000 0.0000
# 3 107.6899 23.3608 211.5968 0.0000 0.0000 0.0000
# 4 0.0000 0.0000 0.0000 44.9963 0.0000 0.0000
# 5 0.0000 0.0000 0.0000 0.0000 7.5543 0.0000
# 6 0.0000 0.0000 0.0000 0.0000 0.0000 12.3469
#
#
#
# Elastic Compliance Matrix: (Units=1/GPa)
#
#
# Indices 1 2 3 4 5 6 
#
# 1 0.011033 -0.005116 -0.005050 0.000000 0.000000 0.000000
# 2 -0.005116 0.071624 -0.005304 0.000000 0.000000 0.000000
# 3 -0.005050 -0.005304 0.007882 0.000000 0.000000 0.000000
# 4 0.000000 0.000000 0.000000 0.022224 0.000000 0.000000
# 5 0.000000 0.000000 0.000000 0.000000 0.132374 0.000000
# 6 0.000000 0.000000 0.000000 0.000000 0.000000 0.080992
#
#
# Mechanical properties :
#
#
# Convention : Reuss Voigt Hill
#
# Bulk Modulus (GPa) = 16.77875 75.15924 45.96900
# Shear Modulus (GPa) = 13.26481 28.14795 20.70638
#
# Velocity S-wave (km/s) = 2.52770 3.68212 3.15810
# Velocity P-wave (km/s) = 4.07441 7.36744 5.95315
#
# Compressibility (1/GPa) = 0.05959918
#
# Stress axis : x y z
#
# Youngs Moduli (GPa) = 90.63417 13.96171 126.87272
#
# Poissons Ratio (x) = 0.07143 0.64077
# Poissons Ratio (y) = 0.46368 0.67291
# Poissons Ratio (z) = 0.45775 0.07405
#
# Static dielectric constant tensor:
#      x y z
#    x 1.822560 0.000000 0.000000 
#    y 0.000000 1.755690 0.000000 
#    z 0.000000 0.000000 1.746000 
# 
# From -- ./inp_files/39995.got.cif
#   From: 2010.05.17/outbox.cif.g08.bks.cpg/sg65_20_cif.got.tgz:39995.got - 2010.06.03 17:01:31.
