data_PCOD9489723
_publ_section_title
;
Structure prediction by ZEFSAII (Michael W. Deem and Ramdas Pophale) SiO2 
 PCOD9489723
Probable space group: C M M M
;
_chemical_formula_sum "Si O2"
_cell_formula_units_Z 72
_cell_length_a 10.495224
_cell_length_b 14.284462
_cell_length_c 24.763115
_cell_angle_alpha 90.000000
_cell_angle_beta 90.000000
_cell_angle_gamma 90.000000
_cell_volume 3712.452236
_symmetry_space_group_name_H-M "C M M M"
_symmetry_group_IT_number 65
_symmetry_cell_setting 'orthorhombic'
loop_
_space_group_symop_operation_xyz
x,y,z
-x,-y,z
x,-y,-z
-x,y,-z
-x,-y,-z
x,y,-z
-x,y,z
x,-y,z
1/2+x,1/2+y,z
1/2-x,1/2-y,z
1/2+x,1/2-y,-z
1/2-x,1/2+y,-z
1/2-x,1/2-y,-z
1/2+x,1/2+y,-z
1/2-x,1/2+y,z
1/2+x,1/2-y,z
loop_
_atom_site_type_symbol
_atom_site_label
_atom_site_fract_x
_atom_site_fract_y
_atom_site_fract_z
Si Si1 0.148665 0.613986 0.440647
Si Si2 0.500000 0.612896 0.732313
Si Si3 0.500000 0.265770 0.837418
Si Si4 0.756836 0.386677 0.325948
Si Si5 0.653346 0.889019 0.000000
Si Si6 0.500000 0.111847 0.252019
Si Si7 0.750000 0.250000 0.090389
O O1 0.195933 0.643298 0.500000
O O2 0.150582 0.500000 0.440414
O O3 0.222093 0.645000 0.387335
O O4 0.000000 0.640902 0.435634
O O5 0.500000 0.500000 0.734471
O O6 0.500000 0.654498 0.791925
O O7 0.625735 0.644782 0.700582
O O8 0.500000 0.169229 0.803235
O O9 0.373211 0.271180 0.873299
O O10 0.752822 0.500000 0.327805
O O11 0.876088 0.364193 0.287685
O O12 0.713026 0.836878 0.051740
O O13 0.500000 0.874495 0.000000
O O14 0.677482 0.000000 0.000000
O O15 0.500000 0.000000 0.242519
#
# Coordination Sequence:
#
# PCOD9489723 Si02
#       7
#    16   8   8  16   8   8   8
#     4   8  12  20  40  70  98 126 173 240 300 347
#     4  10  22  36  50  72 113 159 192 231 288 348
#     4  12  24  39  60  90 127 160 198 244 296 332
#     4   9  16  30  48  71 104 143 188 238 291 354
#     4  10  22  45  74  99 128 171 205 236 296 352
#     4  10  20  34  56  82 109 149 200 241 284 350
#     4  11  24  42  66 100 130 158 201 256 284 342
#
# _framework density 19.394188
#
# number of rings (size 3 to 8) (size 9 to 14) (size 15 to 20)
#    0.000    2.333    2.222    2.000    0.000    1.778 
#    0.000    1.111    0.000    3.333    0.000    4.667 
#    0.000    0.000    0.000    0.000    0.000    0.000 
#
# Total GULP energy -201023.121157 kJ/mol
# GULP energy per Si atom -5583.975588 kJ/mol
# Density = 1.935005 g / cm^3
# Si number density = 19.394188 Si / 1000 Ang^3
#
#
#
# Elastic Constant Matrix: (Units=GPa)
#
#
# Indices 1 2 3 4 5 6 
#
# 1 177.9731 42.1319 114.1665 0.0000 0.0000 0.0000
# 2 42.1319 108.2894 51.3466 0.0000 0.0000 0.0000
# 3 114.1665 51.3466 195.1826 0.0000 0.0000 0.0000
# 4 0.0000 0.0000 0.0000 34.5246 0.0000 0.0000
# 5 0.0000 0.0000 0.0000 0.0000 112.1717 0.0000
# 6 0.0000 0.0000 0.0000 0.0000 0.0000 -0.1347
#
#
#
# Elastic Compliance Matrix: (Units=1/GPa)
#
#
# Indices 1 2 3 4 5 6 
#
# 1 0.009120 -0.001164 -0.005028 0.000000 0.000000 0.000000
# 2 -0.001164 0.010699 -0.002134 0.000000 0.000000 0.000000
# 3 -0.005028 -0.002134 0.008626 0.000000 0.000000 0.000000
# 4 0.000000 0.000000 0.000000 0.028965 0.000000 0.000000
# 5 0.000000 0.000000 0.000000 0.000000 0.008915 0.000000
# 6 0.000000 0.000000 0.000000 0.000000 0.000000 -7.422296
#
#
# Mechanical properties :
#
#
# Convention : Reuss Voigt Hill
#
# Bulk Modulus (GPa) = 84.79698 99.63725 92.21712
# Shear Modulus (GPa) = -0.68163 47.56563 23.44200
#
# Velocity S-wave (km/s) = -0.59348 4.95772 3.48043
# Velocity P-wave (km/s) = 6.58393 9.17923 7.98769
#
# Compressibility (1/GPa) = 0.01179287
#
# Stress axis : x y z
#
# Youngs Moduli (GPa) = 109.65038 93.46534 115.93099
#
# Poissons Ratio (x) = 0.10880 0.58292
# Poissons Ratio (y) = 0.12764 0.24736
# Poissons Ratio (z) = 0.55134 0.19943
#
# Static dielectric constant tensor:
#      x y z
#    x 1.647570 0.000000 0.000000 
#    y 0.000000 1.727420 0.000000 
#    z 0.000000 0.000000 1.657610 
# 
# From -- ./inp_files/72668.got.cif
#   From: 2010.05.17/outbox.cif.g08.bks.cpg/sg65_37_cif.got.tgz:72668.got - 2010.06.03 17:01:31.
