data_PCOD9489452
_publ_section_title
;
Structure prediction by ZEFSAII (Michael W. Deem and Ramdas Pophale) SiO2 
 PCOD9489452
Probable space group: C M M M
;
_chemical_formula_sum "Si O2"
_cell_formula_units_Z 72
_cell_length_a 9.197286
_cell_length_b 15.145234
_cell_length_c 28.047904
_cell_angle_alpha 90.000000
_cell_angle_beta 90.000000
_cell_angle_gamma 90.000000
_cell_volume 3906.934152
_symmetry_space_group_name_H-M "C M M M"
_symmetry_group_IT_number 65
_symmetry_cell_setting 'orthorhombic'
loop_
_space_group_symop_operation_xyz
x,y,z
-x,-y,z
x,-y,-z
-x,y,-z
-x,-y,-z
x,y,-z
-x,y,z
x,-y,z
1/2+x,1/2+y,z
1/2-x,1/2-y,z
1/2+x,1/2-y,-z
1/2-x,1/2+y,-z
1/2-x,1/2-y,-z
1/2+x,1/2+y,-z
1/2-x,1/2+y,z
1/2+x,1/2-y,z
loop_
_atom_site_type_symbol
_atom_site_label
_atom_site_fract_x
_atom_site_fract_y
_atom_site_fract_z
Si Si1 0.174550 0.154721 0.751373
Si Si2 0.174991 0.500000 0.074787
Si Si3 0.164051 0.394957 0.552275
Si Si4 0.824699 0.653275 0.000000
Si Si5 0.175642 0.000000 0.176977
Si Si6 0.827265 0.156359 0.646612
O O1 0.250000 0.250000 0.756470
O O2 0.217307 0.086152 0.792211
O O3 0.205521 0.114550 0.698482
O O4 0.000000 0.167413 0.753482
O O5 0.212588 0.588866 0.044760
O O6 0.251616 0.500000 0.125560
O O7 0.000000 0.500000 0.079647
O O8 0.215185 0.362252 0.500000
O O9 0.151780 0.500000 0.548449
O O10 0.264264 0.380491 0.597644
O O11 0.000000 0.359241 0.560508
O O12 0.750000 0.750000 0.000000
O O13 0.000000 0.665441 0.000000
O O14 0.000000 0.000000 0.172608
O O15 0.750000 0.250000 0.650676
O O16 0.000000 0.162849 0.642597
#
# Coordination Sequence:
#
# PCOD9489452 Si02
#       6
#    16   8  16   8   8  16
#     4   9  20  37  55  77 109 143 181 227 276 327
#     4   9  20  38  56  82 118 151 189 233 272 324
#     4   9  19  35  52  72 100 130 162 207 262 320
#     4   9  19  37  60  84 116 155 191 231 278 320
#     4  10  21  37  57  82 113 151 186 228 280 323
#     4  10  20  34  54  75  99 131 170 215 263 319
#
# _framework density 18.428771999999999
#
# number of rings (size 3 to 8) (size 9 to 14) (size 15 to 20)
#    0.000    2.667    0.000    2.000    1.556    4.889 
#    0.000    6.667    0.000    0.000    0.000    0.000 
#    0.000    0.000    0.000    0.000    0.000    0.000 
#
# Total GULP energy -200464.768477 kJ/mol
# GULP energy per Si atom -5568.465791 kJ/mol
# Density = 1.838683 g / cm^3
# Si number density = 18.428772 Si / 1000 Ang^3
#
#
#
# Elastic Constant Matrix: (Units=GPa)
#
#
# Indices 1 2 3 4 5 6 
#
# 1 48.8184 40.3009 74.2534 0.0000 0.0000 0.0000
# 2 40.3009 108.6655 82.2152 0.0000 0.0000 0.0000
# 3 74.2534 82.2152 209.5327 0.0000 0.0000 0.0000
# 4 0.0000 0.0000 0.0000 26.0620 0.0000 0.0000
# 5 0.0000 0.0000 0.0000 0.0000 37.0911 0.0000
# 6 0.0000 0.0000 0.0000 0.0000 0.0000 25.7868
#
#
#
# Elastic Compliance Matrix: (Units=1/GPa)
#
#
# Indices 1 2 3 4 5 6 
#
# 1 0.047909 -0.007001 -0.014231 0.000000 0.000000 0.000000
# 2 -0.007001 0.014111 -0.003056 0.000000 0.000000 0.000000
# 3 -0.014231 -0.003056 0.011015 0.000000 0.000000 0.000000
# 4 0.000000 0.000000 0.000000 0.038370 0.000000 0.000000
# 5 0.000000 0.000000 0.000000 0.000000 0.026961 0.000000
# 6 0.000000 0.000000 0.000000 0.000000 0.000000 0.038779
#
#
# Mechanical properties :
#
#
# Convention : Reuss Voigt Hill
#
# Bulk Modulus (GPa) = 40.88457 84.50620 62.69538
# Shear Modulus (GPa) = 21.37915 29.13779 25.25847
#
# Velocity S-wave (km/s) = 3.40971 3.98062 3.70618
# Velocity P-wave (km/s) = 6.14287 8.19038 7.23938
#
# Compressibility (1/GPa) = 0.02445911
#
# Stress axis : x y z
#
# Youngs Moduli (GPa) = 20.87301 70.86642 90.78934
#
# Poissons Ratio (x) = 0.49615 1.29199
# Poissons Ratio (y) = 0.14614 0.27743
# Poissons Ratio (z) = 0.29704 0.21655
#
# Static dielectric constant tensor:
#      x y z
#    x 1.626450 0.000000 0.000000 
#    y 0.000000 1.631880 0.000000 
#    z 0.000000 0.000000 1.685930 
# 
# From -- ./inp_files/76381.got.cif
#   From: 2010.05.17/outbox.cif.g08.bks.cpg/sg65_39_cif.got.tgz:76381.got - 2010.06.03 17:01:31.
