data_PCOD9489762
_publ_section_title
;
Structure prediction by ZEFSAII (Michael W. Deem and Ramdas Pophale) SiO2 
 PCOD9489762
Probable space group: C M M M
;
_chemical_formula_sum "Si O2"
_cell_formula_units_Z 100
_cell_length_a 7.812371
_cell_length_b 29.732798
_cell_length_c 22.302667
_cell_angle_alpha 90.000000
_cell_angle_beta 90.000000
_cell_angle_gamma 90.000000
_cell_volume 5180.544870
_symmetry_space_group_name_H-M "C M M M"
_symmetry_group_IT_number 65
_symmetry_cell_setting 'orthorhombic'
loop_
_space_group_symop_operation_xyz
x,y,z
-x,-y,z
x,-y,-z
-x,y,-z
-x,-y,-z
x,y,-z
-x,y,z
x,-y,z
1/2+x,1/2+y,z
1/2-x,1/2-y,z
1/2+x,1/2-y,-z
1/2-x,1/2+y,-z
1/2-x,1/2-y,-z
1/2+x,1/2+y,-z
1/2-x,1/2+y,z
1/2+x,1/2-y,z
loop_
_atom_site_type_symbol
_atom_site_label
_atom_site_fract_x
_atom_site_fract_y
_atom_site_fract_z
Si Si1 0.198642 0.698046 0.813600
Si Si2 0.792192 0.147242 0.934190
Si Si3 0.796530 0.549902 0.763981
Si Si4 0.000000 0.192425 0.500000
Si Si5 0.193596 0.140319 0.702604
Si Si6 0.199887 0.049414 0.098634
Si Si7 0.804209 0.701807 0.400037
O O1 0.250000 0.750000 0.813748
O O2 0.228461 0.676357 0.878729
O O3 0.295746 0.669619 0.763238
O O4 0.000000 0.694021 0.798135
O O5 0.729277 0.095564 0.927994
O O6 0.000000 0.146448 0.930529
O O7 0.744119 0.164659 0.000000
O O8 0.752285 0.500000 0.740991
O O9 0.747252 0.590219 0.720743
O O10 0.711932 0.554785 0.829361
O O11 0.000000 0.551740 0.774164
O O12 0.845054 0.193063 0.551639
O O13 0.301372 0.164137 0.651032
O O14 0.000000 0.139729 0.680793
O O15 0.000000 0.047817 0.081403
O O16 0.274713 0.000000 0.083751
O O17 0.750000 0.750000 0.372141
O O18 0.000000 0.705670 0.424445
#
# Coordination Sequence:
#
# PCOD9489762 Si02
#       7
#    16  16  16   4  16  16  16
#     4  12  25  41  61  82 111 152 195 253 317 364
#     4  10  21  37  56  81 112 152 199 247 302 368
#     4  10  20  34  56  87 122 158 197 248 309 365
#     4  12  24  44  62  98 133 184 213 260 304 358
#     4  12  23  40  61  92 127 159 208 254 307 368
#     4   9  17  31  53  81 112 151 192 238 300 367
#     4  12  24  40  64  95 133 177 219 258 304 363
#
# _framework density 19.302989
#
# number of rings (size 3 to 8) (size 9 to 14) (size 15 to 20)
#    0.000    1.120    3.200    4.320    0.000    1.920 
#    0.000    1.600    0.000    0.000    0.000    4.480 
#    0.000    2.560    0.000    0.000    0.000    0.000 
#
# Total GULP energy -278763.583083 kJ/mol
# GULP energy per Si atom -5575.271662 kJ/mol
# Density = 1.925905 g / cm^3
# Si number density = 19.302989 Si / 1000 Ang^3
#
#
#
# Elastic Constant Matrix: (Units=GPa)
#
#
# Indices 1 2 3 4 5 6 
#
# 1 102.0664 13.3996 10.5856 0.0000 0.0000 0.0000
# 2 13.3996 115.2700 42.8002 0.0000 0.0000 0.0000
# 3 10.5856 42.8002 68.8344 0.0000 0.0000 0.0000
# 4 0.0000 0.0000 0.0000 -8.1156 0.0000 0.0000
# 5 0.0000 0.0000 0.0000 0.0000 -9.8962 0.0000
# 6 0.0000 0.0000 0.0000 0.0000 0.0000 11.2356
#
#
#
# Elastic Compliance Matrix: (Units=1/GPa)
#
#
# Indices 1 2 3 4 5 6 
#
# 1 0.010009 -0.000770 -0.001061 0.000000 0.000000 0.000000
# 2 -0.000770 0.011339 -0.006932 0.000000 0.000000 0.000000
# 3 -0.001061 -0.006932 0.019001 0.000000 0.000000 0.000000
# 4 0.000000 0.000000 0.000000 -0.123219 0.000000 0.000000
# 5 0.000000 0.000000 0.000000 0.000000 -0.101049 0.000000
# 6 0.000000 0.000000 0.000000 0.000000 0.000000 0.089003
#
#
# Mechanical properties :
#
#
# Convention : Reuss Voigt Hill
#
# Bulk Modulus (GPa) = 43.81376 46.63794 45.22585
# Shear Modulus (GPa) = -71.64848 13.27045 -29.18901
#
# Velocity S-wave (km/s) = -6.09905 2.62483 -3.89286
# Velocity P-wave (km/s) = 5.18176 5.77925 1.80957
#
# Compressibility (1/GPa) = 0.02282388
#
# Stress axis : x y z
#
# Youngs Moduli (GPa) = 99.91425 88.19474 52.62940
#
# Poissons Ratio (x) = 0.06788 0.05582
# Poissons Ratio (y) = 0.07690 0.36482
# Poissons Ratio (z) = 0.10597 0.61135
#
# Static dielectric constant tensor:
#      x y z
#    x 1.725540 0.000000 0.000000 
#    y 0.000000 1.627210 0.000000 
#    z 0.000000 0.000000 1.651710 
# 
# From -- ./inp_files/60397.got.cif
#   From: 2010.05.17/outbox.cif.g08.bks.cpg/sg65_31_cif.got.tgz:60397.got - 2010.06.03 17:01:31.
