data_PCOD9489958
_publ_section_title
;
Structure prediction by ZEFSAII (Michael W. Deem and Ramdas Pophale) SiO2 
 PCOD9489958
Probable space group: C M M M
;
_chemical_formula_sum "Si O2"
_cell_formula_units_Z 56
_cell_length_a 9.235909
_cell_length_b 14.822998
_cell_length_c 18.678848
_cell_angle_alpha 90.000000
_cell_angle_beta 90.000000
_cell_angle_gamma 90.000000
_cell_volume 2557.206403
_symmetry_space_group_name_H-M "C M M M"
_symmetry_group_IT_number 65
_symmetry_cell_setting 'orthorhombic'
loop_
_space_group_symop_operation_xyz
x,y,z
-x,-y,z
x,-y,-z
-x,y,-z
-x,-y,-z
x,y,-z
-x,y,z
x,-y,z
1/2+x,1/2+y,z
1/2-x,1/2-y,z
1/2+x,1/2-y,-z
1/2-x,1/2+y,-z
1/2-x,1/2-y,-z
1/2+x,1/2+y,-z
1/2-x,1/2+y,z
1/2+x,1/2-y,z
loop_
_atom_site_type_symbol
_atom_site_label
_atom_site_fract_x
_atom_site_fract_y
_atom_site_fract_z
Si Si1 0.665324 0.110785 0.220808
Si Si2 0.667477 0.610012 0.920174
Si Si3 0.826765 0.346101 0.500000
Si Si4 0.338527 0.605923 0.641566
O O1 0.500000 0.140263 0.228585
O O2 0.733282 0.139442 0.145302
O O3 0.761828 0.142605 0.287519
O O4 0.665046 0.000000 0.221393
O O5 0.500000 0.636955 0.909427
O O6 0.668720 0.500000 0.919743
O O7 0.714403 0.638023 0.000000
O O8 0.750000 0.250000 0.500000
O O9 0.764017 0.388118 0.572675
O O10 0.000000 0.344861 0.500000
O O11 0.500000 0.644648 0.628151
O O12 0.356438 0.500000 0.655213
#
# Coordination Sequence:
#
# PCOD9489958 Si02
#       4
#    16  16   8  16
#     4   9  16  25  39  62  91 123 161 203 245 289
#     4   8  13  21  33  51  80 120 161 198 240 290
#     4  12  25  40  57  77 103 131 163 204 251 302
#     4  10  20  35  55  77 102 133 169 207 249 298
#
# _framework density 21.898897000000002
#
# number of rings (size 3 to 8) (size 9 to 14) (size 15 to 20)
#    0.000    2.571    0.000    4.286    0.000    7.429 
#    0.000    2.857    0.000    0.000    0.000    0.000 
#    0.000    1.143    0.000    4.286    0.000   10.000 
#
# Total GULP energy -156345.912584 kJ/mol
# GULP energy per Si atom -5583.782592 kJ/mol
# Density = 2.184905 g / cm^3
# Si number density = 21.898897 Si / 1000 Ang^3
#
#
#
# Elastic Constant Matrix: (Units=GPa)
#
#
# Indices 1 2 3 4 5 6 
#
# 1 210.2522 10.3569 127.8517 0.0000 0.0000 0.0000
# 2 10.3569 40.0509 0.8495 0.0000 0.0000 0.0000
# 3 127.8517 0.8495 196.1667 0.0000 0.0000 0.0000
# 4 0.0000 0.0000 0.0000 -90.8264 0.0000 0.0000
# 5 0.0000 0.0000 0.0000 0.0000 101.7042 0.0000
# 6 0.0000 0.0000 0.0000 0.0000 0.0000 8.8371
#
#
#
# Elastic Compliance Matrix: (Units=1/GPa)
#
#
# Indices 1 2 3 4 5 6 
#
# 1 0.008031 -0.001966 -0.005225 0.000000 0.000000 0.000000
# 2 -0.001966 0.025452 0.001171 0.000000 0.000000 0.000000
# 3 -0.005225 0.001171 0.008498 0.000000 0.000000 0.000000
# 4 0.000000 0.000000 0.000000 -0.011010 0.000000 0.000000
# 5 0.000000 0.000000 0.000000 0.000000 0.009832 0.000000
# 6 0.000000 0.000000 0.000000 0.000000 0.000000 0.113159
#
#
# Mechanical properties :
#
#
# Convention : Reuss Voigt Hill
#
# Bulk Modulus (GPa) = 33.39995 80.50954 56.95474
# Shear Modulus (GPa) = 28.41194 24.43709 26.42452
#
# Velocity S-wave (km/s) = 3.60587 3.34414 3.47747
# Velocity P-wave (km/s) = 5.71152 7.19410 6.49525
#
# Compressibility (1/GPa) = 0.02994017
#
# Stress axis : x y z
#
# Youngs Moduli (GPa) = 124.52501 39.29003 117.67091
#
# Poissons Ratio (x) = 0.07724 0.61488
# Poissons Ratio (y) = 0.24479 -0.13779
# Poissons Ratio (z) = 0.65069 -0.04601
#
# Static dielectric constant tensor:
#      x y z
#    x 1.772020 0.000000 0.000000 
#    y 0.000000 1.992420 0.000000 
#    z 0.000000 0.000000 1.847110 
# 
# From -- ./inp_files/48745.got.cif
#   From: 2010.05.17/outbox.cif.g08.bks.cpg/sg65_25_cif.got.tgz:48745.got - 2010.06.03 17:01:31.
