data_PCOD9489422
_publ_section_title
;
Structure prediction by ZEFSAII (Michael W. Deem and Ramdas Pophale) SiO2 
 PCOD9489422
Probable space group: C M M M
;
_chemical_formula_sum "Si O2"
_cell_formula_units_Z 80
_cell_length_a 8.651357
_cell_length_b 27.936575
_cell_length_c 19.096717
_cell_angle_alpha 90.000000
_cell_angle_beta 90.000000
_cell_angle_gamma 90.000000
_cell_volume 4615.471852
_symmetry_space_group_name_H-M "C M M M"
_symmetry_group_IT_number 65
_symmetry_cell_setting 'orthorhombic'
loop_
_space_group_symop_operation_xyz
x,y,z
-x,-y,z
x,-y,-z
-x,y,-z
-x,-y,-z
x,y,-z
-x,y,z
x,-y,z
1/2+x,1/2+y,z
1/2-x,1/2-y,z
1/2+x,1/2-y,-z
1/2-x,1/2+y,-z
1/2-x,1/2-y,-z
1/2+x,1/2+y,-z
1/2-x,1/2+y,z
1/2+x,1/2-y,z
loop_
_atom_site_type_symbol
_atom_site_label
_atom_site_fract_x
_atom_site_fract_y
_atom_site_fract_z
Si Si1 0.184790 0.445075 0.785281
Si Si2 0.684992 0.803374 0.580680
Si Si3 0.684644 0.197578 0.150731
Si Si4 0.683658 0.353215 0.286225
Si Si5 0.314736 0.604182 0.080170
O O1 0.223900 0.500000 0.769821
O O2 0.265284 0.406627 0.734892
O O3 0.238720 0.431060 0.863455
O O4 0.000000 0.438992 0.780672
O O5 0.720873 0.816273 0.500000
O O6 0.500000 0.802799 0.588945
O O7 0.750000 0.750000 0.592723
O O8 0.759628 0.838113 0.637426
O O9 0.500000 0.197259 0.146503
O O10 0.750000 0.250000 0.135475
O O11 0.737074 0.181229 0.228482
O O12 0.754466 0.157097 0.099940
O O13 0.500000 0.348294 0.280048
O O14 0.500000 0.603134 0.088797
O O15 0.276970 0.592533 0.000000
#
# Coordination Sequence:
#
# PCOD9489422 Si02
#       5
#    16  16  16  16  16
#     4  10  21  37  57  79 102 131 170 214 260 310
#     4  10  20  34  53  79 112 146 178 211 249 296
#     4  11  21  34  52  73 101 136 175 214 254 304
#     4  11  21  34  54  78 106 137 172 214 257 304
#     4  10  21  36  53  75 103 133 168 211 259 310
#
# _framework density 17.333005
#
# number of rings (size 3 to 8) (size 9 to 14) (size 15 to 20)
#    0.000    1.600    0.000    8.400    0.000    5.200 
#    0.000    2.000    0.000    0.600    0.000    4.200 
#    0.000    0.000    0.000    0.000    0.000    0.000 
#
# Total GULP energy -223509.591279 kJ/mol
# GULP energy per Si atom -5587.739782 kJ/mol
# Density = 1.729355 g / cm^3
# Si number density = 17.333005 Si / 1000 Ang^3
#
#
#
# Elastic Constant Matrix: (Units=GPa)
#
#
# Indices 1 2 3 4 5 6 
#
# 1 57.8646 4.8523 20.3842 0.0000 0.0000 0.0000
# 2 4.8523 52.2103 24.1963 0.0000 0.0000 0.0000
# 3 20.3842 24.1963 93.9930 0.0000 0.0000 0.0000
# 4 0.0000 0.0000 0.0000 4.6735 0.0000 0.0000
# 5 0.0000 0.0000 0.0000 0.0000 30.0596 0.0000
# 6 0.0000 0.0000 0.0000 0.0000 0.0000 28.8075
#
#
#
# Elastic Compliance Matrix: (Units=1/GPa)
#
#
# Indices 1 2 3 4 5 6 
#
# 1 0.018712 0.000161 -0.004100 0.000000 0.000000 0.000000
# 2 0.000161 0.021749 -0.005634 0.000000 0.000000 0.000000
# 3 -0.004100 -0.005634 0.012978 0.000000 0.000000 0.000000
# 4 0.000000 0.000000 0.000000 0.213972 0.000000 0.000000
# 5 0.000000 0.000000 0.000000 0.000000 0.033267 0.000000
# 6 0.000000 0.000000 0.000000 0.000000 0.000000 0.034713
#
#
# Mechanical properties :
#
#
# Convention : Reuss Voigt Hill
#
# Bulk Modulus (GPa) = 29.15863 33.65929 31.40896
# Shear Modulus (GPa) = 13.66236 23.01713 18.33974
#
# Velocity S-wave (km/s) = 2.81059 3.64804 3.25635
# Velocity P-wave (km/s) = 5.23370 6.09964 5.68319
#
# Compressibility (1/GPa) = 0.03429517
#
# Stress axis : x y z
#
# Youngs Moduli (GPa) = 53.44043 45.97865 77.05094
#
# Poissons Ratio (x) = -0.00739 0.31587
# Poissons Ratio (y) = -0.00859 0.43408
# Poissons Ratio (z) = 0.21908 0.25903
#
# Static dielectric constant tensor:
#      x y z
#    x 1.578390 0.000000 0.000000 
#    y 0.000000 1.568710 0.000000 
#    z 0.000000 0.000000 1.581770 
# 
# From -- ./inp_files/49876.got.cif
#   From: 2010.05.17/outbox.cif.g08.bks.cpg/sg65_25_cif.got.tgz:49876.got - 2010.06.03 17:01:31.
