data_PCOD9489043
_publ_section_title
;
Structure prediction by ZEFSAII (Michael W. Deem and Ramdas Pophale) SiO2 
 PCOD9489043
Probable space group: C M M M
;
_chemical_formula_sum "Si O2"
_cell_formula_units_Z 88
_cell_length_a 31.308128
_cell_length_b 7.306693
_cell_length_c 17.598224
_cell_angle_alpha 90.000000
_cell_angle_beta 90.000000
_cell_angle_gamma 90.000000
_cell_volume 4025.750007
_symmetry_space_group_name_H-M "C M M M"
_symmetry_group_IT_number 65
_symmetry_cell_setting 'orthorhombic'
loop_
_space_group_symop_operation_xyz
x,y,z
-x,-y,z
x,-y,-z
-x,y,-z
-x,-y,-z
x,y,-z
-x,y,z
x,-y,z
1/2+x,1/2+y,z
1/2-x,1/2-y,z
1/2+x,1/2-y,-z
1/2-x,1/2+y,-z
1/2-x,1/2-y,-z
1/2+x,1/2+y,-z
1/2-x,1/2+y,z
1/2+x,1/2-y,z
loop_
_atom_site_type_symbol
_atom_site_label
_atom_site_fract_x
_atom_site_fract_y
_atom_site_fract_z
Si Si1 0.638914 0.776474 0.361040
Si Si2 0.627424 0.776451 0.189343
Si Si3 0.301104 0.218426 0.500000
Si Si4 0.954519 0.720807 0.589487
Si Si5 0.296331 0.217717 0.085409
Si Si6 0.450844 0.222645 0.086992
O O1 0.642066 0.720539 0.273386
O O2 0.673732 0.715970 0.423890
O O3 0.591013 0.715181 0.382079
O O4 0.639828 0.000000 0.363226
O O5 0.664119 0.713645 0.132484
O O6 0.582267 0.718810 0.152281
O O7 0.625945 0.000000 0.191106
O O8 0.250000 0.250000 0.500000
O O9 0.306268 0.000000 0.500000
O O10 0.955428 0.758779 0.500000
O O11 0.954209 0.500000 0.598653
O O12 0.000000 0.785267 0.622727
O O13 0.250000 0.250000 0.121097
O O14 0.301757 0.000000 0.080343
O O15 0.295579 0.292518 0.000000
O O16 0.500000 0.278877 0.099944
O O17 0.450438 0.000000 0.087131
O O18 0.438577 0.276308 0.000000
#
# Coordination Sequence:
#
# PCOD9489043 Si02
#       6
#    16  16   8  16  16  16
#     4   9  16  26  39  57  82 109 139 175 213 253
#     4   9  16  24  37  57  81 110 141 174 211 251
#     4  10  20  34  49  63  83 113 146 180 219 260
#     4   8  12  19  33  52  76 106 134 161 199 245
#     4   9  17  29  44  61  82 108 138 173 212 252
#     4   8  13  21  33  51  79 115 149 175 202 245
#
# _framework density 21.859282
#
# number of rings (size 3 to 8) (size 9 to 14) (size 15 to 20)
#    0.000    3.273    0.909    1.636    0.000    3.636 
#    0.000    3.636    0.000    0.000    0.000    0.000 
#    0.000    2.182    0.000   10.000    0.000   12.545 
#
# Total GULP energy -245245.502340 kJ/mol
# GULP energy per Si atom -5573.761417 kJ/mol
# Density = 2.180953 g / cm^3
# Si number density = 21.859282 Si / 1000 Ang^3
#
#
#
# Elastic Constant Matrix: (Units=GPa)
#
#
# Indices 1 2 3 4 5 6 
#
# 1 183.4439 -1.2096 104.2944 0.0000 0.0000 0.0000
# 2 -1.2096 87.3329 7.4114 0.0000 0.0000 0.0000
# 3 104.2944 7.4114 134.0861 0.0000 0.0000 0.0000
# 4 0.0000 0.0000 0.0000 -1.7277 0.0000 0.0000
# 5 0.0000 0.0000 0.0000 0.0000 5.1769 0.0000
# 6 0.0000 0.0000 0.0000 0.0000 0.0000 0.1570
#
#
#
# Elastic Compliance Matrix: (Units=1/GPa)
#
#
# Indices 1 2 3 4 5 6 
#
# 1 0.009827 0.000788 -0.007687 0.000000 0.000000 0.000000
# 2 0.000788 0.011568 -0.001253 0.000000 0.000000 0.000000
# 3 -0.007687 -0.001253 0.013506 0.000000 0.000000 0.000000
# 4 0.000000 0.000000 0.000000 -0.578808 0.000000 0.000000
# 5 0.000000 0.000000 0.000000 0.000000 0.193165 0.000000
# 6 0.000000 0.000000 0.000000 0.000000 0.000000 6.368520
#
#
# Mechanical properties :
#
#
# Convention : Reuss Voigt Hill
#
# Bulk Modulus (GPa) = 53.76856 69.53948 61.65402
# Shear Modulus (GPa) = 0.82778 20.34570 10.58674
#
# Velocity S-wave (km/s) = 0.61604 3.05414 2.20310
# Velocity P-wave (km/s) = 5.01568 6.65721 5.89387
#
# Compressibility (1/GPa) = 0.01859823
#
# Stress axis : x y z
#
# Youngs Moduli (GPa) = 101.76246 86.44791 74.03992
#
# Poissons Ratio (x) = -0.06816 0.56915
# Poissons Ratio (y) = -0.08024 0.09275
# Poissons Ratio (z) = 0.78225 0.10829
#
# Static dielectric constant tensor:
#      x y z
#    x 1.779490 0.000000 0.000000 
#    y 0.000000 1.866780 0.000000 
#    z 0.000000 0.000000 1.120520 
# 
# From -- ./inp_files/46772.got.cif
#   From: 2010.05.17/outbox.cif.g08.bks.cpg/sg65_24_cif.got.tgz:46772.got - 2010.06.03 17:01:31.
