data_PCOD9489613
_publ_section_title
;
Structure prediction by ZEFSAII (Michael W. Deem and Ramdas Pophale) SiO2 
 PCOD9489613
Probable space group: C M M M
;
_chemical_formula_sum "Si O2"
_cell_formula_units_Z 104
_cell_length_a 28.321275
_cell_length_b 20.581899
_cell_length_c 8.209158
_cell_angle_alpha 90.000000
_cell_angle_beta 90.000000
_cell_angle_gamma 90.000000
_cell_volume 4785.164347
_symmetry_space_group_name_H-M "C M M M"
_symmetry_group_IT_number 65
_symmetry_cell_setting 'orthorhombic'
loop_
_space_group_symop_operation_xyz
x,y,z
-x,-y,z
x,-y,-z
-x,y,-z
-x,-y,-z
x,y,-z
-x,y,z
x,-y,z
1/2+x,1/2+y,z
1/2-x,1/2-y,z
1/2+x,1/2-y,-z
1/2-x,1/2+y,-z
1/2-x,1/2-y,-z
1/2+x,1/2+y,-z
1/2-x,1/2+y,z
1/2+x,1/2-y,z
loop_
_atom_site_type_symbol
_atom_site_label
_atom_site_fract_x
_atom_site_fract_y
_atom_site_fract_z
Si Si1 0.709312 0.202762 0.313324
Si Si2 0.500000 0.578927 0.186452
Si Si3 0.395785 0.573340 0.693033
Si Si4 0.856991 0.802345 0.178925
Si Si5 0.447474 0.891208 0.805240
Si Si6 0.552961 0.254152 0.313769
Si Si7 0.656741 0.072455 0.302940
O O1 0.723970 0.189054 0.500000
O O2 0.750000 0.250000 0.239120
O O3 0.666073 0.252814 0.304544
O O4 0.689009 0.134032 0.245241
O O5 0.500000 0.500000 0.182410
O O6 0.549900 0.593762 0.272081
O O7 0.500000 0.602206 0.000000
O O8 0.389237 0.573700 0.500000
O O9 0.389814 0.500000 0.755376
O O10 0.358716 0.623007 0.770358
O O11 0.911281 0.781858 0.184494
O O12 0.836744 0.792566 0.000000
O O13 0.500000 0.921176 0.771352
O O14 0.446873 0.823249 0.709641
O O15 0.397594 0.923525 0.758471
O O16 0.446203 0.880061 0.000000
O O17 0.566268 0.270575 0.500000
O O18 0.500000 0.276969 0.285365
O O19 0.655064 0.077654 0.500000
O O20 0.674992 0.000000 0.260690
#
# Coordination Sequence:
#
# PCOD9489613 Si02
#       7
#    16   8  16  16  16  16  16
#     4  10  22  43  68  91 118 154 201 255 310 371
#     4   9  17  31  51  77 113 155 198 247 302 357
#     4  10  21  37  56  79 112 156 204 249 296 355
#     4  12  24  37  59  88 120 156 197 248 308 371
#     4  10  20  34  54  85 126 168 207 248 299 358
#     4  10  20  34  54  81 117 160 204 248 293 349
#     4  10  21  38  62  91 123 162 207 254 306 367
#
# _framework density 21.733841999999999
#
# number of rings (size 3 to 8) (size 9 to 14) (size 15 to 20)
#    0.000    1.769    1.538    3.000    1.077    4.615 
#    0.000    2.308    0.000    2.769    0.000    0.000 
#    0.000    0.000    0.000    0.000    0.000    0.000 
#
# Total GULP energy -289900.700572 kJ/mol
# GULP energy per Si atom -5575.013473 kJ/mol
# Density = 2.168437 g / cm^3
# Si number density = 21.733842 Si / 1000 Ang^3
#
#
#
# Elastic Constant Matrix: (Units=GPa)
#
#
# Indices 1 2 3 4 5 6 
#
# 1 72.4375 49.8563 11.2222 0.0000 0.0000 0.0000
# 2 49.8563 145.4167 1.6156 0.0000 0.0000 0.0000
# 3 11.2222 1.6156 54.1154 0.0000 0.0000 0.0000
# 4 0.0000 0.0000 0.0000 10.0710 0.0000 0.0000
# 5 0.0000 0.0000 0.0000 0.0000 14.6767 0.0000
# 6 0.0000 0.0000 0.0000 0.0000 0.0000 12.1730
#
#
#
# Elastic Compliance Matrix: (Units=1/GPa)
#
#
# Indices 1 2 3 4 5 6 
#
# 1 0.018783 -0.006399 -0.003704 0.000000 0.000000 0.000000
# 2 -0.006399 0.009059 0.001056 0.000000 0.000000 0.000000
# 3 -0.003704 0.001056 0.019216 0.000000 0.000000 0.000000
# 4 0.000000 0.000000 0.000000 0.099295 0.000000 0.000000
# 5 0.000000 0.000000 0.000000 0.000000 0.068135 0.000000
# 6 0.000000 0.000000 0.000000 0.000000 0.000000 0.082149
#
#
# Mechanical properties :
#
#
# Convention : Reuss Voigt Hill
#
# Bulk Modulus (GPa) = 34.52453 44.15086 39.33770
# Shear Modulus (GPa) = 15.41383 21.33583 18.37483
#
# Velocity S-wave (km/s) = 2.66599 3.13659 2.91081
# Velocity P-wave (km/s) = 5.03947 5.78585 5.42551
#
# Compressibility (1/GPa) = 0.02896491
#
# Stress axis : x y z
#
# Youngs Moduli (GPa) = 53.24031 110.38989 52.04100
#
# Poissons Ratio (x) = 0.70633 0.19276
# Poissons Ratio (y) = 0.34066 -0.05498
# Poissons Ratio (z) = 0.19720 -0.11662
#
# Static dielectric constant tensor:
#      x y z
#    x 1.863450 0.000000 0.000000 
#    y 0.000000 1.863900 0.000000 
#    z 0.000000 0.000000 1.767040 
# 
# From -- ./inp_files/16512.got.cif
#   From: 2010.05.17/outbox.cif.g08.bks.cpg/sg65_9_cif.got.tgz:16512.got - 2010.06.03 17:01:31.
