data_PCOD9489364
_publ_section_title
;
Structure prediction by ZEFSAII (Michael W. Deem and Ramdas Pophale) SiO2 
 PCOD9489364
Probable space group: C M M M
;
_chemical_formula_sum "Si O2"
_cell_formula_units_Z 112
_cell_length_a 14.620565
_cell_length_b 17.289271
_cell_length_c 23.886342
_cell_angle_alpha 90.000000
_cell_angle_beta 90.000000
_cell_angle_gamma 90.000000
_cell_volume 6037.963506
_symmetry_space_group_name_H-M "C M M M"
_symmetry_group_IT_number 65
_symmetry_cell_setting 'orthorhombic'
loop_
_space_group_symop_operation_xyz
x,y,z
-x,-y,z
x,-y,-z
-x,y,-z
-x,-y,-z
x,y,-z
-x,y,z
x,-y,z
1/2+x,1/2+y,z
1/2-x,1/2-y,z
1/2+x,1/2-y,-z
1/2-x,1/2+y,-z
1/2-x,1/2-y,-z
1/2+x,1/2+y,-z
1/2-x,1/2+y,z
1/2+x,1/2-y,z
loop_
_atom_site_type_symbol
_atom_site_label
_atom_site_fract_x
_atom_site_fract_y
_atom_site_fract_z
Si Si1 0.769893 0.159057 0.936644
Si Si2 0.392344 0.856091 0.248665
Si Si3 0.392442 0.323685 0.277482
Si Si4 0.602555 0.094038 0.435274
Si Si5 0.109570 0.910030 0.161273
Si Si6 0.758747 0.589386 0.340691
Si Si7 0.895436 0.408151 0.124681
O O1 0.750000 0.250000 0.931517
O O2 0.841425 0.131213 0.890292
O O3 0.675312 0.116187 0.922417
O O4 0.800169 0.142342 0.000000
O O5 0.500000 0.875834 0.255153
O O6 0.378732 0.767129 0.266501
O O7 0.328694 0.906313 0.288458
O O8 0.369834 0.867923 0.183447
O O9 0.500000 0.336532 0.289164
O O10 0.369030 0.368347 0.219836
O O11 0.327153 0.357895 0.324891
O O12 0.616546 0.116359 0.500000
O O13 0.500000 0.119428 0.417781
O O14 0.682200 0.118634 0.393511
O O15 0.601914 0.000000 0.433473
O O16 0.000000 0.906462 0.154353
O O17 0.137518 0.000000 0.163707
O O18 0.731218 0.500000 0.349463
O O19 0.892055 0.500000 0.133657
O O20 0.000000 0.386433 0.111112
#
# Coordination Sequence:
#
# PCOD9489364 Si02
#       7
#    16  16  16  16  16  16  16
#     4  11  24  39  55  76 103 136 172 210 255 313
#     4  10  20  34  53  77 106 137 169 208 256 312
#     4  10  21  36  53  74 105 144 178 208 249 309
#     4   8  15  29  49  75 107 140 175 217 264 310
#     4  10  21  38  59  79 100 130 172 221 265 301
#     4  11  20  30  51  80 108 136 170 217 264 305
#     4  10  21  37  57  80 106 135 168 211 263 317
#
# _framework density 18.549301
#
# number of rings (size 3 to 8) (size 9 to 14) (size 15 to 20)
#    0.000    2.000    0.000    4.286    0.000    5.714 
#    0.000    2.857    0.000    2.143    0.000    4.000 
#    0.000    0.000    0.000    0.000    0.000    0.000 
#
# Total GULP energy -312840.763212 kJ/mol
# GULP energy per Si atom -5586.442200 kJ/mol
# Density = 1.850708 g / cm^3
# Si number density = 18.549301 Si / 1000 Ang^3
#
#
#
# Elastic Constant Matrix: (Units=GPa)
#
#
# Indices 1 2 3 4 5 6 
#
# 1 69.4601 29.4341 49.9486 0.0000 0.0000 0.0000
# 2 29.4341 52.6766 22.4716 0.0000 0.0000 0.0000
# 3 49.9486 22.4716 80.6876 0.0000 0.0000 0.0000
# 4 0.0000 0.0000 0.0000 31.3567 0.0000 0.0000
# 5 0.0000 0.0000 0.0000 0.0000 -50.3540 0.0000
# 6 0.0000 0.0000 0.0000 0.0000 0.0000 25.3740
#
#
#
# Elastic Compliance Matrix: (Units=1/GPa)
#
#
# Indices 1 2 3 4 5 6 
#
# 1 0.029986 -0.010028 -0.015770 0.000000 0.000000 0.000000
# 2 -0.010028 0.024897 -0.000726 0.000000 0.000000 0.000000
# 3 -0.015770 -0.000726 0.022358 0.000000 0.000000 0.000000
# 4 0.000000 0.000000 0.000000 0.031891 0.000000 0.000000
# 5 0.000000 0.000000 0.000000 0.000000 -0.019859 0.000000
# 6 0.000000 0.000000 0.000000 0.000000 0.000000 0.039410
#
#
# Mechanical properties :
#
#
# Convention : Reuss Voigt Hill
#
# Bulk Modulus (GPa) = 41.33414 45.17031 43.25223
# Shear Modulus (GPa) = 26.34421 8.00668 17.17545
#
# Velocity S-wave (km/s) = 3.77268 2.07986 3.04622
# Velocity P-wave (km/s) = 6.42723 5.49291 5.97835
#
# Compressibility (1/GPa) = 0.02419307
#
# Stress axis : x y z
#
# Youngs Moduli (GPa) = 33.34871 40.16561 44.72732
#
# Poissons Ratio (x) = 0.40279 0.70534
# Poissons Ratio (y) = 0.33443 0.03247
# Poissons Ratio (z) = 0.52590 0.02916
#
# Static dielectric constant tensor:
#      x y z
#    x 1.653790 0.000000 0.000000 
#    y 0.000000 1.627250 0.000000 
#    z 0.000000 0.000000 1.620340 
# 
# From -- ./inp_files/69958.got.cif
#   From: 2010.05.17/outbox.cif.g08.bks.cpg/sg65_35_cif.got.tgz:69958.got - 2010.06.03 17:01:31.
