data_PCOD9489346
_publ_section_title
;
Structure prediction by ZEFSAII (Michael W. Deem and Ramdas Pophale) SiO2 
 PCOD9489346
Probable space group: C M M M
;
_chemical_formula_sum "Si O2"
_cell_formula_units_Z 64
_cell_length_a 14.678825
_cell_length_b 13.036613
_cell_length_c 12.864759
_cell_angle_alpha 90.000000
_cell_angle_beta 90.000000
_cell_angle_gamma 90.000000
_cell_volume 2461.828081
_symmetry_space_group_name_H-M "C M M M"
_symmetry_group_IT_number 65
_symmetry_cell_setting 'orthorhombic'
loop_
_space_group_symop_operation_xyz
x,y,z
-x,-y,z
x,-y,-z
-x,y,-z
-x,-y,-z
x,y,-z
-x,y,z
x,-y,z
1/2+x,1/2+y,z
1/2-x,1/2-y,z
1/2+x,1/2-y,-z
1/2-x,1/2+y,-z
1/2-x,1/2-y,-z
1/2+x,1/2+y,-z
1/2-x,1/2+y,z
1/2+x,1/2-y,z
loop_
_atom_site_type_symbol
_atom_site_label
_atom_site_fract_x
_atom_site_fract_y
_atom_site_fract_z
Si Si1 0.370250 0.659191 0.386891
Si Si2 0.888620 0.335108 0.114518
Si Si3 0.896661 0.892157 0.845849
Si Si4 0.659778 0.113210 0.657563
O O1 0.401210 0.623815 0.500000
O O2 0.403696 0.613458 0.279141
O O3 0.388060 0.781902 0.378739
O O4 0.262806 0.632667 0.379435
O O5 0.857579 0.215873 0.118807
O O6 0.846402 0.384601 0.216972
O O7 0.000000 0.338479 0.126755
O O8 0.867875 0.376406 0.000000
O O9 0.000000 0.893382 0.885461
O O10 0.851700 0.000000 0.874603
O O11 0.628662 0.000000 0.623568
#
# Coordination Sequence:
#
# PCOD9489346 Si02
#       4
#    16  16  16  16
#     4  10  21  36  54  77 106 140 176 214 258 309
#     4   9  19  36  56  78 105 137 174 216 261 310
#     4   9  18  33  54  81 110 138 172 215 260 307
#     4  10  20  34  53  77 104 134 172 216 259 307
#
# _framework density 25.996939999999999
#
# number of rings (size 3 to 8) (size 9 to 14) (size 15 to 20)
#    0.000    2.500    0.000    2.250    0.000    5.500 
#    0.000   15.000    0.000   11.250    0.000   12.250 
#    0.000    0.000    0.000    0.000    0.000    0.000 
#
# Total GULP energy -178801.085057 kJ/mol
# GULP energy per Si atom -5587.533908 kJ/mol
# Density = 2.593777 g / cm^3
# Si number density = 25.996940 Si / 1000 Ang^3
#
#
#
# Elastic Constant Matrix: (Units=GPa)
#
#
# Indices 1 2 3 4 5 6 
#
# 1 71.1184 -1.7509 25.0348 0.0000 0.0000 0.0000
# 2 -1.7509 197.6904 17.4454 0.0000 0.0000 0.0000
# 3 25.0348 17.4454 239.9118 0.0000 0.0000 0.0000
# 4 0.0000 0.0000 0.0000 -29.9577 0.0000 0.0000
# 5 0.0000 0.0000 0.0000 0.0000 -5.0480 0.0000
# 6 0.0000 0.0000 0.0000 0.0000 0.0000 -10.7195
#
#
#
# Elastic Compliance Matrix: (Units=1/GPa)
#
#
# Indices 1 2 3 4 5 6 
#
# 1 0.014611 0.000266 -0.001544 0.000000 0.000000 0.000000
# 2 0.000266 0.005096 -0.000398 0.000000 0.000000 0.000000
# 3 -0.001544 -0.000398 0.004358 0.000000 0.000000 0.000000
# 4 0.000000 0.000000 0.000000 -0.033380 0.000000 0.000000
# 5 0.000000 0.000000 0.000000 0.000000 -0.198100 0.000000
# 6 0.000000 0.000000 0.000000 0.000000 0.000000 -0.093288
#
#
# Mechanical properties :
#
#
# Convention : Reuss Voigt Hill
#
# Bulk Modulus (GPa) = 48.28097 65.57546 56.92821
# Shear Modulus (GPa) = -17.21494 22.05438 2.41972
#
# Velocity S-wave (km/s) = -2.57610 2.91580 0.96581
# Velocity P-wave (km/s) = 3.12470 6.05102 4.81553
#
# Compressibility (1/GPa) = 0.02071210
#
# Stress axis : x y z
#
# Youngs Moduli (GPa) = 68.44106 196.23567 229.44863
#
# Poissons Ratio (x) = -0.05213 0.35427
# Poissons Ratio (y) = -0.01818 0.09138
# Poissons Ratio (z) = 0.10567 0.07816
#
# Static dielectric constant tensor:
#      x y z
#    x 2.042940 0.000000 0.000000 
#    y 0.000000 2.037220 0.000000 
#    z 0.000000 0.000000 1.985090 
# 
# From -- ./inp_files/23912.got.cif
#   From: 2010.05.17/outbox.cif.g08.bks.cpg/sg65_12_cif.got.tgz:23912.got - 2010.06.03 17:01:31.
