data_PCOD9489927
_publ_section_title
;
Structure prediction by ZEFSAII (Michael W. Deem and Ramdas Pophale) SiO2 
 PCOD9489927
Probable space group: C M M M
;
_chemical_formula_sum "Si O2"
_cell_formula_units_Z 80
_cell_length_a 9.175748
_cell_length_b 29.875808
_cell_length_c 16.655587
_cell_angle_alpha 90.000000
_cell_angle_beta 90.000000
_cell_angle_gamma 90.000000
_cell_volume 4565.844124
_symmetry_space_group_name_H-M "C M M M"
_symmetry_group_IT_number 65
_symmetry_cell_setting 'orthorhombic'
loop_
_space_group_symop_operation_xyz
x,y,z
-x,-y,z
x,-y,-z
-x,y,-z
-x,-y,-z
x,y,-z
-x,y,z
x,-y,z
1/2+x,1/2+y,z
1/2-x,1/2-y,z
1/2+x,1/2-y,-z
1/2-x,1/2+y,-z
1/2-x,1/2-y,-z
1/2+x,1/2+y,-z
1/2-x,1/2+y,z
1/2+x,1/2-y,z
loop_
_atom_site_type_symbol
_atom_site_label
_atom_site_fract_x
_atom_site_fract_y
_atom_site_fract_z
Si Si1 0.326990 0.797556 0.595377
Si Si2 0.169335 0.925049 0.000000
Si Si3 0.166923 0.370821 0.717569
Si Si4 0.834718 0.709939 0.841061
Si Si5 0.332302 0.682513 0.000000
Si Si6 0.325760 0.051881 0.167892
O O1 0.313625 0.805296 0.500000
O O2 0.500000 0.793107 0.615318
O O3 0.250000 0.750000 0.612554
O O4 0.269919 0.841009 0.644465
O O5 0.248480 0.940290 0.918019
O O6 0.172792 0.871203 0.000000
O O7 0.000000 0.939566 0.000000
O O8 0.164033 0.334437 0.788625
O O9 0.229540 0.414926 0.761380
O O10 0.000000 0.382409 0.693979
O O11 0.750000 0.750000 0.798217
O O12 0.749751 0.699882 0.922158
O O13 0.000000 0.723327 0.856953
O O14 0.500000 0.696594 0.000000
O O15 0.500000 0.060815 0.157446
O O16 0.307902 0.000000 0.190159
#
# Coordination Sequence:
#
# PCOD9489927 Si02
#       6
#    16   8  16  16   8  16
#     4   9  17  31  52  77 105 134 163 197 240 292
#     4  11  22  35  52  73 100 128 164 216 263 299
#     4   9  18  32  50  73  99 128 162 202 247 289
#     4  11  21  33  49  67  94 129 165 203 241 288
#     4  11  22  35  48  66  93 128 166 200 243 293
#     4  10  20  35  55  74  95 129 172 210 247 300
#
# _framework density 17.521404
#
# number of rings (size 3 to 8) (size 9 to 14) (size 15 to 20)
#    0.000    2.000    2.000    2.400    0.000    2.400 
#    0.000    2.000    0.000    0.600    0.000    4.200 
#    0.000    0.000    0.000    6.800    0.000    7.200 
#
# Total GULP energy -222948.264512 kJ/mol
# GULP energy per Si atom -5573.706613 kJ/mol
# Density = 1.748152 g / cm^3
# Si number density = 17.521404 Si / 1000 Ang^3
#
#
#
# Elastic Constant Matrix: (Units=GPa)
#
#
# Indices 1 2 3 4 5 6 
#
# 1 71.2229 33.1654 28.6939 0.0000 0.0000 0.0000
# 2 33.1654 119.9814 47.3858 0.0000 0.0000 0.0000
# 3 28.6939 47.3858 97.6825 0.0000 0.0000 0.0000
# 4 0.0000 0.0000 0.0000 17.1819 0.0000 0.0000
# 5 0.0000 0.0000 0.0000 0.0000 10.2505 0.0000
# 6 0.0000 0.0000 0.0000 0.0000 0.0000 20.9323
#
#
#
# Elastic Compliance Matrix: (Units=1/GPa)
#
#
# Indices 1 2 3 4 5 6 
#
# 1 0.016956 -0.003365 -0.003349 0.000000 0.000000 0.000000
# 2 -0.003365 0.010977 -0.004337 0.000000 0.000000 0.000000
# 3 -0.003349 -0.004337 0.013325 0.000000 0.000000 0.000000
# 4 0.000000 0.000000 0.000000 0.058201 0.000000 0.000000
# 5 0.000000 0.000000 0.000000 0.000000 0.097557 0.000000
# 6 0.000000 0.000000 0.000000 0.000000 0.000000 0.047773
#
#
# Mechanical properties :
#
#
# Convention : Reuss Voigt Hill
#
# Bulk Modulus (GPa) = 52.19679 56.37523 54.28601
# Shear Modulus (GPa) = 18.29658 21.64905 19.97281
#
# Velocity S-wave (km/s) = 3.23498 3.51889 3.37992
# Velocity P-wave (km/s) = 6.61879 6.98248 6.80307
#
# Compressibility (1/GPa) = 0.01915827
#
# Stress axis : x y z
#
# Youngs Moduli (GPa) = 58.97535 91.09574 75.04847
#
# Poissons Ratio (x) = 0.30649 0.25131
# Poissons Ratio (y) = 0.19842 0.32547
# Poissons Ratio (z) = 0.19749 0.39507
#
# Static dielectric constant tensor:
#      x y z
#    x 1.616270 0.000000 0.000000 
#    y 0.000000 1.622990 0.000000 
#    z 0.000000 0.000000 1.602660 
# 
# From -- ./inp_files/50163.got.cif
#   From: 2010.05.17/outbox.cif.g08.bks.cpg/sg65_26_cif.got.tgz:50163.got - 2010.06.03 17:01:31.
