data_PCOD9489216
_publ_section_title
;
Structure prediction by ZEFSAII (Michael W. Deem and Ramdas Pophale) SiO2 
 PCOD9489216
Probable space group: C M M M
;
_chemical_formula_sum "Si O2"
_cell_formula_units_Z 88
_cell_length_a 9.005012
_cell_length_b 17.661173
_cell_length_c 30.022449
_cell_angle_alpha 90.000000
_cell_angle_beta 90.000000
_cell_angle_gamma 90.000000
_cell_volume 4774.742512
_symmetry_space_group_name_H-M "C M M M"
_symmetry_group_IT_number 65
_symmetry_cell_setting 'orthorhombic'
loop_
_space_group_symop_operation_xyz
x,y,z
-x,-y,z
x,-y,-z
-x,y,-z
-x,-y,-z
x,y,-z
-x,y,z
x,-y,z
1/2+x,1/2+y,z
1/2-x,1/2-y,z
1/2+x,1/2-y,-z
1/2-x,1/2+y,-z
1/2-x,1/2-y,-z
1/2+x,1/2+y,-z
1/2-x,1/2+y,z
1/2+x,1/2-y,z
loop_
_atom_site_type_symbol
_atom_site_label
_atom_site_fract_x
_atom_site_fract_y
_atom_site_fract_z
Si Si1 0.321743 0.331687 0.764552
Si Si2 0.828589 0.407530 0.500000
Si Si3 0.318958 0.588023 0.855577
Si Si4 0.676554 0.408137 0.047886
Si Si5 0.170064 0.591244 0.318225
Si Si6 0.328771 0.592459 0.408903
O O1 0.500000 0.327985 0.764053
O O2 0.250000 0.250000 0.759429
O O3 0.273038 0.366383 0.812094
O O4 0.264966 0.381916 0.723663
O O5 0.825894 0.500000 0.500000
O O6 0.747104 0.382821 0.454898
O O7 0.000000 0.384321 0.500000
O O8 0.500000 0.588989 0.856979
O O9 0.275106 0.500000 0.850853
O O10 0.265115 0.617744 0.903929
O O11 0.500000 0.391623 0.047114
O O12 0.688725 0.500000 0.048705
O O13 0.739563 0.382043 0.000000
O O14 0.169339 0.500000 0.318953
O O15 0.240912 0.617272 0.364917
O O16 0.000000 0.617572 0.314168
O O17 0.500000 0.615947 0.406904
O O18 0.326338 0.500000 0.409022
#
# Coordination Sequence:
#
# PCOD9489216 Si02
#       6
#    16   8  16  16  16  16
#     4  11  22  35  50  68  94 128 165 205 249 296
#     4   9  15  23  37  61  96 133 164 197 240 285
#     4   8  14  25  43  67  92 120 156 197 241 289
#     4   7   9  15  31  58  90 118 145 184 234 283
#     4  10  20  34  52  74  99 126 160 203 249 297
#     4   9  16  26  42  66  96 129 163 198 239 288
#
# _framework density 18.430313999999999
#
# number of rings (size 3 to 8) (size 9 to 14) (size 15 to 20)
#    0.000    3.000    0.000    4.091    0.000    5.091 
#    0.000    0.000    0.000    0.545    0.000    0.636 
#    0.000    2.182    0.000   20.545    0.000   16.909 
#
# Total GULP energy -245067.257943 kJ/mol
# GULP energy per Si atom -5569.710408 kJ/mol
# Density = 1.838837 g / cm^3
# Si number density = 18.430314 Si / 1000 Ang^3
#
#
#
# Elastic Constant Matrix: (Units=GPa)
#
#
# Indices 1 2 3 4 5 6 
#
# 1 75.7174 11.2904 53.4203 0.0000 0.0000 0.0000
# 2 11.2904 8.4129 17.8570 0.0000 0.0000 0.0000
# 3 53.4203 17.8570 185.0891 0.0000 0.0000 0.0000
# 4 0.0000 0.0000 0.0000 -8.2286 0.0000 0.0000
# 5 0.0000 0.0000 0.0000 0.0000 1.2538 0.0000
# 6 0.0000 0.0000 0.0000 0.0000 0.0000 9.3361
#
#
#
# Elastic Compliance Matrix: (Units=1/GPa)
#
#
# Indices 1 2 3 4 5 6 
#
# 1 0.018291 -0.016778 -0.003661 0.000000 0.000000 0.000000
# 2 -0.016778 0.164866 -0.011063 0.000000 0.000000 0.000000
# 3 -0.003661 -0.011063 0.007527 0.000000 0.000000 0.000000
# 4 0.000000 0.000000 0.000000 -0.121527 0.000000 0.000000
# 5 0.000000 0.000000 0.000000 0.000000 0.797545 0.000000
# 6 0.000000 0.000000 0.000000 0.000000 0.000000 0.107111
#
#
# Mechanical properties :
#
#
# Convention : Reuss Voigt Hill
#
# Bulk Modulus (GPa) = 7.83210 48.26164 28.04687
# Shear Modulus (GPa) = 4.63230 12.91572 8.77401
#
# Velocity S-wave (km/s) = 1.58710 2.65011 2.18426
# Velocity P-wave (km/s) = 2.75994 5.96716 4.64888
#
# Compressibility (1/GPa) = 0.12767970
#
# Stress axis : x y z
#
# Youngs Moduli (GPa) = 54.67040 6.06555 132.86065
#
# Poissons Ratio (x) = 0.10177 0.48634
# Poissons Ratio (y) = 0.91726 1.46989
# Poissons Ratio (z) = 0.20012 0.06711
#
# Static dielectric constant tensor:
#      x y z
#    x 1.620860 0.000000 0.000000 
#    y 0.000000 1.623570 0.000000 
#    z 0.000000 0.000000 1.665170 
# 
# From -- ./inp_files/76537.got.cif
#   From: 2010.05.17/outbox.cif.g08.bks.cpg/sg65_39_cif.got.tgz:76537.got - 2010.06.03 17:01:31.
