data_PCOD9489453
_publ_section_title
;
Structure prediction by ZEFSAII (Michael W. Deem and Ramdas Pophale) SiO2 
 PCOD9489453
Probable space group: C M M M
;
_chemical_formula_sum "Si O2"
_cell_formula_units_Z 80
_cell_length_a 8.676704
_cell_length_b 27.817261
_cell_length_c 15.639031
_cell_angle_alpha 90.000000
_cell_angle_beta 90.000000
_cell_angle_gamma 90.000000
_cell_volume 3774.669986
_symmetry_space_group_name_H-M "C M M M"
_symmetry_group_IT_number 65
_symmetry_cell_setting 'orthorhombic'
loop_
_space_group_symop_operation_xyz
x,y,z
-x,-y,z
x,-y,-z
-x,y,-z
-x,-y,-z
x,y,-z
-x,y,z
x,-y,z
1/2+x,1/2+y,z
1/2-x,1/2-y,z
1/2+x,1/2-y,-z
1/2-x,1/2+y,-z
1/2-x,1/2-y,-z
1/2+x,1/2+y,-z
1/2-x,1/2+y,z
1/2+x,1/2-y,z
loop_
_atom_site_type_symbol
_atom_site_label
_atom_site_fract_x
_atom_site_fract_y
_atom_site_fract_z
Si Si1 0.323587 0.103680 0.897013
Si Si2 0.811538 0.500000 0.900301
Si Si3 0.500000 0.442707 0.600866
Si Si4 0.178668 0.703004 0.641658
Si Si5 0.681004 0.299419 0.830370
Si Si6 0.672892 0.906211 0.401948
O O1 0.500000 0.109761 0.866618
O O2 0.232919 0.151160 0.873163
O O3 0.263636 0.051828 0.863732
O O4 0.327586 0.099861 0.000000
O O5 0.000000 0.500000 0.899386
O O6 0.763423 0.500000 0.000000
O O7 0.500000 0.500000 0.603864
O O8 0.500000 0.427166 0.500000
O O9 0.665612 0.424919 0.637240
O O10 0.250000 0.750000 0.598124
O O11 0.262083 0.697719 0.732635
O O12 0.187654 0.651591 0.596968
O O13 0.000000 0.713234 0.657496
O O14 0.500000 0.295166 0.833407
O O15 0.750000 0.250000 0.868043
O O16 0.668698 0.924330 0.500000
O O17 0.500000 0.917082 0.364716
#
# Coordination Sequence:
#
# PCOD9489453 Si02
#       6
#    16   8   8  16  16  16
#     4   9  17  32  55  79 103 132 168 211 255 305
#     4   7  12  26  51  79 101 127 162 199 248 305
#     4   9  18  32  54  80 106 142 179 219 272 316
#     4  10  20  34  54  76 102 138 173 210 260 316
#     4  11  22  35  52  73 101 137 175 213 257 312
#     4   9  19  34  53  80 110 139 177 223 267 317
#
# _framework density 21.193905000000001
#
# number of rings (size 3 to 8) (size 9 to 14) (size 15 to 20)
#    0.000    2.600    0.000    4.800    2.800    1.600 
#    0.000    2.500    2.200    1.800    0.000    0.000 
#    0.000    0.000    0.000    0.000    0.000    0.000 
#
# Total GULP energy -222916.312677 kJ/mol
# GULP energy per Si atom -5572.907817 kJ/mol
# Density = 2.114567 g / cm^3
# Si number density = 21.193905 Si / 1000 Ang^3
#
#
#
# Elastic Constant Matrix: (Units=GPa)
#
#
# Indices 1 2 3 4 5 6 
#
# 1 186.8215 86.3428 12.3657 0.0000 0.0000 0.0000
# 2 86.3428 141.2873 17.5649 0.0000 0.0000 0.0000
# 3 12.3657 17.5649 18.1877 0.0000 0.0000 0.0000
# 4 0.0000 0.0000 0.0000 34.1973 0.0000 0.0000
# 5 0.0000 0.0000 0.0000 0.0000 21.3041 0.0000
# 6 0.0000 0.0000 0.0000 0.0000 0.0000 33.4133
#
#
#
# Elastic Compliance Matrix: (Units=1/GPa)
#
#
# Indices 1 2 3 4 5 6 
#
# 1 0.007469 -0.004470 -0.000761 0.000000 0.000000 0.000000
# 2 -0.004470 0.010718 -0.007312 0.000000 0.000000 0.000000
# 3 -0.000761 -0.007312 0.062562 0.000000 0.000000 0.000000
# 4 0.000000 0.000000 0.000000 0.029242 0.000000 0.000000
# 5 0.000000 0.000000 0.000000 0.000000 0.046939 0.000000
# 6 0.000000 0.000000 0.000000 0.000000 0.000000 0.029928
#
#
# Mechanical properties :
#
#
# Convention : Reuss Voigt Hill
#
# Bulk Modulus (GPa) = 17.96555 64.31592 41.14073
# Shear Modulus (GPa) = 21.69201 33.11781 27.40491
#
# Velocity S-wave (km/s) = 3.20269 3.95727 3.59981
# Velocity P-wave (km/s) = 4.70866 7.16187 6.06069
#
# Compressibility (1/GPa) = 0.05566209
#
# Stress axis : x y z
#
# Youngs Moduli (GPa) = 133.88978 93.29810 15.98418
#
# Poissons Ratio (x) = 0.41701 0.01217
# Poissons Ratio (y) = 0.59844 0.11688
# Poissons Ratio (z) = 0.10194 0.68223
#
# Static dielectric constant tensor:
#      x y z
#    x 1.776820 0.000000 0.000000 
#    y 0.000000 1.790610 0.000000 
#    z 0.000000 0.000000 1.782190 
# 
# From -- ./inp_files/49953.got.cif
#   From: 2010.05.17/outbox.cif.g08.bks.cpg/sg65_25_cif.got.tgz:49953.got - 2010.06.03 17:01:31.
