data_PCOD9489696
_publ_section_title
;
Structure prediction by ZEFSAII (Michael W. Deem and Ramdas Pophale) SiO2 
 PCOD9489696
Probable space group: C M M M
;
_chemical_formula_sum "Si O2"
_cell_formula_units_Z 72
_cell_length_a 19.940331
_cell_length_b 8.052177
_cell_length_c 25.290087
_cell_angle_alpha 90.000000
_cell_angle_beta 90.000000
_cell_angle_gamma 90.000000
_cell_volume 4060.654127
_symmetry_space_group_name_H-M "C M M M"
_symmetry_group_IT_number 65
_symmetry_cell_setting 'orthorhombic'
loop_
_space_group_symop_operation_xyz
x,y,z
-x,-y,z
x,-y,-z
-x,y,-z
-x,-y,-z
x,y,-z
-x,y,z
x,-y,z
1/2+x,1/2+y,z
1/2-x,1/2-y,z
1/2+x,1/2-y,-z
1/2-x,1/2+y,-z
1/2-x,1/2-y,-z
1/2+x,1/2+y,-z
1/2-x,1/2+y,z
1/2+x,1/2-y,z
loop_
_atom_site_type_symbol
_atom_site_label
_atom_site_fract_x
_atom_site_fract_y
_atom_site_fract_z
Si Si1 0.919975 0.689692 0.633606
Si Si2 0.418695 0.500000 0.439734
Si Si3 0.923443 0.699876 0.058726
Si Si4 0.174361 0.197152 0.848085
Si Si5 0.172913 0.200392 0.728453
O O1 0.909108 0.500000 0.614908
O O2 0.899753 0.833220 0.592082
O O3 0.877602 0.720930 0.686529
O O4 0.000000 0.708481 0.643643
O O5 0.500000 0.500000 0.441643
O O6 0.393971 0.500000 0.500000
O O7 0.924923 0.500000 0.057295
O O8 0.876007 0.749276 0.106422
O O9 0.000000 0.758054 0.066874
O O10 0.901327 0.757190 0.000000
O O11 0.250000 0.250000 0.860975
O O12 0.158313 0.258610 0.788647
O O13 0.173003 0.000000 0.844991
O O14 0.250000 0.250000 0.717107
O O15 0.167068 0.000000 0.725723
#
# Coordination Sequence:
#
# PCOD9489696 Si02
#       5
#    16   8  16  16  16
#     4  10  20  34  55  84 113 145 186 226 270 326
#     4   9  18  34  56  82 114 148 182 228 274 313
#     4   9  19  36  55  74 100 136 175 217 269 324
#     4  10  21  35  53  77 105 136 175 221 265 318
#     4  10  20  35  54  78 108 143 180 222 274 327
#
# _framework density 17.731134000000001
#
# number of rings (size 3 to 8) (size 9 to 14) (size 15 to 20)
#    0.000    2.333    1.111    2.000    0.000    5.333 
#    0.000    7.778    0.000    0.667    0.000    0.000 
#    0.000    0.000    0.000    0.000    0.000    0.000 
#
# Total GULP energy -200753.033361 kJ/mol
# GULP energy per Si atom -5576.473149 kJ/mol
# Density = 1.769078 g / cm^3
# Si number density = 17.731134 Si / 1000 Ang^3
#
#
#
# Elastic Constant Matrix: (Units=GPa)
#
#
# Indices 1 2 3 4 5 6 
#
# 1 63.2206 37.7436 84.4442 0.0000 0.0000 0.0000
# 2 37.7436 88.5595 58.4913 0.0000 0.0000 0.0000
# 3 84.4442 58.4913 157.0463 0.0000 0.0000 0.0000
# 4 0.0000 0.0000 0.0000 17.3476 0.0000 0.0000
# 5 0.0000 0.0000 0.0000 0.0000 -592.9744 0.0000
# 6 0.0000 0.0000 0.0000 0.0000 0.0000 26.1008
#
#
#
# Elastic Compliance Matrix: (Units=1/GPa)
#
#
# Indices 1 2 3 4 5 6 
#
# 1 0.058066 -0.005472 -0.029184 0.000000 0.000000 0.000000
# 2 -0.005472 0.015491 -0.002827 0.000000 0.000000 0.000000
# 3 -0.029184 -0.002827 0.023113 0.000000 0.000000 0.000000
# 4 0.000000 0.000000 0.000000 0.057645 0.000000 0.000000
# 5 0.000000 0.000000 0.000000 0.000000 -0.001686 0.000000
# 6 0.000000 0.000000 0.000000 0.000000 0.000000 0.038313
#
#
# Mechanical properties :
#
#
# Convention : Reuss Voigt Hill
#
# Bulk Modulus (GPa) = 46.07606 74.46493 60.27049
# Shear Modulus (GPa) = 18.30536 -101.36206 -41.52835
#
# Velocity S-wave (km/s) = 3.21656 -7.56903 -4.84479
# Velocity P-wave (km/s) = 6.31169 5.85654 1.66407
#
# Compressibility (1/GPa) = 0.02170325
#
# Stress axis : x y z
#
# Youngs Moduli (GPa) = 17.22174 64.55190 43.26555
#
# Poissons Ratio (x) = 0.35323 1.26267
# Poissons Ratio (y) = 0.09424 0.12233
# Poissons Ratio (z) = 0.50260 0.18252
#
# Static dielectric constant tensor:
#      x y z
#    x 1.565180 0.000000 0.000000 
#    y 0.000000 1.628350 0.000000 
#    z 0.000000 0.000000 1.610830 
# 
# From -- ./inp_files/64326.got.cif
#   From: 2010.05.17/outbox.cif.g08.bks.cpg/sg65_33_cif.got.tgz:64326.got - 2010.06.03 17:01:31.
