data_PCOD9489990
_publ_section_title
;
Structure prediction by ZEFSAII (Michael W. Deem and Ramdas Pophale) SiO2 
 PCOD9489990
Probable space group: C M M M
;
_chemical_formula_sum "Si O2"
_cell_formula_units_Z 72
_cell_length_a 19.059517
_cell_length_b 8.451573
_cell_length_c 23.957078
_cell_angle_alpha 90.000000
_cell_angle_beta 90.000000
_cell_angle_gamma 90.000000
_cell_volume 3859.075582
_symmetry_space_group_name_H-M "C M M M"
_symmetry_group_IT_number 65
_symmetry_cell_setting 'orthorhombic'
loop_
_space_group_symop_operation_xyz
x,y,z
-x,-y,z
x,-y,-z
-x,y,-z
-x,-y,-z
x,y,-z
-x,y,z
x,-y,z
1/2+x,1/2+y,z
1/2-x,1/2-y,z
1/2+x,1/2-y,-z
1/2-x,1/2+y,-z
1/2-x,1/2-y,-z
1/2+x,1/2+y,-z
1/2-x,1/2+y,z
1/2+x,1/2-y,z
loop_
_atom_site_type_symbol
_atom_site_label
_atom_site_fract_x
_atom_site_fract_y
_atom_site_fract_z
Si Si1 0.418481 0.192842 0.561418
Si Si2 0.170226 0.688116 0.000000
Si Si3 0.670411 0.190176 0.792112
Si Si4 0.418896 0.310327 0.895118
Si Si5 0.828748 0.308876 0.333936
O O1 0.391999 0.243302 0.500000
O O2 0.500000 0.237598 0.565682
O O3 0.376128 0.249624 0.615075
O O4 0.416161 0.000000 0.561942
O O5 0.250000 0.750000 0.000000
O O6 0.127767 0.746042 0.945865
O O7 0.172696 0.500000 0.000000
O O8 0.750000 0.250000 0.802176
O O9 0.617615 0.256713 0.837882
O O10 0.649835 0.238944 0.728891
O O11 0.670822 0.000000 0.795211
O O12 0.500000 0.256219 0.898827
O O13 0.418610 0.500000 0.897991
O O14 0.829484 0.500000 0.334778
O O15 0.750000 0.250000 0.342284
#
# Coordination Sequence:
#
# PCOD9489990 Si02
#       5
#    16   8  16  16  16
#     4   8  14  26  45  69  97 130 170 215 261 310
#     4  12  25  42  65  89 115 147 183 220 261 312
#     4  10  20  35  55  78 107 142 181 223 267 319
#     4  11  24  41  60  84 115 146 178 220 268 315
#     4   9  18  31  49  74 102 133 170 215 263 311
#
# _framework density 18.657318
#
# number of rings (size 3 to 8) (size 9 to 14) (size 15 to 20)
#    0.000    2.222    0.000    4.000    0.000    5.333 
#    0.000    2.222    0.000    0.667    0.000    1.556 
#    0.000    0.000    0.000    0.000    0.000    0.000 
#
# Total GULP energy -200920.930478 kJ/mol
# GULP energy per Si atom -5581.136958 kJ/mol
# Density = 1.861485 g / cm^3
# Si number density = 18.657318 Si / 1000 Ang^3
#
#
#
# Elastic Constant Matrix: (Units=GPa)
#
#
# Indices 1 2 3 4 5 6 
#
# 1 137.8917 34.4005 127.6681 0.0000 0.0000 0.0000
# 2 34.4005 43.6625 37.2829 0.0000 0.0000 0.0000
# 3 127.6681 37.2829 203.8037 0.0000 0.0000 0.0000
# 4 0.0000 0.0000 0.0000 6.2501 0.0000 0.0000
# 5 0.0000 0.0000 0.0000 0.0000 76.2555 0.0000
# 6 0.0000 0.0000 0.0000 0.0000 0.0000 23.7301
#
#
#
# Elastic Compliance Matrix: (Units=1/GPa)
#
#
# Indices 1 2 3 4 5 6 
#
# 1 0.018313 -0.005490 -0.010467 0.000000 0.000000 0.000000
# 2 -0.005490 0.028789 -0.001827 0.000000 0.000000 0.000000
# 3 -0.010467 -0.001827 0.011798 0.000000 0.000000 0.000000
# 4 0.000000 0.000000 0.000000 0.159998 0.000000 0.000000
# 5 0.000000 0.000000 0.000000 0.000000 0.013114 0.000000
# 6 0.000000 0.000000 0.000000 0.000000 0.000000 0.042141
#
#
# Mechanical properties :
#
#
# Convention : Reuss Voigt Hill
#
# Bulk Modulus (GPa) = 42.86321 87.11787 64.99054
# Shear Modulus (GPa) = 15.74808 33.64755 24.69781
#
# Velocity S-wave (km/s) = 2.90844 4.25131 3.64230
# Velocity P-wave (km/s) = 5.85683 8.41981 7.25244
#
# Compressibility (1/GPa) = 0.02333003
#
# Stress axis : x y z
#
# Youngs Moduli (GPa) = 54.60553 34.73561 84.75979
#
# Poissons Ratio (x) = 0.19071 0.88722
# Poissons Ratio (y) = 0.29980 0.15487
# Poissons Ratio (z) = 0.57158 0.06347
#
# Static dielectric constant tensor:
#      x y z
#    x 1.594100 0.000000 0.000000 
#    y 0.000000 1.636220 0.000000 
#    z 0.000000 0.000000 1.658940 
# 
# From -- ./inp_files/64366.got.cif
#   From: 2010.05.17/outbox.cif.g08.bks.cpg/sg65_33_cif.got.tgz:64366.got - 2010.06.03 17:01:31.
