data_PCOD9489781
_publ_section_title
;
Structure prediction by ZEFSAII (Michael W. Deem and Ramdas Pophale) SiO2 
 PCOD9489781
Probable space group: C M M M
;
_chemical_formula_sum "Si O2"
_cell_formula_units_Z 112
_cell_length_a 18.348361
_cell_length_b 19.094328
_cell_length_c 17.592340
_cell_angle_alpha 90.000000
_cell_angle_beta 90.000000
_cell_angle_gamma 90.000000
_cell_volume 6163.469690
_symmetry_space_group_name_H-M "C M M M"
_symmetry_group_IT_number 65
_symmetry_cell_setting 'orthorhombic'
loop_
_space_group_symop_operation_xyz
x,y,z
-x,-y,z
x,-y,-z
-x,y,-z
-x,-y,-z
x,y,-z
-x,y,z
x,-y,z
1/2+x,1/2+y,z
1/2-x,1/2-y,z
1/2+x,1/2-y,-z
1/2-x,1/2+y,-z
1/2-x,1/2-y,-z
1/2+x,1/2+y,-z
1/2-x,1/2+y,z
1/2+x,1/2-y,z
loop_
_atom_site_type_symbol
_atom_site_label
_atom_site_fract_x
_atom_site_fract_y
_atom_site_fract_z
Si Si1 0.716787 0.084921 0.875589
Si Si2 0.265080 0.423689 0.295557
Si Si3 0.913382 0.315560 0.121286
Si Si4 0.296719 0.820308 0.414265
Si Si5 0.080618 0.883736 0.245917
Si Si6 0.918681 0.722602 0.296532
Si Si7 0.631405 0.657103 0.916507
O O1 0.727679 0.096741 0.784577
O O2 0.640963 0.121153 0.900934
O O3 0.785718 0.127586 0.910108
O O4 0.720247 0.000000 0.889232
O O5 0.236958 0.500000 0.314820
O O6 0.250179 0.374602 0.366017
O O7 0.350677 0.424699 0.277020
O O8 0.910961 0.311482 0.213235
O O9 0.879389 0.241282 0.093084
O O10 0.000000 0.320545 0.099877
O O11 0.315269 0.842765 0.500000
O O12 0.250000 0.750000 0.419361
O O13 0.364205 0.803962 0.359668
O O14 0.089075 0.805331 0.279613
O O15 0.089607 0.876205 0.154934
O O16 0.000000 0.909855 0.264224
O O17 0.000000 0.709402 0.323679
O O18 0.603397 0.638167 0.000000
#
# Coordination Sequence:
#
# PCOD9489781 Si02
#       7
#    16  16  16  16  16  16  16
#     4  10  21  36  57  82 110 152 193 226 278 337
#     4  10  20  35  55  78 108 145 184 227 266 317
#     4  10  20  34  58  86 111 146 189 233 281 333
#     4  11  21  33  55  83 108 144 184 223 276 328
#     4   9  18  33  56  82 109 143 180 220 270 327
#     4   9  17  32  54  80 109 141 177 223 273 319
#     4  10  21  36  56  84 114 144 186 238 284 330
#
# _framework density 18.171582000000001
#
# number of rings (size 3 to 8) (size 9 to 14) (size 15 to 20)
#    0.000    2.143    2.857    1.714    0.000    3.714 
#    0.000    0.000    0.000    2.143    0.000   11.000 
#    0.000    0.000    0.000    0.000    0.000    0.000 
#
# Total GULP energy -312015.981337 kJ/mol
# GULP energy per Si atom -5571.713952 kJ/mol
# Density = 1.813022 g / cm^3
# Si number density = 18.171582 Si / 1000 Ang^3
#
#
#
# Elastic Constant Matrix: (Units=GPa)
#
#
# Indices 1 2 3 4 5 6 
#
# 1 117.2016 41.8087 25.0522 0.0000 0.0000 0.0000
# 2 41.8087 57.0882 25.0062 0.0000 0.0000 0.0000
# 3 25.0522 25.0062 117.6113 0.0000 0.0000 0.0000
# 4 0.0000 0.0000 0.0000 9.4509 0.0000 0.0000
# 5 0.0000 0.0000 0.0000 0.0000 -150.0895 0.0000
# 6 0.0000 0.0000 0.0000 0.0000 0.0000 8.5575
#
#
#
# Elastic Compliance Matrix: (Units=1/GPa)
#
#
# Indices 1 2 3 4 5 6 
#
# 1 0.011607 -0.008179 -0.000733 0.000000 0.000000 0.000000
# 2 -0.008179 0.025079 -0.003590 0.000000 0.000000 0.000000
# 3 -0.000733 -0.003590 0.009422 0.000000 0.000000 0.000000
# 4 0.000000 0.000000 0.000000 0.105810 0.000000 0.000000
# 5 0.000000 0.000000 0.000000 0.000000 -0.006663 0.000000
# 6 0.000000 0.000000 0.000000 0.000000 0.000000 0.116857
#
#
# Mechanical properties :
#
#
# Convention : Reuss Voigt Hill
#
# Bulk Modulus (GPa) = 47.38611 52.84836 50.11724
# Shear Modulus (GPa) = 16.99808 -13.08061 1.95873
#
# Velocity S-wave (km/s) = 3.06178 -2.68589 1.03935
# Velocity P-wave (km/s) = 6.21555 4.41898 5.39261
#
# Compressibility (1/GPa) = 0.02110323
#
# Stress axis : x y z
#
# Youngs Moduli (GPa) = 86.15709 39.87364 106.13342
#
# Poissons Ratio (x) = 0.32613 0.07783
# Poissons Ratio (y) = 0.70468 0.38103
# Poissons Ratio (z) = 0.06318 0.14315
#
# Static dielectric constant tensor:
#      x y z
#    x 1.631290 0.000000 0.000000 
#    y 0.000000 1.088110 0.000000 
#    z 0.000000 0.000000 1.619270 
# 
# From -- ./inp_files/54885.got.cif
#   From: 2010.05.17/outbox.cif.g08.bks.cpg/sg65_28_cif.got.tgz:54885.got - 2010.06.03 17:01:31.
