data_PCOD9489982
_publ_section_title
;
Structure prediction by ZEFSAII (Michael W. Deem and Ramdas Pophale) SiO2 
 PCOD9489982
Probable space group: C M M M
;
_chemical_formula_sum "Si O2"
_cell_formula_units_Z 72
_cell_length_a 15.660348
_cell_length_b 27.099077
_cell_length_c 7.566398
_cell_angle_alpha 90.000000
_cell_angle_beta 90.000000
_cell_angle_gamma 90.000000
_cell_volume 3211.035370
_symmetry_space_group_name_H-M "C M M M"
_symmetry_group_IT_number 65
_symmetry_cell_setting 'orthorhombic'
loop_
_space_group_symop_operation_xyz
x,y,z
-x,-y,z
x,-y,-z
-x,y,-z
-x,-y,-z
x,y,-z
-x,y,z
x,-y,z
1/2+x,1/2+y,z
1/2-x,1/2-y,z
1/2+x,1/2-y,-z
1/2-x,1/2+y,-z
1/2-x,1/2-y,-z
1/2+x,1/2+y,-z
1/2-x,1/2+y,z
1/2+x,1/2-y,z
loop_
_atom_site_type_symbol
_atom_site_label
_atom_site_fract_x
_atom_site_fract_y
_atom_site_fract_z
Si Si1 0.000000 0.369742 0.783339
Si Si2 0.681125 0.402923 0.293673
Si Si3 0.178964 0.210856 0.214043
Si Si4 0.000000 0.942297 0.284679
Si Si5 0.500000 0.756353 0.783964
Si Si6 0.859992 0.445776 0.206004
O O1 0.000000 0.313194 0.724674
O O2 0.082181 0.401222 0.723465
O O3 0.000000 0.366777 0.000000
O O4 0.681045 0.415677 0.500000
O O5 0.696008 0.344748 0.272142
O O6 0.587655 0.417157 0.221614
O O7 0.760603 0.432235 0.214796
O O8 0.250000 0.250000 0.273285
O O9 0.085654 0.228678 0.273008
O O10 0.180138 0.210808 0.000000
O O11 0.000000 0.938588 0.500000
O O12 0.000000 0.000000 0.238993
O O13 0.500000 0.756307 0.000000
O O14 0.875795 0.500000 0.284749
O O15 0.883693 0.448894 0.000000
#
# Coordination Sequence:
#
# PCOD9489982 Si02
#       6
#     8  16  16   8   8  16
#     4   9  17  33  57  83 110 141 178 217 263 322
#     4  11  22  36  56  80 108 144 183 225 271 319
#     4  10  20  35  55  78 106 140 177 220 269 319
#     4   9  19  36  55  75 104 145 186 219 263 325
#     4   9  17  30  52  79 104 135 176 221 266 313
#     4  10  20  35  57  84 112 143 180 221 265 317
#
# _framework density 22.422674000000001
#
# number of rings (size 3 to 8) (size 9 to 14) (size 15 to 20)
#    0.000    2.111    0.000    3.667    0.000    6.667 
#    0.000    2.222    0.000    6.667    0.000    0.000 
#    0.000    0.000    0.000    0.000    0.000    0.000 
#
# Total GULP energy -201252.311130 kJ/mol
# GULP energy per Si atom -5590.341976 kJ/mol
# Density = 2.237164 g / cm^3
# Si number density = 22.422674 Si / 1000 Ang^3
#
#
#
# Elastic Constant Matrix: (Units=GPa)
#
#
# Indices 1 2 3 4 5 6 
#
# 1 80.8563 -12.2278 -5.2474 0.0000 0.0000 0.0000
# 2 -12.2278 78.6874 -11.3021 0.0000 0.0000 0.0000
# 3 -5.2474 -11.3021 50.0315 0.0000 0.0000 0.0000
# 4 0.0000 0.0000 0.0000 -26.9569 0.0000 0.0000
# 5 0.0000 0.0000 0.0000 0.0000 28.8345 0.0000
# 6 0.0000 0.0000 0.0000 0.0000 0.0000 24.8810
#
#
#
# Elastic Compliance Matrix: (Units=1/GPa)
#
#
# Indices 1 2 3 4 5 6 
#
# 1 0.012830 0.002260 0.001856 0.000000 0.000000 0.000000
# 2 0.002260 0.013533 0.003294 0.000000 0.000000 0.000000
# 3 0.001856 0.003294 0.020926 0.000000 0.000000 0.000000
# 4 0.000000 0.000000 0.000000 -0.037096 0.000000 0.000000
# 5 0.000000 0.000000 0.000000 0.000000 0.034681 0.000000
# 6 0.000000 0.000000 0.000000 0.000000 0.000000 0.040191
#
#
# Mechanical properties :
#
#
# Convention : Reuss Voigt Hill
#
# Bulk Modulus (GPa) = 16.10032 16.89118 16.49575
# Shear Modulus (GPa) = 54.97727 21.24191 38.10959
#
# Velocity S-wave (km/s) = 4.95700 3.08123 4.12709
# Velocity P-wave (km/s) = 6.32127 4.49534 5.48482
#
# Compressibility (1/GPa) = 0.06211056
#
# Stress axis : x y z
#
# Youngs Moduli (GPa) = 77.94284 73.89391 47.78690
#
# Poissons Ratio (x) = -0.16703 -0.08870
# Poissons Ratio (y) = -0.17618 -0.15742
# Poissons Ratio (z) = -0.14468 -0.24342
#
# Static dielectric constant tensor:
#      x y z
#    x 1.802680 0.000000 0.000000 
#    y 0.000000 1.782320 0.000000 
#    z 0.000000 0.000000 1.865450 
# 
# From -- ./inp_files/7430.got.cif
#   From: 2010.05.17/outbox.cif.g08.bks.cpg/sg65_4_cif.got.tgz:7430.got - 2010.06.03 17:01:31.
