data_PCOD9489963
_publ_section_title
;
Structure prediction by ZEFSAII (Michael W. Deem and Ramdas Pophale) SiO2 
 PCOD9489963
Probable space group: C M M M
;
_chemical_formula_sum "Si O2"
_cell_formula_units_Z 80
_cell_length_a 8.390591
_cell_length_b 19.035520
_cell_length_c 26.884531
_cell_angle_alpha 90.000000
_cell_angle_beta 90.000000
_cell_angle_gamma 90.000000
_cell_volume 4293.977472
_symmetry_space_group_name_H-M "C M M M"
_symmetry_group_IT_number 65
_symmetry_cell_setting 'orthorhombic'
loop_
_space_group_symop_operation_xyz
x,y,z
-x,-y,z
x,-y,-z
-x,y,-z
-x,-y,-z
x,y,-z
-x,y,z
x,-y,z
1/2+x,1/2+y,z
1/2-x,1/2-y,z
1/2+x,1/2-y,-z
1/2-x,1/2+y,-z
1/2-x,1/2-y,-z
1/2+x,1/2+y,-z
1/2-x,1/2+y,z
1/2+x,1/2-y,z
loop_
_atom_site_type_symbol
_atom_site_label
_atom_site_fract_x
_atom_site_fract_y
_atom_site_fract_z
Si Si1 0.691442 0.170090 0.686213
Si Si2 0.190839 0.919145 0.406154
Si Si3 0.812878 0.585560 0.000000
Si Si4 0.810811 0.330023 0.500000
Si Si5 0.807580 0.329145 0.798202
Si Si6 0.304828 0.918421 0.107919
O O1 0.500000 0.170185 0.684009
O O2 0.750000 0.250000 0.677307
O O3 0.756773 0.117733 0.644874
O O4 0.742288 0.149285 0.742370
O O5 0.253000 0.872293 0.451626
O O6 0.000000 0.919876 0.408597
O O7 0.247804 0.000000 0.409390
O O8 0.746906 0.608195 0.053685
O O9 0.806452 0.500000 0.000000
O O10 0.000000 0.604657 0.000000
O O11 0.750000 0.250000 0.500000
O O12 0.000000 0.327924 0.500000
O O13 0.750000 0.250000 0.805431
O O14 0.749958 0.375996 0.844045
O O15 0.000000 0.330633 0.798693
O O16 0.500000 0.915936 0.106756
O O17 0.260889 0.000000 0.112776
#
# Coordination Sequence:
#
# PCOD9489963 Si02
#       6
#    16  16   8   8  16  16
#     4  10  20  35  55  77 103 138 179 218 259 311
#     4  11  24  41  60  84 115 145 174 215 264 308
#     4   7  10  18  35  60  89 119 154 201 252 298
#     4  12  25  42  65  89 115 147 183 218 253 302
#     4   9  18  31  48  70  98 131 164 205 253 302
#     4   8  13  23  41  65  91 121 161 207 252 297
#
# _framework density 18.630747
#
# number of rings (size 3 to 8) (size 9 to 14) (size 15 to 20)
#    0.000    2.500    0.000    4.200    0.000    4.400 
#    0.000    2.500    0.000    0.600    0.000    0.000 
#    0.000    2.400    0.000    0.000    0.000    0.000 
#
# Total GULP energy -223069.019381 kJ/mol
# GULP energy per Si atom -5576.725485 kJ/mol
# Density = 1.858834 g / cm^3
# Si number density = 18.630747 Si / 1000 Ang^3
#
#
#
# Elastic Constant Matrix: (Units=GPa)
#
#
# Indices 1 2 3 4 5 6 
#
# 1 36.3680 26.5916 33.1117 0.0000 0.0000 0.0000
# 2 26.5916 117.6739 120.4378 0.0000 0.0000 0.0000
# 3 33.1117 120.4378 217.7520 0.0000 0.0000 0.0000
# 4 0.0000 0.0000 0.0000 37.6463 0.0000 0.0000
# 5 0.0000 0.0000 0.0000 0.0000 2.1601 0.0000
# 6 0.0000 0.0000 0.0000 0.0000 0.0000 20.2302
#
#
#
# Elastic Compliance Matrix: (Units=1/GPa)
#
#
# Indices 1 2 3 4 5 6 
#
# 1 0.033343 -0.005405 -0.002080 0.000000 0.000000 0.000000
# 2 -0.005405 0.020461 -0.010495 0.000000 0.000000 0.000000
# 3 -0.002080 -0.010495 0.010713 0.000000 0.000000 0.000000
# 4 0.000000 0.000000 0.000000 0.026563 0.000000 0.000000
# 5 0.000000 0.000000 0.000000 0.000000 0.462948 0.000000
# 6 0.000000 0.000000 0.000000 0.000000 0.000000 0.049431
#
#
# Mechanical properties :
#
#
# Convention : Reuss Voigt Hill
#
# Bulk Modulus (GPa) = 35.01897 81.34179 58.18038
# Shear Modulus (GPa) = 7.70487 24.78417 16.24452
#
# Velocity S-wave (km/s) = 2.03582 3.65126 2.95603
# Velocity P-wave (km/s) = 4.93591 7.84413 6.55338
#
# Compressibility (1/GPa) = 0.02855595
#
# Stress axis : x y z
#
# Youngs Moduli (GPa) = 29.99106 48.87332 93.34044
#
# Poissons Ratio (x) = 0.26418 0.19419
# Poissons Ratio (y) = 0.16212 0.97961
# Poissons Ratio (z) = 0.06240 0.51292
#
# Static dielectric constant tensor:
#      x y z
#    x 1.638360 0.000000 0.000000 
#    y 0.000000 1.606510 0.000000 
#    z 0.000000 0.000000 1.675860 
# 
# From -- ./inp_files/72884.got.cif
#   From: 2010.05.17/outbox.cif.g08.bks.cpg/sg65_37_cif.got.tgz:72884.got - 2010.06.03 17:01:31.
