data_PCOD9489588
_publ_section_title
;
Structure prediction by ZEFSAII (Michael W. Deem and Ramdas Pophale) SiO2 
 PCOD9489588
Probable space group: C M M M
;
_chemical_formula_sum "Si O2"
_cell_formula_units_Z 96
_cell_length_a 13.603235
_cell_length_b 29.478119
_cell_length_c 11.338146
_cell_angle_alpha 90.000000
_cell_angle_beta 90.000000
_cell_angle_gamma 90.000000
_cell_volume 4546.571377
_symmetry_space_group_name_H-M "C M M M"
_symmetry_group_IT_number 65
_symmetry_cell_setting 'orthorhombic'
loop_
_space_group_symop_operation_xyz
x,y,z
-x,-y,z
x,-y,-z
-x,y,-z
-x,-y,-z
x,y,-z
-x,y,z
x,-y,z
1/2+x,1/2+y,z
1/2-x,1/2-y,z
1/2+x,1/2-y,-z
1/2-x,1/2+y,-z
1/2-x,1/2-y,-z
1/2+x,1/2+y,-z
1/2-x,1/2+y,z
1/2+x,1/2-y,z
loop_
_atom_site_type_symbol
_atom_site_label
_atom_site_fract_x
_atom_site_fract_y
_atom_site_fract_z
Si Si1 0.380665 0.822717 0.500000
Si Si2 0.286184 0.551721 0.000000
Si Si3 0.880745 0.148415 0.295807
Si Si4 0.381480 0.717932 0.500000
Si Si5 0.118099 0.050398 0.253190
Si Si6 0.880370 0.224670 0.134597
Si Si7 0.118163 0.319313 0.240008
Si Si8 0.116926 0.375033 0.000000
O O1 0.500000 0.826485 0.500000
O O2 0.349461 0.769723 0.500000
O O3 0.349360 0.838827 0.631986
O O4 0.351760 0.557227 0.883042
O O5 0.250765 0.500000 0.000000
O O6 0.192602 0.583845 0.000000
O O7 0.855501 0.186283 0.391044
O O8 0.846026 0.096938 0.314272
O O9 0.849385 0.174628 0.177164
O O10 0.000000 0.145178 0.295659
O O11 0.500000 0.721932 0.500000
O O12 0.000000 0.049060 0.263328
O O13 0.154104 0.000000 0.291062
O O14 0.849491 0.267585 0.213837
O O15 0.000000 0.224512 0.139515
O O16 0.852679 0.232639 0.000000
O O17 0.000000 0.316620 0.249618
O O18 0.135686 0.347320 0.120750
O O19 0.000000 0.386838 0.000000
#
# Coordination Sequence:
#
# PCOD9489588 Si02
#       8
#     8   8  16   8  16  16  16   8
#     4   9  14  22  40  70 105 140 183 220 244 293
#     4  10  21  37  57  78 102 133 166 206 259 318
#     4   9  16  24  40  67 100 136 174 214 256 306
#     4   9  14  22  37  67 103 136 180 217 246 300
#     4   9  18  33  52  75 101 129 167 216 265 309
#     4   9  14  20  34  61  96 133 171 206 249 306
#     4   9  15  25  43  70 104 140 176 213 251 296
#     4  10  20  34  54  81 111 138 167 210 259 306
#
# _framework density 21.114812000000001
#
# number of rings (size 3 to 8) (size 9 to 14) (size 15 to 20)
#    0.000    2.833    2.500    0.250    1.167    1.167 
#    0.000    0.417    0.000    5.500    0.000    2.917 
#    0.000    3.333    0.000    0.000    0.000    0.667 
#
# Total GULP energy -267656.776923 kJ/mol
# GULP energy per Si atom -5576.182853 kJ/mol
# Density = 2.106675 g / cm^3
# Si number density = 21.114812 Si / 1000 Ang^3
#
#
#
# Elastic Constant Matrix: (Units=GPa)
#
#
# Indices 1 2 3 4 5 6 
#
# 1 59.1327 -9.9230 -15.9337 0.0000 0.0000 0.0000
# 2 -9.9230 102.9373 22.1155 0.0000 0.0000 0.0000
# 3 -15.9337 22.1155 110.1620 0.0000 0.0000 0.0000
# 4 0.0000 0.0000 0.0000 12.0578 0.0000 0.0000
# 5 0.0000 0.0000 0.0000 0.0000 -27.0477 0.0000
# 6 0.0000 0.0000 0.0000 0.0000 0.0000 25.5516
#
#
#
# Elastic Compliance Matrix: (Units=1/GPa)
#
#
# Indices 1 2 3 4 5 6 
#
# 1 0.017740 0.001211 0.002323 0.000000 0.000000 0.000000
# 2 0.001211 0.010235 -0.001880 0.000000 0.000000 0.000000
# 3 0.002323 -0.001880 0.009791 0.000000 0.000000 0.000000
# 4 0.000000 0.000000 0.000000 0.082934 0.000000 0.000000
# 5 0.000000 0.000000 0.000000 0.000000 -0.036972 0.000000
# 6 0.000000 0.000000 0.000000 0.000000 0.000000 0.039137
#
#
# Mechanical properties :
#
#
# Convention : Reuss Voigt Hill
#
# Bulk Modulus (GPa) = 24.34575 29.41660 26.88118
# Shear Modulus (GPa) = 37.52408 20.51056 29.01732
#
# Velocity S-wave (km/s) = 4.22019 3.12008 3.71113
# Velocity P-wave (km/s) = 5.94154 5.19056 5.57870
#
# Compressibility (1/GPa) = 0.04107492
#
# Stress axis : x y z
#
# Youngs Moduli (GPa) = 56.36902 97.70187 102.13622
#
# Poissons Ratio (x) = -0.11833 -0.23724
# Poissons Ratio (y) = -0.06827 0.19197
# Poissons Ratio (z) = -0.13093 0.18364
#
# Static dielectric constant tensor:
#      x y z
#    x 1.823460 0.000000 0.000000 
#    y 0.000000 1.742960 0.000000 
#    z 0.000000 0.000000 1.915020 
# 
# From -- ./inp_files/25520.got.cif
#   From: 2010.05.17/outbox.cif.g08.bks.cpg/sg65_13_cif.got.tgz:25520.got - 2010.06.03 17:01:31.
