data_PCOD9489444
_publ_section_title
;
Structure prediction by ZEFSAII (Michael W. Deem and Ramdas Pophale) SiO2 
 PCOD9489444
Probable space group: C M M M
;
_chemical_formula_sum "Si O2"
_cell_formula_units_Z 56
_cell_length_a 29.088113
_cell_length_b 10.087663
_cell_length_c 8.704195
_cell_angle_alpha 90.000000
_cell_angle_beta 90.000000
_cell_angle_gamma 90.000000
_cell_volume 2554.081350
_symmetry_space_group_name_H-M "C M M M"
_symmetry_group_IT_number 65
_symmetry_cell_setting 'orthorhombic'
loop_
_space_group_symop_operation_xyz
x,y,z
-x,-y,z
x,-y,-z
-x,y,-z
-x,-y,-z
x,y,-z
-x,y,z
x,-y,z
1/2+x,1/2+y,z
1/2-x,1/2-y,z
1/2+x,1/2-y,-z
1/2-x,1/2+y,-z
1/2-x,1/2-y,-z
1/2+x,1/2+y,-z
1/2-x,1/2+y,z
1/2+x,1/2-y,z
loop_
_atom_site_type_symbol
_atom_site_label
_atom_site_fract_x
_atom_site_fract_y
_atom_site_fract_z
Si Si1 0.178026 0.500000 0.182121
Si Si2 0.053857 0.500000 0.327850
Si Si3 0.353959 0.279891 0.316771
Si Si4 0.720678 0.500000 0.684346
Si Si5 0.052159 0.785776 0.817434
O O1 0.156181 0.366221 0.251135
O O2 0.231575 0.500000 0.227563
O O3 0.171656 0.500000 0.000000
O O4 0.075878 0.500000 0.500000
O O5 0.059689 0.367735 0.229577
O O6 0.000000 0.500000 0.355624
O O7 0.357584 0.271998 0.500000
O O8 0.310625 0.372759 0.278859
O O9 0.401528 0.343661 0.255435
O O10 0.729823 0.500000 0.500000
O O11 0.000000 0.824157 0.765030
O O12 0.053043 0.803207 0.000000
#
# Coordination Sequence:
#
# PCOD9489444 Si02
#       5
#     8   8  16   8  16
#     4  12  25  41  65  96 126 157 197 248 307 369
#     4   9  16  27  46  73 106 146 192 241 292 343
#     4  11  23  41  65  91 122 161 205 252 301 358
#     4  10  24  45  66  90 121 159 204 254 306 358
#     4  10  20  34  53  81 119 159 199 246 298 354
#
# _framework density 21.925691
#
# number of rings (size 3 to 8) (size 9 to 14) (size 15 to 20)
#    0.000    1.571    0.000    5.143    0.000    9.143 
#    0.000    0.714    0.000    4.286    0.000    0.000 
#    0.000    0.000    0.000    0.000    0.000    0.000 
#
# Total GULP energy -156356.651028 kJ/mol
# GULP energy per Si atom -5584.166108 kJ/mol
# Density = 2.187579 g / cm^3
# Si number density = 21.925691 Si / 1000 Ang^3
#
#
#
# Elastic Constant Matrix: (Units=GPa)
#
#
# Indices 1 2 3 4 5 6 
#
# 1 207.5791 41.5284 69.2854 0.0000 0.0000 0.0000
# 2 41.5284 100.4828 29.5697 0.0000 0.0000 0.0000
# 3 69.2854 29.5697 85.5059 0.0000 0.0000 0.0000
# 4 0.0000 0.0000 0.0000 -221.9784 0.0000 0.0000
# 5 0.0000 0.0000 0.0000 0.0000 44.2598 0.0000
# 6 0.0000 0.0000 0.0000 0.0000 0.0000 75.8997
#
#
#
# Elastic Compliance Matrix: (Units=1/GPa)
#
#
# Indices 1 2 3 4 5 6 
#
# 1 0.006756 -0.001315 -0.005020 0.000000 0.000000 0.000000
# 2 -0.001315 0.011335 -0.002854 0.000000 0.000000 0.000000
# 3 -0.005020 -0.002854 0.016750 0.000000 0.000000 0.000000
# 4 0.000000 0.000000 0.000000 -0.004505 0.000000 0.000000
# 5 0.000000 0.000000 0.000000 0.000000 0.022594 0.000000
# 6 0.000000 0.000000 0.000000 0.000000 0.000000 0.013175
#
#
# Mechanical properties :
#
#
# Convention : Reuss Voigt Hill
#
# Bulk Modulus (GPa) = 60.74283 74.92609 67.83446
# Shear Modulus (GPa) = 55.57350 -3.48482 26.04434
#
# Velocity S-wave (km/s) = 5.03997 -1.26207 3.45025
# Velocity P-wave (km/s) = 7.85064 5.66773 6.84674
#
# Compressibility (1/GPa) = 0.01646285
#
# Stress axis : x y z
#
# Youngs Moduli (GPa) = 148.01756 88.21899 59.70293
#
# Poissons Ratio (x) = 0.11601 0.29968
# Poissons Ratio (y) = 0.19465 0.17042
# Poissons Ratio (z) = 0.74299 0.25182
#
# Static dielectric constant tensor:
#      x y z
#    x 1.851110 0.000000 0.000000 
#    y 0.000000 1.703150 0.000000 
#    z 0.000000 0.000000 1.750040 
# 
# From -- ./inp_files/17736.got.cif
#   From: 2010.05.17/outbox.cif.g08.bks.cpg/sg65_9_cif.got.tgz:17736.got - 2010.06.03 17:01:31.
