data_PCOD9489984
_publ_section_title
;
Structure prediction by ZEFSAII (Michael W. Deem and Ramdas Pophale) SiO2 
 PCOD9489984
Probable space group: C M M M
;
_chemical_formula_sum "Si O2"
_cell_formula_units_Z 88
_cell_length_a 31.076182
_cell_length_b 9.061275
_cell_length_c 17.455240
_cell_angle_alpha 90.000000
_cell_angle_beta 90.000000
_cell_angle_gamma 90.000000
_cell_volume 4915.218083
_symmetry_space_group_name_H-M "C M M M"
_symmetry_group_IT_number 65
_symmetry_cell_setting 'orthorhombic'
loop_
_space_group_symop_operation_xyz
x,y,z
-x,-y,z
x,-y,-z
-x,y,-z
-x,-y,-z
x,y,-z
-x,y,z
x,-y,z
1/2+x,1/2+y,z
1/2-x,1/2-y,z
1/2+x,1/2-y,-z
1/2-x,1/2+y,-z
1/2-x,1/2-y,-z
1/2+x,1/2+y,-z
1/2-x,1/2+y,z
1/2+x,1/2-y,z
loop_
_atom_site_type_symbol
_atom_site_label
_atom_site_fract_x
_atom_site_fract_y
_atom_site_fract_z
Si Si1 0.826217 0.677521 0.083277
Si Si2 0.412359 0.329611 0.132756
Si Si3 0.951310 0.675673 0.591534
Si Si4 0.500000 0.168740 0.091944
Si Si5 0.120543 0.170816 0.693202
Si Si6 0.705554 0.822723 0.250970
O O1 0.829131 0.500000 0.084969
O O2 0.873777 0.745122 0.090565
O O3 0.801906 0.721799 0.161216
O O4 0.807737 0.721268 0.000000
O O5 0.413801 0.500000 0.108159
O O6 0.457403 0.251557 0.118752
O O7 0.400870 0.324674 0.222574
O O8 0.948079 0.697135 0.500000
O O9 0.947628 0.500000 0.606228
O O10 0.913673 0.760080 0.635013
O O11 0.000000 0.721384 0.614953
O O12 0.500000 0.000000 0.119846
O O13 0.500000 0.167226 0.000000
O O14 0.164787 0.261545 0.702050
O O15 0.129637 0.000000 0.674544
O O16 0.750000 0.750000 0.276838
O O17 0.707265 0.000000 0.255099
#
# Coordination Sequence:
#
# PCOD9489984 Si02
#       6
#    16  16  16   8  16  16
#     4   9  18  33  51  71  98 133 174 220 271 326
#     4  10  21  34  48  70  99 132 173 221 268 313
#     4   9  19  36  58  86 118 149 180 214 256 310
#     4  11  23  35  47  65  92 131 178 223 267 318
#     4  10  21  36  55  80 110 142 179 220 264 316
#     4  10  20  35  55  78 106 140 180 225 275 325
#
# _framework density 17.903580999999999
#
# number of rings (size 3 to 8) (size 9 to 14) (size 15 to 20)
#    0.000    2.273    0.000    3.000    1.273    7.273 
#    0.000    0.909    0.000    0.545    0.000    0.000 
#    0.000    0.000    0.000    0.000    0.000    0.000 
#
# Total GULP energy -245548.438447 kJ/mol
# GULP energy per Si atom -5580.646328 kJ/mol
# Density = 1.786283 g / cm^3
# Si number density = 17.903581 Si / 1000 Ang^3
#
#
#
# Elastic Constant Matrix: (Units=GPa)
#
#
# Indices 1 2 3 4 5 6 
#
# 1 142.5020 54.7572 35.8217 0.0000 0.0000 0.0000
# 2 54.7572 51.9617 28.2796 0.0000 0.0000 0.0000
# 3 35.8217 28.2796 43.2589 0.0000 0.0000 0.0000
# 4 0.0000 0.0000 0.0000 22.7401 0.0000 0.0000
# 5 0.0000 0.0000 0.0000 0.0000 6.2300 0.0000
# 6 0.0000 0.0000 0.0000 0.0000 0.0000 19.2606
#
#
#
# Elastic Compliance Matrix: (Units=1/GPa)
#
#
# Indices 1 2 3 4 5 6 
#
# 1 0.011976 -0.011212 -0.002587 0.000000 0.000000 0.000000
# 2 -0.011212 0.040371 -0.017107 0.000000 0.000000 0.000000
# 3 -0.002587 -0.017107 0.036442 0.000000 0.000000 0.000000
# 4 0.000000 0.000000 0.000000 0.043975 0.000000 0.000000
# 5 0.000000 0.000000 0.000000 0.000000 0.160514 0.000000
# 6 0.000000 0.000000 0.000000 0.000000 0.000000 0.051919
#
#
# Mechanical properties :
#
#
# Convention : Reuss Voigt Hill
#
# Bulk Modulus (GPa) = 37.06969 52.82664 44.94816
# Shear Modulus (GPa) = 12.01915 17.57042 14.79478
#
# Velocity S-wave (km/s) = 2.59381 3.13612 2.87776
# Velocity P-wave (km/s) = 5.45166 6.53329 6.01683
#
# Compressibility (1/GPa) = 0.02697622
#
# Stress axis : x y z
#
# Youngs Moduli (GPa) = 83.49810 24.77039 27.44064
#
# Poissons Ratio (x) = 0.27774 0.07100
# Poissons Ratio (y) = 0.93622 0.46942
# Poissons Ratio (z) = 0.21604 0.42374
#
# Static dielectric constant tensor:
#      x y z
#    x 1.587630 0.000000 0.000000 
#    y 0.000000 1.601210 0.000000 
#    z 0.000000 0.000000 1.615320 
# 
# From -- ./inp_files/57962.got.cif
#   From: 2010.05.17/outbox.cif.g08.bks.cpg/sg65_29_cif.got.tgz:57962.got - 2010.06.03 17:01:31.
