data_PCOD9489797
_publ_section_title
;
Structure prediction by ZEFSAII (Michael W. Deem and Ramdas Pophale) SiO2 
 PCOD9489797
Probable space group: C M M M
;
_chemical_formula_sum "Si O2"
_cell_formula_units_Z 88
_cell_length_a 28.626079
_cell_length_b 7.814981
_cell_length_c 22.267108
_cell_angle_alpha 90.000000
_cell_angle_beta 90.000000
_cell_angle_gamma 90.000000
_cell_volume 4981.425132
_symmetry_space_group_name_H-M "C M M M"
_symmetry_group_IT_number 65
_symmetry_cell_setting 'orthorhombic'
loop_
_space_group_symop_operation_xyz
x,y,z
-x,-y,z
x,-y,-z
-x,y,-z
-x,-y,-z
x,y,-z
-x,y,z
x,-y,z
1/2+x,1/2+y,z
1/2-x,1/2-y,z
1/2+x,1/2-y,-z
1/2-x,1/2+y,-z
1/2-x,1/2-y,-z
1/2+x,1/2+y,-z
1/2-x,1/2+y,z
1/2+x,1/2-y,z
loop_
_atom_site_type_symbol
_atom_site_label
_atom_site_fract_x
_atom_site_fract_y
_atom_site_fract_z
Si Si1 0.447082 0.795665 0.694073
Si Si2 0.805065 0.705534 0.000000
Si Si3 0.604814 0.699822 0.813954
Si Si4 0.195736 0.295595 0.130453
Si Si5 0.555247 0.708029 0.933941
Si Si6 0.443370 0.202929 0.564662
O O1 0.500000 0.729778 0.704526
O O2 0.416012 0.766825 0.752216
O O3 0.428395 0.727421 0.629782
O O4 0.450688 0.000000 0.686380
O O5 0.750000 0.750000 0.000000
O O6 0.821225 0.772285 0.064659
O O7 0.810448 0.500000 0.000000
O O8 0.594157 0.500000 0.814551
O O9 0.660007 0.727010 0.820776
O O10 0.581142 0.774941 0.874619
O O11 0.192599 0.500000 0.129519
O O12 0.250000 0.250000 0.138741
O O13 0.500000 0.747201 0.929521
O O14 0.559182 0.500000 0.934678
O O15 0.572079 0.769034 0.000000
O O16 0.427899 0.276364 0.500000
O O17 0.500000 0.215109 0.565985
O O18 0.432089 0.000000 0.563009
#
# Coordination Sequence:
#
# PCOD9489797 Si02
#       6
#    16   8  16  16  16  16
#     4   9  17  29  45  66  94 126 157 191 229 267
#     4   8  16  30  48  66  83 104 131 172 226 279
#     4  11  21  30  45  67  90 121 155 189 229 276
#     4  10  20  35  51  68  89 113 143 185 234 285
#     4   8  15  28  43  59  81 111 150 192 226 257
#     4   7  10  19  38  63  88 116 152 189 222 259
#
# _framework density 17.665628000000002
#
# number of rings (size 3 to 8) (size 9 to 14) (size 15 to 20)
#    0.000    3.091    0.000    3.818    1.273    1.818 
#    0.000    0.000    0.000    0.545    0.000    6.364 
#    0.000    0.727    0.000    2.000    0.000    2.909 
#
# Total GULP energy -245014.654429 kJ/mol
# GULP energy per Si atom -5568.514873 kJ/mol
# Density = 1.762542 g / cm^3
# Si number density = 17.665628 Si / 1000 Ang^3
#
#
#
# Elastic Constant Matrix: (Units=GPa)
#
#
# Indices 1 2 3 4 5 6 
#
# 1 50.2114 -5.3975 65.1902 0.0000 0.0000 0.0000
# 2 -5.3975 25.3648 10.0250 0.0000 0.0000 0.0000
# 3 65.1902 10.0250 185.7734 0.0000 0.0000 0.0000
# 4 0.0000 0.0000 0.0000 -33.8869 0.0000 0.0000
# 5 0.0000 0.0000 0.0000 0.0000 20.8395 0.0000
# 6 0.0000 0.0000 0.0000 0.0000 0.0000 6.5031
#
#
#
# Elastic Compliance Matrix: (Units=1/GPa)
#
#
# Indices 1 2 3 4 5 6 
#
# 1 0.041436 0.014882 -0.015344 0.000000 0.000000 0.000000
# 2 0.014882 0.045629 -0.007684 0.000000 0.000000 0.000000
# 3 -0.015344 -0.007684 0.011182 0.000000 0.000000 0.000000
# 4 0.000000 0.000000 0.000000 -0.029510 0.000000 0.000000
# 5 0.000000 0.000000 0.000000 0.000000 0.047986 0.000000
# 6 0.000000 0.000000 0.000000 0.000000 0.000000 0.153772
#
#
# Mechanical properties :
#
#
# Convention : Reuss Voigt Hill
#
# Bulk Modulus (GPa) = 12.20199 44.55389 28.37794
# Shear Modulus (GPa) = 15.91823 11.45994 13.68909
#
# Velocity S-wave (km/s) = 3.00506 2.54975 2.78672
# Velocity P-wave (km/s) = 4.35462 5.82612 5.14327
#
# Compressibility (1/GPa) = 0.08195387
#
# Stress axis : x y z
#
# Youngs Moduli (GPa) = 24.13347 21.91612 89.43083
#
# Poissons Ratio (x) = -0.32615 1.37219
# Poissons Ratio (y) = -0.35915 0.68722
# Poissons Ratio (z) = 0.37029 0.16841
#
# Static dielectric constant tensor:
#      x y z
#    x 1.580580 0.000000 0.000000 
#    y 0.000000 1.650240 0.000000 
#    z 0.000000 0.000000 1.675860 
# 
# From -- ./inp_files/66210.got.cif
#   From: 2010.05.17/outbox.cif.g08.bks.cpg/sg65_34_cif.got.tgz:66210.got - 2010.06.03 17:01:31.
