data_PCOD9489255
_publ_section_title
;
Structure prediction by ZEFSAII (Michael W. Deem and Ramdas Pophale) SiO2 
 PCOD9489255
Probable space group: C M M M
;
_chemical_formula_sum "Si O2"
_cell_formula_units_Z 104
_cell_length_a 9.910092
_cell_length_b 18.292538
_cell_length_c 31.684803
_cell_angle_alpha 90.000000
_cell_angle_beta 90.000000
_cell_angle_gamma 90.000000
_cell_volume 5743.844360
_symmetry_space_group_name_H-M "C M M M"
_symmetry_group_IT_number 65
_symmetry_cell_setting 'orthorhombic'
loop_
_space_group_symop_operation_xyz
x,y,z
-x,-y,z
x,-y,-z
-x,y,-z
-x,-y,-z
x,y,-z
-x,y,z
x,-y,z
1/2+x,1/2+y,z
1/2-x,1/2-y,z
1/2+x,1/2-y,-z
1/2-x,1/2+y,-z
1/2-x,1/2-y,-z
1/2+x,1/2+y,-z
1/2-x,1/2+y,z
1/2+x,1/2-y,z
loop_
_atom_site_type_symbol
_atom_site_label
_atom_site_fract_x
_atom_site_fract_y
_atom_site_fract_z
Si Si1 0.500000 0.410946 0.547481
Si Si2 0.841003 0.678457 0.757264
Si Si3 0.752702 0.089040 0.395346
Si Si4 0.844481 0.913569 0.915235
Si Si5 0.342655 0.588069 0.302587
Si Si6 0.842065 0.678905 0.858264
Si Si7 0.000000 0.589430 0.549224
Si Si8 0.656209 0.679595 0.000000
O O1 0.500000 0.500000 0.545602
O O2 0.500000 0.383747 0.500000
O O3 0.373704 0.388717 0.574652
O O4 0.750000 0.750000 0.748155
O O5 0.759547 0.615497 0.733101
O O6 0.838671 0.667816 0.807810
O O7 0.000000 0.684716 0.745016
O O8 0.782500 0.113540 0.347759
O O9 0.624291 0.112866 0.421857
O O10 0.748281 0.000000 0.393256
O O11 0.733808 0.886342 0.882052
O O12 0.000000 0.898522 0.900976
O O13 0.834196 0.000000 0.922611
O O14 0.822448 0.869441 0.958496
O O15 0.500000 0.612063 0.297462
O O16 0.345461 0.500000 0.302883
O O17 0.750000 0.750000 0.868028
O O18 0.000000 0.687895 0.870602
O O19 0.000000 0.500000 0.547375
O O20 0.000000 0.613170 0.500000
O O21 0.750000 0.750000 0.000000
O O22 0.500000 0.703186 0.000000
#
# Coordination Sequence:
#
# PCOD9489255 Si02
#       8
#     8  16  16  16  16  16   8   8
#     4   9  14  22  38  58  87 129 171 207 249 306
#     4  10  22  39  59  81 107 140 180 227 275 326
#     4   9  16  26  39  61  94 131 169 209 257 312
#     4  10  21  37  58  84 117 155 192 233 282 333
#     4  10  20  34  52  76 108 143 177 218 268 324
#     4  10  21  38  59  83 110 142 182 229 279 332
#     4   9  16  24  36  58  91 131 171 211 257 310
#     4  10  21  37  57  83 115 154 201 244 282 330
#
# _framework density 18.106341
#
# number of rings (size 3 to 8) (size 9 to 14) (size 15 to 20)
#    0.000    2.308    0.769    2.077    1.077    7.692 
#    0.000    3.077    0.000    1.385    0.000    0.000 
#    0.000    3.692    0.000    0.000    0.000    0.000 
#
# Total GULP energy -289763.019623 kJ/mol
# GULP energy per Si atom -5572.365762 kJ/mol
# Density = 1.806513 g / cm^3
# Si number density = 18.106341 Si / 1000 Ang^3
#
#
#
# Elastic Constant Matrix: (Units=GPa)
#
#
# Indices 1 2 3 4 5 6 
#
# 1 183.0988 48.1954 58.7772 0.0000 0.0000 0.0000
# 2 48.1954 51.8685 30.2713 0.0000 0.0000 0.0000
# 3 58.7772 30.2713 42.6586 0.0000 0.0000 0.0000
# 4 0.0000 0.0000 0.0000 -173.9606 0.0000 0.0000
# 5 0.0000 0.0000 0.0000 0.0000 46.4369 0.0000
# 6 0.0000 0.0000 0.0000 0.0000 0.0000 23.5037
#
#
#
# Elastic Compliance Matrix: (Units=1/GPa)
#
#
# Indices 1 2 3 4 5 6 
#
# 1 0.009928 -0.002119 -0.012175 0.000000 0.000000 0.000000
# 2 -0.002119 0.033361 -0.020754 0.000000 0.000000 0.000000
# 3 -0.012175 -0.020754 0.054945 0.000000 0.000000 0.000000
# 4 0.000000 0.000000 0.000000 -0.005748 0.000000 0.000000
# 5 0.000000 0.000000 0.000000 0.000000 0.021535 0.000000
# 6 0.000000 0.000000 0.000000 0.000000 0.000000 0.042546
#
#
# Mechanical properties :
#
#
# Convention : Reuss Voigt Hill
#
# Bulk Modulus (GPa) = 35.53991 61.34595 48.44293
# Shear Modulus (GPa) = 21.18282 -11.44518 4.86882
#
# Velocity S-wave (km/s) = 3.42411 -2.51691 1.64160
# Velocity P-wave (km/s) = 5.94169 5.05055 5.51415
#
# Compressibility (1/GPa) = 0.02813738
#
# Stress axis : x y z
#
# Youngs Moduli (GPa) = 100.72807 29.97549 18.20012
#
# Poissons Ratio (x) = 0.06352 0.22159
# Poissons Ratio (y) = 0.21345 0.37772
# Poissons Ratio (z) = 1.22639 0.62210
#
# Static dielectric constant tensor:
#      x y z
#    x 1.516190 0.000000 0.000000 
#    y 0.000000 1.624260 0.000000 
#    z 0.000000 0.000000 1.614290 
# 
# From -- ./inp_files/76971.got.cif
#   From: 2010.05.17/outbox.cif.g08.bks.cpg/sg65_39_cif.got.tgz:76971.got - 2010.06.03 17:01:31.
