data_PCOD9489509
_publ_section_title
;
Structure prediction by ZEFSAII (Michael W. Deem and Ramdas Pophale) SiO2 
 PCOD9489509
Probable space group: C M M M
;
_chemical_formula_sum "Si O2"
_cell_formula_units_Z 116
_cell_length_a 28.289971
_cell_length_b 27.003661
_cell_length_c 8.981688
_cell_angle_alpha 90.000000
_cell_angle_beta 90.000000
_cell_angle_gamma 90.000000
_cell_volume 6861.405942
_symmetry_space_group_name_H-M "C M M M"
_symmetry_group_IT_number 65
_symmetry_cell_setting 'orthorhombic'
loop_
_space_group_symop_operation_xyz
x,y,z
-x,-y,z
x,-y,-z
-x,y,-z
-x,-y,-z
x,y,-z
-x,y,z
x,-y,z
1/2+x,1/2+y,z
1/2-x,1/2-y,z
1/2+x,1/2-y,-z
1/2-x,1/2+y,-z
1/2-x,1/2-y,-z
1/2+x,1/2+y,-z
1/2-x,1/2+y,z
1/2+x,1/2-y,z
loop_
_atom_site_type_symbol
_atom_site_label
_atom_site_fract_x
_atom_site_fract_y
_atom_site_fract_z
Si Si1 0.637502 0.749502 0.678423
Si Si2 0.190134 0.649950 0.676606
Si Si3 0.000000 0.000000 0.259398
Si Si4 0.445361 0.694961 0.826582
Si Si5 0.220038 0.556625 0.177202
Si Si6 0.320092 0.559048 0.329986
Si Si7 0.074755 0.089131 0.319342
Si Si8 0.777305 0.197848 0.832378
O O1 0.639524 0.745262 0.500000
O O2 0.655008 0.805023 0.719254
O O3 0.587142 0.734199 0.741733
O O4 0.674014 0.710559 0.751744
O O5 0.188778 0.645151 0.500000
O O6 0.184850 0.596757 0.752541
O O7 0.241988 0.666997 0.730623
O O8 0.041476 0.956066 0.266257
O O9 0.500000 0.709556 0.820550
O O10 0.440545 0.641261 0.749632
O O11 0.430996 0.691278 0.000000
O O12 0.209440 0.500000 0.222609
O O13 0.273782 0.566946 0.231464
O O14 0.218398 0.560107 0.000000
O O15 0.310312 0.575715 0.500000
O O16 0.327991 0.500000 0.334120
O O17 0.369937 0.581588 0.280163
O O18 0.071127 0.089760 0.500000
O O19 0.750000 0.250000 0.846265
O O20 0.783366 0.177638 0.000000
#
# Coordination Sequence:
#
# PCOD9489509 Si02
#       8
#    16  16   4  16  16  16  16  16
#     4  10  21  37  57  79 102 133 174 219 267 319
#     4  10  20  34  54  79 106 137 175 216 259 313
#     4  12  21  36  61  82  97 128 185 242 283 332
#     4  11  25  41  54  74 104 138 175 219 275 328
#     4  10  21  35  51  74 106 144 179 212 254 306
#     4   9  18  32  49  70  95 129 172 217 265 314
#     4  11  21  35  56  76  97 129 174 228 279 325
#     4   9  17  30  49  74 103 134 168 209 257 308
#
# _framework density 16.906155999999999
#
# number of rings (size 3 to 8) (size 9 to 14) (size 15 to 20)
#    0.000    1.931    1.379    2.690    1.931    5.517 
#    0.000    0.690    0.000    0.000    0.000    0.000 
#    0.000    0.552    0.000    6.069    0.000    4.414 
#
# Total GULP energy -323104.170898 kJ/mol
# GULP energy per Si atom -5570.761567 kJ/mol
# Density = 1.686768 g / cm^3
# Si number density = 16.906156 Si / 1000 Ang^3
#
#
#
# Elastic Constant Matrix: (Units=GPa)
#
#
# Indices 1 2 3 4 5 6 
#
# 1 60.6522 50.5634 30.4785 0.0000 0.0000 0.0000
# 2 50.5634 105.7399 34.0266 0.0000 0.0000 0.0000
# 3 30.4785 34.0266 40.3825 0.0000 0.0000 0.0000
# 4 0.0000 0.0000 0.0000 19.7362 0.0000 0.0000
# 5 0.0000 0.0000 0.0000 0.0000 17.6641 0.0000
# 6 0.0000 0.0000 0.0000 0.0000 0.0000 29.9761
#
#
#
# Elastic Compliance Matrix: (Units=1/GPa)
#
#
# Indices 1 2 3 4 5 6 
#
# 1 0.033766 -0.010902 -0.016299 0.000000 0.000000 0.000000
# 2 -0.010902 0.016495 -0.005671 0.000000 0.000000 0.000000
# 3 -0.016299 -0.005671 0.041843 0.000000 0.000000 0.000000
# 4 0.000000 0.000000 0.000000 0.050668 0.000000 0.000000
# 5 0.000000 0.000000 0.000000 0.000000 0.056612 0.000000
# 6 0.000000 0.000000 0.000000 0.000000 0.000000 0.033360
#
#
# Mechanical properties :
#
#
# Convention : Reuss Voigt Hill
#
# Bulk Modulus (GPa) = 37.93448 48.54573 43.24010
# Shear Modulus (GPa) = 16.27208 19.58904 17.93056
#
# Velocity S-wave (km/s) = 3.10578 3.40765 3.26021
# Velocity P-wave (km/s) = 5.94543 6.65281 6.30904
#
# Compressibility (1/GPa) = 0.02636124
#
# Stress axis : x y z
#
# Youngs Moduli (GPa) = 29.61543 60.62438 23.89871
#
# Poissons Ratio (x) = 0.66090 0.38953
# Poissons Ratio (y) = 0.32285 0.13553
# Poissons Ratio (z) = 0.48271 0.34380
#
# Static dielectric constant tensor:
#      x y z
#    x 1.552920 0.000000 0.000000 
#    y 0.000000 1.610380 0.000000 
#    z 0.000000 0.000000 1.589150 
# 
# From -- ./inp_files/14873.got.cif
#   From: 2010.05.17/outbox.cif.g08.bks.cpg/sg65_8_cif.got.tgz:14873.got - 2010.06.03 17:01:31.
