data_PCOD9489233
_publ_section_title
;
Structure prediction by ZEFSAII (Michael W. Deem and Ramdas Pophale) SiO2 
 PCOD9489233
Probable space group: C M M M
;
_chemical_formula_sum "Si O2"
_cell_formula_units_Z 88
_cell_length_a 24.365445
_cell_length_b 24.440357
_cell_length_c 8.899762
_cell_angle_alpha 90.000000
_cell_angle_beta 90.000000
_cell_angle_gamma 90.000000
_cell_volume 5299.809822
_symmetry_space_group_name_H-M "C M M M"
_symmetry_group_IT_number 65
_symmetry_cell_setting 'orthorhombic'
loop_
_space_group_symop_operation_xyz
x,y,z
-x,-y,z
x,-y,-z
-x,y,-z
-x,-y,-z
x,y,-z
-x,y,z
x,-y,z
1/2+x,1/2+y,z
1/2-x,1/2-y,z
1/2+x,1/2-y,-z
1/2-x,1/2+y,-z
1/2-x,1/2-y,-z
1/2+x,1/2+y,-z
1/2-x,1/2+y,z
1/2+x,1/2-y,z
loop_
_atom_site_type_symbol
_atom_site_label
_atom_site_fract_x
_atom_site_fract_y
_atom_site_fract_z
Si Si1 0.231063 0.562787 0.817856
Si Si2 0.935009 0.438041 0.000000
Si Si3 0.936276 0.852534 0.179467
Si Si4 0.563206 0.233455 0.679308
Si Si5 0.649158 0.436455 0.679266
Si Si6 0.634995 0.858564 0.828468
O O1 0.215564 0.500000 0.775740
O O2 0.291277 0.573388 0.752575
O O3 0.187844 0.609084 0.768114
O O4 0.232069 0.564552 0.000000
O O5 0.910463 0.405540 0.141055
O O6 0.914668 0.500000 0.000000
O O7 0.000000 0.437098 0.000000
O O8 0.926064 0.792014 0.244703
O O9 0.895521 0.895957 0.252426
O O10 0.000000 0.866061 0.213224
O O11 0.929484 0.851825 0.000000
O O12 0.565562 0.239022 0.500000
O O13 0.500000 0.217433 0.720310
O O14 0.607171 0.189192 0.734888
O O15 0.652659 0.429456 0.500000
O O16 0.634804 0.500000 0.710284
O O17 0.647409 0.838390 0.000000
#
# Coordination Sequence:
#
# PCOD9489233 Si02
#       6
#    16   8  16  16  16  16
#     4   9  17  32  53  76 104 138 179 222 263 307
#     4   9  16  26  46  76 105 134 174 224 269 308
#     4  10  21  37  58  81 105 134 172 219 266 314
#     4  10  20  34  52  75 106 142 177 216 267 321
#     4  10  21  36  55  80 109 141 173 209 261 321
#     4   9  18  29  50  76 103 135 178 221 257 308
#
# _framework density 16.604369999999999
#
# number of rings (size 3 to 8) (size 9 to 14) (size 15 to 20)
#    0.545    1.909    0.000    2.727    0.000    4.000 
#    0.000    2.727    0.000    7.091    0.000    6.364 
#    0.000    0.000    0.000    0.000    0.000    0.000 
#
# Total GULP energy -245145.974772 kJ/mol
# GULP energy per Si atom -5571.499427 kJ/mol
# Density = 1.656658 g / cm^3
# Si number density = 16.604370 Si / 1000 Ang^3
#
#
#
# Elastic Constant Matrix: (Units=GPa)
#
#
# Indices 1 2 3 4 5 6 
#
# 1 119.0780 99.3236 47.1833 0.0000 0.0000 0.0000
# 2 99.3236 120.2457 50.1972 0.0000 0.0000 0.0000
# 3 47.1833 50.1972 43.0112 0.0000 0.0000 0.0000
# 4 0.0000 0.0000 0.0000 19.5358 0.0000 0.0000
# 5 0.0000 0.0000 0.0000 0.0000 21.7145 0.0000
# 6 0.0000 0.0000 0.0000 0.0000 0.0000 39.0684
#
#
#
# Elastic Compliance Matrix: (Units=1/GPa)
#
#
# Indices 1 2 3 4 5 6 
#
# 1 0.028127 -0.020188 -0.007295 0.000000 0.000000 0.000000
# 2 -0.020188 0.030707 -0.013691 0.000000 0.000000 0.000000
# 3 -0.007295 -0.013691 0.047231 0.000000 0.000000 0.000000
# 4 0.000000 0.000000 0.000000 0.051188 0.000000 0.000000
# 5 0.000000 0.000000 0.000000 0.000000 0.046052 0.000000
# 6 0.000000 0.000000 0.000000 0.000000 0.000000 0.025596
#
#
# Mechanical properties :
#
#
# Convention : Reuss Voigt Hill
#
# Bulk Modulus (GPa) = 42.16341 75.08256 58.62298
# Shear Modulus (GPa) = 15.66631 21.77244 18.71937
#
# Velocity S-wave (km/s) = 3.07499 3.62504 3.36129
# Velocity P-wave (km/s) = 6.16891 7.92704 7.10259
#
# Compressibility (1/GPa) = 0.02371725
#
# Stress axis : x y z
#
# Youngs Moduli (GPa) = 35.55264 32.56545 21.17259
#
# Poissons Ratio (x) = 0.65744 0.15445
# Poissons Ratio (y) = 0.71774 0.28988
# Poissons Ratio (z) = 0.25934 0.44587
#
# Static dielectric constant tensor:
#      x y z
#    x 1.551570 0.000000 0.000000 
#    y 0.000000 1.542630 0.000000 
#    z 0.000000 0.000000 1.550290 
# 
# From -- ./inp_files/12319.got.cif
#   From: 2010.05.17/outbox.cif.g08.bks.cpg/sg65_7_cif.got.tgz:12319.got - 2010.06.03 17:01:31.
