data_PCOD9489317
_publ_section_title
;
Structure prediction by ZEFSAII (Michael W. Deem and Ramdas Pophale) SiO2 
 PCOD9489317
Probable space group: C M M M
;
_chemical_formula_sum "Si O2"
_cell_formula_units_Z 88
_cell_length_a 15.890345
_cell_length_b 9.336110
_cell_length_c 29.302524
_cell_angle_alpha 90.000000
_cell_angle_beta 90.000000
_cell_angle_gamma 90.000000
_cell_volume 4347.146905
_symmetry_space_group_name_H-M "C M M M"
_symmetry_group_IT_number 65
_symmetry_cell_setting 'orthorhombic'
loop_
_space_group_symop_operation_xyz
x,y,z
-x,-y,z
x,-y,-z
-x,y,-z
-x,-y,-z
x,y,-z
-x,y,z
x,-y,z
1/2+x,1/2+y,z
1/2-x,1/2-y,z
1/2+x,1/2-y,-z
1/2-x,1/2+y,-z
1/2-x,1/2-y,-z
1/2+x,1/2+y,-z
1/2-x,1/2+y,z
1/2+x,1/2-y,z
loop_
_atom_site_type_symbol
_atom_site_label
_atom_site_fract_x
_atom_site_fract_y
_atom_site_fract_z
Si Si1 0.398629 0.162850 0.448147
Si Si2 0.396800 0.164276 0.000000
Si Si3 0.602969 0.333497 0.190650
Si Si4 0.162001 0.170628 0.638229
Si Si5 0.897433 0.833731 0.089037
Si Si6 0.599378 0.839622 0.277182
O O1 0.370268 0.193310 0.500000
O O2 0.500000 0.160639 0.448548
O O3 0.370476 0.276099 0.410863
O O4 0.370624 0.000000 0.435989
O O5 0.368107 0.242307 0.953887
O O6 0.500000 0.168929 0.000000
O O7 0.371119 0.000000 0.000000
O O8 0.500000 0.331142 0.191273
O O9 0.626843 0.500000 0.197174
O O10 0.629066 0.285988 0.139776
O O11 0.634844 0.235347 0.231789
O O12 0.250000 0.250000 0.644485
O O13 0.108426 0.237046 0.679377
O O14 0.166426 0.000000 0.640542
O O15 0.000000 0.828834 0.088787
O O16 0.874015 0.000000 0.083422
O O17 0.500000 0.854610 0.269383
O O18 0.634055 0.000000 0.285438
#
# Coordination Sequence:
#
# PCOD9489317 Si02
#       6
#    16   8  16  16  16  16
#     4   9  19  38  63  88 114 143 174 210 252 298
#     4   9  15  19  25  41  67 101 142 187 234 287
#     4   8  14  25  41  61  84 113 154 201 245 292
#     4  12  25  39  56  78 107 141 176 215 257 303
#     4   8  13  21  32  46  69 104 145 188 234 286
#     4  10  20  34  53  76 102 132 167 209 257 308
#
# _framework density 20.243161000000001
#
# number of rings (size 3 to 8) (size 9 to 14) (size 15 to 20)
#    0.000    2.636    0.000    4.636    0.000    6.182 
#    0.000    4.545    0.000    0.000    0.000    0.000 
#    0.000    0.000    0.000    0.818    0.000   11.636 
#
# Total GULP energy -245432.854752 kJ/mol
# GULP energy per Si atom -5578.019426 kJ/mol
# Density = 2.019709 g / cm^3
# Si number density = 20.243161 Si / 1000 Ang^3
#
#
#
# Elastic Constant Matrix: (Units=GPa)
#
#
# Indices 1 2 3 4 5 6 
#
# 1 10.5634 9.0563 2.7494 0.0000 0.0000 0.0000
# 2 9.0563 164.1825 109.9308 0.0000 0.0000 0.0000
# 3 2.7494 109.9308 151.1655 0.0000 0.0000 0.0000
# 4 0.0000 0.0000 0.0000 33.4345 0.0000 0.0000
# 5 0.0000 0.0000 0.0000 0.0000 -33.4198 0.0000
# 6 0.0000 0.0000 0.0000 0.0000 0.0000 18.0855
#
#
#
# Elastic Compliance Matrix: (Units=1/GPa)
#
#
# Indices 1 2 3 4 5 6 
#
# 1 0.100784 -0.008443 0.004307 0.000000 0.000000 0.000000
# 2 -0.008443 0.012578 -0.008994 0.000000 0.000000 0.000000
# 3 0.004307 -0.008994 0.013077 0.000000 0.000000 0.000000
# 4 0.000000 0.000000 0.000000 0.029909 0.000000 0.000000
# 5 0.000000 0.000000 0.000000 0.000000 -0.029922 0.000000
# 6 0.000000 0.000000 0.000000 0.000000 0.000000 0.055293
#
#
# Mechanical properties :
#
#
# Convention : Reuss Voigt Hill
#
# Bulk Modulus (GPa) = 9.98201 63.26492 36.62347
# Shear Modulus (GPa) = 20.71486 17.23169 18.97328
#
# Velocity S-wave (km/s) = 3.20238 2.92076 3.06481
# Velocity P-wave (km/s) = 4.31456 6.53412 5.53670
#
# Compressibility (1/GPa) = 0.10018026
#
# Stress axis : x y z
#
# Youngs Moduli (GPa) = 9.92219 79.50176 76.46824
#
# Poissons Ratio (x) = 0.67122 -0.32933
# Poissons Ratio (y) = 0.08377 0.68773
# Poissons Ratio (z) = -0.04273 0.71501
#
# Static dielectric constant tensor:
#      x y z
#    x 1.799620 0.000000 0.000000 
#    y 0.000000 1.697470 0.000000 
#    z 0.000000 0.000000 1.745460 
# 
# From -- ./inp_files/77912.got.cif
#   From: 2010.05.17/outbox.cif.g08.bks.cpg/sg65_39_cif.got.tgz:77912.got - 2010.06.03 17:01:31.
