data_PCOD9489390
_publ_section_title
;
Structure prediction by ZEFSAII (Michael W. Deem and Ramdas Pophale) SiO2 
 PCOD9489390
Probable space group: C M M M
;
_chemical_formula_sum "Si O2"
_cell_formula_units_Z 88
_cell_length_a 17.763996
_cell_length_b 31.353627
_cell_length_c 9.270644
_cell_angle_alpha 90.000000
_cell_angle_beta 90.000000
_cell_angle_gamma 90.000000
_cell_volume 5163.430768
_symmetry_space_group_name_H-M "C M M M"
_symmetry_group_IT_number 65
_symmetry_cell_setting 'orthorhombic'
loop_
_space_group_symop_operation_xyz
x,y,z
-x,-y,z
x,-y,-z
-x,y,-z
-x,-y,-z
x,y,-z
-x,y,z
x,-y,z
1/2+x,1/2+y,z
1/2-x,1/2-y,z
1/2+x,1/2-y,-z
1/2-x,1/2+y,-z
1/2-x,1/2-y,-z
1/2+x,1/2+y,-z
1/2-x,1/2+y,z
1/2+x,1/2-y,z
loop_
_atom_site_type_symbol
_atom_site_label
_atom_site_fract_x
_atom_site_fract_y
_atom_site_fract_z
Si Si1 0.694198 0.616302 0.667136
Si Si2 0.589010 0.451247 0.173400
Si Si3 0.133903 0.415548 0.332369
Si Si4 0.590442 0.000000 0.166108
Si Si5 0.416488 0.167237 0.171434
Si Si6 0.273104 0.201047 0.329615
O O1 0.669538 0.616915 0.500000
O O2 0.638128 0.586152 0.755729
O O3 0.777665 0.595924 0.673938
O O4 0.710437 0.665512 0.713975
O O5 0.500000 0.446217 0.206614
O O6 0.610933 0.500000 0.217908
O O7 0.596966 0.449235 0.000000
O O8 0.111667 0.417806 0.500000
O O9 0.118954 0.458931 0.250122
O O10 0.090209 0.378249 0.249772
O O11 0.500000 0.000000 0.166896
O O12 0.616020 0.000000 0.000000
O O13 0.500000 0.185254 0.197390
O O14 0.348452 0.193702 0.238982
O O15 0.406586 0.162110 0.000000
O O16 0.288398 0.192191 0.500000
O O17 0.250000 0.250000 0.315562
#
# Coordination Sequence:
#
# PCOD9489390 Si02
#       6
#    16  16  16   8  16  16
#     4   9  19  34  53  78 103 130 170 217 261 310
#     4   9  19  35  53  75 104 139 178 216 259 318
#     4  10  21  35  51  73 102 137 176 216 256 305
#     4  11  23  35  47  69 102 137 174 215 257 300
#     4  10  20  34  53  78 106 135 172 216 261 313
#     4   9  19  37  58  79 105 138 177 220 267 322
#
# _framework density 17.042933000000001
#
# number of rings (size 3 to 8) (size 9 to 14) (size 15 to 20)
#    0.000    2.455    0.000    3.545    1.273    9.091 
#    0.000    1.818    0.000    5.455    0.000    0.000 
#    0.000    0.000    0.000    0.000    0.000    0.000 
#
# Total GULP energy -245305.974563 kJ/mol
# GULP energy per Si atom -5575.135786 kJ/mol
# Density = 1.700414 g / cm^3
# Si number density = 17.042933 Si / 1000 Ang^3
#
#
#
# Elastic Constant Matrix: (Units=GPa)
#
#
# Indices 1 2 3 4 5 6 
#
# 1 72.3720 54.0797 49.7826 0.0000 0.0000 0.0000
# 2 54.0797 123.3754 62.8608 0.0000 0.0000 0.0000
# 3 49.7826 62.8608 87.2170 0.0000 0.0000 0.0000
# 4 0.0000 0.0000 0.0000 26.8917 0.0000 0.0000
# 5 0.0000 0.0000 0.0000 0.0000 43.7901 0.0000
# 6 0.0000 0.0000 0.0000 0.0000 0.0000 7.7594
#
#
#
# Elastic Compliance Matrix: (Units=1/GPa)
#
#
# Indices 1 2 3 4 5 6 
#
# 1 0.025180 -0.005870 -0.010142 0.000000 0.000000 0.000000
# 2 -0.005870 0.014178 -0.006868 0.000000 0.000000 0.000000
# 3 -0.010142 -0.006868 0.022204 0.000000 0.000000 0.000000
# 4 0.000000 0.000000 0.000000 0.037186 0.000000 0.000000
# 5 0.000000 0.000000 0.000000 0.000000 0.022836 0.000000
# 6 0.000000 0.000000 0.000000 0.000000 0.000000 0.128876
#
#
# Mechanical properties :
#
#
# Convention : Reuss Voigt Hill
#
# Bulk Modulus (GPa) = 63.27971 68.49006 65.88489
# Shear Modulus (GPa) = 16.58445 23.43767 20.01106
#
# Velocity S-wave (km/s) = 3.12284 3.71241 3.43031
# Velocity P-wave (km/s) = 7.08611 7.65833 7.37777
#
# Compressibility (1/GPa) = 0.01580285
#
# Stress axis : x y z
#
# Youngs Moduli (GPa) = 39.71393 70.53403 45.03607
#
# Poissons Ratio (x) = 0.41403 0.45675
# Poissons Ratio (y) = 0.23312 0.30930
# Poissons Ratio (z) = 0.40277 0.48441
#
# Static dielectric constant tensor:
#      x y z
#    x 1.569760 0.000000 0.000000 
#    y 0.000000 1.605500 0.000000 
#    z 0.000000 0.000000 1.570850 
# 
# From -- ./inp_files/10132.got.cif
#   From: 2010.05.17/outbox.cif.g08.bks.cpg/sg65_6_cif.got.tgz:10132.got - 2010.06.03 17:01:31.
