data_PCOD9489569
_publ_section_title
;
Structure prediction by ZEFSAII (Michael W. Deem and Ramdas Pophale) SiO2 
 PCOD9489569
Probable space group: C M M M
;
_chemical_formula_sum "Si O2"
_cell_formula_units_Z 104
_cell_length_a 8.935271
_cell_length_b 27.466747
_cell_length_c 21.505246
_cell_angle_alpha 90.000000
_cell_angle_beta 90.000000
_cell_angle_gamma 90.000000
_cell_volume 5277.878289
_symmetry_space_group_name_H-M "C M M M"
_symmetry_group_IT_number 65
_symmetry_cell_setting 'orthorhombic'
loop_
_space_group_symop_operation_xyz
x,y,z
-x,-y,z
x,-y,-z
-x,y,-z
-x,-y,-z
x,y,-z
-x,y,z
x,-y,z
1/2+x,1/2+y,z
1/2-x,1/2-y,z
1/2+x,1/2-y,-z
1/2-x,1/2+y,-z
1/2-x,1/2-y,-z
1/2+x,1/2+y,-z
1/2-x,1/2+y,z
1/2+x,1/2-y,z
loop_
_atom_site_type_symbol
_atom_site_label
_atom_site_fract_x
_atom_site_fract_y
_atom_site_fract_z
Si Si1 0.331425 0.057679 0.500000
Si Si2 0.819356 0.658548 0.069902
Si Si3 0.178136 0.200244 0.192696
Si Si4 0.679178 0.602165 0.620070
Si Si5 0.177450 0.697951 0.573791
Si Si6 0.180084 0.446421 0.119209
Si Si7 0.320800 0.406537 0.242125
O O1 0.500000 0.078869 0.500000
O O2 0.246802 0.073944 0.561860
O O3 0.340966 0.000000 0.500000
O O4 0.742140 0.689515 0.123771
O O5 0.775579 0.601666 0.080611
O O6 0.000000 0.661831 0.076722
O O7 0.779585 0.673420 0.000000
O O8 0.250000 0.250000 0.217255
O O9 0.213086 0.150800 0.230485
O O10 0.000000 0.205649 0.190562
O O11 0.500000 0.603288 0.616238
O O12 0.743427 0.656393 0.613241
O O13 0.720905 0.580848 0.687365
O O14 0.202867 0.687534 0.500000
O O15 0.250000 0.750000 0.586855
O O16 0.000000 0.698905 0.584305
O O17 0.230653 0.500000 0.097270
O O18 0.238917 0.436732 0.188820
O O19 0.000000 0.446726 0.119346
O O20 0.500000 0.412518 0.234764
#
# Coordination Sequence:
#
# PCOD9489569 Si02
#       7
#     8  16  16  16  16  16  16
#     4  11  25  43  60  81 110 143 181 225 275 331
#     4   9  18  33  53  79 111 145 182 223 267 317
#     4  10  20  36  56  78 109 145 183 224 266 313
#     4  11  22  38  60  83 110 142 180 226 277 329
#     4  10  20  34  54  80 111 142 174 211 259 317
#     4   9  18  33  54  80 108 140 179 223 272 322
#     4   9  21  38  55  79 108 141 180 223 270 322
#
# _framework density 19.704888
#
# number of rings (size 3 to 8) (size 9 to 14) (size 15 to 20)
#    0.000    2.231    0.769    1.615    0.000    5.538 
#    0.000    6.154    0.000    0.000    0.000    4.308 
#    0.000    0.000    0.000    0.000    0.000    0.000 
#
# Total GULP energy -290353.712712 kJ/mol
# GULP energy per Si atom -5583.725244 kJ/mol
# Density = 1.966004 g / cm^3
# Si number density = 19.704888 Si / 1000 Ang^3
#
#
#
# Elastic Constant Matrix: (Units=GPa)
#
#
# Indices 1 2 3 4 5 6 
#
# 1 35.2209 1.7461 13.5721 0.0000 0.0000 0.0000
# 2 1.7461 45.5242 -18.5931 0.0000 0.0000 0.0000
# 3 13.5721 -18.5931 67.7263 0.0000 0.0000 0.0000
# 4 0.0000 0.0000 0.0000 2.9172 0.0000 0.0000
# 5 0.0000 0.0000 0.0000 0.0000 23.3740 0.0000
# 6 0.0000 0.0000 0.0000 0.0000 0.0000 27.4702
#
#
#
# Elastic Compliance Matrix: (Units=1/GPa)
#
#
# Indices 1 2 3 4 5 6 
#
# 1 0.031486 -0.004263 -0.007480 0.000000 0.000000 0.000000
# 2 -0.004263 0.025317 0.007805 0.000000 0.000000 0.000000
# 3 -0.007480 0.007805 0.018407 0.000000 0.000000 0.000000
# 4 0.000000 0.000000 0.000000 0.342798 0.000000 0.000000
# 5 0.000000 0.000000 0.000000 0.000000 0.042783 0.000000
# 6 0.000000 0.000000 0.000000 0.000000 0.000000 0.036403
#
#
# Mechanical properties :
#
#
# Convention : Reuss Voigt Hill
#
# Bulk Modulus (GPa) = 14.85122 15.76907 15.31014
# Shear Modulus (GPa) = 9.47842 20.86870 15.17356
#
# Velocity S-wave (km/s) = 2.19559 3.25785 2.77797
# Velocity P-wave (km/s) = 3.73908 4.70866 4.25160
#
# Compressibility (1/GPa) = 0.06733456
#
# Stress axis : x y z
#
# Youngs Moduli (GPa) = 31.76021 39.49846 54.32736
#
# Poissons Ratio (x) = 0.16837 0.40637
# Poissons Ratio (y) = 0.13538 -0.42401
# Poissons Ratio (z) = 0.23756 -0.30827
#
# Static dielectric constant tensor:
#      x y z
#    x 1.655410 0.000000 0.000000 
#    y 0.000000 1.710320 0.000000 
#    z 0.000000 0.000000 1.687790 
# 
# From -- ./inp_files/60405.got.cif
#   From: 2010.05.17/outbox.cif.g08.bks.cpg/sg65_31_cif.got.tgz:60405.got - 2010.06.03 17:01:31.
