data_PCOD9489565
_publ_section_title
;
Structure prediction by ZEFSAII (Michael W. Deem and Ramdas Pophale) SiO2 
 PCOD9489565
Probable space group: C M M M
;
_chemical_formula_sum "Si O2"
_cell_formula_units_Z 64
_cell_length_a 9.033488
_cell_length_b 19.410056
_cell_length_c 20.597563
_cell_angle_alpha 90.000000
_cell_angle_beta 90.000000
_cell_angle_gamma 90.000000
_cell_volume 3611.587159
_symmetry_space_group_name_H-M "C M M M"
_symmetry_group_IT_number 65
_symmetry_cell_setting 'orthorhombic'
loop_
_space_group_symop_operation_xyz
x,y,z
-x,-y,z
x,-y,-z
-x,y,-z
-x,-y,-z
x,y,-z
-x,y,z
x,-y,z
1/2+x,1/2+y,z
1/2-x,1/2-y,z
1/2+x,1/2-y,-z
1/2-x,1/2+y,-z
1/2-x,1/2-y,-z
1/2+x,1/2+y,-z
1/2-x,1/2+y,z
1/2+x,1/2-y,z
loop_
_atom_site_type_symbol
_atom_site_label
_atom_site_fract_x
_atom_site_fract_y
_atom_site_fract_z
Si Si1 0.674683 0.917483 0.133937
Si Si2 0.176989 0.418472 0.500000
Si Si3 0.829397 0.916185 0.000000
Si Si4 0.823613 0.824203 0.393026
Si Si5 0.175743 0.823747 0.759584
O O1 0.500000 0.902957 0.133612
O O2 0.752835 0.879707 0.193411
O O3 0.694203 0.000000 0.139357
O O4 0.746873 0.894732 0.065707
O O5 0.206715 0.500000 0.500000
O O6 0.248820 0.381280 0.437909
O O7 0.000000 0.408118 0.500000
O O8 0.000000 0.893794 0.000000
O O9 0.827962 0.000000 0.000000
O O10 0.750000 0.750000 0.407251
O O11 0.799209 0.839158 0.316693
O O12 0.000000 0.820677 0.404747
O O13 0.250000 0.750000 0.772967
O O14 0.000000 0.819784 0.770118
#
# Coordination Sequence:
#
# PCOD9489565 Si02
#       5
#    16   8   8  16  16
#     4  10  20  34  54  80 110 144 181 222 269 321
#     4  11  24  39  56  81 113 145 178 221 270 317
#     4   9  17  31  52  77 106 141 182 225 267 317
#     4  10  21  38  60  82 107 142 182 222 265 320
#     4  10  21  37  57  81 109 142 180 222 269 320
#
# _framework density 17.720742000000001
#
# number of rings (size 3 to 8) (size 9 to 14) (size 15 to 20)
#    0.000    2.000    0.000    3.375    0.000    8.000 
#    0.000    5.625    0.000    0.000    0.000    0.000 
#    0.000    0.000    0.000    0.000    0.000    0.000 
#
# Total GULP energy -178724.224208 kJ/mol
# GULP energy per Si atom -5585.132007 kJ/mol
# Density = 1.768041 g / cm^3
# Si number density = 17.720742 Si / 1000 Ang^3
#
#
#
# Elastic Constant Matrix: (Units=GPa)
#
#
# Indices 1 2 3 4 5 6 
#
# 1 149.9813 86.1526 101.3624 0.0000 0.0000 0.0000
# 2 86.1526 84.9678 82.9942 0.0000 0.0000 0.0000
# 3 101.3624 82.9942 119.9042 0.0000 0.0000 0.0000
# 4 0.0000 0.0000 0.0000 36.3175 0.0000 0.0000
# 5 0.0000 0.0000 0.0000 0.0000 35.2818 0.0000
# 6 0.0000 0.0000 0.0000 0.0000 0.0000 32.8077
#
#
#
# Elastic Compliance Matrix: (Units=1/GPa)
#
#
# Indices 1 2 3 4 5 6 
#
# 1 0.018182 -0.010565 -0.008057 0.000000 0.000000 0.000000
# 2 -0.010565 0.042474 -0.020468 0.000000 0.000000 0.000000
# 3 -0.008057 -0.020468 0.029319 0.000000 0.000000 0.000000
# 4 0.000000 0.000000 0.000000 0.027535 0.000000 0.000000
# 5 0.000000 0.000000 0.000000 0.000000 0.028343 0.000000
# 6 0.000000 0.000000 0.000000 0.000000 0.000000 0.030481
#
#
# Mechanical properties :
#
#
# Convention : Reuss Voigt Hill
#
# Bulk Modulus (GPa) = 84.79073 99.54127 92.16600
# Shear Modulus (GPa) = 19.34643 26.50436 22.92539
#
# Velocity S-wave (km/s) = 3.30773 3.87158 3.60071
# Velocity P-wave (km/s) = 7.90824 8.73382 8.33127
#
# Compressibility (1/GPa) = 0.01179374
#
# Stress axis : x y z
#
# Youngs Moduli (GPa) = 55.00043 23.54361 34.10800
#
# Poissons Ratio (x) = 0.24874 0.27481
# Poissons Ratio (y) = 0.58109 0.69813
# Poissons Ratio (z) = 0.44315 0.48189
#
# Static dielectric constant tensor:
#      x y z
#    x 1.588210 0.000000 0.000000 
#    y 0.000000 1.572800 0.000000 
#    z 0.000000 0.000000 1.591800 
# 
# From -- ./inp_files/58786.got.cif
#   From: 2010.05.17/outbox.cif.g08.bks.cpg/sg65_30_cif.got.tgz:58786.got - 2010.06.03 17:01:31.
