data_PCOD9489270
_publ_section_title
;
Structure prediction by ZEFSAII (Michael W. Deem and Ramdas Pophale) SiO2 
 PCOD9489270
Probable space group: C M M M
;
_chemical_formula_sum "Si O2"
_cell_formula_units_Z 74
_cell_length_a 23.962924
_cell_length_b 8.530634
_cell_length_c 20.925495
_cell_angle_alpha 90.000000
_cell_angle_beta 90.000000
_cell_angle_gamma 90.000000
_cell_volume 4277.567386
_symmetry_space_group_name_H-M "C M M M"
_symmetry_group_IT_number 65
_symmetry_cell_setting 'orthorhombic'
loop_
_space_group_symop_operation_xyz
x,y,z
-x,-y,z
x,-y,-z
-x,y,-z
-x,-y,-z
x,y,-z
-x,y,z
x,-y,z
1/2+x,1/2+y,z
1/2-x,1/2-y,z
1/2+x,1/2-y,-z
1/2-x,1/2+y,-z
1/2-x,1/2-y,-z
1/2+x,1/2+y,-z
1/2-x,1/2+y,z
1/2+x,1/2-y,z
loop_
_atom_site_type_symbol
_atom_site_label
_atom_site_fract_x
_atom_site_fract_y
_atom_site_fract_z
Si Si1 0.312466 0.688946 0.500000
Si Si2 0.500000 0.000000 0.000000
Si Si3 0.188448 0.688162 0.262136
Si Si4 0.883716 0.324124 0.000000
Si Si5 0.688507 0.810199 0.115979
Si Si6 0.616473 0.312030 0.623083
Si Si7 0.000000 0.312174 0.425629
O O1 0.311741 0.500000 0.500000
O O2 0.250000 0.750000 0.500000
O O3 0.345152 0.740944 0.563401
O O4 0.449504 0.136277 0.000000
O O5 0.188914 0.500000 0.264195
O O6 0.250000 0.750000 0.280032
O O7 0.177450 0.741551 0.189046
O O8 0.143426 0.750945 0.311811
O O9 0.857840 0.254516 0.935089
O O10 0.857985 0.500000 0.000000
O O11 0.750000 0.750000 0.097270
O O12 0.689550 0.000000 0.119013
O O13 0.615684 0.500000 0.623752
O O14 0.554969 0.249498 0.609196
O O15 0.000000 0.500000 0.425485
O O16 0.000000 0.258483 0.500000
#
# Coordination Sequence:
#
# PCOD9489270 Si02
#       7
#     8   2  16   8  16  16   8
#     4  10  22  35  52  77 101 130 172 218 269 324
#     4   8  16  28  52  76 110 144 184 228 270 312
#     4  10  20  34  52  78 112 145 179 224 278 335
#     4   8  15  29  49  77 106 142 188 223 273 319
#     4   9  17  30  51  79 113 141 180 228 277 330
#     4  11  22  38  57  77 105 143 183 223 273 330
#     4  11  23  39  60  83 105 137 177 229 279 322
#
# _framework density 17.299551999999998
#
# number of rings (size 3 to 8) (size 9 to 14) (size 15 to 20)
#    0.324    1.838    1.081    2.595    0.000    4.757 
#    0.000    1.081    2.378    0.000    0.000    1.514 
#    0.000    0.000    0.000    0.000    0.000    0.000 
#
# Total GULP energy -205972.047235 kJ/mol
# GULP energy per Si atom -5566.812087 kJ/mol
# Density = 1.726018 g / cm^3
# Si number density = 17.299552 Si / 1000 Ang^3
#
#
#
# Elastic Constant Matrix: (Units=GPa)
#
#
# Indices 1 2 3 4 5 6 
#
# 1 179.9862 27.9264 102.1960 0.0000 0.0000 0.0000
# 2 27.9264 30.1444 23.9778 0.0000 0.0000 0.0000
# 3 102.1960 23.9778 117.6880 0.0000 0.0000 0.0000
# 4 0.0000 0.0000 0.0000 23.7842 0.0000 0.0000
# 5 0.0000 0.0000 0.0000 0.0000 12.4627 0.0000
# 6 0.0000 0.0000 0.0000 0.0000 0.0000 32.2979
#
#
#
# Elastic Compliance Matrix: (Units=1/GPa)
#
#
# Indices 1 2 3 4 5 6 
#
# 1 0.011205 -0.003152 -0.009088 0.000000 0.000000 0.000000
# 2 -0.003152 0.040476 -0.005510 0.000000 0.000000 0.000000
# 3 -0.009088 -0.005510 0.017511 0.000000 0.000000 0.000000
# 4 0.000000 0.000000 0.000000 0.042045 0.000000 0.000000
# 5 0.000000 0.000000 0.000000 0.000000 0.080239 0.000000
# 6 0.000000 0.000000 0.000000 0.000000 0.000000 0.030962
#
#
# Mechanical properties :
#
#
# Convention : Reuss Voigt Hill
#
# Bulk Modulus (GPa) = 29.67925 70.66877 50.17401
# Shear Modulus (GPa) = 18.57571 25.29019 21.93295
#
# Velocity S-wave (km/s) = 3.28039 3.82763 3.56453
# Velocity P-wave (km/s) = 5.61616 7.77644 6.78286
#
# Compressibility (1/GPa) = 0.03369358
#
# Stress axis : x y z
#
# Youngs Moduli (GPa) = 89.24445 24.70585 57.10595
#
# Poissons Ratio (x) = 0.07787 0.51898
# Poissons Ratio (y) = 0.28128 0.31464
# Poissons Ratio (z) = 0.81106 0.13612
#
# Static dielectric constant tensor:
#      x y z
#    x 1.541030 0.000000 0.000000 
#    y 0.000000 1.593500 0.000000 
#    z 0.000000 0.000000 1.624120 
# 
# From -- ./inp_files/65034.got.cif
#   From: 2010.05.17/outbox.cif.g08.bks.cpg/sg65_33_cif.got.tgz:65034.got - 2010.06.03 17:01:31.
