data_PCOD9489617
_publ_section_title
;
Structure prediction by ZEFSAII (Michael W. Deem and Ramdas Pophale) SiO2 
 PCOD9489617
Probable space group: C M M M
;
_chemical_formula_sum "Si O2"
_cell_formula_units_Z 88
_cell_length_a 18.633159
_cell_length_b 14.435884
_cell_length_c 16.267182
_cell_angle_alpha 90.000000
_cell_angle_beta 90.000000
_cell_angle_gamma 90.000000
_cell_volume 4375.646200
_symmetry_space_group_name_H-M "C M M M"
_symmetry_group_IT_number 65
_symmetry_cell_setting 'orthorhombic'
loop_
_space_group_symop_operation_xyz
x,y,z
-x,-y,z
x,-y,-z
-x,y,-z
-x,-y,-z
x,y,-z
-x,y,z
x,-y,z
1/2+x,1/2+y,z
1/2-x,1/2-y,z
1/2+x,1/2-y,-z
1/2-x,1/2+y,-z
1/2-x,1/2-y,-z
1/2+x,1/2+y,-z
1/2-x,1/2+y,z
1/2+x,1/2-y,z
loop_
_atom_site_type_symbol
_atom_site_label
_atom_site_fract_x
_atom_site_fract_y
_atom_site_fract_z
Si Si1 0.709049 0.895482 0.843967
Si Si2 0.703155 0.101217 0.500000
Si Si3 0.920733 0.246350 0.500000
Si Si4 0.734469 0.641598 0.324486
Si Si5 0.500000 0.606434 0.100497
Si Si6 0.853800 0.207839 0.901333
Si Si7 0.421535 0.606080 0.652252
O O1 0.714898 0.899735 0.745240
O O2 0.785701 0.854762 0.874824
O O3 0.655357 0.812544 0.868029
O O4 0.695865 0.000000 0.875365
O O5 0.644035 0.181671 0.500000
O O6 0.749993 0.109202 0.582856
O O7 0.668396 0.000000 0.500000
O O8 0.916995 0.179605 0.578676
O O9 0.000000 0.291290 0.500000
O O10 0.750000 0.750000 0.323003
O O11 0.652436 0.620512 0.300137
O O12 0.500000 0.500000 0.129482
O O13 0.572199 0.659903 0.124562
O O14 0.500000 0.603610 0.000000
O O15 0.852099 0.213232 0.000000
O O16 0.500000 0.618704 0.692811
O O17 0.420184 0.500000 0.621433
#
# Coordination Sequence:
#
# PCOD9489617 Si02
#       7
#    16   8   8  16   8  16  16
#     4  11  22  38  60  88 125 162 202 253 302 360
#     4  12  24  38  61  83 110 158 209 255 306 362
#     4  10  20  34  54  82 110 143 188 243 304 357
#     4  12  22  41  60  86 118 157 202 255 303 360
#     4   9  18  36  63  95 129 162 200 247 298 359
#     4  10  21  38  62  94 126 160 202 246 298 363
#     4  10  20  35  56  83 114 144 181 236 302 364
#
# _framework density 20.111315999999999
#
# number of rings (size 3 to 8) (size 9 to 14) (size 15 to 20)
#    0.000    1.364    3.636    4.364    0.000    3.455 
#    1.636    0.455    2.000    1.636    0.000    0.000 
#    0.000    0.000    0.000    0.000    0.000    0.000 
#
# Total GULP energy -245736.967465 kJ/mol
# GULP energy per Si atom -5584.931079 kJ/mol
# Density = 2.006554 g / cm^3
# Si number density = 20.111316 Si / 1000 Ang^3
#
#
#
# Elastic Constant Matrix: (Units=GPa)
#
#
# Indices 1 2 3 4 5 6 
#
# 1 129.7879 70.0971 25.2050 0.0000 0.0000 0.0000
# 2 70.0971 187.9632 24.9873 0.0000 0.0000 0.0000
# 3 25.2050 24.9873 91.3827 0.0000 0.0000 0.0000
# 4 0.0000 0.0000 0.0000 12.4457 0.0000 0.0000
# 5 0.0000 0.0000 0.0000 0.0000 25.0956 0.0000
# 6 0.0000 0.0000 0.0000 0.0000 0.0000 25.3098
#
#
#
# Elastic Compliance Matrix: (Units=1/GPa)
#
#
# Indices 1 2 3 4 5 6 
#
# 1 0.009923 -0.003462 -0.001790 0.000000 0.000000 0.000000
# 2 -0.003462 0.006729 -0.000885 0.000000 0.000000 0.000000
# 3 -0.001790 -0.000885 0.011679 0.000000 0.000000 0.000000
# 4 0.000000 0.000000 0.000000 0.080349 0.000000 0.000000
# 5 0.000000 0.000000 0.000000 0.000000 0.039848 0.000000
# 6 0.000000 0.000000 0.000000 0.000000 0.000000 0.039510
#
#
# Mechanical properties :
#
#
# Convention : Reuss Voigt Hill
#
# Bulk Modulus (GPa) = 62.28441 72.19029 67.23735
# Shear Modulus (GPa) = 24.31151 31.82652 28.06901
#
# Velocity S-wave (km/s) = 3.48062 3.98240 3.73994
# Velocity P-wave (km/s) = 6.86950 7.55773 7.22182
#
# Compressibility (1/GPa) = 0.01605538
#
# Stress axis : x y z
#
# Youngs Moduli (GPa) = 100.78055 148.60857 85.62594
#
# Poissons Ratio (x) = 0.51455 0.15328
# Poissons Ratio (y) = 0.34895 0.07578
# Poissons Ratio (z) = 0.18040 0.13151
#
# Static dielectric constant tensor:
#      x y z
#    x 1.719060 0.000000 0.000000 
#    y 0.000000 1.682100 0.000000 
#    z 0.000000 0.000000 1.756120 
# 
# From -- ./inp_files/54380.got.cif
#   From: 2010.05.17/outbox.cif.g08.bks.cpg/sg65_28_cif.got.tgz:54380.got - 2010.06.03 17:01:31.
