data_PCOD9489047
_publ_section_title
;
Structure prediction by ZEFSAII (Michael W. Deem and Ramdas Pophale) SiO2 
 PCOD9489047
Probable space group: C M M M
;
_chemical_formula_sum "Si O2"
_cell_formula_units_Z 104
_cell_length_a 26.867623
_cell_length_b 9.959856
_cell_length_c 24.865932
_cell_angle_alpha 90.000000
_cell_angle_beta 90.000000
_cell_angle_gamma 90.000000
_cell_volume 6654.065121
_symmetry_space_group_name_H-M "C M M M"
_symmetry_group_IT_number 65
_symmetry_cell_setting 'orthorhombic'
loop_
_space_group_symop_operation_xyz
x,y,z
-x,-y,z
x,-y,-z
-x,y,-z
-x,-y,-z
x,y,-z
-x,y,z
x,-y,z
1/2+x,1/2+y,z
1/2-x,1/2-y,z
1/2+x,1/2-y,-z
1/2-x,1/2+y,-z
1/2-x,1/2-y,-z
1/2+x,1/2+y,-z
1/2-x,1/2+y,z
1/2+x,1/2-y,z
loop_
_atom_site_type_symbol
_atom_site_label
_atom_site_fract_x
_atom_site_fract_y
_atom_site_fract_z
Si Si1 0.440530 0.000000 0.437560
Si Si2 0.060803 0.344730 0.157927
Si Si3 0.560461 0.652920 0.938353
Si Si4 0.294820 0.850721 0.500000
Si Si5 0.096212 0.248646 0.368211
Si Si6 0.700233 0.840974 0.380317
Si Si7 0.559849 0.500000 0.564369
Si Si8 0.940831 0.153239 0.254397
O O1 0.424158 0.874502 0.401598
O O2 0.500000 0.000000 0.441836
O O3 0.420991 0.000000 0.500000
O O4 0.077029 0.500000 0.159702
O O5 0.076466 0.264579 0.104261
O O6 0.077750 0.255721 0.208782
O O7 0.000000 0.346946 0.158366
O O8 0.500000 0.653692 0.938104
O O9 0.575222 0.500000 0.923313
O O10 0.576004 0.678460 0.000000
O O11 0.250000 0.750000 0.500000
O O12 0.319566 0.834017 0.557467
O O13 0.273271 0.000000 0.500000
O O14 0.153113 0.278322 0.350627
O O15 0.067948 0.213009 0.313398
O O16 0.086674 0.125880 0.408496
O O17 0.750000 0.750000 0.375534
O O18 0.708943 0.000000 0.368910
O O19 0.500000 0.500000 0.576371
O O20 0.564956 0.500000 0.500000
O O21 0.000000 0.143516 0.245969
O O22 0.920882 0.000000 0.250905
#
# Coordination Sequence:
#
# PCOD9489047 Si02
#       8
#     8  16  16   8  16  16   8  16
#     4  11  24  38  55  75  99 127 155 195 246 297
#     4   9  17  26  39  60  84 113 150 196 241 274
#     4   8  13  22  36  54  79 113 151 189 231 278
#     4   8  16  32  50  68  89 110 136 172 217 272
#     4  12  23  37  56  76  96 125 160 196 245 298
#     4  10  22  37  54  75  97 119 149 189 235 292
#     4  11  24  40  55  75 101 127 161 199 238 293
#     4  10  20  34  49  65  89 122 160 197 233 282
#
# _framework density 15.629543999999999
#
# number of rings (size 3 to 8) (size 9 to 14) (size 15 to 20)
#    0.000    2.154    1.538    2.769    4.308    3.385 
#    0.000    1.538    0.000    0.000    0.000    0.000 
#    0.000    0.000    0.000    0.000    0.000    0.769 
#
# Total GULP energy -289495.619109 kJ/mol
# GULP energy per Si atom -5567.223444 kJ/mol
# Density = 1.559397 g / cm^3
# Si number density = 15.629544 Si / 1000 Ang^3
#
#
#
# Elastic Constant Matrix: (Units=GPa)
#
#
# Indices 1 2 3 4 5 6 
#
# 1 42.1782 24.0121 1.9726 0.0000 0.0000 0.0000
# 2 24.0121 154.4982 71.7900 0.0000 0.0000 0.0000
# 3 1.9726 71.7900 92.1909 0.0000 0.0000 0.0000
# 4 0.0000 0.0000 0.0000 87.8990 0.0000 0.0000
# 5 0.0000 0.0000 0.0000 0.0000 1.0401 0.0000
# 6 0.0000 0.0000 0.0000 0.0000 0.0000 13.7796
#
#
#
# Elastic Compliance Matrix: (Units=1/GPa)
#
#
# Indices 1 2 3 4 5 6 
#
# 1 0.027018 -0.006159 0.004218 0.000000 0.000000 0.000000
# 2 -0.006159 0.011547 -0.008860 0.000000 0.000000 0.000000
# 3 0.004218 -0.008860 0.017656 0.000000 0.000000 0.000000
# 4 0.000000 0.000000 0.000000 0.011377 0.000000 0.000000
# 5 0.000000 0.000000 0.000000 0.000000 0.961471 0.000000
# 6 0.000000 0.000000 0.000000 0.000000 0.000000 0.072571
#
#
# Mechanical properties :
#
#
# Convention : Reuss Voigt Hill
#
# Bulk Modulus (GPa) = 28.88573 53.82406 41.35490
# Shear Modulus (GPa) = 4.40614 33.28325 18.84469
#
# Velocity S-wave (km/s) = 1.68084 4.61967 3.47610
# Velocity P-wave (km/s) = 4.72108 7.93519 6.52901
#
# Compressibility (1/GPa) = 0.03461917
#
# Stress axis : x y z
#
# Youngs Moduli (GPa) = 37.01222 86.60546 56.63823
#
# Poissons Ratio (x) = 0.53342 -0.23891
# Poissons Ratio (y) = 0.22796 0.50180
# Poissons Ratio (z) = -0.15612 0.76730
#
# Static dielectric constant tensor:
#      x y z
#    x 1.549690 0.000000 0.000000 
#    y 0.000000 1.526570 0.000000 
#    z 0.000000 0.000000 1.534040 
# 
# From -- ./inp_files/72195.got.cif
#   From: 2010.05.17/outbox.cif.g08.bks.cpg/sg65_37_cif.got.tgz:72195.got - 2010.06.03 17:01:31.
