data_PCOD9489572
_publ_section_title
;
Structure prediction by ZEFSAII (Michael W. Deem and Ramdas Pophale) SiO2 
 PCOD9489572
Probable space group: C M M M
;
_chemical_formula_sum "Si O2"
_cell_formula_units_Z 80
_cell_length_a 26.827956
_cell_length_b 17.872925
_cell_length_c 7.439710
_cell_angle_alpha 90.000000
_cell_angle_beta 90.000000
_cell_angle_gamma 90.000000
_cell_volume 3567.296645
_symmetry_space_group_name_H-M "C M M M"
_symmetry_group_IT_number 65
_symmetry_cell_setting 'orthorhombic'
loop_
_space_group_symop_operation_xyz
x,y,z
-x,-y,z
x,-y,-z
-x,y,-z
-x,-y,-z
x,y,-z
-x,y,z
x,-y,z
1/2+x,1/2+y,z
1/2-x,1/2-y,z
1/2+x,1/2-y,-z
1/2-x,1/2+y,-z
1/2-x,1/2-y,-z
1/2+x,1/2+y,-z
1/2-x,1/2+y,z
1/2+x,1/2-y,z
loop_
_atom_site_type_symbol
_atom_site_label
_atom_site_fract_x
_atom_site_fract_y
_atom_site_fract_z
Si Si1 0.500000 0.414478 0.219355
Si Si2 0.094392 0.817133 0.779719
Si Si3 0.813179 0.084143 0.217179
Si Si4 0.441643 0.000000 0.780192
Si Si5 0.279808 0.822121 0.291757
Si Si6 0.392955 0.152847 0.793160
O O1 0.500000 0.500000 0.279958
O O2 0.451067 0.369518 0.274683
O O3 0.500000 0.415828 0.000000
O O4 0.145956 0.855650 0.721950
O O5 0.089417 0.732157 0.714825
O O6 0.095381 0.815291 0.000000
O O7 0.758777 0.109989 0.276558
O O8 0.825369 0.000000 0.275962
O O9 0.813766 0.084471 0.000000
O O10 0.414166 0.075671 0.716305
O O11 0.500000 0.000000 0.732240
O O12 0.438710 0.000000 0.000000
O O13 0.290151 0.805492 0.500000
O O14 0.250000 0.750000 0.214972
O O15 0.332894 0.841882 0.208587
O O16 0.410010 0.153396 0.000000
#
# Coordination Sequence:
#
# PCOD9489572 Si02
#       6
#     8  16  16   8  16  16
#     4   9  16  26  44  75 112 138 167 215 271 324
#     4   9  17  29  49  76 106 142 176 214 267 325
#     4  10  20  34  54  80 111 144 181 223 270 327
#     4   9  20  36  57  87 117 141 181 242 291 334
#     4  11  23  38  55  78 110 147 187 232 280 330
#     4  10  20  35  56  80 109 145 184 226 277 331
#
# _framework density 22.425944000000001
#
# number of rings (size 3 to 8) (size 9 to 14) (size 15 to 20)
#    0.000    2.200    2.000    1.200    2.800    3.600 
#    0.000    0.000    0.000    1.200    0.000    2.100 
#    0.000    4.800    0.000    0.000    0.000    0.000 
#
# Total GULP energy -223521.360364 kJ/mol
# GULP energy per Si atom -5588.034009 kJ/mol
# Density = 2.237490 g / cm^3
# Si number density = 22.425944 Si / 1000 Ang^3
#
#
#
# Elastic Constant Matrix: (Units=GPa)
#
#
# Indices 1 2 3 4 5 6 
#
# 1 124.1919 94.3061 -8.1560 0.0000 0.0000 0.0000
# 2 94.3061 234.3004 8.0160 0.0000 0.0000 0.0000
# 3 -8.1560 8.0160 69.9786 0.0000 0.0000 0.0000
# 4 0.0000 0.0000 0.0000 -6.3877 0.0000 0.0000
# 5 0.0000 0.0000 0.0000 0.0000 -103.9605 0.0000
# 6 0.0000 0.0000 0.0000 0.0000 0.0000 40.3341
#
#
#
# Elastic Compliance Matrix: (Units=1/GPa)
#
#
# Indices 1 2 3 4 5 6 
#
# 1 0.011852 -0.004837 0.001935 0.000000 0.000000 0.000000
# 2 -0.004837 0.006259 -0.001281 0.000000 0.000000 0.000000
# 3 0.001935 -0.001281 0.014662 0.000000 0.000000 0.000000
# 4 0.000000 0.000000 0.000000 -0.156552 0.000000 0.000000
# 5 0.000000 0.000000 0.000000 0.000000 -0.009619 0.000000
# 6 0.000000 0.000000 0.000000 0.000000 0.000000 0.024793
#
#
# Mechanical properties :
#
#
# Convention : Reuss Voigt Hill
#
# Bulk Modulus (GPa) = 40.96838 68.53368 54.75103
# Shear Modulus (GPa) = -54.28596 8.28416 -23.00090
#
# Velocity S-wave (km/s) = -4.92538 1.92406 -3.20603
# Velocity P-wave (km/s) = 3.74671 5.96342 3.28059
#
# Compressibility (1/GPa) = 0.02440907
#
# Stress axis : x y z
#
# Youngs Moduli (GPa) = 84.37490 159.78089 68.20193
#
# Poissons Ratio (x) = 0.77280 -0.13200
# Poissons Ratio (y) = 0.40809 0.08734
# Poissons Ratio (z) = -0.16330 0.20462
#
# Static dielectric constant tensor:
#      x y z
#    x 1.772170 0.000000 0.000000 
#    y 0.000000 1.821070 0.000000 
#    z 0.000000 0.000000 1.855590 
# 
# From -- ./inp_files/32147.got.cif
#   From: 2010.05.17/outbox.cif.g08.bks.cpg/sg65_17_cif.got.tgz:32147.got - 2010.06.03 17:01:31.
