data_PCOD9489882
_publ_section_title
;
Structure prediction by ZEFSAII (Michael W. Deem and Ramdas Pophale) SiO2 
 PCOD9489882
Probable space group: C M M M
;
_chemical_formula_sum "Si O2"
_cell_formula_units_Z 72
_cell_length_a 15.911781
_cell_length_b 7.512655
_cell_length_c 27.722422
_cell_angle_alpha 90.000000
_cell_angle_beta 90.000000
_cell_angle_gamma 90.000000
_cell_volume 3313.930594
_symmetry_space_group_name_H-M "C M M M"
_symmetry_group_IT_number 65
_symmetry_cell_setting 'orthorhombic'
loop_
_space_group_symop_operation_xyz
x,y,z
-x,-y,z
x,-y,-z
-x,y,-z
-x,-y,-z
x,y,-z
-x,y,z
x,-y,z
1/2+x,1/2+y,z
1/2-x,1/2-y,z
1/2+x,1/2-y,-z
1/2-x,1/2+y,-z
1/2-x,1/2-y,-z
1/2+x,1/2+y,-z
1/2-x,1/2+y,z
1/2+x,1/2-y,z
loop_
_atom_site_type_symbol
_atom_site_label
_atom_site_fract_x
_atom_site_fract_y
_atom_site_fract_z
Si Si1 0.500000 0.786602 0.731371
Si Si2 0.599025 0.782993 0.104219
Si Si3 0.345252 0.286733 0.554962
Si Si4 0.000000 0.213867 0.381695
Si Si5 0.102259 0.289155 0.000000
Si Si6 0.156942 0.287089 0.207007
O O1 0.500000 0.751812 0.674774
O O2 0.416916 0.718680 0.758619
O O3 0.500000 0.000000 0.736961
O O4 0.500000 0.738454 0.109157
O O5 0.630631 0.717294 0.051949
O O6 0.645504 0.719469 0.152147
O O7 0.602850 0.000000 0.102856
O O8 0.355430 0.218551 0.500000
O O9 0.353927 0.500000 0.552576
O O10 0.250000 0.250000 0.570797
O O11 0.416863 0.219095 0.590783
O O12 0.000000 0.000000 0.386234
O O13 0.120945 0.500000 0.000000
O O14 0.000000 0.273423 0.000000
O O15 0.147446 0.500000 0.204299
O O16 0.250000 0.250000 0.225208
#
# Coordination Sequence:
#
# PCOD9489882 Si02
#       6
#     8  16  16   8   8  16
#     4  10  22  39  55  72 100 138 176 217 260 302
#     4   8  12  23  44  68  95 125 160 201 246 299
#     4   9  18  34  56  82 112 144 175 208 250 301
#     4  10  21  36  56  80 107 139 175 215 258 302
#     4   7  10  16  35  68  95 118 153 198 243 291
#     4  10  20  35  54  74  98 131 170 212 258 307
#
# _framework density 21.726465999999999
#
# number of rings (size 3 to 8) (size 9 to 14) (size 15 to 20)
#    0.000    3.000    1.111    1.667    0.000    4.000 
#    0.000    5.000    0.000    3.333    0.000    0.000 
#    0.000    2.667    0.000    0.000    0.000    0.000 
#
# Total GULP energy -200882.873659 kJ/mol
# GULP energy per Si atom -5580.079824 kJ/mol
# Density = 2.167702 g / cm^3
# Si number density = 21.726466 Si / 1000 Ang^3
#
#
#
# Elastic Constant Matrix: (Units=GPa)
#
#
# Indices 1 2 3 4 5 6 
#
# 1 165.7426 2.6154 122.0755 0.0000 0.0000 0.0000
# 2 2.6154 58.0248 7.1179 0.0000 0.0000 0.0000
# 3 122.0755 7.1179 173.1326 0.0000 0.0000 0.0000
# 4 0.0000 0.0000 0.0000 206.5556 0.0000 0.0000
# 5 0.0000 0.0000 0.0000 0.0000 -3.3201 0.0000
# 6 0.0000 0.0000 0.0000 0.0000 0.0000 12.0780
#
#
#
# Elastic Compliance Matrix: (Units=1/GPa)
#
#
# Indices 1 2 3 4 5 6 
#
# 1 0.012568 0.000523 -0.008883 0.000000 0.000000 0.000000
# 2 0.000523 0.017343 -0.001082 0.000000 0.000000 0.000000
# 3 -0.008883 -0.001082 0.012084 0.000000 0.000000 0.000000
# 4 0.000000 0.000000 0.000000 0.004841 0.000000 0.000000
# 5 0.000000 0.000000 0.000000 0.000000 -0.301198 0.000000
# 6 0.000000 0.000000 0.000000 0.000000 0.000000 0.082795
#
#
# Mechanical properties :
#
#
# Convention : Reuss Voigt Hill
#
# Bulk Modulus (GPa) = 43.26900 73.39087 58.32993
# Shear Modulus (GPa) = -34.48776 60.73547 13.12385
#
# Velocity S-wave (km/s) = -3.98849 5.29295 2.46041
# Velocity P-wave (km/s) = 1.11901 8.43840 5.91415
#
# Compressibility (1/GPa) = 0.02311123
#
# Stress axis : x y z
#
# Youngs Moduli (GPa) = 79.56727 57.65971 82.75467
#
# Poissons Ratio (x) = -0.03017 0.73512
# Poissons Ratio (y) = -0.04163 0.08953
# Poissons Ratio (z) = 0.70681 0.06238
#
# Static dielectric constant tensor:
#      x y z
#    x 1.775150 0.000000 0.000000 
#    y 0.000000 1.850120 0.000000 
#    z 0.000000 0.000000 1.787400 
# 
# From -- ./inp_files/77572.got.cif
#   From: 2010.05.17/outbox.cif.g08.bks.cpg/sg65_39_cif.got.tgz:77572.got - 2010.06.03 17:01:31.
