data_PCOD9489362
_publ_section_title
;
Structure prediction by ZEFSAII (Michael W. Deem and Ramdas Pophale) SiO2 
 PCOD9489362
Probable space group: C M M M
;
_chemical_formula_sum "Si O2"
_cell_formula_units_Z 88
_cell_length_a 15.135926
_cell_length_b 24.695751
_cell_length_c 13.806180
_cell_angle_alpha 90.000000
_cell_angle_beta 90.000000
_cell_angle_gamma 90.000000
_cell_volume 5160.654264
_symmetry_space_group_name_H-M "C M M M"
_symmetry_group_IT_number 65
_symmetry_cell_setting 'orthorhombic'
loop_
_space_group_symop_operation_xyz
x,y,z
-x,-y,z
x,-y,-z
-x,y,-z
-x,-y,-z
x,y,-z
-x,y,z
x,-y,z
1/2+x,1/2+y,z
1/2-x,1/2-y,z
1/2+x,1/2-y,-z
1/2-x,1/2+y,-z
1/2-x,1/2-y,-z
1/2+x,1/2+y,-z
1/2-x,1/2+y,z
1/2+x,1/2-y,z
loop_
_atom_site_type_symbol
_atom_site_label
_atom_site_fract_x
_atom_site_fract_y
_atom_site_fract_z
Si Si1 0.246195 0.143130 0.886792
Si Si2 0.606228 0.594891 0.605903
Si Si3 0.393944 0.560732 0.182568
Si Si4 0.395736 0.275951 0.610955
Si Si5 0.398946 0.061422 0.882300
Si Si6 0.250000 0.250000 0.241708
O O1 0.159130 0.106420 0.873838
O O2 0.327660 0.105552 0.851947
O O3 0.240883 0.197159 0.824398
O O4 0.258747 0.155996 0.000000
O O5 0.640749 0.577293 0.500000
O O6 0.500000 0.588035 0.602242
O O7 0.634258 0.565949 0.704330
O O8 0.622397 0.659287 0.616636
O O9 0.500000 0.568809 0.177433
O O10 0.374367 0.500000 0.147300
O O11 0.377349 0.259276 0.500000
O O12 0.500000 0.268627 0.629251
O O13 0.334637 0.246682 0.688071
O O14 0.500000 0.073408 0.853090
O O15 0.376843 0.000000 0.851056
O O16 0.397499 0.061029 0.000000
#
# Coordination Sequence:
#
# PCOD9489362 Si02
#       6
#    16  16  16  16  16   8
#     4  11  23  36  49  71 104 140 179 219 257 301
#     4   8  14  28  50  74 101 131 163 205 257 308
#     4  10  20  34  53  77 105 139 177 214 256 309
#     4   9  18  34  56  79 103 133 170 212 258 311
#     4   8  15  31  54  73  88 114 160 218 269 303
#     4  12  22  34  54  76 104 142 174 208 258 310
#
# _framework density 17.052101
#
# number of rings (size 3 to 8) (size 9 to 14) (size 15 to 20)
#    0.000    2.545    1.818    2.727    0.000    2.545 
#    0.000    2.727    0.000    3.273    0.000    0.000 
#    0.000    0.000    0.000   12.000    0.000    1.091 
#
# Total GULP energy -245217.170366 kJ/mol
# GULP energy per Si atom -5573.117508 kJ/mol
# Density = 1.701329 g / cm^3
# Si number density = 17.052101 Si / 1000 Ang^3
#
#
#
# Elastic Constant Matrix: (Units=GPa)
#
#
# Indices 1 2 3 4 5 6 
#
# 1 63.6438 48.5702 32.0176 0.0000 0.0000 0.0000
# 2 48.5702 87.1133 39.6250 0.0000 0.0000 0.0000
# 3 32.0176 39.6250 63.5540 0.0000 0.0000 0.0000
# 4 0.0000 0.0000 0.0000 -6.6749 0.0000 0.0000
# 5 0.0000 0.0000 0.0000 0.0000 21.6154 0.0000
# 6 0.0000 0.0000 0.0000 0.0000 0.0000 21.9813
#
#
#
# Elastic Compliance Matrix: (Units=1/GPa)
#
#
# Indices 1 2 3 4 5 6 
#
# 1 0.029070 -0.013326 -0.006337 0.000000 0.000000 0.000000
# 2 -0.013326 0.022132 -0.007086 0.000000 0.000000 0.000000
# 3 -0.006337 -0.007086 0.023345 0.000000 0.000000 0.000000
# 4 0.000000 0.000000 0.000000 -0.149816 0.000000 0.000000
# 5 0.000000 0.000000 0.000000 0.000000 0.046263 0.000000
# 6 0.000000 0.000000 0.000000 0.000000 0.000000 0.045493
#
#
# Mechanical properties :
#
#
# Convention : Reuss Voigt Hill
#
# Bulk Modulus (GPa) = 47.50438 50.52630 49.01534
# Shear Modulus (GPa) = 64.93485 13.65759 39.29622
#
# Velocity S-wave (km/s) = 6.17762 2.83315 4.80571
# Velocity P-wave (km/s) = 8.87709 6.35588 7.72010
#
# Compressibility (1/GPa) = 0.02105069
#
# Stress axis : x y z
#
# Youngs Moduli (GPa) = 34.40002 45.18327 42.83605
#
# Poissons Ratio (x) = 0.60209 0.27144
# Poissons Ratio (y) = 0.45840 0.30353
# Poissons Ratio (z) = 0.21798 0.32016
#
# Static dielectric constant tensor:
#      x y z
#    x 1.576860 0.000000 0.000000 
#    y 0.000000 1.573700 0.000000 
#    z 0.000000 0.000000 1.596370 
# 
# From -- ./inp_files/25094.got.cif
#   From: 2010.05.17/outbox.cif.g08.bks.cpg/sg65_13_cif.got.tgz:25094.got - 2010.06.03 17:01:31.
