data_PCOD9489119
_publ_section_title
;
Structure prediction by ZEFSAII (Michael W. Deem and Ramdas Pophale) SiO2 
 PCOD9489119
Probable space group: C M M M
;
_chemical_formula_sum "Si O2"
_cell_formula_units_Z 104
_cell_length_a 8.816349
_cell_length_b 26.018040
_cell_length_c 28.403863
_cell_angle_alpha 90.000000
_cell_angle_beta 90.000000
_cell_angle_gamma 90.000000
_cell_volume 6515.395145
_symmetry_space_group_name_H-M "C M M M"
_symmetry_group_IT_number 65
_symmetry_cell_setting 'orthorhombic'
loop_
_space_group_symop_operation_xyz
x,y,z
-x,-y,z
x,-y,-z
-x,y,-z
-x,-y,-z
x,y,-z
-x,y,z
x,-y,z
1/2+x,1/2+y,z
1/2-x,1/2-y,z
1/2+x,1/2-y,-z
1/2-x,1/2+y,-z
1/2-x,1/2-y,-z
1/2+x,1/2+y,-z
1/2-x,1/2+y,z
1/2+x,1/2-y,z
loop_
_atom_site_type_symbol
_atom_site_label
_atom_site_fract_x
_atom_site_fract_y
_atom_site_fract_z
Si Si1 0.824790 0.000000 0.733192
Si Si2 0.318426 0.692403 0.199498
Si Si3 0.817935 0.307403 0.000000
Si Si4 0.674209 0.500000 0.618885
Si Si5 0.819545 0.392500 0.619907
Si Si6 0.818567 0.608901 0.731355
Si Si7 0.317140 0.807798 0.102079
Si Si8 0.681230 0.305566 0.445529
O O1 0.823581 0.000000 0.676034
O O2 0.742146 0.052842 0.747143
O O3 0.000000 0.000000 0.748559
O O4 0.500000 0.695898 0.198647
O O5 0.250000 0.750000 0.205474
O O6 0.260877 0.654305 0.239911
O O7 0.256795 0.670691 0.149454
O O8 0.750000 0.250000 0.000000
O O9 0.777790 0.331537 0.050786
O O10 0.000000 0.302375 0.000000
O O11 0.500000 0.500000 0.603388
O O12 0.757063 0.447939 0.604330
O O13 0.784735 0.385936 0.675547
O O14 0.744742 0.348229 0.589240
O O15 0.000000 0.391206 0.614807
O O16 0.000000 0.611314 0.737440
O O17 0.500000 0.806264 0.107061
O O18 0.250000 0.750000 0.100149
O O19 0.722268 0.317128 0.500000
O O20 0.500000 0.303244 0.442281
O O21 0.750000 0.250000 0.433940
#
# Coordination Sequence:
#
# PCOD9489119 Si02
#       8
#     8  16   8   8  16  16  16  16
#     4   9  17  31  51  74  96 122 156 195 236 277
#     4  11  21  32  45  64  93 129 163 197 239 285
#     4   8  14  22  36  56  78 109 150 191 230 274
#     4   9  17  31  52  76 103 129 154 189 234 281
#     4  10  20  34  54  77 100 126 158 195 236 282
#     4  10  20  34  51  72  97 127 160 195 235 281
#     4   9  15  25  39  57  83 116 153 192 233 279
#     4  10  21  37  56  76  99 128 161 197 237 280
#
# _framework density 15.962194
#
# number of rings (size 3 to 8) (size 9 to 14) (size 15 to 20)
#    0.000    2.308    0.000    4.615    0.000    5.846 
#    0.000    0.385    0.000    2.308    0.000    0.000 
#    0.000    0.615    0.000    6.615    0.000    3.385 
#
# Total GULP energy -289781.172264 kJ/mol
# GULP energy per Si atom -5572.714851 kJ/mol
# Density = 1.592586 g / cm^3
# Si number density = 15.962194 Si / 1000 Ang^3
#
#
#
# Elastic Constant Matrix: (Units=GPa)
#
#
# Indices 1 2 3 4 5 6 
#
# 1 92.7945 57.7587 58.1651 0.0000 0.0000 0.0000
# 2 57.7587 105.2677 72.3159 0.0000 0.0000 0.0000
# 3 58.1651 72.3159 81.4787 0.0000 0.0000 0.0000
# 4 0.0000 0.0000 0.0000 -4.4706 0.0000 0.0000
# 5 0.0000 0.0000 0.0000 0.0000 24.8281 0.0000
# 6 0.0000 0.0000 0.0000 0.0000 0.0000 29.5468
#
#
#
# Elastic Compliance Matrix: (Units=1/GPa)
#
#
# Indices 1 2 3 4 5 6 
#
# 1 0.019859 -0.002965 -0.011545 0.000000 0.000000 0.000000
# 2 -0.002965 0.024783 -0.019879 0.000000 0.000000 0.000000
# 3 -0.011545 -0.019879 0.038158 0.000000 0.000000 0.000000
# 4 0.000000 0.000000 0.000000 -0.223685 0.000000 0.000000
# 5 0.000000 0.000000 0.000000 0.000000 0.040277 0.000000
# 6 0.000000 0.000000 0.000000 0.000000 0.000000 0.033845
#
#
# Mechanical properties :
#
#
# Convention : Reuss Voigt Hill
#
# Bulk Modulus (GPa) = 71.31866 72.89114 72.10490
# Shear Modulus (GPa) = 747.53873 16.06761 381.80317
#
# Velocity S-wave (km/s) = 21.66414 3.17614 15.48262
# Velocity P-wave (km/s) = 25.89511 7.69510 19.10198
#
# Compressibility (1/GPa) = 0.01402158
#
# Stress axis : x y z
#
# Youngs Moduli (GPa) = 50.35619 40.35009 26.20663
#
# Poissons Ratio (x) = 0.11965 0.30255
# Poissons Ratio (y) = 0.14932 0.52097
# Poissons Ratio (z) = 0.58134 0.80213
#
# Static dielectric constant tensor:
#      x y z
#    x 1.531570 0.000000 0.000000 
#    y 0.000000 1.500280 0.000000 
#    z 0.000000 0.000000 1.569380 
# 
# From -- ./inp_files/77078.got.cif
#   From: 2010.05.17/outbox.cif.g08.bks.cpg/sg65_39_cif.got.tgz:77078.got - 2010.06.03 17:01:31.
