data_PCOD9489055
_publ_section_title
;
Structure prediction by ZEFSAII (Michael W. Deem and Ramdas Pophale) SiO2 
 PCOD9489055
Probable space group: C M M M
;
_chemical_formula_sum "Si O2"
_cell_formula_units_Z 88
_cell_length_a 27.373725
_cell_length_b 7.545221
_cell_length_c 22.507419
_cell_angle_alpha 90.000000
_cell_angle_beta 90.000000
_cell_angle_gamma 90.000000
_cell_volume 4648.700432
_symmetry_space_group_name_H-M "C M M M"
_symmetry_group_IT_number 65
_symmetry_cell_setting 'orthorhombic'
loop_
_space_group_symop_operation_xyz
x,y,z
-x,-y,z
x,-y,-z
-x,y,-z
-x,-y,-z
x,y,-z
-x,y,z
x,-y,z
1/2+x,1/2+y,z
1/2-x,1/2-y,z
1/2+x,1/2-y,-z
1/2-x,1/2+y,-z
1/2-x,1/2-y,-z
1/2+x,1/2+y,-z
1/2-x,1/2+y,z
1/2+x,1/2-y,z
loop_
_atom_site_type_symbol
_atom_site_label
_atom_site_fract_x
_atom_site_fract_y
_atom_site_fract_z
Si Si1 0.656311 0.208654 0.064788
Si Si2 0.595888 0.705647 0.752962
Si Si3 0.305138 0.210827 0.810760
Si Si4 0.945221 0.215083 0.878166
Si Si5 0.059046 0.211217 0.500000
Si Si6 0.557384 0.283761 0.371204
O O1 0.684100 0.282245 0.122529
O O2 0.598701 0.226657 0.079320
O O3 0.667763 0.000000 0.062470
O O4 0.667604 0.285544 0.000000
O O5 0.580623 0.500000 0.750504
O O6 0.653038 0.715424 0.768104
O O7 0.568488 0.778998 0.811394
O O8 0.583284 0.781398 0.688583
O O9 0.250000 0.250000 0.793273
O O10 0.312357 0.000000 0.811969
O O11 0.000000 0.270851 0.894353
O O12 0.944156 0.000000 0.877850
O O13 0.075892 0.280644 0.564233
O O14 0.000000 0.231081 0.500000
O O15 0.068709 0.000000 0.500000
O O16 0.500000 0.241114 0.366217
O O17 0.560881 0.500000 0.373000
#
# Coordination Sequence:
#
# PCOD9489055 Si02
#       6
#    16  16  16  16   8  16
#     4   9  19  34  48  63  84 109 137 169 208 257
#     4   9  16  27  44  65  88 115 146 177 211 250
#     4  10  20  34  50  66  84 105 133 173 219 263
#     4   9  17  28  42  62  88 116 146 178 207 238
#     4   7  10  16  28  54  92 125 150 177 206 235
#     4   8  12  19  35  61  93 125 152 177 205 239
#
# _framework density 18.930019999999999
#
# number of rings (size 3 to 8) (size 9 to 14) (size 15 to 20)
#    0.000    3.182    0.000    2.182    0.000    4.364 
#    0.000    1.818    0.000    1.636    0.000    1.273 
#    0.000    2.182    0.000    0.000    0.000    0.000 
#
# Total GULP energy -245165.970201 kJ/mol
# GULP energy per Si atom -5571.953868 kJ/mol
# Density = 1.888693 g / cm^3
# Si number density = 18.930020 Si / 1000 Ang^3
#
#
#
# Elastic Constant Matrix: (Units=GPa)
#
#
# Indices 1 2 3 4 5 6 
#
# 1 28.3912 -17.3320 -1.0075 0.0000 0.0000 0.0000
# 2 -17.3320 46.1323 1.5026 0.0000 0.0000 0.0000
# 3 -1.0075 1.5026 126.8972 0.0000 0.0000 0.0000
# 4 0.0000 0.0000 0.0000-1337.2438 0.0000 0.0000
# 5 0.0000 0.0000 0.0000 0.0000 8.5275 0.0000
# 6 0.0000 0.0000 0.0000 0.0000 0.0000 8.0825
#
#
#
# Elastic Compliance Matrix: (Units=1/GPa)
#
#
# Indices 1 2 3 4 5 6 
#
# 1 0.045708 0.017167 0.000160 0.000000 0.000000 0.000000
# 2 0.017167 0.028133 -0.000197 0.000000 0.000000 0.000000
# 3 0.000160 -0.000197 0.007884 0.000000 0.000000 0.000000
# 4 0.000000 0.000000 0.000000 -0.000748 0.000000 0.000000
# 5 0.000000 0.000000 0.000000 0.000000 0.117267 0.000000
# 6 0.000000 0.000000 0.000000 0.000000 0.000000 0.123724
#
#
# Mechanical properties :
#
#
# Convention : Reuss Voigt Hill
#
# Bulk Modulus (GPa) = 8.62176 18.63853 13.63015
# Shear Modulus (GPa) = 15.32003 -249.57623 -117.12810
#
# Velocity S-wave (km/s) = 2.84790 -11.49468 -7.87455
# Velocity P-wave (km/s) = 3.92154 12.89585 8.68690
#
# Compressibility (1/GPa) = 0.11598558
#
# Stress axis : x y z
#
# Youngs Moduli (GPa) = 21.87799 35.54540 126.83927
#
# Poissons Ratio (x) = -0.61022 -0.02025
# Poissons Ratio (y) = -0.37559 0.02496
# Poissons Ratio (z) = -0.00349 0.00700
#
# Static dielectric constant tensor:
#      x y z
#    x 1.619730 0.000000 0.000000 
#    y 0.000000 1.755200 0.000000 
#    z 0.000000 0.000000 1.708130 
# 
# From -- ./inp_files/66188.got.cif
#   From: 2010.05.17/outbox.cif.g08.bks.cpg/sg65_34_cif.got.tgz:66188.got - 2010.06.03 17:01:31.
