data_PCOD9489304
_publ_section_title
;
Structure prediction by ZEFSAII (Michael W. Deem and Ramdas Pophale) SiO2 
 PCOD9489304
Probable space group: C M M M
;
_chemical_formula_sum "Si O2"
_cell_formula_units_Z 64
_cell_length_a 9.446903
_cell_length_b 15.087501
_cell_length_c 25.111209
_cell_angle_alpha 90.000000
_cell_angle_beta 90.000000
_cell_angle_gamma 90.000000
_cell_volume 3579.104598
_symmetry_space_group_name_H-M "C M M M"
_symmetry_group_IT_number 65
_symmetry_cell_setting 'orthorhombic'
loop_
_space_group_symop_operation_xyz
x,y,z
-x,-y,z
x,-y,-z
-x,y,-z
-x,-y,-z
x,y,-z
-x,y,z
x,-y,z
1/2+x,1/2+y,z
1/2-x,1/2-y,z
1/2+x,1/2-y,-z
1/2-x,1/2+y,-z
1/2-x,1/2-y,-z
1/2+x,1/2+y,-z
1/2-x,1/2+y,z
1/2+x,1/2-y,z
loop_
_atom_site_type_symbol
_atom_site_label
_atom_site_fract_x
_atom_site_fract_y
_atom_site_fract_z
Si Si1 0.161527 0.391402 0.000000
Si Si2 0.328357 0.500000 0.581735
Si Si3 0.828041 0.154632 0.500000
Si Si4 0.337090 0.607308 0.102532
Si Si5 0.670584 0.661907 0.221910
Si Si6 0.828099 0.000000 0.703055
O O1 0.241255 0.362933 0.053526
O O2 0.163334 0.500000 0.000000
O O3 0.000000 0.362114 0.000000
O O4 0.500000 0.500000 0.581807
O O5 0.289667 0.589946 0.549872
O O6 0.276811 0.500000 0.642410
O O7 0.750000 0.250000 0.500000
O O8 0.000000 0.167312 0.500000
O O9 0.500000 0.634353 0.093638
O O10 0.334848 0.500000 0.103837
O O11 0.291146 0.639135 0.160768
O O12 0.500000 0.670573 0.223418
O O13 0.750000 0.750000 0.237744
O O14 0.712900 0.584709 0.262277
O O15 0.000000 0.000000 0.700924
#
# Coordination Sequence:
#
# PCOD9489304 Si02
#       6
#     8   8   8  16  16   8
#     4   9  17  27  44  73 100 122 154 202 258 307
#     4   8  16  31  52  76 105 143 183 213 248 305
#     4   9  17  31  52  80 110 143 179 215 256 300
#     4   9  16  30  50  69  92 126 165 202 244 306
#     4  10  20  34  53  76 100 130 171 213 258 308
#     4   9  17  34  56  75 101 140 180 215 250 302
#
# _framework density 17.881568000000001
#
# number of rings (size 3 to 8) (size 9 to 14) (size 15 to 20)
#    0.000    2.875    1.250    1.125    0.000    3.500 
#    0.000    2.500    0.000    1.500    0.000    0.000 
#    0.000    0.000    0.000    0.000    0.000    0.000 
#
# Total GULP energy -178386.542836 kJ/mol
# GULP energy per Si atom -5574.579464 kJ/mol
# Density = 1.784087 g / cm^3
# Si number density = 17.881568 Si / 1000 Ang^3
#
#
#
# Elastic Constant Matrix: (Units=GPa)
#
#
# Indices 1 2 3 4 5 6 
#
# 1 31.8498 44.5492 52.0162 0.0000 0.0000 0.0000
# 2 44.5492 132.0728 89.1868 0.0000 0.0000 0.0000
# 3 52.0162 89.1868 180.7648 0.0000 0.0000 0.0000
# 4 0.0000 0.0000 0.0000 -89.2412 0.0000 0.0000
# 5 0.0000 0.0000 0.0000 0.0000 7.8153 0.0000
# 6 0.0000 0.0000 0.0000 0.0000 0.0000 26.3581
#
#
#
# Elastic Compliance Matrix: (Units=1/GPa)
#
#
# Indices 1 2 3 4 5 6 
#
# 1 0.077929 -0.016711 -0.014180 0.000000 0.000000 0.000000
# 2 -0.016711 0.014938 -0.002562 0.000000 0.000000 0.000000
# 3 -0.014180 -0.002562 0.010876 0.000000 0.000000 0.000000
# 4 0.000000 0.000000 0.000000 -0.011206 0.000000 0.000000
# 5 0.000000 0.000000 0.000000 0.000000 0.127954 0.000000
# 6 0.000000 0.000000 0.000000 0.000000 0.000000 0.037939
#
#
# Mechanical properties :
#
#
# Convention : Reuss Voigt Hill
#
# Bulk Modulus (GPa) = 27.14504 79.57686 53.36095
# Shear Modulus (GPa) = 14.80981 -0.41787 7.19597
#
# Velocity S-wave (km/s) = 2.88100 -0.48394 2.00823
# Velocity P-wave (km/s) = 5.12643 6.65481 5.93998
#
# Compressibility (1/GPa) = 0.03683914
#
# Stress axis : x y z
#
# Youngs Moduli (GPa) = 12.83222 66.94315 91.94377
#
# Poissons Ratio (x) = 1.11866 1.30373
# Poissons Ratio (y) = 0.21443 0.23553
# Poissons Ratio (z) = 0.18196 0.17148
#
# Static dielectric constant tensor:
#      x y z
#    x 1.591250 0.000000 0.000000 
#    y 0.000000 1.614020 0.000000 
#    z 0.000000 0.000000 1.611620 
# 
# From -- ./inp_files/66879.got.cif
#   From: 2010.05.17/outbox.cif.g08.bks.cpg/sg65_34_cif.got.tgz:66879.got - 2010.06.03 17:01:31.
