data_PCOD9489513
_publ_section_title
;
Structure prediction by ZEFSAII (Michael W. Deem and Ramdas Pophale) SiO2 
 PCOD9489513
Probable space group: C M M M
;
_chemical_formula_sum "Si O2"
_cell_formula_units_Z 72
_cell_length_a 20.116096
_cell_length_b 22.828145
_cell_length_c 7.795616
_cell_angle_alpha 90.000000
_cell_angle_beta 90.000000
_cell_angle_gamma 90.000000
_cell_volume 3579.849429
_symmetry_space_group_name_H-M "C M M M"
_symmetry_group_IT_number 65
_symmetry_cell_setting 'orthorhombic'
loop_
_space_group_symop_operation_xyz
x,y,z
-x,-y,z
x,-y,-z
-x,y,-z
-x,-y,-z
x,y,-z
-x,y,z
x,-y,z
1/2+x,1/2+y,z
1/2-x,1/2-y,z
1/2+x,1/2-y,-z
1/2-x,1/2+y,-z
1/2-x,1/2-y,-z
1/2+x,1/2+y,-z
1/2-x,1/2+y,z
1/2+x,1/2-y,z
loop_
_atom_site_type_symbol
_atom_site_label
_atom_site_fract_x
_atom_site_fract_y
_atom_site_fract_z
Si Si1 0.664010 0.390755 0.702660
Si Si2 0.806833 0.433704 0.203651
Si Si3 0.575058 0.717782 0.206852
Si Si4 0.076207 0.000000 0.289859
Si Si5 0.424590 0.851805 0.209816
O O1 0.669436 0.398758 0.500000
O O2 0.737620 0.399909 0.773337
O O3 0.629321 0.328952 0.737111
O O4 0.615842 0.442490 0.768630
O O5 0.801576 0.500000 0.273782
O O6 0.868635 0.396301 0.273061
O O7 0.817788 0.438745 0.000000
O O8 0.500000 0.701544 0.265244
O O9 0.588491 0.784540 0.262882
O O10 0.574151 0.717906 0.000000
O O11 0.075330 0.000000 0.500000
O O12 0.000000 0.000000 0.232756
O O13 0.500000 0.867251 0.260690
O O14 0.423417 0.851889 0.000000
#
# Coordination Sequence:
#
# PCOD9489513 Si02
#       5
#    16  16  16   8  16
#     4  11  21  34  52  74 106 143 176 213 257 312
#     4  10  20  34  54  79 107 137 174 220 261 305
#     4   9  18  34  55  78 105 136 173 217 262 309
#     4   9  18  32  49  69  94 131 174 210 249 297
#     4   8  16  33  56  80 105 135 171 214 266 316
#
# _framework density 20.112577000000002
#
# number of rings (size 3 to 8) (size 9 to 14) (size 15 to 20)
#    0.000    2.556    1.111    2.667    0.000    2.667 
#    0.000    7.778    0.000    4.667    0.000    1.556 
#    0.000    0.000    0.000    0.000    0.000    0.000 
#
# Total GULP energy -200925.938360 kJ/mol
# GULP energy per Si atom -5581.276066 kJ/mol
# Density = 2.006680 g / cm^3
# Si number density = 20.112577 Si / 1000 Ang^3
#
#
#
# Elastic Constant Matrix: (Units=GPa)
#
#
# Indices 1 2 3 4 5 6 
#
# 1 183.0867 111.4831 -0.5017 0.0000 0.0000 0.0000
# 2 111.4831 118.9577 4.4207 0.0000 0.0000 0.0000
# 3 -0.5017 4.4207 22.1503 0.0000 0.0000 0.0000
# 4 0.0000 0.0000 0.0000 -0.1371 0.0000 0.0000
# 5 0.0000 0.0000 0.0000 0.0000 -9.8201 0.0000
# 6 0.0000 0.0000 0.0000 0.0000 0.0000 -1.7581
#
#
#
# Elastic Compliance Matrix: (Units=1/GPa)
#
#
# Indices 1 2 3 4 5 6 
#
# 1 0.012882 -0.012174 0.002721 0.000000 0.000000 0.000000
# 2 -0.012174 0.019974 -0.004262 0.000000 0.000000 0.000000
# 3 0.002721 -0.004262 0.046058 0.000000 0.000000 0.000000
# 4 0.000000 0.000000 0.000000 -7.296466 0.000000 0.000000
# 5 0.000000 0.000000 0.000000 0.000000 -0.101832 0.000000
# 6 0.000000 0.000000 0.000000 0.000000 0.000000 -0.568786
#
#
# Mechanical properties :
#
#
# Convention : Reuss Voigt Hill
#
# Bulk Modulus (GPa) = 19.42310 61.66657 40.54484
# Shear Modulus (GPa) = -0.63746 11.57644 5.46949
#
# Velocity S-wave (km/s) = -0.56359 2.40173 1.65086
# Velocity P-wave (km/s) = 3.04214 6.19825 4.88226
#
# Compressibility (1/GPa) = 0.05148509
#
# Stress axis : x y z
#
# Youngs Moduli (GPa) = 77.62727 50.06612 21.71163
#
# Poissons Ratio (x) = 0.60949 -0.05909
# Poissons Ratio (y) = 0.94502 0.09254
# Poissons Ratio (z) = -0.21125 0.21338
#
# Static dielectric constant tensor:
#      x y z
#    x 1.687640 0.000000 0.000000 
#    y 0.000000 1.703660 0.000000 
#    z 0.000000 0.000000 1.735360 
# 
# From -- ./inp_files/7311.got.cif
#   From: 2010.05.17/outbox.cif.g08.bks.cpg/sg65_4_cif.got.tgz:7311.got - 2010.06.03 17:01:31.
