data_PCOD9489438
_publ_section_title
;
Structure prediction by ZEFSAII (Michael W. Deem and Ramdas Pophale) SiO2 
 PCOD9489438
Probable space group: C M M M
;
_chemical_formula_sum "Si O2"
_cell_formula_units_Z 90
_cell_length_a 22.427404
_cell_length_b 25.253107
_cell_length_c 7.611553
_cell_angle_alpha 90.000000
_cell_angle_beta 90.000000
_cell_angle_gamma 90.000000
_cell_volume 4310.891586
_symmetry_space_group_name_H-M "C M M M"
_symmetry_group_IT_number 65
_symmetry_cell_setting 'orthorhombic'
loop_
_space_group_symop_operation_xyz
x,y,z
-x,-y,z
x,-y,-z
-x,y,-z
-x,-y,-z
x,y,-z
-x,y,z
x,-y,z
1/2+x,1/2+y,z
1/2-x,1/2-y,z
1/2+x,1/2-y,-z
1/2-x,1/2+y,-z
1/2-x,1/2-y,-z
1/2+x,1/2+y,-z
1/2-x,1/2+y,z
1/2+x,1/2-y,z
loop_
_atom_site_type_symbol
_atom_site_label
_atom_site_fract_x
_atom_site_fract_y
_atom_site_fract_z
Si Si1 0.932453 0.706102 0.714846
Si Si2 0.500000 0.410878 0.807586
Si Si3 0.500000 0.500000 0.500000
Si Si4 0.664815 0.000000 0.714402
Si Si5 0.655361 0.115385 0.710225
Si Si6 0.803848 0.000000 0.798053
Si Si7 0.204690 0.885320 0.210308
Si Si8 0.593638 0.675438 0.703691
O O1 0.929311 0.707013 0.500000
O O2 0.884977 0.662968 0.779177
O O3 0.919103 0.765976 0.774171
O O4 0.000000 0.691791 0.762657
O O5 0.500000 0.453536 0.654028
O O6 0.443692 0.371163 0.792542
O O7 0.500000 0.435769 0.000000
O O8 0.637197 0.056039 0.769282
O O9 0.731778 0.000000 0.790654
O O10 0.669882 0.000000 0.500000
O O11 0.648833 0.115652 0.500000
O O12 0.725723 0.121552 0.747328
O O13 0.818827 0.057293 0.719096
O O14 0.824558 0.000000 0.000000
O O15 0.162866 0.839464 0.281290
O O16 0.199550 0.887023 0.000000
O O17 0.575447 0.675206 0.500000
#
# Coordination Sequence:
#
# PCOD9489438 Si02
#       8
#    16   8   2   8  16   8  16  16
#     4   9  18  34  59  81 108 153 205 248 301 379
#     4  12  25  45  69  94 127 168 215 266 318 372
#     4  12  26  48  68  98 132 168 214 270 326 370
#     4   8  14  26  48  77 112 139 178 234 288 353
#     4   9  17  32  54  83 112 151 195 244 309 372
#     4   8  16  31  49  69 101 145 184 217 280 360
#     4  10  20  34  53  81 115 150 191 248 310 369
#     4  11  21  39  61  84 116 159 208 255 306 371
#
# _framework density 20.877351000000001
#
# number of rings (size 3 to 8) (size 9 to 14) (size 15 to 20)
#    0.000    2.311    1.778    1.200    0.000    2.133 
#    0.000    7.556    0.000    2.667    0.000    0.000 
#    0.000    7.111    0.000    0.000    0.000    0.000 
#
# Total GULP energy -250848.366676 kJ/mol
# GULP energy per Si atom -5574.408148 kJ/mol
# Density = 2.082983 g / cm^3
# Si number density = 20.877351 Si / 1000 Ang^3
#
#
#
# Elastic Constant Matrix: (Units=GPa)
#
#
# Indices 1 2 3 4 5 6 
#
# 1 93.4313 72.9273 0.4103 0.0000 0.0000 0.0000
# 2 72.9273 140.0213 27.6870 0.0000 0.0000 0.0000
# 3 0.4103 27.6870 80.4023 0.0000 0.0000 0.0000
# 4 0.0000 0.0000 0.0000 -0.9475 0.0000 0.0000
# 5 0.0000 0.0000 0.0000 0.0000 73.2030 0.0000
# 6 0.0000 0.0000 0.0000 0.0000 0.0000 -35.4853
#
#
#
# Elastic Compliance Matrix: (Units=1/GPa)
#
#
# Indices 1 2 3 4 5 6 
#
# 1 0.018929 -0.010559 0.003539 0.000000 0.000000 0.000000
# 2 -0.010559 0.013553 -0.004613 0.000000 0.000000 0.000000
# 3 0.003539 -0.004613 0.014008 0.000000 0.000000 0.000000
# 4 0.000000 0.000000 0.000000 -1.055445 0.000000 0.000000
# 5 0.000000 0.000000 0.000000 0.000000 0.013661 0.000000
# 6 0.000000 0.000000 0.000000 0.000000 0.000000 -0.028181
#
#
# Mechanical properties :
#
#
# Convention : Reuss Voigt Hill
#
# Bulk Modulus (GPa) = 43.05686 57.32268 50.18977
# Shear Modulus (GPa) = -5.03795 21.54273 8.25239
#
# Velocity S-wave (km/s) = -1.55511 3.21576 1.99032
# Velocity P-wave (km/s) = 4.17660 6.42687 5.41981
#
# Compressibility (1/GPa) = 0.02322510
#
# Stress axis : x y z
#
# Youngs Moduli (GPa) = 52.82897 73.78311 71.38779
#
# Poissons Ratio (x) = 0.77905 -0.25267
# Poissons Ratio (y) = 0.55780 0.32933
# Poissons Ratio (z) = -0.18698 0.34038
#
# Static dielectric constant tensor:
#      x y z
#    x 1.734260 0.000000 0.000000 
#    y 0.000000 1.768780 0.000000 
#    z 0.000000 0.000000 1.779660 
# 
# From -- ./inp_files/11923.got.cif
#   From: 2010.05.17/outbox.cif.g08.bks.cpg/sg65_6_cif.got.tgz:11923.got - 2010.06.03 17:01:31.
