data_PCOD9489017
_publ_section_title
;
Structure prediction by ZEFSAII (Michael W. Deem and Ramdas Pophale) SiO2 
 PCOD9489017
Probable space group: C M M M
;
_chemical_formula_sum "Si O2"
_cell_formula_units_Z 100
_cell_length_a 29.203116
_cell_length_b 7.940617
_cell_length_c 22.703384
_cell_angle_alpha 90.000000
_cell_angle_beta 90.000000
_cell_angle_gamma 90.000000
_cell_volume 5264.704956
_symmetry_space_group_name_H-M "C M M M"
_symmetry_group_IT_number 65
_symmetry_cell_setting 'orthorhombic'
loop_
_space_group_symop_operation_xyz
x,y,z
-x,-y,z
x,-y,-z
-x,y,-z
-x,-y,-z
x,y,-z
-x,y,z
x,-y,z
1/2+x,1/2+y,z
1/2-x,1/2-y,z
1/2+x,1/2-y,-z
1/2-x,1/2+y,-z
1/2-x,1/2-y,-z
1/2+x,1/2+y,-z
1/2-x,1/2+y,z
1/2+x,1/2-y,z
loop_
_atom_site_type_symbol
_atom_site_label
_atom_site_fract_x
_atom_site_fract_y
_atom_site_fract_z
Si Si1 0.303716 0.702962 0.589733
Si Si2 0.858732 0.800844 0.064888
Si Si3 0.550705 0.295691 0.872641
Si Si4 0.800443 0.690388 0.172502
Si Si5 0.850969 0.193342 0.285055
Si Si6 0.449265 0.799876 0.735490
Si Si7 0.330586 0.000000 0.500000
O O1 0.309096 0.500000 0.574442
O O2 0.250000 0.750000 0.585263
O O3 0.322049 0.723130 0.656178
O O4 0.327957 0.846630 0.550475
O O5 0.907038 0.730639 0.089076
O O6 0.821755 0.781629 0.116283
O O7 0.865798 0.000000 0.058933
O O8 0.846607 0.733673 0.000000
O O9 0.500000 0.244461 0.893470
O O10 0.551972 0.500000 0.871945
O O11 0.555588 0.238186 0.805066
O O12 0.796851 0.500000 0.153406
O O13 0.750000 0.750000 0.189497
O O14 0.832995 0.703877 0.229274
O O15 0.904772 0.224197 0.295410
O O16 0.844538 0.000000 0.267225
O O17 0.500000 0.736949 0.717596
O O18 0.448412 0.000000 0.727014
#
# Coordination Sequence:
#
# PCOD9489017 Si02
#       7
#    16  16  16  16  16  16   4
#     4  11  24  38  61  94 126 172 213 247 296 354
#     4  10  21  37  56  80 111 150 196 243 296 359
#     4   9  17  31  53  80 111 149 189 234 294 358
#     4  12  25  40  61  81 110 150 191 248 306 356
#     4  11  23  39  60  90 124 154 200 247 293 357
#     4  10  20  33  55  86 120 155 193 240 298 355
#     4  12  24  40  66  86 137 176 201 260 284 356
#
# _framework density 18.994416000000001
#
# number of rings (size 3 to 8) (size 9 to 14) (size 15 to 20)
#    0.000    1.440    2.400    3.360    2.240    3.200 
#    0.000    1.600    0.000    0.000    0.000    4.480 
#    0.000    2.560    0.000    0.000    0.000    0.000 
#
# Total GULP energy -278383.098128 kJ/mol
# GULP energy per Si atom -5567.661963 kJ/mol
# Density = 1.895118 g / cm^3
# Si number density = 18.994416 Si / 1000 Ang^3
#
#
#
# Elastic Constant Matrix: (Units=GPa)
#
#
# Indices 1 2 3 4 5 6 
#
# 1 54.3187 -3.2564 -1.7109 0.0000 0.0000 0.0000
# 2 -3.2564 65.4036 14.0846 0.0000 0.0000 0.0000
# 3 -1.7109 14.0846 45.7230 0.0000 0.0000 0.0000
# 4 0.0000 0.0000 0.0000 11.9771 0.0000 0.0000
# 5 0.0000 0.0000 0.0000 0.0000 -534.7011 0.0000
# 6 0.0000 0.0000 0.0000 0.0000 0.0000 19.6556
#
#
#
# Elastic Compliance Matrix: (Units=1/GPa)
#
#
# Indices 1 2 3 4 5 6 
#
# 1 0.018473 0.000826 0.000437 0.000000 0.000000 0.000000
# 2 0.000826 0.016413 -0.005025 0.000000 0.000000 0.000000
# 3 0.000437 -0.005025 0.023435 0.000000 0.000000 0.000000
# 4 0.000000 0.000000 0.000000 0.083493 0.000000 0.000000
# 5 0.000000 0.000000 0.000000 0.000000 -0.001870 0.000000
# 6 0.000000 0.000000 0.000000 0.000000 0.000000 0.050876
#
#
# Mechanical properties :
#
#
# Convention : Reuss Voigt Hill
#
# Bulk Modulus (GPa) = 19.68644 20.40886 20.04765
# Shear Modulus (GPa) = 23.22593 -90.19180 -33.48294
#
# Velocity S-wave (km/s) = 3.50062 -6.89829 -4.20310
# Velocity P-wave (km/s) = 5.16971 7.25814 3.60240
#
# Compressibility (1/GPa) = 0.05079638
#
# Stress axis : x y z
#
# Youngs Moduli (GPa) = 54.13270 60.92758 42.67102
#
# Poissons Ratio (x) = -0.05031 -0.01864
# Poissons Ratio (y) = -0.04470 0.21442
# Poissons Ratio (z) = -0.02365 0.30616
#
# Static dielectric constant tensor:
#      x y z
#    x 1.660750 0.000000 0.000000 
#    y 0.000000 1.679020 0.000000 
#    z 0.000000 0.000000 1.638400 
# 
# From -- ./inp_files/66431.got.cif
#   From: 2010.05.17/outbox.cif.g08.bks.cpg/sg65_34_cif.got.tgz:66431.got - 2010.06.03 17:01:31.
