data_PCOD9489299
_publ_section_title
;
Structure prediction by ZEFSAII (Michael W. Deem and Ramdas Pophale) SiO2 
 PCOD9489299
Probable space group: C M M M
;
_chemical_formula_sum "Si O2"
_cell_formula_units_Z 104
_cell_length_a 9.053907
_cell_length_b 19.303413
_cell_length_c 34.120993
_cell_angle_alpha 90.000000
_cell_angle_beta 90.000000
_cell_angle_gamma 90.000000
_cell_volume 5963.370512
_symmetry_space_group_name_H-M "C M M M"
_symmetry_group_IT_number 65
_symmetry_cell_setting 'orthorhombic'
loop_
_space_group_symop_operation_xyz
x,y,z
-x,-y,z
x,-y,-z
-x,y,-z
-x,-y,-z
x,y,-z
-x,y,z
x,-y,z
1/2+x,1/2+y,z
1/2-x,1/2-y,z
1/2+x,1/2-y,-z
1/2-x,1/2+y,-z
1/2-x,1/2-y,-z
1/2+x,1/2+y,-z
1/2-x,1/2+y,z
1/2+x,1/2-y,z
loop_
_atom_site_type_symbol
_atom_site_label
_atom_site_fract_x
_atom_site_fract_y
_atom_site_fract_z
Si Si1 0.823355 0.919346 0.840340
Si Si2 0.823479 0.419452 0.390902
Si Si3 0.829756 0.084544 0.000000
Si Si4 0.177439 0.325004 0.315702
Si Si5 0.678039 0.325110 0.234185
Si Si6 0.175777 0.176599 0.545955
Si Si7 0.329659 0.915596 0.920487
O O1 0.786840 0.874960 0.802098
O O2 0.747048 0.893551 0.880129
O O3 0.000000 0.916666 0.845958
O O4 0.782255 0.000000 0.834364
O O5 0.783504 0.500000 0.387220
O O6 0.792045 0.377204 0.351156
O O7 0.740578 0.382510 0.426486
O O8 0.000000 0.414997 0.397614
O O9 0.750820 0.107712 0.039884
O O10 0.000000 0.105151 0.000000
O O11 0.824827 0.000000 0.000000
O O12 0.250000 0.250000 0.324100
O O13 0.250566 0.349785 0.275061
O O14 0.000000 0.317681 0.311265
O O15 0.500000 0.319733 0.237989
O O16 0.750000 0.250000 0.226991
O O17 0.207664 0.163333 0.500000
O O18 0.250000 0.250000 0.556490
O O19 0.000000 0.182096 0.550736
O O20 0.500000 0.895048 0.921120
O O21 0.323284 0.000000 0.920636
#
# Coordination Sequence:
#
# PCOD9489299 Si02
#       7
#    16  16   8  16  16  16  16
#     4   9  18  32  48  68  96 128 161 198 243 295
#     4  10  22  38  55  79 111 144 176 213 261 313
#     4   9  15  23  37  57  86 125 162 197 240 289
#     4  10  20  35  55  76 100 131 169 211 252 299
#     4  10  20  34  53  75  99 129 166 207 250 298
#     4  10  21  37  58  83 109 140 180 222 262 307
#     4   9  16  25  39  62  91 122 158 200 244 289
#
# _framework density 17.439800000000002
#
# number of rings (size 3 to 8) (size 9 to 14) (size 15 to 20)
#    0.000    2.385    0.000    3.462    0.000    8.615 
#    0.000    1.538    0.000    0.000    0.000    0.538 
#    0.000    0.000    0.000    0.000    0.000    0.000 
#
# Total GULP energy -290117.041190 kJ/mol
# GULP energy per Si atom -5579.173869 kJ/mol
# Density = 1.740011 g / cm^3
# Si number density = 17.439800 Si / 1000 Ang^3
#
#
#
# Elastic Constant Matrix: (Units=GPa)
#
#
# Indices 1 2 3 4 5 6 
#
# 1 78.7637 50.0867 81.3320 0.0000 0.0000 0.0000
# 2 50.0867 70.8771 84.7573 0.0000 0.0000 0.0000
# 3 81.3320 84.7573 154.3462 0.0000 0.0000 0.0000
# 4 0.0000 0.0000 0.0000 48.6702 0.0000 0.0000
# 5 0.0000 0.0000 0.0000 0.0000 32.6833 0.0000
# 6 0.0000 0.0000 0.0000 0.0000 0.0000 19.2604
#
#
#
# Elastic Compliance Matrix: (Units=1/GPa)
#
#
# Indices 1 2 3 4 5 6 
#
# 1 0.028821 -0.006425 -0.011659 0.000000 0.000000 0.000000
# 2 -0.006425 0.042528 -0.019968 0.000000 0.000000 0.000000
# 3 -0.011659 -0.019968 0.023588 0.000000 0.000000 0.000000
# 4 0.000000 0.000000 0.000000 0.020546 0.000000 0.000000
# 5 0.000000 0.000000 0.000000 0.000000 0.030597 0.000000
# 6 0.000000 0.000000 0.000000 0.000000 0.000000 0.051920
#
#
# Mechanical properties :
#
#
# Convention : Reuss Voigt Hill
#
# Bulk Modulus (GPa) = 53.09867 81.81546 67.45707
# Shear Modulus (GPa) = 17.83293 25.97684 21.90488
#
# Velocity S-wave (km/s) = 3.20119 3.86361 3.54789
# Velocity P-wave (km/s) = 6.64653 8.18036 7.45301
#
# Compressibility (1/GPa) = 0.01883286
#
# Stress axis : x y z
#
# Youngs Moduli (GPa) = 34.69712 23.51419 42.39474
#
# Poissons Ratio (x) = 0.15107 0.49428
# Poissons Ratio (y) = 0.22291 0.84654
# Poissons Ratio (z) = 0.40453 0.46953
#
# Static dielectric constant tensor:
#      x y z
#    x 1.585380 0.000000 0.000000 
#    y 0.000000 1.573210 0.000000 
#    z 0.000000 0.000000 1.584480 
# 
# From -- ./inp_files/76900.got.cif
#   From: 2010.05.17/outbox.cif.g08.bks.cpg/sg65_39_cif.got.tgz:76900.got - 2010.06.03 17:01:31.
