data_PCOD9489804
_publ_section_title
;
Structure prediction by ZEFSAII (Michael W. Deem and Ramdas Pophale) SiO2 
 PCOD9489804
Probable space group: C M M M
;
_chemical_formula_sum "Si O2"
_cell_formula_units_Z 88
_cell_length_a 28.550594
_cell_length_b 8.930849
_cell_length_c 21.770106
_cell_angle_alpha 90.000000
_cell_angle_beta 90.000000
_cell_angle_gamma 90.000000
_cell_volume 5550.964353
_symmetry_space_group_name_H-M "C M M M"
_symmetry_group_IT_number 65
_symmetry_cell_setting 'orthorhombic'
loop_
_space_group_symop_operation_xyz
x,y,z
-x,-y,z
x,-y,-z
-x,y,-z
-x,-y,-z
x,y,-z
-x,y,z
x,-y,z
1/2+x,1/2+y,z
1/2-x,1/2-y,z
1/2+x,1/2-y,-z
1/2-x,1/2+y,-z
1/2-x,1/2-y,-z
1/2+x,1/2+y,-z
1/2-x,1/2+y,z
1/2+x,1/2-y,z
loop_
_atom_site_type_symbol
_atom_site_label
_atom_site_fract_x
_atom_site_fract_y
_atom_site_fract_z
Si Si1 0.198590 0.679064 0.000000
Si Si2 0.554327 0.319974 0.693285
Si Si3 0.698261 0.820237 0.135330
Si Si4 0.390780 0.320495 0.184275
Si Si5 0.943467 0.677365 0.432833
Si Si6 0.443505 0.176824 0.930374
O O1 0.250000 0.750000 0.000000
O O2 0.178815 0.719695 0.066520
O O3 0.202369 0.500000 0.000000
O O4 0.500000 0.271805 0.700239
O O5 0.554731 0.500000 0.690290
O O6 0.582915 0.273945 0.753363
O O7 0.573327 0.257035 0.628856
O O8 0.750000 0.750000 0.141478
O O9 0.660555 0.751668 0.180959
O O10 0.701053 0.000000 0.140099
O O11 0.387530 0.500000 0.182774
O O12 0.419939 0.264735 0.125143
O O13 0.926387 0.730976 0.500000
O O14 0.934486 0.500000 0.428821
O O15 0.000000 0.696856 0.433384
O O16 0.500000 0.189651 0.926389
O O17 0.431542 0.000000 0.924844
O O18 0.429926 0.223868 0.000000
#
# Coordination Sequence:
#
# PCOD9489804 Si02
#       6
#     8  16  16  16  16  16
#     4   8  16  30  48  66  83 104 133 176 228 281
#     4   9  18  31  45  64  94 129 162 194 226 266
#     4  10  20  35  52  70  91 117 149 191 241 292
#     4  11  22  33  47  69  95 124 157 194 236 283
#     4   8  14  25  42  65  92 121 154 191 228 267
#     4   9  19  35  51  66  87 118 158 201 240 279
#
# _framework density 15.853101000000001
#
# number of rings (size 3 to 8) (size 9 to 14) (size 15 to 20)
#    0.000    2.727    0.000    2.727    1.273    4.000 
#    0.000    4.545    0.000    0.000    0.000    0.000 
#    0.000    0.727    0.000    2.364    0.000    3.455 
#
# Total GULP energy -245151.825341 kJ/mol
# GULP energy per Si atom -5571.632394 kJ/mol
# Density = 1.581702 g / cm^3
# Si number density = 15.853101 Si / 1000 Ang^3
#
#
#
# Elastic Constant Matrix: (Units=GPa)
#
#
# Indices 1 2 3 4 5 6 
#
# 1 59.7330 28.0025 59.9532 0.0000 0.0000 0.0000
# 2 28.0025 32.3924 46.4740 0.0000 0.0000 0.0000
# 3 59.9532 46.4740 152.5005 0.0000 0.0000 0.0000
# 4 0.0000 0.0000 0.0000 26.2543 0.0000 0.0000
# 5 0.0000 0.0000 0.0000 0.0000 11.5336 0.0000
# 6 0.0000 0.0000 0.0000 0.0000 0.0000 21.3500
#
#
#
# Elastic Compliance Matrix: (Units=1/GPa)
#
#
# Indices 1 2 3 4 5 6 
#
# 1 0.032292 -0.017239 -0.007441 0.000000 0.000000 0.000000
# 2 -0.017239 0.064059 -0.012745 0.000000 0.000000 0.000000
# 3 -0.007441 -0.012745 0.013367 0.000000 0.000000 0.000000
# 4 0.000000 0.000000 0.000000 0.038089 0.000000 0.000000
# 5 0.000000 0.000000 0.000000 0.000000 0.086703 0.000000
# 6 0.000000 0.000000 0.000000 0.000000 0.000000 0.046838
#
#
# Mechanical properties :
#
#
# Convention : Reuss Voigt Hill
#
# Bulk Modulus (GPa) = 28.68007 57.05392 42.86699
# Shear Modulus (GPa) = 13.59361 19.17399 16.38380
#
# Velocity S-wave (km/s) = 2.93144 3.48153 3.21826
# Velocity P-wave (km/s) = 5.43950 7.22694 6.39597
#
# Compressibility (1/GPa) = 0.03486742
#
# Stress axis : x y z
#
# Youngs Moduli (GPa) = 30.96789 15.61062 74.81286
#
# Poissons Ratio (x) = 0.26911 0.55671
# Poissons Ratio (y) = 0.53385 0.95345
# Poissons Ratio (z) = 0.23044 0.19895
#
# Static dielectric constant tensor:
#      x y z
#    x 1.525170 0.000000 0.000000 
#    y 0.000000 1.530450 0.000000 
#    z 0.000000 0.000000 1.551480 
# 
# From -- ./inp_files/57990.got.cif
#   From: 2010.05.17/outbox.cif.g08.bks.cpg/sg65_29_cif.got.tgz:57990.got - 2010.06.03 17:01:31.
