data_PCOD9489512
_publ_section_title
;
Structure prediction by ZEFSAII (Michael W. Deem and Ramdas Pophale) SiO2 
 PCOD9489512
Probable space group: C M M M
;
_chemical_formula_sum "Si O2"
_cell_formula_units_Z 80
_cell_length_a 8.858542
_cell_length_b 18.818658
_cell_length_c 26.090878
_cell_angle_alpha 90.000000
_cell_angle_beta 90.000000
_cell_angle_gamma 90.000000
_cell_volume 4349.502575
_symmetry_space_group_name_H-M "C M M M"
_symmetry_group_IT_number 65
_symmetry_cell_setting 'orthorhombic'
loop_
_space_group_symop_operation_xyz
x,y,z
-x,-y,z
x,-y,-z
-x,y,-z
-x,-y,-z
x,y,-z
-x,y,z
x,-y,z
1/2+x,1/2+y,z
1/2-x,1/2-y,z
1/2+x,1/2-y,-z
1/2-x,1/2+y,-z
1/2-x,1/2-y,-z
1/2+x,1/2+y,-z
1/2-x,1/2+y,z
1/2+x,1/2-y,z
loop_
_atom_site_type_symbol
_atom_site_label
_atom_site_fract_x
_atom_site_fract_y
_atom_site_fract_z
Si Si1 0.319604 0.172609 0.090629
Si Si2 0.182540 0.171287 0.399987
Si Si3 0.182068 0.082414 0.700750
Si Si4 0.322352 0.415723 0.000000
Si Si5 0.183932 0.081984 0.500000
Si Si6 0.680408 0.172409 0.209074
O O1 0.500000 0.176072 0.085667
O O2 0.250000 0.250000 0.079985
O O3 0.282850 0.154616 0.149831
O O4 0.252710 0.118016 0.050185
O O5 0.250000 0.250000 0.401325
O O6 0.226609 0.129448 0.348407
O O7 0.229939 0.125094 0.449354
O O8 0.000000 0.176253 0.400750
O O9 0.253729 0.116033 0.751358
O O10 0.000000 0.085635 0.704767
O O11 0.224432 0.000000 0.693882
O O12 0.303137 0.500000 0.000000
O O13 0.500000 0.398849 0.000000
O O14 0.000000 0.080098 0.500000
O O15 0.235118 0.000000 0.500000
O O16 0.500000 0.176462 0.213920
O O17 0.750000 0.250000 0.220126
#
# Coordination Sequence:
#
# PCOD9489512 Si02
#       6
#    16  16  16   8   8  16
#     4  10  21  38  60  83 109 142 181 224 268 319
#     4  10  20  34  54  79 106 139 180 223 268 320
#     4  10  21  36  54  78 109 144 181 223 272 324
#     4  11  24  39  56  81 113 147 182 221 268 321
#     4   9  17  32  55  79 104 137 178 222 266 319
#     4  10  21  37  58  83 109 141 181 223 269 321
#
# _framework density 18.392907999999998
#
# number of rings (size 3 to 8) (size 9 to 14) (size 15 to 20)
#    0.000    2.000    0.000    3.300    0.000    9.200 
#    0.000    4.000    0.000    2.400    0.000    0.000 
#    0.000    0.000    0.000    0.000    0.000    0.000 
#
# Total GULP energy -223460.409398 kJ/mol
# GULP energy per Si atom -5586.510235 kJ/mol
# Density = 1.835105 g / cm^3
# Si number density = 18.392908 Si / 1000 Ang^3
#
#
#
# Elastic Constant Matrix: (Units=GPa)
#
#
# Indices 1 2 3 4 5 6 
#
# 1 37.4227 51.1996 51.1232 0.0000 0.0000 0.0000
# 2 51.1996 152.7131 96.6336 0.0000 0.0000 0.0000
# 3 51.1232 96.6336 121.6931 0.0000 0.0000 0.0000
# 4 0.0000 0.0000 0.0000 -32.7368 0.0000 0.0000
# 5 0.0000 0.0000 0.0000 0.0000 13.0900 0.0000
# 6 0.0000 0.0000 0.0000 0.0000 0.0000 34.5751
#
#
#
# Elastic Compliance Matrix: (Units=1/GPa)
#
#
# Indices 1 2 3 4 5 6 
#
# 1 0.069128 -0.009648 -0.021380 0.000000 0.000000 0.000000
# 2 -0.009648 0.014508 -0.007468 0.000000 0.000000 0.000000
# 3 -0.021380 -0.007468 0.023129 0.000000 0.000000 0.000000
# 4 0.000000 0.000000 0.000000 -0.030547 0.000000 0.000000
# 5 0.000000 0.000000 0.000000 0.000000 0.076394 0.000000
# 6 0.000000 0.000000 0.000000 0.000000 0.000000 0.028923
#
#
# Mechanical properties :
#
#
# Convention : Reuss Voigt Hill
#
# Bulk Modulus (GPa) = 33.58512 78.86019 56.22265
# Shear Modulus (GPa) = 18.62547 10.51049 14.56798
#
# Velocity S-wave (km/s) = 3.18566 2.39308 2.81738
# Velocity P-wave (km/s) = 5.64187 7.11366 6.42008
#
# Compressibility (1/GPa) = 0.02977509
#
# Stress axis : x y z
#
# Youngs Moduli (GPa) = 14.46591 68.92719 43.23621
#
# Poissons Ratio (x) = 0.66499 0.92438
# Poissons Ratio (y) = 0.13956 0.32287
# Poissons Ratio (z) = 0.30928 0.51471
#
# Static dielectric constant tensor:
#      x y z
#    x 1.620060 0.000000 0.000000 
#    y 0.000000 1.594050 0.000000 
#    z 0.000000 0.000000 1.622570 
# 
# From -- ./inp_files/67278.got.cif
#   From: 2010.05.17/outbox.cif.g08.bks.cpg/sg65_34_cif.got.tgz:67278.got - 2010.06.03 17:01:31.
