data_PCOD9489618
_publ_section_title
;
Structure prediction by ZEFSAII (Michael W. Deem and Ramdas Pophale) SiO2 
 PCOD9489618
Probable space group: C M M M
;
_chemical_formula_sum "Si O2"
_cell_formula_units_Z 72
_cell_length_a 35.339465
_cell_length_b 7.640207
_cell_length_c 13.049012
_cell_angle_alpha 90.000000
_cell_angle_beta 90.000000
_cell_angle_gamma 90.000000
_cell_volume 3523.244043
_symmetry_space_group_name_H-M "C M M M"
_symmetry_group_IT_number 65
_symmetry_cell_setting 'orthorhombic'
loop_
_space_group_symop_operation_xyz
x,y,z
-x,-y,z
x,-y,-z
-x,y,-z
-x,-y,-z
x,y,-z
-x,y,z
x,-y,z
1/2+x,1/2+y,z
1/2-x,1/2-y,z
1/2+x,1/2-y,-z
1/2-x,1/2+y,-z
1/2-x,1/2-y,-z
1/2+x,1/2+y,-z
1/2-x,1/2+y,z
1/2+x,1/2-y,z
loop_
_atom_site_type_symbol
_atom_site_label
_atom_site_fract_x
_atom_site_fract_y
_atom_site_fract_z
Si Si1 0.436413 0.287287 0.387211
Si Si2 0.294116 0.289492 0.500000
Si Si3 0.648151 0.291730 0.667781
Si Si4 0.623883 0.788963 0.888447
Si Si5 0.540400 0.204625 0.835696
O O1 0.450071 0.235209 0.500000
O O2 0.437784 0.500000 0.382361
O O3 0.392611 0.229201 0.373799
O O4 0.457469 0.218035 0.287609
O O5 0.296527 0.500000 0.500000
O O6 0.250000 0.250000 0.500000
O O7 0.317208 0.224077 0.400177
O O8 0.647315 0.500000 0.653605
O O9 0.648086 0.259136 0.789089
O O10 0.580601 0.721821 0.873452
O O11 0.621918 0.000000 0.888179
O O12 0.637896 0.731561 0.000000
O O13 0.500000 0.280717 0.869665
O O14 0.540281 0.000000 0.864930
#
# Coordination Sequence:
#
# PCOD9489618 Si02
#       5
#    16   8  16  16  16
#     4   9  16  28  46  64  86 122 163 199 238 285
#     4  10  20  34  54  82 111 134 155 187 234 289
#     4   9  17  32  52  73 100 130 161 196 236 287
#     4   9  18  32  50  72  96 126 168 212 249 286
#     4   9  18  30  42  61  91 125 161 203 251 296
#
# _framework density 20.435711999999999
#
# number of rings (size 3 to 8) (size 9 to 14) (size 15 to 20)
#    0.000    2.889    1.111    0.000    0.000    3.111 
#    0.000    4.444    0.000    0.667    0.000    6.222 
#    0.000    0.000    0.000    0.000    0.000    0.000 
#
# Total GULP energy -200739.030965 kJ/mol
# GULP energy per Si atom -5576.084193 kJ/mol
# Density = 2.038920 g / cm^3
# Si number density = 20.435712 Si / 1000 Ang^3
#
#
#
# Elastic Constant Matrix: (Units=GPa)
#
#
# Indices 1 2 3 4 5 6 
#
# 1 119.5555 6.4133 55.7706 0.0000 0.0000 0.0000
# 2 6.4133 37.9684 -3.3320 0.0000 0.0000 0.0000
# 3 55.7706 -3.3320 146.5424 0.0000 0.0000 0.0000
# 4 0.0000 0.0000 0.0000 17.0251 0.0000 0.0000
# 5 0.0000 0.0000 0.0000 0.0000 55.6572 0.0000
# 6 0.0000 0.0000 0.0000 0.0000 0.0000 5.7431
#
#
#
# Elastic Compliance Matrix: (Units=1/GPa)
#
#
# Indices 1 2 3 4 5 6 
#
# 1 0.010333 -0.002095 -0.003980 0.000000 0.000000 0.000000
# 2 -0.002095 0.026815 0.001407 0.000000 0.000000 0.000000
# 3 -0.003980 0.001407 0.008371 0.000000 0.000000 0.000000
# 4 0.000000 0.000000 0.000000 0.058737 0.000000 0.000000
# 5 0.000000 0.000000 0.000000 0.000000 0.017967 0.000000
# 6 0.000000 0.000000 0.000000 0.000000 0.000000 0.174122
#
#
# Mechanical properties :
#
#
# Convention : Reuss Voigt Hill
#
# Bulk Modulus (GPa) = 27.63735 46.86336 37.25035
# Shear Modulus (GPa) = 15.73602 32.03271 23.88437
#
# Velocity S-wave (km/s) = 2.77794 3.96345 3.42242
# Velocity P-wave (km/s) = 4.88290 6.62775 5.82107
#
# Compressibility (1/GPa) = 0.03618292
#
# Stress axis : x y z
#
# Youngs Moduli (GPa) = 96.77340 37.29261 119.46350
#
# Poissons Ratio (x) = 0.07812 0.47550
# Poissons Ratio (y) = 0.20271 -0.16807
# Poissons Ratio (z) = 0.38519 -0.05247
#
# Static dielectric constant tensor:
#      x y z
#    x 1.719020 0.000000 0.000000 
#    y 0.000000 1.769980 0.000000 
#    z 0.000000 0.000000 1.753840 
# 
# From -- ./inp_files/22694.got.cif
#   From: 2010.05.17/outbox.cif.g08.bks.cpg/sg65_12_cif.got.tgz:22694.got - 2010.06.03 17:01:31.
