data_PCOD9489078
_publ_section_title
;
Structure prediction by ZEFSAII (Michael W. Deem and Ramdas Pophale) SiO2 
 PCOD9489078
Probable space group: C M M M
;
_chemical_formula_sum "Si O2"
_cell_formula_units_Z 96
_cell_length_a 8.924663
_cell_length_b 27.975417
_cell_length_c 24.907397
_cell_angle_alpha 90.000000
_cell_angle_beta 90.000000
_cell_angle_gamma 90.000000
_cell_volume 6218.658926
_symmetry_space_group_name_H-M "C M M M"
_symmetry_group_IT_number 65
_symmetry_cell_setting 'orthorhombic'
loop_
_space_group_symop_operation_xyz
x,y,z
-x,-y,z
x,-y,-z
-x,y,-z
-x,-y,-z
x,y,-z
-x,y,z
x,-y,z
1/2+x,1/2+y,z
1/2-x,1/2-y,z
1/2+x,1/2-y,-z
1/2-x,1/2+y,-z
1/2-x,1/2-y,-z
1/2+x,1/2+y,-z
1/2-x,1/2+y,z
1/2+x,1/2-y,z
loop_
_atom_site_type_symbol
_atom_site_label
_atom_site_fract_x
_atom_site_fract_y
_atom_site_fract_z
Si Si1 0.179779 0.554498 0.387283
Si Si2 0.819600 0.145478 0.559781
Si Si3 0.322967 0.557767 0.058749
Si Si4 0.180376 0.444418 0.830618
Si Si5 0.679700 0.301275 0.332374
Si Si6 0.180127 0.608482 0.722521
O O1 0.228814 0.500000 0.395944
O O2 0.255534 0.593434 0.425464
O O3 0.211283 0.571598 0.326251
O O4 0.000000 0.556527 0.394464
O O5 0.771495 0.160002 0.500000
O O6 0.773673 0.180982 0.607727
O O7 0.000000 0.143083 0.560764
O O8 0.500000 0.567787 0.062509
O O9 0.306240 0.500000 0.058200
O O10 0.241340 0.574297 0.112524
O O11 0.268943 0.574962 0.000000
O O12 0.227878 0.500000 0.823954
O O13 0.227948 0.413868 0.779124
O O14 0.000000 0.444203 0.832147
O O15 0.500000 0.299022 0.330246
O O16 0.750000 0.250000 0.320958
O O17 0.739907 0.342256 0.292725
O O18 0.000000 0.615653 0.723527
#
# Coordination Sequence:
#
# PCOD9489078 Si02
#       6
#    16  16  16  16  16  16
#     4   9  17  29  45  64  87 116 147 177 209 247
#     4   9  19  34  48  64  87 112 139 172 210 255
#     4   8  14  24  36  52  80 119 157 188 217 248
#     4   9  16  25  40  63  89 118 151 184 216 249
#     4  10  20  34  51  68  85 107 136 172 217 265
#     4   9  17  30  46  64  88 115 143 177 216 257
#
# _framework density 15.437412
#
# number of rings (size 3 to 8) (size 9 to 14) (size 15 to 20)
#    0.000    3.000    0.000    1.500    0.000    5.000 
#    0.000    3.333    0.000    3.000    0.000    0.000 
#    0.000    0.667    0.000    2.167    0.000    3.167 
#
# Total GULP energy -267351.285573 kJ/mol
# GULP energy per Si atom -5569.818449 kJ/mol
# Density = 1.540228 g / cm^3
# Si number density = 15.437412 Si / 1000 Ang^3
#
#
#
# Elastic Constant Matrix: (Units=GPa)
#
#
# Indices 1 2 3 4 5 6 
#
# 1 11.8767 17.3087 25.0244 0.0000 0.0000 0.0000
# 2 17.3087 67.7157 29.9639 0.0000 0.0000 0.0000
# 3 25.0244 29.9639 122.5866 0.0000 0.0000 0.0000
# 4 0.0000 0.0000 0.0000 10.1928 0.0000 0.0000
# 5 0.0000 0.0000 0.0000 0.0000 24.3667 0.0000
# 6 0.0000 0.0000 0.0000 0.0000 0.0000 20.4526
#
#
#
# Elastic Compliance Matrix: (Units=1/GPa)
#
#
# Indices 1 2 3 4 5 6 
#
# 1 0.213028 -0.039479 -0.033837 0.000000 0.000000 0.000000
# 2 -0.039479 0.023875 0.002223 0.000000 0.000000 0.000000
# 3 -0.033837 0.002223 0.014521 0.000000 0.000000 0.000000
# 4 0.000000 0.000000 0.000000 0.098108 0.000000 0.000000
# 5 0.000000 0.000000 0.000000 0.000000 0.041040 0.000000
# 6 0.000000 0.000000 0.000000 0.000000 0.000000 0.048894
#
#
# Mechanical properties :
#
#
# Convention : Reuss Voigt Hill
#
# Bulk Modulus (GPa) = 9.15421 38.53033 23.84227
# Shear Modulus (GPa) = 8.08978 19.66123 13.87550
#
# Velocity S-wave (km/s) = 2.29167 3.57264 3.00129
# Velocity P-wave (km/s) = 3.59793 6.48318 5.24293
#
# Compressibility (1/GPa) = 0.10923932
#
# Stress axis : x y z
#
# Youngs Moduli (GPa) = 4.69422 41.88491 68.86384
#
# Poissons Ratio (x) = 1.65357 2.33014
# Poissons Ratio (y) = 0.18532 -0.15311
# Poissons Ratio (z) = 0.15884 -0.09312
#
# Static dielectric constant tensor:
#      x y z
#    x 1.517440 0.000000 0.000000 
#    y 0.000000 1.482320 0.000000 
#    z 0.000000 0.000000 1.533890 
# 
# From -- ./inp_files/60268.got.cif
#   From: 2010.05.17/outbox.cif.g08.bks.cpg/sg65_31_cif.got.tgz:60268.got - 2010.06.03 17:01:31.
