data_PCOD9489527
_publ_section_title
;
Structure prediction by ZEFSAII (Michael W. Deem and Ramdas Pophale) SiO2 
 PCOD9489527
Probable space group: C M M M
;
_chemical_formula_sum "Si O2"
_cell_formula_units_Z 72
_cell_length_a 29.663781
_cell_length_b 8.740709
_cell_length_c 14.863182
_cell_angle_alpha 90.000000
_cell_angle_beta 90.000000
_cell_angle_gamma 90.000000
_cell_volume 3853.762653
_symmetry_space_group_name_H-M "C M M M"
_symmetry_group_IT_number 65
_symmetry_cell_setting 'orthorhombic'
loop_
_space_group_symop_operation_xyz
x,y,z
-x,-y,z
x,-y,-z
-x,y,-z
-x,-y,-z
x,y,-z
-x,y,z
x,-y,z
1/2+x,1/2+y,z
1/2-x,1/2-y,z
1/2+x,1/2-y,-z
1/2-x,1/2+y,-z
1/2-x,1/2-y,-z
1/2+x,1/2+y,-z
1/2-x,1/2+y,z
1/2+x,1/2-y,z
loop_
_atom_site_type_symbol
_atom_site_label
_atom_site_fract_x
_atom_site_fract_y
_atom_site_fract_z
Si Si1 0.949110 0.814612 0.500000
Si Si2 0.885870 0.180882 0.845562
Si Si3 0.294003 0.170985 0.893445
Si Si4 0.052125 0.316901 0.000000
Si Si5 0.301063 0.183902 0.500000
Si Si6 0.373086 0.314414 0.361087
O O1 0.918293 0.771963 0.415410
O O2 0.000000 0.755056 0.500000
O O3 0.951734 0.000000 0.500000
O O4 0.836917 0.222434 0.883338
O O5 0.881895 0.231024 0.741708
O O6 0.894023 0.000000 0.847281
O O7 0.922138 0.258453 0.910937
O O8 0.250000 0.250000 0.852334
O O9 0.301977 0.000000 0.856998
O O10 0.286305 0.154588 0.000000
O O11 0.054048 0.500000 0.000000
O O12 0.000000 0.267485 0.000000
O O13 0.250000 0.250000 0.500000
O O14 0.330432 0.242309 0.413600
O O15 0.299360 0.000000 0.500000
O O16 0.367620 0.500000 0.364779
#
# Coordination Sequence:
#
# PCOD9489527 Si02
#       6
#     8  16  16   8   8  16
#     4   8  14  30  57  83 108 138 174 222 280 337
#     4  11  22  37  60  86 116 153 196 246 295 347
#     4  10  20  34  54  79 110 147 186 230 279 332
#     4  11  25  43  60  81 116 161 203 247 301 355
#     4  11  22  38  62  88 119 160 198 238 287 346
#     4   9  20  37  57  86 119 150 189 238 290 346
#
# _framework density 18.683039999999998
#
# number of rings (size 3 to 8) (size 9 to 14) (size 15 to 20)
#    0.000    2.000    1.111    3.333    0.000    5.333 
#    0.000    2.222    0.000    5.333    0.000    0.000 
#    0.000    0.000    0.000    0.000    0.000    0.000 
#
# Total GULP energy -200726.154247 kJ/mol
# GULP energy per Si atom -5575.726507 kJ/mol
# Density = 1.864052 g / cm^3
# Si number density = 18.683040 Si / 1000 Ang^3
#
#
#
# Elastic Constant Matrix: (Units=GPa)
#
#
# Indices 1 2 3 4 5 6 
#
# 1 175.2546 35.2416 70.6651 0.0000 0.0000 0.0000
# 2 35.2416 44.1582 47.1436 0.0000 0.0000 0.0000
# 3 70.6651 47.1436 124.1908 0.0000 0.0000 0.0000
# 4 0.0000 0.0000 0.0000 21.1945 0.0000 0.0000
# 5 0.0000 0.0000 0.0000 0.0000 -45.6022 0.0000
# 6 0.0000 0.0000 0.0000 0.0000 0.0000 21.9018
#
#
#
# Elastic Compliance Matrix: (Units=1/GPa)
#
#
# Indices 1 2 3 4 5 6 
#
# 1 0.007556 -0.002422 -0.003380 0.000000 0.000000 0.000000
# 2 -0.002422 0.038854 -0.013371 0.000000 0.000000 0.000000
# 3 -0.003380 -0.013371 0.015051 0.000000 0.000000 0.000000
# 4 0.000000 0.000000 0.000000 0.047182 0.000000 0.000000
# 5 0.000000 0.000000 0.000000 0.000000 -0.021929 0.000000
# 6 0.000000 0.000000 0.000000 0.000000 0.000000 0.045658
#
#
# Mechanical properties :
#
#
# Convention : Reuss Voigt Hill
#
# Bulk Modulus (GPa) = 43.26196 72.18936 57.72566
# Shear Modulus (GPa) = 28.02331 12.20238 20.11285
#
# Velocity S-wave (km/s) = 3.87710 2.55841 3.28461
# Velocity P-wave (km/s) = 6.57636 6.88840 6.73419
#
# Compressibility (1/GPa) = 0.02311500
#
# Stress axis : x y z
#
# Youngs Moduli (GPa) = 132.34843 25.73763 66.43985
#
# Poissons Ratio (x) = 0.06232 0.22457
# Poissons Ratio (y) = 0.32049 0.88838
# Poissons Ratio (z) = 0.44735 0.34414
#
# Static dielectric constant tensor:
#      x y z
#    x 1.624990 0.000000 0.000000 
#    y 0.000000 1.665940 0.000000 
#    z 0.000000 0.000000 1.620660 
# 
# From -- ./inp_files/46556.got.cif
#   From: 2010.05.17/outbox.cif.g08.bks.cpg/sg65_24_cif.got.tgz:46556.got - 2010.06.03 17:01:31.
