data_PCOD9489819
_publ_section_title
;
Structure prediction by ZEFSAII (Michael W. Deem and Ramdas Pophale) SiO2 
 PCOD9489819
Probable space group: C M M M
;
_chemical_formula_sum "Si O2"
_cell_formula_units_Z 120
_cell_length_a 13.803100
_cell_length_b 23.657825
_cell_length_c 21.437490
_cell_angle_alpha 90.000000
_cell_angle_beta 90.000000
_cell_angle_gamma 90.000000
_cell_volume 7000.440748
_symmetry_space_group_name_H-M "C M M M"
_symmetry_group_IT_number 65
_symmetry_cell_setting 'orthorhombic'
loop_
_space_group_symop_operation_xyz
x,y,z
-x,-y,z
x,-y,-z
-x,y,-z
-x,-y,-z
x,y,-z
-x,y,z
x,-y,z
1/2+x,1/2+y,z
1/2-x,1/2-y,z
1/2+x,1/2-y,-z
1/2-x,1/2+y,-z
1/2-x,1/2-y,-z
1/2+x,1/2+y,-z
1/2-x,1/2+y,z
1/2+x,1/2-y,z
loop_
_atom_site_type_symbol
_atom_site_label
_atom_site_fract_x
_atom_site_fract_y
_atom_site_fract_z
Si Si1 0.389318 0.566495 0.861975
Si Si2 0.757764 0.833115 0.329598
Si Si3 0.886461 0.261176 0.730641
Si Si4 0.116669 0.500000 0.429559
Si Si5 0.233485 0.840018 0.927248
Si Si6 0.887314 0.739791 0.875201
Si Si7 0.613579 0.873750 0.575304
Si Si8 0.887366 0.934155 0.712452
O O1 0.500000 0.583437 0.878365
O O2 0.378954 0.500000 0.875715
O O3 0.312504 0.604460 0.897425
O O4 0.379666 0.573314 0.787295
O O5 0.837206 0.784327 0.315675
O O6 0.673678 0.818634 0.279399
O O7 0.694819 0.834803 0.392945
O O8 0.814529 0.891057 0.319442
O O9 0.873307 0.243131 0.802579
O O10 0.000000 0.267177 0.718729
O O11 0.157511 0.500000 0.500000
O O12 0.137740 0.561797 0.402445
O O13 0.000000 0.500000 0.434702
O O14 0.155251 0.789912 0.917032
O O15 0.326808 0.816058 0.891211
O O16 0.254159 0.847039 0.000000
O O17 0.000000 0.731391 0.885753
O O18 0.618628 0.872577 0.500000
O O19 0.500000 0.861353 0.591508
O O20 0.000000 0.922341 0.695974
O O21 0.867912 0.000000 0.698146
#
# Coordination Sequence:
#
# PCOD9489819 Si02
#       8
#    16  16  16   8  16  16  16  16
#     4   9  18  33  51  71 100 136 167 199 247 302
#     4  11  19  30  54  76 100 131 167 209 249 297
#     4  10  21  35  51  74 100 131 168 209 253 301
#     4   7  12  26  46  66  93 129 163 197 237 278
#     4  11  21  31  48  75 101 125 164 213 250 291
#     4  10  20  35  53  70  97 132 163 202 259 310
#     4   9  18  32  50  74 105 138 171 207 246 292
#     4   9  18  32  51  76 103 130 163 205 251 302
#
# _framework density 17.141777999999999
#
# number of rings (size 3 to 8) (size 9 to 14) (size 15 to 20)
#    0.000    2.333    0.000    6.800    0.933    4.267 
#    0.000    2.000    0.000    2.800    0.000    5.600 
#    0.000    0.000    0.000    0.000    0.000    0.000 
#
# Total GULP energy -334225.687124 kJ/mol
# GULP energy per Si atom -5570.428119 kJ/mol
# Density = 1.710276 g / cm^3
# Si number density = 17.141778 Si / 1000 Ang^3
#
#
#
# Elastic Constant Matrix: (Units=GPa)
#
#
# Indices 1 2 3 4 5 6 
#
# 1 125.3523 47.4017 33.4682 0.0000 0.0000 0.0000
# 2 47.4017 47.1213 22.5290 0.0000 0.0000 0.0000
# 3 33.4682 22.5290 42.1537 0.0000 0.0000 0.0000
# 4 0.0000 0.0000 0.0000 -17.7291 0.0000 0.0000
# 5 0.0000 0.0000 0.0000 0.0000 5.3202 0.0000
# 6 0.0000 0.0000 0.0000 0.0000 0.0000 26.0282
#
#
#
# Elastic Compliance Matrix: (Units=1/GPa)
#
#
# Indices 1 2 3 4 5 6 
#
# 1 0.013523 -0.011377 -0.004656 0.000000 0.000000 0.000000
# 2 -0.011377 0.038078 -0.011318 0.000000 0.000000 0.000000
# 3 -0.004656 -0.011318 0.033468 0.000000 0.000000 0.000000
# 4 0.000000 0.000000 0.000000 -0.056404 0.000000 0.000000
# 5 0.000000 0.000000 0.000000 0.000000 0.187963 0.000000
# 6 0.000000 0.000000 0.000000 0.000000 0.000000 0.038420
#
#
# Mechanical properties :
#
#
# Convention : Reuss Voigt Hill
#
# Bulk Modulus (GPa) = 32.93046 46.82502 39.87774
# Shear Modulus (GPa) = 15.63129 10.13910 12.88519
#
# Velocity S-wave (km/s) = 3.02302 2.43468 2.74466
# Velocity P-wave (km/s) = 5.60689 5.93963 5.77565
#
# Compressibility (1/GPa) = 0.03036702
#
# Stress axis : x y z
#
# Youngs Moduli (GPa) = 73.94832 26.26202 29.87920
#
# Poissons Ratio (x) = 0.29879 0.13912
# Poissons Ratio (y) = 0.84133 0.33816
# Poissons Ratio (z) = 0.34431 0.29722
#
# Static dielectric constant tensor:
#      x y z
#    x 1.576670 0.000000 0.000000 
#    y 0.000000 1.619420 0.000000 
#    z 0.000000 0.000000 1.590140 
# 
# From -- ./inp_files/63152.got.cif
#   From: 2010.05.17/outbox.cif.g08.bks.cpg/sg65_32_cif.got.tgz:63152.got - 2010.06.03 17:01:31.
