data_PCOD9489300
_publ_section_title
;
Structure prediction by ZEFSAII (Michael W. Deem and Ramdas Pophale) SiO2 
 PCOD9489300
Probable space group: C M M M
;
_chemical_formula_sum "Si O2"
_cell_formula_units_Z 80
_cell_length_a 18.981298
_cell_length_b 7.767563
_cell_length_c 26.442561
_cell_angle_alpha 90.000000
_cell_angle_beta 90.000000
_cell_angle_gamma 90.000000
_cell_volume 3898.649627
_symmetry_space_group_name_H-M "C M M M"
_symmetry_group_IT_number 65
_symmetry_cell_setting 'orthorhombic'
loop_
_space_group_symop_operation_xyz
x,y,z
-x,-y,z
x,-y,-z
-x,y,-z
-x,-y,-z
x,y,-z
-x,y,z
x,-y,z
1/2+x,1/2+y,z
1/2-x,1/2-y,z
1/2+x,1/2-y,-z
1/2-x,1/2+y,-z
1/2-x,1/2-y,-z
1/2+x,1/2+y,-z
1/2-x,1/2+y,z
1/2+x,1/2-y,z
loop_
_atom_site_type_symbol
_atom_site_label
_atom_site_fract_x
_atom_site_fract_y
_atom_site_fract_z
Si Si1 0.668783 0.207196 0.556844
Si Si2 0.579466 0.794780 0.153309
Si Si3 0.418826 0.789046 0.346979
Si Si4 0.330644 0.705117 0.056923
Si Si5 0.332180 0.792682 0.248870
O O1 0.653478 0.272105 0.500000
O O2 0.750000 0.250000 0.568679
O O3 0.617560 0.269453 0.600990
O O4 0.662910 0.000000 0.555471
O O5 0.500000 0.724661 0.154833
O O6 0.616340 0.767550 0.099536
O O7 0.628555 0.726609 0.198561
O O8 0.574625 0.000000 0.160880
O O9 0.500000 0.735658 0.342921
O O10 0.372830 0.731857 0.299001
O O11 0.418232 0.000000 0.347105
O O12 0.336029 0.500000 0.055135
O O13 0.250000 0.750000 0.070371
O O14 0.344003 0.773271 0.000000
O O15 0.250000 0.750000 0.249386
O O16 0.337141 0.000000 0.248764
#
# Coordination Sequence:
#
# PCOD9489300 Si02
#       5
#    16  16  16  16  16
#     4   9  17  29  47  71  97 127 164 204 245 291
#     4  10  21  36  54  77 105 136 170 209 254 304
#     4   9  17  30  49  72  98 128 163 205 250 294
#     4  10  21  37  57  80 106 137 173 211 251 298
#     4  10  20  34  53  75  99 130 168 207 249 299
#
# _framework density 20.519924
#
# number of rings (size 3 to 8) (size 9 to 14) (size 15 to 20)
#    0.000    2.400    0.000    2.400    0.000    7.200 
#    0.000    4.000    0.000    3.600    0.000    2.800 
#    0.000    0.000    0.000    0.000    0.000    0.000 
#
# Total GULP energy -223371.892008 kJ/mol
# GULP energy per Si atom -5584.297300 kJ/mol
# Density = 2.047322 g / cm^3
# Si number density = 20.519924 Si / 1000 Ang^3
#
#
#
# Elastic Constant Matrix: (Units=GPa)
#
#
# Indices 1 2 3 4 5 6 
#
# 1 210.3684 2.8055 144.2923 0.0000 0.0000 0.0000
# 2 2.8055 28.9050 6.1953 0.0000 0.0000 0.0000
# 3 144.2923 6.1953 164.1315 0.0000 0.0000 0.0000
# 4 0.0000 0.0000 0.0000 -20.5936 0.0000 0.0000
# 5 0.0000 0.0000 0.0000 0.0000 2.7238 0.0000
# 6 0.0000 0.0000 0.0000 0.0000 0.0000 25.7053
#
#
#
# Elastic Compliance Matrix: (Units=1/GPa)
#
#
# Indices 1 2 3 4 5 6 
#
# 1 0.012009 0.001106 -0.010599 0.000000 0.000000 0.000000
# 2 0.001106 0.034980 -0.002293 0.000000 0.000000 0.000000
# 3 -0.010599 -0.002293 0.015497 0.000000 0.000000 0.000000
# 4 0.000000 0.000000 0.000000 -0.048559 0.000000 0.000000
# 5 0.000000 0.000000 0.000000 0.000000 0.367135 0.000000
# 6 0.000000 0.000000 0.000000 0.000000 0.000000 0.038903
#
#
# Mechanical properties :
#
#
# Convention : Reuss Voigt Hill
#
# Bulk Modulus (GPa) = 25.69724 78.88789 52.29256
# Shear Modulus (GPa) = 10.95274 18.24122 14.59698
#
# Velocity S-wave (km/s) = 2.31283 2.98476 2.67002
# Velocity P-wave (km/s) = 4.43650 7.09975 5.91984
#
# Compressibility (1/GPa) = 0.03891469
#
# Stress axis : x y z
#
# Youngs Moduli (GPa) = 83.27405 28.58767 64.52915
#
# Poissons Ratio (x) = -0.03162 0.68393
# Poissons Ratio (y) = -0.09211 0.14795
# Poissons Ratio (z) = 0.88260 0.06555
#
# Static dielectric constant tensor:
#      x y z
#    x 1.677810 0.000000 0.000000 
#    y 0.000000 1.767570 0.000000 
#    z 0.000000 0.000000 1.732890 
# 
# From -- ./inp_files/68825.got.cif
#   From: 2010.05.17/outbox.cif.g08.bks.cpg/sg65_35_cif.got.tgz:68825.got - 2010.06.03 17:01:31.
