data_PCOD9489363
_publ_section_title
;
Structure prediction by ZEFSAII (Michael W. Deem and Ramdas Pophale) SiO2 
 PCOD9489363
Probable space group: C M M M
;
_chemical_formula_sum "Si O2"
_cell_formula_units_Z 72
_cell_length_a 17.644048
_cell_length_b 10.521917
_cell_length_c 22.573792
_cell_angle_alpha 90.000000
_cell_angle_beta 90.000000
_cell_angle_gamma 90.000000
_cell_volume 4190.806620
_symmetry_space_group_name_H-M "C M M M"
_symmetry_group_IT_number 65
_symmetry_cell_setting 'orthorhombic'
loop_
_space_group_symop_operation_xyz
x,y,z
-x,-y,z
x,-y,-z
-x,y,-z
-x,-y,-z
x,y,-z
-x,y,z
x,-y,z
1/2+x,1/2+y,z
1/2-x,1/2-y,z
1/2+x,1/2-y,-z
1/2-x,1/2+y,-z
1/2-x,1/2-y,-z
1/2+x,1/2+y,-z
1/2-x,1/2+y,z
1/2+x,1/2-y,z
loop_
_atom_site_type_symbol
_atom_site_label
_atom_site_fract_x
_atom_site_fract_y
_atom_site_fract_z
Si Si1 0.407484 0.000000 0.568063
Si Si2 0.910867 0.648752 0.237471
Si Si3 0.085257 0.653198 0.000000
Si Si4 0.092650 0.000000 0.431334
Si Si5 0.092528 0.250299 0.639000
Si Si6 0.181657 0.349043 0.883604
O O1 0.383210 0.126188 0.602246
O O2 0.500000 0.000000 0.568118
O O3 0.382979 0.000000 0.500000
O O4 0.905229 0.500000 0.255799
O O5 0.883989 0.733516 0.292707
O O6 0.865388 0.664793 0.177072
O O7 0.000000 0.673665 0.226679
O O8 0.130336 0.684974 0.059572
O O9 0.079812 0.500000 0.000000
O O10 0.000000 0.705153 0.000000
O O11 0.116959 0.875530 0.395285
O O12 0.116928 0.000000 0.500000
O O13 0.000000 0.000000 0.432249
O O14 0.000000 0.250600 0.639840
O O15 0.203041 0.500000 0.888651
O O16 0.250000 0.250000 0.882346
#
# Coordination Sequence:
#
# PCOD9489363 Si02
#       6
#     8  16   8   8  16  16
#     4   9  14  20  34  56  83 116 151 192 243 297
#     4   9  16  29  49  70  94 128 171 213 249 289
#     4   9  17  32  57  85 106 133 174 210 242 285
#     4   9  16  24  34  54  89 128 157 188 243 309
#     4   9  15  24  37  57  86 120 158 198 244 296
#     4  10  20  34  53  77 106 136 169 208 249 293
#
# _framework density 17.180463
#
# number of rings (size 3 to 8) (size 9 to 14) (size 15 to 20)
#    0.000    2.778    1.111    1.667    0.000    5.333 
#    2.000    0.000    0.000    2.667    0.000    0.000 
#    0.000    5.333    0.000    0.000    0.000    0.000 
#
# Total GULP energy -200580.826686 kJ/mol
# GULP energy per Si atom -5571.689630 kJ/mol
# Density = 1.714136 g / cm^3
# Si number density = 17.180463 Si / 1000 Ang^3
#
#
#
# Elastic Constant Matrix: (Units=GPa)
#
#
# Indices 1 2 3 4 5 6 
#
# 1 48.8929 41.5334 49.4811 0.0000 0.0000 0.0000
# 2 41.5334 118.5103 83.1007 0.0000 0.0000 0.0000
# 3 49.4811 83.1007 170.8750 0.0000 0.0000 0.0000
# 4 0.0000 0.0000 0.0000 24.9976 0.0000 0.0000
# 5 0.0000 0.0000 0.0000 0.0000 -8.4347 0.0000
# 6 0.0000 0.0000 0.0000 0.0000 0.0000 17.5448
#
#
#
# Elastic Compliance Matrix: (Units=1/GPa)
#
#
# Indices 1 2 3 4 5 6 
#
# 1 0.032619 -0.007297 -0.005897 0.000000 0.000000 0.000000
# 2 -0.007297 0.014437 -0.004908 0.000000 0.000000 0.000000
# 3 -0.005897 -0.004908 0.009947 0.000000 0.000000 0.000000
# 4 0.000000 0.000000 0.000000 0.040004 0.000000 0.000000
# 5 0.000000 0.000000 0.000000 0.000000 -0.118558 0.000000
# 6 0.000000 0.000000 0.000000 0.000000 0.000000 0.056997
#
#
# Mechanical properties :
#
#
# Convention : Reuss Voigt Hill
#
# Bulk Modulus (GPa) = 48.07879 76.27871 62.17875
# Shear Modulus (GPa) = 63.62726 17.76574 40.69650
#
# Velocity S-wave (km/s) = 6.09221 3.21918 4.87228
# Velocity P-wave (km/s) = 8.80523 7.63625 8.24149
#
# Compressibility (1/GPa) = 0.02079919
#
# Stress axis : x y z
#
# Youngs Moduli (GPa) = 30.65659 69.26695 100.53456
#
# Poissons Ratio (x) = 0.50542 0.59287
# Poissons Ratio (y) = 0.22369 0.49343
# Poissons Ratio (z) = 0.18079 0.33997
#
# Static dielectric constant tensor:
#      x y z
#    x 1.571520 0.000000 0.000000 
#    y 0.000000 1.572660 0.000000 
#    z 0.000000 0.000000 1.579770 
# 
# From -- ./inp_files/59431.got.cif
#   From: 2010.05.17/outbox.cif.g08.bks.cpg/sg65_30_cif.got.tgz:59431.got - 2010.06.03 17:01:31.
