data_PCOD9489830
_publ_section_title
;
Structure prediction by ZEFSAII (Michael W. Deem and Ramdas Pophale) SiO2 
 PCOD9489830
Probable space group: C M M M
;
_chemical_formula_sum "Si O2"
_cell_formula_units_Z 104
_cell_length_a 8.513668
_cell_length_b 30.355840
_cell_length_c 23.670760
_cell_angle_alpha 90.000000
_cell_angle_beta 90.000000
_cell_angle_gamma 90.000000
_cell_volume 6117.460412
_symmetry_space_group_name_H-M "C M M M"
_symmetry_group_IT_number 65
_symmetry_cell_setting 'orthorhombic'
loop_
_space_group_symop_operation_xyz
x,y,z
-x,-y,z
x,-y,-z
-x,y,-z
-x,-y,-z
x,y,-z
-x,y,z
x,-y,z
1/2+x,1/2+y,z
1/2-x,1/2-y,z
1/2+x,1/2-y,-z
1/2-x,1/2+y,-z
1/2-x,1/2-y,-z
1/2+x,1/2+y,-z
1/2-x,1/2+y,z
1/2+x,1/2-y,z
loop_
_atom_site_type_symbol
_atom_site_label
_atom_site_fract_x
_atom_site_fract_y
_atom_site_fract_z
Si Si1 0.810615 0.299423 0.833826
Si Si2 0.182896 0.952382 0.068395
Si Si3 0.311840 0.699787 0.500000
Si Si4 0.312896 0.859532 0.064152
Si Si5 0.810641 0.355701 0.393021
Si Si6 0.187539 0.800042 0.288407
Si Si7 0.809094 0.450861 0.566209
O O1 0.750000 0.250000 0.840431
O O2 0.753341 0.326986 0.887727
O O3 0.746412 0.314992 0.773351
O O4 0.000000 0.300108 0.831942
O O5 0.276748 0.909105 0.083837
O O6 0.000000 0.947917 0.084357
O O7 0.241673 0.000000 0.088768
O O8 0.187572 0.953707 0.000000
O O9 0.500000 0.700624 0.500000
O O10 0.250000 0.750000 0.500000
O O11 0.250695 0.673333 0.445416
O O12 0.500000 0.853932 0.060773
O O13 0.249641 0.853092 0.000000
O O14 0.749952 0.332556 0.336445
O O15 0.758288 0.406722 0.401232
O O16 0.000000 0.354944 0.393767
O O17 0.250000 0.750000 0.297670
O O18 0.000000 0.798421 0.289339
O O19 0.765688 0.445989 0.500000
O O20 0.756696 0.500000 0.585072
O O21 0.000000 0.451227 0.568134
#
# Coordination Sequence:
#
# PCOD9489830 Si02
#       7
#    16  16   8  16  16  16  16
#     4  10  20  35  53  73  98 130 169 209 249 299
#     4   8  14  25  42  66  96 128 161 196 237 290
#     4  12  24  36  49  72 107 139 170 207 253 302
#     4   9  18  31  48  73 103 131 162 204 253 303
#     4  11  20  34  55  79 105 135 170 209 254 298
#     4  11  22  37  55  75  99 131 171 212 253 303
#     4   8  14  27  50  79 106 133 168 206 244 292
#
# _framework density 17.000518
#
# number of rings (size 3 to 8) (size 9 to 14) (size 15 to 20)
#    0.000    2.308    0.769    5.308    0.000    1.846 
#    0.000    1.538    0.000    3.231    0.000    2.154 
#    0.000    0.000    0.000    0.000    0.000    0.000 
#
# Total GULP energy -289810.689106 kJ/mol
# GULP energy per Si atom -5573.282483 kJ/mol
# Density = 1.696182 g / cm^3
# Si number density = 17.000518 Si / 1000 Ang^3
#
#
#
# Elastic Constant Matrix: (Units=GPa)
#
#
# Indices 1 2 3 4 5 6 
#
# 1 60.5589 29.4662 30.1482 0.0000 0.0000 0.0000
# 2 29.4662 131.9489 91.4130 0.0000 0.0000 0.0000
# 3 30.1482 91.4130 121.7172 0.0000 0.0000 0.0000
# 4 0.0000 0.0000 0.0000 8.6454 0.0000 0.0000
# 5 0.0000 0.0000 0.0000 0.0000 18.5454 0.0000
# 6 0.0000 0.0000 0.0000 0.0000 0.0000 23.1124
#
#
#
# Elastic Compliance Matrix: (Units=1/GPa)
#
#
# Indices 1 2 3 4 5 6 
#
# 1 0.019100 -0.002059 -0.003184 0.000000 0.000000 0.000000
# 2 -0.002059 0.016021 -0.011522 0.000000 0.000000 0.000000
# 3 -0.003184 -0.011522 0.017658 0.000000 0.000000 0.000000
# 4 0.000000 0.000000 0.000000 0.115668 0.000000 0.000000
# 5 0.000000 0.000000 0.000000 0.000000 0.053922 0.000000
# 6 0.000000 0.000000 0.000000 0.000000 0.000000 0.043267
#
#
# Mechanical properties :
#
#
# Convention : Reuss Voigt Hill
#
# Bulk Modulus (GPa) = 51.95473 68.47552 60.21512
# Shear Modulus (GPa) = 16.36217 20.94049 18.65133
#
# Velocity S-wave (km/s) = 3.10571 3.51345 3.31585
# Velocity P-wave (km/s) = 6.59451 7.53824 7.08211
#
# Compressibility (1/GPa) = 0.01924752
#
# Stress axis : x y z
#
# Youngs Moduli (GPa) = 52.35579 62.41810 56.63174
#
# Poissons Ratio (x) = 0.12853 0.18034
# Poissons Ratio (y) = 0.10781 0.65252
# Poissons Ratio (z) = 0.16672 0.71919
#
# Static dielectric constant tensor:
#      x y z
#    x 1.581310 0.000000 0.000000 
#    y 0.000000 1.593070 0.000000 
#    z 0.000000 0.000000 1.562810 
# 
# From -- ./inp_files/68233.got.cif
#   From: 2010.05.17/outbox.cif.g08.bks.cpg/sg65_35_cif.got.tgz:68233.got - 2010.06.03 17:01:31.
