data_PCOD9489524
_publ_section_title
;
Structure prediction by ZEFSAII (Michael W. Deem and Ramdas Pophale) SiO2 
 PCOD9489524
Probable space group: C M M M
;
_chemical_formula_sum "Si O2"
_cell_formula_units_Z 112
_cell_length_a 26.807727
_cell_length_b 14.851623
_cell_length_c 15.865063
_cell_angle_alpha 90.000000
_cell_angle_beta 90.000000
_cell_angle_gamma 90.000000
_cell_volume 6316.488497
_symmetry_space_group_name_H-M "C M M M"
_symmetry_group_IT_number 65
_symmetry_cell_setting 'orthorhombic'
loop_
_space_group_symop_operation_xyz
x,y,z
-x,-y,z
x,-y,-z
-x,y,-z
-x,-y,-z
x,y,-z
-x,y,z
x,-y,z
1/2+x,1/2+y,z
1/2-x,1/2-y,z
1/2+x,1/2-y,-z
1/2-x,1/2+y,-z
1/2-x,1/2-y,-z
1/2+x,1/2+y,-z
1/2-x,1/2+y,z
1/2+x,1/2-y,z
loop_
_atom_site_type_symbol
_atom_site_label
_atom_site_fract_x
_atom_site_fract_y
_atom_site_fract_z
Si Si1 0.841560 0.897552 0.171572
Si Si2 0.727009 0.601906 0.593034
Si Si3 0.946516 0.890926 0.098358
Si Si4 0.852085 0.216487 0.670671
Si Si5 0.441399 0.604157 0.398680
Si Si6 0.185675 0.602057 0.730687
Si Si7 0.240222 0.356555 0.093923
O O1 0.894256 0.862236 0.136835
O O2 0.829107 0.834016 0.248498
O O3 0.795430 0.897029 0.107980
O O4 0.848508 0.000000 0.200559
O O5 0.750532 0.606631 0.500000
O O6 0.704316 0.500000 0.599916
O O7 0.686222 0.680525 0.600210
O O8 0.767312 0.609024 0.666936
O O9 0.000000 0.860973 0.135464
O O10 0.946192 0.000000 0.102490
O O11 0.946197 0.866764 0.000000
O O12 0.905196 0.172961 0.648402
O O13 0.850829 0.320631 0.695750
O O14 0.434604 0.611728 0.500000
O O15 0.500000 0.619032 0.380878
O O16 0.429956 0.500000 0.375232
O O17 0.166325 0.500000 0.725549
O O18 0.205656 0.618130 0.826276
O O19 0.250000 0.250000 0.096290
O O20 0.221285 0.380543 0.000000
#
# Coordination Sequence:
#
# PCOD9489524 Si02
#       7
#    16  16  16  16  16  16  16
#     4  11  20  30  48  75 104 137 174 218 269 330
#     4  10  20  34  54  79 109 144 177 215 268 325
#     4   8  15  28  44  65  97 133 164 195 241 309
#     4  12  21  33  52  78 107 141 180 227 266 317
#     4   9  19  36  58  86 118 149 181 217 265 333
#     4  11  23  39  53  73 106 143 190 237 279 327
#     4  11  21  36  55  75 103 144 191 239 289 340
#
# _framework density 17.731369999999998
#
# number of rings (size 3 to 8) (size 9 to 14) (size 15 to 20)
#    0.000    1.714    2.857    3.857    0.000    5.143 
#    0.000    1.429    0.000    0.429    0.000    1.000 
#    0.000    0.000    0.000    2.857    0.000    0.143 
#
# Total GULP energy -312183.830301 kJ/mol
# GULP energy per Si atom -5574.711255 kJ/mol
# Density = 1.769101 g / cm^3
# Si number density = 17.731370 Si / 1000 Ang^3
#
#
#
# Elastic Constant Matrix: (Units=GPa)
#
#
# Indices 1 2 3 4 5 6 
#
# 1 68.8841 39.8784 25.8495 0.0000 0.0000 0.0000
# 2 39.8784 115.1399 32.1826 0.0000 0.0000 0.0000
# 3 25.8495 32.1826 94.2301 0.0000 0.0000 0.0000
# 4 0.0000 0.0000 0.0000 16.8195 0.0000 0.0000
# 5 0.0000 0.0000 0.0000 0.0000 24.0140 0.0000
# 6 0.0000 0.0000 0.0000 0.0000 0.0000 21.3843
#
#
#
# Elastic Compliance Matrix: (Units=1/GPa)
#
#
# Indices 1 2 3 4 5 6 
#
# 1 0.019035 -0.005675 -0.003283 0.000000 0.000000 0.000000
# 2 -0.005675 0.011294 -0.002300 0.000000 0.000000 0.000000
# 3 -0.003283 -0.002300 0.012299 0.000000 0.000000 0.000000
# 4 0.000000 0.000000 0.000000 0.059455 0.000000 0.000000
# 5 0.000000 0.000000 0.000000 0.000000 0.041642 0.000000
# 6 0.000000 0.000000 0.000000 0.000000 0.000000 0.046763
#
#
# Mechanical properties :
#
#
# Convention : Reuss Voigt Hill
#
# Bulk Modulus (GPa) = 49.72785 52.67501 51.20143
# Shear Modulus (GPa) = 22.75752 24.46647 23.61199
#
# Velocity S-wave (km/s) = 3.58643 3.71865 3.65314
# Velocity P-wave (km/s) = 6.72726 6.94331 6.83614
#
# Compressibility (1/GPa) = 0.02010945
#
# Stress axis : x y z
#
# Youngs Moduli (GPa) = 52.53604 88.54642 81.30937
#
# Poissons Ratio (x) = 0.50248 0.26698
# Poissons Ratio (y) = 0.29813 0.18704
# Poissons Ratio (z) = 0.17250 0.20369
#
# Static dielectric constant tensor:
#      x y z
#    x 1.623850 0.000000 0.000000 
#    y 0.000000 1.649260 0.000000 
#    z 0.000000 0.000000 1.669870 
# 
# From -- ./inp_files/47081.got.cif
#   From: 2010.05.17/outbox.cif.g08.bks.cpg/sg65_24_cif.got.tgz:47081.got - 2010.06.03 17:01:31.
