data_PCOD9489954
_publ_section_title
;
Structure prediction by ZEFSAII (Michael W. Deem and Ramdas Pophale) SiO2 
 PCOD9489954
Probable space group: C M M M
;
_chemical_formula_sum "Si O2"
_cell_formula_units_Z 88
_cell_length_a 27.829310
_cell_length_b 8.996340
_cell_length_c 21.345341
_cell_angle_alpha 90.000000
_cell_angle_beta 90.000000
_cell_angle_gamma 90.000000
_cell_volume 5344.060870
_symmetry_space_group_name_H-M "C M M M"
_symmetry_group_IT_number 65
_symmetry_cell_setting 'orthorhombic'
loop_
_space_group_symop_operation_xyz
x,y,z
-x,-y,z
x,-y,-z
-x,y,-z
-x,-y,-z
x,y,-z
-x,y,z
x,-y,z
1/2+x,1/2+y,z
1/2-x,1/2-y,z
1/2+x,1/2-y,-z
1/2-x,1/2+y,-z
1/2-x,1/2-y,-z
1/2+x,1/2+y,-z
1/2-x,1/2+y,z
1/2+x,1/2-y,z
loop_
_atom_site_type_symbol
_atom_site_label
_atom_site_fract_x
_atom_site_fract_y
_atom_site_fract_z
Si Si1 0.351603 0.324378 0.881693
Si Si2 0.801568 0.823600 0.252235
Si Si3 0.802658 0.676483 0.000000
Si Si4 0.106331 0.676986 0.310797
Si Si5 0.944828 0.177973 0.193494
Si Si6 0.443030 0.323143 0.427605
O O1 0.350175 0.500000 0.897569
O O2 0.319308 0.301995 0.819548
O O3 0.331237 0.231034 0.938788
O O4 0.405781 0.285545 0.859930
O O5 0.750000 0.750000 0.261092
O O6 0.842089 0.748248 0.295013
O O7 0.799980 0.000000 0.263655
O O8 0.750000 0.750000 0.000000
O O9 0.797537 0.500000 0.000000
O O10 0.108757 0.500000 0.307711
O O11 0.070937 0.738559 0.256526
O O12 0.086768 0.732080 0.377272
O O13 0.000000 0.209622 0.177186
O O14 0.940173 0.000000 0.205031
O O15 0.431246 0.288736 0.500000
O O16 0.500000 0.295405 0.418947
O O17 0.435462 0.500000 0.418064
#
# Coordination Sequence:
#
# PCOD9489954 Si02
#       6
#    16  16   8  16  16  16
#     4   9  19  35  54  76 101 129 164 205 247 295
#     4  10  20  35  55  77 101 130 166 209 254 299
#     4  12  24  36  53  74  99 131 164 203 251 302
#     4  11  21  31  48  76 107 137 168 205 250 299
#     4   9  18  34  55  76 100 133 171 209 249 294
#     4   9  18  33  52  73 100 136 174 210 250 296
#
# _framework density 16.466878000000001
#
# number of rings (size 3 to 8) (size 9 to 14) (size 15 to 20)
#    0.000    2.182    0.000    5.727    0.000    8.364 
#    0.000    1.364    0.000    3.273    0.000    0.000 
#    0.000    0.000    0.000    0.000    0.000    0.000 
#
# Total GULP energy -245619.668809 kJ/mol
# GULP energy per Si atom -5582.265200 kJ/mol
# Density = 1.642940 g / cm^3
# Si number density = 16.466878 Si / 1000 Ang^3
#
#
#
# Elastic Constant Matrix: (Units=GPa)
#
#
# Indices 1 2 3 4 5 6 
#
# 1 145.1622 79.6540 76.3111 0.0000 0.0000 0.0000
# 2 79.6540 104.2177 83.0225 0.0000 0.0000 0.0000
# 3 76.3111 83.0225 107.0354 0.0000 0.0000 0.0000
# 4 0.0000 0.0000 0.0000 20.0066 0.0000 0.0000
# 5 0.0000 0.0000 0.0000 0.0000 13.7613 0.0000
# 6 0.0000 0.0000 0.0000 0.0000 0.0000 27.8395
#
#
#
# Elastic Compliance Matrix: (Units=1/GPa)
#
#
# Indices 1 2 3 4 5 6 
#
# 1 0.012463 -0.006404 -0.003918 0.000000 0.000000 0.000000
# 2 -0.006404 0.028403 -0.017465 0.000000 0.000000 0.000000
# 3 -0.003918 -0.017465 0.025683 0.000000 0.000000 0.000000
# 4 0.000000 0.000000 0.000000 0.049984 0.000000 0.000000
# 5 0.000000 0.000000 0.000000 0.000000 0.072668 0.000000
# 6 0.000000 0.000000 0.000000 0.000000 0.000000 0.035920
#
#
# Mechanical properties :
#
#
# Convention : Reuss Voigt Hill
#
# Bulk Modulus (GPa) = 91.12191 92.71005 91.91598
# Shear Modulus (GPa) = 17.58379 20.14997 18.86688
#
# Velocity S-wave (km/s) = 3.27131 3.50189 3.38856
# Velocity P-wave (km/s) = 8.35016 8.53078 8.44095
#
# Compressibility (1/GPa) = 0.01097431
#
# Stress axis : x y z
#
# Youngs Moduli (GPa) = 80.24060 35.20714 38.93638
#
# Poissons Ratio (x) = 0.22547 0.15254
# Poissons Ratio (y) = 0.51387 0.68004
# Poissons Ratio (z) = 0.31436 0.61490
#
# Static dielectric constant tensor:
#      x y z
#    x 1.545560 0.000000 0.000000 
#    y 0.000000 1.545380 0.000000 
#    z 0.000000 0.000000 1.529740 
# 
# From -- ./inp_files/65172.got.cif
#   From: 2010.05.17/outbox.cif.g08.bks.cpg/sg65_33_cif.got.tgz:65172.got - 2010.06.03 17:01:31.
