data_PCOD9489947
_publ_section_title
;
Structure prediction by ZEFSAII (Michael W. Deem and Ramdas Pophale) SiO2 
 PCOD9489947
Probable space group: C M M M
;
_chemical_formula_sum "Si O2"
_cell_formula_units_Z 96
_cell_length_a 30.808758
_cell_length_b 7.599830
_cell_length_c 19.025010
_cell_angle_alpha 90.000000
_cell_angle_beta 90.000000
_cell_angle_gamma 90.000000
_cell_volume 4454.541017
_symmetry_space_group_name_H-M "C M M M"
_symmetry_group_IT_number 65
_symmetry_cell_setting 'orthorhombic'
loop_
_space_group_symop_operation_xyz
x,y,z
-x,-y,z
x,-y,-z
-x,y,-z
-x,-y,-z
x,y,-z
-x,y,z
x,-y,z
1/2+x,1/2+y,z
1/2-x,1/2-y,z
1/2+x,1/2-y,-z
1/2-x,1/2+y,-z
1/2-x,1/2-y,-z
1/2+x,1/2+y,-z
1/2-x,1/2+y,z
1/2+x,1/2-y,z
loop_
_atom_site_type_symbol
_atom_site_label
_atom_site_fract_x
_atom_site_fract_y
_atom_site_fract_z
Si Si1 0.362750 0.284081 0.577790
Si Si2 0.200509 0.789270 0.700075
Si Si3 0.200571 0.209523 0.140390
Si Si4 0.548238 0.707047 0.362905
Si Si5 0.049894 0.287246 0.201604
Si Si6 0.110693 0.293135 0.076938
O O1 0.348153 0.231859 0.500000
O O2 0.362701 0.500000 0.579665
O O3 0.332276 0.222582 0.641201
O O4 0.411782 0.222655 0.592526
O O5 0.250000 0.750000 0.680084
O O6 0.194137 0.721171 0.779620
O O7 0.195369 0.000000 0.703699
O O8 0.250000 0.250000 0.118740
O O9 0.161763 0.278340 0.092806
O O10 0.196362 0.000000 0.141679
O O11 0.500000 0.783709 0.373103
O O12 0.545385 0.500000 0.379253
O O13 0.559623 0.723100 0.280266
O O14 0.051922 0.500000 0.204388
O O15 0.083044 0.220967 0.142427
O O16 0.000000 0.237872 0.185152
O O17 0.099870 0.500000 0.074234
O O18 0.100878 0.217026 0.000000
#
# Coordination Sequence:
#
# PCOD9489947 Si02
#       6
#    16  16  16  16  16  16
#     4   9  17  29  46  70 100 130 158 193 240 289
#     4   9  18  32  50  71  94 123 160 200 239 281
#     4  10  20  35  55  76  99 129 166 206 247 292
#     4   9  17  30  50  74  97 124 162 205 243 283
#     4   9  18  33  53  75  99 130 166 203 245 292
#     4  10  21  35  51  74 103 132 163 201 245 294
#
# _framework density 21.551041999999999
#
# number of rings (size 3 to 8) (size 9 to 14) (size 15 to 20)
#    0.000    2.667    0.000    1.500    0.000    4.333 
#    0.000    4.167    0.000    1.500    0.000    5.833 
#    0.000    0.000    0.000    0.000    0.000    0.000 
#
# Total GULP energy -267953.402029 kJ/mol
# GULP energy per Si atom -5582.362542 kJ/mol
# Density = 2.150199 g / cm^3
# Si number density = 21.551042 Si / 1000 Ang^3
#
#
#
# Elastic Constant Matrix: (Units=GPa)
#
#
# Indices 1 2 3 4 5 6 
#
# 1 40.6043 -9.1590 12.0601 0.0000 0.0000 0.0000
# 2 -9.1590 47.6347 -7.1656 0.0000 0.0000 0.0000
# 3 12.0601 -7.1656 13.4884 0.0000 0.0000 0.0000
# 4 0.0000 0.0000 0.0000 9.6947 0.0000 0.0000
# 5 0.0000 0.0000 0.0000 0.0000 17.4566 0.0000
# 6 0.0000 0.0000 0.0000 0.0000 0.0000 14.4878
#
#
#
# Elastic Compliance Matrix: (Units=1/GPa)
#
#
# Indices 1 2 3 4 5 6 
#
# 1 0.033729 0.002118 -0.029032 0.000000 0.000000 0.000000
# 2 0.002118 0.022949 0.010298 0.000000 0.000000 0.000000
# 3 -0.029032 0.010298 0.105566 0.000000 0.000000 0.000000
# 4 0.000000 0.000000 0.000000 0.103149 0.000000 0.000000
# 5 0.000000 0.000000 0.000000 0.000000 0.057285 0.000000
# 6 0.000000 0.000000 0.000000 0.000000 0.000000 0.069024
#
#
# Mechanical properties :
#
#
# Convention : Reuss Voigt Hill
#
# Bulk Modulus (GPa) = 7.75122 10.35540 9.05331
# Shear Modulus (GPa) = 10.68518 15.39395 13.03957
#
# Velocity S-wave (km/s) = 2.22909 2.67554 2.46246
# Velocity P-wave (km/s) = 3.19838 3.78948 3.50641
#
# Compressibility (1/GPa) = 0.12901200
#
# Stress axis : x y z
#
# Youngs Moduli (GPa) = 29.64834 43.57412 9.47272
#
# Poissons Ratio (x) = -0.09229 0.27501
# Poissons Ratio (y) = -0.06279 -0.09755
# Poissons Ratio (z) = 0.86075 -0.44872
#
# Static dielectric constant tensor:
#      x y z
#    x 1.773500 0.000000 0.000000 
#    y 0.000000 1.808540 0.000000 
#    z 0.000000 0.000000 1.775580 
# 
# From -- ./inp_files/65742.got.cif
#   From: 2010.05.17/outbox.cif.g08.bks.cpg/sg65_33_cif.got.tgz:65742.got - 2010.06.03 17:01:31.
