data_PCOD9489913
_publ_section_title
;
Structure prediction by ZEFSAII (Michael W. Deem and Ramdas Pophale) SiO2 
 PCOD9489913
Probable space group: C M M M
;
_chemical_formula_sum "Si O2"
_cell_formula_units_Z 88
_cell_length_a 8.842048
_cell_length_b 31.325982
_cell_length_c 17.720708
_cell_angle_alpha 90.000000
_cell_angle_beta 90.000000
_cell_angle_gamma 90.000000
_cell_volume 4908.385129
_symmetry_space_group_name_H-M "C M M M"
_symmetry_group_IT_number 65
_symmetry_cell_setting 'orthorhombic'
loop_
_space_group_symop_operation_xyz
x,y,z
-x,-y,z
x,-y,-z
-x,y,-z
-x,-y,-z
x,y,-z
-x,y,z
x,-y,z
1/2+x,1/2+y,z
1/2-x,1/2-y,z
1/2+x,1/2-y,-z
1/2-x,1/2+y,-z
1/2-x,1/2-y,-z
1/2+x,1/2+y,-z
1/2-x,1/2+y,z
1/2+x,1/2-y,z
loop_
_atom_site_type_symbol
_atom_site_label
_atom_site_fract_x
_atom_site_fract_y
_atom_site_fract_z
Si Si1 0.181543 0.137204 0.118391
Si Si2 0.681360 0.202309 0.000000
Si Si3 0.177090 0.547395 0.886928
Si Si4 0.681264 0.634236 0.705686
Si Si5 0.676720 0.953737 0.704021
Si Si6 0.317523 0.296690 0.585496
O O1 0.259577 0.174509 0.070915
O O2 0.233928 0.090051 0.090929
O O3 0.226236 0.140841 0.206844
O O4 0.000000 0.140361 0.111822
O O5 0.750000 0.250000 0.000000
O O6 0.500000 0.204576 0.000000
O O7 0.229081 0.500000 0.912266
O O8 0.184846 0.546315 0.795521
O O9 0.000000 0.551754 0.907502
O O10 0.500000 0.634487 0.705134
O O11 0.736714 0.588062 0.678730
O O12 0.736390 0.670672 0.649215
O O13 0.500000 0.950638 0.684335
O O14 0.735083 0.000000 0.678272
O O15 0.277390 0.310334 0.500000
O O16 0.500000 0.294214 0.589280
O O17 0.250000 0.250000 0.597822
#
# Coordination Sequence:
#
# PCOD9489913 Si02
#       6
#    16   8  16  16  16  16
#     4  10  20  35  54  78 106 132 166 209 252 298
#     4  12  26  44  61  74  95 130 170 209 255 303
#     4   8  14  27  48  74 104 136 168 202 245 296
#     4   9  18  31  50  77 104 131 165 205 246 291
#     4   8  14  25  43  69 100 133 168 204 242 287
#     4   9  18  33  51  72 100 131 163 201 247 298
#
# _framework density 17.928502999999999
#
# number of rings (size 3 to 8) (size 9 to 14) (size 15 to 20)
#    0.000    2.909    0.000    2.455    0.000    2.909 
#    0.000    5.909    0.000    3.273    0.000    3.818 
#    0.000    0.000    0.000    0.000    0.000    0.000 
#
# Total GULP energy -245198.965853 kJ/mol
# GULP energy per Si atom -5572.703769 kJ/mol
# Density = 1.788770 g / cm^3
# Si number density = 17.928503 Si / 1000 Ang^3
#
#
#
# Elastic Constant Matrix: (Units=GPa)
#
#
# Indices 1 2 3 4 5 6 
#
# 1 41.5576 53.8764 28.7510 0.0000 0.0000 0.0000
# 2 53.8764 177.0320 81.4616 0.0000 0.0000 0.0000
# 3 28.7510 81.4616 84.8898 0.0000 0.0000 0.0000
# 4 0.0000 0.0000 0.0000 -315.5341 0.0000 0.0000
# 5 0.0000 0.0000 0.0000 0.0000 13.0479 0.0000
# 6 0.0000 0.0000 0.0000 0.0000 0.0000 36.9450
#
#
#
# Elastic Compliance Matrix: (Units=1/GPa)
#
#
# Indices 1 2 3 4 5 6 
#
# 1 0.040273 -0.010708 -0.003364 0.000000 0.000000 0.000000
# 2 -0.010708 0.012963 -0.008812 0.000000 0.000000 0.000000
# 3 -0.003364 -0.008812 0.021376 0.000000 0.000000 0.000000
# 4 0.000000 0.000000 0.000000 -0.003169 0.000000 0.000000
# 5 0.000000 0.000000 0.000000 0.000000 0.076641 0.000000
# 6 0.000000 0.000000 0.000000 0.000000 0.000000 0.027067
#
#
# Mechanical properties :
#
#
# Convention : Reuss Voigt Hill
#
# Bulk Modulus (GPa) = 34.67171 70.18417 52.42794
# Shear Modulus (GPa) = 21.68881 -43.81556 -11.06338
#
# Velocity S-wave (km/s) = 3.48190 -4.94895 -2.48681
# Velocity P-wave (km/s) = 5.96202 2.56428 4.58919
#
# Compressibility (1/GPa) = 0.02884196
#
# Stress axis : x y z
#
# Youngs Moduli (GPa) = 24.83054 77.14494 46.78196
#
# Poissons Ratio (x) = 0.82610 0.15737
# Poissons Ratio (y) = 0.26590 0.41226
# Poissons Ratio (z) = 0.08353 0.67983
#
# Static dielectric constant tensor:
#      x y z
#    x 1.598910 0.000000 0.000000 
#    y 0.000000 1.609780 0.000000 
#    z 0.000000 0.000000 1.635340 
# 
# From -- ./inp_files/50326.got.cif
#   From: 2010.05.17/outbox.cif.g08.bks.cpg/sg65_26_cif.got.tgz:50326.got - 2010.06.03 17:01:31.
