data_PCOD9489077
_publ_section_title
;
Structure prediction by ZEFSAII (Michael W. Deem and Ramdas Pophale) SiO2 
 PCOD9489077
Probable space group: C M M M
;
_chemical_formula_sum "Si O2"
_cell_formula_units_Z 104
_cell_length_a 27.753571
_cell_length_b 9.210285
_cell_length_c 27.260695
_cell_angle_alpha 90.000000
_cell_angle_beta 90.000000
_cell_angle_gamma 90.000000
_cell_volume 6968.332477
_symmetry_space_group_name_H-M "C M M M"
_symmetry_group_IT_number 65
_symmetry_cell_setting 'orthorhombic'
loop_
_space_group_symop_operation_xyz
x,y,z
-x,-y,z
x,-y,-z
-x,y,-z
-x,-y,-z
x,y,-z
-x,y,z
x,-y,z
1/2+x,1/2+y,z
1/2-x,1/2-y,z
1/2+x,1/2-y,-z
1/2-x,1/2+y,-z
1/2-x,1/2-y,-z
1/2+x,1/2+y,-z
1/2-x,1/2+y,z
1/2+x,1/2-y,z
loop_
_atom_site_type_symbol
_atom_site_label
_atom_site_fract_x
_atom_site_fract_y
_atom_site_fract_z
Si Si1 0.610121 0.673173 0.298203
Si Si2 0.355123 0.825914 0.554743
Si Si3 0.800639 0.674182 0.653613
Si Si4 0.055086 0.173260 0.601443
Si Si5 0.558754 0.332517 0.000000
Si Si6 0.056677 0.173610 0.197840
Si Si7 0.058648 0.667288 0.098309
O O1 0.620763 0.500000 0.298353
O O2 0.657604 0.763275 0.311388
O O3 0.572131 0.698462 0.342411
O O4 0.586742 0.711632 0.246176
O O5 0.339382 0.783909 0.500000
O O6 0.318355 0.787066 0.598281
O O7 0.406122 0.753156 0.567710
O O8 0.360738 0.000000 0.556262
O O9 0.797266 0.500000 0.657440
O O10 0.750000 0.750000 0.663662
O O11 0.000000 0.220056 0.594121
O O12 0.057707 0.000000 0.592883
O O13 0.574510 0.251443 0.950530
O O14 0.573657 0.500000 0.000000
O O15 0.500000 0.330393 0.000000
O O16 0.073098 0.254821 0.148711
O O17 0.000000 0.206832 0.206093
O O18 0.060109 0.000000 0.190297
O O19 0.073783 0.500000 0.097105
O O20 0.000000 0.669960 0.097807
#
# Coordination Sequence:
#
# PCOD9489077 Si02
#       7
#    16  16  16  16   8  16  16
#     4   9  17  30  47  65  86 112 141 174 211 251
#     4   9  19  34  48  64  87 112 138 169 206 250
#     4  10  20  34  51  68  85 106 134 169 211 259
#     4   9  17  29  45  65  88 114 144 175 206 242
#     4   9  15  23  35  49  69 103 148 191 224 255
#     4   9  16  26  41  61  85 114 147 179 211 249
#     4   9  16  24  34  51  77 109 145 184 222 255
#
# _framework density 14.924662
#
# number of rings (size 3 to 8) (size 9 to 14) (size 15 to 20)
#    0.000    2.846    0.000    1.615    0.000    7.077 
#    0.000    1.538    0.000    2.769    0.000    0.000 
#    0.000    0.000    0.000    0.692    0.000    9.308 
#
# Total GULP energy -289751.049365 kJ/mol
# GULP energy per Si atom -5572.135565 kJ/mol
# Density = 1.489069 g / cm^3
# Si number density = 14.924662 Si / 1000 Ang^3
#
#
#
# Elastic Constant Matrix: (Units=GPa)
#
#
# Indices 1 2 3 4 5 6 
#
# 1 55.3255 27.1322 22.7332 0.0000 0.0000 0.0000
# 2 27.1322 49.4417 50.2233 0.0000 0.0000 0.0000
# 3 22.7332 50.2233 118.1875 0.0000 0.0000 0.0000
# 4 0.0000 0.0000 0.0000 22.8637 0.0000 0.0000
# 5 0.0000 0.0000 0.0000 0.0000 8.8385 0.0000
# 6 0.0000 0.0000 0.0000 0.0000 0.0000 19.2727
#
#
#
# Elastic Compliance Matrix: (Units=1/GPa)
#
#
# Indices 1 2 3 4 5 6 
#
# 1 0.024944 -0.015510 0.001793 0.000000 0.000000 0.000000
# 2 -0.015510 0.045232 -0.016238 0.000000 0.000000 0.000000
# 3 0.001793 -0.016238 0.015016 0.000000 0.000000 0.000000
# 4 0.000000 0.000000 0.000000 0.043737 0.000000 0.000000
# 5 0.000000 0.000000 0.000000 0.000000 0.113141 0.000000
# 6 0.000000 0.000000 0.000000 0.000000 0.000000 0.051887
#
#
# Mechanical properties :
#
#
# Convention : Reuss Voigt Hill
#
# Bulk Modulus (GPa) = 39.55249 47.01471 43.28360
# Shear Modulus (GPa) = 13.80092 18.38607 16.09350
#
# Velocity S-wave (km/s) = 3.04420 3.51369 3.28733
# Velocity P-wave (km/s) = 6.23820 6.93045 6.59341
#
# Compressibility (1/GPa) = 0.02528286
#
# Stress axis : x y z
#
# Youngs Moduli (GPa) = 40.08911 22.10842 66.59391
#
# Poissons Ratio (x) = 0.34290 -0.11940
# Poissons Ratio (y) = 0.62178 1.08133
# Poissons Ratio (z) = -0.07188 0.35899
#
# Static dielectric constant tensor:
#      x y z
#    x 1.458050 0.000000 0.000000 
#    y 0.000000 1.497320 0.000000 
#    z 0.000000 0.000000 1.494820 
# 
# From -- ./inp_files/73577.got.cif
#   From: 2010.05.17/outbox.cif.g08.bks.cpg/sg65_37_cif.got.tgz:73577.got - 2010.06.03 17:01:31.
