data_PCOD9489586
_publ_section_title
;
Structure prediction by ZEFSAII (Michael W. Deem and Ramdas Pophale) SiO2 
 PCOD9489586
Probable space group: C M M M
;
_chemical_formula_sum "Si O2"
_cell_formula_units_Z 80
_cell_length_a 9.127577
_cell_length_b 17.948546
_cell_length_c 27.017433
_cell_angle_alpha 90.000000
_cell_angle_beta 90.000000
_cell_angle_gamma 90.000000
_cell_volume 4426.177854
_symmetry_space_group_name_H-M "C M M M"
_symmetry_group_IT_number 65
_symmetry_cell_setting 'orthorhombic'
loop_
_space_group_symop_operation_xyz
x,y,z
-x,-y,z
x,-y,-z
-x,y,-z
-x,-y,-z
x,y,-z
-x,y,z
x,-y,z
1/2+x,1/2+y,z
1/2-x,1/2-y,z
1/2+x,1/2-y,-z
1/2-x,1/2+y,-z
1/2-x,1/2-y,-z
1/2+x,1/2+y,-z
1/2-x,1/2+y,z
1/2+x,1/2-y,z
loop_
_atom_site_type_symbol
_atom_site_label
_atom_site_fract_x
_atom_site_fract_y
_atom_site_fract_z
Si Si1 0.173753 0.910275 0.300243
Si Si2 0.824490 0.412554 0.399402
Si Si3 0.829364 0.909246 0.191013
Si Si4 0.322779 0.829929 0.500000
Si Si5 0.175108 0.830692 0.000000
Si Si6 0.829499 0.590055 0.091116
O O1 0.253787 0.881395 0.349075
O O2 0.220748 0.883435 0.245618
O O3 0.000000 0.897671 0.304196
O O4 0.196851 0.000000 0.300111
O O5 0.786172 0.500000 0.403710
O O6 0.779040 0.372460 0.449836
O O7 0.000000 0.407528 0.395097
O O8 0.731019 0.886053 0.144828
O O9 0.000000 0.888112 0.183866
O O10 0.826800 0.000000 0.192022
O O11 0.500000 0.825041 0.500000
O O12 0.250000 0.750000 0.500000
O O13 0.250000 0.750000 0.000000
O O14 0.232527 0.874405 0.951814
O O15 0.000000 0.825123 0.000000
O O16 0.819440 0.500000 0.088267
O O17 0.000000 0.610452 0.084925
#
# Coordination Sequence:
#
# PCOD9489586 Si02
#       6
#    16  16  16   8   8  16
#     4   8  14  25  43  70 102 130 158 197 243 289
#     4   9  17  30  49  71  95 124 159 199 243 292
#     4   8  14  26  45  71 103 135 164 197 243 296
#     4  10  21  35  49  67  93 126 162 200 244 292
#     4  12  25  40  57  75 101 137 175 214 259 308
#     4  10  20  34  54  81 110 137 170 212 252 295
#
# _framework density 18.074285
#
# number of rings (size 3 to 8) (size 9 to 14) (size 15 to 20)
#    0.000    2.800    0.000    3.300    0.000    5.200 
#    0.000    4.000    0.000    4.200    0.000    2.800 
#    0.000    0.000    0.000    0.000    0.000    0.000 
#
# Total GULP energy -222933.571300 kJ/mol
# GULP energy per Si atom -5573.339283 kJ/mol
# Density = 1.803315 g / cm^3
# Si number density = 18.074285 Si / 1000 Ang^3
#
#
#
# Elastic Constant Matrix: (Units=GPa)
#
#
# Indices 1 2 3 4 5 6 
#
# 1 78.0490 28.5595 78.8141 0.0000 0.0000 0.0000
# 2 28.5595 25.1774 43.3708 0.0000 0.0000 0.0000
# 3 78.8141 43.3708 201.6541 0.0000 0.0000 0.0000
# 4 0.0000 0.0000 0.0000 -8.0458 0.0000 0.0000
# 5 0.0000 0.0000 0.0000 0.0000 37.7948 0.0000
# 6 0.0000 0.0000 0.0000 0.0000 0.0000 19.1744
#
#
#
# Elastic Compliance Matrix: (Units=1/GPa)
#
#
# Indices 1 2 3 4 5 6 
#
# 1 0.025811 -0.018905 -0.006022 0.000000 0.000000 0.000000
# 2 -0.018905 0.076940 -0.009159 0.000000 0.000000 0.000000
# 3 -0.006022 -0.009159 0.009283 0.000000 0.000000 0.000000
# 4 0.000000 0.000000 0.000000 -0.124288 0.000000 0.000000
# 5 0.000000 0.000000 0.000000 0.000000 0.026459 0.000000
# 6 0.000000 0.000000 0.000000 0.000000 0.000000 0.052153
#
#
# Mechanical properties :
#
#
# Convention : Reuss Voigt Hill
#
# Bulk Modulus (GPa) = 22.79884 67.37436 45.08660
# Shear Modulus (GPa) = 33.52337 20.06044 26.79191
#
# Velocity S-wave (km/s) = 4.31136 3.33511 3.85427
# Velocity P-wave (km/s) = 6.11761 7.22412 6.69377
#
# Compressibility (1/GPa) = 0.04386188
#
# Stress axis : x y z
#
# Youngs Moduli (GPa) = 38.74304 12.99708 107.72925
#
# Poissons Ratio (x) = 0.24571 0.64875
# Poissons Ratio (y) = 0.73243 0.98672
# Poissons Ratio (z) = 0.23331 0.11904
#
# Static dielectric constant tensor:
#      x y z
#    x 1.603010 0.000000 0.000000 
#    y 0.000000 1.605580 0.000000 
#    z 0.000000 0.000000 1.639840 
# 
# From -- ./inp_files/72969.got.cif
#   From: 2010.05.17/outbox.cif.g08.bks.cpg/sg65_37_cif.got.tgz:72969.got - 2010.06.03 17:01:31.
