data_PCOD9489142
_publ_section_title
;
Structure prediction by ZEFSAII (Michael W. Deem and Ramdas Pophale) SiO2 
 PCOD9489142
Probable space group: C M M M
;
_chemical_formula_sum "Si O2"
_cell_formula_units_Z 88
_cell_length_a 7.669883
_cell_length_b 19.533084
_cell_length_c 29.554470
_cell_angle_alpha 90.000000
_cell_angle_beta 90.000000
_cell_angle_gamma 90.000000
_cell_volume 4427.746336
_symmetry_space_group_name_H-M "C M M M"
_symmetry_group_IT_number 65
_symmetry_cell_setting 'orthorhombic'
loop_
_space_group_symop_operation_xyz
x,y,z
-x,-y,z
x,-y,-z
-x,y,-z
-x,-y,-z
x,y,-z
-x,y,z
x,-y,z
1/2+x,1/2+y,z
1/2-x,1/2-y,z
1/2+x,1/2-y,-z
1/2-x,1/2+y,-z
1/2-x,1/2-y,-z
1/2+x,1/2+y,-z
1/2-x,1/2+y,z
1/2+x,1/2-y,z
loop_
_atom_site_type_symbol
_atom_site_label
_atom_site_fract_x
_atom_site_fract_y
_atom_site_fract_z
Si Si1 0.287166 0.920592 0.449825
Si Si2 0.292475 0.829168 0.265729
Si Si3 0.710391 0.669363 0.098855
Si Si4 0.709626 0.829032 0.632758
Si Si5 0.708950 0.330834 0.000000
Si Si6 0.207279 0.922587 0.181273
O O1 0.231956 0.896849 0.500000
O O2 0.500000 0.918495 0.449522
O O3 0.223605 0.876150 0.407763
O O4 0.237536 0.000000 0.444869
O O5 0.500000 0.834474 0.267296
O O6 0.250000 0.750000 0.254633
O O7 0.223705 0.844073 0.316451
O O8 0.230639 0.881106 0.227642
O O9 0.500000 0.664694 0.098267
O O10 0.750000 0.750000 0.105154
O O11 0.774429 0.645258 0.049108
O O12 0.778130 0.623117 0.139836
O O13 0.500000 0.836954 0.634081
O O14 0.750000 0.750000 0.623322
O O15 0.750000 0.250000 0.000000
O O16 0.500000 0.340417 0.000000
O O17 0.000000 0.927892 0.173890
O O18 0.277750 0.000000 0.183200
#
# Coordination Sequence:
#
# PCOD9489142 Si02
#       6
#    16  16  16  16   8  16
#     4   8  14  26  45  68  93 122 156 191 226 267
#     4  10  20  34  52  72  95 125 161 200 241 286
#     4   9  17  30  49  71  94 122 156 194 235 278
#     4   9  18  31  48  71  96 120 150 191 235 278
#     4   8  14  26  45  69  93 117 151 192 231 274
#     4  10  21  35  49  69  99 130 160 197 240 284
#
# _framework density 19.874669999999998
#
# number of rings (size 3 to 8) (size 9 to 14) (size 15 to 20)
#    0.000    2.909    0.000    1.636    0.000    4.364 
#    0.000    2.273    0.000    3.273    0.000    1.273 
#    0.000    8.727    0.000    0.000    0.000    0.000 
#
# Total GULP energy -245284.887083 kJ/mol
# GULP energy per Si atom -5574.656525 kJ/mol
# Density = 1.982943 g / cm^3
# Si number density = 19.874670 Si / 1000 Ang^3
#
#
#
# Elastic Constant Matrix: (Units=GPa)
#
#
# Indices 1 2 3 4 5 6 
#
# 1 37.4796 1.8789 4.9944 0.0000 0.0000 0.0000
# 2 1.8789 119.8313 131.5092 0.0000 0.0000 0.0000
# 3 4.9944 131.5092 211.8237 0.0000 0.0000 0.0000
# 4 0.0000 0.0000 0.0000 -17.5923 0.0000 0.0000
# 5 0.0000 0.0000 0.0000 0.0000 15.3553 0.0000
# 6 0.0000 0.0000 0.0000 0.0000 0.0000 14.4431
#
#
#
# Elastic Compliance Matrix: (Units=1/GPa)
#
#
# Indices 1 2 3 4 5 6 
#
# 1 0.026793 0.000857 -0.001164 0.000000 0.000000 0.000000
# 2 0.000857 0.026216 -0.016296 0.000000 0.000000 0.000000
# 3 -0.001164 -0.016296 0.014866 0.000000 0.000000 0.000000
# 4 0.000000 0.000000 0.000000 -0.056843 0.000000 0.000000
# 5 0.000000 0.000000 0.000000 0.000000 0.065124 0.000000
# 6 0.000000 0.000000 0.000000 0.000000 0.000000 0.069237
#
#
# Mechanical properties :
#
#
# Convention : Reuss Voigt Hill
#
# Bulk Modulus (GPa) = 28.84398 71.76662 50.30530
# Shear Modulus (GPa) = 26.29433 17.82470 22.05951
#
# Velocity S-wave (km/s) = 3.64126 2.99800 3.33518
# Velocity P-wave (km/s) = 5.67652 6.94061 6.34014
#
# Compressibility (1/GPa) = 0.03466928
#
# Stress axis : x y z
#
# Youngs Moduli (GPa) = 37.32270 38.14493 67.26913
#
# Poissons Ratio (x) = -0.03270 0.07830
# Poissons Ratio (y) = -0.03200 1.09622
# Poissons Ratio (z) = 0.04344 0.62161
#
# Static dielectric constant tensor:
#      x y z
#    x 1.748690 0.000000 0.000000 
#    y 0.000000 1.651360 0.000000 
#    z 0.000000 0.000000 1.740500 
# 
# From -- ./inp_files/76572.got.cif
#   From: 2010.05.17/outbox.cif.g08.bks.cpg/sg65_39_cif.got.tgz:76572.got - 2010.06.03 17:01:31.
