data_PCOD9489852
_publ_section_title
;
Structure prediction by ZEFSAII (Michael W. Deem and Ramdas Pophale) SiO2 
 PCOD9489852
Probable space group: C M M M
;
_chemical_formula_sum "Si O2"
_cell_formula_units_Z 104
_cell_length_a 13.665871
_cell_length_b 24.128455
_cell_length_c 18.051379
_cell_angle_alpha 90.000000
_cell_angle_beta 90.000000
_cell_angle_gamma 90.000000
_cell_volume 5952.195886
_symmetry_space_group_name_H-M "C M M M"
_symmetry_group_IT_number 65
_symmetry_cell_setting 'orthorhombic'
loop_
_space_group_symop_operation_xyz
x,y,z
-x,-y,z
x,-y,-z
-x,y,-z
-x,-y,-z
x,y,-z
-x,y,z
x,-y,z
1/2+x,1/2+y,z
1/2-x,1/2-y,z
1/2+x,1/2-y,-z
1/2-x,1/2+y,-z
1/2-x,1/2-y,-z
1/2+x,1/2+y,-z
1/2-x,1/2+y,z
1/2+x,1/2-y,z
loop_
_atom_site_type_symbol
_atom_site_label
_atom_site_fract_x
_atom_site_fract_y
_atom_site_fract_z
Si Si1 0.224001 0.815229 0.787505
Si Si2 0.115637 0.365438 0.698686
Si Si3 0.769921 0.565011 0.414061
Si Si4 0.117885 0.877690 0.912022
Si Si5 0.613819 0.500000 0.910161
Si Si6 0.382007 0.773375 0.420241
Si Si7 0.383551 0.654240 0.637659
O O1 0.250000 0.750000 0.785023
O O2 0.319593 0.853184 0.770757
O O3 0.173441 0.832534 0.863847
O O4 0.149299 0.832233 0.721550
O O5 0.149938 0.416127 0.646808
O O6 0.144391 0.312761 0.646985
O O7 0.000000 0.366464 0.711972
O O8 0.799984 0.574758 0.500000
O O9 0.749018 0.500000 0.406578
O O10 0.675991 0.602546 0.394359
O O11 0.152621 0.939755 0.887423
O O12 0.000000 0.874713 0.901075
O O13 0.134909 0.872063 0.000000
O O14 0.500000 0.500000 0.887895
O O15 0.615557 0.500000 0.000000
O O16 0.346622 0.793138 0.500000
O O17 0.500000 0.775033 0.421521
O O18 0.355636 0.709920 0.406884
O O19 0.500000 0.646277 0.633052
#
# Coordination Sequence:
#
# PCOD9489852 Si02
#       7
#    16  16  16  16   8  16  16
#     4  11  21  34  53  79 112 147 178 218 264 322
#     4  10  21  37  54  74 103 142 184 230 275 313
#     4  10  22  37  53  76 104 139 185 230 274 326
#     4   9  18  34  58  87 116 144 174 212 261 319
#     4   7  12  28  54  82 109 135 164 201 249 301
#     4   9  16  28  51  78  97 125 176 226 269 314
#     4  10  20  35  53  78 110 143 173 214 276 338
#
# _framework density 17.472543999999999
#
# number of rings (size 3 to 8) (size 9 to 14) (size 15 to 20)
#    0.000    2.385    1.538    2.308    0.000    3.385 
#    5.538    3.846    0.000    0.462    0.000    0.000 
#    0.000    1.846    0.000    0.000    0.000    0.000 
#
# Total GULP energy -289875.281961 kJ/mol
# GULP energy per Si atom -5574.524653 kJ/mol
# Density = 1.743278 g / cm^3
# Si number density = 17.472544 Si / 1000 Ang^3
#
#
#
# Elastic Constant Matrix: (Units=GPa)
#
#
# Indices 1 2 3 4 5 6 
#
# 1 59.5991 19.6813 24.6365 0.0000 0.0000 0.0000
# 2 19.6813 103.9397 33.5371 0.0000 0.0000 0.0000
# 3 24.6365 33.5371 65.0574 0.0000 0.0000 0.0000
# 4 0.0000 0.0000 0.0000 32.6204 0.0000 0.0000
# 5 0.0000 0.0000 0.0000 0.0000 22.0259 0.0000
# 6 0.0000 0.0000 0.0000 0.0000 0.0000 21.4314
#
#
#
# Elastic Compliance Matrix: (Units=1/GPa)
#
#
# Indices 1 2 3 4 5 6 
#
# 1 0.020118 -0.001621 -0.006783 0.000000 0.000000 0.000000
# 2 -0.001621 0.011671 -0.005403 0.000000 0.000000 0.000000
# 3 -0.006783 -0.005403 0.020725 0.000000 0.000000 0.000000
# 4 0.000000 0.000000 0.000000 0.030656 0.000000 0.000000
# 5 0.000000 0.000000 0.000000 0.000000 0.045401 0.000000
# 6 0.000000 0.000000 0.000000 0.000000 0.000000 0.046660
#
#
# Mechanical properties :
#
#
# Convention : Reuss Voigt Hill
#
# Bulk Modulus (GPa) = 40.15910 42.70066 41.42988
# Shear Modulus (GPa) = 23.68054 25.26498 24.47276
#
# Velocity S-wave (km/s) = 3.68543 3.80673 3.74657
# Velocity P-wave (km/s) = 6.41435 6.61917 6.51756
#
# Compressibility (1/GPa) = 0.02490096
#
# Stress axis : x y z
#
# Youngs Moduli (GPa) = 49.70708 85.68182 48.25160
#
# Poissons Ratio (x) = 0.13888 0.32728
# Poissons Ratio (y) = 0.08057 0.26069
# Poissons Ratio (z) = 0.33716 0.46291
#
# Static dielectric constant tensor:
#      x y z
#    x 1.614430 0.000000 0.000000 
#    y 0.000000 1.610100 0.000000 
#    z 0.000000 0.000000 1.624540 
# 
# From -- ./inp_files/45759.got.cif
#   From: 2010.05.17/outbox.cif.g08.bks.cpg/sg65_23_cif.got.tgz:45759.got - 2010.06.03 17:01:31.
