data_PCOD9489594
_publ_section_title
;
Structure prediction by ZEFSAII (Michael W. Deem and Ramdas Pophale) SiO2 
 PCOD9489594
Probable space group: C M M M
;
_chemical_formula_sum "Si O2"
_cell_formula_units_Z 96
_cell_length_a 8.922422
_cell_length_b 18.945924
_cell_length_c 31.798303
_cell_angle_alpha 90.000000
_cell_angle_beta 90.000000
_cell_angle_gamma 90.000000
_cell_volume 5375.297359
_symmetry_space_group_name_H-M "C M M M"
_symmetry_group_IT_number 65
_symmetry_cell_setting 'orthorhombic'
loop_
_space_group_symop_operation_xyz
x,y,z
-x,-y,z
x,-y,-z
-x,y,-z
-x,-y,-z
x,y,-z
-x,y,z
x,-y,z
1/2+x,1/2+y,z
1/2-x,1/2-y,z
1/2+x,1/2-y,-z
1/2-x,1/2+y,-z
1/2-x,1/2-y,-z
1/2+x,1/2+y,-z
1/2-x,1/2+y,z
1/2+x,1/2-y,z
loop_
_atom_site_type_symbol
_atom_site_label
_atom_site_fract_x
_atom_site_fract_y
_atom_site_fract_z
Si Si1 0.176547 0.415324 0.122318
Si Si2 0.819496 0.827486 0.627191
Si Si3 0.178018 0.584230 0.702581
Si Si4 0.317798 0.581113 0.547386
Si Si5 0.172587 0.914186 0.790385
Si Si6 0.179115 0.172590 0.047940
O O1 0.194993 0.500000 0.119432
O O2 0.250243 0.391298 0.166279
O O3 0.253999 0.378584 0.082873
O O4 0.000000 0.399791 0.122748
O O5 0.750000 0.750000 0.629221
O O6 0.762250 0.873655 0.666258
O O7 0.770137 0.866744 0.584201
O O8 0.000000 0.823808 0.627817
O O9 0.205601 0.500000 0.697928
O O10 0.238779 0.606449 0.748414
O O11 0.000000 0.595848 0.700047
O O12 0.269307 0.600475 0.500000
O O13 0.500000 0.581134 0.547310
O O14 0.271226 0.500000 0.555675
O O15 0.000000 0.891172 0.788421
O O16 0.173829 0.000000 0.790981
O O17 0.250000 0.250000 0.053301
O O18 0.000000 0.176912 0.052172
O O19 0.213476 0.149192 0.000000
#
# Coordination Sequence:
#
# PCOD9489594 Si02
#       6
#    16  16  16  16  16  16
#     4  10  20  34  54  81 112 143 176 217 265 315
#     4  11  22  35  52  76 108 144 180 218 264 315
#     4  10  20  35  56  80 106 137 175 218 263 313
#     4   8  15  30  53  79 104 133 174 221 264 310
#     4   9  17  31  53  80 108 138 174 215 260 312
#     4  10  21  37  56  77 104 140 181 223 267 317
#
# _framework density 17.859476999999998
#
# number of rings (size 3 to 8) (size 9 to 14) (size 15 to 20)
#    0.000    2.333    0.000    3.500    0.000    6.333 
#    0.000    2.500    0.000    1.500    0.000    5.833 
#    0.000    0.000    0.000    0.000    0.000    0.000 
#
# Total GULP energy -267862.133136 kJ/mol
# GULP energy per Si atom -5580.461107 kJ/mol
# Density = 1.781883 g / cm^3
# Si number density = 17.859477 Si / 1000 Ang^3
#
#
#
# Elastic Constant Matrix: (Units=GPa)
#
#
# Indices 1 2 3 4 5 6 
#
# 1 92.1121 53.0336 78.6152 0.0000 0.0000 0.0000
# 2 53.0336 54.8088 73.6701 0.0000 0.0000 0.0000
# 3 78.6152 73.6701 175.1133 0.0000 0.0000 0.0000
# 4 0.0000 0.0000 0.0000 -18.2752 0.0000 0.0000
# 5 0.0000 0.0000 0.0000 0.0000 19.7070 0.0000
# 6 0.0000 0.0000 0.0000 0.0000 0.0000 23.2574
#
#
#
# Elastic Compliance Matrix: (Units=1/GPa)
#
#
# Indices 1 2 3 4 5 6 
#
# 1 0.024944 -0.020906 -0.002403 0.000000 0.000000 0.000000
# 2 -0.020906 0.059510 -0.015651 0.000000 0.000000 0.000000
# 3 -0.002403 -0.015651 0.013374 0.000000 0.000000 0.000000
# 4 0.000000 0.000000 0.000000 -0.054719 0.000000 0.000000
# 5 0.000000 0.000000 0.000000 0.000000 0.050743 0.000000
# 6 0.000000 0.000000 0.000000 0.000000 0.000000 0.042997
#
#
# Mechanical properties :
#
#
# Convention : Reuss Voigt Hill
#
# Bulk Modulus (GPa) = 50.22908 81.40801 65.81854
# Shear Modulus (GPa) = 22.58309 12.71887 17.65098
#
# Velocity S-wave (km/s) = 3.55982 2.67153 3.14718
# Velocity P-wave (km/s) = 6.71432 7.42951 7.08095
#
# Compressibility (1/GPa) = 0.01990878
#
# Stress axis : x y z
#
# Youngs Moduli (GPa) = 40.08987 16.80382 74.77361
#
# Poissons Ratio (x) = 0.35130 0.17970
# Poissons Ratio (y) = 0.83811 1.17025
# Poissons Ratio (z) = 0.09635 0.26299
#
# Static dielectric constant tensor:
#      x y z
#    x 1.594870 0.000000 0.000000 
#    y 0.000000 1.586180 0.000000 
#    z 0.000000 0.000000 1.599020 
# 
# From -- ./inp_files/73140.got.cif
#   From: 2010.05.17/outbox.cif.g08.bks.cpg/sg65_37_cif.got.tgz:73140.got - 2010.06.03 17:01:31.
