data_PCOD9489348
_publ_section_title
;
Structure prediction by ZEFSAII (Michael W. Deem and Ramdas Pophale) SiO2 
 PCOD9489348
Probable space group: C M M M
;
_chemical_formula_sum "Si O2"
_cell_formula_units_Z 104
_cell_length_a 8.990027
_cell_length_b 21.605987
_cell_length_c 30.059833
_cell_angle_alpha 90.000000
_cell_angle_beta 90.000000
_cell_angle_gamma 90.000000
_cell_volume 5838.774061
_symmetry_space_group_name_H-M "C M M M"
_symmetry_group_IT_number 65
_symmetry_cell_setting 'orthorhombic'
loop_
_space_group_symop_operation_xyz
x,y,z
-x,-y,z
x,-y,-z
-x,y,-z
-x,-y,-z
x,y,-z
-x,y,z
x,-y,z
1/2+x,1/2+y,z
1/2-x,1/2-y,z
1/2+x,1/2-y,-z
1/2-x,1/2+y,-z
1/2-x,1/2-y,-z
1/2+x,1/2+y,-z
1/2-x,1/2+y,z
1/2+x,1/2-y,z
loop_
_atom_site_type_symbol
_atom_site_label
_atom_site_fract_x
_atom_site_fract_y
_atom_site_fract_z
Si Si1 0.166808 0.500000 0.446967
Si Si2 0.677820 0.429497 0.208583
Si Si3 0.177701 0.871889 0.448821
Si Si4 0.677527 0.569739 0.102336
Si Si5 0.321691 0.180599 0.735234
Si Si6 0.823238 0.685154 0.052836
Si Si7 0.323665 0.815035 0.637015
O O1 0.148141 0.500000 0.500000
O O2 0.262894 0.559943 0.437750
O O3 0.000000 0.500000 0.427062
O O4 0.500000 0.424765 0.216500
O O5 0.723610 0.500000 0.222399
O O6 0.701616 0.425633 0.155430
O O7 0.757962 0.371873 0.232111
O O8 0.223203 0.856251 0.500000
O O9 0.250206 0.834171 0.409239
O O10 0.000000 0.868535 0.447256
O O11 0.500000 0.574495 0.094700
O O12 0.724317 0.500000 0.088410
O O13 0.758289 0.625526 0.077624
O O14 0.500000 0.187744 0.740128
O O15 0.250000 0.250000 0.741212
O O16 0.295059 0.153442 0.684898
O O17 0.750000 0.750000 0.067889
O O18 0.000000 0.688711 0.059256
O O19 0.707124 0.820982 0.000000
O O20 0.500000 0.812704 0.630498
O O21 0.250000 0.750000 0.646257
#
# Coordination Sequence:
#
# PCOD9489348 Si02
#       7
#     8  16  16  16  16  16  16
#     4   9  17  31  51  73  99 131 165 205 251 295
#     4   9  19  37  59  83 112 144 180 225 274 326
#     4  10  20  34  53  77 104 135 172 212 255 308
#     4   9  19  36  57  81 110 145 184 226 275 330
#     4  10  21  37  58  82 108 142 181 223 270 325
#     4  10  21  36  54  78 110 148 190 235 280 326
#     4  10  21  37  55  76 103 136 172 214 260 310
#
# _framework density 17.811959000000002
#
# number of rings (size 3 to 8) (size 9 to 14) (size 15 to 20)
#    0.000    2.385    0.000    3.000    0.000    7.077 
#    1.385    3.077    0.000    0.000    0.000    0.000 
#    0.000    0.000    0.000    0.000    0.000    0.000 
#
# Total GULP energy -289503.730786 kJ/mol
# GULP energy per Si atom -5567.379438 kJ/mol
# Density = 1.777142 g / cm^3
# Si number density = 17.811959 Si / 1000 Ang^3
#
#
#
# Elastic Constant Matrix: (Units=GPa)
#
#
# Indices 1 2 3 4 5 6 
#
# 1 67.1546 53.9659 51.1913 0.0000 0.0000 0.0000
# 2 53.9659 126.9157 68.0614 0.0000 0.0000 0.0000
# 3 51.1913 68.0614 67.2234 0.0000 0.0000 0.0000
# 4 0.0000 0.0000 0.0000 16.2406 0.0000 0.0000
# 5 0.0000 0.0000 0.0000 0.0000 23.7650 0.0000
# 6 0.0000 0.0000 0.0000 0.0000 0.0000 40.7150
#
#
#
# Elastic Compliance Matrix: (Units=1/GPa)
#
#
# Indices 1 2 3 4 5 6 
#
# 1 0.035596 -0.001311 -0.025779 0.000000 0.000000 0.000000
# 2 -0.001311 0.017288 -0.016505 0.000000 0.000000 0.000000
# 3 -0.025779 -0.016505 0.051218 0.000000 0.000000 0.000000
# 4 0.000000 0.000000 0.000000 0.061574 0.000000 0.000000
# 5 0.000000 0.000000 0.000000 0.000000 0.042079 0.000000
# 6 0.000000 0.000000 0.000000 0.000000 0.000000 0.024561
#
#
# Mechanical properties :
#
#
# Convention : Reuss Voigt Hill
#
# Bulk Modulus (GPa) = 59.13363 67.52567 63.32965
# Shear Modulus (GPa) = 15.37785 22.01579 18.69682
#
# Velocity S-wave (km/s) = 2.94146 3.51951 3.24339
# Velocity P-wave (km/s) = 6.69381 7.38299 7.04683
#
# Compressibility (1/GPa) = 0.01691085
#
# Stress axis : x y z
#
# Youngs Moduli (GPa) = 28.09316 57.84378 19.52446
#
# Poissons Ratio (x) = 0.07583 0.50333
# Poissons Ratio (y) = 0.03683 0.32225
# Poissons Ratio (z) = 0.72422 0.95472
#
# Static dielectric constant tensor:
#      x y z
#    x 1.604850 0.000000 0.000000 
#    y 0.000000 1.424370 0.000000 
#    z 0.000000 0.000000 1.628070 
# 
# From -- ./inp_files/73309.got.cif
#   From: 2010.05.17/outbox.cif.g08.bks.cpg/sg65_37_cif.got.tgz:73309.got - 2010.06.03 17:01:31.
