data_PCOD9489501
_publ_section_title
;
Structure prediction by ZEFSAII (Michael W. Deem and Ramdas Pophale) SiO2 
 PCOD9489501
Probable space group: C M M M
;
_chemical_formula_sum "Si O2"
_cell_formula_units_Z 104
_cell_length_a 8.769802
_cell_length_b 18.565952
_cell_length_c 34.867943
_cell_angle_alpha 90.000000
_cell_angle_beta 90.000000
_cell_angle_gamma 90.000000
_cell_volume 5677.188820
_symmetry_space_group_name_H-M "C M M M"
_symmetry_group_IT_number 65
_symmetry_cell_setting 'orthorhombic'
loop_
_space_group_symop_operation_xyz
x,y,z
-x,-y,z
x,-y,-z
-x,y,-z
-x,-y,-z
x,y,-z
-x,y,z
x,-y,z
1/2+x,1/2+y,z
1/2-x,1/2-y,z
1/2+x,1/2-y,-z
1/2-x,1/2+y,-z
1/2-x,1/2-y,-z
1/2+x,1/2+y,-z
1/2-x,1/2+y,z
1/2+x,1/2-y,z
loop_
_atom_site_type_symbol
_atom_site_label
_atom_site_fract_x
_atom_site_fract_y
_atom_site_fract_z
Si Si1 0.318999 0.913907 0.543281
Si Si2 0.817554 0.330847 0.691567
Si Si3 0.819360 0.169803 0.613834
Si Si4 0.685934 0.582935 0.000000
Si Si5 0.682595 0.169309 0.223390
Si Si6 0.684138 0.583559 0.152167
Si Si7 0.184451 0.830109 0.075782
O O1 0.274191 0.891697 0.500000
O O2 0.500000 0.899260 0.547619
O O3 0.228884 0.874574 0.576628
O O4 0.298801 0.000000 0.545909
O O5 0.750000 0.250000 0.692380
O O6 0.747493 0.364288 0.653147
O O7 0.780212 0.360501 0.733861
O O8 0.000000 0.328038 0.687711
O O9 0.750000 0.250000 0.610237
O O10 0.000000 0.175216 0.617228
O O11 0.733309 0.625390 0.038178
O O12 0.737033 0.500000 0.000000
O O13 0.500000 0.581657 0.000000
O O14 0.500000 0.174232 0.220577
O O15 0.750000 0.250000 0.219952
O O16 0.747438 0.120212 0.189805
O O17 0.500000 0.586519 0.154412
O O18 0.728826 0.500000 0.148937
O O19 0.730638 0.627840 0.114332
O O20 0.250000 0.750000 0.075278
O O21 0.000000 0.826413 0.075387
#
# Coordination Sequence:
#
# PCOD9489501 Si02
#       7
#    16  16  16   8  16  16  16
#     4   9  19  37  58  77 101 136 175 215 262 314
#     4   9  17  31  51  75 103 134 170 212 257 307
#     4  11  21  33  53  80 109 139 173 215 261 309
#     4   9  17  32  55  79 104 137 176 216 258 309
#     4  10  20  34  55  80 104 135 174 214 258 310
#     4  10  21  36  53  75 105 139 175 218 266 313
#     4  10  20  34  54  79 105 136 176 218 261 311
#
# _framework density 18.318926000000001
#
# number of rings (size 3 to 8) (size 9 to 14) (size 15 to 20)
#    0.000    2.231    0.000    4.846    0.000    6.769 
#    0.000    1.538    0.000    2.769    0.000    0.000 
#    0.000    0.000    0.000    0.000    0.000    0.000 
#
# Total GULP energy -290161.492768 kJ/mol
# GULP energy per Si atom -5580.028707 kJ/mol
# Density = 1.827723 g / cm^3
# Si number density = 18.318926 Si / 1000 Ang^3
#
#
#
# Elastic Constant Matrix: (Units=GPa)
#
#
# Indices 1 2 3 4 5 6 
#
# 1 57.7302 37.0764 67.0543 0.0000 0.0000 0.0000
# 2 37.0764 98.2855 85.3496 0.0000 0.0000 0.0000
# 3 67.0543 85.3496 209.9057 0.0000 0.0000 0.0000
# 4 0.0000 0.0000 0.0000-7653.1550 0.0000 0.0000
# 5 0.0000 0.0000 0.0000 0.0000 25.2784 0.0000
# 6 0.0000 0.0000 0.0000 0.0000 0.0000 25.1769
#
#
#
# Elastic Compliance Matrix: (Units=1/GPa)
#
#
# Indices 1 2 3 4 5 6 
#
# 1 0.028739 -0.004435 -0.007377 0.000000 0.000000 0.000000
# 2 -0.004435 0.016412 -0.005257 0.000000 0.000000 0.000000
# 3 -0.007377 -0.005257 0.009258 0.000000 0.000000 0.000000
# 4 0.000000 0.000000 0.000000 -0.000131 0.000000 0.000000
# 5 0.000000 0.000000 0.000000 0.000000 0.039559 0.000000
# 6 0.000000 0.000000 0.000000 0.000000 0.000000 0.039719
#
#
# Mechanical properties :
#
#
# Convention : Reuss Voigt Hill
#
# Bulk Modulus (GPa) = 49.32999 82.76467 66.04733
# Shear Modulus (GPa) = 28.66111 -1508.77719 -740.05804
#
# Velocity S-wave (km/s) = 3.95975 -28.72986 -20.12120
# Velocity P-wave (km/s) = 6.92048 32.48479 22.44291
#
# Compressibility (1/GPa) = 0.02027164
#
# Stress axis : x y z
#
# Youngs Moduli (GPa) = 34.79567 60.93043 108.01266
#
# Poissons Ratio (x) = 0.27022 0.79686
# Poissons Ratio (y) = 0.15431 0.56778
# Poissons Ratio (z) = 0.25670 0.32029
#
# Static dielectric constant tensor:
#      x y z
#    x 1.616920 0.000000 0.000000 
#    y 0.000000 1.607790 0.000000 
#    z 0.000000 0.000000 1.651190 
# 
# From -- ./inp_files/76912.got.cif
#   From: 2010.05.17/outbox.cif.g08.bks.cpg/sg65_39_cif.got.tgz:76912.got - 2010.06.03 17:01:31.
