data_PCOD9489937
_publ_section_title
;
Structure prediction by ZEFSAII (Michael W. Deem and Ramdas Pophale) SiO2 
 PCOD9489937
Probable space group: C M M M
;
_chemical_formula_sum "Si O2"
_cell_formula_units_Z 96
_cell_length_a 18.729527
_cell_length_b 8.860074
_cell_length_c 32.449304
_cell_angle_alpha 90.000000
_cell_angle_beta 90.000000
_cell_angle_gamma 90.000000
_cell_volume 5384.799597
_symmetry_space_group_name_H-M "C M M M"
_symmetry_group_IT_number 65
_symmetry_cell_setting 'orthorhombic'
loop_
_space_group_symop_operation_xyz
x,y,z
-x,-y,z
x,-y,-z
-x,y,-z
-x,-y,-z
x,y,-z
-x,y,z
x,-y,z
1/2+x,1/2+y,z
1/2-x,1/2-y,z
1/2+x,1/2-y,-z
1/2-x,1/2+y,-z
1/2-x,1/2-y,-z
1/2+x,1/2+y,-z
1/2-x,1/2+y,z
1/2+x,1/2-y,z
loop_
_atom_site_type_symbol
_atom_site_label
_atom_site_fract_x
_atom_site_fract_y
_atom_site_fract_z
Si Si1 0.328829 0.182179 0.045670
Si Si2 0.670072 0.819059 0.545186
Si Si3 0.086879 0.174004 0.788836
Si Si4 0.085759 0.323012 0.296825
Si Si5 0.829381 0.179666 0.628689
Si Si6 0.584137 0.181086 0.874270
O O1 0.250000 0.250000 0.049213
O O2 0.375772 0.231365 0.084461
O O3 0.324717 0.000000 0.046959
O O4 0.357201 0.223620 0.000000
O O5 0.637348 0.786566 0.500000
O O6 0.750000 0.750000 0.543869
O O7 0.637752 0.746437 0.586223
O O8 0.674187 0.000000 0.549760
O O9 0.108750 0.266654 0.748464
O O10 0.111238 0.242790 0.832266
O O11 0.000000 0.179703 0.789717
O O12 0.108291 0.000000 0.784889
O O13 0.101759 0.500000 0.301700
O O14 0.124360 0.229665 0.332352
O O15 0.000000 0.303433 0.299683
O O16 0.750000 0.250000 0.633035
O O17 0.823865 0.000000 0.625662
O O18 0.500000 0.214201 0.878468
O O19 0.591428 0.000000 0.870184
#
# Coordination Sequence:
#
# PCOD9489937 Si02
#       6
#    16  16  16  16  16  16
#     4   9  18  32  49  69  95 128 162 195 234 283
#     4   9  16  27  45  69  97 129 166 206 248 295
#     4   9  17  30  49  73  99 126 159 199 243 291
#     4  10  20  35  55  76 100 132 169 206 247 299
#     4  11  21  33  51  75 105 135 166 207 252 297
#     4   9  17  30  49  72  96 122 156 199 243 284
#
# _framework density 17.827960999999998
#
# number of rings (size 3 to 8) (size 9 to 14) (size 15 to 20)
#    0.000    2.500    0.000    4.000    0.000    5.000 
#    0.000    2.500    0.000    2.500    0.000    8.167 
#    0.000    0.000    0.000    0.000    0.000    0.000 
#
# Total GULP energy -267555.200700 kJ/mol
# GULP energy per Si atom -5574.066681 kJ/mol
# Density = 1.778738 g / cm^3
# Si number density = 17.827961 Si / 1000 Ang^3
#
#
#
# Elastic Constant Matrix: (Units=GPa)
#
#
# Indices 1 2 3 4 5 6 
#
# 1 13.9864 24.1774 35.1491 0.0000 0.0000 0.0000
# 2 24.1774 89.7868 67.1077 0.0000 0.0000 0.0000
# 3 35.1491 67.1077 180.6441 0.0000 0.0000 0.0000
# 4 0.0000 0.0000 0.0000 29.8311 0.0000 0.0000
# 5 0.0000 0.0000 0.0000 0.0000 24.3555 0.0000
# 6 0.0000 0.0000 0.0000 0.0000 0.0000 19.1296
#
#
#
# Elastic Compliance Matrix: (Units=1/GPa)
#
#
# Indices 1 2 3 4 5 6 
#
# 1 0.190814 -0.032715 -0.024974 0.000000 0.000000 0.000000
# 2 -0.032715 0.021028 -0.001446 0.000000 0.000000 0.000000
# 3 -0.024974 -0.001446 0.010932 0.000000 0.000000 0.000000
# 4 0.000000 0.000000 0.000000 0.033522 0.000000 0.000000
# 5 0.000000 0.000000 0.000000 0.000000 0.041059 0.000000
# 6 0.000000 0.000000 0.000000 0.000000 0.000000 0.052275
#
#
# Mechanical properties :
#
#
# Convention : Reuss Voigt Hill
#
# Bulk Modulus (GPa) = 9.56915 59.69839 34.63377
# Shear Modulus (GPa) = 9.94560 25.19547 17.57054
#
# Velocity S-wave (km/s) = 2.36448 3.76341 3.14277
# Velocity P-wave (km/s) = 3.58239 7.24174 5.71298
#
# Compressibility (1/GPa) = 0.10450252
#
# Stress axis : x y z
#
# Youngs Moduli (GPa) = 5.24071 47.55645 91.47180
#
# Poissons Ratio (x) = 1.55582 2.28445
# Poissons Ratio (y) = 0.17145 0.13226
# Poissons Ratio (z) = 0.13088 0.06876
#
# Static dielectric constant tensor:
#      x y z
#    x 1.587940 0.000000 0.000000 
#    y 0.000000 1.598180 0.000000 
#    z 0.000000 0.000000 1.639620 
# 
# From -- ./inp_files/75704.got.cif
#   From: 2010.05.17/outbox.cif.g08.bks.cpg/sg65_38_cif.got.tgz:75704.got - 2010.06.03 17:01:31.
