data_PCOD9489880
_publ_section_title
;
Structure prediction by ZEFSAII (Michael W. Deem and Ramdas Pophale) SiO2 
 PCOD9489880
Probable space group: C M M M
;
_chemical_formula_sum "Si O2"
_cell_formula_units_Z 104
_cell_length_a 8.136444
_cell_length_b 34.147615
_cell_length_c 21.505861
_cell_angle_alpha 90.000000
_cell_angle_beta 90.000000
_cell_angle_gamma 90.000000
_cell_volume 5975.191801
_symmetry_space_group_name_H-M "C M M M"
_symmetry_group_IT_number 65
_symmetry_cell_setting 'orthorhombic'
loop_
_space_group_symop_operation_xyz
x,y,z
-x,-y,z
x,-y,-z
-x,y,-z
-x,-y,-z
x,y,-z
-x,y,z
x,-y,z
1/2+x,1/2+y,z
1/2-x,1/2-y,z
1/2+x,1/2-y,-z
1/2-x,1/2+y,-z
1/2-x,1/2-y,-z
1/2+x,1/2+y,-z
1/2-x,1/2+y,z
1/2+x,1/2-y,z
loop_
_atom_site_type_symbol
_atom_site_label
_atom_site_fract_x
_atom_site_fract_y
_atom_site_fract_z
Si Si1 0.196282 0.413225 0.567606
Si Si2 0.802995 0.205017 0.364602
Si Si3 0.692497 0.920282 0.193730
Si Si4 0.697924 0.704460 0.500000
Si Si5 0.693726 0.500000 0.255330
Si Si6 0.697064 0.544623 0.069735
Si Si7 0.807022 0.000000 0.595889
Si Si8 0.303017 0.129065 0.692867
O O1 0.262195 0.399314 0.500000
O O2 0.229095 0.459697 0.572264
O O3 0.262856 0.393164 0.630773
O O4 0.000000 0.406902 0.567155
O O5 0.750000 0.250000 0.356470
O O6 0.741816 0.190123 0.432996
O O7 0.734978 0.174611 0.315187
O O8 0.000000 0.203790 0.364435
O O9 0.500000 0.912944 0.187529
O O10 0.759334 0.925733 0.124421
O O11 0.763162 0.888967 0.242903
O O12 0.724113 0.961622 0.227455
O O13 0.500000 0.701709 0.500000
O O14 0.750000 0.750000 0.500000
O O15 0.500000 0.500000 0.238616
O O16 0.709156 0.500000 0.329439
O O17 0.500000 0.542676 0.067600
O O18 0.755781 0.500000 0.084207
O O19 0.755754 0.554594 0.000000
O O20 0.000000 0.000000 0.580013
O O21 0.500000 0.123184 0.693031
#
# Coordination Sequence:
#
# PCOD9489880 Si02
#       8
#    16  16  16   8   8  16   8  16
#     4  10  21  36  51  66  90 127 166 208 257 304
#     4  10  20  35  54  74  98 127 160 201 253 311
#     4  11  21  33  51  73  99 131 169 212 248 287
#     4   8  16  30  48  72  94 117 150 191 242 300
#     4  11  21  32  47  66  92 129 166 204 251 298
#     4   9  18  32  50  74 105 138 169 204 246 293
#     4  11  22  34  49  67  89 121 166 217 260 298
#     4  10  22  36  50  72  99 127 164 208 253 299
#
# _framework density 17.405297999999998
#
# number of rings (size 3 to 8) (size 9 to 14) (size 15 to 20)
#    0.000    2.000    2.308    2.077    1.077    4.615 
#    0.000    0.769    0.000    0.000    0.000    0.000 
#    0.000    0.615    0.000    2.000    0.000    2.923 
#
# Total GULP energy -290080.227680 kJ/mol
# GULP energy per Si atom -5578.465917 kJ/mol
# Density = 1.736568 g / cm^3
# Si number density = 17.405298 Si / 1000 Ang^3
#
#
#
# Elastic Constant Matrix: (Units=GPa)
#
#
# Indices 1 2 3 4 5 6 
#
# 1 11.7871 -7.4601 19.7519 0.0000 0.0000 0.0000
# 2 -7.4601 76.0392 55.7499 0.0000 0.0000 0.0000
# 3 19.7519 55.7499 144.5048 0.0000 0.0000 0.0000
# 4 0.0000 0.0000 0.0000 19.4349 0.0000 0.0000
# 5 0.0000 0.0000 0.0000 0.0000 19.9010 0.0000
# 6 0.0000 0.0000 0.0000 0.0000 0.0000 15.2433
#
#
#
# Elastic Compliance Matrix: (Units=1/GPa)
#
#
# Indices 1 2 3 4 5 6 
#
# 1 0.203382 0.056245 -0.049499 0.000000 0.000000 0.000000
# 2 0.056245 0.033893 -0.020764 0.000000 0.000000 0.000000
# 3 -0.049499 -0.020764 0.021697 0.000000 0.000000 0.000000
# 4 0.000000 0.000000 0.000000 0.051454 0.000000 0.000000
# 5 0.000000 0.000000 0.000000 0.000000 0.050249 0.000000
# 6 0.000000 0.000000 0.000000 0.000000 0.000000 0.065603
#
#
# Mechanical properties :
#
#
# Convention : Reuss Voigt Hill
#
# Bulk Modulus (GPa) = 4.33021 40.93498 22.63260
# Shear Modulus (GPa) = 9.41104 21.86847 15.63976
#
# Velocity S-wave (km/s) = 2.32782 3.54846 3.00086
# Velocity P-wave (km/s) = 3.11741 6.35283 5.00383
#
# Compressibility (1/GPa) = 0.23093553
#
# Stress axis : x y z
#
# Youngs Moduli (GPa) = 4.91685 29.50505 46.09005
#
# Poissons Ratio (x) = -1.65950 2.28141
# Poissons Ratio (y) = -0.27655 0.95700
# Poissons Ratio (z) = 0.24338 0.61263
#
# Static dielectric constant tensor:
#      x y z
#    x 1.608450 0.000000 0.000000 
#    y 0.000000 1.572700 0.000000 
#    z 0.000000 0.000000 1.639770 
# 
# From -- ./inp_files/60951.got.cif
#   From: 2010.05.17/outbox.cif.g08.bks.cpg/sg65_31_cif.got.tgz:60951.got - 2010.06.03 17:01:31.
