data_PCOD9489532
_publ_section_title
;
Structure prediction by ZEFSAII (Michael W. Deem and Ramdas Pophale) SiO2 
 PCOD9489532
Probable space group: C M M M
;
_chemical_formula_sum "Si O2"
_cell_formula_units_Z 88
_cell_length_a 16.453921
_cell_length_b 14.088208
_cell_length_c 20.170106
_cell_angle_alpha 90.000000
_cell_angle_beta 90.000000
_cell_angle_gamma 90.000000
_cell_volume 4675.556865
_symmetry_space_group_name_H-M "C M M M"
_symmetry_group_IT_number 65
_symmetry_cell_setting 'orthorhombic'
loop_
_space_group_symop_operation_xyz
x,y,z
-x,-y,z
x,-y,-z
-x,y,-z
-x,-y,-z
x,y,-z
-x,y,z
x,-y,z
1/2+x,1/2+y,z
1/2-x,1/2-y,z
1/2+x,1/2-y,-z
1/2-x,1/2+y,-z
1/2-x,1/2-y,-z
1/2+x,1/2+y,-z
1/2-x,1/2+y,z
1/2+x,1/2-y,z
loop_
_atom_site_type_symbol
_atom_site_label
_atom_site_fract_x
_atom_site_fract_y
_atom_site_fract_z
Si Si1 0.596506 0.394405 0.310708
Si Si2 0.656806 0.288837 0.925107
Si Si3 0.154015 0.232371 0.424851
Si Si4 0.905611 0.000000 0.079560
Si Si5 0.596509 0.105977 0.673251
Si Si6 0.346356 0.767570 0.787320
O O1 0.500000 0.394015 0.320493
O O2 0.623782 0.500000 0.293280
O O3 0.636146 0.357634 0.378594
O O4 0.616569 0.320309 0.253214
O O5 0.750000 0.250000 0.928994
O O6 0.642263 0.400816 0.906174
O O7 0.620996 0.231918 0.862401
O O8 0.623032 0.276525 0.000000
O O9 0.123647 0.223235 0.500000
O O10 0.250000 0.250000 0.426564
O O11 0.116257 0.320856 0.385264
O O12 0.000000 0.000000 0.105959
O O13 0.912481 0.000000 0.000000
O O14 0.500000 0.107056 0.683238
O O15 0.636278 0.142527 0.741263
O O16 0.623501 0.000000 0.656598
O O17 0.250000 0.750000 0.789895
#
# Coordination Sequence:
#
# PCOD9489532 Si02
#       6
#    16  16  16   8  16  16
#     4  10  21  35  53  78 107 141 177 215 266 324
#     4   9  19  36  54  81 116 149 186 232 288 344
#     4  10  21  36  55  80 108 137 173 218 265 314
#     4   9  18  32  54  84 111 141 186 236 285 336
#     4  10  21  37  56  77 104 140 179 221 266 315
#     4  10  20  34  54  80 104 139 179 222 270 323
#
# _framework density 18.821287999999999
#
# number of rings (size 3 to 8) (size 9 to 14) (size 15 to 20)
#    0.000    2.273    0.000    4.364    1.273    6.545 
#    4.909    3.636    0.000    0.000    0.000    1.273 
#    0.000    0.000    0.000    0.000    0.000    0.000 
#
# Total GULP energy -245167.121743 kJ/mol
# GULP energy per Si atom -5571.980040 kJ/mol
# Density = 1.877845 g / cm^3
# Si number density = 18.821288 Si / 1000 Ang^3
#
#
#
# Elastic Constant Matrix: (Units=GPa)
#
#
# Indices 1 2 3 4 5 6 
#
# 1 51.6625 15.4529 4.2624 0.0000 0.0000 0.0000
# 2 15.4529 48.9585 -16.6000 0.0000 0.0000 0.0000
# 3 4.2624 -16.6000 108.9850 0.0000 0.0000 0.0000
# 4 0.0000 0.0000 0.0000 6.8187 0.0000 0.0000
# 5 0.0000 0.0000 0.0000 0.0000 -39.3319 0.0000
# 6 0.0000 0.0000 0.0000 0.0000 0.0000 68.8036
#
#
#
# Elastic Compliance Matrix: (Units=1/GPa)
#
#
# Indices 1 2 3 4 5 6 
#
# 1 0.021781 -0.007554 -0.002002 0.000000 0.000000 0.000000
# 2 -0.007554 0.024157 0.003975 0.000000 0.000000 0.000000
# 3 -0.002002 0.003975 0.009859 0.000000 0.000000 0.000000
# 4 0.000000 0.000000 0.000000 0.146655 0.000000 0.000000
# 5 0.000000 0.000000 0.000000 0.000000 -0.025425 0.000000
# 6 0.000000 0.000000 0.000000 0.000000 0.000000 0.014534
#
#
# Mechanical properties :
#
#
# Convention : Reuss Voigt Hill
#
# Bulk Modulus (GPa) = 22.40372 23.98183 23.19277
# Shear Modulus (GPa) = 22.97762 21.02412 22.00087
#
# Velocity S-wave (km/s) = 3.49783 3.34584 3.42268
# Velocity P-wave (km/s) = 5.31435 5.26267 5.28857
#
# Compressibility (1/GPa) = 0.04463544
#
# Stress axis : x y z
#
# Youngs Moduli (GPa) = 45.91151 41.39511 101.42673
#
# Poissons Ratio (x) = 0.31269 0.20310
# Poissons Ratio (y) = 0.34680 -0.40317
# Poissons Ratio (z) = 0.09193 -0.16454
#
# Static dielectric constant tensor:
#      x y z
#    x 1.669240 0.000000 0.000000 
#    y 0.000000 1.649040 0.000000 
#    z 0.000000 0.000000 1.677560 
# 
# From -- ./inp_files/62472.got.cif
#   From: 2010.05.17/outbox.cif.g08.bks.cpg/sg65_32_cif.got.tgz:62472.got - 2010.06.03 17:01:31.
