data_PCOD9489834
_publ_section_title
;
Structure prediction by ZEFSAII (Michael W. Deem and Ramdas Pophale) SiO2 
 PCOD9489834
Probable space group: C M M M
;
_chemical_formula_sum "Si O2"
_cell_formula_units_Z 56
_cell_length_a 14.834878
_cell_length_b 8.239522
_cell_length_c 24.746348
_cell_angle_alpha 90.000000
_cell_angle_beta 90.000000
_cell_angle_gamma 90.000000
_cell_volume 3024.803123
_symmetry_space_group_name_H-M "C M M M"
_symmetry_group_IT_number 65
_symmetry_cell_setting 'orthorhombic'
loop_
_space_group_symop_operation_xyz
x,y,z
-x,-y,z
x,-y,-z
-x,y,-z
-x,-y,-z
x,y,-z
-x,y,z
x,-y,z
1/2+x,1/2+y,z
1/2-x,1/2-y,z
1/2+x,1/2-y,-z
1/2-x,1/2+y,-z
1/2-x,1/2-y,-z
1/2+x,1/2+y,-z
1/2-x,1/2+y,z
1/2+x,1/2-y,z
loop_
_atom_site_type_symbol
_atom_site_label
_atom_site_fract_x
_atom_site_fract_y
_atom_site_fract_z
Si Si1 0.500000 0.805694 0.732161
Si Si2 0.353115 0.306089 0.647789
Si Si3 0.000000 0.198253 0.438266
Si Si4 0.852390 0.304264 0.939909
Si Si5 0.000000 0.698851 0.144444
O O1 0.588227 0.749488 0.699284
O O2 0.500000 0.745514 0.793837
O O3 0.500000 0.000000 0.732756
O O4 0.353486 0.500000 0.647217
O O5 0.250000 0.250000 0.647943
O O6 0.411823 0.249986 0.595767
O O7 0.000000 0.254317 0.500000
O O8 0.000000 0.000000 0.438871
O O9 0.855952 0.500000 0.940146
O O10 0.750000 0.250000 0.933042
O O11 0.914408 0.247820 0.890916
O O12 0.882818 0.250047 0.000000
O O13 0.000000 0.500000 0.145674
#
# Coordination Sequence:
#
# PCOD9489834 Si02
#       5
#     8  16   8  16   8
#     4  10  20  35  53  74 102 133 172 217 256 299
#     4  10  20  35  55  77 104 138 173 208 251 300
#     4   8  16  32  53  78 107 135 166 207 250 295
#     4   9  17  31  50  71  96 125 158 197 243 296
#     4   9  18  32  51  73  95 126 164 201 246 298
#
# _framework density 18.513603
#
# number of rings (size 3 to 8) (size 9 to 14) (size 15 to 20)
#    0.000    2.714    0.000    2.571    0.000    3.429 
#    0.000    6.429    0.000   18.000    0.000    0.000 
#    0.000    0.000    0.000    0.000    0.000    0.000 
#
# Total GULP energy -156128.938007 kJ/mol
# GULP energy per Si atom -5576.033500 kJ/mol
# Density = 1.847146 g / cm^3
# Si number density = 18.513603 Si / 1000 Ang^3
#
#
#
# Elastic Constant Matrix: (Units=GPa)
#
#
# Indices 1 2 3 4 5 6 
#
# 1 173.5236 21.1066 118.7269 0.0000 0.0000 0.0000
# 2 21.1066 22.9112 23.3703 0.0000 0.0000 0.0000
# 3 118.7269 23.3703 220.0019 0.0000 0.0000 0.0000
# 4 0.0000 0.0000 0.0000 18.7091 0.0000 0.0000
# 5 0.0000 0.0000 0.0000 0.0000 16.8302 0.0000
# 6 0.0000 0.0000 0.0000 0.0000 0.0000 22.4816
#
#
#
# Elastic Compliance Matrix: (Units=1/GPa)
#
#
# Indices 1 2 3 4 5 6 
#
# 1 0.009441 -0.003926 -0.004678 0.000000 0.000000 0.000000
# 2 -0.003926 0.050583 -0.003255 0.000000 0.000000 0.000000
# 3 -0.004678 -0.003255 0.007416 0.000000 0.000000 0.000000
# 4 0.000000 0.000000 0.000000 0.053450 0.000000 0.000000
# 5 0.000000 0.000000 0.000000 0.000000 0.059417 0.000000
# 6 0.000000 0.000000 0.000000 0.000000 0.000000 0.044481
#
#
# Mechanical properties :
#
#
# Convention : Reuss Voigt Hill
#
# Bulk Modulus (GPa) = 22.87121 82.53825 52.70473
# Shear Modulus (GPa) = 19.00566 28.48636 23.74601
#
# Velocity S-wave (km/s) = 3.20750 3.92685 3.58526
# Velocity P-wave (km/s) = 5.10862 8.07709 6.75786
#
# Compressibility (1/GPa) = 0.04372310
#
# Stress axis : x y z
#
# Youngs Moduli (GPa) = 105.91893 19.76937 134.84859
#
# Poissons Ratio (x) = 0.07761 0.63083
# Poissons Ratio (y) = 0.41581 0.43890
# Poissons Ratio (z) = 0.49549 0.06434
#
# Static dielectric constant tensor:
#      x y z
#    x 1.594780 0.000000 0.000000 
#    y 0.000000 1.646800 0.000000 
#    z 0.000000 0.000000 1.643630 
# 
# From -- ./inp_files/69447.got.cif
#   From: 2010.05.17/outbox.cif.g08.bks.cpg/sg65_35_cif.got.tgz:69447.got - 2010.06.03 17:01:31.
