data_PCOD9489190
_publ_section_title
;
Structure prediction by ZEFSAII (Michael W. Deem and Ramdas Pophale) SiO2 
 PCOD9489190
Probable space group: C M M M
;
_chemical_formula_sum "Si O2"
_cell_formula_units_Z 120
_cell_length_a 17.796165
_cell_length_b 17.432782
_cell_length_c 23.240932
_cell_angle_alpha 90.000000
_cell_angle_beta 90.000000
_cell_angle_gamma 90.000000
_cell_volume 7210.189232
_symmetry_space_group_name_H-M "C M M M"
_symmetry_group_IT_number 65
_symmetry_cell_setting 'orthorhombic'
loop_
_space_group_symop_operation_xyz
x,y,z
-x,-y,z
x,-y,-z
-x,y,-z
-x,-y,-z
x,y,-z
-x,y,z
x,-y,z
1/2+x,1/2+y,z
1/2-x,1/2-y,z
1/2+x,1/2-y,-z
1/2-x,1/2+y,-z
1/2-x,1/2-y,-z
1/2+x,1/2+y,-z
1/2-x,1/2+y,z
1/2+x,1/2-y,z
loop_
_atom_site_type_symbol
_atom_site_label
_atom_site_fract_x
_atom_site_fract_y
_atom_site_fract_z
Si Si1 0.312929 0.188311 0.152033
Si Si2 0.842111 0.358209 0.631995
Si Si3 0.908943 0.407072 0.754769
Si Si4 0.587352 0.000000 0.566955
Si Si5 0.787325 0.090436 0.065713
Si Si6 0.911434 0.219491 0.433808
Si Si7 0.797455 0.908578 0.433503
Si Si8 0.088062 0.789887 0.933466
O O1 0.250000 0.250000 0.175336
O O2 0.363286 0.140077 0.196689
O O3 0.266248 0.130613 0.111580
O O4 0.369043 0.234830 0.110411
O O5 0.870740 0.377891 0.695582
O O6 0.879498 0.424015 0.593469
O O7 0.870636 0.276689 0.609674
O O8 0.755442 0.370271 0.614668
O O9 0.899298 0.500000 0.759755
O O10 0.000000 0.392926 0.755326
O O11 0.500000 0.000000 0.579051
O O12 0.601507 0.000000 0.500000
O O13 0.869159 0.129025 0.070817
O O14 0.790011 0.000000 0.074042
O O15 0.761237 0.106326 0.000000
O O16 0.897934 0.245995 0.500000
O O17 0.876616 0.134828 0.429576
O O18 0.000000 0.220339 0.423690
O O19 0.770103 0.895044 0.500000
O O20 0.800833 0.000000 0.425397
O O21 0.000000 0.795076 0.921142
O O22 0.097137 0.763636 0.000000
#
# Coordination Sequence:
#
# PCOD9489190 Si02
#       8
#    16  16  16   8  16  16  16  16
#     4  10  20  34  52  74 100 135 176 214 253 298
#     4  12  21  35  53  76 104 131 169 212 259 311
#     4  11  23  38  54  73 101 135 172 214 258 305
#     4  11  20  30  50  76 103 131 156 196 257 320
#     4   9  17  30  50  76 105 135 168 209 255 303
#     4  10  21  35  53  78 106 135 167 205 249 301
#     4  10  20  35  55  78 104 135 168 204 249 302
#     4   9  17  30  50  76 105 135 168 209 257 306
#
# _framework density 16.643113
#
# number of rings (size 3 to 8) (size 9 to 14) (size 15 to 20)
#    0.000    1.800    1.333    4.000    0.000    5.333 
#    0.000    2.667    0.000    0.000    0.000    5.600 
#    0.000    6.400    0.000    0.000    0.000    0.000 
#
# Total GULP energy -334479.319308 kJ/mol
# GULP energy per Si atom -5574.655322 kJ/mol
# Density = 1.660523 g / cm^3
# Si number density = 16.643113 Si / 1000 Ang^3
#
#
#
# Elastic Constant Matrix: (Units=GPa)
#
#
# Indices 1 2 3 4 5 6 
#
# 1 50.7928 68.8052 48.6806 0.0000 0.0000 0.0000
# 2 68.8052 90.4505 59.3760 0.0000 0.0000 0.0000
# 3 48.6806 59.3760 99.1522 0.0000 0.0000 0.0000
# 4 0.0000 0.0000 0.0000 57.7067 0.0000 0.0000
# 5 0.0000 0.0000 0.0000 0.0000 56.0654 0.0000
# 6 0.0000 0.0000 0.0000 0.0000 0.0000 17.4624
#
#
#
# Elastic Compliance Matrix: (Units=1/GPa)
#
#
# Indices 1 2 3 4 5 6 
#
# 1 -0.570764 0.412300 0.033327 0.000000 0.000000 0.000000
# 2 0.412300 -0.279614 -0.034983 0.000000 0.000000 0.000000
# 3 0.033327 -0.034983 0.014672 0.000000 0.000000 0.000000
# 4 0.000000 0.000000 0.000000 0.017329 0.000000 0.000000
# 5 0.000000 0.000000 0.000000 0.000000 0.017836 0.000000
# 6 0.000000 0.000000 0.000000 0.000000 0.000000 0.057266
#
#
# Mechanical properties :
#
#
# Convention : Reuss Voigt Hill
#
# Bulk Modulus (GPa) = -69.35465 66.01321 -1.67072
# Shear Modulus (GPa) = -3.18599 30.48249 13.64825
#
# Velocity S-wave (km/s) = -1.38508 4.28429 2.86677
# Velocity P-wave (km/s) = 6.65733 8.01396 3.15464
#
# Compressibility (1/GPa) = -0.01441864
#
# Stress axis : x y z
#
# Youngs Moduli (GPa) = -1.75204 -3.57636 68.15576
#
# Poissons Ratio (x) = 1.47453 -2.27140
# Poissons Ratio (y) = 0.72236 2.38429
# Poissons Ratio (z) = 0.05839 -0.12511
#
# Static dielectric constant tensor:
#      x y z
#    x 1.575210 0.000000 0.000000 
#    y 0.000000 1.540950 0.000000 
#    z 0.000000 0.000000 1.561060 
# 
# From -- ./inp_files/64011.got.cif
#   From: 2010.05.17/outbox.cif.g08.bks.cpg/sg65_33_cif.got.tgz:64011.got - 2010.06.03 17:01:31.
