data_PCOD9489108
_publ_section_title
;
Structure prediction by ZEFSAII (Michael W. Deem and Ramdas Pophale) SiO2 
 PCOD9489108
Probable space group: C M M M
;
_chemical_formula_sum "Si O2"
_cell_formula_units_Z 96
_cell_length_a 7.638589
_cell_length_b 25.913606
_cell_length_c 19.373952
_cell_angle_alpha 90.000000
_cell_angle_beta 90.000000
_cell_angle_gamma 90.000000
_cell_volume 3834.945654
_symmetry_space_group_name_H-M "C M M M"
_symmetry_group_IT_number 65
_symmetry_cell_setting 'orthorhombic'
loop_
_space_group_symop_operation_xyz
x,y,z
-x,-y,z
x,-y,-z
-x,y,-z
-x,-y,-z
x,y,-z
-x,y,z
x,-y,z
1/2+x,1/2+y,z
1/2-x,1/2-y,z
1/2+x,1/2-y,-z
1/2-x,1/2+y,-z
1/2-x,1/2-y,-z
1/2+x,1/2+y,-z
1/2-x,1/2+y,z
1/2+x,1/2-y,z
loop_
_atom_site_type_symbol
_atom_site_label
_atom_site_fract_x
_atom_site_fract_y
_atom_site_fract_z
Si Si1 0.708915 0.192516 0.275809
Si Si2 0.712880 0.443625 0.379408
Si Si3 0.295370 0.832142 0.426311
Si Si4 0.705124 0.419100 0.773739
Si Si5 0.190570 0.805302 0.082175
Si Si6 0.283542 0.580604 0.922744
O O1 0.500000 0.186193 0.276959
O O2 0.750000 0.250000 0.251886
O O3 0.781218 0.188064 0.354328
O O4 0.776657 0.143320 0.233202
O O5 0.500000 0.439932 0.379920
O O6 0.760944 0.500000 0.406495
O O7 0.782235 0.394095 0.419265
O O8 0.775331 0.439118 0.299480
O O9 0.217677 0.815997 0.500000
O O10 0.500000 0.817706 0.426658
O O11 0.500000 0.431867 0.773021
O O12 0.770955 0.440187 0.847559
O O13 0.250000 0.750000 0.108004
O O14 0.283371 0.860220 0.084560
O O15 0.000000 0.813981 0.112764
O O16 0.173760 0.798203 0.000000
O O17 0.500000 0.579560 0.924259
O O18 0.232091 0.561928 0.000000
#
# Coordination Sequence:
#
# PCOD9489108 Si02
#       6
#    16  16  16  16  16  16
#     4  10  20  34  51  71  98 131 166 201 236 279
#     4   9  18  32  50  73 100 130 163 198 240 291
#     4   9  19  35  53  75 102 129 160 199 239 281
#     4   9  17  31  50  69  93 127 165 204 245 290
#     4   8  13  21  32  47  69  96 128 167 210 257
#     4   8  14  25  42  63  85 113 152 197 244 289
#
# _framework density 25.032948999999999
#
# number of rings (size 3 to 8) (size 9 to 14) (size 15 to 20)
#    0.000    3.167    0.000    1.500    0.000    2.667 
#    0.000    4.167    0.000    2.000    0.000    3.500 
#    0.000    0.000    0.000    8.333    0.000    8.667 
#
# Total GULP energy -267530.784127 kJ/mol
# GULP energy per Si atom -5573.558003 kJ/mol
# Density = 2.497597 g / cm^3
# Si number density = 25.032949 Si / 1000 Ang^3
#
#
#
# Elastic Constant Matrix: (Units=GPa)
#
#
# Indices 1 2 3 4 5 6 
#
# 1 50.5284 -9.1749 2.0442 0.0000 0.0000 0.0000
# 2 -9.1749 108.3992 5.0615 0.0000 0.0000 0.0000
# 3 2.0442 5.0615 196.3238 0.0000 0.0000 0.0000
# 4 0.0000 0.0000 0.0000 -356.2427 0.0000 0.0000
# 5 0.0000 0.0000 0.0000 0.0000 11.2616 0.0000
# 6 0.0000 0.0000 0.0000 0.0000 0.0000 -0.4784
#
#
#
# Elastic Compliance Matrix: (Units=1/GPa)
#
#
# Indices 1 2 3 4 5 6 
#
# 1 0.020112 0.001714 -0.000254 0.000000 0.000000 0.000000
# 2 0.001714 0.009382 -0.000260 0.000000 0.000000 0.000000
# 3 -0.000254 -0.000260 0.005103 0.000000 0.000000 0.000000
# 4 0.000000 0.000000 0.000000 -0.002807 0.000000 0.000000
# 5 0.000000 0.000000 0.000000 0.000000 0.088798 0.000000
# 6 0.000000 0.000000 0.000000 0.000000 0.000000 -2.090443
#
#
# Mechanical properties :
#
#
# Convention : Reuss Voigt Hill
#
# Bulk Modulus (GPa) = 27.02753 39.01254 33.02003
# Shear Modulus (GPa) = -2.55112 -45.27051 -23.91082
#
# Velocity S-wave (km/s) = -1.01060 -4.25719 -3.09394
# Velocity P-wave (km/s) = 3.07546 2.92345 0.67525
#
# Compressibility (1/GPa) = 0.03699932
#
# Stress axis : x y z
#
# Youngs Moduli (GPa) = 49.72063 106.58287 195.96456
#
# Poissons Ratio (x) = -0.18270 0.04970
# Poissons Ratio (y) = -0.08523 0.05090
# Poissons Ratio (z) = 0.01261 0.02768
#
# Static dielectric constant tensor:
#      x y z
#    x 1.961710 0.000000 0.000000 
#    y 0.000000 1.991800 0.000000 
#    z 0.000000 0.000000 2.034820 
# 
# From -- ./inp_files/60262.got.cif
#   From: 2010.05.17/outbox.cif.g08.bks.cpg/sg65_31_cif.got.tgz:60262.got - 2010.06.03 17:01:31.
