data_PCOD9489485
_publ_section_title
;
Structure prediction by ZEFSAII (Michael W. Deem and Ramdas Pophale) SiO2 
 PCOD9489485
Probable space group: C M M M
;
_chemical_formula_sum "Si O2"
_cell_formula_units_Z 104
_cell_length_a 21.925408
_cell_length_b 28.938120
_cell_length_c 7.584102
_cell_angle_alpha 90.000000
_cell_angle_beta 90.000000
_cell_angle_gamma 90.000000
_cell_volume 4811.961702
_symmetry_space_group_name_H-M "C M M M"
_symmetry_group_IT_number 65
_symmetry_cell_setting 'orthorhombic'
loop_
_space_group_symop_operation_xyz
x,y,z
-x,-y,z
x,-y,-z
-x,y,-z
-x,-y,-z
x,y,-z
-x,y,z
x,-y,z
1/2+x,1/2+y,z
1/2-x,1/2-y,z
1/2+x,1/2-y,-z
1/2-x,1/2+y,-z
1/2-x,1/2-y,-z
1/2+x,1/2+y,-z
1/2-x,1/2+y,z
1/2+x,1/2-y,z
loop_
_atom_site_type_symbol
_atom_site_label
_atom_site_fract_x
_atom_site_fract_y
_atom_site_fract_z
Si Si1 0.500000 0.446489 0.783325
Si Si2 0.675301 0.948798 0.789272
Si Si3 0.396225 0.622074 0.206930
Si Si4 0.566844 0.723989 0.286852
Si Si5 0.431146 0.886103 0.712032
Si Si6 0.740026 0.634676 0.788188
Si Si7 0.845722 0.697867 0.288482
O O1 0.500000 0.500000 0.730684
O O2 0.440376 0.417940 0.722400
O O3 0.500000 0.445383 0.000000
O O4 0.606630 0.931986 0.755049
O O5 0.719214 0.908214 0.720259
O O6 0.687214 0.000000 0.719277
O O7 0.684012 0.950173 0.000000
O O8 0.428043 0.671650 0.224239
O O9 0.328339 0.629170 0.281911
O O10 0.388770 0.611486 0.000000
O O11 0.568517 0.723262 0.500000
O O12 0.500000 0.743387 0.236422
O O13 0.623727 0.754815 0.223436
O O14 0.433563 0.881937 0.500000
O O15 0.500000 0.885540 0.778883
O O16 0.390133 0.843286 0.777369
O O17 0.777040 0.681806 0.750893
O O18 0.737682 0.631845 0.000000
O O19 0.849739 0.699051 0.500000
#
# Coordination Sequence:
#
# PCOD9489485 Si02
#       7
#     8  16  16  16  16  16  16
#     4   9  18  34  57  83 107 133 171 217 262 311
#     4   9  18  32  48  67  94 128 165 205 251 302
#     4  10  20  35  55  79 106 133 166 210 258 306
#     4  10  20  34  54  78 105 137 172 210 253 303
#     4   9  17  30  48  69  95 127 166 211 251 290
#     4   9  19  34  51  73 102 134 168 210 257 305
#     4   9  18  33  52  74 100 135 175 210 247 297
#
# _framework density 21.612808000000001
#
# number of rings (size 3 to 8) (size 9 to 14) (size 15 to 20)
#    0.000    2.692    0.769    0.462    0.000    5.231 
#    0.000    7.692    0.000    3.692    0.000    2.154 
#    0.000    0.000    0.000    0.000    0.000    0.000 
#
# Total GULP energy -290099.560132 kJ/mol
# GULP energy per Si atom -5578.837695 kJ/mol
# Density = 2.156362 g / cm^3
# Si number density = 21.612808 Si / 1000 Ang^3
#
#
#
# Elastic Constant Matrix: (Units=GPa)
#
#
# Indices 1 2 3 4 5 6 
#
# 1 165.1642 58.0515 0.5421 0.0000 0.0000 0.0000
# 2 58.0515 121.2005 -4.1910 0.0000 0.0000 0.0000
# 3 0.5421 -4.1910 46.3515 0.0000 0.0000 0.0000
# 4 0.0000 0.0000 0.0000 44.6014 0.0000 0.0000
# 5 0.0000 0.0000 0.0000 0.0000 20.4732 0.0000
# 6 0.0000 0.0000 0.0000 0.0000 0.0000 10.1377
#
#
#
# Elastic Compliance Matrix: (Units=1/GPa)
#
#
# Indices 1 2 3 4 5 6 
#
# 1 0.007288 -0.003504 -0.000402 0.000000 0.000000 0.000000
# 2 -0.003504 0.009962 0.000942 0.000000 0.000000 0.000000
# 3 -0.000402 0.000942 0.021664 0.000000 0.000000 0.000000
# 4 0.000000 0.000000 0.000000 0.022421 0.000000 0.000000
# 5 0.000000 0.000000 0.000000 0.000000 0.048844 0.000000
# 6 0.000000 0.000000 0.000000 0.000000 0.000000 0.098642
#
#
# Mechanical properties :
#
#
# Convention : Reuss Voigt Hill
#
# Bulk Modulus (GPa) = 30.31778 49.05793 39.68785
# Shear Modulus (GPa) = 22.14887 33.59669 27.87278
#
# Velocity S-wave (km/s) = 3.20473 3.94697 3.59505
# Velocity P-wave (km/s) = 5.26800 6.59691 5.96955
#
# Compressibility (1/GPa) = 0.03298395
#
# Stress axis : x y z
#
# Youngs Moduli (GPa) = 137.21852 100.38246 46.15928
#
# Poissons Ratio (x) = 0.35179 0.01856
# Poissons Ratio (y) = 0.48088 -0.04347
# Poissons Ratio (z) = 0.05517 -0.09453
#
# Static dielectric constant tensor:
#      x y z
#    x 1.811980 0.000000 0.000000 
#    y 0.000000 1.765690 0.000000 
#    z 0.000000 0.000000 1.823450 
# 
# From -- ./inp_files/12454.got.cif
#   From: 2010.05.17/outbox.cif.g08.bks.cpg/sg65_7_cif.got.tgz:12454.got - 2010.06.03 17:01:31.
