data_PCOD9489862
_publ_section_title
;
Structure prediction by ZEFSAII (Michael W. Deem and Ramdas Pophale) SiO2 
 PCOD9489862
Probable space group: C M M M
;
_chemical_formula_sum "Si O2"
_cell_formula_units_Z 112
_cell_length_a 16.526415
_cell_length_b 14.791826
_cell_length_c 27.079329
_cell_angle_alpha 90.000000
_cell_angle_beta 90.000000
_cell_angle_gamma 90.000000
_cell_volume 6619.700526
_symmetry_space_group_name_H-M "C M M M"
_symmetry_group_IT_number 65
_symmetry_cell_setting 'orthorhombic'
loop_
_space_group_symop_operation_xyz
x,y,z
-x,-y,z
x,-y,-z
-x,y,-z
-x,-y,-z
x,y,-z
-x,y,z
x,-y,z
1/2+x,1/2+y,z
1/2-x,1/2-y,z
1/2+x,1/2-y,-z
1/2-x,1/2+y,-z
1/2-x,1/2-y,-z
1/2+x,1/2+y,-z
1/2-x,1/2+y,z
1/2+x,1/2-y,z
loop_
_atom_site_type_symbol
_atom_site_label
_atom_site_fract_x
_atom_site_fract_y
_atom_site_fract_z
Si Si1 0.098113 0.393975 0.661503
Si Si2 0.904278 0.609484 0.553121
Si Si3 0.098776 0.100768 0.908489
Si Si4 0.598805 0.206492 0.054005
Si Si5 0.597929 0.893661 0.153921
Si Si6 0.903721 0.098221 0.794783
Si Si7 0.157590 0.278415 0.753487
O O1 0.119764 0.500000 0.668400
O O2 0.127051 0.362330 0.606941
O O3 0.131094 0.333176 0.705367
O O4 0.000000 0.390265 0.661953
O O5 0.869866 0.640625 0.500000
O O6 0.899436 0.500000 0.553531
O O7 0.000000 0.631462 0.552582
O O8 0.124532 0.189233 0.938133
O O9 0.124876 0.113146 0.851293
O O10 0.000000 0.100861 0.909550
O O11 0.124052 0.000000 0.924933
O O12 0.500000 0.205276 0.054313
O O13 0.623751 0.147930 0.101265
O O14 0.625153 0.173789 0.000000
O O15 0.500000 0.882405 0.158141
O O16 0.637655 0.839530 0.198774
O O17 0.615702 0.000000 0.156464
O O18 0.886570 0.182905 0.760825
O O19 0.000000 0.091935 0.798800
O O20 0.872223 0.000000 0.777874
O O21 0.250000 0.250000 0.751662
#
# Coordination Sequence:
#
# PCOD9489862 Si02
#       7
#    16  16  16  16  16  16  16
#     4   9  17  30  50  75 102 132 163 196 236 283
#     4   7  10  19  39  69 101 128 156 193 235 275
#     4   8  13  23  41  64  88 113 143 181 225 271
#     4   9  16  26  44  72  99 116 140 187 241 289
#     4  10  20  35  54  72  93 123 157 192 234 289
#     4   9  17  31  50  66  83 114 155 195 234 276
#     4  12  23  32  46  68  98 126 158 197 239 282
#
# _framework density 16.919194000000001
#
# number of rings (size 3 to 8) (size 9 to 14) (size 15 to 20)
#    0.000    2.857    1.429    3.857    0.000    2.857 
#    0.000    2.857    0.000    0.857    0.000    0.000 
#    0.000    0.571    0.000    5.286    0.000    0.286 
#
# Total GULP energy -311764.439252 kJ/mol
# GULP energy per Si atom -5567.222130 kJ/mol
# Density = 1.688069 g / cm^3
# Si number density = 16.919194 Si / 1000 Ang^3
#
#
#
# Elastic Constant Matrix: (Units=GPa)
#
#
# Indices 1 2 3 4 5 6 
#
# 1 10.8363 17.3760 21.1591 0.0000 0.0000 0.0000
# 2 17.3760 88.2228 74.6359 0.0000 0.0000 0.0000
# 3 21.1591 74.6359 169.0980 0.0000 0.0000 0.0000
# 4 0.0000 0.0000 0.0000 15.3902 0.0000 0.0000
# 5 0.0000 0.0000 0.0000 0.0000 -4.2397 0.0000
# 6 0.0000 0.0000 0.0000 0.0000 0.0000 -3.4573
#
#
#
# Elastic Compliance Matrix: (Units=1/GPa)
#
#
# Indices 1 2 3 4 5 6 
#
# 1 0.142445 -0.020709 -0.008683 0.000000 0.000000 0.000000
# 2 -0.020709 0.021100 -0.006722 0.000000 0.000000 0.000000
# 3 -0.008683 -0.006722 0.009967 0.000000 0.000000 0.000000
# 4 0.000000 0.000000 0.000000 0.064976 0.000000 0.000000
# 5 0.000000 0.000000 0.000000 0.000000 -0.235864 0.000000
# 6 0.000000 0.000000 0.000000 0.000000 0.000000 -0.289240
#
#
# Mechanical properties :
#
#
# Convention : Reuss Voigt Hill
#
# Bulk Modulus (GPa) = 9.87327 54.94434 32.40881
# Shear Modulus (GPa) = -27.68173 11.87103 -7.90535
#
# Velocity S-wave (km/s) = -4.04928 2.65171 -2.16392
# Velocity P-wave (km/s) = 4.00175 6.47460 3.59906
#
# Compressibility (1/GPa) = 0.10128360
#
# Stress axis : x y z
#
# Youngs Moduli (GPa) = 7.02024 47.39236 100.32922
#
# Poissons Ratio (x) = 0.98146 0.87121
# Poissons Ratio (y) = 0.14538 0.67441
# Poissons Ratio (z) = 0.06096 0.31857
#
# Static dielectric constant tensor:
#      x y z
#    x 1.565220 0.000000 0.000000 
#    y 0.000000 1.546190 0.000000 
#    z 0.000000 0.000000 1.599970 
# 
# From -- ./inp_files/74850.got.cif
#   From: 2010.05.17/outbox.cif.g08.bks.cpg/sg65_38_cif.got.tgz:74850.got - 2010.06.03 17:01:31.
