data_PCOD9489610
_publ_section_title
;
Structure prediction by ZEFSAII (Michael W. Deem and Ramdas Pophale) SiO2 
 PCOD9489610
Probable space group: C M M M
;
_chemical_formula_sum "Si O2"
_cell_formula_units_Z 88
_cell_length_a 15.417337
_cell_length_b 13.968100
_cell_length_c 20.941810
_cell_angle_alpha 90.000000
_cell_angle_beta 90.000000
_cell_angle_gamma 90.000000
_cell_volume 4509.837735
_symmetry_space_group_name_H-M "C M M M"
_symmetry_group_IT_number 65
_symmetry_cell_setting 'orthorhombic'
loop_
_space_group_symop_operation_xyz
x,y,z
-x,-y,z
x,-y,-z
-x,y,-z
-x,-y,-z
x,y,-z
-x,y,z
x,-y,z
1/2+x,1/2+y,z
1/2-x,1/2-y,z
1/2+x,1/2-y,-z
1/2-x,1/2+y,-z
1/2-x,1/2-y,-z
1/2+x,1/2+y,-z
1/2-x,1/2+y,z
1/2+x,1/2-y,z
loop_
_atom_site_type_symbol
_atom_site_label
_atom_site_fract_x
_atom_site_fract_y
_atom_site_fract_z
Si Si1 0.596857 0.109384 0.301126
Si Si2 0.597881 0.384312 0.758909
Si Si3 0.849361 0.781173 0.370971
Si Si4 0.223092 0.383699 0.185116
Si Si5 0.598430 0.883330 0.926699
Si Si6 0.104110 0.110233 0.500000
O O1 0.500000 0.111711 0.272862
O O2 0.600641 0.181671 0.359778
O O3 0.665931 0.139930 0.247653
O O4 0.615755 0.000000 0.319644
O O5 0.500000 0.352145 0.775765
O O6 0.597602 0.500000 0.758412
O O7 0.621052 0.347490 0.688108
O O8 0.677667 0.352873 0.804090
O O9 0.750000 0.750000 0.366165
O O10 0.865986 0.834755 0.436744
O O11 0.224051 0.500000 0.182645
O O12 0.171547 0.350741 0.122657
O O13 0.500000 0.854225 0.908683
O O14 0.598678 0.000000 0.925819
O O15 0.614285 0.854003 0.000000
O O16 0.000000 0.108776 0.500000
O O17 0.134999 0.000000 0.500000
#
# Coordination Sequence:
#
# PCOD9489610 Si02
#       6
#    16  16  16  16  16   8
#     4  10  20  34  54  81 114 149 182 224 283 349
#     4  10  20  35  56  80 109 147 194 245 289 333
#     4  12  23  39  60  85 114 146 184 233 288 337
#     4   9  16  28  47  74 108 146 189 235 286 338
#     4   8  13  22  40  70 109 151 193 238 287 340
#     4  11  25  44  65  87 113 149 194 238 277 328
#
# _framework density 19.512896999999999
#
# number of rings (size 3 to 8) (size 9 to 14) (size 15 to 20)
#    0.000    2.091    1.818    3.545    0.000    4.364 
#    0.000    0.455    0.000    2.182    0.000    6.364 
#    0.000    2.909    0.000    0.364    0.000    0.182 
#
# Total GULP energy -245581.307022 kJ/mol
# GULP energy per Si atom -5581.393341 kJ/mol
# Density = 1.946848 g / cm^3
# Si number density = 19.512897 Si / 1000 Ang^3
#
#
#
# Elastic Constant Matrix: (Units=GPa)
#
#
# Indices 1 2 3 4 5 6 
#
# 1 174.1817 31.1174 80.5499 0.0000 0.0000 0.0000
# 2 31.1174 82.9560 43.6296 0.0000 0.0000 0.0000
# 3 80.5499 43.6296 125.6854 0.0000 0.0000 0.0000
# 4 0.0000 0.0000 0.0000 41.5004 0.0000 0.0000
# 5 0.0000 0.0000 0.0000 0.0000 26.0696 0.0000
# 6 0.0000 0.0000 0.0000 0.0000 0.0000 17.4981
#
#
#
# Elastic Compliance Matrix: (Units=1/GPa)
#
#
# Indices 1 2 3 4 5 6 
#
# 1 0.008169 -0.000380 -0.005104 0.000000 0.000000 0.000000
# 2 -0.000380 0.014765 -0.004882 0.000000 0.000000 0.000000
# 3 -0.005104 -0.004882 0.012922 0.000000 0.000000 0.000000
# 4 0.000000 0.000000 0.000000 0.024096 0.000000 0.000000
# 5 0.000000 0.000000 0.000000 0.000000 0.038359 0.000000
# 6 0.000000 0.000000 0.000000 0.000000 0.000000 0.057149
#
#
# Mechanical properties :
#
#
# Convention : Reuss Voigt Hill
#
# Bulk Modulus (GPa) = 66.11650 77.04635 71.58142
# Shear Modulus (GPa) = 27.58896 32.18203 29.88550
#
# Velocity S-wave (km/s) = 3.76424 4.06553 3.91778
# Velocity P-wave (km/s) = 7.26978 7.84911 7.56500
#
# Compressibility (1/GPa) = 0.01512482
#
# Stress axis : x y z
#
# Youngs Moduli (GPa) = 122.41163 67.72946 77.38908
#
# Poissons Ratio (x) = 0.02575 0.39496
# Poissons Ratio (y) = 0.04654 0.37779
# Poissons Ratio (z) = 0.62473 0.33063
#
# Static dielectric constant tensor:
#      x y z
#    x 1.742970 0.000000 0.000000 
#    y 0.000000 1.710540 0.000000 
#    z 0.000000 0.000000 1.648000 
# 
# From -- ./inp_files/62504.got.cif
#   From: 2010.05.17/outbox.cif.g08.bks.cpg/sg65_32_cif.got.tgz:62504.got - 2010.06.03 17:01:31.
