data_PCOD9489649
_publ_section_title
;
Structure prediction by ZEFSAII (Michael W. Deem and Ramdas Pophale) SiO2 
 PCOD9489649
Probable space group: C M M M
;
_chemical_formula_sum "Si O2"
_cell_formula_units_Z 96
_cell_length_a 8.761591
_cell_length_b 19.226362
_cell_length_c 31.951202
_cell_angle_alpha 90.000000
_cell_angle_beta 90.000000
_cell_angle_gamma 90.000000
_cell_volume 5382.292454
_symmetry_space_group_name_H-M "C M M M"
_symmetry_group_IT_number 65
_symmetry_cell_setting 'orthorhombic'
loop_
_space_group_symop_operation_xyz
x,y,z
-x,-y,z
x,-y,-z
-x,y,-z
-x,-y,-z
x,y,-z
-x,y,z
x,-y,z
1/2+x,1/2+y,z
1/2-x,1/2-y,z
1/2+x,1/2-y,-z
1/2-x,1/2+y,-z
1/2-x,1/2-y,-z
1/2+x,1/2+y,-z
1/2-x,1/2+y,z
1/2+x,1/2-y,z
loop_
_atom_site_type_symbol
_atom_site_label
_atom_site_fract_x
_atom_site_fract_y
_atom_site_fract_z
Si Si1 0.817416 0.672008 0.207023
Si Si2 0.682790 0.172043 0.699899
Si Si3 0.815906 0.174041 0.547696
Si Si4 0.181218 0.172320 0.878240
Si Si5 0.315350 0.419656 0.625379
Si Si6 0.682778 0.082215 0.047830
O O1 0.750000 0.750000 0.207994
O O2 0.780944 0.643646 0.253270
O O3 0.745936 0.640172 0.165169
O O4 0.000000 0.674488 0.202517
O O5 0.500000 0.176660 0.696457
O O6 0.750000 0.250000 0.695919
O O7 0.749126 0.123174 0.664144
O O8 0.769340 0.156582 0.500000
O O9 0.750000 0.250000 0.557958
O O10 0.768341 0.118351 0.582340
O O11 0.000000 0.178178 0.548385
O O12 0.250000 0.250000 0.882482
O O13 0.232200 0.127040 0.917657
O O14 0.000000 0.177544 0.875443
O O15 0.500000 0.417400 0.627400
O O16 0.267688 0.500000 0.626156
O O17 0.500000 0.091964 0.052216
O O18 0.713600 0.000000 0.053036
O O19 0.724124 0.101266 0.000000
#
# Coordination Sequence:
#
# PCOD9489649 Si02
#       6
#    16  16  16  16  16  16
#     4   9  17  31  51  75 102 132 168 210 256 305
#     4  10  20  34  55  79 102 133 172 213 256 304
#     4   9  18  33  53  76 101 131 170 213 255 303
#     4  11  21  33  53  80 109 138 170 212 259 306
#     4  10  21  35  51  74 105 139 173 212 258 304
#     4   9  19  37  58  77 101 136 175 214 258 308
#
# _framework density 17.836265000000001
#
# number of rings (size 3 to 8) (size 9 to 14) (size 15 to 20)
#    0.000    2.333    0.000    4.500    0.000    5.667 
#    0.000    3.333    0.000    1.000    0.000    3.500 
#    0.000    0.000    0.000    0.000    0.000    0.000 
#
# Total GULP energy -267735.132359 kJ/mol
# GULP energy per Si atom -5577.815257 kJ/mol
# Density = 1.779567 g / cm^3
# Si number density = 17.836265 Si / 1000 Ang^3
#
#
#
# Elastic Constant Matrix: (Units=GPa)
#
#
# Indices 1 2 3 4 5 6 
#
# 1 59.6499 41.2116 64.0269 0.0000 0.0000 0.0000
# 2 41.2116 85.9720 96.3517 0.0000 0.0000 0.0000
# 3 64.0269 96.3517 179.5038 0.0000 0.0000 0.0000
# 4 0.0000 0.0000 0.0000 -6.8189 0.0000 0.0000
# 5 0.0000 0.0000 0.0000 0.0000 22.0860 0.0000
# 6 0.0000 0.0000 0.0000 0.0000 0.0000 22.9441
#
#
#
# Elastic Compliance Matrix: (Units=1/GPa)
#
#
# Indices 1 2 3 4 5 6 
#
# 1 0.028213 -0.005637 -0.007037 0.000000 0.000000 0.000000
# 2 -0.005637 0.030320 -0.014264 0.000000 0.000000 0.000000
# 3 -0.007037 -0.014264 0.015738 0.000000 0.000000 0.000000
# 4 0.000000 0.000000 0.000000 -0.146650 0.000000 0.000000
# 5 0.000000 0.000000 0.000000 0.000000 0.045278 0.000000
# 6 0.000000 0.000000 0.000000 0.000000 0.000000 0.043584
#
#
# Mechanical properties :
#
#
# Convention : Reuss Voigt Hill
#
# Bulk Modulus (GPa) = 49.03554 80.92290 64.97922
# Shear Modulus (GPa) = 64.80236 15.87793 40.34014
#
# Velocity S-wave (km/s) = 6.03413 2.98687 4.76088
# Velocity P-wave (km/s) = 8.72349 7.57387 8.16893
#
# Compressibility (1/GPa) = 0.02039337
#
# Stress axis : x y z
#
# Youngs Moduli (GPa) = 35.44477 32.98110 63.54178
#
# Poissons Ratio (x) = 0.18592 0.44717
# Poissons Ratio (y) = 0.19981 0.90638
# Poissons Ratio (z) = 0.24944 0.47045
#
# Static dielectric constant tensor:
#      x y z
#    x 1.597650 0.000000 0.000000 
#    y 0.000000 1.558270 0.000000 
#    z 0.000000 0.000000 1.638180 
# 
# From -- ./inp_files/73146.got.cif
#   From: 2010.05.17/outbox.cif.g08.bks.cpg/sg65_37_cif.got.tgz:73146.got - 2010.06.03 17:01:31.
