data_PCOD9489213
_publ_section_title
;
Structure prediction by ZEFSAII (Michael W. Deem and Ramdas Pophale) SiO2 
 PCOD9489213
Probable space group: C M M M
;
_chemical_formula_sum "Si O2"
_cell_formula_units_Z 88
_cell_length_a 12.228092
_cell_length_b 16.545391
_cell_length_c 23.314226
_cell_angle_alpha 90.000000
_cell_angle_beta 90.000000
_cell_angle_gamma 90.000000
_cell_volume 4716.900709
_symmetry_space_group_name_H-M "C M M M"
_symmetry_group_IT_number 65
_symmetry_cell_setting 'orthorhombic'
loop_
_space_group_symop_operation_xyz
x,y,z
-x,-y,z
x,-y,-z
-x,y,-z
-x,-y,-z
x,y,-z
-x,y,z
x,-y,z
1/2+x,1/2+y,z
1/2-x,1/2-y,z
1/2+x,1/2-y,-z
1/2-x,1/2+y,-z
1/2-x,1/2-y,-z
1/2+x,1/2+y,-z
1/2-x,1/2+y,z
1/2+x,1/2-y,z
loop_
_atom_site_type_symbol
_atom_site_label
_atom_site_fract_x
_atom_site_fract_y
_atom_site_fract_z
Si Si1 0.626685 0.402633 0.934794
Si Si2 0.000000 0.905327 0.628114
Si Si3 0.500000 0.405482 0.765894
Si Si4 0.125236 0.401407 0.500000
Si Si5 0.723523 0.656322 0.820511
Si Si6 0.241316 0.099337 0.612530
Si Si7 0.876320 0.403426 0.723626
O O1 0.500000 0.378327 0.922860
O O2 0.628679 0.500000 0.933037
O O3 0.706569 0.370584 0.886012
O O4 0.653125 0.377585 0.000000
O O5 0.000000 0.903105 0.697198
O O6 0.116360 0.871067 0.608439
O O7 0.000000 0.000000 0.610530
O O8 0.500000 0.500000 0.783761
O O9 0.390909 0.365061 0.789804
O O10 0.123760 0.500000 0.500000
O O11 0.188591 0.376935 0.557385
O O12 0.000000 0.373976 0.500000
O O13 0.750000 0.750000 0.818139
O O14 0.817732 0.613294 0.783783
O O15 0.300702 0.126485 0.671106
O O16 0.237522 0.000000 0.614550
O O17 0.882808 0.500000 0.716513
O O18 0.000000 0.370651 0.721009
#
# Coordination Sequence:
#
# PCOD9489213 Si02
#       7
#    16   8   8   8  16  16  16
#     4   9  18  35  61  88 111 145 197 242 278 338
#     4   9  16  27  48  74 100 134 189 239 284 336
#     4  11  20  38  62  82 111 158 203 237 288 356
#     4   9  16  25  39  63 102 144 180 225 294 360
#     4  12  24  34  56  85 120 146 185 240 298 338
#     4   9  16  27  44  70 100 137 182 236 289 342
#     4  10  20  34  52  74 106 147 189 227 276 352
#
# _framework density 18.656317999999999
#
# number of rings (size 3 to 8) (size 9 to 14) (size 15 to 20)
#    0.000    2.091    2.727    2.727    1.273    2.909 
#    0.000    1.818    0.000    0.545    0.000    3.182 
#    0.000    0.000    0.000    0.000    0.000    0.000 
#
# Total GULP energy -245491.021728 kJ/mol
# GULP energy per Si atom -5579.341403 kJ/mol
# Density = 1.861385 g / cm^3
# Si number density = 18.656318 Si / 1000 Ang^3
#
#
#
# Elastic Constant Matrix: (Units=GPa)
#
#
# Indices 1 2 3 4 5 6 
#
# 1 175.8679 21.8665 80.4606 0.0000 0.0000 0.0000
# 2 21.8665 26.2000 10.9253 0.0000 0.0000 0.0000
# 3 80.4606 10.9253 117.9979 0.0000 0.0000 0.0000
# 4 0.0000 0.0000 0.0000 -15.9799 0.0000 0.0000
# 5 0.0000 0.0000 0.0000 0.0000 32.3840 0.0000
# 6 0.0000 0.0000 0.0000 0.0000 0.0000 8.5559
#
#
#
# Elastic Compliance Matrix: (Units=1/GPa)
#
#
# Indices 1 2 3 4 5 6 
#
# 1 0.008869 -0.005076 -0.005578 0.000000 0.000000 0.000000
# 2 -0.005076 0.042606 -0.000483 0.000000 0.000000 0.000000
# 3 -0.005578 -0.000483 0.012323 0.000000 0.000000 0.000000
# 4 0.000000 0.000000 0.000000 -0.062579 0.000000 0.000000
# 5 0.000000 0.000000 0.000000 0.000000 0.030879 0.000000
# 6 0.000000 0.000000 0.000000 0.000000 0.000000 0.116878
#
#
# Mechanical properties :
#
#
# Convention : Reuss Voigt Hill
#
# Bulk Modulus (GPa) = 24.08286 60.73008 42.40647
# Shear Modulus (GPa) = 27.01350 18.77956 22.89653
#
# Velocity S-wave (km/s) = 3.80933 3.17615 3.50706
# Velocity P-wave (km/s) = 5.68196 6.78773 6.25931
#
# Compressibility (1/GPa) = 0.04152330
#
# Stress axis : x y z
#
# Youngs Moduli (GPa) = 112.75174 23.47079 81.15052
#
# Poissons Ratio (x) = 0.11914 0.45263
# Poissons Ratio (y) = 0.57236 0.03923
# Poissons Ratio (z) = 0.62889 0.01135
#
# Static dielectric constant tensor:
#      x y z
#    x 1.641090 0.000000 0.000000 
#    y 0.000000 1.614900 0.000000 
#    z 0.000000 0.000000 1.642270 
# 
# From -- ./inp_files/68967.got.cif
#   From: 2010.05.17/outbox.cif.g08.bks.cpg/sg65_35_cif.got.tgz:68967.got - 2010.06.03 17:01:31.
