data_PCOD9489865
_publ_section_title
;
Structure prediction by ZEFSAII (Michael W. Deem and Ramdas Pophale) SiO2 
 PCOD9489865
Probable space group: C M M M
;
_chemical_formula_sum "Si O2"
_cell_formula_units_Z 88
_cell_length_a 27.996651
_cell_length_b 8.661227
_cell_length_c 22.153071
_cell_angle_alpha 90.000000
_cell_angle_beta 90.000000
_cell_angle_gamma 90.000000
_cell_volume 5371.795165
_symmetry_space_group_name_H-M "C M M M"
_symmetry_group_IT_number 65
_symmetry_cell_setting 'orthorhombic'
loop_
_space_group_symop_operation_xyz
x,y,z
-x,-y,z
x,-y,-z
-x,y,-z
-x,-y,-z
x,y,-z
-x,y,z
x,-y,z
1/2+x,1/2+y,z
1/2-x,1/2-y,z
1/2+x,1/2-y,-z
1/2-x,1/2+y,-z
1/2-x,1/2-y,-z
1/2+x,1/2+y,-z
1/2-x,1/2+y,z
1/2+x,1/2-y,z
loop_
_atom_site_type_symbol
_atom_site_label
_atom_site_fract_x
_atom_site_fract_y
_atom_site_fract_z
Si Si1 0.602762 0.312574 0.749700
Si Si2 0.054325 0.186672 0.624787
Si Si3 0.444201 0.313668 0.873187
Si Si4 0.148816 0.315250 0.431741
Si Si5 0.698416 0.315147 0.314724
Si Si6 0.557147 0.182539 0.000000
O O1 0.602851 0.500000 0.751971
O O2 0.567916 0.271709 0.694000
O O3 0.584317 0.257959 0.814365
O O4 0.655796 0.263211 0.730012
O O5 0.094911 0.261486 0.583517
O O6 0.000000 0.231143 0.610766
O O7 0.058051 0.000000 0.619904
O O8 0.500000 0.267662 0.866900
O O9 0.443018 0.500000 0.874492
O O10 0.425000 0.252948 0.937125
O O11 0.161285 0.269495 0.500000
O O12 0.151684 0.500000 0.426830
O O13 0.182380 0.240475 0.381120
O O14 0.699654 0.500000 0.314394
O O15 0.750000 0.250000 0.299026
O O16 0.500000 0.214890 0.000000
O O17 0.564146 0.000000 0.000000
#
# Coordination Sequence:
#
# PCOD9489865 Si02
#       6
#    16  16  16  16  16   8
#     4   8  15  28  47  70  92 116 150 190 227 267
#     4   9  17  30  48  69  94 124 156 190 229 273
#     4   9  15  25  44  67  91 122 158 188 214 252
#     4  10  21  35  49  67  92 121 154 191 230 274
#     4  10  20  35  54  73  93 116 145 186 236 285
#     4   9  17  27  37  57  94 131 158 185 218 255
#
# _framework density 16.381861000000001
#
# number of rings (size 3 to 8) (size 9 to 14) (size 15 to 20)
#    0.000    2.818    0.000    3.000    0.000    5.818 
#    0.000    6.364    0.000    4.364    0.000    0.636 
#    0.000    0.000    0.000    0.000    0.000    0.000 
#
# Total GULP energy -245230.319376 kJ/mol
# GULP energy per Si atom -5573.416349 kJ/mol
# Density = 1.634458 g / cm^3
# Si number density = 16.381861 Si / 1000 Ang^3
#
#
#
# Elastic Constant Matrix: (Units=GPa)
#
#
# Indices 1 2 3 4 5 6 
#
# 1 60.9102 5.4279 20.6373 0.0000 0.0000 0.0000
# 2 5.4279 5.9375 14.7532 0.0000 0.0000 0.0000
# 3 20.6373 14.7532 111.4534 0.0000 0.0000 0.0000
# 4 0.0000 0.0000 0.0000 1.2952 0.0000 0.0000
# 5 0.0000 0.0000 0.0000 0.0000 10.4002 0.0000
# 6 0.0000 0.0000 0.0000 0.0000 0.0000 23.2699
#
#
#
# Elastic Compliance Matrix: (Units=1/GPa)
#
#
# Indices 1 2 3 4 5 6 
#
# 1 0.018095 -0.012243 -0.001730 0.000000 0.000000 0.000000
# 2 -0.012243 0.259253 -0.032051 0.000000 0.000000 0.000000
# 3 -0.001730 -0.032051 0.013535 0.000000 0.000000 0.000000
# 4 0.000000 0.000000 0.000000 0.772101 0.000000 0.000000
# 5 0.000000 0.000000 0.000000 0.000000 0.096152 0.000000
# 6 0.000000 0.000000 0.000000 0.000000 0.000000 0.042974
#
#
# Mechanical properties :
#
#
# Convention : Reuss Voigt Hill
#
# Bulk Modulus (GPa) = 5.02929 28.88197 16.95563
# Shear Modulus (GPa) = 3.67529 16.15858 9.91694
#
# Velocity S-wave (km/s) = 1.49946 3.14406 2.46308
# Velocity P-wave (km/s) = 2.46466 5.55418 4.29671
#
# Compressibility (1/GPa) = 0.19883526
#
# Stress axis : x y z
#
# Youngs Moduli (GPa) = 55.26462 3.85724 73.88119
#
# Poissons Ratio (x) = 0.04723 0.12780
# Poissons Ratio (y) = 0.67663 2.36794
# Poissons Ratio (z) = 0.09560 0.12363
#
# Static dielectric constant tensor:
#      x y z
#    x 1.540130 0.000000 0.000000 
#    y 0.000000 1.554730 0.000000 
#    z 0.000000 0.000000 1.554840 
# 
# From -- ./inp_files/60688.got.cif
#   From: 2010.05.17/outbox.cif.g08.bks.cpg/sg65_31_cif.got.tgz:60688.got - 2010.06.03 17:01:31.
