data_PCOD9489294
_publ_section_title
;
Structure prediction by ZEFSAII (Michael W. Deem and Ramdas Pophale) SiO2 
 PCOD9489294
Probable space group: C M M M
;
_chemical_formula_sum "Si O2"
_cell_formula_units_Z 96
_cell_length_a 15.015604
_cell_length_b 15.081367
_cell_length_c 21.384693
_cell_angle_alpha 90.000000
_cell_angle_beta 90.000000
_cell_angle_gamma 90.000000
_cell_volume 4842.688502
_symmetry_space_group_name_H-M "C M M M"
_symmetry_group_IT_number 65
_symmetry_cell_setting 'orthorhombic'
loop_
_space_group_symop_operation_xyz
x,y,z
-x,-y,z
x,-y,-z
-x,y,-z
-x,-y,-z
x,y,-z
-x,y,z
x,-y,z
1/2+x,1/2+y,z
1/2-x,1/2-y,z
1/2+x,1/2-y,-z
1/2-x,1/2+y,-z
1/2-x,1/2-y,-z
1/2+x,1/2+y,-z
1/2-x,1/2+y,z
1/2+x,1/2-y,z
loop_
_atom_site_type_symbol
_atom_site_label
_atom_site_fract_x
_atom_site_fract_y
_atom_site_fract_z
Si Si1 0.852289 0.777187 0.068406
Si Si2 0.391523 0.397382 0.570129
Si Si3 0.395839 0.094960 0.873885
Si Si4 0.607855 0.398131 0.187321
Si Si5 0.609263 0.711936 0.689868
Si Si6 0.109181 0.401188 0.268034
O O1 0.750000 0.750000 0.066336
O O2 0.891992 0.681404 0.084364
O O3 0.867739 0.846306 0.123992
O O4 0.881300 0.809883 0.000000
O O5 0.363080 0.371233 0.500000
O O6 0.500000 0.395470 0.570426
O O7 0.366168 0.500000 0.580760
O O8 0.361017 0.335948 0.626680
O O9 0.500000 0.083892 0.863135
O O10 0.358894 0.110236 0.804010
O O11 0.360607 0.000000 0.898748
O O12 0.500000 0.400056 0.189582
O O13 0.639538 0.500000 0.188209
O O14 0.637246 0.342923 0.248406
O O15 0.500000 0.711159 0.690278
O O16 0.638305 0.814081 0.695068
O O17 0.136242 0.500000 0.289063
O O18 0.000000 0.400119 0.268910
#
# Coordination Sequence:
#
# PCOD9489294 Si02
#       6
#    16  16  16  16  16  16
#     4  11  24  38  50  67  96 131 160 190 238 299
#     4   8  13  20  31  53  88 126 158 186 224 279
#     4   9  17  32  54  75  91 111 150 203 248 281
#     4  10  20  34  53  75  96 123 163 205 242 285
#     4   9  14  23  42  65  90 120 154 193 235 280
#     4   8  13  22  40  65  87 107 138 187 241 280
#
# _framework density 19.823699000000001
#
# number of rings (size 3 to 8) (size 9 to 14) (size 15 to 20)
#    0.000    2.833    1.667    2.500    0.000    4.667 
#    0.000    3.333    0.000    0.500    0.000    3.500 
#    0.000    0.667    0.000    0.000    0.000    0.000 
#
# Total GULP energy -267482.878621 kJ/mol
# GULP energy per Si atom -5572.559971 kJ/mol
# Density = 1.977858 g / cm^3
# Si number density = 19.823699 Si / 1000 Ang^3
#
#
#
# Elastic Constant Matrix: (Units=GPa)
#
#
# Indices 1 2 3 4 5 6 
#
# 1 16.3485 8.3189 7.8589 0.0000 0.0000 0.0000
# 2 8.3189 168.0440 107.5512 0.0000 0.0000 0.0000
# 3 7.8589 107.5512 159.4642 0.0000 0.0000 0.0000
# 4 0.0000 0.0000 0.0000 30.6602 0.0000 0.0000
# 5 0.0000 0.0000 0.0000 0.0000 -37.5359 0.0000
# 6 0.0000 0.0000 0.0000 0.0000 0.0000 -13.3581
#
#
#
# Elastic Compliance Matrix: (Units=1/GPa)
#
#
# Indices 1 2 3 4 5 6 
#
# 1 0.063029 -0.001992 -0.001763 0.000000 0.000000 0.000000
# 2 -0.001992 0.010534 -0.007006 0.000000 0.000000 0.000000
# 3 -0.001763 -0.007006 0.011083 0.000000 0.000000 0.000000
# 4 0.000000 0.000000 0.000000 0.032616 0.000000 0.000000
# 5 0.000000 0.000000 0.000000 0.000000 -0.026641 0.000000
# 6 0.000000 0.000000 0.000000 0.000000 0.000000 -0.074861
#
#
# Mechanical properties :
#
#
# Convention : Reuss Voigt Hill
#
# Bulk Modulus (GPa) = 15.84193 65.70167 40.77180
# Shear Modulus (GPa) = 85.73054 10.62842 48.17948
#
# Velocity S-wave (km/s) = 6.58334 2.31800 4.93526
# Velocity P-wave (km/s) = 8.11147 6.35445 7.28612
#
# Compressibility (1/GPa) = 0.06312362
#
# Stress axis : x y z
#
# Youngs Moduli (GPa) = 15.86576 94.93489 90.22637
#
# Poissons Ratio (x) = 0.18911 0.15905
# Poissons Ratio (y) = 0.03161 0.63214
# Poissons Ratio (z) = 0.02797 0.66513
#
# Static dielectric constant tensor:
#      x y z
#    x 1.703310 0.000000 0.000000 
#    y 0.000000 1.673980 0.000000 
#    z 0.000000 0.000000 1.693340 
# 
# From -- ./inp_files/62644.got.cif
#   From: 2010.05.17/outbox.cif.g08.bks.cpg/sg65_32_cif.got.tgz:62644.got - 2010.06.03 17:01:31.
