data_PCOD9489815
_publ_section_title
;
Structure prediction by ZEFSAII (Michael W. Deem and Ramdas Pophale) SiO2 
 PCOD9489815
Probable space group: C M M M
;
_chemical_formula_sum "Si O2"
_cell_formula_units_Z 80
_cell_length_a 8.569752
_cell_length_b 23.061803
_cell_length_c 22.443377
_cell_angle_alpha 90.000000
_cell_angle_beta 90.000000
_cell_angle_gamma 90.000000
_cell_volume 4435.572852
_symmetry_space_group_name_H-M "C M M M"
_symmetry_group_IT_number 65
_symmetry_cell_setting 'orthorhombic'
loop_
_space_group_symop_operation_xyz
x,y,z
-x,-y,z
x,-y,-z
-x,y,-z
-x,-y,-z
x,y,-z
-x,y,z
x,-y,z
1/2+x,1/2+y,z
1/2-x,1/2-y,z
1/2+x,1/2-y,-z
1/2-x,1/2+y,-z
1/2-x,1/2-y,-z
1/2+x,1/2+y,-z
1/2-x,1/2+y,z
1/2+x,1/2-y,z
loop_
_atom_site_type_symbol
_atom_site_label
_atom_site_fract_x
_atom_site_fract_y
_atom_site_fract_z
Si Si1 0.687040 0.621706 0.116672
Si Si2 0.314194 0.185784 0.000000
Si Si3 0.186327 0.687316 0.772381
Si Si4 0.189263 0.434708 0.429792
Si Si5 0.810209 0.000000 0.068310
Si Si6 0.188785 0.314435 0.633889
O O1 0.500000 0.625732 0.115963
O O2 0.751362 0.656865 0.060306
O O3 0.748183 0.642880 0.179884
O O4 0.738082 0.556583 0.103216
O O5 0.250000 0.250000 0.000000
O O6 0.500000 0.184087 0.000000
O O7 0.250000 0.750000 0.790746
O O8 0.233356 0.678251 0.703556
O O9 0.000000 0.687277 0.774568
O O10 0.226971 0.431518 0.500000
O O11 0.240906 0.500000 0.408643
O O12 0.241434 0.373936 0.399295
O O13 0.000000 0.434959 0.424362
O O14 0.000000 0.000000 0.065419
O O15 0.754392 0.000000 0.000000
O O16 0.250000 0.250000 0.614654
O O17 0.000000 0.311931 0.629479
#
# Coordination Sequence:
#
# PCOD9489815 Si02
#       6
#    16   8  16  16   8  16
#     4  11  21  37  58  77 100 133 170 208 249 304
#     4  12  24  37  54  79 105 130 164 208 257 306
#     4  10  20  35  52  75 104 136 170 210 260 308
#     4   8  14  27  49  76 105 139 179 219 260 309
#     4   9  18  36  58  76  98 130 163 196 249 309
#     4   9  18  32  51  76 106 139 174 216 264 312
#
# _framework density 18.036002
#
# number of rings (size 3 to 8) (size 9 to 14) (size 15 to 20)
#    0.000    2.300    1.000    3.300    0.000    1.200 
#    1.800    2.500    0.000    0.600    0.000    1.400 
#    0.000    0.000    0.000    0.000    0.000    0.000 
#
# Total GULP energy -222888.940207 kJ/mol
# GULP energy per Si atom -5572.223505 kJ/mol
# Density = 1.799495 g / cm^3
# Si number density = 18.036002 Si / 1000 Ang^3
#
#
#
# Elastic Constant Matrix: (Units=GPa)
#
#
# Indices 1 2 3 4 5 6 
#
# 1 31.9049 26.1184 18.1183 0.0000 0.0000 0.0000
# 2 26.1184 204.7376 84.6513 0.0000 0.0000 0.0000
# 3 18.1183 84.6513 75.0168 0.0000 0.0000 0.0000
# 4 0.0000 0.0000 0.0000 43.8414 0.0000 0.0000
# 5 0.0000 0.0000 0.0000 0.0000 33.6657 0.0000
# 6 0.0000 0.0000 0.0000 0.0000 0.0000 18.8717
#
#
#
# Elastic Compliance Matrix: (Units=1/GPa)
#
#
# Indices 1 2 3 4 5 6 
#
# 1 0.036719 -0.001907 -0.006716 0.000000 0.000000 0.000000
# 2 -0.001907 0.009255 -0.009983 0.000000 0.000000 0.000000
# 3 -0.006716 -0.009983 0.026218 0.000000 0.000000 0.000000
# 4 0.000000 0.000000 0.000000 0.022809 0.000000 0.000000
# 5 0.000000 0.000000 0.000000 0.000000 0.029704 0.000000
# 6 0.000000 0.000000 0.000000 0.000000 0.000000 0.052989
#
#
# Mechanical properties :
#
#
# Convention : Reuss Voigt Hill
#
# Bulk Modulus (GPa) = 28.58914 63.27060 45.92987
# Shear Modulus (GPa) = 22.06847 31.46051 26.76449
#
# Velocity S-wave (km/s) = 3.50176 4.18103 3.85638
# Velocity P-wave (km/s) = 5.67762 7.64620 6.73423
#
# Compressibility (1/GPa) = 0.03497832
#
# Stress axis : x y z
#
# Youngs Moduli (GPa) = 27.23419 108.04521 38.14174
#
# Poissons Ratio (x) = 0.20608 0.25616
# Poissons Ratio (y) = 0.05195 0.38078
# Poissons Ratio (z) = 0.18291 1.07866
#
# Static dielectric constant tensor:
#      x y z
#    x 1.614590 0.000000 0.000000 
#    y 0.000000 1.646680 0.000000 
#    z 0.000000 0.000000 1.599010 
# 
# From -- ./inp_files/67343.got.cif
#   From: 2010.05.17/outbox.cif.g08.bks.cpg/sg65_34_cif.got.tgz:67343.got - 2010.06.03 17:01:31.
