data_PCOD9489463
_publ_section_title
;
Structure prediction by ZEFSAII (Michael W. Deem and Ramdas Pophale) SiO2 
 PCOD9489463
Probable space group: C M M M
;
_chemical_formula_sum "Si O2"
_cell_formula_units_Z 80
_cell_length_a 27.326854
_cell_length_b 8.759781
_cell_length_c 15.220651
_cell_angle_alpha 90.000000
_cell_angle_beta 90.000000
_cell_angle_gamma 90.000000
_cell_volume 3643.477678
_symmetry_space_group_name_H-M "C M M M"
_symmetry_group_IT_number 65
_symmetry_cell_setting 'orthorhombic'
loop_
_space_group_symop_operation_xyz
x,y,z
-x,-y,z
x,-y,-z
-x,y,-z
-x,-y,-z
x,y,-z
-x,y,z
x,-y,z
1/2+x,1/2+y,z
1/2-x,1/2-y,z
1/2+x,1/2-y,-z
1/2-x,1/2+y,-z
1/2-x,1/2-y,-z
1/2+x,1/2+y,-z
1/2-x,1/2+y,z
1/2+x,1/2-y,z
loop_
_atom_site_type_symbol
_atom_site_label
_atom_site_fract_x
_atom_site_fract_y
_atom_site_fract_z
Si Si1 0.100165 0.829673 0.395114
Si Si2 0.908502 0.828400 0.899475
Si Si3 0.702859 0.676599 0.144755
Si Si4 0.500000 0.175080 0.392175
Si Si5 0.300237 0.820162 0.662743
Si Si6 0.558284 0.000000 0.102779
O O1 0.094441 0.839909 0.500000
O O2 0.149280 0.736717 0.378309
O O3 0.049823 0.755754 0.362081
O O4 0.106484 0.000000 0.358512
O O5 0.849535 0.818571 0.900949
O O6 0.925203 0.665380 0.858920
O O7 0.920454 0.000000 0.862591
O O8 0.927435 0.829303 0.000000
O O9 0.713929 0.500000 0.163366
O O10 0.750000 0.750000 0.099077
O O11 0.697376 0.765482 0.236408
O O12 0.500000 0.176704 0.500000
O O13 0.500000 0.000000 0.364033
O O14 0.250000 0.750000 0.624643
O O15 0.296931 0.000000 0.656608
O O16 0.500000 0.000000 0.103286
O O17 0.575785 0.000000 0.000000
#
# Coordination Sequence:
#
# PCOD9489463 Si02
#       6
#    16  16  16   8  16   8
#     4  10  20  35  56  80 107 139 175 218 265 314
#     4   9  19  34  53  80 111 141 178 225 271 319
#     4  10  20  34  54  77 105 142 178 214 263 320
#     4   9  17  31  53  81 109 137 172 211 260 317
#     4  11  22  36  55  77 105 141 180 219 265 321
#     4   9  18  32  54  80 106 142 181 221 272 322
#
# _framework density 21.957045000000001
#
# number of rings (size 3 to 8) (size 9 to 14) (size 15 to 20)
#    0.000    2.200    0.000    4.500    2.800    3.600 
#    0.000    2.000    2.200    0.000    0.000    0.000 
#    0.000    0.000    0.000    0.000    0.000    0.000 
#
# Total GULP energy -223189.466921 kJ/mol
# GULP energy per Si atom -5579.736673 kJ/mol
# Density = 2.190707 g / cm^3
# Si number density = 21.957045 Si / 1000 Ang^3
#
#
#
# Elastic Constant Matrix: (Units=GPa)
#
#
# Indices 1 2 3 4 5 6 
#
# 1 141.0343 98.5132 7.7540 0.0000 0.0000 0.0000
# 2 98.5132 258.7243 10.2598 0.0000 0.0000 0.0000
# 3 7.7540 10.2598 23.6547 0.0000 0.0000 0.0000
# 4 0.0000 0.0000 0.0000 -13.3754 0.0000 0.0000
# 5 0.0000 0.0000 0.0000 0.0000 20.9129 0.0000
# 6 0.0000 0.0000 0.0000 0.0000 0.0000 35.9214
#
#
#
# Elastic Compliance Matrix: (Units=1/GPa)
#
#
# Indices 1 2 3 4 5 6 
#
# 1 0.009719 -0.003637 -0.001609 0.000000 0.000000 0.000000
# 2 -0.003637 0.005294 -0.001104 0.000000 0.000000 0.000000
# 3 -0.001609 -0.001104 0.043281 0.000000 0.000000 0.000000
# 4 0.000000 0.000000 0.000000 -0.074764 0.000000 0.000000
# 5 0.000000 0.000000 0.000000 0.000000 0.047817 0.000000
# 6 0.000000 0.000000 0.000000 0.000000 0.000000 0.027839
#
#
# Mechanical properties :
#
#
# Convention : Reuss Voigt Hill
#
# Bulk Modulus (GPa) = 21.93210 72.94081 47.43645
# Shear Modulus (GPa) = 57.41638 29.15085 43.28361
#
# Velocity S-wave (km/s) = 5.11920 3.64762 4.44473
# Velocity P-wave (km/s) = 6.70462 7.14367 6.92762
#
# Compressibility (1/GPa) = 0.04559527
#
# Stress axis : x y z
#
# Youngs Moduli (GPa) = 102.88713 188.90228 23.10487
#
# Poissons Ratio (x) = 0.68704 0.03716
# Poissons Ratio (y) = 0.37420 0.02550
# Poissons Ratio (z) = 0.16550 0.20852
#
# Static dielectric constant tensor:
#      x y z
#    x 1.775750 0.000000 0.000000 
#    y 0.000000 1.812680 0.000000 
#    z 0.000000 0.000000 1.834890 
# 
# From -- ./inp_files/57290.got.cif
#   From: 2010.05.17/outbox.cif.g08.bks.cpg/sg65_29_cif.got.tgz:57290.got - 2010.06.03 17:01:31.
