data_PCOD9489407
_publ_section_title
;
Structure prediction by ZEFSAII (Michael W. Deem and Ramdas Pophale) SiO2 
 PCOD9489407
Probable space group: C M M M
;
_chemical_formula_sum "Si O2"
_cell_formula_units_Z 104
_cell_length_a 29.132411
_cell_length_b 8.782608
_cell_length_c 23.693444
_cell_angle_alpha 90.000000
_cell_angle_beta 90.000000
_cell_angle_gamma 90.000000
_cell_volume 6062.170129
_symmetry_space_group_name_H-M "C M M M"
_symmetry_group_IT_number 65
_symmetry_cell_setting 'orthorhombic'
loop_
_space_group_symop_operation_xyz
x,y,z
-x,-y,z
x,-y,-z
-x,y,-z
-x,-y,-z
x,y,-z
-x,y,z
x,-y,z
1/2+x,1/2+y,z
1/2-x,1/2-y,z
1/2+x,1/2-y,-z
1/2-x,1/2+y,-z
1/2-x,1/2-y,-z
1/2+x,1/2+y,-z
1/2-x,1/2+y,z
1/2+x,1/2-y,z
loop_
_atom_site_type_symbol
_atom_site_label
_atom_site_fract_x
_atom_site_fract_y
_atom_site_fract_z
Si Si1 0.552128 0.181984 0.654100
Si Si2 0.641560 0.817179 0.828500
Si Si3 0.198941 0.183081 0.724234
Si Si4 0.300976 0.683899 0.500000
Si Si5 0.800127 0.316500 0.064136
Si Si6 0.857285 0.816799 0.610969
Si Si7 0.947330 0.181533 0.220595
O O1 0.500000 0.221106 0.636067
O O2 0.592446 0.244409 0.614977
O O3 0.559125 0.253603 0.716221
O O4 0.555357 0.000000 0.658603
O O5 0.672281 0.749042 0.778081
O O6 0.663750 0.770723 0.888145
O O7 0.590346 0.756491 0.819234
O O8 0.642085 0.000000 0.824578
O O9 0.250000 0.250000 0.721803
O O10 0.171005 0.224081 0.667476
O O11 0.200829 0.000000 0.728076
O O12 0.297927 0.500000 0.500000
O O13 0.250000 0.750000 0.500000
O O14 0.328815 0.730374 0.444080
O O15 0.797002 0.500000 0.065043
O O16 0.750000 0.250000 0.077502
O O17 0.812078 0.269642 0.000000
O O18 0.861937 0.000000 0.610167
O O19 0.000000 0.213587 0.204074
O O20 0.940687 0.000000 0.222409
#
# Coordination Sequence:
#
# PCOD9489407 Si02
#       7
#    16  16  16   8  16  16  16
#     4  10  20  34  55  82 109 138 175 218 266 322
#     4  11  21  33  53  80 108 139 176 220 267 316
#     4  11  22  34  50  75 107 140 174 217 269 318
#     4  10  22  40  59  80 105 141 188 223 261 316
#     4   9  19  35  53  75 105 142 182 220 260 309
#     4  10  21  37  56  78 106 142 180 221 265 318
#     4  10  20  34  53  78 109 142 175 215 266 322
#
# _framework density 17.155571999999999
#
# number of rings (size 3 to 8) (size 9 to 14) (size 15 to 20)
#    0.000    1.846    1.538    2.769    0.000    5.538 
#    0.000    0.385    0.000    2.769    0.000    3.231 
#    0.000    0.000    0.000    0.000    0.000    0.000 
#
# Total GULP energy -290378.904319 kJ/mol
# GULP energy per Si atom -5584.209698 kJ/mol
# Density = 1.711652 g / cm^3
# Si number density = 17.155572 Si / 1000 Ang^3
#
#
#
# Elastic Constant Matrix: (Units=GPa)
#
#
# Indices 1 2 3 4 5 6 
#
# 1 165.7691 51.1540 92.7618 0.0000 0.0000 0.0000
# 2 51.1540 36.9979 40.0759 0.0000 0.0000 0.0000
# 3 92.7618 40.0759 118.7547 0.0000 0.0000 0.0000
# 4 0.0000 0.0000 0.0000 20.9804 0.0000 0.0000
# 5 0.0000 0.0000 0.0000 0.0000 31.8097 0.0000
# 6 0.0000 0.0000 0.0000 0.0000 0.0000 35.3363
#
#
#
# Elastic Compliance Matrix: (Units=1/GPa)
#
#
# Indices 1 2 3 4 5 6 
#
# 1 0.013068 -0.011050 -0.006478 0.000000 0.000000 0.000000
# 2 -0.011050 0.051945 -0.008898 0.000000 0.000000 0.000000
# 3 -0.006478 -0.008898 0.016484 0.000000 0.000000 0.000000
# 4 0.000000 0.000000 0.000000 0.047664 0.000000 0.000000
# 5 0.000000 0.000000 0.000000 0.000000 0.031437 0.000000
# 6 0.000000 0.000000 0.000000 0.000000 0.000000 0.028300
#
#
# Mechanical properties :
#
#
# Convention : Reuss Voigt Hill
#
# Bulk Modulus (GPa) = 34.91224 76.61168 55.76196
# Shear Modulus (GPa) = 19.89666 26.79394 23.34530
#
# Velocity S-wave (km/s) = 3.40925 3.95628 3.69290
# Velocity P-wave (km/s) = 5.99098 8.10083 7.12444
#
# Compressibility (1/GPa) = 0.02864325
#
# Stress axis : x y z
#
# Youngs Moduli (GPa) = 76.52533 19.25096 60.66518
#
# Poissons Ratio (x) = 0.21273 0.39300
# Poissons Ratio (y) = 0.84563 0.53982
# Poissons Ratio (z) = 0.49575 0.17130
#
# Static dielectric constant tensor:
#      x y z
#    x 1.572410 0.000000 0.000000 
#    y 0.000000 1.576020 0.000000 
#    z 0.000000 0.000000 1.566390 
# 
# From -- ./inp_files/65926.got.cif
#   From: 2010.05.17/outbox.cif.g08.bks.cpg/sg65_33_cif.got.tgz:65926.got - 2010.06.03 17:01:31.
