data_PCOD9489244
_publ_section_title
;
Structure prediction by ZEFSAII (Michael W. Deem and Ramdas Pophale) SiO2 
 PCOD9489244
Probable space group: C M M M
;
_chemical_formula_sum "Si O2"
_cell_formula_units_Z 104
_cell_length_a 18.672031
_cell_length_b 32.378306
_cell_length_c 7.316504
_cell_angle_alpha 90.000000
_cell_angle_beta 90.000000
_cell_angle_gamma 90.000000
_cell_volume 4423.329556
_symmetry_space_group_name_H-M "C M M M"
_symmetry_group_IT_number 65
_symmetry_cell_setting 'orthorhombic'
loop_
_space_group_symop_operation_xyz
x,y,z
-x,-y,z
x,-y,-z
-x,y,-z
-x,-y,-z
x,y,-z
-x,y,z
x,-y,z
1/2+x,1/2+y,z
1/2-x,1/2-y,z
1/2+x,1/2-y,-z
1/2-x,1/2+y,-z
1/2-x,1/2-y,-z
1/2+x,1/2+y,-z
1/2-x,1/2+y,z
1/2+x,1/2-y,z
loop_
_atom_site_type_symbol
_atom_site_label
_atom_site_fract_x
_atom_site_fract_y
_atom_site_fract_z
Si Si1 0.322039 0.268239 0.710074
Si Si2 0.421623 0.564311 0.211414
Si Si3 0.917248 0.309811 0.221109
Si Si4 0.579103 0.338899 0.278682
Si Si5 0.137669 0.601767 0.777219
Si Si6 0.265191 0.454690 0.222528
Si Si7 0.500000 0.047707 0.222701
O O1 0.304256 0.278987 0.500000
O O2 0.250000 0.250000 0.795206
O O3 0.379820 0.231651 0.712451
O O4 0.358829 0.308930 0.789721
O O5 0.500000 0.553604 0.290536
O O6 0.415442 0.614015 0.216795
O O7 0.346821 0.548570 0.289360
O O8 0.423526 0.551011 0.000000
O O9 0.876173 0.351275 0.280490
O O10 0.000000 0.312388 0.277103
O O11 0.915713 0.308857 0.000000
O O12 0.581009 0.339184 0.500000
O O13 0.500000 0.323207 0.225001
O O14 0.211853 0.581192 0.716497
O O15 0.070819 0.572927 0.722042
O O16 0.137931 0.601889 0.000000
O O17 0.235766 0.500000 0.268637
O O18 0.267983 0.452258 0.000000
O O19 0.500000 0.000000 0.281685
O O20 0.500000 0.047338 0.000000
#
# Coordination Sequence:
#
# PCOD9489244 Si02
#       7
#    16  16  16  16  16  16   8
#     4  10  22  37  53  76 103 132 171 214 254 305
#     4   9  18  31  49  74 100 126 161 205 249 297
#     4  10  20  34  52  76 106 138 171 210 258 306
#     4   9  18  34  53  70  93 128 164 200 245 294
#     4   9  16  27  42  66 100 134 167 203 246 296
#     4   9  17  28  44  68  98 132 166 200 244 298
#     4   9  14  22  40  64  95 135 171 203 241 289
#
# _framework density 23.511702
#
# number of rings (size 3 to 8) (size 9 to 14) (size 15 to 20)
#    0.000    2.692    0.769    0.923    2.154    4.000 
#    0.000    3.077    0.000    0.462    0.000    2.154 
#    0.000    2.462    0.000    0.000    0.000    0.000 
#
# Total GULP energy -290588.279188 kJ/mol
# GULP energy per Si atom -5588.236138 kJ/mol
# Density = 2.345819 g / cm^3
# Si number density = 23.511702 Si / 1000 Ang^3
#
#
#
# Elastic Constant Matrix: (Units=GPa)
#
#
# Indices 1 2 3 4 5 6 
#
# 1 116.8696 23.6780 0.2171 0.0000 0.0000 0.0000
# 2 23.6780 79.7834 -10.9876 0.0000 0.0000 0.0000
# 3 0.2171 -10.9876 96.0194 0.0000 0.0000 0.0000
# 4 0.0000 0.0000 0.0000 -5.4267 0.0000 0.0000
# 5 0.0000 0.0000 0.0000 0.0000 -7.1912 0.0000
# 6 0.0000 0.0000 0.0000 0.0000 0.0000 38.2611
#
#
#
# Elastic Compliance Matrix: (Units=1/GPa)
#
#
# Indices 1 2 3 4 5 6 
#
# 1 0.009115 -0.002751 -0.000335 0.000000 0.000000 0.000000
# 2 -0.002751 0.013565 0.001558 0.000000 0.000000 0.000000
# 3 -0.000335 0.001558 0.010594 0.000000 0.000000 0.000000
# 4 0.000000 0.000000 0.000000 -0.184275 0.000000 0.000000
# 5 0.000000 0.000000 0.000000 0.000000 -0.139060 0.000000
# 6 0.000000 0.000000 0.000000 0.000000 0.000000 0.026136
#
#
# Mechanical properties :
#
#
# Convention : Reuss Voigt Hill
#
# Bulk Modulus (GPa) = 33.09395 35.38749 34.24072
# Shear Modulus (GPa) = -19.93645 23.77965 1.92160
#
# Velocity S-wave (km/s) = -2.91510 3.18370 0.90502
# Velocity P-wave (km/s) = 1.66604 5.34773 3.96068
#
# Compressibility (1/GPa) = 0.03021700
#
# Stress axis : x y z
#
# Youngs Moduli (GPa) = 109.71443 73.71872 94.39611
#
# Poissons Ratio (x) = 0.20282 0.03166
# Poissons Ratio (y) = 0.30185 -0.14712
# Poissons Ratio (z) = 0.03680 -0.11489
#
# Static dielectric constant tensor:
#      x y z
#    x 1.870290 0.000000 0.000000 
#    y 0.000000 1.822990 0.000000 
#    z 0.000000 0.000000 1.898510 
# 
# From -- ./inp_files/27738.got.cif
#   From: 2010.05.17/outbox.cif.g08.bks.cpg/sg65_14_cif.got.tgz:27738.got - 2010.06.03 17:01:31.
