data_PCOD9489987
_publ_section_title
;
Structure prediction by ZEFSAII (Michael W. Deem and Ramdas Pophale) SiO2 
 PCOD9489987
Probable space group: C M M M
;
_chemical_formula_sum "Si O2"
_cell_formula_units_Z 72
_cell_length_a 19.977258
_cell_length_b 23.039890
_cell_length_c 7.733491
_cell_angle_alpha 90.000000
_cell_angle_beta 90.000000
_cell_angle_gamma 90.000000
_cell_volume 3559.523497
_symmetry_space_group_name_H-M "C M M M"
_symmetry_group_IT_number 65
_symmetry_cell_setting 'orthorhombic'
loop_
_space_group_symop_operation_xyz
x,y,z
-x,-y,z
x,-y,-z
-x,y,-z
-x,-y,-z
x,y,-z
-x,y,z
x,-y,z
1/2+x,1/2+y,z
1/2-x,1/2-y,z
1/2+x,1/2-y,-z
1/2-x,1/2+y,-z
1/2-x,1/2-y,-z
1/2+x,1/2+y,-z
1/2-x,1/2+y,z
1/2+x,1/2-y,z
loop_
_atom_site_type_symbol
_atom_site_label
_atom_site_fract_x
_atom_site_fract_y
_atom_site_fract_z
Si Si1 0.338317 0.387297 0.211818
Si Si2 0.802441 0.434181 0.793766
Si Si3 0.424522 0.852793 0.705683
Si Si4 0.576268 0.721065 0.207808
Si Si5 0.923331 0.000000 0.789135
O O1 0.262791 0.399625 0.271541
O O2 0.372793 0.327867 0.271804
O O3 0.383728 0.442271 0.262965
O O4 0.337809 0.385642 0.000000
O O5 0.804565 0.500000 0.724506
O O6 0.870242 0.399111 0.764412
O O7 0.793441 0.438749 0.000000
O O8 0.428073 0.856470 0.500000
O O9 0.500000 0.862160 0.776009
O O10 0.404117 0.787038 0.751773
O O11 0.500000 0.711953 0.272681
O O12 0.573742 0.715792 0.000000
O O13 0.000000 0.000000 0.730360
O O14 0.924154 0.000000 0.000000
#
# Coordination Sequence:
#
# PCOD9489987 Si02
#       5
#    16  16  16  16   8
#     4   9  16  28  47  76 111 141 169 206 253 301
#     4  10  20  35  55  78 107 139 170 210 259 311
#     4  10  22  39  56  74  99 133 174 221 269 313
#     4   9  17  31  53  80 108 138 174 213 252 300
#     4   9  14  22  42  74 110 143 172 204 245 295
#
# _framework density 20.227426000000001
#
# number of rings (size 3 to 8) (size 9 to 14) (size 15 to 20)
#    0.000    2.556    1.111    1.333    0.000    5.778 
#    0.000    7.778    0.000    0.000    0.000    0.000 
#    0.000    5.333    0.000    0.000    0.000    0.000 
#
# Total GULP energy -200923.701183 kJ/mol
# GULP energy per Si atom -5581.213922 kJ/mol
# Density = 2.018139 g / cm^3
# Si number density = 20.227426 Si / 1000 Ang^3
#
#
#
# Elastic Constant Matrix: (Units=GPa)
#
#
# Indices 1 2 3 4 5 6 
#
# 1 142.3062 104.0959 3.3185 0.0000 0.0000 0.0000
# 2 104.0959 143.1506 3.3132 0.0000 0.0000 0.0000
# 3 3.3185 3.3132 28.8530 0.0000 0.0000 0.0000
# 4 0.0000 0.0000 0.0000 -80.6319 0.0000 0.0000
# 5 0.0000 0.0000 0.0000 0.0000 -4.0730 0.0000
# 6 0.0000 0.0000 0.0000 0.0000 0.0000 37.2626
#
#
#
# Elastic Compliance Matrix: (Units=1/GPa)
#
#
# Indices 1 2 3 4 5 6 
#
# 1 0.015019 -0.010911 -0.000475 0.000000 0.000000 0.000000
# 2 -0.010911 0.014930 -0.000460 0.000000 0.000000 0.000000
# 3 -0.000475 -0.000460 0.034766 0.000000 0.000000 0.000000
# 4 0.000000 0.000000 0.000000 -0.012402 0.000000 0.000000
# 5 0.000000 0.000000 0.000000 0.000000 -0.245519 0.000000
# 6 0.000000 0.000000 0.000000 0.000000 0.000000 0.026837
#
#
# Mechanical properties :
#
#
# Convention : Reuss Voigt Hill
#
# Bulk Modulus (GPa) = 24.37493 59.52945 41.95219
# Shear Modulus (GPa) = -38.75851 4.08368 -17.33741
#
# Velocity S-wave (km/s) = -4.38212 1.42242 -2.93084
# Velocity P-wave (km/s) = 3.67795 5.67377 3.05486
#
# Compressibility (1/GPa) = 0.04102576
#
# Stress axis : x y z
#
# Youngs Moduli (GPa) = 66.58132 66.97804 28.76389
#
# Poissons Ratio (x) = 0.73077 0.01365
# Poissons Ratio (y) = 0.72645 0.01322
# Poissons Ratio (z) = 0.03160 0.03078
#
# Static dielectric constant tensor:
#      x y z
#    x 1.739460 0.000000 0.000000 
#    y 0.000000 1.684180 0.000000 
#    z 0.000000 0.000000 1.753060 
# 
# From -- ./inp_files/11224.got.cif
#   From: 2010.05.17/outbox.cif.g08.bks.cpg/sg65_6_cif.got.tgz:11224.got - 2010.06.03 17:01:31.
