data_PCOD9489381
_publ_section_title
;
Structure prediction by ZEFSAII (Michael W. Deem and Ramdas Pophale) SiO2 
 PCOD9489381
Probable space group: C M M M
;
_chemical_formula_sum "Si O2"
_cell_formula_units_Z 72
_cell_length_a 26.998863
_cell_length_b 8.531866
_cell_length_c 16.036055
_cell_angle_alpha 90.000000
_cell_angle_beta 90.000000
_cell_angle_gamma 90.000000
_cell_volume 3693.916194
_symmetry_space_group_name_H-M "C M M M"
_symmetry_group_IT_number 65
_symmetry_cell_setting 'orthorhombic'
loop_
_space_group_symop_operation_xyz
x,y,z
-x,-y,z
x,-y,-z
-x,y,-z
-x,-y,-z
x,y,-z
-x,y,z
x,-y,z
1/2+x,1/2+y,z
1/2-x,1/2-y,z
1/2+x,1/2-y,-z
1/2-x,1/2+y,-z
1/2-x,1/2-y,-z
1/2+x,1/2+y,-z
1/2-x,1/2+y,z
1/2+x,1/2-y,z
loop_
_atom_site_type_symbol
_atom_site_label
_atom_site_fract_x
_atom_site_fract_y
_atom_site_fract_z
Si Si1 0.803393 0.684809 0.236953
Si Si2 0.944153 0.686489 0.654909
Si Si3 0.094580 0.184600 0.175045
Si Si4 0.059319 0.317740 0.000000
Si Si5 0.158134 0.185822 0.594119
O O1 0.806845 0.500000 0.222494
O O2 0.750000 0.750000 0.212821
O O3 0.848158 0.771729 0.190460
O O4 0.812803 0.721027 0.334773
O O5 0.938554 0.500000 0.642239
O O6 0.935478 0.724845 0.752635
O O7 0.899930 0.774125 0.607590
O O8 0.000000 0.731815 0.630793
O O9 0.078496 0.236389 0.083655
O O10 0.087056 0.000000 0.187078
O O11 0.074543 0.500000 0.000000
O O12 0.000000 0.310650 0.000000
O O13 0.172662 0.226412 0.500000
O O14 0.165332 0.000000 0.607257
#
# Coordination Sequence:
#
# PCOD9489381 Si02
#       5
#    16  16  16   8  16
#     4  11  22  39  62  84 110 145 184 227 278 332
#     4  10  20  34  53  77 108 148 189 228 276 333
#     4  11  22  37  58  85 115 146 185 230 276 326
#     4  11  23  39  60  87 120 155 189 225 269 321
#     4  10  21  36  54  79 110 143 184 233 281 330
#
# _framework density 19.491509000000001
#
# number of rings (size 3 to 8) (size 9 to 14) (size 15 to 20)
#    0.000    1.444    0.000    9.000    0.000    8.000 
#    0.000    2.778    0.000    0.000    0.000    0.000 
#    0.000    0.000    0.000    0.000    0.000    0.000 
#
# Total GULP energy -201301.859704 kJ/mol
# GULP energy per Si atom -5591.718325 kJ/mol
# Density = 1.944715 g / cm^3
# Si number density = 19.491509 Si / 1000 Ang^3
#
#
#
# Elastic Constant Matrix: (Units=GPa)
#
#
# Indices 1 2 3 4 5 6 
#
# 1 55.5931 -6.7882 -19.2287 0.0000 0.0000 0.0000
# 2 -6.7882 51.2796 -6.6989 0.0000 0.0000 0.0000
# 3 -19.2287 -6.6989 55.8465 0.0000 0.0000 0.0000
# 4 0.0000 0.0000 0.0000 27.0729 0.0000 0.0000
# 5 0.0000 0.0000 0.0000 0.0000 -1.3146 0.0000
# 6 0.0000 0.0000 0.0000 0.0000 0.0000 31.6742
#
#
#
# Elastic Compliance Matrix: (Units=1/GPa)
#
#
# Indices 1 2 3 4 5 6 
#
# 1 0.021127 0.003807 0.007731 0.000000 0.000000 0.000000
# 2 0.003807 0.020497 0.003769 0.000000 0.000000 0.000000
# 3 0.007731 0.003769 0.021020 0.000000 0.000000 0.000000
# 4 0.000000 0.000000 0.000000 0.036937 0.000000 0.000000
# 5 0.000000 0.000000 0.000000 0.000000 -0.760710 0.000000
# 6 0.000000 0.000000 0.000000 0.000000 0.000000 0.031571
#
#
# Mechanical properties :
#
#
# Convention : Reuss Voigt Hill
#
# Bulk Modulus (GPa) = 10.72303 10.80974 10.76638
# Shear Modulus (GPa) = -7.94806 24.51551 8.28372
#
# Velocity S-wave (km/s) = -2.02152 3.55033 2.06377
# Velocity P-wave (km/s) = 0.25414 4.72910 3.34880
#
# Compressibility (1/GPa) = 0.09325726
#
# Stress axis : x y z
#
# Youngs Moduli (GPa) = 47.33377 48.78707 47.57334
#
# Poissons Ratio (x) = -0.18571 -0.36778
# Poissons Ratio (y) = -0.18018 -0.17932
# Poissons Ratio (z) = -0.36593 -0.18389
#
# Static dielectric constant tensor:
#      x y z
#    x 1.678590 0.000000 0.000000 
#    y 0.000000 1.651770 0.000000 
#    z 0.000000 0.000000 1.664750 
# 
# From -- ./inp_files/46488.got.cif
#   From: 2010.05.17/outbox.cif.g08.bks.cpg/sg65_24_cif.got.tgz:46488.got - 2010.06.03 17:01:31.
