data_PCOD9489492
_publ_section_title
;
Structure prediction by ZEFSAII (Michael W. Deem and Ramdas Pophale) SiO2 
 PCOD9489492
Probable space group: C M M M
;
_chemical_formula_sum "Si O2"
_cell_formula_units_Z 96
_cell_length_a 15.356885
_cell_length_b 21.569575
_cell_length_c 15.895678
_cell_angle_alpha 90.000000
_cell_angle_beta 90.000000
_cell_angle_gamma 90.000000
_cell_volume 5265.307950
_symmetry_space_group_name_H-M "C M M M"
_symmetry_group_IT_number 65
_symmetry_cell_setting 'orthorhombic'
loop_
_space_group_symop_operation_xyz
x,y,z
-x,-y,z
x,-y,-z
-x,y,-z
-x,-y,-z
x,y,-z
-x,y,z
x,-y,z
1/2+x,1/2+y,z
1/2-x,1/2-y,z
1/2+x,1/2-y,-z
1/2-x,1/2+y,-z
1/2-x,1/2-y,-z
1/2+x,1/2+y,-z
1/2-x,1/2+y,z
1/2+x,1/2-y,z
loop_
_atom_site_type_symbol
_atom_site_label
_atom_site_fract_x
_atom_site_fract_y
_atom_site_fract_z
Si Si1 0.103165 0.765678 0.156554
Si Si2 0.670400 0.929064 0.000000
Si Si3 0.277278 0.928138 0.500000
Si Si4 0.602271 0.876359 0.830942
Si Si5 0.273048 0.925491 0.314920
Si Si6 0.301674 0.684950 0.000000
Si Si7 0.601201 0.652567 0.313969
Si Si8 0.597324 0.632348 0.500000
O O1 0.132179 0.694345 0.150204
O O2 0.120217 0.792385 0.249186
O O3 0.000000 0.764884 0.142820
O O4 0.143462 0.809278 0.085551
O O5 0.615855 0.915383 0.084204
O O6 0.746001 0.877383 0.000000
O O7 0.701131 0.000000 0.000000
O O8 0.303894 0.903007 0.408358
O O9 0.172441 0.919032 0.500000
O O10 0.301287 0.000000 0.500000
O O11 0.500000 0.875503 0.808255
O O12 0.661527 0.902845 0.756670
O O13 0.176009 0.898545 0.300234
O O14 0.269621 0.000000 0.315672
O O15 0.250000 0.750000 0.000000
O O16 0.500000 0.632700 0.299170
O O17 0.606643 0.669520 0.412939
O O18 0.500000 0.605121 0.500000
#
# Coordination Sequence:
#
# PCOD9489492 Si02
#       8
#    16   8   8  16  16   8  16   8
#     4  10  21  37  57  82 109 144 188 230 271 328
#     4  12  25  38  57  88 117 140 177 232 287 333
#     4   8  16  31  48  71 103 140 184 229 267 323
#     4  11  23  39  57  79 108 146 189 233 281 327
#     4  10  20  34  54  78 108 145 184 227 279 336
#     4  12  21  37  63  85 107 148 186 226 272 338
#     4   9  18  32  54  81 112 143 178 225 276 335
#     4   8  14  27  47  76 108 141 174 216 280 334
#
# _framework density 18.232551999999998
#
# number of rings (size 3 to 8) (size 9 to 14) (size 15 to 20)
#    0.000    2.000    1.667    2.000    0.000    3.500 
#    0.000    4.583    0.000    8.500    0.000    0.000 
#    0.000    0.000    0.000    0.000    0.000    0.000 
#
# Total GULP energy -267455.773381 kJ/mol
# GULP energy per Si atom -5571.995279 kJ/mol
# Density = 1.819105 g / cm^3
# Si number density = 18.232552 Si / 1000 Ang^3
#
#
#
# Elastic Constant Matrix: (Units=GPa)
#
#
# Indices 1 2 3 4 5 6 
#
# 1 57.8277 36.4983 62.5701 0.0000 0.0000 0.0000
# 2 36.4983 85.0816 29.8936 0.0000 0.0000 0.0000
# 3 62.5701 29.8936 125.8296 0.0000 0.0000 0.0000
# 4 0.0000 0.0000 0.0000 25.6170 0.0000 0.0000
# 5 0.0000 0.0000 0.0000 0.0000 21.7447 0.0000
# 6 0.0000 0.0000 0.0000 0.0000 0.0000 21.9253
#
#
#
# Elastic Compliance Matrix: (Units=1/GPa)
#
#
# Indices 1 2 3 4 5 6 
#
# 1 0.048280 -0.013394 -0.020826 0.000000 0.000000 0.000000
# 2 -0.013394 0.016540 0.002731 0.000000 0.000000 0.000000
# 3 -0.020826 0.002731 0.017654 0.000000 0.000000 0.000000
# 4 0.000000 0.000000 0.000000 0.039037 0.000000 0.000000
# 5 0.000000 0.000000 0.000000 0.000000 0.045988 0.000000
# 6 0.000000 0.000000 0.000000 0.000000 0.000000 0.045609
#
#
# Mechanical properties :
#
#
# Convention : Reuss Voigt Hill
#
# Bulk Modulus (GPa) = 51.29147 58.51810 54.90479
# Shear Modulus (GPa) = 17.69383 23.17585 20.43484
#
# Velocity S-wave (km/s) = 3.11859 3.56915 3.35145
# Velocity P-wave (km/s) = 6.41563 7.01072 6.71977
#
# Compressibility (1/GPa) = 0.01949642
#
# Stress axis : x y z
#
# Youngs Moduli (GPa) = 20.71254 60.46081 56.64359
#
# Poissons Ratio (x) = 0.80981 1.17964
# Poissons Ratio (y) = 0.27742 -0.15469
# Poissons Ratio (z) = 0.43135 -0.16511
#
# Static dielectric constant tensor:
#      x y z
#    x 1.631430 0.000000 0.000000 
#    y 0.000000 1.604420 0.000000 
#    z 0.000000 0.000000 1.665990 
# 
# From -- ./inp_files/40482.got.cif
#   From: 2010.05.17/outbox.cif.g08.bks.cpg/sg65_21_cif.got.tgz:40482.got - 2010.06.03 17:01:31.
