data_PCOD9489766
_publ_section_title
;
Structure prediction by ZEFSAII (Michael W. Deem and Ramdas Pophale) SiO2 
 PCOD9489766
Probable space group: C M M M
;
_chemical_formula_sum "Si O2"
_cell_formula_units_Z 60
_cell_length_a 26.321580
_cell_length_b 10.689686
_cell_length_c 11.951270
_cell_angle_alpha 90.000000
_cell_angle_beta 90.000000
_cell_angle_gamma 90.000000
_cell_volume 3362.721971
_symmetry_space_group_name_H-M "C M M M"
_symmetry_group_IT_number 65
_symmetry_cell_setting 'orthorhombic'
loop_
_space_group_symop_operation_xyz
x,y,z
-x,-y,z
x,-y,-z
-x,y,-z
-x,-y,-z
x,y,-z
-x,y,z
x,-y,z
1/2+x,1/2+y,z
1/2-x,1/2-y,z
1/2+x,1/2-y,-z
1/2-x,1/2+y,-z
1/2-x,1/2-y,-z
1/2+x,1/2+y,-z
1/2-x,1/2+y,z
1/2+x,1/2-y,z
loop_
_atom_site_type_symbol
_atom_site_label
_atom_site_fract_x
_atom_site_fract_y
_atom_site_fract_z
Si Si1 0.851012 0.761674 0.260562
Si Si2 0.706174 0.000000 0.500000
Si Si3 0.312841 0.264378 0.500000
Si Si4 0.560271 0.850484 0.870533
Si Si5 0.210257 0.500000 0.745467
Si Si6 0.688557 0.500000 0.870286
O O1 0.836496 0.811649 0.384869
O O2 0.907466 0.724231 0.221318
O O3 0.820479 0.629956 0.247144
O O4 0.833249 0.872929 0.181308
O O5 0.670918 0.119489 0.500000
O O6 0.734623 0.000000 0.381086
O O7 0.250000 0.250000 0.500000
O O8 0.500000 0.828482 0.860411
O O9 0.568798 0.000000 0.857034
O O10 0.575169 0.819569 0.000000
O O11 0.252259 0.500000 0.839338
O O12 0.679290 0.500000 0.000000
#
# Coordination Sequence:
#
# PCOD9489766 Si02
#       6
#    16   4   8  16   8   8
#     4  11  21  38  58  82 114 150 193 239 288 340
#     4   8  16  32  52  76  99 134 191 234 262 312
#     4  10  20  34  57  80 110 153 195 231 278 342
#     4   9  18  35  60  86 112 149 196 239 286 345
#     4  10  20  36  57  78 111 152 191 233 281 343
#     4  12  26  36  49  81 118 149 188 237 287 345
#
# _framework density 17.842687999999999
#
# number of rings (size 3 to 8) (size 9 to 14) (size 15 to 20)
#    0.000    1.867    1.333    5.600    0.000    3.733 
#    0.000    1.333    0.000    4.000    0.000    1.867 
#    0.000    0.000    0.000    0.000    0.000    0.000 
#
# Total GULP energy -167001.767724 kJ/mol
# GULP energy per Si atom -5566.725591 kJ/mol
# Density = 1.780208 g / cm^3
# Si number density = 17.842688 Si / 1000 Ang^3
#
#
#
# Elastic Constant Matrix: (Units=GPa)
#
#
# Indices 1 2 3 4 5 6 
#
# 1 79.2728 23.3680 55.3892 0.0000 0.0000 0.0000
# 2 23.3680 87.4731 49.0305 0.0000 0.0000 0.0000
# 3 55.3892 49.0305 164.6897 0.0000 0.0000 0.0000
# 4 0.0000 0.0000 0.0000 29.0059 0.0000 0.0000
# 5 0.0000 0.0000 0.0000 0.0000 26.4412 0.0000
# 6 0.0000 0.0000 0.0000 0.0000 0.0000 22.4355
#
#
#
# Elastic Compliance Matrix: (Units=1/GPa)
#
#
# Indices 1 2 3 4 5 6 
#
# 1 0.016668 -0.001573 -0.005138 0.000000 0.000000 0.000000
# 2 -0.001573 0.013870 -0.003600 0.000000 0.000000 0.000000
# 3 -0.005138 -0.003600 0.008872 0.000000 0.000000 0.000000
# 4 0.000000 0.000000 0.000000 0.034476 0.000000 0.000000
# 5 0.000000 0.000000 0.000000 0.000000 0.037820 0.000000
# 6 0.000000 0.000000 0.000000 0.000000 0.000000 0.044572
#
#
# Mechanical properties :
#
#
# Convention : Reuss Voigt Hill
#
# Bulk Modulus (GPa) = 53.22468 65.22345 59.22407
# Shear Modulus (GPa) = 27.29812 29.15304 28.22558
#
# Velocity S-wave (km/s) = 3.91568 4.04653 3.98164
# Velocity P-wave (km/s) = 7.09494 7.64635 7.37580
#
# Compressibility (1/GPa) = 0.01878827
#
# Stress axis : x y z
#
# Youngs Moduli (GPa) = 59.99490 72.09603 112.71694
#
# Poissons Ratio (x) = 0.11341 0.57909
# Poissons Ratio (y) = 0.09438 0.40582
# Poissons Ratio (z) = 0.30823 0.25957
#
# Static dielectric constant tensor:
#      x y z
#    x 1.616550 0.000000 0.000000 
#    y 0.000000 1.660870 0.000000 
#    z 0.000000 0.000000 1.676050 
# 
# From -- ./inp_files/31948.got.cif
#   From: 2010.05.17/outbox.cif.g08.bks.cpg/sg65_16_cif.got.tgz:31948.got - 2010.06.03 17:01:31.
