data_PCOD9489977
_publ_section_title
;
Structure prediction by ZEFSAII (Michael W. Deem and Ramdas Pophale) SiO2 
 PCOD9489977
Probable space group: C M M M
;
_chemical_formula_sum "Si O2"
_cell_formula_units_Z 96
_cell_length_a 20.275417
_cell_length_b 8.783962
_cell_length_c 30.835009
_cell_angle_alpha 90.000000
_cell_angle_beta 90.000000
_cell_angle_gamma 90.000000
_cell_volume 5491.668618
_symmetry_space_group_name_H-M "C M M M"
_symmetry_group_IT_number 65
_symmetry_cell_setting 'orthorhombic'
loop_
_space_group_symop_operation_xyz
x,y,z
-x,-y,z
x,-y,-z
-x,y,-z
-x,-y,-z
x,y,-z
-x,y,z
x,-y,z
1/2+x,1/2+y,z
1/2-x,1/2-y,z
1/2+x,1/2-y,-z
1/2-x,1/2+y,-z
1/2-x,1/2-y,-z
1/2+x,1/2+y,-z
1/2-x,1/2+y,z
1/2+x,1/2-y,z
loop_
_atom_site_type_symbol
_atom_site_label
_atom_site_fract_x
_atom_site_fract_y
_atom_site_fract_z
Si Si1 0.423032 0.682478 0.949465
Si Si2 0.576293 0.316973 0.287904
Si Si3 0.822085 0.816673 0.787631
Si Si4 0.423260 0.817964 0.381461
Si Si5 0.178176 0.817850 0.550232
Si Si6 0.821962 0.681470 0.118429
O O1 0.500000 0.717914 0.940926
O O2 0.414948 0.500000 0.944147
O O3 0.374589 0.768375 0.917320
O O4 0.409634 0.718264 0.000000
O O5 0.500000 0.276602 0.278219
O O6 0.579455 0.500000 0.293048
O O7 0.625060 0.274531 0.249052
O O8 0.594753 0.240880 0.333488
O O9 0.750000 0.750000 0.776926
O O10 0.840561 0.750126 0.834620
O O11 0.818364 0.000000 0.790445
O O12 0.500000 0.774987 0.388784
O O13 0.376291 0.746516 0.417443
O O14 0.418344 0.000000 0.382754
O O15 0.163532 0.777101 0.500000
O O16 0.250000 0.750000 0.560782
O O17 0.180812 0.000000 0.553436
O O18 0.817161 0.500000 0.121441
O O19 0.750000 0.750000 0.107685
#
# Coordination Sequence:
#
# PCOD9489977 Si02
#       6
#    16  16  16  16  16  16
#     4   9  19  37  59  81 107 140 177 218 265 317
#     4   9  19  36  56  77 103 138 179 220 262 311
#     4  10  20  35  55  78 105 138 176 219 266 315
#     4  10  21  36  55  80 110 143 178 219 265 313
#     4  10  21  37  57  80 107 140 178 221 267 316
#     4  11  22  36  55  79 109 143 179 221 266 314
#
# _framework density 17.481026
#
# number of rings (size 3 to 8) (size 9 to 14) (size 15 to 20)
#    0.000    2.167    0.000    4.500    0.000    6.000 
#    0.000    5.833    0.000    0.000    0.000    0.000 
#    0.000    0.000    0.000    0.000    0.000    0.000 
#
# Total GULP energy -267999.887172 kJ/mol
# GULP energy per Si atom -5583.330983 kJ/mol
# Density = 1.744124 g / cm^3
# Si number density = 17.481026 Si / 1000 Ang^3
#
#
#
# Elastic Constant Matrix: (Units=GPa)
#
#
# Indices 1 2 3 4 5 6 
#
# 1 114.2918 63.1277 118.6875 0.0000 0.0000 0.0000
# 2 63.1277 74.2518 70.4629 0.0000 0.0000 0.0000
# 3 118.6875 70.4629 142.5129 0.0000 0.0000 0.0000
# 4 0.0000 0.0000 0.0000 29.6166 0.0000 0.0000
# 5 0.0000 0.0000 0.0000 0.0000 43.8810 0.0000
# 6 0.0000 0.0000 0.0000 0.0000 0.0000 31.5372
#
#
#
# Elastic Compliance Matrix: (Units=1/GPa)
#
#
# Indices 1 2 3 4 5 6 
#
# 1 0.066911 -0.007546 -0.051994 0.000000 0.000000 0.000000
# 2 -0.007546 0.026224 -0.006681 0.000000 0.000000 0.000000
# 3 -0.051994 -0.006681 0.053622 0.000000 0.000000 0.000000
# 4 0.000000 0.000000 0.000000 0.033765 0.000000 0.000000
# 5 0.000000 0.000000 0.000000 0.000000 0.022789 0.000000
# 6 0.000000 0.000000 0.000000 0.000000 0.000000 0.031709
#
#
# Mechanical properties :
#
#
# Convention : Reuss Voigt Hill
#
# Bulk Modulus (GPa) = 69.86087 92.84586 81.35336
# Shear Modulus (GPa) = 13.43245 26.25884 19.84564
#
# Velocity S-wave (km/s) = 2.77501 3.87994 3.37303
# Velocity P-wave (km/s) = 7.09353 8.56152 7.86186
#
# Compressibility (1/GPa) = 0.01431417
#
# Stress axis : x y z
#
# Youngs Moduli (GPa) = 14.94519 38.13362 18.64906
#
# Poissons Ratio (x) = 0.28775 0.96964
# Poissons Ratio (y) = 0.11278 0.12460
# Poissons Ratio (z) = 0.77706 0.25479
#
# Static dielectric constant tensor:
#      x y z
#    x 1.573850 0.000000 0.000000 
#    y 0.000000 1.585810 0.000000 
#    z 0.000000 0.000000 1.568950 
# 
# From -- ./inp_files/73086.got.cif
#   From: 2010.05.17/outbox.cif.g08.bks.cpg/sg65_37_cif.got.tgz:73086.got - 2010.06.03 17:01:31.
