data_PCOD9489281
_publ_section_title
;
Structure prediction by ZEFSAII (Michael W. Deem and Ramdas Pophale) SiO2 
 PCOD9489281
Probable space group: C M M M
;
_chemical_formula_sum "Si O2"
_cell_formula_units_Z 112
_cell_length_a 29.284686
_cell_length_b 15.870106
_cell_length_c 14.265245
_cell_angle_alpha 90.000000
_cell_angle_beta 90.000000
_cell_angle_gamma 90.000000
_cell_volume 6629.787892
_symmetry_space_group_name_H-M "C M M M"
_symmetry_group_IT_number 65
_symmetry_cell_setting 'orthorhombic'
loop_
_space_group_symop_operation_xyz
x,y,z
-x,-y,z
x,-y,-z
-x,y,-z
-x,-y,-z
x,y,-z
-x,y,z
x,-y,z
1/2+x,1/2+y,z
1/2-x,1/2-y,z
1/2+x,1/2-y,-z
1/2-x,1/2+y,-z
1/2-x,1/2-y,-z
1/2+x,1/2+y,-z
1/2-x,1/2+y,z
1/2+x,1/2-y,z
loop_
_atom_site_type_symbol
_atom_site_label
_atom_site_fract_x
_atom_site_fract_y
_atom_site_fract_z
Si Si1 0.948921 0.599289 0.265116
Si Si2 0.148363 0.775130 0.887908
Si Si3 0.261560 0.151314 0.391998
Si Si4 0.185747 0.592844 0.112736
Si Si5 0.136806 0.601395 0.391566
Si Si6 0.215507 0.905326 0.791244
Si Si7 0.050092 0.738194 0.109766
O O1 0.944185 0.500000 0.245349
O O2 0.907168 0.625816 0.331335
O O3 0.947792 0.654558 0.171888
O O4 0.000000 0.611153 0.307500
O O5 0.157792 0.676825 0.863706
O O6 0.181319 0.835188 0.829629
O O7 0.095015 0.792175 0.868916
O O8 0.157158 0.785477 0.000000
O O9 0.257547 0.121028 0.500000
O O10 0.250000 0.250000 0.390397
O O11 0.314125 0.137179 0.361461
O O12 0.228791 0.107244 0.317338
O O13 0.168200 0.500000 0.144891
O O14 0.236565 0.602813 0.153213
O O15 0.187908 0.590499 0.000000
O O16 0.129983 0.625920 0.500000
O O17 0.140581 0.500000 0.387784
O O18 0.198022 0.000000 0.807197
O O19 0.000000 0.777550 0.125787
O O20 0.053397 0.716121 0.000000
#
# Coordination Sequence:
#
# PCOD9489281 Si02
#       7
#    16  16  16  16  16  16  16
#     4   9  18  30  47  73 100 130 169 208 246 294
#     4  10  20  34  53  74 100 133 169 211 256 305
#     4  10  21  35  51  73 100 134 173 210 250 303
#     4   9  18  31  47  72 104 135 168 204 247 301
#     4   9  18  32  49  69  98 134 167 202 246 294
#     4  11  22  33  50  74 100 135 172 211 255 296
#     4   9  19  34  50  70  97 130 164 202 253 306
#
# _framework density 16.893450999999999
#
# number of rings (size 3 to 8) (size 9 to 14) (size 15 to 20)
#    0.000    2.429    0.000    2.143    4.000    4.000 
#    0.000    4.286    0.000    0.429    0.000    2.000 
#    0.000    0.000    0.000    1.286    0.000    0.000 
#
# Total GULP energy -312293.390737 kJ/mol
# GULP energy per Si atom -5576.667692 kJ/mol
# Density = 1.685500 g / cm^3
# Si number density = 16.893451 Si / 1000 Ang^3
#
#
#
# Elastic Constant Matrix: (Units=GPa)
#
#
# Indices 1 2 3 4 5 6 
#
# 1 122.7322 43.3907 44.1870 0.0000 0.0000 0.0000
# 2 43.3907 55.4261 18.6658 0.0000 0.0000 0.0000
# 3 44.1870 18.6658 46.5692 0.0000 0.0000 0.0000
# 4 0.0000 0.0000 0.0000 11.4796 0.0000 0.0000
# 5 0.0000 0.0000 0.0000 0.0000 26.9322 0.0000
# 6 0.0000 0.0000 0.0000 0.0000 0.0000 17.9274
#
#
#
# Elastic Compliance Matrix: (Units=1/GPa)
#
#
# Indices 1 2 3 4 5 6 
#
# 1 0.014914 -0.007988 -0.010949 0.000000 0.000000 0.000000
# 2 -0.007988 0.025136 -0.002496 0.000000 0.000000 0.000000
# 3 -0.010949 -0.002496 0.032863 0.000000 0.000000 0.000000
# 4 0.000000 0.000000 0.000000 0.087111 0.000000 0.000000
# 5 0.000000 0.000000 0.000000 0.000000 0.037130 0.000000
# 6 0.000000 0.000000 0.000000 0.000000 0.000000 0.055780
#
#
# Mechanical properties :
#
#
# Convention : Reuss Voigt Hill
#
# Bulk Modulus (GPa) = 33.28118 48.57938 40.93028
# Shear Modulus (GPa) = 16.34972 19.16680 17.75826
#
# Velocity S-wave (km/s) = 3.11435 3.37199 3.24573
# Velocity P-wave (km/s) = 5.71626 6.63168 6.19091
#
# Compressibility (1/GPa) = 0.03004701
#
# Stress axis : x y z
#
# Youngs Moduli (GPa) = 67.05125 39.78357 30.42954
#
# Poissons Ratio (x) = 0.31780 0.33318
# Poissons Ratio (y) = 0.53561 0.07594
# Poissons Ratio (z) = 0.73416 0.09928
#
# Static dielectric constant tensor:
#      x y z
#    x 1.591190 0.000000 0.000000 
#    y 0.000000 1.552060 0.000000 
#    z 0.000000 0.000000 1.592690 
# 
# From -- ./inp_files/41134.got.cif
#   From: 2010.05.17/outbox.cif.g08.bks.cpg/sg65_21_cif.got.tgz:41134.got - 2010.06.03 17:01:31.
