data_PCOD9489225
_publ_section_title
;
Structure prediction by ZEFSAII (Michael W. Deem and Ramdas Pophale) SiO2 
 PCOD9489225
Probable space group: C M M M
;
_chemical_formula_sum "Si O2"
_cell_formula_units_Z 96
_cell_length_a 28.407152
_cell_length_b 21.658803
_cell_length_c 9.035661
_cell_angle_alpha 90.000000
_cell_angle_beta 90.000000
_cell_angle_gamma 90.000000
_cell_volume 5559.325143
_symmetry_space_group_name_H-M "C M M M"
_symmetry_group_IT_number 65
_symmetry_cell_setting 'orthorhombic'
loop_
_space_group_symop_operation_xyz
x,y,z
-x,-y,z
x,-y,-z
-x,y,-z
-x,-y,-z
x,y,-z
-x,y,z
x,-y,z
1/2+x,1/2+y,z
1/2-x,1/2-y,z
1/2+x,1/2-y,-z
1/2-x,1/2+y,-z
1/2-x,1/2-y,-z
1/2+x,1/2+y,-z
1/2-x,1/2+y,z
1/2+x,1/2-y,z
loop_
_atom_site_type_symbol
_atom_site_label
_atom_site_fract_x
_atom_site_fract_y
_atom_site_fract_z
Si Si1 0.444523 0.863187 0.320251
Si Si2 0.863600 0.716346 0.821975
Si Si3 0.000000 0.075265 0.670415
Si Si4 0.057045 0.500000 0.670192
Si Si5 0.095628 0.074218 0.170026
Si Si6 0.737493 0.823178 0.168171
Si Si7 0.330555 0.655767 0.324882
O O1 0.440388 0.861394 0.500000
O O2 0.500000 0.853373 0.286299
O O3 0.409971 0.814106 0.246280
O O4 0.430453 0.932741 0.267249
O O5 0.817207 0.674519 0.788655
O O6 0.852072 0.782852 0.751692
O O7 0.866521 0.721946 0.000000
O O8 0.046791 0.095263 0.755746
O O9 0.000000 0.095710 0.500000
O O10 0.000000 0.000000 0.669806
O O11 0.073626 0.500000 0.500000
O O12 0.000000 0.500000 0.665985
O O13 0.138424 0.099898 0.264619
O O14 0.095579 0.000000 0.170374
O O15 0.098774 0.095282 0.000000
O O16 0.750000 0.750000 0.165456
O O17 0.776498 0.851624 0.274115
O O18 0.743432 0.846215 0.000000
O O19 0.333527 0.662007 0.500000
#
# Coordination Sequence:
#
# PCOD9489225 Si02
#       7
#    16  16   8   8  16  16  16
#     4   9  17  31  52  77 105 136 172 211 253 302
#     4  10  20  34  52  75 105 138 171 209 255 309
#     4   9  17  31  51  75 101 129 167 212 251 294
#     4   7  12  26  49  73  97 131 169 203 243 294
#     4  10  20  35  55  76 102 138 175 211 257 312
#     4   8  16  32  52  72  97 130 168 206 248 305
#     4  11  21  33  53  79 103 130 170 218 261 305
#
# _framework density 17.268283
#
# number of rings (size 3 to 8) (size 9 to 14) (size 15 to 20)
#    0.000    2.667    0.000    4.750    0.000    6.000 
#    1.500    0.417    1.833    1.500    0.000    0.000 
#    0.000    0.000    0.000    0.000    0.000    0.000 
#
# Total GULP energy -267417.388242 kJ/mol
# GULP energy per Si atom -5571.195588 kJ/mol
# Density = 1.722898 g / cm^3
# Si number density = 17.268283 Si / 1000 Ang^3
#
#
#
# Elastic Constant Matrix: (Units=GPa)
#
#
# Indices 1 2 3 4 5 6 
#
# 1 102.6377 21.3486 54.6253 0.0000 0.0000 0.0000
# 2 21.3486 21.7971 20.9617 0.0000 0.0000 0.0000
# 3 54.6253 20.9617 89.3182 0.0000 0.0000 0.0000
# 4 0.0000 0.0000 0.0000 18.0696 0.0000 0.0000
# 5 0.0000 0.0000 0.0000 0.0000 59.3668 0.0000
# 6 0.0000 0.0000 0.0000 0.0000 0.0000 17.4931
#
#
#
# Elastic Compliance Matrix: (Units=1/GPa)
#
#
# Indices 1 2 3 4 5 6 
#
# 1 0.015404 -0.007784 -0.007594 0.000000 0.000000 0.000000
# 2 -0.007784 0.063183 -0.010068 0.000000 0.000000 0.000000
# 3 -0.007594 -0.010068 0.018203 0.000000 0.000000 0.000000
# 4 0.000000 0.000000 0.000000 0.055342 0.000000 0.000000
# 5 0.000000 0.000000 0.000000 0.000000 0.016844 0.000000
# 6 0.000000 0.000000 0.000000 0.000000 0.000000 0.057165
#
#
# Mechanical properties :
#
#
# Convention : Reuss Voigt Hill
#
# Bulk Modulus (GPa) = 21.78699 45.29159 33.53929
# Shear Modulus (GPa) = 17.10387 26.77372 21.93879
#
# Velocity S-wave (km/s) = 3.15060 3.94186 3.56823
# Velocity P-wave (km/s) = 5.08716 6.85586 6.03664
#
# Compressibility (1/GPa) = 0.04589895
#
# Stress axis : x y z
#
# Youngs Moduli (GPa) = 64.91997 15.82698 54.93650
#
# Poissons Ratio (x) = 0.12320 0.41717
# Poissons Ratio (y) = 0.50533 0.55308
# Poissons Ratio (z) = 0.49299 0.15934
#
# Static dielectric constant tensor:
#      x y z
#    x 1.590600 0.000000 0.000000 
#    y 0.000000 1.599710 0.000000 
#    z 0.000000 0.000000 1.578510 
# 
# From -- ./inp_files/14381.got.cif
#   From: 2010.05.17/outbox.cif.g08.bks.cpg/sg65_8_cif.got.tgz:14381.got - 2010.06.03 17:01:31.
