data_PCOD9489003
_publ_section_title
;
Structure prediction by ZEFSAII (Michael W. Deem and Ramdas Pophale) SiO2 
 PCOD9489003
Probable space group: C M M M
;
_chemical_formula_sum "Si O2"
_cell_formula_units_Z 58
_cell_length_a 16.387433
_cell_length_b 7.654518
_cell_length_c 22.336491
_cell_angle_alpha 90.000000
_cell_angle_beta 90.000000
_cell_angle_gamma 90.000000
_cell_volume 2801.842544
_symmetry_space_group_name_H-M "C M M M"
_symmetry_group_IT_number 65
_symmetry_cell_setting 'orthorhombic'
loop_
_space_group_symop_operation_xyz
x,y,z
-x,-y,z
x,-y,-z
-x,y,-z
-x,-y,-z
x,y,-z
-x,y,z
x,-y,z
1/2+x,1/2+y,z
1/2-x,1/2-y,z
1/2+x,1/2-y,-z
1/2-x,1/2+y,-z
1/2-x,1/2-y,-z
1/2+x,1/2+y,-z
1/2-x,1/2+y,z
1/2+x,1/2-y,z
loop_
_atom_site_type_symbol
_atom_site_label
_atom_site_fract_x
_atom_site_fract_y
_atom_site_fract_z
Si Si1 0.000000 0.717242 0.390740
Si Si2 0.000000 0.000000 0.500000
Si Si3 0.346103 0.710194 0.935071
Si Si4 0.159789 0.294610 0.684968
Si Si5 0.089865 0.208683 0.191158
O O1 0.000000 0.842736 0.448100
O O2 0.918294 0.765821 0.353104
O O3 0.000000 0.500000 0.400848
O O4 0.356281 0.500000 0.935385
O O5 0.250000 0.750000 0.932474
O O6 0.385089 0.779050 0.873905
O O7 0.376893 0.774742 0.000000
O O8 0.153726 0.500000 0.684491
O O9 0.250000 0.250000 0.661699
O O10 0.150140 0.239732 0.754028
O O11 0.000000 0.275677 0.208042
O O12 0.085352 0.000000 0.184822
#
# Coordination Sequence:
#
# PCOD9489003 Si02
#       5
#     8   2  16  16  16
#     4  10  25  47  71 106 140 178 223 262 323 383
#     4  12  26  44  88  98 144 186 212 268 320 374
#     4   9  18  32  48  70 105 150 202 262 323 384
#     4  11  23  40  66  95 132 168 213 270 319 380
#     4  10  20  33  54  84 116 157 210 264 322 391
#
# _framework density 20.700662999999999
#
# number of rings (size 3 to 8) (size 9 to 14) (size 15 to 20)
#    0.000    1.931    1.379    1.862    3.862    3.862 
#    0.000    3.448    0.000    0.000    0.000    5.793 
#    0.000    0.000    0.000    0.000    0.000    0.000 
#
# Total GULP energy -161446.882697 kJ/mol
# GULP energy per Si atom -5567.133886 kJ/mol
# Density = 2.065355 g / cm^3
# Si number density = 20.700663 Si / 1000 Ang^3
#
#
#
# Elastic Constant Matrix: (Units=GPa)
#
#
# Indices 1 2 3 4 5 6 
#
# 1 123.3129 16.3707 65.4490 0.0000 0.0000 0.0000
# 2 16.3707 56.2432 36.0101 0.0000 0.0000 0.0000
# 3 65.4490 36.0101 156.6521 0.0000 0.0000 0.0000
# 4 0.0000 0.0000 0.0000 1.3168 0.0000 0.0000
# 5 0.0000 0.0000 0.0000 0.0000 -7.5232 0.0000
# 6 0.0000 0.0000 0.0000 0.0000 0.0000 18.4320
#
#
#
# Elastic Compliance Matrix: (Units=1/GPa)
#
#
# Indices 1 2 3 4 5 6 
#
# 1 0.010424 -0.000288 -0.004289 0.000000 0.000000 0.000000
# 2 -0.000288 0.020856 -0.004674 0.000000 0.000000 0.000000
# 3 -0.004289 -0.004674 0.009250 0.000000 0.000000 0.000000
# 4 0.000000 0.000000 0.000000 0.759409 0.000000 0.000000
# 5 0.000000 0.000000 0.000000 0.000000 -0.132923 0.000000
# 6 0.000000 0.000000 0.000000 0.000000 0.000000 0.054254
#
#
# Mechanical properties :
#
#
# Convention : Reuss Voigt Hill
#
# Bulk Modulus (GPa) = 45.39611 63.54087 54.46849
# Shear Modulus (GPa) = 6.69241 17.00368 11.84805
#
# Velocity S-wave (km/s) = 1.79999 2.86913 2.39498
# Velocity P-wave (km/s) = 5.12809 6.46046 5.83245
#
# Compressibility (1/GPa) = 0.02202832
#
# Stress axis : x y z
#
# Youngs Moduli (GPa) = 95.93168 47.94713 108.10936
#
# Poissons Ratio (x) = 0.01381 0.46367
# Poissons Ratio (y) = 0.02764 0.50529
# Poissons Ratio (z) = 0.41145 0.22410
#
# Static dielectric constant tensor:
#      x y z
#    x 1.764220 0.000000 0.000000 
#    y 0.000000 1.870360 0.000000 
#    z 0.000000 0.000000 1.763360 
# 
# From -- ./inp_files/69439.got.cif
#   From: 2010.05.17/outbox.cif.g08.bks.cpg/sg65_35_cif.got.tgz:69439.got - 2010.06.03 17:01:31.
