data_PCOD9489065
_publ_section_title
;
Structure prediction by ZEFSAII (Michael W. Deem and Ramdas Pophale) SiO2 
 PCOD9489065
Probable space group: C M M M
;
_chemical_formula_sum "Si O2"
_cell_formula_units_Z 80
_cell_length_a 7.781938
_cell_length_b 19.715443
_cell_length_c 28.765331
_cell_angle_alpha 90.000000
_cell_angle_beta 90.000000
_cell_angle_gamma 90.000000
_cell_volume 4413.302357
_symmetry_space_group_name_H-M "C M M M"
_symmetry_group_IT_number 65
_symmetry_cell_setting 'orthorhombic'
loop_
_space_group_symop_operation_xyz
x,y,z
-x,-y,z
x,-y,-z
-x,y,-z
-x,-y,-z
x,y,-z
-x,y,z
x,-y,z
1/2+x,1/2+y,z
1/2-x,1/2-y,z
1/2+x,1/2-y,-z
1/2-x,1/2+y,-z
1/2-x,1/2-y,-z
1/2+x,1/2+y,-z
1/2-x,1/2+y,z
1/2+x,1/2-y,z
loop_
_atom_site_type_symbol
_atom_site_label
_atom_site_fract_x
_atom_site_fract_y
_atom_site_fract_z
Si Si1 0.203298 0.081154 0.123906
Si Si2 0.294065 0.076683 0.399716
Si Si3 0.204254 0.171946 0.685452
Si Si4 0.000000 0.417760 0.947130
Si Si5 0.301072 0.082765 0.500000
Si Si6 0.793674 0.171549 0.210930
O O1 0.329313 0.101006 0.081807
O O2 0.261177 0.121686 0.169862
O O3 0.000000 0.094986 0.115000
O O4 0.219192 0.000000 0.131245
O O5 0.500000 0.072250 0.405381
O O6 0.261868 0.124095 0.356085
O O7 0.224870 0.102233 0.449877
O O8 0.229506 0.000000 0.391470
O O9 0.250000 0.250000 0.676014
O O10 0.273791 0.155006 0.737199
O O11 0.000000 0.166666 0.687788
O O12 0.000000 0.500000 0.949133
O O13 0.000000 0.392321 0.000000
O O14 0.500000 0.105876 0.500000
O O15 0.301325 0.000000 0.500000
O O16 0.750000 0.250000 0.201114
O O17 0.000000 0.166186 0.212600
#
# Coordination Sequence:
#
# PCOD9489065 Si02
#       6
#    16  16  16   8   8  16
#     4   9  18  33  52  77 106 135 171 213 255 300
#     4   9  17  31  51  74  97 125 162 203 250 301
#     4  10  20  34  50  70 100 131 165 206 250 301
#     4   9  18  32  52  80 108 136 171 210 256 302
#     4   7  12  26  48  69  92 123 159 199 244 299
#     4   9  19  33  51  73  96 132 169 202 249 302
#
# _framework density 18.127015
#
# number of rings (size 3 to 8) (size 9 to 14) (size 15 to 20)
#    0.000    3.000    0.000    1.800    1.400    2.400 
#    0.000    5.000    0.000    2.400    0.000    0.000 
#    0.000    0.000    0.000    0.000    0.000    0.000 
#
# Total GULP energy -222755.768601 kJ/mol
# GULP energy per Si atom -5568.894215 kJ/mol
# Density = 1.808576 g / cm^3
# Si number density = 18.127015 Si / 1000 Ang^3
#
#
#
# Elastic Constant Matrix: (Units=GPa)
#
#
# Indices 1 2 3 4 5 6 
#
# 1 50.3080 20.7948 49.7938 0.0000 0.0000 0.0000
# 2 20.7948 51.3040 87.4380 0.0000 0.0000 0.0000
# 3 49.7938 87.4380 208.8966 0.0000 0.0000 0.0000
# 4 0.0000 0.0000 0.0000 -22.8885 0.0000 0.0000
# 5 0.0000 0.0000 0.0000 0.0000 365.2004 0.0000
# 6 0.0000 0.0000 0.0000 0.0000 0.0000 9.8325
#
#
#
# Elastic Compliance Matrix: (Units=1/GPa)
#
#
# Indices 1 2 3 4 5 6 
#
# 1 0.026015 0.000084 -0.006236 0.000000 0.000000 0.000000
# 2 0.000084 0.068004 -0.028485 0.000000 0.000000 0.000000
# 3 -0.006236 -0.028485 0.018196 0.000000 0.000000 0.000000
# 4 0.000000 0.000000 0.000000 -0.043690 0.000000 0.000000
# 5 0.000000 0.000000 0.000000 0.000000 0.002738 0.000000
# 6 0.000000 0.000000 0.000000 0.000000 0.000000 0.101704
#
#
# Mechanical properties :
#
#
# Convention : Reuss Voigt Hill
#
# Bulk Modulus (GPa) = 23.28718 69.61797 46.45257
# Shear Modulus (GPa) = 19.48893 80.59435 50.04164
#
# Velocity S-wave (km/s) = 3.28248 6.67513 5.25985
# Velocity P-wave (km/s) = 5.21927 9.89439 7.91011
#
# Compressibility (1/GPa) = 0.04294208
#
# Stress axis : x y z
#
# Youngs Moduli (GPa) = 38.43870 14.70498 54.95600
#
# Poissons Ratio (x) = -0.00123 0.34272
# Poissons Ratio (y) = -0.00323 1.56540
# Poissons Ratio (z) = 0.23972 0.41886
#
# Static dielectric constant tensor:
#      x y z
#    x 1.657720 0.000000 0.000000 
#    y 0.000000 1.582350 0.000000 
#    z 0.000000 0.000000 1.661140 
# 
# From -- ./inp_files/67282.got.cif
#   From: 2010.05.17/outbox.cif.g08.bks.cpg/sg65_34_cif.got.tgz:67282.got - 2010.06.03 17:01:31.
