data_PCOD9489454
_publ_section_title
;
Structure prediction by ZEFSAII (Michael W. Deem and Ramdas Pophale) SiO2 
 PCOD9489454
Probable space group: C M M M
;
_chemical_formula_sum "Si O2"
_cell_formula_units_Z 72
_cell_length_a 8.644781
_cell_length_b 16.970586
_cell_length_c 25.731114
_cell_angle_alpha 90.000000
_cell_angle_beta 90.000000
_cell_angle_gamma 90.000000
_cell_volume 3774.934526
_symmetry_space_group_name_H-M "C M M M"
_symmetry_group_IT_number 65
_symmetry_cell_setting 'orthorhombic'
loop_
_space_group_symop_operation_xyz
x,y,z
-x,-y,z
x,-y,-z
-x,y,-z
-x,-y,-z
x,y,-z
-x,y,z
x,-y,z
1/2+x,1/2+y,z
1/2-x,1/2-y,z
1/2+x,1/2-y,-z
1/2-x,1/2+y,-z
1/2-x,1/2-y,-z
1/2+x,1/2+y,-z
1/2-x,1/2+y,z
1/2+x,1/2-y,z
loop_
_atom_site_type_symbol
_atom_site_label
_atom_site_fract_x
_atom_site_fract_y
_atom_site_fract_z
Si Si1 0.816374 0.664883 0.762437
Si Si2 0.311720 0.000000 0.939678
Si Si3 0.687561 0.162032 0.118271
Si Si4 0.825462 0.907723 0.336394
Si Si5 0.812351 0.838403 0.556090
O O1 0.750000 0.750000 0.748565
O O2 0.764859 0.647455 0.821519
O O3 0.737100 0.891617 0.716752
O O4 0.000000 0.667620 0.763687
O O5 0.262958 0.083524 0.913471
O O6 0.500000 0.000000 0.936690
O O7 0.266500 0.000000 0.000000
O O8 0.500000 0.166349 0.115376
O O9 0.750000 0.250000 0.103397
O O10 0.755672 0.874257 0.389701
O O11 0.000000 0.874751 0.329993
O O12 0.836563 0.000000 0.344317
O O13 0.767712 0.875407 0.500000
O O14 0.750000 0.750000 0.555123
O O15 0.000000 0.839920 0.557760
#
# Coordination Sequence:
#
# PCOD9489454 Si02
#       5
#    16   8  16  16  16
#     4  10  20  34  54  76 103 136 174 216 261 313
#     4   9  18  34  57  83 111 147 186 223 266 320
#     4   9  19  35  56  81 110 144 184 226 271 323
#     4  10  21  34  49  74 105 134 168 211 259 310
#     4   9  18  33  52  71  93 126 167 209 254 305
#
# _framework density 19.073177999999999
#
# number of rings (size 3 to 8) (size 9 to 14) (size 15 to 20)
#    0.000    2.556    0.000    1.333    1.556    4.889 
#    0.000    2.778    0.000    0.667    0.000    4.667 
#    0.000    0.000    0.000    0.000    0.000    0.000 
#
# Total GULP energy -200446.393340 kJ/mol
# GULP energy per Si atom -5567.955371 kJ/mol
# Density = 1.902977 g / cm^3
# Si number density = 19.073178 Si / 1000 Ang^3
#
#
#
# Elastic Constant Matrix: (Units=GPa)
#
#
# Indices 1 2 3 4 5 6 
#
# 1 7.5034 10.6992 15.5462 0.0000 0.0000 0.0000
# 2 10.6992 108.2862 81.3650 0.0000 0.0000 0.0000
# 3 15.5462 81.3650 113.3616 0.0000 0.0000 0.0000
# 4 0.0000 0.0000 0.0000 53.2113 0.0000 0.0000
# 5 0.0000 0.0000 0.0000 0.0000 19.2999 0.0000
# 6 0.0000 0.0000 0.0000 0.0000 0.0000 22.3057
#
#
#
# Elastic Compliance Matrix: (Units=1/GPa)
#
#
# Indices 1 2 3 4 5 6 
#
# 1 0.186318 0.001714 -0.026782 0.000000 0.000000 0.000000
# 2 0.001714 0.020061 -0.014634 0.000000 0.000000 0.000000
# 3 -0.026782 -0.014634 0.022998 0.000000 0.000000 0.000000
# 4 0.000000 0.000000 0.000000 0.018793 0.000000 0.000000
# 5 0.000000 0.000000 0.000000 0.000000 0.051814 0.000000
# 6 0.000000 0.000000 0.000000 0.000000 0.000000 0.044832
#
#
# Mechanical properties :
#
#
# Convention : Reuss Voigt Hill
#
# Bulk Modulus (GPa) = 6.66784 49.37469 28.02126
# Shear Modulus (GPa) = 10.54388 27.06609 18.80499
#
# Velocity S-wave (km/s) = 2.35375 3.77114 3.14337
# Velocity P-wave (km/s) = 3.30005 6.70113 5.28183
#
# Compressibility (1/GPa) = 0.14997361
#
# Stress axis : x y z
#
# Youngs Moduli (GPa) = 5.36718 49.84750 43.48269
#
# Poissons Ratio (x) = -0.08546 1.16455
# Poissons Ratio (y) = -0.00920 0.63632
# Poissons Ratio (z) = 0.14374 0.72947
#
# Static dielectric constant tensor:
#      x y z
#    x 1.683870 0.000000 0.000000 
#    y 0.000000 1.639320 0.000000 
#    z 0.000000 0.000000 1.698610 
# 
# From -- ./inp_files/74138.got.cif
#   From: 2010.05.17/outbox.cif.g08.bks.cpg/sg65_38_cif.got.tgz:74138.got - 2010.06.03 17:01:31.
