data_PCOD9489581
_publ_section_title
;
Structure prediction by ZEFSAII (Michael W. Deem and Ramdas Pophale) SiO2 
 PCOD9489581
Probable space group: C M M M
;
_chemical_formula_sum "Si O2"
_cell_formula_units_Z 104
_cell_length_a 17.926054
_cell_length_b 17.572308
_cell_length_c 18.506275
_cell_angle_alpha 90.000000
_cell_angle_beta 90.000000
_cell_angle_gamma 90.000000
_cell_volume 5829.516268
_symmetry_space_group_name_H-M "C M M M"
_symmetry_group_IT_number 65
_symmetry_cell_setting 'orthorhombic'
loop_
_space_group_symop_operation_xyz
x,y,z
-x,-y,z
x,-y,-z
-x,y,-z
-x,-y,-z
x,y,-z
-x,y,z
x,-y,z
1/2+x,1/2+y,z
1/2-x,1/2-y,z
1/2+x,1/2-y,-z
1/2-x,1/2+y,-z
1/2-x,1/2-y,-z
1/2+x,1/2+y,-z
1/2-x,1/2+y,z
1/2+x,1/2-y,z
loop_
_atom_site_type_symbol
_atom_site_label
_atom_site_fract_x
_atom_site_fract_y
_atom_site_fract_z
Si Si1 0.087040 0.690740 0.281599
Si Si2 0.000000 0.592578 0.082010
Si Si3 0.910957 0.913180 0.642153
Si Si4 0.648493 0.908827 0.166440
Si Si5 0.837754 0.763908 0.416293
Si Si6 0.800095 0.092137 0.915683
Si Si7 0.413728 0.647463 0.797914
O O1 0.140072 0.629080 0.244327
O O2 0.114569 0.713466 0.360842
O O3 0.093402 0.766933 0.232638
O O4 0.000000 0.667425 0.282221
O O5 0.074348 0.615978 0.123360
O O6 0.000000 0.500000 0.080382
O O7 0.000000 0.619817 0.000000
O O8 0.862911 0.850554 0.600461
O O9 0.894501 0.903833 0.727757
O O10 0.000000 0.896027 0.633777
O O11 0.898118 0.000000 0.619478
O O12 0.721074 0.887390 0.120880
O O13 0.647727 0.000000 0.172503
O O14 0.852457 0.746610 0.500000
O O15 0.750000 0.750000 0.402231
O O16 0.862780 0.129529 0.865872
O O17 0.807327 0.000000 0.912351
O O18 0.802813 0.113855 0.000000
O O19 0.500000 0.633701 0.816112
#
# Coordination Sequence:
#
# PCOD9489581 Si02
#       7
#    16   8  16  16  16  16  16
#     4  10  21  37  58  81 106 142 185 224 268 327
#     4   9  16  30  52  74 103 137 170 227 291 321
#     4   9  18  34  59  88 112 142 188 237 280 322
#     4  10  20  34  54  81 107 137 185 236 275 319
#     4  10  22  38  56  83 117 150 179 216 275 340
#     4  10  21  35  52  77 108 143 183 225 274 331
#     4   9  19  35  54  77 110 146 182 223 270 330
#
# _framework density 17.840244999999999
#
# number of rings (size 3 to 8) (size 9 to 14) (size 15 to 20)
#    0.000    2.385    0.769    2.308    4.308    4.615 
#    0.000    3.846    0.000    1.385    0.000    1.077 
#    0.000    0.000    0.000    0.000    0.000    0.000 
#
# Total GULP energy -290124.585078 kJ/mol
# GULP energy per Si atom -5579.318944 kJ/mol
# Density = 1.779964 g / cm^3
# Si number density = 17.840245 Si / 1000 Ang^3
#
#
#
# Elastic Constant Matrix: (Units=GPa)
#
#
# Indices 1 2 3 4 5 6 
#
# 1 93.3415 24.7254 69.6813 0.0000 0.0000 0.0000
# 2 24.7254 28.8256 28.4393 0.0000 0.0000 0.0000
# 3 69.6813 28.4393 120.9244 0.0000 0.0000 0.0000
# 4 0.0000 0.0000 0.0000 15.3134 0.0000 0.0000
# 5 0.0000 0.0000 0.0000 0.0000 20.2815 0.0000
# 6 0.0000 0.0000 0.0000 0.0000 0.0000 21.8082
#
#
#
# Elastic Compliance Matrix: (Units=1/GPa)
#
#
# Indices 1 2 3 4 5 6 
#
# 1 0.019981 -0.007525 -0.009744 0.000000 0.000000 0.000000
# 2 -0.007525 0.048007 -0.006954 0.000000 0.000000 0.000000
# 3 -0.009744 -0.006954 0.015520 0.000000 0.000000 0.000000
# 4 0.000000 0.000000 0.000000 0.065302 0.000000 0.000000
# 5 0.000000 0.000000 0.000000 0.000000 0.049306 0.000000
# 6 0.000000 0.000000 0.000000 0.000000 0.000000 0.045854
#
#
# Mechanical properties :
#
#
# Convention : Reuss Voigt Hill
#
# Bulk Modulus (GPa) = 28.52144 54.30927 41.41536
# Shear Modulus (GPa) = 16.44174 19.49698 17.96936
#
# Velocity S-wave (km/s) = 3.03910 3.30944 3.17714
# Velocity P-wave (km/s) = 5.32322 6.71649 6.06003
#
# Compressibility (1/GPa) = 0.03506134
#
# Stress axis : x y z
#
# Youngs Moduli (GPa) = 50.04830 20.83016 64.43356
#
# Poissons Ratio (x) = 0.15676 0.62783
# Poissons Ratio (y) = 0.37663 0.44808
# Poissons Ratio (z) = 0.48766 0.14485
#
# Static dielectric constant tensor:
#      x y z
#    x 1.602070 0.000000 0.000000 
#    y 0.000000 1.620860 0.000000 
#    z 0.000000 0.000000 1.602350 
# 
# From -- ./inp_files/54573.got.cif
#   From: 2010.05.17/outbox.cif.g08.bks.cpg/sg65_28_cif.got.tgz:54573.got - 2010.06.03 17:01:31.
