data_PCOD9489027
_publ_section_title
;
Structure prediction by ZEFSAII (Michael W. Deem and Ramdas Pophale) SiO2 
 PCOD9489027
Probable space group: C M M M
;
_chemical_formula_sum "Si O2"
_cell_formula_units_Z 104
_cell_length_a 27.389588
_cell_length_b 26.199298
_cell_length_c 7.861093
_cell_angle_alpha 90.000000
_cell_angle_beta 90.000000
_cell_angle_gamma 90.000000
_cell_volume 5641.025832
_symmetry_space_group_name_H-M "C M M M"
_symmetry_group_IT_number 65
_symmetry_cell_setting 'orthorhombic'
loop_
_space_group_symop_operation_xyz
x,y,z
-x,-y,z
x,-y,-z
-x,y,-z
-x,-y,-z
x,y,-z
-x,y,z
x,-y,z
1/2+x,1/2+y,z
1/2-x,1/2-y,z
1/2+x,1/2-y,-z
1/2-x,1/2+y,-z
1/2-x,1/2-y,-z
1/2+x,1/2+y,-z
1/2-x,1/2+y,z
1/2+x,1/2-y,z
loop_
_atom_site_type_symbol
_atom_site_label
_atom_site_fract_x
_atom_site_fract_y
_atom_site_fract_z
Si Si1 0.055965 0.797905 0.298873
Si Si2 0.888674 0.100480 0.803371
Si Si3 0.556814 0.864024 0.000000
Si Si4 0.110303 0.695986 0.702175
Si Si5 0.057888 0.000000 0.698796
Si Si6 0.686047 0.115125 0.304397
Si Si7 0.283991 0.439669 0.207344
Si Si8 0.131399 0.440785 0.000000
O O1 0.050497 0.791458 0.500000
O O2 0.081799 0.852119 0.271579
O O3 0.093760 0.753107 0.246265
O O4 0.000000 0.794925 0.226642
O O5 0.835761 0.083621 0.733821
O O6 0.921148 0.050200 0.784744
O O7 0.881003 0.113203 0.000000
O O8 0.578725 0.838143 0.169346
O O9 0.500000 0.858571 0.000000
O O10 0.576080 0.921663 0.000000
O O11 0.098994 0.689857 0.500000
O O12 0.165600 0.673301 0.721950
O O13 0.072341 0.000000 0.500000
O O14 0.000000 0.000000 0.708082
O O15 0.674109 0.102379 0.500000
O O16 0.741579 0.097895 0.272787
O O17 0.656977 0.082359 0.166168
O O18 0.278686 0.500000 0.257941
O O19 0.282718 0.439775 0.000000
O O20 0.137639 0.500000 0.000000
#
# Coordination Sequence:
#
# PCOD9489027 Si02
#       8
#    16  16   8  16   8  16  16   8
#     4  10  21  38  59  82 112 150 189 236 291 341
#     4  11  23  38  56  83 114 147 189 241 291 343
#     4  10  20  33  56  83 109 150 195 229 284 350
#     4   9  20  38  58  84 117 147 188 242 288 341
#     4  11  23  39  57  77 111 155 195 239 291 348
#     4  10  20  35  59  86 111 150 193 233 292 348
#     4  10  20  37  57  79 114 151 188 238 291 341
#     4  10  20  35  52  79 119 149 182 242 283 337
#
# _framework density 18.436364000000001
#
# number of rings (size 3 to 8) (size 9 to 14) (size 15 to 20)
#    0.000    1.923    1.538    2.077    1.077    6.308 
#    0.000    0.769    0.000    4.615    0.000    4.308 
#    0.000    0.000    0.000    0.000    0.000    0.000 
#
# Total GULP energy -289547.359274 kJ/mol
# GULP energy per Si atom -5568.218448 kJ/mol
# Density = 1.839440 g / cm^3
# Si number density = 18.436364 Si / 1000 Ang^3
#
#
#
# Elastic Constant Matrix: (Units=GPa)
#
#
# Indices 1 2 3 4 5 6 
#
# 1 106.9585 66.1213 13.9296 0.0000 0.0000 0.0000
# 2 66.1213 135.1881 15.5264 0.0000 0.0000 0.0000
# 3 13.9296 15.5264 40.5703 0.0000 0.0000 0.0000
# 4 0.0000 0.0000 0.0000 14.4210 0.0000 0.0000
# 5 0.0000 0.0000 0.0000 0.0000 24.7761 0.0000
# 6 0.0000 0.0000 0.0000 0.0000 0.0000 19.7832
#
#
#
# Elastic Compliance Matrix: (Units=1/GPa)
#
#
# Indices 1 2 3 4 5 6 
#
# 1 0.013590 -0.006392 -0.002220 0.000000 0.000000 0.000000
# 2 -0.006392 0.010744 -0.001917 0.000000 0.000000 0.000000
# 3 -0.002220 -0.001917 0.026144 0.000000 0.000000 0.000000
# 4 0.000000 0.000000 0.000000 0.069343 0.000000 0.000000
# 5 0.000000 0.000000 0.000000 0.000000 0.040361 0.000000
# 6 0.000000 0.000000 0.000000 0.000000 0.000000 0.050548
#
#
# Mechanical properties :
#
#
# Convention : Reuss Voigt Hill
#
# Bulk Modulus (GPa) = 33.98998 52.65240 43.32119
# Shear Modulus (GPa) = 20.69580 24.27206 22.48393
#
# Velocity S-wave (km/s) = 3.35409 3.63234 3.49598
# Velocity P-wave (km/s) = 5.78587 6.79800 6.31225
#
# Compressibility (1/GPa) = 0.02942044
#
# Stress axis : x y z
#
# Youngs Moduli (GPa) = 73.58337 93.07837 38.24914
#
# Poissons Ratio (x) = 0.59496 0.08491
# Poissons Ratio (y) = 0.47035 0.07332
# Poissons Ratio (z) = 0.16334 0.17843
#
# Static dielectric constant tensor:
#      x y z
#    x 1.668510 0.000000 0.000000 
#    y 0.000000 1.630070 0.000000 
#    z 0.000000 0.000000 1.661990 
# 
# From -- ./inp_files/16864.got.cif
#   From: 2010.05.17/outbox.cif.g08.bks.cpg/sg65_9_cif.got.tgz:16864.got - 2010.06.03 17:01:31.
