data_PCOD9489062
_publ_section_title
;
Structure prediction by ZEFSAII (Michael W. Deem and Ramdas Pophale) SiO2 
 PCOD9489062
Probable space group: C M M M
;
_chemical_formula_sum "Si O2"
_cell_formula_units_Z 96
_cell_length_a 8.735852
_cell_length_b 27.659946
_cell_length_c 24.693298
_cell_angle_alpha 90.000000
_cell_angle_beta 90.000000
_cell_angle_gamma 90.000000
_cell_volume 5966.720481
_symmetry_space_group_name_H-M "C M M M"
_symmetry_group_IT_number 65
_symmetry_cell_setting 'orthorhombic'
loop_
_space_group_symop_operation_xyz
x,y,z
-x,-y,z
x,-y,-z
-x,y,-z
-x,-y,-z
x,y,-z
-x,y,z
x,-y,z
1/2+x,1/2+y,z
1/2-x,1/2-y,z
1/2+x,1/2-y,-z
1/2-x,1/2+y,-z
1/2-x,1/2-y,-z
1/2+x,1/2+y,-z
1/2-x,1/2+y,z
1/2+x,1/2-y,z
loop_
_atom_site_type_symbol
_atom_site_label
_atom_site_fract_x
_atom_site_fract_y
_atom_site_fract_z
Si Si1 0.816500 0.804496 0.559296
Si Si2 0.684823 0.403255 0.938642
Si Si3 0.183365 0.148630 0.223082
Si Si4 0.817381 0.444981 0.830998
Si Si5 0.816785 0.801597 0.111261
Si Si6 0.317597 0.195700 0.329549
O O1 0.780495 0.826394 0.500000
O O2 0.750000 0.750000 0.557778
O O3 0.744705 0.825956 0.613750
O O4 0.000000 0.802316 0.564681
O O5 0.500000 0.407133 0.932485
O O6 0.763936 0.434786 0.892502
O O7 0.726194 0.347236 0.926107
O O8 0.724894 0.416221 0.000000
O O9 0.234420 0.095173 0.205326
O O10 0.228922 0.183224 0.172511
O O11 0.261488 0.165886 0.277943
O O12 0.000000 0.150858 0.228309
O O13 0.779338 0.500000 0.816043
O O14 0.000000 0.438452 0.827228
O O15 0.750000 0.750000 0.095808
O O16 0.000000 0.798209 0.110203
O O17 0.500000 0.198675 0.331317
O O18 0.250000 0.250000 0.324443
#
# Coordination Sequence:
#
# PCOD9489062 Si02
#       6
#    16  16  16  16  16  16
#     4   9  16  26  40  59  87 125 167 205 237 270
#     4   9  19  35  51  68  92 121 154 188 222 270
#     4  10  20  34  50  68  92 121 156 194 231 278
#     4  10  21  36  53  73  95 116 142 184 238 289
#     4   9  18  30  45  65  89 119 151 185 223 263
#     4  11  20  29  44  67  97 131 165 199 236 276
#
# _framework density 16.08924
#
# number of rings (size 3 to 8) (size 9 to 14) (size 15 to 20)
#    0.000    2.333    0.000    5.500    0.000    8.000 
#    0.000    1.667    0.000    0.000    0.000    0.000 
#    0.000    0.667    0.000    7.000    0.000    3.000 
#
# Total GULP energy -267673.864782 kJ/mol
# GULP energy per Si atom -5576.538850 kJ/mol
# Density = 1.605262 g / cm^3
# Si number density = 16.089240 Si / 1000 Ang^3
#
#
#
# Elastic Constant Matrix: (Units=GPa)
#
#
# Indices 1 2 3 4 5 6 
#
# 1 59.9532 13.6575 33.2421 0.0000 0.0000 0.0000
# 2 13.6575 44.6467 8.3937 0.0000 0.0000 0.0000
# 3 33.2421 8.3937 102.4684 0.0000 0.0000 0.0000
# 4 0.0000 0.0000 0.0000 10.3398 0.0000 0.0000
# 5 0.0000 0.0000 0.0000 0.0000 24.4743 0.0000
# 6 0.0000 0.0000 0.0000 0.0000 0.0000 22.6640
#
#
#
# Elastic Compliance Matrix: (Units=1/GPa)
#
#
# Indices 1 2 3 4 5 6 
#
# 1 0.021529 -0.005355 -0.006546 0.000000 0.000000 0.000000
# 2 -0.005355 0.024080 -0.000235 0.000000 0.000000 0.000000
# 3 -0.006546 -0.000235 0.011902 0.000000 0.000000 0.000000
# 4 0.000000 0.000000 0.000000 0.096713 0.000000 0.000000
# 5 0.000000 0.000000 0.000000 0.000000 0.040859 0.000000
# 6 0.000000 0.000000 0.000000 0.000000 0.000000 0.044123
#
#
# Mechanical properties :
#
#
# Convention : Reuss Voigt Hill
#
# Bulk Modulus (GPa) = 30.08495 35.29498 32.68997
# Shear Modulus (GPa) = 18.21106 21.61396 19.91251
#
# Velocity S-wave (km/s) = 3.36799 3.66919 3.52181
# Velocity P-wave (km/s) = 5.81927 6.31943 6.07450
#
# Compressibility (1/GPa) = 0.03323921
#
# Stress axis : x y z
#
# Youngs Moduli (GPa) = 46.44916 41.52742 84.02048
#
# Poissons Ratio (x) = 0.22239 0.54996
# Poissons Ratio (y) = 0.24874 0.01977
# Poissons Ratio (z) = 0.30404 0.00977
#
# Static dielectric constant tensor:
#      x y z
#    x 1.539010 0.000000 0.000000 
#    y 0.000000 1.518910 0.000000 
#    z 0.000000 0.000000 1.565700 
# 
# From -- ./inp_files/68038.got.cif
#   From: 2010.05.17/outbox.cif.g08.bks.cpg/sg65_35_cif.got.tgz:68038.got - 2010.06.03 17:01:31.
