data_PCOD9489122
_publ_section_title
;
Structure prediction by ZEFSAII (Michael W. Deem and Ramdas Pophale) SiO2 
 PCOD9489122
Probable space group: C M M M
;
_chemical_formula_sum "Si O2"
_cell_formula_units_Z 64
_cell_length_a 8.412199
_cell_length_b 13.730377
_cell_length_c 26.791790
_cell_angle_alpha 90.000000
_cell_angle_beta 90.000000
_cell_angle_gamma 90.000000
_cell_volume 3094.523109
_symmetry_space_group_name_H-M "C M M M"
_symmetry_group_IT_number 65
_symmetry_cell_setting 'orthorhombic'
loop_
_space_group_symop_operation_xyz
x,y,z
-x,-y,z
x,-y,-z
-x,y,-z
-x,-y,-z
x,y,-z
-x,y,z
x,-y,z
1/2+x,1/2+y,z
1/2-x,1/2-y,z
1/2+x,1/2-y,-z
1/2-x,1/2+y,-z
1/2-x,1/2-y,-z
1/2+x,1/2+y,-z
1/2-x,1/2+y,z
1/2+x,1/2-y,z
loop_
_atom_site_type_symbol
_atom_site_label
_atom_site_fract_x
_atom_site_fract_y
_atom_site_fract_z
Si Si1 0.176296 0.609741 0.837972
Si Si2 0.690674 0.639550 0.055710
Si Si3 0.500000 0.884749 0.440116
Si Si4 0.750000 0.750000 0.615896
Si Si5 0.500000 0.616482 0.327248
Si Si6 0.500000 0.615902 0.791877
O O1 0.167351 0.500000 0.816897
O O2 0.215575 0.601170 0.896697
O O3 0.334685 0.655192 0.814178
O O4 0.000000 0.652695 0.831168
O O5 0.500000 0.631933 0.064180
O O6 0.750000 0.750000 0.054155
O O7 0.722367 0.600986 0.000000
O O8 0.500000 0.881948 0.500000
O O9 0.353161 0.823038 0.418154
O O10 0.500000 0.000000 0.425324
O O11 0.647034 0.676749 0.649906
O O12 0.500000 0.500000 0.339743
O O13 0.500000 0.624435 0.267531
O O14 0.500000 0.500000 0.805334
#
# Coordination Sequence:
#
# PCOD9489122 Si02
#       6
#    16  16   8   8   8   8
#     4  10  20  36  57  80 105 138 181 229 286 356
#     4  10  20  34  51  73 102 135 170 217 281 352
#     4  10  20  36  61  94 133 173 212 264 320 367
#     4  10  21  38  60  94 126 168 227 260 306 392
#     4  10  21  41  63  85 127 172 209 273 329 364
#     4   9  19  39  58  77 111 150 192 245 309 364
#
# _framework density 20.681699999999999
#
# number of rings (size 3 to 8) (size 9 to 14) (size 15 to 20)
#    0.000    2.125    1.250    1.875    0.000    2.000 
#    6.750    2.500    0.000    6.000    0.000    0.000 
#    0.000    0.000    0.000    0.000    0.000    0.000 
#
# Total GULP energy -178416.826372 kJ/mol
# GULP energy per Si atom -5575.525824 kJ/mol
# Density = 2.063463 g / cm^3
# Si number density = 20.681700 Si / 1000 Ang^3
#
#
#
# Elastic Constant Matrix: (Units=GPa)
#
#
# Indices 1 2 3 4 5 6 
#
# 1 194.7581 72.3165 74.7327 0.0000 0.0000 0.0000
# 2 72.3165 158.8023 45.5657 0.0000 0.0000 0.0000
# 3 74.7327 45.5657 92.9207 0.0000 0.0000 0.0000
# 4 0.0000 0.0000 0.0000 23.9455 0.0000 0.0000
# 5 0.0000 0.0000 0.0000 0.0000 15.6283 0.0000
# 6 0.0000 0.0000 0.0000 0.0000 0.0000 23.4818
#
#
#
# Elastic Compliance Matrix: (Units=1/GPa)
#
#
# Indices 1 2 3 4 5 6 
#
# 1 0.007979 -0.002086 -0.005394 0.000000 0.000000 0.000000
# 2 -0.002086 0.007873 -0.002183 0.000000 0.000000 0.000000
# 3 -0.005394 -0.002183 0.016171 0.000000 0.000000 0.000000
# 4 0.000000 0.000000 0.000000 0.041761 0.000000 0.000000
# 5 0.000000 0.000000 0.000000 0.000000 0.063986 0.000000
# 6 0.000000 0.000000 0.000000 0.000000 0.000000 0.042586
#
#
# Mechanical properties :
#
#
# Convention : Reuss Voigt Hill
#
# Bulk Modulus (GPa) = 78.76274 92.41232 85.58753
# Shear Modulus (GPa) = 24.51981 29.53555 27.02768
#
# Velocity S-wave (km/s) = 3.44696 3.78312 3.61895
# Velocity P-wave (km/s) = 7.34902 7.99142 7.67694
#
# Compressibility (1/GPa) = 0.01269636
#
# Stress axis : x y z
#
# Youngs Moduli (GPa) = 125.32941 127.00922 61.83859
#
# Poissons Ratio (x) = 0.26490 0.33358
# Poissons Ratio (y) = 0.26140 0.13502
# Poissons Ratio (z) = 0.67608 0.27732
#
# Static dielectric constant tensor:
#      x y z
#    x 1.767010 0.000000 0.000000 
#    y 0.000000 1.755930 0.000000 
#    z 0.000000 0.000000 1.686720 
# 
# From -- ./inp_files/72411.got.cif
#   From: 2010.05.17/outbox.cif.g08.bks.cpg/sg65_37_cif.got.tgz:72411.got - 2010.06.03 17:01:31.
