data_PCOD9489224
_publ_section_title
;
Structure prediction by ZEFSAII (Michael W. Deem and Ramdas Pophale) SiO2 
 PCOD9489224
Probable space group: C M M M
;
_chemical_formula_sum "Si O2"
_cell_formula_units_Z 80
_cell_length_a 18.491985
_cell_length_b 26.736284
_cell_length_c 7.515839
_cell_angle_alpha 90.000000
_cell_angle_beta 90.000000
_cell_angle_gamma 90.000000
_cell_volume 3715.883132
_symmetry_space_group_name_H-M "C M M M"
_symmetry_group_IT_number 65
_symmetry_cell_setting 'orthorhombic'
loop_
_space_group_symop_operation_xyz
x,y,z
-x,-y,z
x,-y,-z
-x,y,-z
-x,-y,-z
x,y,-z
-x,y,z
x,-y,z
1/2+x,1/2+y,z
1/2-x,1/2-y,z
1/2+x,1/2-y,-z
1/2-x,1/2+y,-z
1/2-x,1/2-y,-z
1/2+x,1/2+y,-z
1/2-x,1/2+y,z
1/2+x,1/2-y,z
loop_
_atom_site_type_symbol
_atom_site_label
_atom_site_fract_x
_atom_site_fract_y
_atom_site_fract_z
Si Si1 0.915191 0.554995 0.216540
Si Si2 0.916563 0.757606 0.784111
Si Si3 0.082778 0.943029 0.282919
Si Si4 0.319046 0.647100 0.292706
Si Si5 0.155163 0.655824 0.205580
O O1 0.890426 0.500000 0.278444
O O2 0.871939 0.603140 0.282908
O O3 0.000000 0.560429 0.260315
O O4 0.910338 0.553972 0.000000
O O5 0.871094 0.805331 0.724125
O O6 0.880134 0.706109 0.718548
O O7 0.000000 0.760605 0.728611
O O8 0.914619 0.757965 0.000000
O O9 0.082950 0.941870 0.500000
O O10 0.138892 0.901408 0.219916
O O11 0.000000 0.931749 0.228312
O O12 0.099924 0.000000 0.229614
O O13 0.304524 0.637822 0.500000
O O14 0.241500 0.657968 0.209367
O O15 0.130892 0.655141 0.000000
#
# Coordination Sequence:
#
# PCOD9489224 Si02
#       5
#    16  16  16  16  16
#     4   8  14  27  50  78 103 129 168 216 257 293
#     4  10  21  37  56  75  97 130 171 211 251 298
#     4   8  15  30  51  72  95 127 167 206 243 288
#     4  11  22  34  51  77 106 134 166 206 251 299
#     4  10  20  34  52  75 104 136 168 204 250 303
#
# _framework density 21.529202999999999
#
# number of rings (size 3 to 8) (size 9 to 14) (size 15 to 20)
#    0.000    2.600    0.000    3.600    0.000    7.600 
#    0.000    0.000    0.000    3.600    0.000    8.400 
#    0.000    0.000    0.000    0.000    0.000    0.000 
#
# Total GULP energy -223374.833077 kJ/mol
# GULP energy per Si atom -5584.370827 kJ/mol
# Density = 2.148020 g / cm^3
# Si number density = 21.529203 Si / 1000 Ang^3
#
#
#
# Elastic Constant Matrix: (Units=GPa)
#
#
# Indices 1 2 3 4 5 6 
#
# 1 91.0564 69.9184 -16.2046 0.0000 0.0000 0.0000
# 2 69.9184 153.6963 -10.0213 0.0000 0.0000 0.0000
# 3 -16.2046 -10.0213 54.1596 0.0000 0.0000 0.0000
# 4 0.0000 0.0000 0.0000 9.3438 0.0000 0.0000
# 5 0.0000 0.0000 0.0000 0.0000 202.1087 0.0000
# 6 0.0000 0.0000 0.0000 0.0000 0.0000 -39.8205
#
#
#
# Elastic Compliance Matrix: (Units=1/GPa)
#
#
# Indices 1 2 3 4 5 6 
#
# 1 0.017632 -0.007771 0.003838 0.000000 0.000000 0.000000
# 2 -0.007771 0.010011 -0.000473 0.000000 0.000000 0.000000
# 3 0.003838 -0.000473 0.019525 0.000000 0.000000 0.000000
# 4 0.000000 0.000000 0.000000 0.107023 0.000000 0.000000
# 5 0.000000 0.000000 0.000000 0.000000 0.004948 0.000000
# 6 0.000000 0.000000 0.000000 0.000000 0.000000 -0.025113
#
#
# Mechanical properties :
#
#
# Convention : Reuss Voigt Hill
#
# Bulk Modulus (GPa) = 26.07186 42.92191 34.49689
# Shear Modulus (GPa) = 32.12908 51.34106 41.73507
#
# Velocity S-wave (km/s) = 3.86728 4.88865 4.40765
# Velocity P-wave (km/s) = 5.66370 7.20036 6.47775
#
# Compressibility (1/GPa) = 0.03835552
#
# Stress axis : x y z
#
# Youngs Moduli (GPa) = 56.71488 99.89451 51.21714
#
# Poissons Ratio (x) = 0.77626 -0.19655
# Poissons Ratio (y) = 0.44072 0.02421
# Poissons Ratio (z) = -0.21765 0.04723
#
# Static dielectric constant tensor:
#      x y z
#    x 1.718730 0.000000 0.000000 
#    y 0.000000 1.775200 0.000000 
#    z 0.000000 0.000000 1.853750 
# 
# From -- ./inp_files/9617.got.cif
#   From: 2010.05.17/outbox.cif.g08.bks.cpg/sg65_5_cif.got.tgz:9617.got - 2010.06.03 17:01:31.
