data_PCOD9489005
_publ_section_title
;
Structure prediction by ZEFSAII (Michael W. Deem and Ramdas Pophale) SiO2 
 PCOD9489005
Probable space group: C M M M
;
_chemical_formula_sum "Si O2"
_cell_formula_units_Z 80
_cell_length_a 9.650192
_cell_length_b 17.596775
_cell_length_c 25.406817
_cell_angle_alpha 90.000000
_cell_angle_beta 90.000000
_cell_angle_gamma 90.000000
_cell_volume 4314.388946
_symmetry_space_group_name_H-M "C M M M"
_symmetry_group_IT_number 65
_symmetry_cell_setting 'orthorhombic'
loop_
_space_group_symop_operation_xyz
x,y,z
-x,-y,z
x,-y,-z
-x,y,-z
-x,-y,-z
x,y,-z
-x,y,z
x,-y,z
1/2+x,1/2+y,z
1/2-x,1/2-y,z
1/2+x,1/2-y,-z
1/2-x,1/2+y,-z
1/2-x,1/2-y,-z
1/2+x,1/2+y,-z
1/2-x,1/2+y,z
1/2+x,1/2-y,z
loop_
_atom_site_type_symbol
_atom_site_label
_atom_site_fract_x
_atom_site_fract_y
_atom_site_fract_z
Si Si1 0.500000 0.874545 0.436966
Si Si2 0.340659 0.590685 0.261474
Si Si3 0.164177 0.328261 0.943386
Si Si4 0.500000 0.306561 0.437703
Si Si5 0.333404 0.170421 0.828070
Si Si6 0.717717 0.586991 0.382610
O O1 0.500000 0.888041 0.500000
O O2 0.500000 0.783353 0.428112
O O3 0.632718 0.908922 0.408553
O O4 0.500000 0.619126 0.255590
O O5 0.344576 0.500000 0.255690
O O6 0.236575 0.623651 0.218543
O O7 0.288911 0.606210 0.320753
O O8 0.250000 0.250000 0.943723
O O9 0.190951 0.365495 0.886512
O O10 0.000000 0.310520 0.943003
O O11 0.193543 0.367345 0.000000
O O12 0.500000 0.317689 0.500000
O O13 0.371035 0.350211 0.412715
O O14 0.500000 0.179806 0.821098
O O15 0.250000 0.250000 0.828275
O O16 0.664405 0.500000 0.388133
#
# Coordination Sequence:
#
# PCOD9489005 Si02
#       6
#     8  16  16   8  16  16
#     4  11  25  41  59  91 127 151 178 231 296 345
#     4  10  22  41  59  78 109 147 189 240 290 332
#     4   8  14  26  45  72 108 145 181 225 275 326
#     4  11  23  41  63  87 117 151 188 231 286 343
#     4  10  20  33  54  85 115 147 189 233 280 338
#     4  11  23  41  63  86 113 152 197 236 279 341
#
# _framework density 18.542603
#
# number of rings (size 3 to 8) (size 9 to 14) (size 15 to 20)
#    0.000    2.000    1.000    2.400    1.400    6.800 
#    0.000    0.000    0.000    0.600    0.000    4.200 
#    0.000    0.000    0.000    0.000    0.000    0.000 
#
# Total GULP energy -222929.575723 kJ/mol
# GULP energy per Si atom -5573.239393 kJ/mol
# Density = 1.850040 g / cm^3
# Si number density = 18.542603 Si / 1000 Ang^3
#
#
#
# Elastic Constant Matrix: (Units=GPa)
#
#
# Indices 1 2 3 4 5 6 
#
# 1 114.4096 20.5828 66.8988 0.0000 0.0000 0.0000
# 2 20.5828 44.3163 62.8863 0.0000 0.0000 0.0000
# 3 66.8988 62.8863 168.1736 0.0000 0.0000 0.0000
# 4 0.0000 0.0000 0.0000 50.1002 0.0000 0.0000
# 5 0.0000 0.0000 0.0000 0.0000 30.7531 0.0000
# 6 0.0000 0.0000 0.0000 0.0000 0.0000 25.0797
#
#
#
# Elastic Compliance Matrix: (Units=1/GPa)
#
#
# Indices 1 2 3 4 5 6 
#
# 1 0.011514 0.002454 -0.005498 0.000000 0.000000 0.000000
# 2 0.002454 0.048598 -0.019149 0.000000 0.000000 0.000000
# 3 -0.005498 -0.019149 0.015294 0.000000 0.000000 0.000000
# 4 0.000000 0.000000 0.000000 0.019960 0.000000 0.000000
# 5 0.000000 0.000000 0.000000 0.000000 0.032517 0.000000
# 6 0.000000 0.000000 0.000000 0.000000 0.000000 0.039873
#
#
# Mechanical properties :
#
#
# Convention : Reuss Voigt Hill
#
# Bulk Modulus (GPa) = 32.23705 69.73727 50.98716
# Shear Modulus (GPa) = 22.47387 32.95537 27.71462
#
# Velocity S-wave (km/s) = 3.48517 4.22035 3.87026
# Velocity P-wave (km/s) = 5.79814 7.83833 6.89412
#
# Compressibility (1/GPa) = 0.03102021
#
# Stress axis : x y z
#
# Youngs Moduli (GPa) = 86.85270 20.57696 65.38676
#
# Poissons Ratio (x) = -0.05049 0.35948
# Poissons Ratio (y) = -0.21312 1.25207
# Poissons Ratio (z) = 0.47749 0.39402
#
# Static dielectric constant tensor:
#      x y z
#    x 1.495140 0.000000 0.000000 
#    y 0.000000 1.621340 0.000000 
#    z 0.000000 0.000000 1.667430 
# 
# From -- ./inp_files/72897.got.cif
#   From: 2010.05.17/outbox.cif.g08.bks.cpg/sg65_37_cif.got.tgz:72897.got - 2010.06.03 17:01:31.
