data_PCOD9489239
_publ_section_title
;
Structure prediction by ZEFSAII (Michael W. Deem and Ramdas Pophale) SiO2 
 PCOD9489239
Probable space group: C M M M
;
_chemical_formula_sum "Si O2"
_cell_formula_units_Z 80
_cell_length_a 8.138442
_cell_length_b 19.356438
_cell_length_c 28.497873
_cell_angle_alpha 90.000000
_cell_angle_beta 90.000000
_cell_angle_gamma 90.000000
_cell_volume 4489.305499
_symmetry_space_group_name_H-M "C M M M"
_symmetry_group_IT_number 65
_symmetry_cell_setting 'orthorhombic'
loop_
_space_group_symop_operation_xyz
x,y,z
-x,-y,z
x,-y,-z
-x,y,-z
-x,-y,-z
x,y,-z
-x,y,z
x,-y,z
1/2+x,1/2+y,z
1/2-x,1/2-y,z
1/2+x,1/2-y,-z
1/2-x,1/2+y,-z
1/2-x,1/2-y,-z
1/2+x,1/2+y,-z
1/2-x,1/2+y,z
1/2+x,1/2-y,z
loop_
_atom_site_type_symbol
_atom_site_label
_atom_site_fract_x
_atom_site_fract_y
_atom_site_fract_z
Si Si1 0.197227 0.171366 0.709326
Si Si2 0.806638 0.916878 0.381181
Si Si3 0.695292 0.579270 0.000000
Si Si4 0.000000 0.583891 0.553701
Si Si5 0.803698 0.171348 0.185943
Si Si6 0.695218 0.078524 0.900370
O O1 0.250000 0.250000 0.699397
O O2 0.242412 0.120050 0.667478
O O3 0.258909 0.152439 0.761612
O O4 0.000000 0.170357 0.711379
O O5 0.668336 0.896274 0.419285
O O6 0.000000 0.899627 0.392076
O O7 0.800354 0.000000 0.376088
O O8 0.750004 0.610000 0.049638
O O9 0.762529 0.500000 0.000000
O O10 0.500000 0.576568 0.000000
O O11 0.000000 0.500000 0.552891
O O12 0.000000 0.608386 0.500000
O O13 0.750000 0.250000 0.177134
O O14 0.745393 0.122215 0.144567
O O15 0.000000 0.168894 0.186824
O O16 0.500000 0.074459 0.901380
O O17 0.763611 0.000000 0.897181
#
# Coordination Sequence:
#
# PCOD9489239 Si02
#       6
#    16  16   8   8  16  16
#     4   9  19  33  52  76 100 136 174 209 257 311
#     4   9  18  33  52  78 108 137 175 220 262 307
#     4   9  17  31  52  75  98 129 170 209 253 311
#     4   9  18  32  52  80 108 138 175 214 264 314
#     4  10  20  35  53  74 104 136 172 213 257 312
#     4  10  20  34  52  76 104 134 169 211 258 306
#
# _framework density 17.820129000000001
#
# number of rings (size 3 to 8) (size 9 to 14) (size 15 to 20)
#    0.000    2.600    0.000    1.500    1.400    4.400 
#    0.000    4.500    0.000    0.600    0.000    0.000 
#    0.000    0.000    0.000    0.000    0.000    0.000 
#
# Total GULP energy -222847.318654 kJ/mol
# GULP energy per Si atom -5571.182966 kJ/mol
# Density = 1.777957 g / cm^3
# Si number density = 17.820129 Si / 1000 Ang^3
#
#
#
# Elastic Constant Matrix: (Units=GPa)
#
#
# Indices 1 2 3 4 5 6 
#
# 1 70.7577 25.5063 67.5595 0.0000 0.0000 0.0000
# 2 25.5063 36.3748 67.3730 0.0000 0.0000 0.0000
# 3 67.5595 67.3730 186.3053 0.0000 0.0000 0.0000
# 4 0.0000 0.0000 0.0000 -34.3036 0.0000 0.0000
# 5 0.0000 0.0000 0.0000 0.0000 28.3313 0.0000
# 6 0.0000 0.0000 0.0000 0.0000 0.0000 20.6694
#
#
#
# Elastic Compliance Matrix: (Units=1/GPa)
#
#
# Indices 1 2 3 4 5 6 
#
# 1 0.021663 -0.001939 -0.007154 0.000000 0.000000 0.000000
# 2 -0.001939 0.083431 -0.029468 0.000000 0.000000 0.000000
# 3 -0.007154 -0.029468 0.018618 0.000000 0.000000 0.000000
# 4 0.000000 0.000000 0.000000 -0.029151 0.000000 0.000000
# 5 0.000000 0.000000 0.000000 0.000000 0.035297 0.000000
# 6 0.000000 0.000000 0.000000 0.000000 0.000000 0.048381
#
#
# Mechanical properties :
#
#
# Convention : Reuss Voigt Hill
#
# Bulk Modulus (GPa) = 21.46381 68.25726 44.86054
# Shear Modulus (GPa) = 18.45768 11.80602 15.13185
#
# Velocity S-wave (km/s) = 3.22184 2.57672 2.91717
# Velocity P-wave (km/s) = 5.09030 6.87308 6.04775
#
# Compressibility (1/GPa) = 0.04659004
#
# Stress axis : x y z
#
# Youngs Moduli (GPa) = 46.16250 11.98594 53.71060
#
# Poissons Ratio (x) = 0.02324 0.38427
# Poissons Ratio (y) = 0.08950 1.58274
# Poissons Ratio (z) = 0.33026 0.35320
#
# Static dielectric constant tensor:
#      x y z
#    x 1.614800 0.000000 0.000000 
#    y 0.000000 1.584990 0.000000 
#    z 0.000000 0.000000 1.629550 
# 
# From -- ./inp_files/70807.got.cif
#   From: 2010.05.17/outbox.cif.g08.bks.cpg/sg65_36_cif.got.tgz:70807.got - 2010.06.03 17:01:31.
