data_PCOD9489598
_publ_section_title
;
Structure prediction by ZEFSAII (Michael W. Deem and Ramdas Pophale) SiO2 
 PCOD9489598
Probable space group: C M M M
;
_chemical_formula_sum "Si O2"
_cell_formula_units_Z 88
_cell_length_a 25.268613
_cell_length_b 8.914523
_cell_length_c 22.076949
_cell_angle_alpha 90.000000
_cell_angle_beta 90.000000
_cell_angle_gamma 90.000000
_cell_volume 4973.001248
_symmetry_space_group_name_H-M "C M M M"
_symmetry_group_IT_number 65
_symmetry_cell_setting 'orthorhombic'
loop_
_space_group_symop_operation_xyz
x,y,z
-x,-y,z
x,-y,-z
-x,y,-z
-x,-y,-z
x,y,-z
-x,y,z
x,-y,z
1/2+x,1/2+y,z
1/2-x,1/2-y,z
1/2+x,1/2-y,-z
1/2-x,1/2+y,-z
1/2-x,1/2-y,-z
1/2+x,1/2+y,-z
1/2-x,1/2+y,z
1/2+x,1/2-y,z
loop_
_atom_site_type_symbol
_atom_site_label
_atom_site_fract_x
_atom_site_fract_y
_atom_site_fract_z
Si Si1 0.500000 0.322189 0.738841
Si Si2 0.806684 0.678946 0.801649
Si Si3 0.693628 0.821278 0.658284
Si Si4 0.000000 0.320833 0.928598
Si Si5 0.109177 0.821595 0.431157
Si Si6 0.000000 0.321601 0.392306
Si Si7 0.085624 0.179215 0.841984
O O1 0.500000 0.500000 0.723677
O O2 0.500000 0.226259 0.678282
O O3 0.448883 0.291495 0.780939
O O4 0.805228 0.500000 0.810259
O O5 0.750000 0.750000 0.818473
O O6 0.814818 0.709114 0.729746
O O7 0.856478 0.750690 0.835669
O O8 0.750000 0.750000 0.641693
O O9 0.648502 0.748811 0.617595
O O10 0.694765 0.000000 0.649942
O O11 0.948906 0.250251 0.895763
O O12 0.000000 0.500000 0.919334
O O13 0.000000 0.289841 0.000000
O O14 0.127713 0.794216 0.500000
O O15 0.052025 0.748263 0.422086
O O16 0.105274 0.000000 0.421917
O O17 0.000000 0.500000 0.398150
O O18 0.088438 0.000000 0.849169
#
# Coordination Sequence:
#
# PCOD9489598 Si02
#       7
#     8  16  16   8  16   8  16
#     4   9  19  34  53  78 108 140 172 213 266 322
#     4  10  20  34  54  81 112 144 178 218 266 320
#     4  10  21  37  58  82 107 137 173 217 268 320
#     4  10  21  37  58  84 115 152 190 227 265 305
#     4  11  24  40  56  73  97 133 175 219 268 324
#     4  12  24  36  54  78 103 133 170 216 271 328
#     4  10  20  34  55  83 113 146 183 222 265 312
#
# _framework density 17.695550000000001
#
# number of rings (size 3 to 8) (size 9 to 14) (size 15 to 20)
#    0.000    1.727    0.000    5.182    0.000   10.909 
#    0.000    0.000    0.000    0.545    0.000    0.000 
#    0.000    0.000    0.000    0.000    0.000    0.000 
#
# Total GULP energy -245904.407320 kJ/mol
# GULP energy per Si atom -5588.736530 kJ/mol
# Density = 1.765527 g / cm^3
# Si number density = 17.695550 Si / 1000 Ang^3
#
#
#
# Elastic Constant Matrix: (Units=GPa)
#
#
# Indices 1 2 3 4 5 6 
#
# 1 162.7164 66.1571 54.8864 0.0000 0.0000 0.0000
# 2 66.1571 82.5624 54.9007 0.0000 0.0000 0.0000
# 3 54.8864 54.9007 70.3599 0.0000 0.0000 0.0000
# 4 0.0000 0.0000 0.0000 26.1313 0.0000 0.0000
# 5 0.0000 0.0000 0.0000 0.0000 34.0945 0.0000
# 6 0.0000 0.0000 0.0000 0.0000 0.0000 37.8086
#
#
#
# Elastic Compliance Matrix: (Units=1/GPa)
#
#
# Indices 1 2 3 4 5 6 
#
# 1 0.009416 -0.005530 -0.003030 0.000000 0.000000 0.000000
# 2 -0.005530 0.028421 -0.017863 0.000000 0.000000 0.000000
# 3 -0.003030 -0.017863 0.030515 0.000000 0.000000 0.000000
# 4 0.000000 0.000000 0.000000 0.038268 0.000000 0.000000
# 5 0.000000 0.000000 0.000000 0.000000 0.029330 0.000000
# 6 0.000000 0.000000 0.000000 0.000000 0.000000 0.026449
#
#
# Mechanical properties :
#
#
# Convention : Reuss Voigt Hill
#
# Bulk Modulus (GPa) = 64.49255 74.16968 69.33112
# Shear Modulus (GPa) = 22.68448 28.91982 25.80215
#
# Velocity S-wave (km/s) = 3.58429 4.04703 3.82267
# Velocity P-wave (km/s) = 7.32491 7.99020 7.66477
#
# Compressibility (1/GPa) = 0.01550567
#
# Stress axis : x y z
#
# Youngs Moduli (GPa) = 106.19869 35.18476 32.77124
#
# Poissons Ratio (x) = 0.19458 0.09931
# Poissons Ratio (y) = 0.58730 0.58538
# Poissons Ratio (z) = 0.32182 0.62850
#
# Static dielectric constant tensor:
#      x y z
#    x 1.570120 0.000000 0.000000 
#    y 0.000000 1.584020 0.000000 
#    z 0.000000 0.000000 1.583720 
# 
# From -- ./inp_files/59877.got.cif
#   From: 2010.05.17/outbox.cif.g08.bks.cpg/sg65_30_cif.got.tgz:59877.got - 2010.06.03 17:01:31.
