data_PCOD9489117
_publ_section_title
;
Structure prediction by ZEFSAII (Michael W. Deem and Ramdas Pophale) SiO2 
 PCOD9489117
Probable space group: C M M M
;
_chemical_formula_sum "Si O2"
_cell_formula_units_Z 72
_cell_length_a 10.303247
_cell_length_b 26.168981
_cell_length_c 13.090150
_cell_angle_alpha 90.000000
_cell_angle_beta 90.000000
_cell_angle_gamma 90.000000
_cell_volume 3529.437911
_symmetry_space_group_name_H-M "C M M M"
_symmetry_group_IT_number 65
_symmetry_cell_setting 'orthorhombic'
loop_
_space_group_symop_operation_xyz
x,y,z
-x,-y,z
x,-y,-z
-x,y,-z
-x,-y,-z
x,y,-z
-x,y,z
x,-y,z
1/2+x,1/2+y,z
1/2-x,1/2-y,z
1/2+x,1/2-y,-z
1/2-x,1/2+y,-z
1/2-x,1/2-y,-z
1/2+x,1/2+y,-z
1/2-x,1/2+y,z
1/2+x,1/2-y,z
loop_
_atom_site_type_symbol
_atom_site_label
_atom_site_fract_x
_atom_site_fract_y
_atom_site_fract_z
Si Si1 0.500000 0.441892 0.377601
Si Si2 0.847879 0.292545 0.669260
Si Si3 0.350768 0.054954 0.829511
Si Si4 0.216089 0.593003 0.615803
Si Si5 0.342303 0.834151 0.110855
O O1 0.500000 0.500000 0.335640
O O2 0.500000 0.446569 0.500000
O O3 0.367864 0.412423 0.354459
O O4 0.750000 0.250000 0.627912
O O5 0.828407 0.348299 0.619884
O O6 0.810901 0.302568 0.788235
O O7 0.000000 0.278232 0.661059
O O8 0.500000 0.053332 0.864830
O O9 0.352443 0.062704 0.706859
O O10 0.294257 0.107439 0.873789
O O11 0.289897 0.000000 0.854232
O O12 0.197429 0.573510 0.500000
O O13 0.500000 0.836259 0.111259
O O14 0.299833 0.814839 0.000000
#
# Coordination Sequence:
#
# PCOD9489117 Si02
#       5
#     8  16  16  16  16
#     4   9  18  32  52  78 105 139 185 225 261 316
#     4  10  22  37  55  79 106 139 183 228 276 329
#     4   9  17  28  45  73 104 135 173 212 257 317
#     4  10  20  34  51  72 104 140 179 223 267 313
#     4   8  15  30  50  73 103 135 169 214 264 316
#
# _framework density 20.399849
#
# number of rings (size 3 to 8) (size 9 to 14) (size 15 to 20)
#    0.000    2.778    0.000    2.667    1.556    4.444 
#    0.000    3.333    0.000    0.000    0.000    0.000 
#    0.000    8.444    0.000    0.000    0.000    0.000 
#
# Total GULP energy -200541.838510 kJ/mol
# GULP energy per Si atom -5570.606625 kJ/mol
# Density = 2.035342 g / cm^3
# Si number density = 20.399849 Si / 1000 Ang^3
#
#
#
# Elastic Constant Matrix: (Units=GPa)
#
#
# Indices 1 2 3 4 5 6 
#
# 1 72.0703 30.6772 -1.3797 0.0000 0.0000 0.0000
# 2 30.6772 86.2181 -11.4026 0.0000 0.0000 0.0000
# 3 -1.3797 -11.4026 77.1749 0.0000 0.0000 0.0000
# 4 0.0000 0.0000 0.0000 -9.5664 0.0000 0.0000
# 5 0.0000 0.0000 0.0000 0.0000 -6.7654 0.0000
# 6 0.0000 0.0000 0.0000 0.0000 0.0000 23.6832
#
#
#
# Elastic Compliance Matrix: (Units=1/GPa)
#
#
# Indices 1 2 3 4 5 6 
#
# 1 0.016377 -0.005904 -0.000579 0.000000 0.000000 0.000000
# 2 -0.005904 0.013958 0.001957 0.000000 0.000000 0.000000
# 3 -0.000579 0.001957 0.013236 0.000000 0.000000 0.000000
# 4 0.000000 0.000000 0.000000 -0.104533 0.000000 0.000000
# 5 0.000000 0.000000 0.000000 0.000000 -0.147811 0.000000
# 6 0.000000 0.000000 0.000000 0.000000 0.000000 0.042224
#
#
# Mechanical properties :
#
#
# Convention : Reuss Voigt Hill
#
# Bulk Modulus (GPa) = 28.97014 30.13925 29.55470
# Shear Modulus (GPa) = -34.24917 15.97485 -9.13716
#
# Velocity S-wave (km/s) = -4.10188 2.80140 -2.11867
# Velocity P-wave (km/s) = 2.86389 5.02694 2.92133
#
# Compressibility (1/GPa) = 0.03451830
#
# Stress axis : x y z
#
# Youngs Moduli (GPa) = 61.06031 71.64400 75.54968
#
# Poissons Ratio (x) = 0.42297 0.04378
# Poissons Ratio (y) = 0.36049 -0.14783
# Poissons Ratio (z) = 0.03538 -0.14019
#
# Static dielectric constant tensor:
#      x y z
#    x 1.729620 0.000000 0.000000 
#    y 0.000000 1.738500 0.000000 
#    z 0.000000 0.000000 1.767580 
# 
# From -- ./inp_files/36571.got.cif
#   From: 2010.05.17/outbox.cif.g08.bks.cpg/sg65_19_cif.got.tgz:36571.got - 2010.06.03 17:01:31.
