data_PCOD9489563
_publ_section_title
;
Structure prediction by ZEFSAII (Michael W. Deem and Ramdas Pophale) SiO2 
 PCOD9489563
Probable space group: C M M M
;
_chemical_formula_sum "Si O2"
_cell_formula_units_Z 96
_cell_length_a 18.796261
_cell_length_b 9.160377
_cell_length_c 31.492939
_cell_angle_alpha 90.000000
_cell_angle_beta 90.000000
_cell_angle_gamma 90.000000
_cell_volume 5422.480595
_symmetry_space_group_name_H-M "C M M M"
_symmetry_group_IT_number 65
_symmetry_cell_setting 'orthorhombic'
loop_
_space_group_symop_operation_xyz
x,y,z
-x,-y,z
x,-y,-z
-x,y,-z
-x,-y,-z
x,y,-z
-x,y,z
x,-y,z
1/2+x,1/2+y,z
1/2-x,1/2-y,z
1/2+x,1/2-y,-z
1/2-x,1/2+y,-z
1/2-x,1/2-y,-z
1/2+x,1/2+y,-z
1/2-x,1/2+y,z
1/2+x,1/2-y,z
loop_
_atom_site_type_symbol
_atom_site_label
_atom_site_fract_x
_atom_site_fract_y
_atom_site_fract_z
Si Si1 0.673492 0.826270 0.548940
Si Si2 0.413405 0.167947 0.292549
Si Si3 0.915841 0.673577 0.049324
Si Si4 0.083605 0.825893 0.793758
Si Si5 0.085733 0.829599 0.378559
Si Si6 0.826474 0.825277 0.122219
O O1 0.650691 0.801174 0.500000
O O2 0.750000 0.750000 0.554249
O O3 0.620104 0.756535 0.582542
O O4 0.679733 0.000000 0.555323
O O5 0.500000 0.169903 0.292500
O O6 0.391674 0.241696 0.248315
O O7 0.390919 0.258126 0.333951
O O8 0.390415 0.000000 0.295231
O O9 0.904071 0.500000 0.055733
O O10 0.869529 0.765060 0.081897
O O11 0.000000 0.701150 0.055821
O O12 0.899434 0.706433 0.000000
O O13 0.129043 0.789527 0.835215
O O14 0.000000 0.791861 0.801190
O O15 0.088405 0.000000 0.786189
O O16 0.000000 0.819530 0.380701
O O17 0.105288 0.000000 0.380031
O O18 0.750000 0.750000 0.123906
O O19 0.819442 0.000000 0.119668
#
# Coordination Sequence:
#
# PCOD9489563 Si02
#       6
#    16  16  16  16  16  16
#     4  10  21  37  56  77 104 139 178 220 265 316
#     4   9  17  30  51  79 107 135 171 216 265 316
#     4   9  19  37  60  84 109 138 175 220 267 316
#     4   9  18  34  55  77 102 134 174 218 264 316
#     4  10  20  34  54  80 110 142 176 218 266 314
#     4  11  23  37  54  78 110 146 181 220 266 315
#
# _framework density 17.704073999999999
#
# number of rings (size 3 to 8) (size 9 to 14) (size 15 to 20)
#    0.000    2.333    0.000    3.000    0.000    7.333 
#    0.000    5.000    0.000    2.000    0.000    0.000 
#    0.000    0.000    0.000    0.000    0.000    0.000 
#
# Total GULP energy -267917.178698 kJ/mol
# GULP energy per Si atom -5581.607890 kJ/mol
# Density = 1.766378 g / cm^3
# Si number density = 17.704074 Si / 1000 Ang^3
#
#
#
# Elastic Constant Matrix: (Units=GPa)
#
#
# Indices 1 2 3 4 5 6 
#
# 1 55.0892 59.9932 75.7390 0.0000 0.0000 0.0000
# 2 59.9932 114.0040 106.0356 0.0000 0.0000 0.0000
# 3 75.7390 106.0356 166.1347 0.0000 0.0000 0.0000
# 4 0.0000 0.0000 0.0000 37.7263 0.0000 0.0000
# 5 0.0000 0.0000 0.0000 0.0000 -20.1410 0.0000
# 6 0.0000 0.0000 0.0000 0.0000 0.0000 23.0557
#
#
#
# Elastic Compliance Matrix: (Units=1/GPa)
#
#
# Indices 1 2 3 4 5 6 
#
# 1 0.056723 -0.014268 -0.016753 0.000000 0.000000 0.000000
# 2 -0.014268 0.025175 -0.009563 0.000000 0.000000 0.000000
# 3 -0.016753 -0.009563 0.019760 0.000000 0.000000 0.000000
# 4 0.000000 0.000000 0.000000 0.026507 0.000000 0.000000
# 5 0.000000 0.000000 0.000000 0.000000 -0.049650 0.000000
# 6 0.000000 0.000000 0.000000 0.000000 0.000000 0.043373
#
#
# Mechanical properties :
#
#
# Convention : Reuss Voigt Hill
#
# Bulk Modulus (GPa) = 48.80393 90.97371 69.88882
# Shear Modulus (GPa) = 23.82244 14.35888 19.09066
#
# Velocity S-wave (km/s) = 3.67221 2.85098 3.28734
# Velocity P-wave (km/s) = 6.75326 7.89524 7.34647
#
# Compressibility (1/GPa) = 0.02049015
#
# Stress axis : x y z
#
# Youngs Moduli (GPa) = 17.62952 39.72247 50.60617
#
# Poissons Ratio (x) = 0.56675 0.84780
# Poissons Ratio (y) = 0.25153 0.48396
# Poissons Ratio (z) = 0.29535 0.37987
#
# Static dielectric constant tensor:
#      x y z
#    x 1.582140 0.000000 0.000000 
#    y 0.000000 1.589710 0.000000 
#    z 0.000000 0.000000 1.582220 
# 
# From -- ./inp_files/73133.got.cif
#   From: 2010.05.17/outbox.cif.g08.bks.cpg/sg65_37_cif.got.tgz:73133.got - 2010.06.03 17:01:31.
