data_PCOD9489912
_publ_section_title
;
Structure prediction by ZEFSAII (Michael W. Deem and Ramdas Pophale) SiO2 
 PCOD9489912
Probable space group: C M M M
;
_chemical_formula_sum "Si O2"
_cell_formula_units_Z 96
_cell_length_a 28.712935
_cell_length_b 18.174716
_cell_length_c 7.451605
_cell_angle_alpha 90.000000
_cell_angle_beta 90.000000
_cell_angle_gamma 90.000000
_cell_volume 3888.615890
_symmetry_space_group_name_H-M "C M M M"
_symmetry_group_IT_number 65
_symmetry_cell_setting 'orthorhombic'
loop_
_space_group_symop_operation_xyz
x,y,z
-x,-y,z
x,-y,-z
-x,y,-z
-x,-y,-z
x,y,-z
-x,y,z
x,-y,z
1/2+x,1/2+y,z
1/2-x,1/2-y,z
1/2+x,1/2-y,-z
1/2-x,1/2+y,-z
1/2-x,1/2-y,-z
1/2+x,1/2+y,-z
1/2-x,1/2+y,z
1/2+x,1/2-y,z
loop_
_atom_site_type_symbol
_atom_site_label
_atom_site_fract_x
_atom_site_fract_y
_atom_site_fract_z
Si Si1 0.688934 0.916335 0.716541
Si Si2 0.444950 0.921300 0.787816
Si Si3 0.617360 0.204121 0.300499
Si Si4 0.639473 0.581454 0.215881
Si Si5 0.446434 0.331765 0.286894
Si Si6 0.224038 0.823332 0.788927
O O1 0.683468 0.916891 0.500000
O O2 0.657370 0.847481 0.785054
O O3 0.740720 0.891100 0.764419
O O4 0.679463 0.000000 0.780108
O O5 0.500000 0.921166 0.768911
O O6 0.423127 0.855659 0.684558
O O7 0.426634 0.000000 0.725263
O O8 0.434930 0.914315 0.000000
O O9 0.633510 0.225847 0.500000
O O10 0.588981 0.270072 0.208625
O O11 0.653328 0.500000 0.279752
O O12 0.585507 0.596596 0.262581
O O13 0.674654 0.645870 0.281676
O O14 0.643186 0.581507 0.000000
O O15 0.449536 0.316537 0.500000
O O16 0.500000 0.333067 0.219901
O O17 0.250000 0.750000 0.713942
O O18 0.216776 0.808048 0.000000
#
# Coordination Sequence:
#
# PCOD9489912 Si02
#       6
#    16  16  16  16  16  16
#     4  10  21  35  53  82 118 154 193 234 277 331
#     4   9  18  31  46  68 100 138 183 234 283 331
#     4  10  20  35  54  77 109 147 186 230 279 331
#     4  10  22  40  61  86 116 149 187 231 279 335
#     4  10  22  39  59  85 114 145 187 238 289 341
#     4  10  21  38  61  88 117 150 189 231 278 334
#
# _framework density 24.687448
#
# number of rings (size 3 to 8) (size 9 to 14) (size 15 to 20)
#    0.000    2.167    0.000    3.000    0.000    6.333 
#    0.000    2.500    0.000    0.000    0.000    0.000 
#    0.000    0.000    0.000    0.000    0.000    0.000 
#
# Total GULP energy -267842.230488 kJ/mol
# GULP energy per Si atom -5580.046468 kJ/mol
# Density = 2.463126 g / cm^3
# Si number density = 24.687448 Si / 1000 Ang^3
#
#
#
# Elastic Constant Matrix: (Units=GPa)
#
#
# Indices 1 2 3 4 5 6 
#
# 1 169.2749 70.2690 8.3546 0.0000 0.0000 0.0000
# 2 70.2690 123.8235 16.5455 0.0000 0.0000 0.0000
# 3 8.3546 16.5455 68.8650 0.0000 0.0000 0.0000
# 4 0.0000 0.0000 0.0000 -20.3633 0.0000 0.0000
# 5 0.0000 0.0000 0.0000 0.0000 17.8731 0.0000
# 6 0.0000 0.0000 0.0000 0.0000 0.0000 46.4720
#
#
#
# Elastic Compliance Matrix: (Units=1/GPa)
#
#
# Indices 1 2 3 4 5 6 
#
# 1 0.007729 -0.004402 0.000120 0.000000 0.000000 0.000000
# 2 -0.004402 0.010851 -0.002073 0.000000 0.000000 0.000000
# 3 0.000120 -0.002073 0.015005 0.000000 0.000000 0.000000
# 4 0.000000 0.000000 0.000000 -0.049108 0.000000 0.000000
# 5 0.000000 0.000000 0.000000 0.000000 0.055950 0.000000
# 6 0.000000 0.000000 0.000000 0.000000 0.000000 0.021518
#
#
# Mechanical properties :
#
#
# Convention : Reuss Voigt Hill
#
# Bulk Modulus (GPa) = 47.90547 61.36684 54.63615
# Shear Modulus (GPa) = 61.26400 26.58266 43.92333
#
# Velocity S-wave (km/s) = 4.98696 3.28497 4.22260
# Velocity P-wave (km/s) = 7.25304 6.26893 6.77887
#
# Compressibility (1/GPa) = 0.02087444
#
# Stress axis : x y z
#
# Youngs Moduli (GPa) = 129.38171 92.15529 66.64592
#
# Poissons Ratio (x) = 0.40569 -0.00800
# Poissons Ratio (y) = 0.56957 0.13816
# Poissons Ratio (z) = -0.01553 0.19104
#
# Static dielectric constant tensor:
#      x y z
#    x 1.975420 0.000000 0.000000 
#    y 0.000000 2.148230 0.000000 
#    z 0.000000 0.000000 1.971490 
# 
# From -- ./inp_files/16303.got.cif
#   From: 2010.05.17/outbox.cif.g08.bks.cpg/sg65_9_cif.got.tgz:16303.got - 2010.06.03 17:01:31.
