data_PCOD9489290
_publ_section_title
;
Structure prediction by ZEFSAII (Michael W. Deem and Ramdas Pophale) SiO2 
 PCOD9489290
Probable space group: C M M M
;
_chemical_formula_sum "Si O2"
_cell_formula_units_Z 104
_cell_length_a 9.131634
_cell_length_b 18.508940
_cell_length_c 34.506950
_cell_angle_alpha 90.000000
_cell_angle_beta 90.000000
_cell_angle_gamma 90.000000
_cell_volume 5832.256538
_symmetry_space_group_name_H-M "C M M M"
_symmetry_group_IT_number 65
_symmetry_cell_setting 'orthorhombic'
loop_
_space_group_symop_operation_xyz
x,y,z
-x,-y,z
x,-y,-z
-x,y,-z
-x,-y,-z
x,y,-z
-x,y,z
x,-y,z
1/2+x,1/2+y,z
1/2-x,1/2-y,z
1/2+x,1/2-y,-z
1/2-x,1/2+y,-z
1/2-x,1/2-y,-z
1/2+x,1/2+y,-z
1/2-x,1/2+y,z
1/2+x,1/2-y,z
loop_
_atom_site_type_symbol
_atom_site_label
_atom_site_fract_x
_atom_site_fract_y
_atom_site_fract_z
Si Si1 0.822947 0.671973 0.734501
Si Si2 0.322027 0.917417 0.810437
Si Si3 0.331391 0.411937 0.578086
Si Si4 0.673646 0.585818 0.955059
Si Si5 0.324123 0.827988 0.886896
Si Si6 0.824688 0.415093 0.657166
Si Si7 0.668763 0.088236 0.500000
O O1 0.750000 0.750000 0.735884
O O2 0.777055 0.624978 0.771794
O O3 0.783654 0.630517 0.694902
O O4 0.000000 0.678663 0.735479
O O5 0.500000 0.919659 0.809923
O O6 0.280154 0.874700 0.849169
O O7 0.269503 0.000000 0.810769
O O8 0.500000 0.389444 0.577452
O O9 0.327704 0.500000 0.577763
O O10 0.253376 0.389884 0.617885
O O11 0.249022 0.387894 0.539219
O O12 0.500000 0.599160 0.948993
O O13 0.698385 0.500000 0.949625
O O14 0.767770 0.631113 0.925036
O O15 0.706843 0.602981 0.000000
O O16 0.500000 0.821424 0.887412
O O17 0.250000 0.750000 0.884653
O O18 0.789732 0.500000 0.663463
O O19 0.000000 0.410328 0.651935
O O20 0.500000 0.110305 0.500000
O O21 0.671962 0.000000 0.500000
#
# Coordination Sequence:
#
# PCOD9489290 Si02
#       7
#    16  16  16  16  16  16   8
#     4  10  20  34  53  75 101 132 165 205 251 300
#     4   9  18  34  56  80 104 133 172 215 258 306
#     4   9  16  25  39  62  93 126 159 201 252 297
#     4   9  19  37  59  81 107 140 178 222 271 320
#     4  11  22  35  54  80 111 145 180 220 265 315
#     4   9  17  30  48  69  93 126 168 206 242 290
#     4   9  15  23  37  59  90 127 164 201 242 293
#
# _framework density 17.831863999999999
#
# number of rings (size 3 to 8) (size 9 to 14) (size 15 to 20)
#    0.000    2.538    0.000    3.000    0.000    6.769 
#    0.000    1.538    0.000    3.231    0.000    0.538 
#    0.000    0.000    0.000    0.000    0.000    0.000 
#
# Total GULP energy -290122.366598 kJ/mol
# GULP energy per Si atom -5579.276281 kJ/mol
# Density = 1.779128 g / cm^3
# Si number density = 17.831864 Si / 1000 Ang^3
#
#
#
# Elastic Constant Matrix: (Units=GPa)
#
#
# Indices 1 2 3 4 5 6 
#
# 1 58.9275 52.4258 77.3731 0.0000 0.0000 0.0000
# 2 52.4258 101.6083 97.0792 0.0000 0.0000 0.0000
# 3 77.3731 97.0792 191.9338 0.0000 0.0000 0.0000
# 4 0.0000 0.0000 0.0000 -8.0937 0.0000 0.0000
# 5 0.0000 0.0000 0.0000 0.0000 9.7535 0.0000
# 6 0.0000 0.0000 0.0000 0.0000 0.0000 18.8364
#
#
#
# Elastic Compliance Matrix: (Units=1/GPa)
#
#
# Indices 1 2 3 4 5 6 
#
# 1 0.041030 -0.010386 -0.011287 0.000000 0.000000 0.000000
# 2 -0.010386 0.021674 -0.006776 0.000000 0.000000 0.000000
# 3 -0.011287 -0.006776 0.013187 0.000000 0.000000 0.000000
# 4 0.000000 0.000000 0.000000 -0.123553 0.000000 0.000000
# 5 0.000000 0.000000 0.000000 0.000000 0.102527 0.000000
# 6 0.000000 0.000000 0.000000 0.000000 0.000000 0.053089
#
#
# Mechanical properties :
#
#
# Convention : Reuss Voigt Hill
#
# Bulk Modulus (GPa) = 52.64811 89.58064 71.11437
# Shear Modulus (GPa) = 29.20834 12.47202 20.84018
#
# Velocity S-wave (km/s) = 4.05159 2.64753 3.42234
# Velocity P-wave (km/s) = 7.17468 7.72601 7.45544
#
# Compressibility (1/GPa) = 0.01899403
#
# Stress axis : x y z
#
# Youngs Moduli (GPa) = 24.37231 46.13733 75.82954
#
# Poissons Ratio (x) = 0.47918 0.85589
# Poissons Ratio (y) = 0.25313 0.51382
# Poissons Ratio (z) = 0.27509 0.31263
#
# Static dielectric constant tensor:
#      x y z
#    x 1.596990 0.000000 0.000000 
#    y 0.000000 1.584800 0.000000 
#    z 0.000000 0.000000 1.592860 
# 
# From -- ./inp_files/76882.got.cif
#   From: 2010.05.17/outbox.cif.g08.bks.cpg/sg65_39_cif.got.tgz:76882.got - 2010.06.03 17:01:31.
