data_PCOD9489568
_publ_section_title
;
Structure prediction by ZEFSAII (Michael W. Deem and Ramdas Pophale) SiO2 
 PCOD9489568
Probable space group: C M M M
;
_chemical_formula_sum "Si O2"
_cell_formula_units_Z 72
_cell_length_a 32.474928
_cell_length_b 14.705411
_cell_length_c 7.770339
_cell_angle_alpha 90.000000
_cell_angle_beta 90.000000
_cell_angle_gamma 90.000000
_cell_volume 3710.781052
_symmetry_space_group_name_H-M "C M M M"
_symmetry_group_IT_number 65
_symmetry_cell_setting 'orthorhombic'
loop_
_space_group_symop_operation_xyz
x,y,z
-x,-y,z
x,-y,-z
-x,y,-z
-x,-y,-z
x,y,-z
-x,y,z
x,-y,z
1/2+x,1/2+y,z
1/2-x,1/2-y,z
1/2+x,1/2-y,-z
1/2-x,1/2+y,-z
1/2-x,1/2-y,-z
1/2+x,1/2+y,-z
1/2-x,1/2+y,z
1/2+x,1/2-y,z
loop_
_atom_site_type_symbol
_atom_site_label
_atom_site_fract_x
_atom_site_fract_y
_atom_site_fract_z
Si Si1 0.164488 0.391249 0.297094
Si Si2 0.819467 0.898221 0.000000
Si Si3 0.877899 0.107774 0.702727
Si Si4 0.000000 0.397506 0.797723
Si Si5 0.228934 0.652026 0.000000
Si Si6 0.581570 0.212885 0.294695
O O1 0.172584 0.369558 0.500000
O O2 0.158552 0.500000 0.285970
O O3 0.201110 0.364705 0.167826
O O4 0.122689 0.340903 0.239037
O O5 0.839584 0.862113 0.823911
O O6 0.770845 0.904218 0.000000
O O7 0.835664 0.000000 0.000000
O O8 0.867901 0.120026 0.500000
O O9 0.913278 0.180490 0.752154
O O10 0.888169 0.000000 0.721805
O O11 0.959408 0.339457 0.756779
O O12 0.000000 0.500000 0.719048
O O13 0.000000 0.409100 0.000000
O O14 0.250000 0.750000 0.000000
O O15 0.582057 0.209919 0.500000
#
# Coordination Sequence:
#
# PCOD9489568 Si02
#       6
#    16   8  16   8   8  16
#     4  10  22  39  59  84 116 156 200 244 293 351
#     4  10  20  34  54  80 110 150 194 238 288 336
#     4   9  19  36  59  87 118 154 197 241 286 341
#     4  11  25  39  58  91 120 146 186 238 290 346
#     4  12  24  36  56  84 117 156 196 244 297 350
#     4  10  21  39  62  85 114 155 194 235 291 346
#
# _framework density 19.402923000000001
#
# number of rings (size 3 to 8) (size 9 to 14) (size 15 to 20)
#    0.000    1.889    0.000    3.333    3.111    3.111 
#    0.000    2.778    0.000    3.333    0.000    0.000 
#    0.000    0.000    0.000    0.000    0.000    0.000 
#
# Total GULP energy -200528.557359 kJ/mol
# GULP energy per Si atom -5570.237704 kJ/mol
# Density = 1.935876 g / cm^3
# Si number density = 19.402923 Si / 1000 Ang^3
#
#
#
# Elastic Constant Matrix: (Units=GPa)
#
#
# Indices 1 2 3 4 5 6 
#
# 1 152.4456 84.1167 61.1821 0.0000 0.0000 0.0000
# 2 84.1167 136.4843 58.3170 0.0000 0.0000 0.0000
# 3 61.1821 58.3170 73.3108 0.0000 0.0000 0.0000
# 4 0.0000 0.0000 0.0000 16.9087 0.0000 0.0000
# 5 0.0000 0.0000 0.0000 0.0000 40.4392 0.0000
# 6 0.0000 0.0000 0.0000 0.0000 0.0000 36.5089
#
#
#
# Elastic Compliance Matrix: (Units=1/GPa)
#
#
# Indices 1 2 3 4 5 6 
#
# 1 0.011437 -0.004500 -0.005965 0.000000 0.000000 0.000000
# 2 -0.004500 0.012870 -0.006482 0.000000 0.000000 0.000000
# 3 -0.005965 -0.006482 0.023775 0.000000 0.000000 0.000000
# 4 0.000000 0.000000 0.000000 0.059141 0.000000 0.000000
# 5 0.000000 0.000000 0.000000 0.000000 0.024728 0.000000
# 6 0.000000 0.000000 0.000000 0.000000 0.000000 0.027391
#
#
# Mechanical properties :
#
#
# Convention : Reuss Voigt Hill
#
# Bulk Modulus (GPa) = 70.48495 85.49692 77.99093
# Shear Modulus (GPa) = 25.25690 29.34635 27.30162
#
# Velocity S-wave (km/s) = 3.61183 3.89327 3.75519
# Velocity P-wave (km/s) = 7.33482 8.02307 7.68665
#
# Compressibility (1/GPa) = 0.01418743
#
# Stress axis : x y z
#
# Youngs Moduli (GPa) = 87.43853 77.70077 42.06039
#
# Poissons Ratio (x) = 0.34963 0.25089
# Poissons Ratio (y) = 0.39345 0.27265
# Poissons Ratio (z) = 0.52158 0.50369
#
# Static dielectric constant tensor:
#      x y z
#    x 1.696640 0.000000 0.000000 
#    y 0.000000 1.666520 0.000000 
#    z 0.000000 0.000000 1.719820 
# 
# From -- ./inp_files/15813.got.cif
#   From: 2010.05.17/outbox.cif.g08.bks.cpg/sg65_8_cif.got.tgz:15813.got - 2010.06.03 17:01:31.
