data_PCOD9489206
_publ_section_title
;
Structure prediction by ZEFSAII (Michael W. Deem and Ramdas Pophale) SiO2 
 PCOD9489206
Probable space group: C M M M
;
_chemical_formula_sum "Si O2"
_cell_formula_units_Z 96
_cell_length_a 7.800057
_cell_length_b 26.163864
_cell_length_c 19.341424
_cell_angle_alpha 90.000000
_cell_angle_beta 90.000000
_cell_angle_gamma 90.000000
_cell_volume 3947.190664
_symmetry_space_group_name_H-M "C M M M"
_symmetry_group_IT_number 65
_symmetry_cell_setting 'orthorhombic'
loop_
_space_group_symop_operation_xyz
x,y,z
-x,-y,z
x,-y,-z
-x,y,-z
-x,-y,-z
x,y,-z
-x,y,z
x,-y,z
1/2+x,1/2+y,z
1/2-x,1/2-y,z
1/2+x,1/2-y,-z
1/2-x,1/2+y,-z
1/2-x,1/2-y,-z
1/2+x,1/2+y,-z
1/2-x,1/2+y,z
1/2+x,1/2-y,z
loop_
_atom_site_type_symbol
_atom_site_label
_atom_site_fract_x
_atom_site_fract_y
_atom_site_fract_z
Si Si1 0.311380 0.194848 0.082116
Si Si2 0.295928 0.805752 0.276220
Si Si3 0.797942 0.084390 0.774037
Si Si4 0.302835 0.582272 0.076971
Si Si5 0.790127 0.335636 0.425569
Si Si6 0.201867 0.554630 0.378898
O O1 0.500000 0.183329 0.111706
O O2 0.250000 0.250000 0.107093
O O3 0.198962 0.143981 0.085886
O O4 0.329834 0.201597 0.000000
O O5 0.500000 0.812096 0.277481
O O6 0.250000 0.750000 0.250108
O O7 0.223741 0.854216 0.235100
O O8 0.230800 0.808857 0.355555
O O9 0.727959 0.065670 0.848646
O O10 0.718850 0.061970 0.703986
O O11 0.000000 0.072710 0.772921
O O12 0.500000 0.564907 0.074584
O O13 0.227025 0.571156 0.000000
O O14 0.732324 0.315774 0.500000
O O15 0.732397 0.394467 0.415443
O O16 0.000000 0.334599 0.425244
O O17 0.278362 0.500000 0.398498
O O18 0.000000 0.553348 0.395057
#
# Coordination Sequence:
#
# PCOD9489206 Si02
#       6
#    16  16  16  16  16  16
#     4   9  16  25  38  57  82 113 148 186 231 284
#     4  10  20  34  52  74 103 140 179 215 250 292
#     4  10  20  34  53  75  99 130 169 213 258 305
#     4   9  18  32  48  66  89 118 155 202 256 307
#     4   8  15  29  50  78 109 137 168 207 248 292
#     4   9  18  33  54  79 106 136 167 202 248 301
#
# _framework density 24.321096000000001
#
# number of rings (size 3 to 8) (size 9 to 14) (size 15 to 20)
#    0.000    2.833    0.000    2.500    0.000    5.000 
#    0.000    1.667    0.000   12.500    0.000    8.167 
#    0.000    0.000    0.000    0.000    0.000    0.000 
#
# Total GULP energy -267766.569102 kJ/mol
# GULP energy per Si atom -5578.470190 kJ/mol
# Density = 2.426574 g / cm^3
# Si number density = 24.321096 Si / 1000 Ang^3
#
#
#
# Elastic Constant Matrix: (Units=GPa)
#
#
# Indices 1 2 3 4 5 6 
#
# 1 48.0224 -7.3715 -10.6488 0.0000 0.0000 0.0000
# 2 -7.3715 79.9400 -7.1621 0.0000 0.0000 0.0000
# 3 -10.6488 -7.1621 180.8560 0.0000 0.0000 0.0000
# 4 0.0000 0.0000 0.0000 -12.2765 0.0000 0.0000
# 5 0.0000 0.0000 0.0000 0.0000 11.5363 0.0000
# 6 0.0000 0.0000 0.0000 0.0000 0.0000 0.7413
#
#
#
# Elastic Compliance Matrix: (Units=1/GPa)
#
#
# Indices 1 2 3 4 5 6 
#
# 1 0.021444 0.002098 0.001346 0.000000 0.000000 0.000000
# 2 0.002098 0.012759 0.000629 0.000000 0.000000 0.000000
# 3 0.001346 0.000629 0.005633 0.000000 0.000000 0.000000
# 4 0.000000 0.000000 0.000000 -0.081457 0.000000 0.000000
# 5 0.000000 0.000000 0.000000 0.000000 0.086683 0.000000
# 6 0.000000 0.000000 0.000000 0.000000 0.000000 1.348929
#
#
# Mechanical properties :
#
#
# Convention : Reuss Voigt Hill
#
# Bulk Modulus (GPa) = 20.84130 28.71707 24.77918
# Shear Modulus (GPa) = 3.56674 22.26697 12.91686
#
# Velocity S-wave (km/s) = 1.21231 3.02907 2.30705
# Velocity P-wave (km/s) = 3.24768 4.90579 4.16018
#
# Compressibility (1/GPa) = 0.04798166
#
# Stress axis : x y z
#
# Youngs Moduli (GPa) = 46.63294 78.37495 177.51281
#
# Poissons Ratio (x) = -0.16443 -0.23888
# Poissons Ratio (y) = -0.09784 -0.11162
# Poissons Ratio (z) = -0.06275 -0.04928
#
# Static dielectric constant tensor:
#      x y z
#    x 1.961220 0.000000 0.000000 
#    y 0.000000 1.985700 0.000000 
#    z 0.000000 0.000000 1.988510 
# 
# From -- ./inp_files/60207.got.cif
#   From: 2010.05.17/outbox.cif.g08.bks.cpg/sg65_31_cif.got.tgz:60207.got - 2010.06.03 17:01:31.
