data_PCOD9489802
_publ_section_title
;
Structure prediction by ZEFSAII (Michael W. Deem and Ramdas Pophale) SiO2 
 PCOD9489802
Probable space group: C M M M
;
_chemical_formula_sum "Si O2"
_cell_formula_units_Z 64
_cell_length_a 23.078877
_cell_length_b 23.368536
_cell_length_c 7.365945
_cell_angle_alpha 90.000000
_cell_angle_beta 90.000000
_cell_angle_gamma 90.000000
_cell_volume 3972.598275
_symmetry_space_group_name_H-M "C M M M"
_symmetry_group_IT_number 65
_symmetry_cell_setting 'orthorhombic'
loop_
_space_group_symop_operation_xyz
x,y,z
-x,-y,z
x,-y,-z
-x,y,-z
-x,-y,-z
x,y,-z
-x,y,z
x,-y,z
1/2+x,1/2+y,z
1/2-x,1/2-y,z
1/2+x,1/2-y,-z
1/2-x,1/2+y,-z
1/2-x,1/2-y,-z
1/2+x,1/2+y,-z
1/2-x,1/2+y,z
1/2+x,1/2-y,z
loop_
_atom_site_type_symbol
_atom_site_label
_atom_site_fract_x
_atom_site_fract_y
_atom_site_fract_z
Si Si1 0.764023 0.935231 0.216080
Si Si2 0.934815 0.187852 0.782500
Si Si3 0.731647 0.155756 0.500000
Si Si4 0.846152 0.235056 0.500000
Si Si5 0.901261 0.937659 0.219238
O O1 0.732492 0.886217 0.327384
O O2 0.832776 0.932684 0.260577
O O3 0.744839 0.000000 0.260823
O O4 0.758782 0.927398 0.000000
O O5 0.886271 0.221850 0.673425
O O6 0.930607 0.121104 0.723370
O O7 0.000000 0.208391 0.745765
O O8 0.924959 0.189978 0.000000
O O9 0.791569 0.191806 0.500000
O O10 0.680383 0.201630 0.500000
O O11 0.921834 0.000000 0.285233
O O12 0.906683 0.939165 0.000000
#
# Coordination Sequence:
#
# PCOD9489802 Si02
#       5
#    16  16   8   8  16
#     4   9  17  31  51  73  99 129 161 201 246 291
#     4  10  20  35  52  67  93 132 171 214 252 281
#     4  11  21  32  50  71  98 135 165 202 247 290
#     4  11  23  34  46  70  99 130 174 210 237 286
#     4   8  14  26  45  68  93 123 162 205 243 277
#
# _framework density 16.110364000000001
#
# number of rings (size 3 to 8) (size 9 to 14) (size 15 to 20)
#    0.000    2.500    2.500    2.250    0.000    1.500 
#    0.000    5.625    0.000    1.500    0.000    0.000 
#    0.000    8.000    0.000   22.000    0.000    0.000 
#
# Total GULP energy -178478.186998 kJ/mol
# GULP energy per Si atom -5577.443344 kJ/mol
# Density = 1.607370 g / cm^3
# Si number density = 16.110364 Si / 1000 Ang^3
#
#
#
# Elastic Constant Matrix: (Units=GPa)
#
#
# Indices 1 2 3 4 5 6 
#
# 1 80.6311 60.4196 39.9697 0.0000 0.0000 0.0000
# 2 60.4196 115.8551 48.7639 0.0000 0.0000 0.0000
# 3 39.9697 48.7639 76.8794 0.0000 0.0000 0.0000
# 4 0.0000 0.0000 0.0000 24.0259 0.0000 0.0000
# 5 0.0000 0.0000 0.0000 0.0000 9.4603 0.0000
# 6 0.0000 0.0000 0.0000 0.0000 0.0000 20.2674
#
#
#
# Elastic Compliance Matrix: (Units=1/GPa)
#
#
# Indices 1 2 3 4 5 6 
#
# 1 0.022041 -0.009101 -0.005686 0.000000 0.000000 0.000000
# 2 -0.009101 0.015533 -0.005121 0.000000 0.000000 0.000000
# 3 -0.005686 -0.005121 0.019212 0.000000 0.000000 0.000000
# 4 0.000000 0.000000 0.000000 0.041622 0.000000 0.000000
# 5 0.000000 0.000000 0.000000 0.000000 0.105705 0.000000
# 6 0.000000 0.000000 0.000000 0.000000 0.000000 0.049340
#
#
# Mechanical properties :
#
#
# Convention : Reuss Voigt Hill
#
# Bulk Modulus (GPa) = 58.93020 63.51911 61.22465
# Shear Modulus (GPa) = 16.72656 19.03153 17.87905
#
# Velocity S-wave (km/s) = 3.22568 3.44077 3.33496
# Velocity P-wave (km/s) = 7.10857 7.43628 7.27427
#
# Compressibility (1/GPa) = 0.01696923
#
# Stress axis : x y z
#
# Youngs Moduli (GPa) = 45.37076 64.37841 52.05129
#
# Poissons Ratio (x) = 0.58591 0.29598
# Poissons Ratio (y) = 0.41292 0.26655
# Poissons Ratio (z) = 0.25799 0.32967
#
# Static dielectric constant tensor:
#      x y z
#    x 1.512140 0.000000 0.000000 
#    y 0.000000 1.535190 0.000000 
#    z 0.000000 0.000000 1.586810 
# 
# From -- ./inp_files/11125.got.cif
#   From: 2010.05.17/outbox.cif.g08.bks.cpg/sg65_6_cif.got.tgz:11125.got - 2010.06.03 17:01:31.
