data_PCOD9489822
_publ_section_title
;
Structure prediction by ZEFSAII (Michael W. Deem and Ramdas Pophale) SiO2 
 PCOD9489822
Probable space group: C M M M
;
_chemical_formula_sum "Si O2"
_cell_formula_units_Z 104
_cell_length_a 7.624714
_cell_length_b 23.991056
_cell_length_c 30.191770
_cell_angle_alpha 90.000000
_cell_angle_beta 90.000000
_cell_angle_gamma 90.000000
_cell_volume 5522.827733
_symmetry_space_group_name_H-M "C M M M"
_symmetry_group_IT_number 65
_symmetry_cell_setting 'orthorhombic'
loop_
_space_group_symop_operation_xyz
x,y,z
-x,-y,z
x,-y,-z
-x,y,-z
-x,-y,-z
x,y,-z
-x,y,z
x,-y,z
1/2+x,1/2+y,z
1/2-x,1/2-y,z
1/2+x,1/2-y,-z
1/2-x,1/2+y,-z
1/2-x,1/2-y,-z
1/2+x,1/2+y,-z
1/2-x,1/2+y,z
1/2+x,1/2-y,z
loop_
_atom_site_type_symbol
_atom_site_label
_atom_site_fract_x
_atom_site_fract_y
_atom_site_fract_z
Si Si1 0.788685 0.815795 0.691952
Si Si2 0.210622 0.183881 0.595304
Si Si3 0.711035 0.683660 0.500000
Si Si4 0.208174 0.880658 0.049238
Si Si5 0.290960 0.000000 0.808726
Si Si6 0.291208 0.377979 0.221206
Si Si7 0.789056 0.815031 0.866020
Si Si8 0.210371 0.500000 0.089470
O O1 0.750000 0.750000 0.697636
O O2 0.722920 0.835332 0.643409
O O3 0.720907 0.850815 0.733652
O O4 0.000000 0.820961 0.690812
O O5 0.250000 0.250000 0.595182
O O6 0.277062 0.161773 0.547689
O O7 0.000000 0.176782 0.595097
O O8 0.500000 0.677359 0.500000
O O9 0.750000 0.750000 0.500000
O O10 0.280404 0.842084 0.088582
O O11 0.000000 0.869851 0.046736
O O12 0.231202 0.944387 0.064499
O O13 0.281896 0.871887 0.000000
O O14 0.236162 0.943634 0.784301
O O15 0.223342 0.000000 0.859631
O O16 0.500000 0.000000 0.811385
O O17 0.500000 0.367892 0.221706
O O18 0.220601 0.347602 0.177135
O O19 0.750000 0.750000 0.863068
O O20 0.000000 0.822149 0.866415
O O21 0.000000 0.500000 0.090500
#
# Coordination Sequence:
#
# PCOD9489822 Si02
#       8
#    16  16   8  16   8  16  16   8
#     4   9  17  28  44  67  94 125 159 192 228 272
#     4   8  13  21  33  53  82 116 154 189 222 263
#     4   8  12  18  30  48  76 115 152 187 223 258
#     4  10  21  37  56  76  99 129 160 188 224 274
#     4  11  23  36  54  77  96 117 149 192 236 277
#     4  10  20  35  53  71  93 124 156 188 231 280
#     4  10  21  35  52  73  97 126 158 188 222 268
#     4  11  22  36  55  80 102 120 149 193 239 275
#
# _framework density 18.830933000000002
#
# number of rings (size 3 to 8) (size 9 to 14) (size 15 to 20)
#    0.000    2.462    1.538    1.154    0.000    4.000 
#    0.000    0.000    0.000    0.000    0.000    0.000 
#    0.000    0.615    0.000    7.846    0.000    1.231 
#
# Total GULP energy -289882.642354 kJ/mol
# GULP energy per Si atom -5574.666199 kJ/mol
# Density = 1.878807 g / cm^3
# Si number density = 18.830933 Si / 1000 Ang^3
#
#
#
# Elastic Constant Matrix: (Units=GPa)
#
#
# Indices 1 2 3 4 5 6 
#
# 1 39.3251 -11.9748 12.1559 0.0000 0.0000 0.0000
# 2 -11.9748 94.8636 82.1642 0.0000 0.0000 0.0000
# 3 12.1559 82.1642 241.0257 0.0000 0.0000 0.0000
# 4 0.0000 0.0000 0.0000-1311.7549 0.0000 0.0000
# 5 0.0000 0.0000 0.0000 0.0000 1.3887 0.0000
# 6 0.0000 0.0000 0.0000 0.0000 0.0000 15.3387
#
#
#
# Elastic Compliance Matrix: (Units=1/GPa)
#
#
# Indices 1 2 3 4 5 6 
#
# 1 0.028714 0.006923 -0.003808 0.000000 0.000000 0.000000
# 2 0.006923 0.016627 -0.006017 0.000000 0.000000 0.000000
# 3 -0.003808 -0.006017 0.006392 0.000000 0.000000 0.000000
# 4 0.000000 0.000000 0.000000 -0.000762 0.000000 0.000000
# 5 0.000000 0.000000 0.000000 0.000000 0.720087 0.000000
# 6 0.000000 0.000000 0.000000 0.000000 0.000000 0.065195
#
#
# Mechanical properties :
#
#
# Convention : Reuss Voigt Hill
#
# Bulk Modulus (GPa) = 21.77282 59.98946 40.88114
# Shear Modulus (GPa) = 5.83180 -239.48089 -116.82455
#
# Velocity S-wave (km/s) = 1.76172 -11.28939 -7.88501
# Velocity P-wave (km/s) = 3.96555 11.74767 7.81928
#
# Compressibility (1/GPa) = 0.04592882
#
# Stress axis : x y z
#
# Youngs Moduli (GPa) = 34.82586 60.14300 156.43991
#
# Poissons Ratio (x) = -0.41637 0.59575
# Poissons Ratio (y) = -0.24110 0.94133
# Poissons Ratio (z) = 0.13262 0.36189
#
# Static dielectric constant tensor:
#      x y z
#    x 1.691260 0.000000 0.000000 
#    y 0.000000 1.626360 0.000000 
#    z 0.000000 0.000000 1.736940 
# 
# From -- ./inp_files/76964.got.cif
#   From: 2010.05.17/outbox.cif.g08.bks.cpg/sg65_39_cif.got.tgz:76964.got - 2010.06.03 17:01:31.
