data_PCOD9489585
_publ_section_title
;
Structure prediction by ZEFSAII (Michael W. Deem and Ramdas Pophale) SiO2 
 PCOD9489585
Probable space group: C M M M
;
_chemical_formula_sum "Si O2"
_cell_formula_units_Z 88
_cell_length_a 22.549466
_cell_length_b 26.107789
_cell_length_c 7.615938
_cell_angle_alpha 90.000000
_cell_angle_beta 90.000000
_cell_angle_gamma 90.000000
_cell_volume 4483.629890
_symmetry_space_group_name_H-M "C M M M"
_symmetry_group_IT_number 65
_symmetry_cell_setting 'orthorhombic'
loop_
_space_group_symop_operation_xyz
x,y,z
-x,-y,z
x,-y,-z
-x,y,-z
-x,-y,-z
x,y,-z
-x,y,z
x,-y,z
1/2+x,1/2+y,z
1/2-x,1/2-y,z
1/2+x,1/2-y,-z
1/2-x,1/2+y,-z
1/2-x,1/2-y,-z
1/2+x,1/2+y,-z
1/2-x,1/2+y,z
1/2+x,1/2-y,z
loop_
_atom_site_type_symbol
_atom_site_label
_atom_site_fract_x
_atom_site_fract_y
_atom_site_fract_z
Si Si1 0.311383 0.061112 0.500000
Si Si2 0.763973 0.368444 0.202472
Si Si3 0.886636 0.693992 0.201619
Si Si4 0.655141 0.302644 0.199340
Si Si5 0.931846 0.110823 0.293696
Si Si6 0.931757 0.000000 0.209567
Si Si7 0.065688 0.623983 0.500000
O O1 0.277589 0.084368 0.669716
O O2 0.378500 0.084809 0.500000
O O3 0.312763 0.000000 0.500000
O O4 0.823981 0.335518 0.196985
O O5 0.712532 0.331107 0.275484
O O6 0.748893 0.383104 0.000000
O O7 0.871829 0.750576 0.274633
O O8 0.926846 0.660752 0.330671
O O9 0.909212 0.697641 0.000000
O O10 0.605059 0.345825 0.199621
O O11 0.672683 0.288180 0.000000
O O12 0.931759 0.122422 0.500000
O O13 0.000000 0.109545 0.230678
O O14 0.905381 0.053936 0.268656
O O15 0.000000 0.000000 0.278840
O O16 0.933347 0.000000 0.000000
O O17 0.000000 0.600306 0.500000
#
# Coordination Sequence:
#
# PCOD9489585 Si02
#       7
#     8  16  16  16  16   8   8
#     4  10  22  40  61  85 114 151 190 235 293 345
#     4   9  19  37  59  84 112 144 185 232 282 337
#     4   9  19  36  58  83 115 149 181 226 280 334
#     4  10  20  34  54  81 109 143 186 226 271 333
#     4  10  21  34  48  69 100 137 177 223 269 315
#     4   9  17  33  53  65  83 125 177 221 261 306
#     4  10  22  38  59  87 117 151 192 233 281 345
#
# _framework density 19.626954000000001
#
# number of rings (size 3 to 8) (size 9 to 14) (size 15 to 20)
#    0.000    2.455    0.000    1.364    2.545    6.000 
#    1.636    4.545    0.000    0.000    0.000    5.091 
#    0.000    0.000    0.000    0.000    0.000    0.000 
#
# Total GULP energy -245367.519690 kJ/mol
# GULP energy per Si atom -5576.534538 kJ/mol
# Density = 1.958228 g / cm^3
# Si number density = 19.626954 Si / 1000 Ang^3
#
#
#
# Elastic Constant Matrix: (Units=GPa)
#
#
# Indices 1 2 3 4 5 6 
#
# 1 17.8330 -16.0288 0.0117 0.0000 0.0000 0.0000
# 2 -16.0288 101.4640 20.7223 0.0000 0.0000 0.0000
# 3 0.0117 20.7223 79.1010 0.0000 0.0000 0.0000
# 4 0.0000 0.0000 0.0000 22.9726 0.0000 0.0000
# 5 0.0000 0.0000 0.0000 0.0000 17.0945 0.0000
# 6 0.0000 0.0000 0.0000 0.0000 0.0000 7.4138
#
#
#
# Elastic Compliance Matrix: (Units=1/GPa)
#
#
# Indices 1 2 3 4 5 6 
#
# 1 0.065978 0.011014 -0.002895 0.000000 0.000000 0.000000
# 2 0.011014 0.012252 -0.003211 0.000000 0.000000 0.000000
# 3 -0.002895 -0.003211 0.013484 0.000000 0.000000 0.000000
# 4 0.000000 0.000000 0.000000 0.043530 0.000000 0.000000
# 5 0.000000 0.000000 0.000000 0.000000 0.058498 0.000000
# 6 0.000000 0.000000 0.000000 0.000000 0.000000 0.134883
#
#
# Mechanical properties :
#
#
# Convention : Reuss Voigt Hill
#
# Bulk Modulus (GPa) = 9.84947 23.08981 16.46964
# Shear Modulus (GPa) = 14.17830 22.40905 18.29368
#
# Velocity S-wave (km/s) = 2.69065 3.38264 3.05629
# Velocity P-wave (km/s) = 3.83171 5.20060 4.56773
#
# Compressibility (1/GPa) = 0.10152833
#
# Stress axis : x y z
#
# Youngs Moduli (GPa) = 15.15667 81.62256 74.16337
#
# Poissons Ratio (x) = -0.89900 0.21472
# Poissons Ratio (y) = -0.16694 0.23815
# Poissons Ratio (z) = 0.04388 0.26211
#
# Static dielectric constant tensor:
#      x y z
#    x 1.691070 0.000000 0.000000 
#    y 0.000000 1.667080 0.000000 
#    z 0.000000 0.000000 1.735850 
# 
# From -- ./inp_files/11886.got.cif
#   From: 2010.05.17/outbox.cif.g08.bks.cpg/sg65_6_cif.got.tgz:11886.got - 2010.06.03 17:01:31.
