data_PCOD9489627
_publ_section_title
;
Structure prediction by ZEFSAII (Michael W. Deem and Ramdas Pophale) SiO2 
 PCOD9489627
Probable space group: C M M M
;
_chemical_formula_sum "Si O2"
_cell_formula_units_Z 80
_cell_length_a 18.308661
_cell_length_b 8.944845
_cell_length_c 26.251203
_cell_angle_alpha 90.000000
_cell_angle_beta 90.000000
_cell_angle_gamma 90.000000
_cell_volume 4299.110552
_symmetry_space_group_name_H-M "C M M M"
_symmetry_group_IT_number 65
_symmetry_cell_setting 'orthorhombic'
loop_
_space_group_symop_operation_xyz
x,y,z
-x,-y,z
x,-y,-z
-x,y,-z
-x,-y,-z
x,y,-z
-x,y,z
x,-y,z
1/2+x,1/2+y,z
1/2-x,1/2-y,z
1/2+x,1/2-y,-z
1/2-x,1/2+y,-z
1/2-x,1/2-y,-z
1/2+x,1/2+y,-z
1/2-x,1/2+y,z
1/2+x,1/2-y,z
loop_
_atom_site_type_symbol
_atom_site_label
_atom_site_fract_x
_atom_site_fract_y
_atom_site_fract_z
Si Si1 0.829589 0.178149 0.559381
Si Si2 0.088726 0.174348 0.056479
Si Si3 0.587994 0.825183 0.160834
Si Si4 0.670025 0.321895 0.254380
Si Si5 0.086665 0.323245 0.349300
O O1 0.848236 0.204409 0.500000
O O2 0.750000 0.250000 0.568589
O O3 0.885670 0.253574 0.597893
O O4 0.826181 0.000000 0.567750
O O5 0.112023 0.271227 0.104703
O O6 0.000000 0.179667 0.055824
O O7 0.108744 0.000000 0.063412
O O8 0.113442 0.223305 0.000000
O O9 0.500000 0.807090 0.164274
O O10 0.626353 0.729048 0.204216
O O11 0.604556 0.000000 0.168256
O O12 0.674981 0.500000 0.257120
O O13 0.750000 0.250000 0.252962
O O14 0.627909 0.258290 0.303417
O O15 0.103257 0.500000 0.347920
O O16 0.000000 0.304248 0.343642
#
# Coordination Sequence:
#
# PCOD9489627 Si02
#       5
#    16  16  16  16  16
#     4  10  21  38  61  88 119 155 194 234 276 327
#     4   8  14  26  46  74 108 145 185 227 271 322
#     4  10  20  34  54  82 115 147 183 229 278 329
#     4  12  25  41  61  82 109 145 186 231 280 337
#     4  11  24  41  61  86 117 150 186 231 281 332
#
# _framework density 18.608501
#
# number of rings (size 3 to 8) (size 9 to 14) (size 15 to 20)
#    0.000    1.800    0.000    5.400    0.000    7.200 
#    0.000    4.000    0.000    0.600    0.000    0.000 
#    0.000    0.000    0.000    0.000    0.000    0.000 
#
# Total GULP energy -223478.351871 kJ/mol
# GULP energy per Si atom -5586.958797 kJ/mol
# Density = 1.856615 g / cm^3
# Si number density = 18.608501 Si / 1000 Ang^3
#
#
#
# Elastic Constant Matrix: (Units=GPa)
#
#
# Indices 1 2 3 4 5 6 
#
# 1 51.2772 64.6342 52.1084 0.0000 0.0000 0.0000
# 2 64.6342 149.1496 81.9534 0.0000 0.0000 0.0000
# 3 52.1084 81.9534 111.9804 0.0000 0.0000 0.0000
# 4 0.0000 0.0000 0.0000 48.2714 0.0000 0.0000
# 5 0.0000 0.0000 0.0000 0.0000 154.4465 0.0000
# 6 0.0000 0.0000 0.0000 0.0000 0.0000 28.3515
#
#
#
# Elastic Compliance Matrix: (Units=1/GPa)
#
#
# Indices 1 2 3 4 5 6 
#
# 1 0.052206 -0.015514 -0.012939 0.000000 0.000000 0.000000
# 2 -0.015514 0.015824 -0.004362 0.000000 0.000000 0.000000
# 3 -0.012939 -0.004362 0.018144 0.000000 0.000000 0.000000
# 4 0.000000 0.000000 0.000000 0.020716 0.000000 0.000000
# 5 0.000000 0.000000 0.000000 0.000000 0.006475 0.000000
# 6 0.000000 0.000000 0.000000 0.000000 0.000000 0.035272
#
#
# Mechanical properties :
#
#
# Convention : Reuss Voigt Hill
#
# Bulk Modulus (GPa) = 48.67721 78.86659 63.77190
# Shear Modulus (GPa) = 22.61273 53.79461 38.20367
#
# Velocity S-wave (km/s) = 3.48973 5.38251 4.53594
# Velocity P-wave (km/s) = 6.51560 9.00569 7.85988
#
# Compressibility (1/GPa) = 0.02054349
#
# Stress axis : x y z
#
# Youngs Moduli (GPa) = 19.15503 63.19367 55.11529
#
# Poissons Ratio (x) = 0.98036 0.71316
# Poissons Ratio (y) = 0.29716 0.24042
# Poissons Ratio (z) = 0.24786 0.27566
#
# Static dielectric constant tensor:
#      x y z
#    x 1.618880 0.000000 0.000000 
#    y 0.000000 1.619680 0.000000 
#    z 0.000000 0.000000 1.637480 
# 
# From -- ./inp_files/75028.got.cif
#   From: 2010.05.17/outbox.cif.g08.bks.cpg/sg65_38_cif.got.tgz:75028.got - 2010.06.03 17:01:31.
