data_PCOD9489262
_publ_section_title
;
Structure prediction by ZEFSAII (Michael W. Deem and Ramdas Pophale) SiO2 
 PCOD9489262
Probable space group: C M M M
;
_chemical_formula_sum "Si O2"
_cell_formula_units_Z 80
_cell_length_a 12.877797
_cell_length_b 29.868888
_cell_length_c 12.007210
_cell_angle_alpha 90.000000
_cell_angle_beta 90.000000
_cell_angle_gamma 90.000000
_cell_volume 4618.519009
_symmetry_space_group_name_H-M "C M M M"
_symmetry_group_IT_number 65
_symmetry_cell_setting 'orthorhombic'
loop_
_space_group_symop_operation_xyz
x,y,z
-x,-y,z
x,-y,-z
-x,y,-z
-x,-y,-z
x,y,-z
-x,y,z
x,-y,z
1/2+x,1/2+y,z
1/2-x,1/2-y,z
1/2+x,1/2-y,-z
1/2-x,1/2+y,-z
1/2-x,1/2-y,-z
1/2+x,1/2+y,-z
1/2-x,1/2+y,z
1/2+x,1/2-y,z
loop_
_atom_site_type_symbol
_atom_site_label
_atom_site_fract_x
_atom_site_fract_y
_atom_site_fract_z
Si Si1 0.375554 0.053469 0.000000
Si Si2 0.233784 0.394838 0.797738
Si Si3 0.621308 0.168232 0.374205
Si Si4 0.250000 0.750000 0.286265
Si Si5 0.620102 0.446159 0.372494
Si Si6 0.378933 0.686205 0.128952
O O1 0.324621 0.076629 0.891645
O O2 0.500000 0.060338 0.000000
O O3 0.355929 0.000000 0.000000
O O4 0.155289 0.367364 0.718699
O O5 0.303499 0.425132 0.716674
O O6 0.310242 0.358132 0.852586
O O7 0.637760 0.151019 0.500000
O O8 0.500000 0.179156 0.361627
O O9 0.690342 0.212430 0.356237
O O10 0.332147 0.724206 0.208223
O O11 0.644836 0.432535 0.500000
O O12 0.500000 0.433297 0.350755
O O13 0.625452 0.500000 0.368000
O O14 0.500000 0.677792 0.154009
O O15 0.370695 0.700002 0.000000
#
# Coordination Sequence:
#
# PCOD9489262 Si02
#       6
#     8  16  16   8  16  16
#     4  11  24  40  57  78 107 142 184 231 275 326
#     4  11  20  36  56  79 106 144 181 219 276 321
#     4  10  21  36  55  80 108 139 179 226 269 318
#     4  10  20  34  56  76 108 143 181 212 272 318
#     4   9  18  33  54  81 111 141 176 219 267 325
#     4  10  20  34  52  77 109 141 178 220 259 310
#
# _framework density 17.321570999999999
#
# number of rings (size 3 to 8) (size 9 to 14) (size 15 to 20)
#    0.000    1.900    1.000    4.200    0.000    0.000 
#    0.000    0.000    0.000   12.000    0.000    8.400 
#    0.000    0.000    0.000    0.000    0.000    0.000 
#
# Total GULP energy -223255.601197 kJ/mol
# GULP energy per Si atom -5581.390030 kJ/mol
# Density = 1.728215 g / cm^3
# Si number density = 17.321571 Si / 1000 Ang^3
#
#
#
# Elastic Constant Matrix: (Units=GPa)
#
#
# Indices 1 2 3 4 5 6 
#
# 1 104.9127 39.5695 67.7760 0.0000 0.0000 0.0000
# 2 39.5695 72.6334 50.0890 0.0000 0.0000 0.0000
# 3 67.7760 50.0890 124.8030 0.0000 0.0000 0.0000
# 4 0.0000 0.0000 0.0000 21.9653 0.0000 0.0000
# 5 0.0000 0.0000 0.0000 0.0000 36.7395 0.0000
# 6 0.0000 0.0000 0.0000 0.0000 0.0000 15.9398
#
#
#
# Elastic Compliance Matrix: (Units=1/GPa)
#
#
# Indices 1 2 3 4 5 6 
#
# 1 0.015339 -0.003611 -0.006881 0.000000 0.000000 0.000000
# 2 -0.003611 0.019887 -0.006020 0.000000 0.000000 0.000000
# 3 -0.006881 -0.006020 0.014165 0.000000 0.000000 0.000000
# 4 0.000000 0.000000 0.000000 0.045526 0.000000 0.000000
# 5 0.000000 0.000000 0.000000 0.000000 0.027219 0.000000
# 6 0.000000 0.000000 0.000000 0.000000 0.000000 0.062736
#
#
# Mechanical properties :
#
#
# Convention : Reuss Voigt Hill
#
# Bulk Modulus (GPa) = 61.09984 68.57980 64.83982
# Shear Modulus (GPa) = 22.38616 24.58988 23.48802
#
# Velocity S-wave (km/s) = 3.59888 3.77186 3.68638
# Velocity P-wave (km/s) = 7.25394 7.65815 7.45879
#
# Compressibility (1/GPa) = 0.01636665
#
# Stress axis : x y z
#
# Youngs Moduli (GPa) = 65.19399 50.28443 70.59458
#
# Poissons Ratio (x) = 0.18160 0.48573
# Poissons Ratio (y) = 0.23544 0.42500
# Poissons Ratio (z) = 0.44857 0.30272
#
# Static dielectric constant tensor:
#      x y z
#    x 1.564550 0.000000 0.000000 
#    y 0.000000 1.565070 0.000000 
#    z 0.000000 0.000000 1.569850 
# 
# From -- ./inp_files/22888.got.cif
#   From: 2010.05.17/outbox.cif.g08.bks.cpg/sg65_12_cif.got.tgz:22888.got - 2010.06.03 17:01:31.
