data_PCOD9489697
_publ_section_title
;
Structure prediction by ZEFSAII (Michael W. Deem and Ramdas Pophale) SiO2 
 PCOD9489697
Probable space group: C M M M
;
_chemical_formula_sum "Si O2"
_cell_formula_units_Z 104
_cell_length_a 8.724591
_cell_length_b 29.190605
_cell_length_c 23.420804
_cell_angle_alpha 90.000000
_cell_angle_beta 90.000000
_cell_angle_gamma 90.000000
_cell_volume 5964.718780
_symmetry_space_group_name_H-M "C M M M"
_symmetry_group_IT_number 65
_symmetry_cell_setting 'orthorhombic'
loop_
_space_group_symop_operation_xyz
x,y,z
-x,-y,z
x,-y,-z
-x,y,-z
-x,-y,-z
x,y,-z
-x,y,z
x,-y,z
1/2+x,1/2+y,z
1/2-x,1/2-y,z
1/2+x,1/2-y,-z
1/2-x,1/2+y,-z
1/2-x,1/2-y,-z
1/2+x,1/2+y,-z
1/2-x,1/2+y,z
1/2+x,1/2-y,z
loop_
_atom_site_type_symbol
_atom_site_label
_atom_site_fract_x
_atom_site_fract_y
_atom_site_fract_z
Si Si1 0.316601 0.801014 0.777760
Si Si2 0.682830 0.052027 0.852982
Si Si3 0.316412 0.355018 0.885948
Si Si4 0.816622 0.300128 0.433732
Si Si5 0.816279 0.854659 0.330683
Si Si6 0.683282 0.448468 0.726460
Si Si7 0.184545 0.199072 0.000000
O O1 0.500000 0.799597 0.776342
O O2 0.250000 0.750000 0.783458
O O3 0.260161 0.831127 0.831224
O O4 0.253269 0.823918 0.720045
O O5 0.500000 0.056704 0.857564
O O6 0.764724 0.092268 0.887256
O O7 0.731899 0.057669 0.786749
O O8 0.725688 0.000000 0.869649
O O9 0.500000 0.352453 0.879729
O O10 0.269534 0.328194 0.943060
O O11 0.777019 0.309433 0.500000
O O12 0.750000 0.250000 0.419150
O O13 0.748491 0.336801 0.390303
O O14 0.000000 0.298724 0.428586
O O15 0.776718 0.907299 0.315830
O O16 0.000000 0.850029 0.330074
O O17 0.500000 0.445534 0.737529
O O18 0.716212 0.500000 0.705387
O O19 0.250000 0.250000 0.000000
O O20 0.000000 0.201707 0.000000
#
# Coordination Sequence:
#
# PCOD9489697 Si02
#       7
#    16  16  16  16  16  16   8
#     4  12  24  37  54  79 112 145 180 226 277 331
#     4  10  20  34  55  84 114 145 182 225 276 331
#     4  11  22  39  59  82 110 144 185 228 278 333
#     4  10  21  37  56  78 108 147 189 231 276 328
#     4  11  21  34  55  83 113 144 182 227 276 331
#     4   9  18  33  54  80 111 146 182 223 273 329
#     4  10  24  42  61  82 107 143 188 231 275 334
#
# _framework density 17.435859000000001
#
# number of rings (size 3 to 8) (size 9 to 14) (size 15 to 20)
#    0.000    1.538    1.538    4.154    0.000    4.923 
#    0.000    0.385    0.000    2.769    0.000    3.231 
#    0.000    0.000    0.000    0.000    0.000    0.000 
#
# Total GULP energy -290528.769559 kJ/mol
# GULP energy per Si atom -5587.091722 kJ/mol
# Density = 1.739617 g / cm^3
# Si number density = 17.435859 Si / 1000 Ang^3
#
#
#
# Elastic Constant Matrix: (Units=GPa)
#
#
# Indices 1 2 3 4 5 6 
#
# 1 63.6297 48.2813 34.9796 0.0000 0.0000 0.0000
# 2 48.2813 149.5461 63.3265 0.0000 0.0000 0.0000
# 3 34.9796 63.3265 83.5459 0.0000 0.0000 0.0000
# 4 0.0000 0.0000 0.0000 32.0185 0.0000 0.0000
# 5 0.0000 0.0000 0.0000 0.0000 6.3478 0.0000
# 6 0.0000 0.0000 0.0000 0.0000 0.0000 26.8731
#
#
#
# Elastic Compliance Matrix: (Units=1/GPa)
#
#
# Indices 1 2 3 4 5 6 
#
# 1 0.022564 -0.004837 -0.005781 0.000000 0.000000 0.000000
# 2 -0.004837 0.010885 -0.006225 0.000000 0.000000 0.000000
# 3 -0.005781 -0.006225 0.019109 0.000000 0.000000 0.000000
# 4 0.000000 0.000000 0.000000 0.031232 0.000000 0.000000
# 5 0.000000 0.000000 0.000000 0.000000 0.157534 0.000000
# 6 0.000000 0.000000 0.000000 0.000000 0.000000 0.037212
#
#
# Mechanical properties :
#
#
# Convention : Reuss Voigt Hill
#
# Bulk Modulus (GPa) = 52.99134 65.54406 59.26770
# Shear Modulus (GPa) = 15.69798 23.05685 19.37742
#
# Velocity S-wave (km/s) = 3.00380 3.64040 3.33731
# Velocity P-wave (km/s) = 6.51833 7.43930 6.99399
#
# Compressibility (1/GPa) = 0.01887101
#
# Stress axis : x y z
#
# Youngs Moduli (GPa) = 44.31812 91.87283 52.33247
#
# Poissons Ratio (x) = 0.44437 0.30254
# Poissons Ratio (y) = 0.21436 0.32578
# Poissons Ratio (z) = 0.25621 0.57193
#
# Static dielectric constant tensor:
#      x y z
#    x 1.580900 0.000000 0.000000 
#    y 0.000000 1.597380 0.000000 
#    z 0.000000 0.000000 1.563920 
# 
# From -- ./inp_files/60851.got.cif
#   From: 2010.05.17/outbox.cif.g08.bks.cpg/sg65_31_cif.got.tgz:60851.got - 2010.06.03 17:01:31.
