data_PCOD9489277
_publ_section_title
;
Structure prediction by ZEFSAII (Michael W. Deem and Ramdas Pophale) SiO2 
 PCOD9489277
Probable space group: C M M M
;
_chemical_formula_sum "Si O2"
_cell_formula_units_Z 96
_cell_length_a 7.727856
_cell_length_b 24.461495
_cell_length_c 20.490523
_cell_angle_alpha 90.000000
_cell_angle_beta 90.000000
_cell_angle_gamma 90.000000
_cell_volume 3873.424190
_symmetry_space_group_name_H-M "C M M M"
_symmetry_group_IT_number 65
_symmetry_cell_setting 'orthorhombic'
loop_
_space_group_symop_operation_xyz
x,y,z
-x,-y,z
x,-y,-z
-x,y,-z
-x,-y,-z
x,y,-z
-x,y,z
x,-y,z
1/2+x,1/2+y,z
1/2-x,1/2-y,z
1/2+x,1/2-y,-z
1/2-x,1/2+y,-z
1/2-x,1/2-y,-z
1/2+x,1/2+y,-z
1/2-x,1/2+y,z
1/2+x,1/2-y,z
loop_
_atom_site_type_symbol
_atom_site_label
_atom_site_fract_x
_atom_site_fract_y
_atom_site_fract_z
Si Si1 0.210375 0.171595 0.744802
Si Si2 0.198727 0.576613 0.929845
Si Si3 0.704788 0.307816 0.106902
Si Si4 0.702697 0.443890 0.783552
Si Si5 0.805812 0.688390 0.396762
Si Si6 0.203884 0.562425 0.578392
O O1 0.256429 0.193102 0.816578
O O2 0.273356 0.109147 0.749900
O O3 0.296851 0.195262 0.681378
O O4 0.000000 0.174993 0.738584
O O5 0.204184 0.641951 0.926720
O O6 0.285971 0.560060 0.862130
O O7 0.000000 0.559028 0.926928
O O8 0.273307 0.559867 0.000000
O O9 0.500000 0.318148 0.104354
O O10 0.750000 0.250000 0.077661
O O11 0.500000 0.444246 0.767612
O O12 0.786493 0.500000 0.762764
O O13 0.750000 0.750000 0.421337
O O14 0.726043 0.625573 0.405840
O O15 0.000000 0.682130 0.421220
O O16 0.217032 0.560498 0.500000
O O17 0.269697 0.500000 0.600227
O O18 0.000000 0.563182 0.596858
#
# Coordination Sequence:
#
# PCOD9489277 Si02
#       6
#    16  16  16  16  16  16
#     4   9  19  35  53  75 105 139 174 215 264 319
#     4  10  21  35  50  71  99 129 164 209 261 316
#     4  10  20  34  53  73  95 128 168 209 258 317
#     4   9  19  36  56  76  99 132 173 215 266 328
#     4  11  22  34  54  85 117 150 188 230 279 333
#     4   8  16  34  58  82 111 149 193 238 280 324
#
# _framework density 24.784271
#
# number of rings (size 3 to 8) (size 9 to 14) (size 15 to 20)
#    0.000    2.500    0.000    3.500    0.000    8.000 
#    0.000    1.667    0.000    3.000    0.000    4.667 
#    0.000    0.000    0.000    0.000    0.000    0.000 
#
# Total GULP energy -267364.655909 kJ/mol
# GULP energy per Si atom -5570.096998 kJ/mol
# Density = 2.472786 g / cm^3
# Si number density = 24.784271 Si / 1000 Ang^3
#
#
#
# Elastic Constant Matrix: (Units=GPa)
#
#
# Indices 1 2 3 4 5 6 
#
# 1 37.7659 19.6852 4.2141 0.0000 0.0000 0.0000
# 2 19.6852 267.1492 19.4732 0.0000 0.0000 0.0000
# 3 4.2141 19.4732 95.6534 0.0000 0.0000 0.0000
# 4 0.0000 0.0000 0.0000 0.6300 0.0000 0.0000
# 5 0.0000 0.0000 0.0000 0.0000 1.3005 0.0000
# 6 0.0000 0.0000 0.0000 0.0000 0.0000 547.3155
#
#
#
# Elastic Compliance Matrix: (Units=1/GPa)
#
#
# Indices 1 2 3 4 5 6 
#
# 1 0.027599 -0.001974 -0.000814 0.000000 0.000000 0.000000
# 2 -0.001974 0.003941 -0.000715 0.000000 0.000000 0.000000
# 3 -0.000814 -0.000715 0.010636 0.000000 0.000000 0.000000
# 4 0.000000 0.000000 0.000000 1.587309 0.000000 0.000000
# 5 0.000000 0.000000 0.000000 0.000000 0.768960 0.000000
# 6 0.000000 0.000000 0.000000 0.000000 0.000000 0.001827
#
#
# Mechanical properties :
#
#
# Convention : Reuss Voigt Hill
#
# Bulk Modulus (GPa) = 28.43459 54.14594 41.29026
# Shear Modulus (GPa) = 2.06697 133.66226 67.86462
#
# Velocity S-wave (km/s) = 0.91422 7.35169 5.23847
# Velocity P-wave (km/s) = 3.55136 9.69317 7.29964
#
# Compressibility (1/GPa) = 0.03516844
#
# Stress axis : x y z
#
# Youngs Moduli (GPa) = 36.23340 253.75255 94.02124
#
# Poissons Ratio (x) = 0.50099 0.07653
# Poissons Ratio (y) = 0.07154 0.06725
# Poissons Ratio (z) = 0.02949 0.18151
#
# Static dielectric constant tensor:
#      x y z
#    x 1.922390 0.000000 0.000000 
#    y 0.000000 2.119990 0.000000 
#    z 0.000000 0.000000 1.922960 
# 
# From -- ./inp_files/68061.got.cif
#   From: 2010.05.17/outbox.cif.g08.bks.cpg/sg65_35_cif.got.tgz:68061.got - 2010.06.03 17:01:31.
