data_PCOD9489502
_publ_section_title
;
Structure prediction by ZEFSAII (Michael W. Deem and Ramdas Pophale) SiO2 
 PCOD9489502
Probable space group: C M M M
;
_chemical_formula_sum "Si O2"
_cell_formula_units_Z 72
_cell_length_a 8.979914
_cell_length_b 15.561118
_cell_length_c 27.389536
_cell_angle_alpha 90.000000
_cell_angle_beta 90.000000
_cell_angle_gamma 90.000000
_cell_volume 3827.345325
_symmetry_space_group_name_H-M "C M M M"
_symmetry_group_IT_number 65
_symmetry_cell_setting 'orthorhombic'
loop_
_space_group_symop_operation_xyz
x,y,z
-x,-y,z
x,-y,-z
-x,y,-z
-x,-y,-z
x,y,-z
-x,y,z
x,-y,z
1/2+x,1/2+y,z
1/2-x,1/2-y,z
1/2+x,1/2-y,-z
1/2-x,1/2+y,-z
1/2-x,1/2-y,-z
1/2+x,1/2+y,-z
1/2-x,1/2+y,z
1/2+x,1/2-y,z
loop_
_atom_site_type_symbol
_atom_site_label
_atom_site_fract_x
_atom_site_fract_y
_atom_site_fract_z
Si Si1 0.176939 0.163450 0.754917
Si Si2 0.179430 0.500000 0.074129
Si Si3 0.820148 0.344526 0.552878
Si Si4 0.180207 0.652930 0.000000
Si Si5 0.179777 0.000000 0.180592
Si Si6 0.672552 0.100426 0.659547
O O1 0.250000 0.250000 0.773972
O O2 0.223644 0.083204 0.788022
O O3 0.230873 0.148607 0.699513
O O4 0.000000 0.169763 0.755633
O O5 0.220731 0.411545 0.045196
O O6 0.248963 0.500000 0.127487
O O7 0.000000 0.500000 0.076186
O O8 0.778181 0.383998 0.500000
O O9 0.750000 0.250000 0.554052
O O10 0.776618 0.388775 0.603520
O O11 0.000000 0.339625 0.553296
O O12 0.250000 0.750000 0.000000
O O13 0.000000 0.662977 0.000000
O O14 0.000000 0.000000 0.176300
O O15 0.500000 0.129622 0.662904
O O16 0.677071 0.000000 0.671458
#
# Coordination Sequence:
#
# PCOD9489502 Si02
#       6
#    16   8  16   8   8  16
#     4  11  23  40  59  82 112 149 190 238 291 344
#     4   9  20  38  60  86 122 161 197 239 286 334
#     4   9  18  32  49  71 100 133 171 219 274 334
#     4   9  19  37  60  90 124 161 201 239 282 334
#     4  10  23  41  59  84 119 153 194 242 290 339
#     4  10  20  34  54  79 105 138 182 229 280 342
#
# _framework density 18.811996000000001
#
# number of rings (size 3 to 8) (size 9 to 14) (size 15 to 20)
#    0.000    2.222    1.111    2.000    0.000    6.667 
#    0.000    7.778    0.000    0.000    0.000    4.667 
#    0.000    0.000    0.000    0.000    0.000    0.000 
#
# Total GULP energy -200717.394916 kJ/mol
# GULP energy per Si atom -5575.483192 kJ/mol
# Density = 1.876918 g / cm^3
# Si number density = 18.811996 Si / 1000 Ang^3
#
#
#
# Elastic Constant Matrix: (Units=GPa)
#
#
# Indices 1 2 3 4 5 6 
#
# 1 24.7861 43.8310 40.3750 0.0000 0.0000 0.0000
# 2 43.8310 145.8045 74.9850 0.0000 0.0000 0.0000
# 3 40.3750 74.9850 144.2209 0.0000 0.0000 0.0000
# 4 0.0000 0.0000 0.0000 36.1754 0.0000 0.0000
# 5 0.0000 0.0000 0.0000 0.0000 29.8855 0.0000
# 6 0.0000 0.0000 0.0000 0.0000 0.0000 29.7450
#
#
#
# Elastic Compliance Matrix: (Units=1/GPa)
#
#
# Indices 1 2 3 4 5 6 
#
# 1 0.116282 -0.024862 -0.019627 0.000000 0.000000 0.000000
# 2 -0.024862 0.014678 -0.000671 0.000000 0.000000 0.000000
# 3 -0.019627 -0.000671 0.012777 0.000000 0.000000 0.000000
# 4 0.000000 0.000000 0.000000 0.027643 0.000000 0.000000
# 5 0.000000 0.000000 0.000000 0.000000 0.033461 0.000000
# 6 0.000000 0.000000 0.000000 0.000000 0.000000 0.033619
#
#
# Mechanical properties :
#
#
# Convention : Reuss Voigt Hill
#
# Bulk Modulus (GPa) = 18.72080 70.35484 44.53782
# Shear Modulus (GPa) = 14.42645 29.53589 21.98117
#
# Velocity S-wave (km/s) = 2.77225 3.96669 3.42199
# Velocity P-wave (km/s) = 4.49670 7.64589 6.27216
#
# Compressibility (1/GPa) = 0.05341653
#
# Stress axis : x y z
#
# Youngs Moduli (GPa) = 8.59979 68.13082 78.26420
#
# Poissons Ratio (x) = 1.69390 1.53606
# Poissons Ratio (y) = 0.21381 0.05252
# Poissons Ratio (z) = 0.16878 0.04572
#
# Static dielectric constant tensor:
#      x y z
#    x 1.635230 0.000000 0.000000 
#    y 0.000000 1.689930 0.000000 
#    z 0.000000 0.000000 1.659390 
# 
# From -- ./inp_files/76377.got.cif
#   From: 2010.05.17/outbox.cif.g08.bks.cpg/sg65_39_cif.got.tgz:76377.got - 2010.06.03 17:01:31.
