data_PCOD9489137
_publ_section_title
;
Structure prediction by ZEFSAII (Michael W. Deem and Ramdas Pophale) SiO2 
 PCOD9489137
Probable space group: C M M M
;
_chemical_formula_sum "Si O2"
_cell_formula_units_Z 72
_cell_length_a 27.920596
_cell_length_b 7.984604
_cell_length_c 16.559627
_cell_angle_alpha 90.000000
_cell_angle_beta 90.000000
_cell_angle_gamma 90.000000
_cell_volume 3691.718831
_symmetry_space_group_name_H-M "C M M M"
_symmetry_group_IT_number 65
_symmetry_cell_setting 'orthorhombic'
loop_
_space_group_symop_operation_xyz
x,y,z
-x,-y,z
x,-y,-z
-x,y,-z
-x,-y,-z
x,y,-z
-x,y,z
x,-y,z
1/2+x,1/2+y,z
1/2-x,1/2-y,z
1/2+x,1/2-y,-z
1/2-x,1/2+y,-z
1/2-x,1/2-y,-z
1/2+x,1/2+y,-z
1/2-x,1/2+y,z
1/2+x,1/2-y,z
loop_
_atom_site_type_symbol
_atom_site_label
_atom_site_fract_x
_atom_site_fract_y
_atom_site_fract_z
Si Si1 0.599192 0.203153 0.330795
Si Si2 0.302805 0.801653 0.254476
Si Si3 0.651987 0.297816 0.910577
Si Si4 0.552785 0.298816 0.164877
Si Si5 0.944609 0.295140 0.500000
O O1 0.652394 0.264862 0.306735
O O2 0.564648 0.258081 0.257967
O O3 0.581214 0.260489 0.417945
O O4 0.599395 0.000000 0.331374
O O5 0.250000 0.750000 0.280357
O O6 0.313125 0.751738 0.161863
O O7 0.305260 0.000000 0.258923
O O8 0.650691 0.500000 0.911957
O O9 0.598480 0.237175 0.886189
O O10 0.665247 0.238249 0.000000
O O11 0.500000 0.234489 0.142691
O O12 0.551962 0.500000 0.155870
O O13 0.943921 0.500000 0.500000
O O14 0.000000 0.243575 0.500000
#
# Coordination Sequence:
#
# PCOD9489137 Si02
#       5
#    16  16  16  16   8
#     4   9  18  32  50  72  96 124 160 198 233 275
#     4  10  20  34  52  71  93 123 158 197 241 286
#     4   9  18  32  49  70  96 125 159 198 237 280
#     4   9  17  29  46  69  98 130 160 192 233 280
#     4   9  16  28  50  77 101 125 155 191 228 269
#
# _framework density 19.503111000000001
#
# number of rings (size 3 to 8) (size 9 to 14) (size 15 to 20)
#    0.000    2.778    0.000    1.333    0.000    3.556 
#    0.000    3.333    0.000    2.000    0.000    6.222 
#    0.000    0.000    0.000    0.000    0.000    0.000 
#
# Total GULP energy -200781.527930 kJ/mol
# GULP energy per Si atom -5577.264665 kJ/mol
# Density = 1.945872 g / cm^3
# Si number density = 19.503111 Si / 1000 Ang^3
#
#
#
# Elastic Constant Matrix: (Units=GPa)
#
#
# Indices 1 2 3 4 5 6 
#
# 1 104.2336 5.7134 22.6166 0.0000 0.0000 0.0000
# 2 5.7134 14.1433 1.9625 0.0000 0.0000 0.0000
# 3 22.6166 1.9625 88.4807 0.0000 0.0000 0.0000
# 4 0.0000 0.0000 0.0000 15.8951 0.0000 0.0000
# 5 0.0000 0.0000 0.0000 0.0000 6.4715 0.0000
# 6 0.0000 0.0000 0.0000 0.0000 0.0000 13.1397
#
#
#
# Elastic Compliance Matrix: (Units=1/GPa)
#
#
# Indices 1 2 3 4 5 6 
#
# 1 0.010360 -0.003829 -0.002563 0.000000 0.000000 0.000000
# 2 -0.003829 0.072338 -0.000626 0.000000 0.000000 0.000000
# 3 -0.002563 -0.000626 0.011971 0.000000 0.000000 0.000000
# 4 0.000000 0.000000 0.000000 0.062912 0.000000 0.000000
# 5 0.000000 0.000000 0.000000 0.000000 0.154524 0.000000
# 6 0.000000 0.000000 0.000000 0.000000 0.000000 0.076105
#
#
# Mechanical properties :
#
#
# Convention : Reuss Voigt Hill
#
# Bulk Modulus (GPa) = 12.40188 29.71584 21.05886
# Shear Modulus (GPa) = 11.65162 18.87227 15.26195
#
# Velocity S-wave (km/s) = 2.44688 3.11409 2.80042
# Velocity P-wave (km/s) = 3.78889 5.31033 4.61277
#
# Compressibility (1/GPa) = 0.08063291
#
# Stress axis : x y z
#
# Youngs Moduli (GPa) = 96.52610 13.82393 83.53561
#
# Poissons Ratio (x) = 0.05294 0.21412
# Poissons Ratio (y) = 0.36963 0.05226
# Poissons Ratio (z) = 0.24741 0.00865
#
# Static dielectric constant tensor:
#      x y z
#    x 1.708900 0.000000 0.000000 
#    y 0.000000 1.694850 0.000000 
#    z 0.000000 0.000000 1.663580 
# 
# From -- ./inp_files/36538.got.cif
#   From: 2010.05.17/outbox.cif.g08.bks.cpg/sg65_19_cif.got.tgz:36538.got - 2010.06.03 17:01:31.
