data_PCOD9489460
_publ_section_title
;
Structure prediction by ZEFSAII (Michael W. Deem and Ramdas Pophale) SiO2 
 PCOD9489460
Probable space group: C M M M
;
_chemical_formula_sum "Si O2"
_cell_formula_units_Z 120
_cell_length_a 28.662623
_cell_length_b 8.841658
_cell_length_c 29.305942
_cell_angle_alpha 90.000000
_cell_angle_beta 90.000000
_cell_angle_gamma 90.000000
_cell_volume 7426.861574
_symmetry_space_group_name_H-M "C M M M"
_symmetry_group_IT_number 65
_symmetry_cell_setting 'orthorhombic'
loop_
_space_group_symop_operation_xyz
x,y,z
-x,-y,z
x,-y,-z
-x,y,-z
-x,-y,-z
x,y,-z
-x,y,z
x,-y,z
1/2+x,1/2+y,z
1/2-x,1/2-y,z
1/2+x,1/2-y,-z
1/2-x,1/2+y,-z
1/2-x,1/2-y,-z
1/2+x,1/2+y,-z
1/2-x,1/2+y,z
1/2+x,1/2-y,z
loop_
_atom_site_type_symbol
_atom_site_label
_atom_site_fract_x
_atom_site_fract_y
_atom_site_fract_z
Si Si1 0.606177 0.182021 0.236542
Si Si2 0.444756 0.318700 0.500000
Si Si3 0.394986 0.819270 0.411680
Si Si4 0.444153 0.677543 0.323549
Si Si5 0.300235 0.319877 0.272352
Si Si6 0.945866 0.681830 0.144424
Si Si7 0.056272 0.179209 0.049791
Si Si8 0.300316 0.680275 0.619184
O O1 0.574994 0.249933 0.277198
O O2 0.658070 0.243645 0.244653
O O3 0.584431 0.228484 0.187968
O O4 0.605778 0.000000 0.239396
O O5 0.439099 0.500000 0.500000
O O6 0.500000 0.285518 0.500000
O O7 0.420857 0.249147 0.544618
O O8 0.421501 0.761146 0.366521
O O9 0.342331 0.757364 0.407831
O O10 0.395154 0.000000 0.413291
O O11 0.500000 0.688763 0.325504
O O12 0.430942 0.500000 0.325163
O O13 0.299957 0.500000 0.265674
O O14 0.250000 0.250000 0.260934
O O15 0.308330 0.291378 0.326558
O O16 0.946203 0.500000 0.142851
O O17 0.927405 0.742086 0.096003
O O18 0.000000 0.731984 0.150312
O O19 0.000000 0.199044 0.049361
O O20 0.065217 0.000000 0.052483
O O21 0.073390 0.234164 0.000000
O O22 0.300208 0.500000 0.612236
O O23 0.250000 0.750000 0.607708
#
# Coordination Sequence:
#
# PCOD9489460 Si02
#       8
#    16   8  16  16  16  16  16  16
#     4  11  21  33  50  73 104 137 172 212 257 306
#     4  11  25  45  66  85 110 143 177 217 261 303
#     4  12  24  39  61  86 111 139 174 214 259 308
#     4  11  23  37  53  75 104 139 178 215 253 301
#     4  10  20  34  54  77 104 135 171 211 255 306
#     4   9  18  30  43  64  97 136 174 212 256 303
#     4   8  14  25  41  61  86 121 168 217 260 302
#     4  10  20  36  59  85 113 140 172 211 256 308
#
# _framework density 16.157565000000002
#
# number of rings (size 3 to 8) (size 9 to 14) (size 15 to 20)
#    0.000    1.800    1.333    4.200    0.000    6.133 
#    0.000    3.000    0.000    0.000    0.000    0.000 
#    0.000    0.533    0.000    1.733    0.000    2.533 
#
# Total GULP energy -334988.709662 kJ/mol
# GULP energy per Si atom -5583.145161 kJ/mol
# Density = 1.612079 g / cm^3
# Si number density = 16.157565 Si / 1000 Ang^3
#
#
#
# Elastic Constant Matrix: (Units=GPa)
#
#
# Indices 1 2 3 4 5 6 
#
# 1 110.0794 60.2392 73.3835 0.0000 0.0000 0.0000
# 2 60.2392 83.3672 63.1958 0.0000 0.0000 0.0000
# 3 73.3835 63.1958 148.8106 0.0000 0.0000 0.0000
# 4 0.0000 0.0000 0.0000 41.8303 0.0000 0.0000
# 5 0.0000 0.0000 0.0000 0.0000 7.6600 0.0000
# 6 0.0000 0.0000 0.0000 0.0000 0.0000 26.7266
#
#
#
# Elastic Compliance Matrix: (Units=1/GPa)
#
#
# Indices 1 2 3 4 5 6 
#
# 1 0.016967 -0.008727 -0.004661 0.000000 0.000000 0.000000
# 2 -0.008727 0.022178 -0.005115 0.000000 0.000000 0.000000
# 3 -0.004661 -0.005115 0.011191 0.000000 0.000000 0.000000
# 4 0.000000 0.000000 0.000000 0.023906 0.000000 0.000000
# 5 0.000000 0.000000 0.000000 0.000000 0.130548 0.000000
# 6 0.000000 0.000000 0.000000 0.000000 0.000000 0.037416
#
#
# Mechanical properties :
#
#
# Convention : Reuss Voigt Hill
#
# Bulk Modulus (GPa) = 75.01656 81.76601 78.39129
# Shear Modulus (GPa) = 17.62701 24.93931 21.28316
#
# Velocity S-wave (km/s) = 3.30653 3.93301 3.63330
# Velocity P-wave (km/s) = 7.81706 8.44630 8.13777
#
# Compressibility (1/GPa) = 0.01333039
#
# Stress axis : x y z
#
# Youngs Moduli (GPa) = 58.93715 45.08897 89.36006
#
# Poissons Ratio (x) = 0.39349 0.41651
# Poissons Ratio (y) = 0.51434 0.45708
# Poissons Ratio (z) = 0.27471 0.23063
#
# Static dielectric constant tensor:
#      x y z
#    x 1.527310 0.000000 0.000000 
#    y 0.000000 1.537940 0.000000 
#    z 0.000000 0.000000 1.536870 
# 
# From -- ./inp_files/76105.got.cif
#   From: 2010.05.17/outbox.cif.g08.bks.cpg/sg65_39_cif.got.tgz:76105.got - 2010.06.03 17:01:31.
