data_PCOD9489303
_publ_section_title
;
Structure prediction by ZEFSAII (Michael W. Deem and Ramdas Pophale) SiO2 
 PCOD9489303
Probable space group: C M M M
;
_chemical_formula_sum "Si O2"
_cell_formula_units_Z 64
_cell_length_a 7.650051
_cell_length_b 15.237963
_cell_length_c 27.177180
_cell_angle_alpha 90.000000
_cell_angle_beta 90.000000
_cell_angle_gamma 90.000000
_cell_volume 3168.076324
_symmetry_space_group_name_H-M "C M M M"
_symmetry_group_IT_number 65
_symmetry_cell_setting 'orthorhombic'
loop_
_space_group_symop_operation_xyz
x,y,z
-x,-y,z
x,-y,-z
-x,y,-z
-x,-y,-z
x,y,-z
-x,y,z
x,-y,z
1/2+x,1/2+y,z
1/2-x,1/2-y,z
1/2+x,1/2-y,-z
1/2-x,1/2+y,-z
1/2-x,1/2-y,-z
1/2+x,1/2+y,-z
1/2-x,1/2+y,z
1/2+x,1/2-y,z
loop_
_atom_site_type_symbol
_atom_site_label
_atom_site_fract_x
_atom_site_fract_y
_atom_site_fract_z
Si Si1 0.210462 0.604007 0.000000
Si Si2 0.213631 0.000000 0.443751
Si Si3 0.290938 0.500000 0.291865
Si Si4 0.209704 0.146359 0.366834
Si Si5 0.790636 0.346657 0.892854
Si Si6 0.289172 0.000000 0.177191
O O1 0.279554 0.641242 0.051498
O O2 0.239947 0.500000 0.000000
O O3 0.000000 0.617985 0.000000
O O4 0.268268 0.912554 0.413686
O O5 0.272952 0.000000 0.500000
O O6 0.000000 0.000000 0.443998
O O7 0.500000 0.500000 0.297659
O O8 0.227006 0.411935 0.320069
O O9 0.254967 0.500000 0.234268
O O10 0.250000 0.250000 0.366975
O O11 0.000000 0.142320 0.366704
O O12 0.750000 0.250000 0.875497
O O13 0.724269 0.416802 0.853827
O O14 0.000000 0.358668 0.896217
O O15 0.500000 0.000000 0.174916
#
# Coordination Sequence:
#
# PCOD9489303 Si02
#       6
#     8   8   8  16  16   8
#     4   9  15  30  55  74  95 130 163 193 236 294
#     4   8  15  30  51  75 106 141 171 201 245 300
#     4   9  20  37  53  70  98 134 168 206 252 298
#     4   9  18  33  53  76 101 133 172 209 248 295
#     4  10  20  34  53  76 100 128 162 199 243 296
#     4  10  21  36  53  74  99 129 166 205 248 298
#
# _framework density 20.201533000000001
#
# number of rings (size 3 to 8) (size 9 to 14) (size 15 to 20)
#    0.000    2.750    1.250    1.875    0.000    3.500 
#    0.000    6.875    0.000    1.500    0.000    0.000 
#    0.000    0.000    0.000    0.000    0.000    0.000 
#
# Total GULP energy -178421.680439 kJ/mol
# GULP energy per Si atom -5575.677514 kJ/mol
# Density = 2.015555 g / cm^3
# Si number density = 20.201533 Si / 1000 Ang^3
#
#
#
# Elastic Constant Matrix: (Units=GPa)
#
#
# Indices 1 2 3 4 5 6 
#
# 1 36.9233 5.2042 9.3285 0.0000 0.0000 0.0000
# 2 5.2042 212.8187 134.0232 0.0000 0.0000 0.0000
# 3 9.3285 134.0232 198.9481 0.0000 0.0000 0.0000
# 4 0.0000 0.0000 0.0000 20.6551 0.0000 0.0000
# 5 0.0000 0.0000 0.0000 0.0000 16.9001 0.0000
# 6 0.0000 0.0000 0.0000 0.0000 0.0000 21.9370
#
#
#
# Elastic Compliance Matrix: (Units=1/GPa)
#
#
# Indices 1 2 3 4 5 6 
#
# 1 0.027415 0.000242 -0.001448 0.000000 0.000000 0.000000
# 2 0.000242 0.008163 -0.005511 0.000000 0.000000 0.000000
# 3 -0.001448 -0.005511 0.008807 0.000000 0.000000 0.000000
# 4 0.000000 0.000000 0.000000 0.048414 0.000000 0.000000
# 5 0.000000 0.000000 0.000000 0.000000 0.059171 0.000000
# 6 0.000000 0.000000 0.000000 0.000000 0.000000 0.045585
#
#
# Mechanical properties :
#
#
# Convention : Reuss Voigt Hill
#
# Bulk Modulus (GPa) = 32.30967 82.86689 57.58828
# Shear Modulus (GPa) = 22.59311 31.90738 27.25024
#
# Velocity S-wave (km/s) = 3.34786 3.97855 3.67675
# Velocity P-wave (km/s) = 5.56530 7.88760 6.82594
#
# Compressibility (1/GPa) = 0.03095048
#
# Stress axis : x y z
#
# Youngs Moduli (GPa) = 36.47635 122.50066 113.55136
#
# Poissons Ratio (x) = -0.02960 0.16445
# Poissons Ratio (y) = -0.00881 0.62573
# Poissons Ratio (z) = 0.05283 0.67505
#
# Static dielectric constant tensor:
#      x y z
#    x 1.772800 0.000000 0.000000 
#    y 0.000000 1.699270 0.000000 
#    z 0.000000 0.000000 1.712490 
# 
# From -- ./inp_files/72426.got.cif
#   From: 2010.05.17/outbox.cif.g08.bks.cpg/sg65_37_cif.got.tgz:72426.got - 2010.06.03 17:01:31.
