data_PCOD9489292
_publ_section_title
;
Structure prediction by ZEFSAII (Michael W. Deem and Ramdas Pophale) SiO2 
 PCOD9489292
Probable space group: C M M M
;
_chemical_formula_sum "Si O2"
_cell_formula_units_Z 88
_cell_length_a 9.028291
_cell_length_b 19.926788
_cell_length_c 29.728301
_cell_angle_alpha 90.000000
_cell_angle_beta 90.000000
_cell_angle_gamma 90.000000
_cell_volume 5348.265257
_symmetry_space_group_name_H-M "C M M M"
_symmetry_group_IT_number 65
_symmetry_cell_setting 'orthorhombic'
loop_
_space_group_symop_operation_xyz
x,y,z
-x,-y,z
x,-y,-z
-x,y,-z
-x,-y,-z
x,y,-z
-x,y,z
x,-y,z
1/2+x,1/2+y,z
1/2-x,1/2-y,z
1/2+x,1/2-y,-z
1/2-x,1/2+y,-z
1/2-x,1/2-y,-z
1/2+x,1/2+y,-z
1/2-x,1/2+y,z
1/2+x,1/2-y,z
loop_
_atom_site_type_symbol
_atom_site_label
_atom_site_fract_x
_atom_site_fract_y
_atom_site_fract_z
Si Si1 0.176014 0.178460 0.306365
Si Si2 0.678811 0.921690 0.869685
Si Si3 0.677842 0.820402 0.052017
Si Si4 0.322973 0.500000 0.552602
Si Si5 0.329121 0.075664 0.627077
Si Si6 0.676700 0.322410 0.798958
O O1 0.250000 0.250000 0.315503
O O2 0.245241 0.124843 0.339947
O O3 0.205222 0.162694 0.253784
O O4 0.000000 0.182284 0.312271
O O5 0.500000 0.918681 0.864821
O O6 0.718067 0.881485 0.915320
O O7 0.753900 0.880061 0.829687
O O8 0.721499 0.000000 0.870774
O O9 0.500000 0.812927 0.053494
O O10 0.750000 0.750000 0.066702
O O11 0.721066 0.832431 0.000000
O O12 0.500000 0.500000 0.558037
O O13 0.287044 0.500000 0.500000
O O14 0.252414 0.436865 0.579376
O O15 0.500000 0.095426 0.620705
O O16 0.327467 0.000000 0.647081
O O17 0.500000 0.317811 0.805736
O O18 0.750000 0.250000 0.809203
#
# Coordination Sequence:
#
# PCOD9489292 Si02
#       6
#    16  16  16   8  16  16
#     4  10  20  34  53  75 103 136 173 216 262 313
#     4  10  21  35  51  74 103 135 168 208 257 306
#     4   9  18  33  53  75  98 127 166 209 253 305
#     4   9  17  31  53  79 107 141 181 221 260 305
#     4   9  19  32  50  77 106 138 175 215 259 306
#     4  10  21  36  54  75  99 134 173 212 255 305
#
# _framework density 16.453934
#
# number of rings (size 3 to 8) (size 9 to 14) (size 15 to 20)
#    0.545    1.909    0.000    2.182    0.000    6.545 
#    0.000    5.455    0.000    0.545    0.000    3.818 
#    0.000    0.000    0.000    0.000    0.000    0.000 
#
# Total GULP energy -245191.983444 kJ/mol
# GULP energy per Si atom -5572.545078 kJ/mol
# Density = 1.641648 g / cm^3
# Si number density = 16.453934 Si / 1000 Ang^3
#
#
#
# Elastic Constant Matrix: (Units=GPa)
#
#
# Indices 1 2 3 4 5 6 
#
# 1 69.1995 61.3977 66.6514 0.0000 0.0000 0.0000
# 2 61.3977 133.1160 97.2131 0.0000 0.0000 0.0000
# 3 66.6514 97.2131 117.6202 0.0000 0.0000 0.0000
# 4 0.0000 0.0000 0.0000 29.5314 0.0000 0.0000
# 5 0.0000 0.0000 0.0000 0.0000 24.1899 0.0000
# 6 0.0000 0.0000 0.0000 0.0000 0.0000 30.7700
#
#
#
# Elastic Compliance Matrix: (Units=1/GPa)
#
#
# Indices 1 2 3 4 5 6 
#
# 1 0.032599 -0.003898 -0.015251 0.000000 0.000000 0.000000
# 2 -0.003898 0.019417 -0.013839 0.000000 0.000000 0.000000
# 3 -0.015251 -0.013839 0.028582 0.000000 0.000000 0.000000
# 4 0.000000 0.000000 0.000000 0.033862 0.000000 0.000000
# 5 0.000000 0.000000 0.000000 0.000000 0.041340 0.000000
# 6 0.000000 0.000000 0.000000 0.000000 0.000000 0.032499
#
#
# Mechanical properties :
#
#
# Convention : Reuss Voigt Hill
#
# Bulk Modulus (GPa) = 68.39187 85.60668 76.99927
# Shear Modulus (GPa) = 19.29400 23.20982 21.25191
#
# Velocity S-wave (km/s) = 3.42805 3.75986 3.59778
# Velocity P-wave (km/s) = 7.57130 8.42554 8.00982
#
# Compressibility (1/GPa) = 0.01462162
#
# Stress axis : x y z
#
# Youngs Moduli (GPa) = 30.67585 51.50232 34.98728
#
# Poissons Ratio (x) = 0.20077 0.53358
# Poissons Ratio (y) = 0.11958 0.48418
# Poissons Ratio (z) = 0.46783 0.71273
#
# Static dielectric constant tensor:
#      x y z
#    x 1.550310 0.000000 0.000000 
#    y 0.000000 1.532540 0.000000 
#    z 0.000000 0.000000 1.547290 
# 
# From -- ./inp_files/76579.got.cif
#   From: 2010.05.17/outbox.cif.g08.bks.cpg/sg65_39_cif.got.tgz:76579.got - 2010.06.03 17:01:31.
