data_PCOD9489153
_publ_section_title
;
Structure prediction by ZEFSAII (Michael W. Deem and Ramdas Pophale) SiO2 
 PCOD9489153
Probable space group: C M M M
;
_chemical_formula_sum "Si O2"
_cell_formula_units_Z 88
_cell_length_a 14.441216
_cell_length_b 8.055029
_cell_length_c 33.166668
_cell_angle_alpha 90.000000
_cell_angle_beta 90.000000
_cell_angle_gamma 90.000000
_cell_volume 3858.093209
_symmetry_space_group_name_H-M "C M M M"
_symmetry_group_IT_number 65
_symmetry_cell_setting 'orthorhombic'
loop_
_space_group_symop_operation_xyz
x,y,z
-x,-y,z
x,-y,-z
-x,y,-z
-x,-y,-z
x,y,-z
-x,y,z
x,-y,z
1/2+x,1/2+y,z
1/2-x,1/2-y,z
1/2+x,1/2-y,-z
1/2-x,1/2+y,-z
1/2-x,1/2-y,-z
1/2+x,1/2+y,-z
1/2-x,1/2+y,z
1/2+x,1/2-y,z
loop_
_atom_site_type_symbol
_atom_site_label
_atom_site_fract_x
_atom_site_fract_y
_atom_site_fract_z
Si Si1 0.113518 0.808037 0.174032
Si Si2 0.893943 0.302917 0.000000
Si Si3 0.394348 0.300923 0.914613
Si Si4 0.885806 0.500000 0.678350
Si Si5 0.106508 0.820582 0.368164
Si Si6 0.613073 0.000000 0.228747
Si Si7 0.142535 0.300872 0.455726
O O1 0.143811 0.752302 0.129025
O O2 0.142287 0.667861 0.205677
O O3 0.000000 0.810815 0.173300
O O4 0.141738 0.000000 0.181915
O O5 0.852007 0.248923 0.957344
O O6 0.897679 0.500000 0.000000
O O7 0.000000 0.232939 0.000000
O O8 0.500000 0.234038 0.915587
O O9 0.397869 0.500000 0.913531
O O10 0.853146 0.663799 0.654976
O O11 0.857743 0.500000 0.724834
O O12 0.000000 0.500000 0.676764
O O13 0.104245 0.783212 0.415822
O O14 0.000000 0.830864 0.354524
O O15 0.150599 0.000000 0.361186
O O16 0.500000 0.000000 0.228246
O O17 0.105565 0.252834 0.500000
O O18 0.132555 0.500000 0.451943
O O19 0.250000 0.250000 0.455914
#
# Coordination Sequence:
#
# PCOD9489153 Si02
#       7
#    16   8  16   8  16   8  16
#     4   8  14  22  31  44  60  80 109 147 194 248
#     4   9  15  17  21  33  45  63  93 129 171 229
#     4   8  13  20  26  32  47  70  96 131 178 234
#     4   9  18  32  45  64  88 114 150 186 226 273
#     4  10  20  34  52  72  98 131 163 197 235 277
#     4   9  16  24  38  52  68  92 120 161 206 253
#     4  10  20  34  53  77 105 133 163 199 234 274
#
# _framework density 22.809194000000002
#
# number of rings (size 3 to 8) (size 9 to 14) (size 15 to 20)
#    0.000    3.000    0.909    1.909    1.273    3.273 
#    0.000    5.455    0.000    0.000    0.000    0.000 
#    0.000    0.000    0.000    0.000    0.000    0.000 
#
# Total GULP energy -245546.398094 kJ/mol
# GULP energy per Si atom -5580.599957 kJ/mol
# Density = 2.275728 g / cm^3
# Si number density = 22.809194 Si / 1000 Ang^3
#
#
#
# Elastic Constant Matrix: (Units=GPa)
#
#
# Indices 1 2 3 4 5 6 
#
# 1 72.0190 11.3591 5.2426 0.0000 0.0000 0.0000
# 2 11.3591 152.4852 115.1474 0.0000 0.0000 0.0000
# 3 5.2426 115.1474 199.7915 0.0000 0.0000 0.0000
# 4 0.0000 0.0000 0.0000 6.9319 0.0000 0.0000
# 5 0.0000 0.0000 0.0000 0.0000 0.2342 0.0000
# 6 0.0000 0.0000 0.0000 0.0000 0.0000 4.3458
#
#
#
# Elastic Compliance Matrix: (Units=1/GPa)
#
#
# Indices 1 2 3 4 5 6 
#
# 1 0.014070 -0.001362 0.000416 0.000000 0.000000 0.000000
# 2 -0.001362 0.011743 -0.006732 0.000000 0.000000 0.000000
# 3 0.000416 -0.006732 0.008874 0.000000 0.000000 0.000000
# 4 0.000000 0.000000 0.000000 0.144260 0.000000 0.000000
# 5 0.000000 0.000000 0.000000 0.000000 4.270464 0.000000
# 6 0.000000 0.000000 0.000000 0.000000 0.000000 0.230109
#
#
# Mechanical properties :
#
#
# Convention : Reuss Voigt Hill
#
# Bulk Modulus (GPa) = 51.73241 76.42154 64.07697
# Shear Modulus (GPa) = 1.06353 21.80549 11.43451
#
# Velocity S-wave (km/s) = 0.68358 3.09527 2.24143
# Velocity P-wave (km/s) = 4.83247 6.80821 5.90358
#
# Compressibility (1/GPa) = 0.01933024
#
# Stress axis : x y z
#
# Youngs Moduli (GPa) = 71.07426 85.15434 112.68307
#
# Poissons Ratio (x) = 0.11599 -0.04686
# Poissons Ratio (y) = 0.09681 0.75863
# Poissons Ratio (z) = -0.02956 0.57329
#
# Static dielectric constant tensor:
#      x y z
#    x 1.964360 0.000000 0.000000 
#    y 0.000000 1.816220 0.000000 
#    z 0.000000 0.000000 1.832970 
# 
# From -- ./inp_files/77991.got.cif
#   From: 2010.05.17/outbox.cif.g08.bks.cpg/sg65_39_cif.got.tgz:77991.got - 2010.06.03 17:01:31.
