data_PCOD9489544
_publ_section_title
;
Structure prediction by ZEFSAII (Michael W. Deem and Ramdas Pophale) SiO2 
 PCOD9489544
Probable space group: C M M M
;
_chemical_formula_sum "Si O2"
_cell_formula_units_Z 104
_cell_length_a 20.258318
_cell_length_b 9.036279
_cell_length_c 33.204219
_cell_angle_alpha 90.000000
_cell_angle_beta 90.000000
_cell_angle_gamma 90.000000
_cell_volume 6078.358138
_symmetry_space_group_name_H-M "C M M M"
_symmetry_group_IT_number 65
_symmetry_cell_setting 'orthorhombic'
loop_
_space_group_symop_operation_xyz
x,y,z
-x,-y,z
x,-y,-z
-x,y,-z
-x,-y,-z
x,y,-z
-x,y,z
x,-y,z
1/2+x,1/2+y,z
1/2-x,1/2-y,z
1/2+x,1/2-y,-z
1/2-x,1/2+y,-z
1/2-x,1/2-y,-z
1/2+x,1/2+y,-z
1/2-x,1/2+y,z
1/2+x,1/2-y,z
loop_
_atom_site_type_symbol
_atom_site_label
_atom_site_fract_x
_atom_site_fract_y
_atom_site_fract_z
Si Si1 0.419988 0.670029 0.500000
Si Si2 0.179063 0.176973 0.645399
Si Si3 0.578424 0.823117 0.416161
Si Si4 0.820560 0.176463 0.046899
Si Si5 0.922756 0.322565 0.892787
Si Si6 0.820160 0.175806 0.260015
Si Si7 0.422895 0.822572 0.799739
O O1 0.396705 0.500000 0.500000
O O2 0.500000 0.667034 0.500000
O O3 0.401123 0.755183 0.540665
O O4 0.250000 0.250000 0.635864
O O5 0.122498 0.248191 0.618073
O O6 0.165774 0.205859 0.692767
O O7 0.182125 0.000000 0.639451
O O8 0.500000 0.792924 0.410363
O O9 0.587114 0.000000 0.416278
O O10 0.750000 0.250000 0.056153
O O11 0.875785 0.240440 0.076257
O O12 0.815566 0.000000 0.051073
O O13 0.835985 0.210319 0.000000
O O14 0.915124 0.500000 0.896970
O O15 0.907183 0.284547 0.846249
O O16 0.000000 0.288052 0.899656
O O17 0.750000 0.250000 0.250356
O O18 0.876050 0.241401 0.231435
O O19 0.815226 0.000000 0.254910
O O20 0.500000 0.787237 0.792892
O O21 0.415577 0.000000 0.795660
#
# Coordination Sequence:
#
# PCOD9489544 Si02
#       7
#     8  16  16  16  16  16  16
#     4   9  17  31  52  77 106 139 174 215 261 305
#     4  10  21  37  55  76 105 139 175 216 262 311
#     4  10  20  34  54  80 108 139 176 215 257 309
#     4  10  21  36  54  77 105 137 174 216 260 306
#     4   9  19  36  56  78 105 138 174 211 256 310
#     4  10  21  36  55  78 104 137 176 216 259 310
#     4   9  19  36  56  78 106 138 172 213 259 307
#
# _framework density 17.109883
#
# number of rings (size 3 to 8) (size 9 to 14) (size 15 to 20)
#    0.000    2.385    0.000    3.000    0.000    7.385 
#    0.000    6.538    0.000    0.000    0.000    0.000 
#    0.000    0.000    0.000    0.000    0.000    0.000 
#
# Total GULP energy -290203.441617 kJ/mol
# GULP energy per Si atom -5580.835416 kJ/mol
# Density = 1.707094 g / cm^3
# Si number density = 17.109883 Si / 1000 Ang^3
#
#
#
# Elastic Constant Matrix: (Units=GPa)
#
#
# Indices 1 2 3 4 5 6 
#
# 1 112.8836 77.4260 108.0688 0.0000 0.0000 0.0000
# 2 77.4260 85.9784 82.1519 0.0000 0.0000 0.0000
# 3 108.0688 82.1519 127.3066 0.0000 0.0000 0.0000
# 4 0.0000 0.0000 0.0000 35.2067 0.0000 0.0000
# 5 0.0000 0.0000 0.0000 0.0000 58.3926 0.0000
# 6 0.0000 0.0000 0.0000 0.0000 0.0000 36.1155
#
#
#
# Elastic Compliance Matrix: (Units=1/GPa)
#
#
# Indices 1 2 3 4 5 6 
#
# 1 0.051673 -0.012052 -0.036088 0.000000 0.000000 0.000000
# 2 -0.012052 0.033146 -0.011159 0.000000 0.000000 0.000000
# 3 -0.036088 -0.011159 0.045690 0.000000 0.000000 0.000000
# 4 0.000000 0.000000 0.000000 0.028404 0.000000 0.000000
# 5 0.000000 0.000000 0.000000 0.000000 0.017125 0.000000
# 6 0.000000 0.000000 0.000000 0.000000 0.000000 0.027689
#
#
# Mechanical properties :
#
#
# Convention : Reuss Voigt Hill
#
# Bulk Modulus (GPa) = 83.94127 95.71800 89.82963
# Shear Modulus (GPa) = 15.32361 29.84444 22.58402
#
# Velocity S-wave (km/s) = 2.99590 4.18099 3.63704
# Velocity P-wave (km/s) = 7.81881 8.90910 8.38171
#
# Compressibility (1/GPa) = 0.01191309
#
# Stress axis : x y z
#
# Youngs Moduli (GPa) = 19.35248 30.16972 21.88655
#
# Poissons Ratio (x) = 0.36359 0.78983
# Poissons Ratio (y) = 0.23323 0.24423
# Poissons Ratio (z) = 0.69838 0.33666
#
# Static dielectric constant tensor:
#      x y z
#    x 1.547440 0.000000 0.000000 
#    y 0.000000 1.567810 0.000000 
#    z 0.000000 0.000000 1.563180 
# 
# From -- ./inp_files/75475.got.cif
#   From: 2010.05.17/outbox.cif.g08.bks.cpg/sg65_38_cif.got.tgz:75475.got - 2010.06.03 17:01:31.
