data_PCOD9489776
_publ_section_title
;
Structure prediction by ZEFSAII (Michael W. Deem and Ramdas Pophale) SiO2 
 PCOD9489776
Probable space group: C M M M
;
_chemical_formula_sum "Si O2"
_cell_formula_units_Z 88
_cell_length_a 29.088937
_cell_length_b 8.817871
_cell_length_c 18.443209
_cell_angle_alpha 90.000000
_cell_angle_beta 90.000000
_cell_angle_gamma 90.000000
_cell_volume 4730.729106
_symmetry_space_group_name_H-M "C M M M"
_symmetry_group_IT_number 65
_symmetry_cell_setting 'orthorhombic'
loop_
_space_group_symop_operation_xyz
x,y,z
-x,-y,z
x,-y,-z
-x,y,-z
-x,-y,-z
x,y,-z
-x,y,z
x,-y,z
1/2+x,1/2+y,z
1/2-x,1/2-y,z
1/2+x,1/2-y,-z
1/2-x,1/2+y,-z
1/2-x,1/2-y,-z
1/2+x,1/2+y,-z
1/2-x,1/2+y,z
1/2+x,1/2-y,z
loop_
_atom_site_type_symbol
_atom_site_label
_atom_site_fract_x
_atom_site_fract_y
_atom_site_fract_z
Si Si1 0.356531 0.181089 0.418344
Si Si2 0.699081 0.317085 0.000000
Si Si3 0.052299 0.680204 0.800860
Si Si4 0.800649 0.818326 0.285187
Si Si5 0.141472 0.817403 0.858247
Si Si6 0.947480 0.181108 0.359676
O O1 0.341630 0.220235 0.500000
O O2 0.325559 0.257484 0.356937
O O3 0.408551 0.237708 0.406036
O O4 0.354749 0.000000 0.409911
O O5 0.750000 0.250000 0.000000
O O6 0.670832 0.272009 0.928331
O O7 0.702622 0.500000 0.000000
O O8 0.057478 0.500000 0.789885
O O9 0.091666 0.741604 0.853234
O O10 0.057856 0.762892 0.723266
O O11 0.000000 0.709337 0.825914
O O12 0.750000 0.750000 0.279012
O O13 0.830730 0.775949 0.214701
O O14 0.798077 0.000000 0.287935
O O15 0.136192 0.000000 0.859175
O O16 0.000000 0.215511 0.382030
O O17 0.940963 0.000000 0.362346
#
# Coordination Sequence:
#
# PCOD9489776 Si02
#       6
#    16   8  16  16  16  16
#     4  11  24  40  58  83 116 153 195 244 295 346
#     4  10  22  40  61  90 125 157 196 241 291 346
#     4  10  20  34  57  88 119 154 196 240 287 343
#     4  11  23  39  61  86 112 149 196 242 293 350
#     4  10  21  38  61  89 120 156 195 238 288 347
#     4  10  20  35  57  85 117 153 193 238 290 349
#
# _framework density 18.601785
#
# number of rings (size 3 to 8) (size 9 to 14) (size 15 to 20)
#    0.000    1.636    1.818    2.727    0.000    5.818 
#    0.000    2.273    0.000    2.727    0.000    0.000 
#    0.000    0.000    0.000    0.000    0.000    0.000 
#
# Total GULP energy -245883.142706 kJ/mol
# GULP energy per Si atom -5588.253243 kJ/mol
# Density = 1.855945 g / cm^3
# Si number density = 18.601785 Si / 1000 Ang^3
#
#
#
# Elastic Constant Matrix: (Units=GPa)
#
#
# Indices 1 2 3 4 5 6 
#
# 1 126.3597 42.8522 71.8076 0.0000 0.0000 0.0000
# 2 42.8522 41.4977 43.6789 0.0000 0.0000 0.0000
# 3 71.8076 43.6789 125.5722 0.0000 0.0000 0.0000
# 4 0.0000 0.0000 0.0000 15.5054 0.0000 0.0000
# 5 0.0000 0.0000 0.0000 0.0000 11.7422 0.0000
# 6 0.0000 0.0000 0.0000 0.0000 0.0000 39.7067
#
#
#
# Elastic Compliance Matrix: (Units=1/GPa)
#
#
# Indices 1 2 3 4 5 6 
#
# 1 0.013670 -0.009289 -0.004586 0.000000 0.000000 0.000000
# 2 -0.009289 0.044329 -0.010107 0.000000 0.000000 0.000000
# 3 -0.004586 -0.010107 0.014102 0.000000 0.000000 0.000000
# 4 0.000000 0.000000 0.000000 0.064494 0.000000 0.000000
# 5 0.000000 0.000000 0.000000 0.000000 0.085163 0.000000
# 6 0.000000 0.000000 0.000000 0.000000 0.000000 0.025185
#
#
# Mechanical properties :
#
#
# Convention : Reuss Voigt Hill
#
# Bulk Modulus (GPa) = 41.43278 67.78966 54.61122
# Shear Modulus (GPa) = 16.50423 22.39693 19.45058
#
# Velocity S-wave (km/s) = 2.98189 3.47366 3.23713
# Velocity P-wave (km/s) = 5.84615 7.25328 6.58740
#
# Compressibility (1/GPa) = 0.02413548
#
# Stress axis : x y z
#
# Youngs Moduli (GPa) = 73.15068 22.55872 70.91317
#
# Poissons Ratio (x) = 0.20956 0.32521
# Poissons Ratio (y) = 0.67953 0.71673
# Poissons Ratio (z) = 0.33548 0.22801
#
# Static dielectric constant tensor:
#      x y z
#    x 1.631700 0.000000 0.000000 
#    y 0.000000 1.621370 0.000000 
#    z 0.000000 0.000000 1.628730 
# 
# From -- ./inp_files/50409.got.cif
#   From: 2010.05.17/outbox.cif.g08.bks.cpg/sg65_26_cif.got.tgz:50409.got - 2010.06.03 17:01:31.
