data_PCOD9489871
_publ_section_title
;
Structure prediction by ZEFSAII (Michael W. Deem and Ramdas Pophale) SiO2 
 PCOD9489871
Probable space group: C M M M
;
_chemical_formula_sum "Si O2"
_cell_formula_units_Z 104
_cell_length_a 16.530473
_cell_length_b 14.808326
_cell_length_c 24.164452
_cell_angle_alpha 90.000000
_cell_angle_beta 90.000000
_cell_angle_gamma 90.000000
_cell_volume 5915.183175
_symmetry_space_group_name_H-M "C M M M"
_symmetry_group_IT_number 65
_symmetry_cell_setting 'orthorhombic'
loop_
_space_group_symop_operation_xyz
x,y,z
-x,-y,z
x,-y,-z
-x,y,-z
-x,-y,-z
x,y,-z
-x,y,z
x,-y,z
1/2+x,1/2+y,z
1/2-x,1/2-y,z
1/2+x,1/2-y,-z
1/2-x,1/2+y,-z
1/2-x,1/2-y,-z
1/2+x,1/2+y,-z
1/2-x,1/2+y,z
1/2+x,1/2-y,z
loop_
_atom_site_type_symbol
_atom_site_label
_atom_site_fract_x
_atom_site_fract_y
_atom_site_fract_z
Si Si1 0.401818 0.394549 0.878657
Si Si2 0.098771 0.206382 0.439522
Si Si3 0.403720 0.901945 0.729253
Si Si4 0.157536 0.221914 0.776052
Si Si5 0.906714 0.890331 0.000000
Si Si6 0.902098 0.893688 0.327488
Si Si7 0.901250 0.600606 0.601771
O O1 0.500000 0.391286 0.878964
O O2 0.379921 0.500000 0.869589
O O3 0.369742 0.332174 0.830034
O O4 0.372087 0.365304 0.940034
O O5 0.125056 0.173397 0.500000
O O6 0.123654 0.148049 0.386474
O O7 0.124517 0.310622 0.431055
O O8 0.000000 0.205226 0.439135
O O9 0.500000 0.908095 0.724837
O O10 0.386342 0.817277 0.767165
O O11 0.375226 0.887343 0.665893
O O12 0.372283 0.000000 0.748320
O O13 0.250000 0.250000 0.778527
O O14 0.137952 0.160242 0.722731
O O15 0.000000 0.859185 0.000000
O O16 0.908632 0.000000 0.000000
O O17 0.000000 0.882253 0.322605
O O18 0.884564 0.000000 0.324796
O O19 0.875959 0.500000 0.583187
O O20 0.000000 0.600656 0.600491
#
# Coordination Sequence:
#
# PCOD9489871 Si02
#       7
#    16  16  16  16   8  16  16
#     4   9  17  32  56  83 109 137 170 209 250 294
#     4   9  16  26  44  72 100 121 151 205 266 316
#     4   9  17  31  50  67  88 124 167 208 247 290
#     4  12  23  32  47  74 106 135 167 206 253 300
#     4   7  12  26  51  82 109 133 167 209 248 285
#     4  10  20  35  54  73  97 130 168 210 256 310
#     4   8  13  23  41  64  89 118 153 196 245 292
#
# _framework density 17.581873000000002
#
# number of rings (size 3 to 8) (size 9 to 14) (size 15 to 20)
#    0.000    2.692    1.538    3.692    0.000    3.077 
#    0.000    3.462    0.000    0.462    0.000    0.538 
#    0.000    3.077    0.000    0.000    0.000    0.462 
#
# Total GULP energy -289687.565553 kJ/mol
# GULP energy per Si atom -5570.914722 kJ/mol
# Density = 1.754186 g / cm^3
# Si number density = 17.581873 Si / 1000 Ang^3
#
#
#
# Elastic Constant Matrix: (Units=GPa)
#
#
# Indices 1 2 3 4 5 6 
#
# 1 12.9268 20.0455 22.5016 0.0000 0.0000 0.0000
# 2 20.0455 103.1468 80.8176 0.0000 0.0000 0.0000
# 3 22.5016 80.8176 163.4104 0.0000 0.0000 0.0000
# 4 0.0000 0.0000 0.0000 30.4366 0.0000 0.0000
# 5 0.0000 0.0000 0.0000 0.0000 -5.0629 0.0000
# 6 0.0000 0.0000 0.0000 0.0000 0.0000 -4.1880
#
#
#
# Elastic Compliance Matrix: (Units=1/GPa)
#
#
# Indices 1 2 3 4 5 6 
#
# 1 0.116689 -0.016470 -0.007923 0.000000 0.000000 0.000000
# 2 -0.016470 0.018153 -0.006710 0.000000 0.000000 0.000000
# 3 -0.007923 -0.006710 0.010529 0.000000 0.000000 0.000000
# 4 0.000000 0.000000 0.000000 0.032855 0.000000 0.000000
# 5 0.000000 0.000000 0.000000 0.000000 -0.197514 0.000000
# 6 0.000000 0.000000 0.000000 0.000000 0.000000 -0.238779
#
#
# Mechanical properties :
#
#
# Convention : Reuss Voigt Hill
#
# Bulk Modulus (GPa) = 12.02406 58.46813 35.24609
# Shear Modulus (GPa) = -29.73727 14.64510 -7.54609
#
# Velocity S-wave (km/s) = -4.11708 2.88925 -2.07395
# Velocity P-wave (km/s) = 3.96821 6.66763 3.78884
#
# Compressibility (1/GPa) = 0.08316658
#
# Stress axis : x y z
#
# Youngs Moduli (GPa) = 8.56976 55.08698 94.97480
#
# Poissons Ratio (x) = 0.90727 0.75246
# Poissons Ratio (y) = 0.14114 0.63729
# Poissons Ratio (z) = 0.06790 0.36964
#
# Static dielectric constant tensor:
#      x y z
#    x 1.594940 0.000000 0.000000 
#    y 0.000000 1.571820 0.000000 
#    z 0.000000 0.000000 1.610590 
# 
# From -- ./inp_files/70551.got.cif
#   From: 2010.05.17/outbox.cif.g08.bks.cpg/sg65_36_cif.got.tgz:70551.got - 2010.06.03 17:01:31.
