data_PCOD9489396
_publ_section_title
;
Structure prediction by ZEFSAII (Michael W. Deem and Ramdas Pophale) SiO2 
 PCOD9489396
Probable space group: C M M M
;
_chemical_formula_sum "Si O2"
_cell_formula_units_Z 96
_cell_length_a 30.495667
_cell_length_b 20.110099
_cell_length_c 8.839788
_cell_angle_alpha 90.000000
_cell_angle_beta 90.000000
_cell_angle_gamma 90.000000
_cell_volume 5421.184587
_symmetry_space_group_name_H-M "C M M M"
_symmetry_group_IT_number 65
_symmetry_cell_setting 'orthorhombic'
loop_
_space_group_symop_operation_xyz
x,y,z
-x,-y,z
x,-y,-z
-x,y,-z
-x,-y,-z
x,y,-z
-x,y,z
x,-y,z
1/2+x,1/2+y,z
1/2-x,1/2-y,z
1/2+x,1/2-y,-z
1/2-x,1/2+y,-z
1/2-x,1/2-y,-z
1/2+x,1/2+y,-z
1/2-x,1/2+y,z
1/2+x,1/2-y,z
loop_
_atom_site_type_symbol
_atom_site_label
_atom_site_fract_x
_atom_site_fract_y
_atom_site_fract_z
Si Si1 0.872024 0.301975 0.818864
Si Si2 0.327276 0.076453 0.676408
Si Si3 0.268824 0.424242 0.819112
Si Si4 0.050209 0.790426 0.818204
Si Si5 0.203784 0.211910 0.320131
Si Si6 0.553178 0.572293 0.321867
O O1 0.861815 0.371953 0.741640
O O2 0.917808 0.268667 0.771602
O O3 0.833722 0.252241 0.765822
O O4 0.871119 0.308740 0.000000
O O5 0.317948 0.091465 0.500000
O O6 0.281916 0.082645 0.768257
O O7 0.341791 0.000000 0.687572
O O8 0.282490 0.500000 0.777493
O O9 0.293381 0.363691 0.738376
O O10 0.272173 0.417537 0.000000
O O11 0.068132 0.861391 0.760907
O O12 0.000000 0.782210 0.764633
O O13 0.049519 0.792531 0.000000
O O14 0.195964 0.213119 0.500000
O O15 0.250000 0.250000 0.292034
O O16 0.563088 0.576855 0.500000
O O17 0.500000 0.571562 0.307431
O O18 0.568976 0.500000 0.265421
#
# Coordination Sequence:
#
# PCOD9489396 Si02
#       6
#    16  16  16  16  16  16
#     4  11  22  35  55  80 106 139 177 219 264 313
#     4  10  20  34  53  78 107 137 172 215 260 311
#     4  10  20  34  54  79 107 141 179 218 260 309
#     4   9  19  35  53  76 105 136 174 220 268 314
#     4  11  22  35  53  78 108 142 175 214 260 308
#     4   8  14  26  46  72  99 128 166 210 254 303
#
# _framework density 17.708307000000001
#
# number of rings (size 3 to 8) (size 9 to 14) (size 15 to 20)
#    0.000    2.167    1.667    2.500    0.000    4.333 
#    0.000    2.500    0.000    1.500    0.000    3.500 
#    0.000    0.000    0.000    0.000    0.000    0.000 
#
# Total GULP energy -267813.717450 kJ/mol
# GULP energy per Si atom -5579.452447 kJ/mol
# Density = 1.766800 g / cm^3
# Si number density = 17.708307 Si / 1000 Ang^3
#
#
#
# Elastic Constant Matrix: (Units=GPa)
#
#
# Indices 1 2 3 4 5 6 
#
# 1 31.6866 20.0188 5.2992 0.0000 0.0000 0.0000
# 2 20.0188 97.4266 21.3030 0.0000 0.0000 0.0000
# 3 5.2992 21.3030 26.2436 0.0000 0.0000 0.0000
# 4 0.0000 0.0000 0.0000 34.8371 0.0000 0.0000
# 5 0.0000 0.0000 0.0000 0.0000 7.4029 0.0000
# 6 0.0000 0.0000 0.0000 0.0000 0.0000 26.1780
#
#
#
# Elastic Compliance Matrix: (Units=1/GPa)
#
#
# Indices 1 2 3 4 5 6 
#
# 1 0.036319 -0.007123 -0.001551 0.000000 0.000000 0.000000
# 2 -0.007123 0.013876 -0.009826 0.000000 0.000000 0.000000
# 3 -0.001551 -0.009826 0.046394 0.000000 0.000000 0.000000
# 4 0.000000 0.000000 0.000000 0.028705 0.000000 0.000000
# 5 0.000000 0.000000 0.000000 0.000000 0.135082 0.000000
# 6 0.000000 0.000000 0.000000 0.000000 0.000000 0.038200
#
#
# Mechanical properties :
#
#
# Convention : Reuss Voigt Hill
#
# Bulk Modulus (GPa) = 16.78184 27.62209 22.20196
# Shear Modulus (GPa) = 14.06710 20.93264 17.49987
#
# Velocity S-wave (km/s) = 2.82153 3.44187 3.14702
# Velocity P-wave (km/s) = 4.48465 5.60603 5.07640
#
# Compressibility (1/GPa) = 0.05958824
#
# Stress axis : x y z
#
# Youngs Moduli (GPa) = 27.53385 72.06547 21.55473
#
# Poissons Ratio (x) = 0.51336 0.03344
# Poissons Ratio (y) = 0.19614 0.21179
# Poissons Ratio (z) = 0.04271 0.70808
#
# Static dielectric constant tensor:
#      x y z
#    x 1.602960 0.000000 0.000000 
#    y 0.000000 1.620660 0.000000 
#    z 0.000000 0.000000 1.590270 
# 
# From -- ./inp_files/12198.got.cif
#   From: 2010.05.17/outbox.cif.g08.bks.cpg/sg65_7_cif.got.tgz:12198.got - 2010.06.03 17:01:31.
