data_PCOD9489763
_publ_section_title
;
Structure prediction by ZEFSAII (Michael W. Deem and Ramdas Pophale) SiO2 
 PCOD9489763
Probable space group: C M M M
;
_chemical_formula_sum "Si O2"
_cell_formula_units_Z 80
_cell_length_a 12.038735
_cell_length_b 28.205328
_cell_length_c 13.179261
_cell_angle_alpha 90.000000
_cell_angle_beta 90.000000
_cell_angle_gamma 90.000000
_cell_volume 4475.103334
_symmetry_space_group_name_H-M "C M M M"
_symmetry_group_IT_number 65
_symmetry_cell_setting 'orthorhombic'
loop_
_space_group_symop_operation_xyz
x,y,z
-x,-y,z
x,-y,-z
-x,y,-z
-x,-y,-z
x,y,-z
-x,y,z
x,-y,z
1/2+x,1/2+y,z
1/2-x,1/2-y,z
1/2+x,1/2-y,-z
1/2-x,1/2+y,-z
1/2-x,1/2-y,-z
1/2+x,1/2+y,-z
1/2-x,1/2+y,z
1/2+x,1/2-y,z
loop_
_atom_site_type_symbol
_atom_site_label
_atom_site_fract_x
_atom_site_fract_y
_atom_site_fract_z
Si Si1 0.783654 0.556099 0.254707
Si Si2 0.290763 0.803122 0.703946
Si Si3 0.622820 0.773335 0.500000
Si Si4 0.500000 0.942428 0.385433
Si Si5 0.868312 0.118329 0.381724
Si Si6 0.368873 0.867977 0.115403
O O1 0.784198 0.500000 0.239344
O O2 0.889777 0.570564 0.324247
O O3 0.678423 0.574216 0.317767
O O4 0.800713 0.586060 0.152750
O O5 0.250000 0.750000 0.725767
O O6 0.371471 0.801146 0.606101
O O7 0.188201 0.835445 0.666891
O O8 0.342732 0.827398 0.802537
O O9 0.500000 0.747614 0.500000
O O10 0.750000 0.750000 0.500000
O O11 0.500000 0.923905 0.500000
O O12 0.500000 0.000000 0.390454
O O13 0.835435 0.114623 0.500000
O O14 0.000000 0.121204 0.376279
O O15 0.500000 0.878993 0.118808
O O16 0.340729 0.854704 0.000000
#
# Coordination Sequence:
#
# PCOD9489763 Si02
#       6
#    16  16   8   8  16  16
#     4  10  20  35  54  80 110 146 188 236 292 350
#     4  10  21  37  57  85 115 155 195 239 290 352
#     4  10  20  34  56  88 119 152 191 237 293 356
#     4   9  16  28  49  77 109 141 176 221 279 349
#     4  10  21  36  54  82 118 155 192 233 283 344
#     4  10  21  37  56  81 112 146 191 247 300 348
#
# _framework density 17.876681999999999
#
# number of rings (size 3 to 8) (size 9 to 14) (size 15 to 20)
#    0.000    2.100    2.000    1.200    0.000    6.400 
#    0.000    2.000    0.000    9.600    0.000    5.600 
#    0.000    0.000    0.000    0.000    0.000    0.000 
#
# Total GULP energy -223026.691459 kJ/mol
# GULP energy per Si atom -5575.667286 kJ/mol
# Density = 1.783599 g / cm^3
# Si number density = 17.876682 Si / 1000 Ang^3
#
#
#
# Elastic Constant Matrix: (Units=GPa)
#
#
# Indices 1 2 3 4 5 6 
#
# 1 75.6683 13.7823 35.1286 0.0000 0.0000 0.0000
# 2 13.7823 90.8643 47.4801 0.0000 0.0000 0.0000
# 3 35.1286 47.4801 148.2323 0.0000 0.0000 0.0000
# 4 0.0000 0.0000 0.0000 18.6367 0.0000 0.0000
# 5 0.0000 0.0000 0.0000 0.0000 20.1192 0.0000
# 6 0.0000 0.0000 0.0000 0.0000 0.0000 15.1080
#
#
#
# Elastic Compliance Matrix: (Units=1/GPa)
#
#
# Indices 1 2 3 4 5 6 
#
# 1 0.014868 -0.000497 -0.003364 0.000000 0.000000 0.000000
# 2 -0.000497 0.013234 -0.004121 0.000000 0.000000 0.000000
# 3 -0.003364 -0.004121 0.008863 0.000000 0.000000 0.000000
# 4 0.000000 0.000000 0.000000 0.053658 0.000000 0.000000
# 5 0.000000 0.000000 0.000000 0.000000 0.049704 0.000000
# 6 0.000000 0.000000 0.000000 0.000000 0.000000 0.066190
#
#
# Mechanical properties :
#
#
# Convention : Reuss Voigt Hill
#
# Bulk Modulus (GPa) = 47.61803 56.39408 52.00605
# Shear Modulus (GPa) = 21.78814 25.33104 23.55959
#
# Velocity S-wave (km/s) = 3.49492 3.76837 3.63422
# Velocity P-wave (km/s) = 6.55597 7.10977 6.83848
#
# Compressibility (1/GPa) = 0.02100045
#
# Stress axis : x y z
#
# Youngs Moduli (GPa) = 67.25881 75.56093 112.82237
#
# Poissons Ratio (x) = 0.03757 0.37955
# Poissons Ratio (y) = 0.03344 0.46497
# Poissons Ratio (z) = 0.22627 0.31140
#
# Static dielectric constant tensor:
#      x y z
#    x 1.626260 0.000000 0.000000 
#    y 0.000000 1.635590 0.000000 
#    z 0.000000 0.000000 1.611890 
# 
# From -- ./inp_files/22892.got.cif
#   From: 2010.05.17/outbox.cif.g08.bks.cpg/sg65_12_cif.got.tgz:22892.got - 2010.06.03 17:01:31.
