data_PCOD9489821
_publ_section_title
;
Structure prediction by ZEFSAII (Michael W. Deem and Ramdas Pophale) SiO2 
 PCOD9489821
Probable space group: C M M M
;
_chemical_formula_sum "Si O2"
_cell_formula_units_Z 88
_cell_length_a 27.655023
_cell_length_b 7.919491
_cell_length_c 23.511840
_cell_angle_alpha 90.000000
_cell_angle_beta 90.000000
_cell_angle_gamma 90.000000
_cell_volume 5149.415207
_symmetry_space_group_name_H-M "C M M M"
_symmetry_group_IT_number 65
_symmetry_cell_setting 'orthorhombic'
loop_
_space_group_symop_operation_xyz
x,y,z
-x,-y,z
x,-y,-z
-x,y,-z
-x,-y,-z
x,y,-z
-x,y,z
x,-y,z
1/2+x,1/2+y,z
1/2-x,1/2-y,z
1/2+x,1/2-y,-z
1/2-x,1/2+y,-z
1/2-x,1/2-y,-z
1/2+x,1/2+y,-z
1/2-x,1/2+y,z
1/2+x,1/2-y,z
loop_
_atom_site_type_symbol
_atom_site_label
_atom_site_fract_x
_atom_site_fract_y
_atom_site_fract_z
Si Si1 0.058874 0.000000 0.565314
Si Si2 0.096409 0.706075 0.229686
Si Si3 0.058340 0.303864 0.646869
Si Si4 0.803925 0.303642 0.182009
Si Si5 0.655987 0.699606 0.937590
Si Si6 0.446373 0.795305 0.109685
O O1 0.073687 0.168950 0.599318
O O2 0.075200 0.000000 0.500000
O O3 0.000000 0.000000 0.564820
O O4 0.096179 0.500000 0.229383
O O5 0.077306 0.753784 0.291376
O O6 0.150377 0.771948 0.215896
O O7 0.063778 0.754740 0.175422
O O8 0.073174 0.500000 0.636483
O O9 0.000000 0.303511 0.649040
O O10 0.806286 0.500000 0.193547
O O11 0.750000 0.250000 0.196122
O O12 0.815356 0.276054 0.115371
O O13 0.664930 0.500000 0.936692
O O14 0.599005 0.729986 0.926071
O O15 0.668910 0.766992 0.000000
O O16 0.500000 0.740600 0.091916
O O17 0.444781 0.000000 0.106977
#
# Coordination Sequence:
#
# PCOD9489821 Si02
#       6
#     8  16  16  16  16  16
#     4   9  18  30  42  66 104 138 173 207 229 265
#     4   8  15  29  48  68  92 121 151 190 232 284
#     4   9  16  28  47  69  97 135 170 200 236 276
#     4  10  20  35  53  71  92 117 145 188 245 294
#     4  10  21  35  48  64  88 118 155 194 233 282
#     4   9  17  30  48  68  91 120 153 191 238 285
#
# _framework density 17.089319
#
# number of rings (size 3 to 8) (size 9 to 14) (size 15 to 20)
#    0.000    2.818    0.000    2.727    0.000    5.091 
#    8.182    3.636    0.000    0.000    0.000    0.000 
#    0.000    0.727    0.364    0.000    0.000    0.000 
#
# Total GULP energy -245195.236311 kJ/mol
# GULP energy per Si atom -5572.619007 kJ/mol
# Density = 1.705042 g / cm^3
# Si number density = 17.089319 Si / 1000 Ang^3
#
#
#
# Elastic Constant Matrix: (Units=GPa)
#
#
# Indices 1 2 3 4 5 6 
#
# 1 35.4713 1.8967 -13.9502 0.0000 0.0000 0.0000
# 2 1.8967 32.6687 13.7361 0.0000 0.0000 0.0000
# 3 -13.9502 13.7361 71.5728 0.0000 0.0000 0.0000
# 4 0.0000 0.0000 0.0000 41.9155 0.0000 0.0000
# 5 0.0000 0.0000 0.0000 0.0000 -0.9780 0.0000
# 6 0.0000 0.0000 0.0000 0.0000 0.0000 20.7322
#
#
#
# Elastic Compliance Matrix: (Units=1/GPa)
#
#
# Indices 1 2 3 4 5 6 
#
# 1 0.031196 -0.004751 0.006992 0.000000 0.000000 0.000000
# 2 -0.004751 0.034021 -0.007455 0.000000 0.000000 0.000000
# 3 0.006992 -0.007455 0.016765 0.000000 0.000000 0.000000
# 4 0.000000 0.000000 0.000000 0.023858 0.000000 0.000000
# 5 0.000000 0.000000 0.000000 0.000000 -1.022544 0.000000
# 6 0.000000 0.000000 0.000000 0.000000 0.000000 0.048234
#
#
# Mechanical properties :
#
#
# Convention : Reuss Voigt Hill
#
# Bulk Modulus (GPa) = 13.97554 15.89755 14.93655
# Shear Modulus (GPa) = -5.99383 21.53597 7.77107
#
# Velocity S-wave (km/s) = -1.87483 3.55378 2.13476
# Velocity P-wave (km/s) = 1.87325 5.11488 3.85169
#
# Compressibility (1/GPa) = 0.07155358
#
# Stress axis : x y z
#
# Youngs Moduli (GPa) = 32.05566 29.39377 59.64664
#
# Poissons Ratio (x) = 0.13965 -0.41706
# Poissons Ratio (y) = 0.15230 0.44468
# Poissons Ratio (z) = -0.22414 0.21914
#
# Static dielectric constant tensor:
#      x y z
#    x 1.596690 0.000000 0.000000 
#    y 0.000000 1.621590 0.000000 
#    z 0.000000 0.000000 1.571800 
# 
# From -- ./inp_files/65743.got.cif
#   From: 2010.05.17/outbox.cif.g08.bks.cpg/sg65_33_cif.got.tgz:65743.got - 2010.06.03 17:01:31.
