data_PCOD9489764
_publ_section_title
;
Structure prediction by ZEFSAII (Michael W. Deem and Ramdas Pophale) SiO2 
 PCOD9489764
Probable space group: C M M M
;
_chemical_formula_sum "Si O2"
_cell_formula_units_Z 72
_cell_length_a 18.597663
_cell_length_b 25.234246
_cell_length_c 7.385138
_cell_angle_alpha 90.000000
_cell_angle_beta 90.000000
_cell_angle_gamma 90.000000
_cell_volume 3465.830517
_symmetry_space_group_name_H-M "C M M M"
_symmetry_group_IT_number 65
_symmetry_cell_setting 'orthorhombic'
loop_
_space_group_symop_operation_xyz
x,y,z
-x,-y,z
x,-y,-z
-x,y,-z
-x,-y,-z
x,y,-z
-x,y,z
x,-y,z
1/2+x,1/2+y,z
1/2-x,1/2-y,z
1/2+x,1/2-y,-z
1/2-x,1/2+y,-z
1/2-x,1/2-y,-z
1/2+x,1/2+y,-z
1/2-x,1/2+y,z
1/2+x,1/2-y,z
loop_
_atom_site_type_symbol
_atom_site_label
_atom_site_fract_x
_atom_site_fract_y
_atom_site_fract_z
Si Si1 0.313871 0.656584 0.209434
Si Si2 0.918705 0.752563 0.220224
Si Si3 0.586129 0.061466 0.500000
Si Si4 0.651448 0.859938 0.781674
Si Si5 0.081681 0.060675 0.718702
O O1 0.362368 0.703698 0.288030
O O2 0.233924 0.647948 0.280773
O O3 0.360667 0.603185 0.218142
O O4 0.301971 0.671267 0.000000
O O5 0.891970 0.693664 0.262623
O O6 0.000000 0.762230 0.283199
O O7 0.920109 0.756286 0.000000
O O8 0.500000 0.065211 0.500000
O O9 0.617025 0.091600 0.325247
O O10 0.607019 0.000000 0.500000
O O11 0.649391 0.867625 0.000000
O O12 0.082355 0.061312 0.500000
O O13 0.000000 0.074412 0.776337
O O14 0.096393 0.000000 0.775391
#
# Coordination Sequence:
#
# PCOD9489764 Si02
#       5
#    16  16   8  16  16
#     4  10  20  34  56  88 120 152 197 247 295 355
#     4   9  17  33  59  87 120 161 198 240 296 356
#     4  11  26  46  67  92 119 153 203 256 302 358
#     4  10  22  41  64  91 125 161 196 245 309 364
#     4   9  19  35  52  73 109 157 202 244 293 349
#
# _framework density 20.774242999999998
#
# number of rings (size 3 to 8) (size 9 to 14) (size 15 to 20)
#    0.000    2.333    0.000    2.667    1.556    7.111 
#    2.000    5.556    0.000    0.000    0.000    0.000 
#    0.000    0.000    0.000    0.000    0.000    0.000 
#
# Total GULP energy -201163.433311 kJ/mol
# GULP energy per Si atom -5587.873148 kJ/mol
# Density = 2.072696 g / cm^3
# Si number density = 20.774243 Si / 1000 Ang^3
#
#
#
# Elastic Constant Matrix: (Units=GPa)
#
#
# Indices 1 2 3 4 5 6 
#
# 1 125.3080 74.0446 26.3602 0.0000 0.0000 0.0000
# 2 74.0446 134.3100 31.0250 0.0000 0.0000 0.0000
# 3 26.3602 31.0250 86.8019 0.0000 0.0000 0.0000
# 4 0.0000 0.0000 0.0000 31.0626 0.0000 0.0000
# 5 0.0000 0.0000 0.0000 0.0000 15.8264 0.0000
# 6 0.0000 0.0000 0.0000 0.0000 0.0000 -584.9329
#
#
#
# Elastic Compliance Matrix: (Units=1/GPa)
#
#
# Indices 1 2 3 4 5 6 
#
# 1 0.011989 -0.006287 -0.001393 0.000000 0.000000 0.000000
# 2 -0.006287 0.011413 -0.002170 0.000000 0.000000 0.000000
# 3 -0.001393 -0.002170 0.012719 0.000000 0.000000 0.000000
# 4 0.000000 0.000000 0.000000 0.032193 0.000000 0.000000
# 5 0.000000 0.000000 0.000000 0.000000 0.063185 0.000000
# 6 0.000000 0.000000 0.000000 0.000000 0.000000 -0.001710
#
#
# Mechanical properties :
#
#
# Convention : Reuss Voigt Hill
#
# Bulk Modulus (GPa) = 60.90392 67.69771 64.30082
# Shear Modulus (GPa) = 32.26544 -93.27610 -30.50533
#
# Velocity S-wave (km/s) = 3.94527 -6.70801 -3.83616
# Velocity P-wave (km/s) = 7.08055 5.22861 3.37608
#
# Compressibility (1/GPa) = 0.01641930
#
# Stress axis : x y z
#
# Youngs Moduli (GPa) = 83.41153 87.61971 78.62114
#
# Poissons Ratio (x) = 0.55091 0.10956
# Poissons Ratio (y) = 0.52445 0.17060
# Poissons Ratio (z) = 0.11623 0.19012
#
# Static dielectric constant tensor:
#      x y z
#    x 1.721740 0.000000 0.000000 
#    y 0.000000 1.693110 0.000000 
#    z 0.000000 0.000000 1.794100 
# 
# From -- ./inp_files/9277.got.cif
#   From: 2010.05.17/outbox.cif.g08.bks.cpg/sg65_5_cif.got.tgz:9277.got - 2010.06.03 17:01:31.
