data_PCOD9489288
_publ_section_title
;
Structure prediction by ZEFSAII (Michael W. Deem and Ramdas Pophale) SiO2 
 PCOD9489288
Probable space group: C M M M
;
_chemical_formula_sum "Si O2"
_cell_formula_units_Z 80
_cell_length_a 27.822965
_cell_length_b 8.779329
_cell_length_c 18.924463
_cell_angle_alpha 90.000000
_cell_angle_beta 90.000000
_cell_angle_gamma 90.000000
_cell_volume 4622.621113
_symmetry_space_group_name_H-M "C M M M"
_symmetry_group_IT_number 65
_symmetry_cell_setting 'orthorhombic'
loop_
_space_group_symop_operation_xyz
x,y,z
-x,-y,z
x,-y,-z
-x,y,-z
-x,-y,-z
x,y,-z
-x,y,z
x,-y,z
1/2+x,1/2+y,z
1/2-x,1/2-y,z
1/2+x,1/2-y,-z
1/2-x,1/2+y,-z
1/2-x,1/2-y,-z
1/2+x,1/2+y,-z
1/2-x,1/2+y,z
1/2+x,1/2-y,z
loop_
_atom_site_type_symbol
_atom_site_label
_atom_site_fract_x
_atom_site_fract_y
_atom_site_fract_z
Si Si1 0.394448 0.683389 0.644890
Si Si2 0.802284 0.681810 0.286162
Si Si3 0.055194 0.816538 0.207907
Si Si4 0.444596 0.686029 0.500000
Si Si5 0.647258 0.817848 0.138211
Si Si6 0.196470 0.181655 0.000000
O O1 0.389887 0.500000 0.643261
O O2 0.342744 0.754406 0.661310
O O3 0.428532 0.720921 0.711814
O O4 0.417657 0.734232 0.571329
O O5 0.800639 0.500000 0.290795
O O6 0.750000 0.750000 0.298961
O O7 0.820611 0.722720 0.207055
O O8 0.093666 0.738279 0.156750
O O9 0.000000 0.772131 0.195931
O O10 0.058796 0.000000 0.200370
O O11 0.444940 0.500000 0.500000
O O12 0.500000 0.735506 0.500000
O O13 0.668745 0.739467 0.069343
O O14 0.648069 0.000000 0.129915
O O15 0.250000 0.250000 0.000000
O O16 0.199278 0.000000 0.000000
#
# Coordination Sequence:
#
# PCOD9489288 Si02
#       6
#    16  16  16   8  16   8
#     4   9  17  30  50  76 105 135 170 211 253 301
#     4  10  20  34  53  75 100 132 170 211 254 301
#     4   9  17  31  52  77 105 138 174 212 255 302
#     4   9  16  28  50  79 106 133 168 209 252 299
#     4  10  21  36  54  78 106 135 170 211 254 302
#     4  12  24  38  57  80 107 136 166 205 253 305
#
# _framework density 17.306197999999998
#
# number of rings (size 3 to 8) (size 9 to 14) (size 15 to 20)
#    0.000    2.300    0.000    3.300    0.000    6.800 
#    0.000    1.500    0.000    5.400    0.000    0.000 
#    0.000    0.000    0.000    0.000    0.000    0.000 
#
# Total GULP energy -223275.852317 kJ/mol
# GULP energy per Si atom -5581.896308 kJ/mol
# Density = 1.726681 g / cm^3
# Si number density = 17.306198 Si / 1000 Ang^3
#
#
#
# Elastic Constant Matrix: (Units=GPa)
#
#
# Indices 1 2 3 4 5 6 
#
# 1 187.7214 55.6631 97.7548 0.0000 0.0000 0.0000
# 2 55.6631 42.6589 50.7527 0.0000 0.0000 0.0000
# 3 97.7548 50.7527 141.9028 0.0000 0.0000 0.0000
# 4 0.0000 0.0000 0.0000 18.6067 0.0000 0.0000
# 5 0.0000 0.0000 0.0000 0.0000 16.4075 0.0000
# 6 0.0000 0.0000 0.0000 0.0000 0.0000 29.3238
#
#
#
# Elastic Compliance Matrix: (Units=1/GPa)
#
#
# Indices 1 2 3 4 5 6 
#
# 1 0.009719 -0.008209 -0.003759 0.000000 0.000000 0.000000
# 2 -0.008209 0.047739 -0.011419 0.000000 0.000000 0.000000
# 3 -0.003759 -0.011419 0.013721 0.000000 0.000000 0.000000
# 4 0.000000 0.000000 0.000000 0.053744 0.000000 0.000000
# 5 0.000000 0.000000 0.000000 0.000000 0.060948 0.000000
# 6 0.000000 0.000000 0.000000 0.000000 0.000000 0.034102
#
#
# Mechanical properties :
#
#
# Convention : Reuss Voigt Hill
#
# Bulk Modulus (GPa) = 40.97687 86.73604 63.85645
# Shear Modulus (GPa) = 18.18963 24.07508 21.13235
#
# Velocity S-wave (km/s) = 3.24550 3.73382 3.49819
# Velocity P-wave (km/s) = 6.14600 8.29553 7.30032
#
# Compressibility (1/GPa) = 0.02440401
#
# Stress axis : x y z
#
# Youngs Moduli (GPa) = 102.89438 20.94717 72.88239
#
# Poissons Ratio (x) = 0.17196 0.27396
# Poissons Ratio (y) = 0.84468 0.83225
# Poissons Ratio (z) = 0.38678 0.23920
#
# Static dielectric constant tensor:
#      x y z
#    x 1.561820 0.000000 0.000000 
#    y 0.000000 1.581100 0.000000 
#    z 0.000000 0.000000 1.570800 
# 
# From -- ./inp_files/49897.got.cif
#   From: 2010.05.17/outbox.cif.g08.bks.cpg/sg65_25_cif.got.tgz:49897.got - 2010.06.03 17:01:31.
