data_PCOD9489793
_publ_section_title
;
Structure prediction by ZEFSAII (Michael W. Deem and Ramdas Pophale) SiO2 
 PCOD9489793
Probable space group: C M M M
;
_chemical_formula_sum "Si O2"
_cell_formula_units_Z 80
_cell_length_a 22.807892
_cell_length_b 13.863682
_cell_length_c 14.506961
_cell_angle_alpha 90.000000
_cell_angle_beta 90.000000
_cell_angle_gamma 90.000000
_cell_volume 4587.120823
_symmetry_space_group_name_H-M "C M M M"
_symmetry_group_IT_number 65
_symmetry_cell_setting 'orthorhombic'
loop_
_space_group_symop_operation_xyz
x,y,z
-x,-y,z
x,-y,-z
-x,y,-z
-x,-y,-z
x,y,-z
-x,y,z
x,-y,z
1/2+x,1/2+y,z
1/2-x,1/2-y,z
1/2+x,1/2-y,-z
1/2-x,1/2+y,-z
1/2-x,1/2-y,-z
1/2+x,1/2+y,-z
1/2-x,1/2+y,z
1/2+x,1/2-y,z
loop_
_atom_site_type_symbol
_atom_site_label
_atom_site_fract_x
_atom_site_fract_y
_atom_site_fract_z
Si Si1 0.239470 0.385278 0.709876
Si Si2 0.935591 0.112165 0.139079
Si Si3 0.067030 0.892945 0.361246
Si Si4 0.169445 0.242847 0.395695
Si Si5 0.804978 0.117044 0.101346
O O1 0.233853 0.500000 0.704179
O O2 0.181614 0.328398 0.676974
O O3 0.287590 0.342862 0.638857
O O4 0.264401 0.358587 0.811293
O O5 0.933036 0.110510 0.250010
O O6 0.872496 0.153553 0.109386
O O7 0.000000 0.153405 0.112668
O O8 0.936391 0.000000 0.108770
O O9 0.106160 0.805345 0.393732
O O10 0.000000 0.886184 0.391630
O O11 0.089605 0.000000 0.387406
O O12 0.182638 0.273800 0.500000
O O13 0.809068 0.000000 0.105264
O O14 0.781914 0.143160 0.000000
#
# Coordination Sequence:
#
# PCOD9489793 Si02
#       5
#    16  16  16  16  16
#     4  10  20  35  50  68 100 134 167 209 249 289
#     4   8  13  23  41  65  95 131 163 193 238 293
#     4   9  17  31  52  76 103 133 161 198 251 302
#     4  11  22  33  50  74  97 129 173 211 249 300
#     4   9  16  27  46  70  96 130 168 204 247 298
#
# _framework density 17.440132999999999
#
# number of rings (size 3 to 8) (size 9 to 14) (size 15 to 20)
#    0.000    2.600    2.000    3.000    0.000    3.600 
#    0.000    5.000    0.000    0.600    0.000    1.400 
#    0.000    0.000    0.000    5.000    0.000    0.000 
#
# Total GULP energy -222687.615880 kJ/mol
# GULP energy per Si atom -5567.190397 kJ/mol
# Density = 1.740044 g / cm^3
# Si number density = 17.440133 Si / 1000 Ang^3
#
#
#
# Elastic Constant Matrix: (Units=GPa)
#
#
# Indices 1 2 3 4 5 6 
#
# 1 62.0626 38.4180 38.1775 0.0000 0.0000 0.0000
# 2 38.4180 83.5426 26.9063 0.0000 0.0000 0.0000
# 3 38.1775 26.9063 131.4677 0.0000 0.0000 0.0000
# 4 0.0000 0.0000 0.0000 10.2768 0.0000 0.0000
# 5 0.0000 0.0000 0.0000 0.0000 4.0764 0.0000
# 6 0.0000 0.0000 0.0000 0.0000 0.0000 28.8951
#
#
#
# Elastic Compliance Matrix: (Units=1/GPa)
#
#
# Indices 1 2 3 4 5 6 
#
# 1 0.025659 -0.010063 -0.005392 0.000000 0.000000 0.000000
# 2 -0.010063 0.016761 -0.000508 0.000000 0.000000 0.000000
# 3 -0.005392 -0.000508 0.009276 0.000000 0.000000 0.000000
# 4 0.000000 0.000000 0.000000 0.097306 0.000000 0.000000
# 5 0.000000 0.000000 0.000000 0.000000 0.245312 0.000000
# 6 0.000000 0.000000 0.000000 0.000000 0.000000 0.034608
#
#
# Mechanical properties :
#
#
# Convention : Reuss Voigt Hill
#
# Bulk Modulus (GPa) = 50.58046 53.78629 52.18338
# Shear Modulus (GPa) = 10.69660 20.22108 15.45884
#
# Velocity S-wave (km/s) = 2.47924 3.40877 2.98047
# Velocity P-wave (km/s) = 6.10416 6.81179 6.46766
#
# Compressibility (1/GPa) = 0.01977048
#
# Stress axis : x y z
#
# Youngs Moduli (GPa) = 38.97341 59.66186 107.80372
#
# Poissons Ratio (x) = 0.60037 0.58124
# Poissons Ratio (y) = 0.39219 0.05478
# Poissons Ratio (z) = 0.21013 0.03032
#
# Static dielectric constant tensor:
#      x y z
#    x 1.652520 0.000000 0.000000 
#    y 0.000000 1.580200 0.000000 
#    z 0.000000 0.000000 1.653860 
# 
# From -- ./inp_files/43888.got.cif
#   From: 2010.05.17/outbox.cif.g08.bks.cpg/sg65_22_cif.got.tgz:43888.got - 2010.06.03 17:01:31.
