data_PCOD9489395
_publ_section_title
;
Structure prediction by ZEFSAII (Michael W. Deem and Ramdas Pophale) SiO2 
 PCOD9489395
Probable space group: C M M M
;
_chemical_formula_sum "Si O2"
_cell_formula_units_Z 104
_cell_length_a 8.764143
_cell_length_b 20.305569
_cell_length_c 33.929625
_cell_angle_alpha 90.000000
_cell_angle_beta 90.000000
_cell_angle_gamma 90.000000
_cell_volume 6038.146955
_symmetry_space_group_name_H-M "C M M M"
_symmetry_group_IT_number 65
_symmetry_cell_setting 'orthorhombic'
loop_
_space_group_symop_operation_xyz
x,y,z
-x,-y,z
x,-y,-z
-x,y,-z
-x,-y,-z
x,y,-z
-x,y,z
x,-y,z
1/2+x,1/2+y,z
1/2-x,1/2-y,z
1/2+x,1/2-y,-z
1/2-x,1/2+y,-z
1/2-x,1/2-y,-z
1/2+x,1/2+y,-z
1/2-x,1/2+y,z
1/2+x,1/2-y,z
loop_
_atom_site_type_symbol
_atom_site_label
_atom_site_fract_x
_atom_site_fract_y
_atom_site_fract_z
Si Si1 0.182589 0.577160 0.583349
Si Si2 0.816094 0.821553 0.263081
Si Si3 0.315792 0.923937 0.888104
Si Si4 0.684257 0.822019 0.045048
Si Si5 0.175293 0.920129 0.500000
Si Si6 0.316862 0.677857 0.646115
Si Si7 0.184213 0.923999 0.803283
O O1 0.226027 0.500000 0.588781
O O2 0.241912 0.599316 0.540342
O O3 0.253152 0.623043 0.616802
O O4 0.000000 0.581053 0.584242
O O5 0.750000 0.750000 0.253198
O O6 0.773257 0.836978 0.308357
O O7 0.765248 0.876206 0.231812
O O8 0.000000 0.818244 0.261762
O O9 0.500000 0.922008 0.886223
O O10 0.265597 0.875839 0.923096
O O11 0.249939 0.903966 0.845692
O O12 0.270452 0.000000 0.895356
O O13 0.500000 0.818827 0.046154
O O14 0.750000 0.750000 0.054109
O O15 0.728860 0.838925 0.000000
O O16 0.000000 0.897937 0.500000
O O17 0.176260 0.000000 0.500000
O O18 0.500000 0.680054 0.643602
O O19 0.250000 0.750000 0.636615
O O20 0.000000 0.922018 0.805140
O O21 0.229728 0.000000 0.796098
#
# Coordination Sequence:
#
# PCOD9489395 Si02
#       7
#    16  16  16  16   8  16  16
#     4  10  20  34  53  78 107 137 170 209 253 300
#     4   9  19  34  52  73  97 128 164 202 243 290
#     4   9  18  32  49  70  95 123 157 196 238 284
#     4   9  18  32  49  69  94 124 157 195 238 283
#     4   9  17  31  52  77 104 135 172 211 251 297
#     4  10  20  35  54  75 102 135 170 209 253 300
#     4   9  18  33  51  71  97 128 161 198 241 287
#
# _framework density 17.223828000000001
#
# number of rings (size 3 to 8) (size 9 to 14) (size 15 to 20)
#    0.000    2.692    0.000    1.154    0.000    5.231 
#    0.000    6.538    0.000    1.846    0.000    4.308 
#    0.000    0.000    0.000    0.000    0.000    0.000 
#
# Total GULP energy -289956.401989 kJ/mol
# GULP energy per Si atom -5576.084654 kJ/mol
# Density = 1.718463 g / cm^3
# Si number density = 17.223828 Si / 1000 Ang^3
#
#
#
# Elastic Constant Matrix: (Units=GPa)
#
#
# Indices 1 2 3 4 5 6 
#
# 1 27.7392 34.8703 39.7501 0.0000 0.0000 0.0000
# 2 34.8703 108.6014 116.4581 0.0000 0.0000 0.0000
# 3 39.7501 116.4581 159.9070 0.0000 0.0000 0.0000
# 4 0.0000 0.0000 0.0000-1023.8910 0.0000 0.0000
# 5 0.0000 0.0000 0.0000 0.0000 29.3954 0.0000
# 6 0.0000 0.0000 0.0000 0.0000 0.0000 27.4850
#
#
#
# Elastic Compliance Matrix: (Units=1/GPa)
#
#
# Indices 1 2 3 4 5 6 
#
# 1 0.061034 -0.015192 -0.004108 0.000000 0.000000 0.000000
# 2 -0.015192 0.045822 -0.029595 0.000000 0.000000 0.000000
# 3 -0.004108 -0.029595 0.028828 0.000000 0.000000 0.000000
# 4 0.000000 0.000000 0.000000 -0.000977 0.000000 0.000000
# 5 0.000000 0.000000 0.000000 0.000000 0.034019 0.000000
# 6 0.000000 0.000000 0.000000 0.000000 0.000000 0.036383
#
#
# Mechanical properties :
#
#
# Convention : Reuss Voigt Hill
#
# Bulk Modulus (GPa) = 26.38901 75.37828 50.88365
# Shear Modulus (GPa) = 15.84624 -186.39083 -85.27229
#
# Velocity S-wave (km/s) = 3.03647 -10.41402 -7.04385
# Velocity P-wave (km/s) = 5.25814 10.03710 6.04547
#
# Compressibility (1/GPa) = 0.03789456
#
# Stress axis : x y z
#
# Youngs Moduli (GPa) = 16.38425 21.82351 34.68801
#
# Poissons Ratio (x) = 0.33155 0.14249
# Poissons Ratio (y) = 0.24892 1.02659
# Poissons Ratio (z) = 0.06730 0.64587
#
# Static dielectric constant tensor:
#      x y z
#    x 1.583660 0.000000 0.000000 
#    y 0.000000 1.562420 0.000000 
#    z 0.000000 0.000000 1.572300 
# 
# From -- ./inp_files/73302.got.cif
#   From: 2010.05.17/outbox.cif.g08.bks.cpg/sg65_37_cif.got.tgz:73302.got - 2010.06.03 17:01:31.
