data_PCOD9489623
_publ_section_title
;
Structure prediction by ZEFSAII (Michael W. Deem and Ramdas Pophale) SiO2 
 PCOD9489623
Probable space group: C M M M
;
_chemical_formula_sum "Si O2"
_cell_formula_units_Z 96
_cell_length_a 8.783702
_cell_length_b 29.468468
_cell_length_c 20.962690
_cell_angle_alpha 90.000000
_cell_angle_beta 90.000000
_cell_angle_gamma 90.000000
_cell_volume 5426.029663
_symmetry_space_group_name_H-M "C M M M"
_symmetry_group_IT_number 65
_symmetry_cell_setting 'orthorhombic'
loop_
_space_group_symop_operation_xyz
x,y,z
-x,-y,z
x,-y,-z
-x,y,-z
-x,-y,-z
x,y,-z
-x,y,z
x,-y,z
1/2+x,1/2+y,z
1/2-x,1/2-y,z
1/2+x,1/2-y,-z
1/2-x,1/2+y,-z
1/2-x,1/2-y,-z
1/2+x,1/2+y,-z
1/2-x,1/2+y,z
1/2+x,1/2-y,z
loop_
_atom_site_type_symbol
_atom_site_label
_atom_site_fract_x
_atom_site_fract_y
_atom_site_fract_z
Si Si1 0.182480 0.796837 0.757684
Si Si2 0.818548 0.105524 0.190567
Si Si3 0.681204 0.609126 0.428442
Si Si4 0.816636 0.447404 0.926472
Si Si5 0.317903 0.797726 0.615168
Si Si6 0.182291 0.446807 0.688296
O O1 0.250000 0.750000 0.784345
O O2 0.216397 0.841333 0.798934
O O3 0.258129 0.802918 0.688009
O O4 0.000000 0.792984 0.749607
O O5 0.758126 0.085462 0.124573
O O6 0.744317 0.078026 0.248906
O O7 0.000000 0.100226 0.194290
O O8 0.709248 0.591561 0.500000
O O9 0.500000 0.613611 0.419064
O O10 0.756187 0.658621 0.421512
O O11 0.748510 0.577171 0.373839
O O12 0.775218 0.500000 0.912825
O O13 0.000000 0.444418 0.921672
O O14 0.774812 0.437730 0.000000
O O15 0.500000 0.796171 0.614282
O O16 0.250000 0.750000 0.591247
O O17 0.221641 0.500000 0.690026
O O18 0.000000 0.442440 0.686665
#
# Coordination Sequence:
#
# PCOD9489623 Si02
#       6
#    16  16  16  16  16  16
#     4  10  20  34  54  82 114 146 184 229 278 332
#     4  11  22  35  57  87 118 149 185 231 280 331
#     4  11  24  41  59  80 109 145 186 233 286 342
#     4   9  19  36  57  83 117 155 193 232 276 330
#     4  11  21  35  58  83 111 145 182 228 282 338
#     4  11  24  40  59  83 110 144 188 234 280 336
#
# _framework density 17.692495000000001
#
# number of rings (size 3 to 8) (size 9 to 14) (size 15 to 20)
#    0.000    1.500    1.667    5.500    0.000    8.000 
#    0.000    2.500    0.000    0.500    0.000    0.000 
#    0.000    0.000    0.000    0.000    0.000    0.000 
#
# Total GULP energy -268243.961807 kJ/mol
# GULP energy per Si atom -5588.415871 kJ/mol
# Density = 1.765223 g / cm^3
# Si number density = 17.692495 Si / 1000 Ang^3
#
#
#
# Elastic Constant Matrix: (Units=GPa)
#
#
# Indices 1 2 3 4 5 6 
#
# 1 79.2439 66.9927 50.4268 0.0000 0.0000 0.0000
# 2 66.9927 139.0480 78.7941 0.0000 0.0000 0.0000
# 3 50.4268 78.7941 102.9270 0.0000 0.0000 0.0000
# 4 0.0000 0.0000 0.0000 -69.3458 0.0000 0.0000
# 5 0.0000 0.0000 0.0000 0.0000 27.7623 0.0000
# 6 0.0000 0.0000 0.0000 0.0000 0.0000 34.0719
#
#
#
# Elastic Compliance Matrix: (Units=1/GPa)
#
#
# Indices 1 2 3 4 5 6 
#
# 1 0.022573 -0.008140 -0.004828 0.000000 0.000000 0.000000
# 2 -0.008140 0.015637 -0.007983 0.000000 0.000000 0.000000
# 3 -0.004828 -0.007983 0.018192 0.000000 0.000000 0.000000
# 4 0.000000 0.000000 0.000000 -0.014420 0.000000 0.000000
# 5 0.000000 0.000000 0.000000 0.000000 0.036020 0.000000
# 6 0.000000 0.000000 0.000000 0.000000 0.000000 0.029350
#
#
# Mechanical properties :
#
#
# Convention : Reuss Voigt Hill
#
# Bulk Modulus (GPa) = 68.95999 79.29403 74.12701
# Shear Modulus (GPa) = 32.44952 6.83136 19.64044
#
# Velocity S-wave (km/s) = 4.28727 1.96712 3.33543
# Velocity P-wave (km/s) = 7.97303 7.07634 7.53803
#
# Compressibility (1/GPa) = 0.01450116
#
# Stress axis : x y z
#
# Youngs Moduli (GPa) = 44.30127 63.95072 54.96908
#
# Poissons Ratio (x) = 0.52054 0.26538
# Poissons Ratio (y) = 0.36060 0.43881
# Poissons Ratio (z) = 0.21388 0.51051
#
# Static dielectric constant tensor:
#      x y z
#    x 1.591920 0.000000 0.000000 
#    y 0.000000 1.603590 0.000000 
#    z 0.000000 0.000000 1.582120 
# 
# From -- ./inp_files/60250.got.cif
#   From: 2010.05.17/outbox.cif.g08.bks.cpg/sg65_31_cif.got.tgz:60250.got - 2010.06.03 17:01:31.
