data_PCOD9489237
_publ_section_title
;
Structure prediction by ZEFSAII (Michael W. Deem and Ramdas Pophale) SiO2 
 PCOD9489237
Probable space group: C M M M
;
_chemical_formula_sum "Si O2"
_cell_formula_units_Z 56
_cell_length_a 8.690077
_cell_length_b 29.292175
_cell_length_c 12.434124
_cell_angle_alpha 90.000000
_cell_angle_beta 90.000000
_cell_angle_gamma 90.000000
_cell_volume 3165.121885
_symmetry_space_group_name_H-M "C M M M"
_symmetry_group_IT_number 65
_symmetry_cell_setting 'orthorhombic'
loop_
_space_group_symop_operation_xyz
x,y,z
-x,-y,z
x,-y,-z
-x,y,-z
-x,-y,-z
x,y,-z
-x,y,z
x,-y,z
1/2+x,1/2+y,z
1/2-x,1/2-y,z
1/2+x,1/2-y,-z
1/2-x,1/2+y,-z
1/2-x,1/2-y,-z
1/2+x,1/2+y,-z
1/2-x,1/2+y,z
1/2+x,1/2-y,z
loop_
_atom_site_type_symbol
_atom_site_label
_atom_site_fract_x
_atom_site_fract_y
_atom_site_fract_z
Si Si1 0.183316 0.597112 0.874963
Si Si2 0.173909 0.000000 0.129364
Si Si3 0.314439 0.946287 0.500000
Si Si4 0.184027 0.300767 0.500000
Si Si5 0.316810 0.372903 0.337474
O O1 0.233989 0.545616 0.845326
O O2 0.267671 0.627339 0.786624
O O3 0.000000 0.601553 0.866006
O O4 0.226383 0.605299 0.000000
O O5 0.000000 0.000000 0.174433
O O6 0.160471 0.000000 0.000000
O O7 0.500000 0.943474 0.500000
O O8 0.250393 0.917855 0.602040
O O9 0.271402 0.000000 0.500000
O O10 0.250000 0.250000 0.500000
O O11 0.245684 0.329736 0.398822
O O12 0.000000 0.300289 0.500000
O O13 0.500000 0.373250 0.348901
#
# Coordination Sequence:
#
# PCOD9489237 Si02
#       5
#    16   8   8   8  16
#     4  10  20  34  52  75 108 150 192 232 274 324
#     4   9  17  29  45  68  99 140 189 233 270 311
#     4  10  21  36  53  74 106 148 189 230 277 329
#     4  11  22  41  66  89 113 139 178 226 279 337
#     4  11  22  36  56  83 113 144 185 230 278 331
#
# _framework density 17.692841999999999
#
# number of rings (size 3 to 8) (size 9 to 14) (size 15 to 20)
#    0.000    1.714    0.000    7.286    2.000    4.571 
#    0.000    0.000    0.000    0.857    0.000    0.000 
#    0.000    0.000    0.000    0.000    0.000    0.000 
#
# Total GULP energy -156337.154988 kJ/mol
# GULP energy per Si atom -5583.469821 kJ/mol
# Density = 1.765257 g / cm^3
# Si number density = 17.692842 Si / 1000 Ang^3
#
#
#
# Elastic Constant Matrix: (Units=GPa)
#
#
# Indices 1 2 3 4 5 6 
#
# 1 140.5073 58.9100 58.6994 0.0000 0.0000 0.0000
# 2 58.9100 128.1008 61.0307 0.0000 0.0000 0.0000
# 3 58.6994 61.0307 123.2089 0.0000 0.0000 0.0000
# 4 0.0000 0.0000 0.0000 -6.1503 0.0000 0.0000
# 5 0.0000 0.0000 0.0000 0.0000 26.7858 0.0000
# 6 0.0000 0.0000 0.0000 0.0000 0.0000 26.7760
#
#
#
# Elastic Compliance Matrix: (Units=1/GPa)
#
#
# Indices 1 2 3 4 5 6 
#
# 1 0.009667 -0.002947 -0.003146 0.000000 0.000000 0.000000
# 2 -0.002947 0.011116 -0.004102 0.000000 0.000000 0.000000
# 3 -0.003146 -0.004102 0.011647 0.000000 0.000000 0.000000
# 4 0.000000 0.000000 0.000000 -0.162595 0.000000 0.000000
# 5 0.000000 0.000000 0.000000 0.000000 0.037333 0.000000
# 6 0.000000 0.000000 0.000000 0.000000 0.000000 0.037347
#
#
# Mechanical properties :
#
#
# Convention : Reuss Voigt Hill
#
# Bulk Modulus (GPa) = 83.05604 83.23300 83.14452
# Shear Modulus (GPa) = -160.86716 23.69408 -68.58654
#
# Velocity S-wave (km/s) = -9.54566 3.66347 -6.23292
# Velocity P-wave (km/s) = 8.62830 8.06474 2.16881
#
# Compressibility (1/GPa) = 0.01204006
#
# Stress axis : x y z
#
# Youngs Moduli (GPa) = 103.44742 89.96104 85.85842
#
# Poissons Ratio (x) = 0.26509 0.27009
# Poissons Ratio (y) = 0.30483 0.35222
# Poissons Ratio (z) = 0.32543 0.36905
#
# Static dielectric constant tensor:
#      x y z
#    x 1.593540 0.000000 0.000000 
#    y 0.000000 1.592460 0.000000 
#    z 0.000000 0.000000 1.638950 
# 
# From -- ./inp_files/20485.got.cif
#   From: 2010.05.17/outbox.cif.g08.bks.cpg/sg65_11_cif.got.tgz:20485.got - 2010.06.03 17:01:31.
