data_PCOD9489257
_publ_section_title
;
Structure prediction by ZEFSAII (Michael W. Deem and Ramdas Pophale) SiO2 
 PCOD9489257
Probable space group: C M M M
;
_chemical_formula_sum "Si O2"
_cell_formula_units_Z 52
_cell_length_a 13.109214
_cell_length_b 27.009635
_cell_length_c 7.791711
_cell_angle_alpha 90.000000
_cell_angle_beta 90.000000
_cell_angle_gamma 90.000000
_cell_volume 2758.850737
_symmetry_space_group_name_H-M "C M M M"
_symmetry_group_IT_number 65
_symmetry_cell_setting 'orthorhombic'
loop_
_space_group_symop_operation_xyz
x,y,z
-x,-y,z
x,-y,-z
-x,y,-z
-x,-y,-z
x,y,-z
-x,y,z
x,-y,z
1/2+x,1/2+y,z
1/2-x,1/2-y,z
1/2+x,1/2-y,-z
1/2-x,1/2+y,-z
1/2-x,1/2-y,-z
1/2+x,1/2+y,-z
1/2-x,1/2+y,z
1/2+x,1/2-y,z
loop_
_atom_site_type_symbol
_atom_site_label
_atom_site_fract_x
_atom_site_fract_y
_atom_site_fract_z
Si Si1 0.315141 0.500000 0.000000
Si Si2 0.120199 0.070956 0.305270
Si Si3 0.612588 0.789559 0.298538
Si Si4 0.168793 0.819988 0.802768
O O1 0.322428 0.457181 0.152904
O O2 0.149721 0.057225 0.500000
O O3 0.134545 0.129799 0.285850
O O4 0.000000 0.059345 0.282729
O O5 0.619647 0.801634 0.500000
O O6 0.500000 0.803413 0.235032
O O7 0.708532 0.814433 0.207284
O O8 0.626079 0.730351 0.279235
O O9 0.135921 0.821143 0.000000
#
# Coordination Sequence:
#
# PCOD9489257 Si02
#       4
#     4  16  16  16
#     4  12  23  38  56  80 107 138 183 224 272 326
#     4  11  22  36  55  79 110 144 178 221 268 318
#     4  10  20  34  52  76 108 144 181 219 260 313
#     4  11  21  33  52  78 109 144 181 218 260 317
#
# _framework density 18.848427999999998
#
# number of rings (size 3 to 8) (size 9 to 14) (size 15 to 20)
#    0.000    1.231    1.538    8.308    0.000    7.385 
#    0.000    0.000    0.000    0.000    0.000    2.154 
#    0.000    4.923    0.000    0.000    0.000    0.000 
#
# Total GULP energy -144737.102169 kJ/mol
# GULP energy per Si atom -5566.811622 kJ/mol
# Density = 1.880553 g / cm^3
# Si number density = 18.848428 Si / 1000 Ang^3
#
#
#
# Elastic Constant Matrix: (Units=GPa)
#
#
# Indices 1 2 3 4 5 6 
#
# 1 64.3673 -7.9797 -2.0445 0.0000 0.0000 0.0000
# 2 -7.9797 77.1596 11.3184 0.0000 0.0000 0.0000
# 3 -2.0445 11.3184 113.6200 0.0000 0.0000 0.0000
# 4 0.0000 0.0000 0.0000 27.9313 0.0000 0.0000
# 5 0.0000 0.0000 0.0000 0.0000 48.6306 0.0000
# 6 0.0000 0.0000 0.0000 0.0000 0.0000 -27.6282
#
#
#
# Elastic Compliance Matrix: (Units=1/GPa)
#
#
# Indices 1 2 3 4 5 6 
#
# 1 0.015739 0.001610 0.000123 0.000000 0.000000 0.000000
# 2 0.001610 0.013317 -0.001298 0.000000 0.000000 0.000000
# 3 0.000123 -0.001298 0.008933 0.000000 0.000000 0.000000
# 4 0.000000 0.000000 0.000000 0.035802 0.000000 0.000000
# 5 0.000000 0.000000 0.000000 0.000000 0.020563 0.000000
# 6 0.000000 0.000000 0.000000 0.000000 0.000000 -0.036195
#
#
# Mechanical properties :
#
#
# Convention : Reuss Voigt Hill
#
# Bulk Modulus (GPa) = 25.73414 28.63726 27.18570
# Shear Modulus (GPa) = 71.18194 26.71024 48.94609
#
# Velocity S-wave (km/s) = 6.15203 3.76853 5.10143
# Velocity P-wave (km/s) = 8.00913 5.84484 7.01100
#
# Compressibility (1/GPa) = 0.03885889
#
# Stress axis : x y z
#
# Youngs Moduli (GPa) = 63.53524 75.09216 111.94767
#
# Poissons Ratio (x) = -0.12088 -0.01375
# Poissons Ratio (y) = -0.10227 0.14527
# Poissons Ratio (z) = -0.00781 0.09744
#
# Static dielectric constant tensor:
#      x y z
#    x 1.677070 0.000000 0.000000 
#    y 0.000000 1.646620 0.000000 
#    z 0.000000 0.000000 1.650750 
# 
# From -- ./inp_files/6468.got.cif
#   From: 2010.05.17/outbox.cif.g08.bks.cpg/sg65_4_cif.got.tgz:6468.got - 2010.06.03 17:01:31.
