data_PCOD9489359
_publ_section_title
;
Structure prediction by ZEFSAII (Michael W. Deem and Ramdas Pophale) SiO2 
 PCOD9489359
Probable space group: C M M M
;
_chemical_formula_sum "Si O2"
_cell_formula_units_Z 104
_cell_length_a 8.817507
_cell_length_b 19.515306
_cell_length_c 33.870107
_cell_angle_alpha 90.000000
_cell_angle_beta 90.000000
_cell_angle_gamma 90.000000
_cell_volume 5828.244294
_symmetry_space_group_name_H-M "C M M M"
_symmetry_group_IT_number 65
_symmetry_cell_setting 'orthorhombic'
loop_
_space_group_symop_operation_xyz
x,y,z
-x,-y,z
x,-y,-z
-x,y,-z
-x,-y,-z
x,y,-z
-x,y,z
x,-y,z
1/2+x,1/2+y,z
1/2-x,1/2-y,z
1/2+x,1/2-y,-z
1/2-x,1/2+y,-z
1/2-x,1/2-y,-z
1/2+x,1/2+y,-z
1/2-x,1/2+y,z
1/2+x,1/2-y,z
loop_
_atom_site_type_symbol
_atom_site_label
_atom_site_fract_x
_atom_site_fract_y
_atom_site_fract_z
Si Si1 0.819649 0.919213 0.271045
Si Si2 0.682434 0.578730 0.046176
Si Si3 0.681897 0.825876 0.112759
Si Si4 0.182733 0.675014 0.571425
Si Si5 0.817259 0.420554 0.186414
Si Si6 0.681663 0.825146 0.661586
Si Si7 0.185161 0.421592 0.500000
O O1 0.753533 0.899725 0.228255
O O2 0.745331 0.876764 0.306145
O O3 0.000000 0.909211 0.271159
O O4 0.787503 0.000000 0.276265
O O5 0.500000 0.583954 0.050157
O O6 0.725313 0.500000 0.056159
O O7 0.761325 0.632534 0.074641
O O8 0.718956 0.589931 0.000000
O O9 0.500000 0.821778 0.112295
O O10 0.750000 0.750000 0.113940
O O11 0.728721 0.870475 0.151070
O O12 0.250000 0.750000 0.563098
O O13 0.223621 0.655519 0.616417
O O14 0.232733 0.620281 0.538860
O O15 0.000000 0.679956 0.569611
O O16 0.773401 0.500000 0.178270
O O17 0.000000 0.418741 0.189627
O O18 0.500000 0.822284 0.664054
O O19 0.750000 0.750000 0.668734
O O20 0.237111 0.500000 0.500000
O O21 0.000000 0.422672 0.500000
#
# Coordination Sequence:
#
# PCOD9489359 Si02
#       7
#    16  16  16  16  16  16   8
#     4  10  21  36  55  80 108 139 175 215 262 314
#     4   9  19  37  60  84 110 142 180 221 266 317
#     4  11  23  37  55  81 112 145 180 220 267 315
#     4   9  18  32  52  75  99 133 172 210 254 305
#     4   9  19  37  58  78 103 138 180 223 266 315
#     4  10  20  34  53  77 105 138 176 217 262 312
#     4   9  17  30  49  75 104 131 166 212 256 301
#
# _framework density 17.844138000000001
#
# number of rings (size 3 to 8) (size 9 to 14) (size 15 to 20)
#    0.000    2.385    0.000    2.538    0.000    5.538 
#    0.000    5.385    0.000    0.923    0.000    0.000 
#    0.000    0.000    0.000    0.000    0.000    0.000 
#
# Total GULP energy -290248.593047 kJ/mol
# GULP energy per Si atom -5581.703712 kJ/mol
# Density = 1.780352 g / cm^3
# Si number density = 17.844138 Si / 1000 Ang^3
#
#
#
# Elastic Constant Matrix: (Units=GPa)
#
#
# Indices 1 2 3 4 5 6 
#
# 1 28.9649 48.2854 51.7756 0.0000 0.0000 0.0000
# 2 48.2854 137.6791 122.5549 0.0000 0.0000 0.0000
# 3 51.7756 122.5549 155.4993 0.0000 0.0000 0.0000
# 4 0.0000 0.0000 0.0000 51.8721 0.0000 0.0000
# 5 0.0000 0.0000 0.0000 0.0000 19.7385 0.0000
# 6 0.0000 0.0000 0.0000 0.0000 0.0000 23.7727
#
#
#
# Elastic Compliance Matrix: (Units=1/GPa)
#
#
# Indices 1 2 3 4 5 6 
#
# 1 0.096487 -0.017563 -0.018285 0.000000 0.000000 0.000000
# 2 -0.017563 0.027534 -0.015853 0.000000 0.000000 0.000000
# 3 -0.018285 -0.015853 0.025013 0.000000 0.000000 0.000000
# 4 0.000000 0.000000 0.000000 0.019278 0.000000 0.000000
# 5 0.000000 0.000000 0.000000 0.000000 0.050663 0.000000
# 6 0.000000 0.000000 0.000000 0.000000 0.000000 0.042065
#
#
# Mechanical properties :
#
#
# Convention : Reuss Voigt Hill
#
# Bulk Modulus (GPa) = 21.91374 85.26389 53.58882
# Shear Modulus (GPa) = 13.16995 25.71181 19.44088
#
# Velocity S-wave (km/s) = 2.71966 3.80005 3.30431
# Velocity P-wave (km/s) = 4.70844 8.19391 6.68242
#
# Compressibility (1/GPa) = 0.04563346
#
# Stress axis : x y z
#
# Youngs Moduli (GPa) = 10.36412 36.31847 39.97843
#
# Poissons Ratio (x) = 0.63785 0.73100
# Poissons Ratio (y) = 0.18202 0.63378
# Poissons Ratio (z) = 0.18951 0.57576
#
# Static dielectric constant tensor:
#      x y z
#    x 1.594090 0.000000 0.000000 
#    y 0.000000 1.583230 0.000000 
#    z 0.000000 0.000000 1.597470 
# 
# From -- ./inp_files/76843.got.cif
#   From: 2010.05.17/outbox.cif.g08.bks.cpg/sg65_39_cif.got.tgz:76843.got - 2010.06.03 17:01:31.
