data_PCOD9489134
_publ_section_title
;
Structure prediction by ZEFSAII (Michael W. Deem and Ramdas Pophale) SiO2 
 PCOD9489134
Probable space group: C M M M
;
_chemical_formula_sum "Si O2"
_cell_formula_units_Z 88
_cell_length_a 28.712490
_cell_length_b 9.153116
_cell_length_c 24.112763
_cell_angle_alpha 90.000000
_cell_angle_beta 90.000000
_cell_angle_gamma 90.000000
_cell_volume 6337.045142
_symmetry_space_group_name_H-M "C M M M"
_symmetry_group_IT_number 65
_symmetry_cell_setting 'orthorhombic'
loop_
_space_group_symop_operation_xyz
x,y,z
-x,-y,z
x,-y,-z
-x,y,-z
-x,-y,-z
x,y,-z
-x,y,z
x,-y,z
1/2+x,1/2+y,z
1/2-x,1/2-y,z
1/2+x,1/2-y,-z
1/2-x,1/2+y,-z
1/2-x,1/2-y,-z
1/2+x,1/2+y,-z
1/2-x,1/2+y,z
1/2+x,1/2-y,z
loop_
_atom_site_type_symbol
_atom_site_label
_atom_site_fract_x
_atom_site_fract_y
_atom_site_fract_z
Si Si1 0.555847 0.828012 0.500000
Si Si2 0.799009 0.327366 0.433418
Si Si3 0.945782 0.174627 0.284684
Si Si4 0.443446 0.328911 0.061172
Si Si5 0.556709 0.168294 0.828008
Si Si6 0.392373 0.324077 0.602113
O O1 0.500000 0.818506 0.500000
O O2 0.576729 0.748377 0.553762
O O3 0.569215 0.000000 0.500000
O O4 0.806532 0.313551 0.500000
O O5 0.797911 0.500000 0.420512
O O6 0.750000 0.250000 0.420670
O O7 0.841345 0.245167 0.403866
O O8 0.929159 0.249916 0.228145
O O9 0.915540 0.209816 0.338600
O O10 0.000000 0.216501 0.294472
O O11 0.944792 0.000000 0.276822
O O12 0.500000 0.320640 0.061240
O O13 0.431649 0.500000 0.066188
O O14 0.426809 0.242491 0.115002
O O15 0.428152 0.276342 0.000000
O O16 0.500000 0.175097 0.828892
O O17 0.570434 0.000000 0.826152
O O18 0.390937 0.500000 0.595170
#
# Coordination Sequence:
#
# PCOD9489134 Si02
#       6
#     8  16  16  16  16  16
#     4  11  23  35  46  63  88 115 141 173 213 253
#     4  10  20  34  52  71  91 110 132 164 208 257
#     4   9  18  31  44  58  79 110 145 176 206 246
#     4   8  13  21  33  48  67  94 128 166 207 247
#     4   9  16  24  35  52  73  99 132 171 211 245
#     4  11  21  33  50  68  86 109 140 175 213 255
#
# _framework density 13.886597999999999
#
# number of rings (size 3 to 8) (size 9 to 14) (size 15 to 20)
#    0.000    2.455    0.909    3.000    0.000    6.182 
#    0.000    3.636    0.000    0.000    0.000    0.000 
#    0.000    0.000    0.000    0.000    0.000    0.909 
#
# Total GULP energy -245210.796222 kJ/mol
# GULP energy per Si atom -5572.972641 kJ/mol
# Density = 1.385499 g / cm^3
# Si number density = 13.886598 Si / 1000 Ang^3
#
#
#
# Elastic Constant Matrix: (Units=GPa)
#
#
# Indices 1 2 3 4 5 6 
#
# 1 59.8527 40.4608 48.5898 0.0000 0.0000 0.0000
# 2 40.4608 80.3874 76.8929 0.0000 0.0000 0.0000
# 3 48.5898 76.8929 146.1642 0.0000 0.0000 0.0000
# 4 0.0000 0.0000 0.0000 7.0910 0.0000 0.0000
# 5 0.0000 0.0000 0.0000 0.0000 1.4657 0.0000
# 6 0.0000 0.0000 0.0000 0.0000 0.0000 16.9611
#
#
#
# Elastic Compliance Matrix: (Units=1/GPa)
#
#
# Indices 1 2 3 4 5 6 
#
# 1 0.026218 -0.009781 -0.003570 0.000000 0.000000 0.000000
# 2 -0.009781 0.028689 -0.011841 0.000000 0.000000 0.000000
# 3 -0.003570 -0.011841 0.014258 0.000000 0.000000 0.000000
# 4 0.000000 0.000000 0.000000 0.141025 0.000000 0.000000
# 5 0.000000 0.000000 0.000000 0.000000 0.682274 0.000000
# 6 0.000000 0.000000 0.000000 0.000000 0.000000 0.058959
#
#
# Mechanical properties :
#
#
# Convention : Reuss Voigt Hill
#
# Bulk Modulus (GPa) = 53.24740 68.69903 60.97322
# Shear Modulus (GPa) = 4.95999 13.13426 9.04713
#
# Velocity S-wave (km/s) = 1.89197 3.07876 2.55522
# Velocity P-wave (km/s) = 6.57270 7.88779 7.26008
#
# Compressibility (1/GPa) = 0.01878026
#
# Stress axis : x y z
#
# Youngs Moduli (GPa) = 38.14142 34.85642 70.13791
#
# Poissons Ratio (x) = 0.34094 0.25040
# Poissons Ratio (y) = 0.37307 0.83050
# Poissons Ratio (z) = 0.13617 0.41273
#
# Static dielectric constant tensor:
#      x y z
#    x 1.428310 0.000000 0.000000 
#    y 0.000000 1.462840 0.000000 
#    z 0.000000 0.000000 1.455240 
# 
# From -- ./inp_files/66181.got.cif
#   From: 2010.05.17/outbox.cif.g08.bks.cpg/sg65_34_cif.got.tgz:66181.got - 2010.06.03 17:01:31.
