data_PCOD9489360
_publ_section_title
;
Structure prediction by ZEFSAII (Michael W. Deem and Ramdas Pophale) SiO2 
 PCOD9489360
Probable space group: C M M M
;
_chemical_formula_sum "Si O2"
_cell_formula_units_Z 88
_cell_length_a 8.772036
_cell_length_b 19.798814
_cell_length_c 28.691324
_cell_angle_alpha 90.000000
_cell_angle_beta 90.000000
_cell_angle_gamma 90.000000
_cell_volume 4982.991781
_symmetry_space_group_name_H-M "C M M M"
_symmetry_group_IT_number 65
_symmetry_cell_setting 'orthorhombic'
loop_
_space_group_symop_operation_xyz
x,y,z
-x,-y,z
x,-y,-z
-x,y,-z
-x,-y,-z
x,y,-z
-x,y,z
x,-y,z
1/2+x,1/2+y,z
1/2-x,1/2-y,z
1/2+x,1/2-y,-z
1/2-x,1/2+y,-z
1/2-x,1/2-y,-z
1/2+x,1/2+y,-z
1/2-x,1/2+y,z
1/2+x,1/2-y,z
loop_
_atom_site_type_symbol
_atom_site_label
_atom_site_fract_x
_atom_site_fract_y
_atom_site_fract_z
Si Si1 0.181923 0.325576 0.500000
Si Si2 0.817496 0.324552 0.130919
Si Si3 0.182244 0.078677 0.421122
Si Si4 0.316454 0.578883 0.947156
Si Si5 0.817836 0.421300 0.319855
Si Si6 0.183793 0.324307 0.763672
O O1 0.250000 0.250000 0.500000
O O2 0.239044 0.368878 0.455717
O O3 0.000000 0.321260 0.500000
O O4 0.750000 0.250000 0.123243
O O5 0.756974 0.375162 0.092083
O O6 0.772557 0.345669 0.183734
O O7 0.000000 0.321170 0.128895
O O8 0.232502 0.093015 0.368141
O O9 0.000000 0.083757 0.425927
O O10 0.225070 0.000000 0.431313
O O11 0.500000 0.584179 0.944521
O O12 0.276807 0.500000 0.940734
O O13 0.271122 0.598449 0.000000
O O14 0.793338 0.500000 0.308380
O O15 0.767350 0.374812 0.277047
O O16 0.000000 0.411847 0.327107
O O17 0.250000 0.250000 0.755692
O O18 0.000000 0.320933 0.762548
#
# Coordination Sequence:
#
# PCOD9489360 Si02
#       6
#     8  16  16  16  16  16
#     4  12  25  40  59  83 111 143 181 222 267 318
#     4  10  20  34  53  77 105 138 177 218 261 311
#     4  10  21  38  59  83 112 144 179 220 264 311
#     4   9  19  36  55  75 102 135 170 212 264 318
#     4   9  18  34  55  78 105 139 179 218 258 308
#     4   9  19  34  52  75 104 138 173 214 262 310
#
# _framework density 17.660074000000002
#
# number of rings (size 3 to 8) (size 9 to 14) (size 15 to 20)
#    0.000    2.364    0.000    2.727    0.000    6.182 
#    0.000    4.545    0.000    2.182    0.000    0.000 
#    0.000    0.000    0.000    0.000    0.000    0.000 
#
# Total GULP energy -245546.518970 kJ/mol
# GULP energy per Si atom -5580.602704 kJ/mol
# Density = 1.761988 g / cm^3
# Si number density = 17.660074 Si / 1000 Ang^3
#
#
#
# Elastic Constant Matrix: (Units=GPa)
#
#
# Indices 1 2 3 4 5 6 
#
# 1 54.4016 56.1694 61.6943 0.0000 0.0000 0.0000
# 2 56.1694 117.7186 122.2319 0.0000 0.0000 0.0000
# 3 61.6943 122.2319 167.4666 0.0000 0.0000 0.0000
# 4 0.0000 0.0000 0.0000 50.9438 0.0000 0.0000
# 5 0.0000 0.0000 0.0000 0.0000 24.8898 0.0000
# 6 0.0000 0.0000 0.0000 0.0000 0.0000 30.2018
#
#
#
# Elastic Compliance Matrix: (Units=1/GPa)
#
#
# Indices 1 2 3 4 5 6 
#
# 1 0.036603 -0.014305 -0.003043 0.000000 0.000000 0.000000
# 2 -0.014305 0.040675 -0.024418 0.000000 0.000000 0.000000
# 3 -0.003043 -0.024418 0.024915 0.000000 0.000000 0.000000
# 4 0.000000 0.000000 0.000000 0.019629 0.000000 0.000000
# 5 0.000000 0.000000 0.000000 0.000000 0.040177 0.000000
# 6 0.000000 0.000000 0.000000 0.000000 0.000000 0.033111
#
#
# Mechanical properties :
#
#
# Convention : Reuss Voigt Hill
#
# Bulk Modulus (GPa) = 53.59128 91.08644 72.33886
# Shear Modulus (GPa) = 17.55230 27.83984 22.69607
#
# Velocity S-wave (km/s) = 3.15603 3.97473 3.58881
# Velocity P-wave (km/s) = 6.61004 8.52961 7.63043
#
# Compressibility (1/GPa) = 0.01865975
#
# Stress axis : x y z
#
# Youngs Moduli (GPa) = 27.32007 24.58528 40.13660
#
# Poissons Ratio (x) = 0.35170 0.12215
# Poissons Ratio (y) = 0.39082 0.98006
# Poissons Ratio (z) = 0.08314 0.60032
#
# Static dielectric constant tensor:
#      x y z
#    x 1.594070 0.000000 0.000000 
#    y 0.000000 1.570570 0.000000 
#    z 0.000000 0.000000 1.594760 
# 
# From -- ./inp_files/70940.got.cif
#   From: 2010.05.17/outbox.cif.g08.bks.cpg/sg65_36_cif.got.tgz:70940.got - 2010.06.03 17:01:31.
