data_PCOD9489081
_publ_section_title
;
Structure prediction by ZEFSAII (Michael W. Deem and Ramdas Pophale) SiO2 
 PCOD9489081
Probable space group: C M M M
;
_chemical_formula_sum "Si O2"
_cell_formula_units_Z 64
_cell_length_a 29.427229
_cell_length_b 8.487379
_cell_length_c 16.200154
_cell_angle_alpha 90.000000
_cell_angle_beta 90.000000
_cell_angle_gamma 90.000000
_cell_volume 4046.151199
_symmetry_space_group_name_H-M "C M M M"
_symmetry_group_IT_number 65
_symmetry_cell_setting 'orthorhombic'
loop_
_space_group_symop_operation_xyz
x,y,z
-x,-y,z
x,-y,-z
-x,y,-z
-x,-y,-z
x,y,-z
-x,y,z
x,-y,z
1/2+x,1/2+y,z
1/2-x,1/2-y,z
1/2+x,1/2-y,-z
1/2-x,1/2+y,-z
1/2-x,1/2-y,-z
1/2+x,1/2+y,-z
1/2-x,1/2+y,z
1/2+x,1/2-y,z
loop_
_atom_site_type_symbol
_atom_site_label
_atom_site_fract_x
_atom_site_fract_y
_atom_site_fract_z
Si Si1 0.607210 0.188871 0.658856
Si Si2 0.052690 0.692892 0.819824
Si Si3 0.552709 0.689074 0.500000
Si Si4 0.055238 0.682378 0.000000
Si Si5 0.200673 0.188564 0.403864
O O1 0.583857 0.243134 0.743942
O O2 0.578255 0.250037 0.581191
O O3 0.658616 0.246507 0.647674
O O4 0.606426 0.000000 0.657471
O O5 0.053077 0.500000 0.822634
O O6 0.067996 0.750659 0.910719
O O7 0.000000 0.738571 0.806127
O O8 0.554529 0.500000 0.500000
O O9 0.500000 0.739390 0.500000
O O10 0.070522 0.500000 0.000000
O O11 0.000000 0.680271 0.000000
O O12 0.194294 0.238746 0.500000
O O13 0.250000 0.250000 0.377211
O O14 0.200303 0.000000 0.401854
#
# Coordination Sequence:
#
# PCOD9489081 Si02
#       5
#    16  16   8   8  16
#     4  11  20  30  47  70  95 122 155 192 232 275
#     4   8  14  24  40  65  95 125 156 189 225 267
#     4  11  23  35  44  59  90 131 167 193 223 265
#     4   7  10  20  38  60  90 123 152 187 228 265
#     4  10  20  34  51  68  90 118 153 193 235 278
#
# _framework density 15.817501
#
# number of rings (size 3 to 8) (size 9 to 14) (size 15 to 20)
#    0.000    2.500    1.250    4.125    0.000    3.000 
#    0.000    0.000    0.000    0.000    0.000    4.375 
#    0.000   14.000    0.000    0.000    0.000    0.000 
#
# Total GULP energy -178368.140155 kJ/mol
# GULP energy per Si atom -5574.004380 kJ/mol
# Density = 1.578150 g / cm^3
# Si number density = 15.817501 Si / 1000 Ang^3
#
#
#
# Elastic Constant Matrix: (Units=GPa)
#
#
# Indices 1 2 3 4 5 6 
#
# 1 127.0345 23.6758 85.5181 0.0000 0.0000 0.0000
# 2 23.6758 22.8802 21.0131 0.0000 0.0000 0.0000
# 3 85.5181 21.0131 156.9665 0.0000 0.0000 0.0000
# 4 0.0000 0.0000 0.0000 0.4189 0.0000 0.0000
# 5 0.0000 0.0000 0.0000 0.0000 8.9087 0.0000
# 6 0.0000 0.0000 0.0000 0.0000 0.0000 23.5603
#
#
#
# Elastic Compliance Matrix: (Units=1/GPa)
#
#
# Indices 1 2 3 4 5 6 
#
# 1 0.013700 -0.008348 -0.006347 0.000000 0.000000 0.000000
# 2 -0.008348 0.054919 -0.002804 0.000000 0.000000 0.000000
# 3 -0.006347 -0.002804 0.010204 0.000000 0.000000 0.000000
# 4 0.000000 0.000000 0.000000 2.387479 0.000000 0.000000
# 5 0.000000 0.000000 0.000000 0.000000 0.112249 0.000000
# 6 0.000000 0.000000 0.000000 0.000000 0.000000 0.042444
#
#
# Mechanical properties :
#
#
# Convention : Reuss Voigt Hill
#
# Bulk Modulus (GPa) = 22.81724 63.03280 42.92502
# Shear Modulus (GPa) = 1.87224 18.35586 10.11405
#
# Velocity S-wave (km/s) = 1.08914 3.41027 2.53142
# Velocity P-wave (km/s) = 4.00478 7.44602 5.97835
#
# Compressibility (1/GPa) = 0.04382650
#
# Stress axis : x y z
#
# Youngs Moduli (GPa) = 72.99223 18.20854 98.00224
#
# Poissons Ratio (x) = 0.15200 0.62197
# Poissons Ratio (y) = 0.60933 0.27480
# Poissons Ratio (z) = 0.46325 0.05106
#
# Static dielectric constant tensor:
#      x y z
#    x 1.507030 0.000000 0.000000 
#    y 0.000000 1.541740 0.000000 
#    z 0.000000 0.000000 1.546800 
# 
# From -- ./inp_files/36861.got.cif
#   From: 2010.05.17/outbox.cif.g08.bks.cpg/sg65_19_cif.got.tgz:36861.got - 2010.06.03 17:01:31.
