data_PCOD9489840
_publ_section_title
;
Structure prediction by ZEFSAII (Michael W. Deem and Ramdas Pophale) SiO2 
 PCOD9489840
Probable space group: C M M M
;
_chemical_formula_sum "Si O2"
_cell_formula_units_Z 72
_cell_length_a 7.733064
_cell_length_b 14.693382
_cell_length_c 29.151750
_cell_angle_alpha 90.000000
_cell_angle_beta 90.000000
_cell_angle_gamma 90.000000
_cell_volume 3312.363611
_symmetry_space_group_name_H-M "C M M M"
_symmetry_group_IT_number 65
_symmetry_cell_setting 'orthorhombic'
loop_
_space_group_symop_operation_xyz
x,y,z
-x,-y,z
x,-y,-z
-x,y,-z
-x,-y,-z
x,y,-z
-x,y,z
x,-y,z
1/2+x,1/2+y,z
1/2-x,1/2-y,z
1/2+x,1/2-y,-z
1/2-x,1/2+y,-z
1/2-x,1/2-y,-z
1/2+x,1/2+y,-z
1/2-x,1/2+y,z
1/2+x,1/2-y,z
loop_
_atom_site_type_symbol
_atom_site_label
_atom_site_fract_x
_atom_site_fract_y
_atom_site_fract_z
Si Si1 0.297906 0.000000 0.322743
Si Si2 0.705010 0.355811 0.752595
Si Si3 0.707065 0.144268 0.500000
Si Si4 0.708598 0.358091 0.049391
Si Si5 0.787574 0.500000 0.425697
Si Si6 0.791570 0.857930 0.148112
O O1 0.257614 0.086339 0.291073
O O2 0.220272 0.000000 0.373724
O O3 0.500000 0.000000 0.330301
O O4 0.500000 0.363611 0.755933
O O5 0.750000 0.250000 0.747405
O O6 0.774835 0.389992 0.802244
O O7 0.500000 0.137408 0.500000
O O8 0.750000 0.250000 0.500000
O O9 0.767229 0.088216 0.544794
O O10 0.500000 0.369060 0.049323
O O11 0.750000 0.250000 0.049442
O O12 0.772982 0.393343 0.098772
O O13 0.772629 0.393348 0.000000
O O14 0.000000 0.500000 0.425367
O O15 0.750000 0.750000 0.148310
O O16 0.000000 0.870059 0.147583
#
# Coordination Sequence:
#
# PCOD9489840 Si02
#       6
#     8  16   8  16   8  16
#     4  11  22  37  56  80 109 143 182 224 267 308
#     4  10  20  35  53  75 104 140 180 222 268 319
#     4   9  17  35  60  84 110 143 177 209 252 304
#     4   8  12  18  30  51  79 110 145 189 242 299
#     4   8  18  36  56  78 110 145 175 211 257 308
#     4   8  14  24  39  59  86 120 158 201 250 305
#
# _framework density 21.736744000000002
#
# number of rings (size 3 to 8) (size 9 to 14) (size 15 to 20)
#    0.000    3.111    0.000    1.667    0.000    1.778 
#    0.000    5.556    0.000    0.000    0.000    0.778 
#    0.000    6.222    0.000    0.000    0.000    3.111 
#
# Total GULP energy -200591.702137 kJ/mol
# GULP energy per Si atom -5571.991726 kJ/mol
# Density = 2.168727 g / cm^3
# Si number density = 21.736744 Si / 1000 Ang^3
#
#
#
# Elastic Constant Matrix: (Units=GPa)
#
#
# Indices 1 2 3 4 5 6 
#
# 1 37.4053 -2.1802 15.7929 0.0000 0.0000 0.0000
# 2 -2.1802 122.9648 92.6134 0.0000 0.0000 0.0000
# 3 15.7929 92.6134 293.9276 0.0000 0.0000 0.0000
# 4 0.0000 0.0000 0.0000 21.6893 0.0000 0.0000
# 5 0.0000 0.0000 0.0000 0.0000 14.2742 0.0000
# 6 0.0000 0.0000 0.0000 0.0000 0.0000 13.5632
#
#
#
# Elastic Compliance Matrix: (Units=1/GPa)
#
#
# Indices 1 2 3 4 5 6 
#
# 1 0.027770 0.002119 -0.002160 0.000000 0.000000 0.000000
# 2 0.002119 0.010825 -0.003525 0.000000 0.000000 0.000000
# 3 -0.002160 -0.003525 0.004629 0.000000 0.000000 0.000000
# 4 0.000000 0.000000 0.000000 0.046106 0.000000 0.000000
# 5 0.000000 0.000000 0.000000 0.000000 0.070057 0.000000
# 6 0.000000 0.000000 0.000000 0.000000 0.000000 0.073729
#
#
# Mechanical properties :
#
#
# Convention : Reuss Voigt Hill
#
# Bulk Modulus (GPa) = 27.70668 74.08330 50.89499
# Shear Modulus (GPa) = 19.81958 33.11010 26.46484
#
# Velocity S-wave (km/s) = 3.02288 3.90709 3.49308
# Velocity P-wave (km/s) = 4.99579 7.38308 6.30348
#
# Compressibility (1/GPa) = 0.03609237
#
# Stress axis : x y z
#
# Youngs Moduli (GPa) = 36.01063 92.38236 216.03900
#
# Poissons Ratio (x) = -0.19576 0.46659
# Poissons Ratio (y) = -0.07631 0.76144
# Poissons Ratio (z) = 0.07777 0.32561
#
# Static dielectric constant tensor:
#      x y z
#    x 1.818930 0.000000 0.000000 
#    y 0.000000 1.862510 0.000000 
#    z 0.000000 0.000000 1.878850 
# 
# From -- ./inp_files/72596.got.cif
#   From: 2010.05.17/outbox.cif.g08.bks.cpg/sg65_37_cif.got.tgz:72596.got - 2010.06.03 17:01:31.
