data_PCOD9489758
_publ_section_title
;
Structure prediction by ZEFSAII (Michael W. Deem and Ramdas Pophale) SiO2 
 PCOD9489758
Probable space group: C M M M
;
_chemical_formula_sum "Si O2"
_cell_formula_units_Z 100
_cell_length_a 20.724487
_cell_length_b 29.434188
_cell_length_c 8.898298
_cell_angle_alpha 90.000000
_cell_angle_beta 90.000000
_cell_angle_gamma 90.000000
_cell_volume 5428.036940
_symmetry_space_group_name_H-M "C M M M"
_symmetry_group_IT_number 65
_symmetry_cell_setting 'orthorhombic'
loop_
_space_group_symop_operation_xyz
x,y,z
-x,-y,z
x,-y,-z
-x,y,-z
-x,-y,-z
x,y,-z
-x,y,z
x,-y,z
1/2+x,1/2+y,z
1/2-x,1/2-y,z
1/2+x,1/2-y,-z
1/2-x,1/2+y,-z
1/2-x,1/2-y,-z
1/2+x,1/2+y,-z
1/2-x,1/2+y,z
1/2+x,1/2-y,z
loop_
_atom_site_type_symbol
_atom_site_label
_atom_site_fract_x
_atom_site_fract_y
_atom_site_fract_z
Si Si1 0.184356 0.196473 0.322989
Si Si2 0.000000 0.739542 0.000000
Si Si3 0.619301 0.447496 0.677592
Si Si4 0.687094 0.139084 0.321358
Si Si5 0.370529 0.217452 0.164564
Si Si6 0.573531 0.360314 0.174699
Si Si7 0.239128 0.447907 0.821937
O O1 0.187167 0.205622 0.500000
O O2 0.247457 0.167284 0.283138
O O3 0.172715 0.243488 0.237953
O O4 0.122807 0.166110 0.279619
O O5 0.941886 0.736294 0.871643
O O6 0.615074 0.436922 0.500000
O O7 0.600390 0.500000 0.698908
O O8 0.578315 0.412548 0.774971
O O9 0.693261 0.442831 0.733105
O O10 0.685181 0.132632 0.500000
O O11 0.631000 0.172315 0.264406
O O12 0.692021 0.090842 0.239235
O O13 0.343368 0.204980 0.000000
O O14 0.500000 0.344136 0.187585
O O15 0.592595 0.354695 0.000000
O O16 0.216911 0.500000 0.798683
O O17 0.250837 0.441788 0.000000
#
# Coordination Sequence:
#
# PCOD9489758 Si02
#       7
#    16   4  16  16  16  16  16
#     4  11  23  37  56  85 119 152 197 248 292 342
#     4   8  24  44  60  88 117 150 197 244 278 354
#     4  10  20  35  53  74 104 144 191 245 299 345
#     4  11  22  37  59  91 123 154 194 242 295 348
#     4  10  22  40  62  82 117 154 189 239 287 342
#     4  11  24  37  52  74 105 150 202 249 294 345
#     4  10  20  34  56  86 119 155 193 237 291 348
#
# _framework density 18.422865999999999
#
# number of rings (size 3 to 8) (size 9 to 14) (size 15 to 20)
#    0.480    1.120    1.600    3.360    1.120    7.360 
#    0.000    2.800    0.000    0.000    0.000    1.120 
#    0.000    1.280    0.000    0.000    0.000    0.000 
#
# Total GULP energy -278637.192082 kJ/mol
# GULP energy per Si atom -5572.743842 kJ/mol
# Density = 1.838093 g / cm^3
# Si number density = 18.422866 Si / 1000 Ang^3
#
#
#
# Elastic Constant Matrix: (Units=GPa)
#
#
# Indices 1 2 3 4 5 6 
#
# 1 32.5507 10.1069 12.4961 0.0000 0.0000 0.0000
# 2 10.1069 77.5894 19.7286 0.0000 0.0000 0.0000
# 3 12.4961 19.7286 50.1882 0.0000 0.0000 0.0000
# 4 0.0000 0.0000 0.0000 33.1481 0.0000 0.0000
# 5 0.0000 0.0000 0.0000 0.0000 15.3623 0.0000
# 6 0.0000 0.0000 0.0000 0.0000 0.0000 17.6505
#
#
#
# Elastic Compliance Matrix: (Units=1/GPa)
#
#
# Indices 1 2 3 4 5 6 
#
# 1 0.034420 -0.002560 -0.007564 0.000000 0.000000 0.000000
# 2 -0.002560 0.014510 -0.005066 0.000000 0.000000 0.000000
# 3 -0.007564 -0.005066 0.023800 0.000000 0.000000 0.000000
# 4 0.000000 0.000000 0.000000 0.030168 0.000000 0.000000
# 5 0.000000 0.000000 0.000000 0.000000 0.065094 0.000000
# 6 0.000000 0.000000 0.000000 0.000000 0.000000 0.056656
#
#
# Mechanical properties :
#
#
# Convention : Reuss Voigt Hill
#
# Bulk Modulus (GPa) = 23.61317 27.22126 25.41721
# Shear Modulus (GPa) = 18.57739 21.09863 19.83801
#
# Velocity S-wave (km/s) = 3.17896 3.38781 3.28505
# Velocity P-wave (km/s) = 5.13025 5.48734 5.31180
#
# Compressibility (1/GPa) = 0.04234926
#
# Stress axis : x y z
#
# Youngs Moduli (GPa) = 29.05291 68.91756 42.01727
#
# Poissons Ratio (x) = 0.17646 0.31780
# Poissons Ratio (y) = 0.07439 0.21287
# Poissons Ratio (z) = 0.21974 0.34916
#
# Static dielectric constant tensor:
#      x y z
#    x 1.622760 0.000000 0.000000 
#    y 0.000000 1.683150 0.000000 
#    z 0.000000 0.000000 1.619270 
# 
# From -- ./inp_files/12757.got.cif
#   From: 2010.05.17/outbox.cif.g08.bks.cpg/sg65_7_cif.got.tgz:12757.got - 2010.06.03 17:01:31.
