data_PCOD9489521
_publ_section_title
;
Structure prediction by ZEFSAII (Michael W. Deem and Ramdas Pophale) SiO2 
 PCOD9489521
Probable space group: C M M M
;
_chemical_formula_sum "Si O2"
_cell_formula_units_Z 104
_cell_length_a 27.958890
_cell_length_b 8.491382
_cell_length_c 21.710111
_cell_angle_alpha 90.000000
_cell_angle_beta 90.000000
_cell_angle_gamma 90.000000
_cell_volume 5154.189100
_symmetry_space_group_name_H-M "C M M M"
_symmetry_group_IT_number 65
_symmetry_cell_setting 'orthorhombic'
loop_
_space_group_symop_operation_xyz
x,y,z
-x,-y,z
x,-y,-z
-x,y,-z
-x,-y,-z
x,y,-z
-x,y,z
x,-y,z
1/2+x,1/2+y,z
1/2-x,1/2-y,z
1/2+x,1/2-y,-z
1/2-x,1/2+y,-z
1/2-x,1/2-y,-z
1/2+x,1/2+y,-z
1/2-x,1/2+y,z
1/2+x,1/2-y,z
loop_
_atom_site_type_symbol
_atom_site_label
_atom_site_fract_x
_atom_site_fract_y
_atom_site_fract_z
Si Si1 0.802864 0.688391 0.928104
Si Si2 0.896474 0.187536 0.125935
Si Si3 0.345108 0.690688 0.568998
Si Si4 0.447211 0.310812 0.619971
Si Si5 0.944806 0.191510 0.000000
Si Si6 0.698677 0.187509 0.307337
Si Si7 0.403730 0.812046 0.256845
O O1 0.804824 0.500000 0.922532
O O2 0.750000 0.750000 0.914831
O O3 0.841325 0.766853 0.883909
O O4 0.813308 0.730335 0.000000
O O5 0.921137 0.247200 0.063225
O O6 0.916388 0.262793 0.187977
O O7 0.901946 0.000000 0.129784
O O8 0.331275 0.737473 0.500000
O O9 0.343822 0.500000 0.572907
O O10 0.400117 0.742359 0.582622
O O11 0.312064 0.758455 0.622706
O O12 0.500000 0.252266 0.601181
O O13 0.448031 0.500000 0.614893
O O14 0.436316 0.264234 0.690482
O O15 0.000000 0.232667 0.000000
O O16 0.940452 0.000000 0.000000
O O17 0.750000 0.250000 0.286155
O O18 0.651315 0.240537 0.270162
O O19 0.700088 0.000000 0.304712
O O20 0.405858 0.000000 0.263560
#
# Coordination Sequence:
#
# PCOD9489521 Si02
#       7
#    16  16  16  16   8  16  16
#     4  10  20  34  54  79 109 141 175 215 263 321
#     4  11  21  36  59  83 110 143 182 227 279 333
#     4   9  18  33  54  82 115 148 183 224 270 322
#     4   9  18  34  56  81 109 143 184 228 276 328
#     4   9  20  38  58  81 108 139 178 223 270 325
#     4  10  21  37  57  79 108 146 186 229 271 319
#     4  10  22  38  55  79 110 143 184 229 277 330
#
# _framework density 20.177762999999999
#
# number of rings (size 3 to 8) (size 9 to 14) (size 15 to 20)
#    0.000    2.231    0.769    1.846    0.000    4.923 
#    0.000    4.615    0.000    3.231    0.000    4.308 
#    0.000    0.000    0.000    0.000    0.000    0.000 
#
# Total GULP energy -290335.508678 kJ/mol
# GULP energy per Si atom -5583.375167 kJ/mol
# Density = 2.013184 g / cm^3
# Si number density = 20.177763 Si / 1000 Ang^3
#
#
#
# Elastic Constant Matrix: (Units=GPa)
#
#
# Indices 1 2 3 4 5 6 
#
# 1 43.8688 -2.5867 -15.5264 0.0000 0.0000 0.0000
# 2 -2.5867 6.8610 -5.9134 0.0000 0.0000 0.0000
# 3 -15.5264 -5.9134 61.0998 0.0000 0.0000 0.0000
# 4 0.0000 0.0000 0.0000 18.2047 0.0000 0.0000
# 5 0.0000 0.0000 0.0000 0.0000 10.0030 0.0000
# 6 0.0000 0.0000 0.0000 0.0000 0.0000 18.3596
#
#
#
# Elastic Compliance Matrix: (Units=1/GPa)
#
#
# Indices 1 2 3 4 5 6 
#
# 1 0.026836 0.017451 0.008508 0.000000 0.000000 0.000000
# 2 0.017451 0.170365 0.020923 0.000000 0.000000 0.000000
# 3 0.008508 0.020923 0.020554 0.000000 0.000000 0.000000
# 4 0.000000 0.000000 0.000000 0.054931 0.000000 0.000000
# 5 0.000000 0.000000 0.000000 0.000000 0.099970 0.000000
# 6 0.000000 0.000000 0.000000 0.000000 0.000000 0.054467
#
#
# Mechanical properties :
#
#
# Convention : Reuss Voigt Hill
#
# Bulk Modulus (GPa) = 3.21009 7.08626 5.14817
# Shear Modulus (GPa) = 11.43648 18.37053 14.90350
#
# Velocity S-wave (km/s) = 2.38331 3.02061 2.72069
# Velocity P-wave (km/s) = 3.02786 3.96043 3.52512
#
# Compressibility (1/GPa) = 0.31151819
#
# Stress axis : x y z
#
# Youngs Moduli (GPa) = 37.26395 5.86977 48.65287
#
# Poissons Ratio (x) = -0.10243 -0.41395
# Poissons Ratio (y) = -0.65029 -1.01796
# Poissons Ratio (z) = -0.31705 -0.12281
#
# Static dielectric constant tensor:
#      x y z
#    x 1.846460 0.000000 0.000000 
#    y 0.000000 1.687410 0.000000 
#    z 0.000000 0.000000 1.714210 
# 
# From -- ./inp_files/60446.got.cif
#   From: 2010.05.17/outbox.cif.g08.bks.cpg/sg65_31_cif.got.tgz:60446.got - 2010.06.03 17:01:31.
