data_PCOD9489205
_publ_section_title
;
Structure prediction by ZEFSAII (Michael W. Deem and Ramdas Pophale) SiO2 
 PCOD9489205
Probable space group: C M M M
;
_chemical_formula_sum "Si O2"
_cell_formula_units_Z 64
_cell_length_a 8.878516
_cell_length_b 28.710839
_cell_length_c 15.819351
_cell_angle_alpha 90.000000
_cell_angle_beta 90.000000
_cell_angle_gamma 90.000000
_cell_volume 4032.505123
_symmetry_space_group_name_H-M "C M M M"
_symmetry_group_IT_number 65
_symmetry_cell_setting 'orthorhombic'
loop_
_space_group_symop_operation_xyz
x,y,z
-x,-y,z
x,-y,-z
-x,y,-z
-x,-y,-z
x,y,-z
-x,y,z
x,-y,z
1/2+x,1/2+y,z
1/2-x,1/2-y,z
1/2+x,1/2-y,-z
1/2-x,1/2+y,-z
1/2-x,1/2-y,-z
1/2+x,1/2+y,-z
1/2-x,1/2+y,z
1/2+x,1/2-y,z
loop_
_atom_site_type_symbol
_atom_site_label
_atom_site_fract_x
_atom_site_fract_y
_atom_site_fract_z
Si Si1 0.826413 0.056520 0.000000
Si Si2 0.179947 0.894056 0.661818
Si Si3 0.677057 0.944185 0.500000
Si Si4 0.679289 0.944387 0.822586
Si Si5 0.820845 0.699903 0.399335
O O1 0.742381 0.070382 0.085914
O O2 0.000000 0.071949 0.000000
O O3 0.826185 0.000000 0.000000
O O4 0.245747 0.923292 0.583041
O O5 0.239565 0.917180 0.747601
O O6 0.242675 0.841923 0.650295
O O7 0.000000 0.894298 0.659110
O O8 0.500000 0.931220 0.500000
O O9 0.688152 0.000000 0.500000
O O10 0.500000 0.937264 0.818466
O O11 0.707197 0.000000 0.812883
O O12 0.795541 0.691856 0.500000
O O13 0.750000 0.750000 0.378731
O O14 0.000000 0.700103 0.385087
#
# Coordination Sequence:
#
# PCOD9489205 Si02
#       5
#     8  16   8  16  16
#     4   9  17  31  51  75 102 131 168 215 261 303
#     4  12  23  34  51  75 103 135 173 213 256 304
#     4  11  23  37  50  67  98 139 177 211 251 301
#     4  10  20  34  52  74 103 139 176 213 256 306
#     4  10  20  35  55  75 100 131 168 213 260 306
#
# _framework density 15.871028000000001
#
# number of rings (size 3 to 8) (size 9 to 14) (size 15 to 20)
#    0.000    1.500    1.250    5.250    0.000    8.000 
#    0.000    0.000    0.000    0.000    0.000    0.875 
#    0.000    0.000    0.000    0.000    0.000    0.000 
#
# Total GULP energy -178785.754624 kJ/mol
# GULP energy per Si atom -5587.054832 kJ/mol
# Density = 1.583491 g / cm^3
# Si number density = 15.871028 Si / 1000 Ang^3
#
#
#
# Elastic Constant Matrix: (Units=GPa)
#
#
# Indices 1 2 3 4 5 6 
#
# 1 149.4613 77.5174 85.1290 0.0000 0.0000 0.0000
# 2 77.5174 91.0808 68.0839 0.0000 0.0000 0.0000
# 3 85.1290 68.0839 144.1719 0.0000 0.0000 0.0000
# 4 0.0000 0.0000 0.0000 2.2961 0.0000 0.0000
# 5 0.0000 0.0000 0.0000 0.0000 30.9343 0.0000
# 6 0.0000 0.0000 0.0000 0.0000 0.0000 28.0683
#
#
#
# Elastic Compliance Matrix: (Units=1/GPa)
#
#
# Indices 1 2 3 4 5 6 
#
# 1 0.013234 -0.008380 -0.003857 0.000000 0.000000 0.000000
# 2 -0.008380 0.022276 -0.005572 0.000000 0.000000 0.000000
# 3 -0.003857 -0.005572 0.011845 0.000000 0.000000 0.000000
# 4 0.000000 0.000000 0.000000 0.435524 0.000000 0.000000
# 5 0.000000 0.000000 0.000000 0.000000 0.032327 0.000000
# 6 0.000000 0.000000 0.000000 0.000000 0.000000 0.035627
#
#
# Mechanical properties :
#
#
# Convention : Reuss Voigt Hill
#
# Bulk Modulus (GPa) = 85.19473 94.01939 89.60706
# Shear Modulus (GPa) = 8.46939 22.52532 15.49736
#
# Velocity S-wave (km/s) = 2.31257 3.77141 3.12822
# Velocity P-wave (km/s) = 7.80555 8.85059 8.34445
#
# Compressibility (1/GPa) = 0.01173781
#
# Stress axis : x y z
#
# Youngs Moduli (GPa) = 75.56540 44.89098 84.42731
#
# Poissons Ratio (x) = 0.37619 0.32560
# Poissons Ratio (y) = 0.63324 0.47039
# Poissons Ratio (z) = 0.29143 0.25011
#
# Static dielectric constant tensor:
#      x y z
#    x 1.525110 0.000000 0.000000 
#    y 0.000000 1.514060 0.000000 
#    z 0.000000 0.000000 1.505560 
# 
# From -- ./inp_files/36320.got.cif
#   From: 2010.05.17/outbox.cif.g08.bks.cpg/sg65_19_cif.got.tgz:36320.got - 2010.06.03 17:01:31.
