data_PCOD9489753
_publ_section_title
;
Structure prediction by ZEFSAII (Michael W. Deem and Ramdas Pophale) SiO2 
 PCOD9489753
Probable space group: C M M M
;
_chemical_formula_sum "Si O2"
_cell_formula_units_Z 88
_cell_length_a 20.106616
_cell_length_b 25.883875
_cell_length_c 9.031978
_cell_angle_alpha 90.000000
_cell_angle_beta 90.000000
_cell_angle_gamma 90.000000
_cell_volume 4700.576756
_symmetry_space_group_name_H-M "C M M M"
_symmetry_group_IT_number 65
_symmetry_cell_setting 'orthorhombic'
loop_
_space_group_symop_operation_xyz
x,y,z
-x,-y,z
x,-y,-z
-x,y,-z
-x,-y,-z
x,y,-z
-x,y,z
x,-y,z
1/2+x,1/2+y,z
1/2-x,1/2-y,z
1/2+x,1/2-y,-z
1/2-x,1/2+y,-z
1/2-x,1/2-y,-z
1/2+x,1/2+y,-z
1/2-x,1/2+y,z
1/2+x,1/2-y,z
loop_
_atom_site_type_symbol
_atom_site_label
_atom_site_fract_x
_atom_site_fract_y
_atom_site_fract_z
Si Si1 0.619962 0.150881 0.333723
Si Si2 0.732261 0.692512 0.669631
Si Si3 0.000000 0.722037 0.323360
Si Si4 0.581566 0.500000 0.679949
Si Si5 0.864975 0.892909 0.824346
Si Si6 0.500000 0.328924 0.833078
Si Si7 0.424024 0.943992 0.176783
O O1 0.597650 0.136753 0.500000
O O2 0.693822 0.170825 0.341515
O O3 0.566341 0.191935 0.273980
O O4 0.620346 0.101076 0.233777
O O5 0.705218 0.699990 0.500000
O O6 0.750000 0.750000 0.733927
O O7 0.687106 0.649055 0.752450
O O8 0.000000 0.780325 0.272370
O O9 0.000000 0.722096 0.500000
O O10 0.500000 0.500000 0.716011
O O11 0.585897 0.500000 0.500000
O O12 0.619219 0.551469 0.745276
O O13 0.935242 0.863505 0.814074
O O14 0.849187 0.900814 0.000000
O O15 0.500000 0.307930 0.000000
O O16 0.500000 0.934662 0.226425
O O17 0.402801 0.000000 0.231210
O O18 0.424917 0.944814 0.000000
#
# Coordination Sequence:
#
# PCOD9489753 Si02
#       7
#    16  16   8   8  16   8  16
#     4  10  20  35  56  83 113 147 192 245 296 347
#     4  10  22  41  62  86 121 164 208 255 307 366
#     4  10  20  34  56  86 116 151 197 245 296 355
#     4  11  23  41  69 101 129 162 207 258 317 385
#     4  11  23  41  64  91 126 164 204 255 314 377
#     4  10  22  37  57  87 118 150 192 242 298 359
#     4   9  18  33  53  77 106 142 183 226 277 341
#
# _framework density 18.721105999999999
#
# number of rings (size 3 to 8) (size 9 to 14) (size 15 to 20)
#    0.000    1.909    1.818    2.455    0.000    5.455 
#    1.636    0.909    0.000    0.000    0.000    0.000 
#    0.000    0.000    0.000    0.000    0.000    0.000 
#
# Total GULP energy -244936.444499 kJ/mol
# GULP energy per Si atom -5566.737375 kJ/mol
# Density = 1.867850 g / cm^3
# Si number density = 18.721106 Si / 1000 Ang^3
#
#
#
# Elastic Constant Matrix: (Units=GPa)
#
#
# Indices 1 2 3 4 5 6 
#
# 1 75.0351 47.2931 39.9433 0.0000 0.0000 0.0000
# 2 47.2931 122.4540 49.0951 0.0000 0.0000 0.0000
# 3 39.9433 49.0951 53.8948 0.0000 0.0000 0.0000
# 4 0.0000 0.0000 0.0000 31.7131 0.0000 0.0000
# 5 0.0000 0.0000 0.0000 0.0000 23.2193 0.0000
# 6 0.0000 0.0000 0.0000 0.0000 0.0000 111.3389
#
#
#
# Elastic Compliance Matrix: (Units=1/GPa)
#
#
# Indices 1 2 3 4 5 6 
#
# 1 0.022778 -0.003196 -0.013970 0.000000 0.000000 0.000000
# 2 -0.003196 0.013313 -0.009759 0.000000 0.000000 0.000000
# 3 -0.013970 -0.009759 0.037798 0.000000 0.000000 0.000000
# 4 0.000000 0.000000 0.000000 0.031533 0.000000 0.000000
# 5 0.000000 0.000000 0.000000 0.000000 0.043068 0.000000
# 6 0.000000 0.000000 0.000000 0.000000 0.000000 0.008982
#
#
# Mechanical properties :
#
#
# Convention : Reuss Voigt Hill
#
# Bulk Modulus (GPa) = 49.90197 58.22744 54.06471
# Shear Modulus (GPa) = 22.93555 40.92445 31.93000
#
# Velocity S-wave (km/s) = 3.50397 4.68055 4.13433
# Velocity P-wave (km/s) = 6.56382 7.77046 7.19249
#
# Compressibility (1/GPa) = 0.02003929
#
# Stress axis : x y z
#
# Youngs Moduli (GPa) = 43.90133 75.11271 26.45627
#
# Poissons Ratio (x) = 0.24008 0.36960
# Poissons Ratio (y) = 0.14032 0.25818
# Poissons Ratio (z) = 0.61331 0.73301
#
# Static dielectric constant tensor:
#      x y z
#    x 1.572510 0.000000 0.000000 
#    y 0.000000 1.659320 0.000000 
#    z 0.000000 0.000000 1.686480 
# 
# From -- ./inp_files/11883.got.cif
#   From: 2010.05.17/outbox.cif.g08.bks.cpg/sg65_6_cif.got.tgz:11883.got - 2010.06.03 17:01:31.
