data_PCOD9489877
_publ_section_title
;
Structure prediction by ZEFSAII (Michael W. Deem and Ramdas Pophale) SiO2 
 PCOD9489877
Probable space group: C M M M
;
_chemical_formula_sum "Si O2"
_cell_formula_units_Z 88
_cell_length_a 7.594184
_cell_length_b 26.080072
_cell_length_c 19.217691
_cell_angle_alpha 90.000000
_cell_angle_beta 90.000000
_cell_angle_gamma 90.000000
_cell_volume 3806.195642
_symmetry_space_group_name_H-M "C M M M"
_symmetry_group_IT_number 65
_symmetry_cell_setting 'orthorhombic'
loop_
_space_group_symop_operation_xyz
x,y,z
-x,-y,z
x,-y,-z
-x,y,-z
-x,-y,-z
x,y,-z
-x,y,z
x,-y,z
1/2+x,1/2+y,z
1/2-x,1/2-y,z
1/2+x,1/2-y,-z
1/2-x,1/2+y,-z
1/2-x,1/2-y,-z
1/2+x,1/2+y,-z
1/2-x,1/2+y,z
1/2+x,1/2-y,z
loop_
_atom_site_type_symbol
_atom_site_label
_atom_site_fract_x
_atom_site_fract_y
_atom_site_fract_z
Si Si1 0.709152 0.616465 0.578573
Si Si2 0.200134 0.162990 0.713184
Si Si3 0.790047 0.193907 0.139224
Si Si4 0.705480 0.913478 0.075722
Si Si5 0.214545 0.555664 0.774815
Si Si6 0.800418 0.500000 0.415666
O O1 0.780541 0.621924 0.500000
O O2 0.500000 0.625697 0.575877
O O3 0.782217 0.655741 0.636679
O O4 0.728764 0.556650 0.600790
O O5 0.281285 0.190489 0.780832
O O6 0.199451 0.104013 0.738785
O O7 0.000000 0.182521 0.705474
O O8 0.750000 0.250000 0.110808
O O9 0.717640 0.146964 0.094305
O O10 0.000000 0.186521 0.142736
O O11 0.500000 0.927416 0.071997
O O12 0.772882 0.941304 0.144539
O O13 0.784838 0.923720 0.000000
O O14 0.258784 0.500000 0.745455
O O15 0.000000 0.561706 0.772204
O O16 0.795306 0.500000 0.500000
O O17 0.000000 0.500000 0.390230
#
# Coordination Sequence:
#
# PCOD9489877 Si02
#       6
#    16  16  16  16  16   8
#     4   9  17  30  47  66  91 125 163 200 237 278
#     4   9  19  33  49  70  94 124 162 201 239 283
#     4  10  20  35  54  74  96 122 155 196 243 292
#     4   9  18  33  52  74 100 128 159 195 234 279
#     4   9  18  31  47  70  99 131 165 197 232 275
#     4   9  17  27  39  61  93 125 156 191 232 275
#
# _framework density 23.120200000000001
#
# number of rings (size 3 to 8) (size 9 to 14) (size 15 to 20)
#    0.000    2.818    0.000    0.818    1.273    4.000 
#    0.000    1.818    0.000    0.545    0.000    5.091 
#    0.000    0.000    0.000    0.000    0.000    0.545 
#
# Total GULP energy -245333.286519 kJ/mol
# GULP energy per Si atom -5575.756512 kJ/mol
# Density = 2.306758 g / cm^3
# Si number density = 23.120200 Si / 1000 Ang^3
#
#
#
# Elastic Constant Matrix: (Units=GPa)
#
#
# Indices 1 2 3 4 5 6 
#
# 1 57.5909 -13.2898 -3.2614 0.0000 0.0000 0.0000
# 2 -13.2898 41.9503 -24.3983 0.0000 0.0000 0.0000
# 3 -3.2614 -24.3983 95.1082 0.0000 0.0000 0.0000
# 4 0.0000 0.0000 0.0000 6.0368 0.0000 0.0000
# 5 0.0000 0.0000 0.0000 0.0000 10.1370 0.0000
# 6 0.0000 0.0000 0.0000 0.0000 0.0000 -3.7221
#
#
#
# Elastic Compliance Matrix: (Units=1/GPa)
#
#
# Indices 1 2 3 4 5 6 
#
# 1 0.019272 0.007628 0.002618 0.000000 0.000000 0.000000
# 2 0.007628 0.031037 0.008224 0.000000 0.000000 0.000000
# 3 0.002618 0.008224 0.012714 0.000000 0.000000 0.000000
# 4 0.000000 0.000000 0.000000 0.165651 0.000000 0.000000
# 5 0.000000 0.000000 0.000000 0.000000 0.098648 0.000000
# 6 0.000000 0.000000 0.000000 0.000000 0.000000 -0.268666
#
#
# Mechanical properties :
#
#
# Convention : Reuss Voigt Hill
#
# Bulk Modulus (GPa) = 10.00384 12.52780 11.26582
# Shear Modulus (GPa) = 90.84550 18.19694 54.52122
#
# Velocity S-wave (km/s) = 6.27519 2.80850 4.86136
# Velocity P-wave (km/s) = 7.53925 3.99340 6.03272
#
# Compressibility (1/GPa) = 0.09996158
#
# Stress axis : x y z
#
# Youngs Moduli (GPa) = 51.88781 32.21951 78.65516
#
# Poissons Ratio (x) = -0.24577 -0.20589
# Poissons Ratio (y) = -0.39580 -0.64683
# Poissons Ratio (z) = -0.13583 -0.26496
#
# Static dielectric constant tensor:
#      x y z
#    x 1.882720 0.000000 0.000000 
#    y 0.000000 1.816660 0.000000 
#    z 0.000000 0.000000 1.972680 
# 
# From -- ./inp_files/50334.got.cif
#   From: 2010.05.17/outbox.cif.g08.bks.cpg/sg65_26_cif.got.tgz:50334.got - 2010.06.03 17:01:31.
