data_PCOD9489147
_publ_section_title
;
Structure prediction by ZEFSAII (Michael W. Deem and Ramdas Pophale) SiO2 
 PCOD9489147
Probable space group: C M M M
;
_chemical_formula_sum "Si O2"
_cell_formula_units_Z 88
_cell_length_a 22.892328
_cell_length_b 25.205556
_cell_length_c 9.087006
_cell_angle_alpha 90.000000
_cell_angle_beta 90.000000
_cell_angle_gamma 90.000000
_cell_volume 5243.328366
_symmetry_space_group_name_H-M "C M M M"
_symmetry_group_IT_number 65
_symmetry_cell_setting 'orthorhombic'
loop_
_space_group_symop_operation_xyz
x,y,z
-x,-y,z
x,-y,-z
-x,y,-z
-x,-y,-z
x,y,-z
-x,y,z
x,-y,z
1/2+x,1/2+y,z
1/2-x,1/2-y,z
1/2+x,1/2-y,-z
1/2-x,1/2+y,-z
1/2-x,1/2-y,-z
1/2+x,1/2+y,-z
1/2-x,1/2+y,z
1/2+x,1/2-y,z
loop_
_atom_site_type_symbol
_atom_site_label
_atom_site_fract_x
_atom_site_fract_y
_atom_site_fract_z
Si Si1 0.500000 0.435338 0.330341
Si Si2 0.118356 0.063775 0.830755
Si Si3 0.933019 0.439448 0.178979
Si Si4 0.336344 0.853757 0.178201
Si Si5 0.319369 0.736549 0.167394
Si Si6 0.789597 0.867034 0.674531
O O1 0.500000 0.500000 0.330461
O O2 0.500000 0.418112 0.500000
O O3 0.558225 0.418358 0.245524
O O4 0.172640 0.085294 0.739438
O O5 0.118446 0.000000 0.830508
O O6 0.121570 0.081710 0.000000
O O7 0.917946 0.500000 0.224089
O O8 0.886362 0.395108 0.224529
O O9 0.000000 0.428549 0.225219
O O10 0.932946 0.439124 0.000000
O O11 0.349627 0.791817 0.211804
O O12 0.274601 0.866898 0.253081
O O13 0.329324 0.856536 0.000000
O O14 0.250000 0.750000 0.163485
O O15 0.322961 0.686586 0.273738
O O16 0.336590 0.722506 0.000000
O O17 0.784964 0.868822 0.500000
#
# Coordination Sequence:
#
# PCOD9489147 Si02
#       6
#     8  16  16  16  16  16
#     4   9  17  31  51  73  97 125 157 193 234 281
#     4  10  20  34  52  72  96 129 167 202 239 290
#     4   8  14  26  47  75 102 127 160 202 246 295
#     4   9  17  30  49  72  98 130 165 205 249 297
#     4   8  15  29  47  66  92 126 162 201 242 292
#     4  11  21  31  47  72 100 129 162 207 256 301
#
# _framework density 16.783232000000002
#
# number of rings (size 3 to 8) (size 9 to 14) (size 15 to 20)
#    0.000    2.818    0.000    4.091    0.000    6.182 
#    0.000    1.818    2.000    0.545    0.000    1.273 
#    0.000    0.000    0.000    0.000    0.000    0.000 
#
# Total GULP energy -245080.438083 kJ/mol
# GULP energy per Si atom -5570.009956 kJ/mol
# Density = 1.674503 g / cm^3
# Si number density = 16.783232 Si / 1000 Ang^3
#
#
#
# Elastic Constant Matrix: (Units=GPa)
#
#
# Indices 1 2 3 4 5 6 
#
# 1 81.0432 51.7578 31.7460 0.0000 0.0000 0.0000
# 2 51.7578 76.8847 26.5083 0.0000 0.0000 0.0000
# 3 31.7460 26.5083 66.8288 0.0000 0.0000 0.0000
# 4 0.0000 0.0000 0.0000 12.3380 0.0000 0.0000
# 5 0.0000 0.0000 0.0000 0.0000 -19.0842 0.0000
# 6 0.0000 0.0000 0.0000 0.0000 0.0000 17.4456
#
#
#
# Elastic Compliance Matrix: (Units=1/GPa)
#
#
# Indices 1 2 3 4 5 6 
#
# 1 0.023337 -0.013771 -0.005623 0.000000 0.000000 0.000000
# 2 -0.013771 0.023194 -0.002658 0.000000 0.000000 0.000000
# 3 -0.005623 -0.002658 0.018689 0.000000 0.000000 0.000000
# 4 0.000000 0.000000 0.000000 0.081050 0.000000 0.000000
# 5 0.000000 0.000000 0.000000 0.000000 -0.052399 0.000000
# 6 0.000000 0.000000 0.000000 0.000000 0.000000 0.057321
#
#
# Mechanical properties :
#
#
# Convention : Reuss Voigt Hill
#
# Bulk Modulus (GPa) = 47.36135 49.42012 48.39073
# Shear Modulus (GPa) = 24.71147 9.78951 17.25049
#
# Velocity S-wave (km/s) = 3.84134 2.41776 3.20947
# Velocity P-wave (km/s) = 6.92497 6.10771 6.52914
#
# Compressibility (1/GPa) = 0.02111426
#
# Stress axis : x y z
#
# Youngs Moduli (GPa) = 42.85089 43.11542 53.50674
#
# Poissons Ratio (x) = 0.59375 0.30088
# Poissons Ratio (y) = 0.59011 0.14223
# Poissons Ratio (z) = 0.24096 0.11461
#
# Static dielectric constant tensor:
#      x y z
#    x 1.547770 0.000000 0.000000 
#    y 0.000000 1.596900 0.000000 
#    z 0.000000 0.000000 1.557020 
# 
# From -- ./inp_files/11727.got.cif
#   From: 2010.05.17/outbox.cif.g08.bks.cpg/sg65_6_cif.got.tgz:11727.got - 2010.06.03 17:01:31.
