data_PCOD9489462
_publ_section_title
;
Structure prediction by ZEFSAII (Michael W. Deem and Ramdas Pophale) SiO2 
 PCOD9489462
Probable space group: C M M M
;
_chemical_formula_sum "Si O2"
_cell_formula_units_Z 104
_cell_length_a 33.324711
_cell_length_b 8.782738
_cell_length_c 20.994504
_cell_angle_alpha 90.000000
_cell_angle_beta 90.000000
_cell_angle_gamma 90.000000
_cell_volume 6144.717737
_symmetry_space_group_name_H-M "C M M M"
_symmetry_group_IT_number 65
_symmetry_cell_setting 'orthorhombic'
loop_
_space_group_symop_operation_xyz
x,y,z
-x,-y,z
x,-y,-z
-x,y,-z
-x,-y,-z
x,y,-z
-x,y,z
x,-y,z
1/2+x,1/2+y,z
1/2-x,1/2-y,z
1/2+x,1/2-y,-z
1/2-x,1/2+y,-z
1/2-x,1/2-y,-z
1/2+x,1/2+y,-z
1/2-x,1/2+y,z
1/2+x,1/2-y,z
loop_
_atom_site_type_symbol
_atom_site_label
_atom_site_fract_x
_atom_site_fract_y
_atom_site_fract_z
Si Si1 0.794927 0.181855 0.000000
Si Si2 0.369105 0.318744 0.321490
Si Si3 0.000000 0.180596 0.642985
Si Si4 0.660580 0.180914 0.121786
Si Si5 0.000000 0.681752 0.215298
Si Si6 0.793926 0.319321 0.254764
Si Si7 0.415201 0.682201 0.810423
Si Si8 0.923186 0.680924 0.425376
O O1 0.750000 0.250000 0.000000
O O2 0.819014 0.239426 0.938209
O O3 0.792245 0.000000 0.000000
O O4 0.369743 0.500000 0.330867
O O5 0.325381 0.261630 0.301377
O O6 0.398013 0.283932 0.260771
O O7 0.385835 0.233694 0.382980
O O8 0.000000 0.262579 0.711283
O O9 0.038788 0.231062 0.603368
O O10 0.000000 0.000000 0.653859
O O11 0.688859 0.205509 0.183498
O O12 0.617311 0.248750 0.140997
O O13 0.657300 0.000000 0.110914
O O14 0.040702 0.747085 0.184551
O O15 0.000000 0.500000 0.212968
O O16 0.793491 0.500000 0.266300
O O17 0.750000 0.250000 0.260326
O O18 0.416789 0.500000 0.817072
O O19 0.918275 0.714241 0.500000
O O20 0.929694 0.500000 0.418166
#
# Coordination Sequence:
#
# PCOD9489462 Si02
#       8
#     8  16   8  16   8  16  16  16
#     4  12  24  38  58  85 118 155 190 228 274 326
#     4  10  20  34  54  77 105 139 178 222 272 325
#     4  12  23  35  52  77 107 143 183 226 273 325
#     4  10  21  37  57  83 115 150 186 224 271 326
#     4  12  22  33  55  81 111 147 185 230 277 324
#     4  10  20  34  55  81 110 140 177 222 271 323
#     4  10  20  35  55  81 111 144 184 230 276 322
#     4  11  23  37  53  75 106 143 181 222 272 330
#
# _framework density 16.925106
#
# number of rings (size 3 to 8) (size 9 to 14) (size 15 to 20)
#    0.000    1.385    1.538    5.077    0.000    6.462 
#    0.000    0.000    0.000    0.923    0.000    3.231 
#    0.000    0.000    0.000    0.000    0.000    0.000 
#
# Total GULP energy -290627.003845 kJ/mol
# GULP energy per Si atom -5588.980843 kJ/mol
# Density = 1.688658 g / cm^3
# Si number density = 16.925106 Si / 1000 Ang^3
#
#
#
# Elastic Constant Matrix: (Units=GPa)
#
#
# Indices 1 2 3 4 5 6 
#
# 1 155.7253 62.4104 52.3947 0.0000 0.0000 0.0000
# 2 62.4104 87.3557 46.4623 0.0000 0.0000 0.0000
# 3 52.3947 46.4623 80.6109 0.0000 0.0000 0.0000
# 4 0.0000 0.0000 0.0000 25.5313 0.0000 0.0000
# 5 0.0000 0.0000 0.0000 0.0000 16.5928 0.0000
# 6 0.0000 0.0000 0.0000 0.0000 0.0000 35.3596
#
#
#
# Elastic Compliance Matrix: (Units=1/GPa)
#
#
# Indices 1 2 3 4 5 6 
#
# 1 0.009566 -0.005086 -0.003286 0.000000 0.000000 0.000000
# 2 -0.005086 0.019213 -0.007768 0.000000 0.000000 0.000000
# 3 -0.003286 -0.007768 0.019018 0.000000 0.000000 0.000000
# 4 0.000000 0.000000 0.000000 0.039168 0.000000 0.000000
# 5 0.000000 0.000000 0.000000 0.000000 0.060267 0.000000
# 6 0.000000 0.000000 0.000000 0.000000 0.000000 0.028281
#
#
# Mechanical properties :
#
#
# Convention : Reuss Voigt Hill
#
# Bulk Modulus (GPa) = 64.44679 71.80296 68.12487
# Shear Modulus (GPa) = 23.47813 26.32505 24.90159
#
# Velocity S-wave (km/s) = 3.72852 3.94811 3.83989
# Velocity P-wave (km/s) = 7.52968 7.95610 7.74583
#
# Compressibility (1/GPa) = 0.01551668
#
# Stress axis : x y z
#
# Youngs Moduli (GPa) = 104.54192 52.04817 52.58168
#
# Poissons Ratio (x) = 0.26474 0.17276
# Poissons Ratio (y) = 0.53175 0.40845
# Poissons Ratio (z) = 0.34348 0.40430
#
# Static dielectric constant tensor:
#      x y z
#    x 1.559190 0.000000 0.000000 
#    y 0.000000 1.560670 0.000000 
#    z 0.000000 0.000000 1.547790 
# 
# From -- ./inp_files/66434.got.cif
#   From: 2010.05.17/outbox.cif.g08.bks.cpg/sg65_34_cif.got.tgz:66434.got - 2010.06.03 17:01:31.
