data_PCOD9489542
_publ_section_title
;
Structure prediction by ZEFSAII (Michael W. Deem and Ramdas Pophale) SiO2 
 PCOD9489542
Probable space group: C M M M
;
_chemical_formula_sum "Si O2"
_cell_formula_units_Z 72
_cell_length_a 9.112595
_cell_length_b 17.126306
_cell_length_c 24.264698
_cell_angle_alpha 90.000000
_cell_angle_beta 90.000000
_cell_angle_gamma 90.000000
_cell_volume 3786.872287
_symmetry_space_group_name_H-M "C M M M"
_symmetry_group_IT_number 65
_symmetry_cell_setting 'orthorhombic'
loop_
_space_group_symop_operation_xyz
x,y,z
-x,-y,z
x,-y,-z
-x,y,-z
-x,-y,-z
x,y,-z
-x,y,z
x,-y,z
1/2+x,1/2+y,z
1/2-x,1/2-y,z
1/2+x,1/2-y,-z
1/2-x,1/2+y,-z
1/2-x,1/2-y,-z
1/2+x,1/2+y,-z
1/2-x,1/2+y,z
1/2+x,1/2-y,z
loop_
_atom_site_type_symbol
_atom_site_label
_atom_site_fract_x
_atom_site_fract_y
_atom_site_fract_z
Si Si1 0.670887 0.595103 0.938639
Si Si2 0.670714 0.094499 0.379841
Si Si3 0.674466 0.665964 0.724874
Si Si4 0.821441 0.409688 0.500000
Si Si5 0.832561 0.594292 0.828997
O O1 0.500000 0.616510 0.930861
O O2 0.675880 0.500000 0.938619
O O3 0.768260 0.622118 0.887549
O O4 0.718103 0.620495 0.000000
O O5 0.500000 0.117668 0.370769
O O6 0.769536 0.123373 0.330210
O O7 0.720402 0.124100 0.440484
O O8 0.672397 0.000000 0.381606
O O9 0.500000 0.671812 0.725454
O O10 0.750000 0.750000 0.725558
O O11 0.732379 0.621175 0.778731
O O12 0.771435 0.500000 0.500000
O O13 0.000000 0.411184 0.500000
O O14 0.833573 0.500000 0.829945
O O15 0.000000 0.621179 0.820978
#
# Coordination Sequence:
#
# PCOD9489542 Si02
#       5
#    16  16  16   8  16
#     4   8  14  26  46  74 107 139 171 210 255 301
#     4   9  17  33  58  85 111 138 171 210 254 307
#     4  12  25  39  54  73 102 139 179 221 266 313
#     4   7  12  26  52  83 110 137 167 203 250 303
#     4  10  20  34  54  80 108 138 174 215 259 310
#
# _framework density 19.013052999999999
#
# number of rings (size 3 to 8) (size 9 to 14) (size 15 to 20)
#    0.000    2.556    0.000    5.333    0.000    4.889 
#    0.000    3.333    0.000    2.667    0.000    0.000 
#    0.000    0.000    0.000    0.000    0.000    0.000 
#
# Total GULP energy -200757.968567 kJ/mol
# GULP energy per Si atom -5576.610238 kJ/mol
# Density = 1.896978 g / cm^3
# Si number density = 19.013053 Si / 1000 Ang^3
#
#
#
# Elastic Constant Matrix: (Units=GPa)
#
#
# Indices 1 2 3 4 5 6 
#
# 1 137.0688 21.7817 95.9919 0.0000 0.0000 0.0000
# 2 21.7817 13.1973 22.4223 0.0000 0.0000 0.0000
# 3 95.9919 22.4223 188.7743 0.0000 0.0000 0.0000
# 4 0.0000 0.0000 0.0000 -18.3857 0.0000 0.0000
# 5 0.0000 0.0000 0.0000 0.0000 11.4946 0.0000
# 6 0.0000 0.0000 0.0000 0.0000 0.0000 16.4640
#
#
#
# Elastic Compliance Matrix: (Units=1/GPa)
#
#
# Indices 1 2 3 4 5 6 
#
# 1 0.012816 -0.012628 -0.005017 0.000000 0.000000 0.000000
# 2 -0.012628 0.107374 -0.006332 0.000000 0.000000 0.000000
# 3 -0.005017 -0.006332 0.008601 0.000000 0.000000 0.000000
# 4 0.000000 0.000000 0.000000 -0.054390 0.000000 0.000000
# 5 0.000000 0.000000 0.000000 0.000000 0.086997 0.000000
# 6 0.000000 0.000000 0.000000 0.000000 0.000000 0.060739
#
#
# Mechanical properties :
#
#
# Convention : Reuss Voigt Hill
#
# Bulk Modulus (GPa) = 12.37075 68.82580 40.59828
# Shear Modulus (GPa) = 16.83294 15.17088 16.00191
#
# Velocity S-wave (km/s) = 2.97869 2.82781 2.90423
# Velocity P-wave (km/s) = 4.28377 6.85127 5.71360
#
# Compressibility (1/GPa) = 0.08083583
#
# Stress axis : x y z
#
# Youngs Moduli (GPa) = 78.02863 9.31321 116.27174
#
# Poissons Ratio (x) = 0.11761 0.58332
# Poissons Ratio (y) = 0.98538 0.73625
# Poissons Ratio (z) = 0.39146 0.05897
#
# Static dielectric constant tensor:
#      x y z
#    x 1.637860 0.000000 0.000000 
#    y 0.000000 1.669160 0.000000 
#    z 0.000000 0.000000 1.688150 
# 
# From -- ./inp_files/67222.got.cif
#   From: 2010.05.17/outbox.cif.g08.bks.cpg/sg65_34_cif.got.tgz:67222.got - 2010.06.03 17:01:31.
