data_PCOD9489580
_publ_section_title
;
Structure prediction by ZEFSAII (Michael W. Deem and Ramdas Pophale) SiO2 
 PCOD9489580
Probable space group: C M M M
;
_chemical_formula_sum "Si O2"
_cell_formula_units_Z 88
_cell_length_a 28.466138
_cell_length_b 21.231863
_cell_length_c 7.736937
_cell_angle_alpha 90.000000
_cell_angle_beta 90.000000
_cell_angle_gamma 90.000000
_cell_volume 4676.120716
_symmetry_space_group_name_H-M "C M M M"
_symmetry_group_IT_number 65
_symmetry_cell_setting 'orthorhombic'
loop_
_space_group_symop_operation_xyz
x,y,z
-x,-y,z
x,-y,-z
-x,y,-z
-x,-y,-z
x,y,-z
-x,y,z
x,-y,z
1/2+x,1/2+y,z
1/2-x,1/2-y,z
1/2+x,1/2-y,-z
1/2-x,1/2+y,-z
1/2-x,1/2-y,-z
1/2+x,1/2+y,-z
1/2-x,1/2+y,z
1/2+x,1/2-y,z
loop_
_atom_site_type_symbol
_atom_site_label
_atom_site_fract_x
_atom_site_fract_y
_atom_site_fract_z
Si Si1 0.817432 0.365182 0.295223
Si Si2 0.445552 0.500000 0.211585
Si Si3 0.620607 0.613114 0.799713
Si Si4 0.615192 0.754690 0.306394
Si Si5 0.055411 0.688595 0.000000
Si Si6 0.879576 0.573330 0.000000
Si Si7 0.222997 0.071012 0.292655
O O1 0.822370 0.381206 0.500000
O O2 0.836744 0.294067 0.272983
O O3 0.849513 0.406978 0.169182
O O4 0.763609 0.379435 0.247073
O O5 0.500000 0.500000 0.264180
O O6 0.416811 0.561999 0.267925
O O7 0.444237 0.500000 0.000000
O O8 0.621274 0.680161 0.707204
O O9 0.672593 0.584239 0.788191
O O10 0.608997 0.625340 0.000000
O O11 0.600048 0.771569 0.500000
O O12 0.577990 0.777776 0.166350
O O13 0.074655 0.617358 0.000000
O O14 0.000000 0.692505 0.000000
O O15 0.889574 0.500000 0.000000
O O16 0.216638 0.073519 0.500000
O O17 0.238837 0.000000 0.247445
#
# Coordination Sequence:
#
# PCOD9489580 Si02
#       7
#    16   8  16  16   8   8  16
#     4   9  20  37  57  85 119 158 197 236 283 341
#     4   9  20  38  57  79 111 152 195 243 300 350
#     4  11  21  36  57  85 114 148 192 246 296 348
#     4  10  21  40  62  84 116 153 194 241 293 349
#     4  10  22  41  61  86 119 149 190 240 292 348
#     4  10  20  35  59  89 118 156 193 235 282 339
#     4  10  20  34  54  80 116 156 194 237 287 347
#
# _framework density 18.819019000000001
#
# number of rings (size 3 to 8) (size 9 to 14) (size 15 to 20)
#    0.000    2.091    1.818    1.091    1.273    3.091 
#    0.000    3.636    0.000    3.818    0.000    5.091 
#    0.000    0.000    0.000    0.000    0.000    0.000 
#
# Total GULP energy -245544.452190 kJ/mol
# GULP energy per Si atom -5580.555732 kJ/mol
# Density = 1.877619 g / cm^3
# Si number density = 18.819019 Si / 1000 Ang^3
#
#
#
# Elastic Constant Matrix: (Units=GPa)
#
#
# Indices 1 2 3 4 5 6 
#
# 1 142.5242 63.6391 31.0332 0.0000 0.0000 0.0000
# 2 63.6391 139.4681 29.2519 0.0000 0.0000 0.0000
# 3 31.0332 29.2519 61.1406 0.0000 0.0000 0.0000
# 4 0.0000 0.0000 0.0000 10.7318 0.0000 0.0000
# 5 0.0000 0.0000 0.0000 0.0000 104.6193 0.0000
# 6 0.0000 0.0000 0.0000 0.0000 0.0000 11.1226
#
#
#
# Elastic Compliance Matrix: (Units=1/GPa)
#
#
# Indices 1 2 3 4 5 6 
#
# 1 0.009276 -0.003607 -0.002983 0.000000 0.000000 0.000000
# 2 -0.003607 0.009373 -0.002653 0.000000 0.000000 0.000000
# 3 -0.002983 -0.002653 0.019139 0.000000 0.000000 0.000000
# 4 0.000000 0.000000 0.000000 0.093181 0.000000 0.000000
# 5 0.000000 0.000000 0.000000 0.000000 0.009558 0.000000
# 6 0.000000 0.000000 0.000000 0.000000 0.000000 0.089907
#
#
# Mechanical properties :
#
#
# Convention : Reuss Voigt Hill
#
# Bulk Modulus (GPa) = 51.80854 65.66460 58.73657
# Shear Modulus (GPa) = 19.58060 39.90865 29.74462
#
# Velocity S-wave (km/s) = 3.22913 4.61005 3.97994
# Velocity P-wave (km/s) = 6.44148 7.95646 7.23871
#
# Compressibility (1/GPa) = 0.01930184
#
# Stress axis : x y z
#
# Youngs Moduli (GPa) = 107.79932 106.69416 52.24919
#
# Poissons Ratio (x) = 0.38488 0.15584
# Poissons Ratio (y) = 0.38886 0.13863
# Poissons Ratio (z) = 0.32153 0.28308
#
# Static dielectric constant tensor:
#      x y z
#    x 1.616970 0.000000 0.000000 
#    y 0.000000 1.646960 0.000000 
#    z 0.000000 0.000000 1.680640 
# 
# From -- ./inp_files/14037.got.cif
#   From: 2010.05.17/outbox.cif.g08.bks.cpg/sg65_8_cif.got.tgz:14037.got - 2010.06.03 17:01:31.
