data_PCOD9489952
_publ_section_title
;
Structure prediction by ZEFSAII (Michael W. Deem and Ramdas Pophale) SiO2 
 PCOD9489952
Probable space group: C M M M
;
_chemical_formula_sum "Si O2"
_cell_formula_units_Z 64
_cell_length_a 14.797003
_cell_length_b 9.188780
_cell_length_c 21.622246
_cell_angle_alpha 90.000000
_cell_angle_beta 90.000000
_cell_angle_gamma 90.000000
_cell_volume 2939.899062
_symmetry_space_group_name_H-M "C M M M"
_symmetry_group_IT_number 65
_symmetry_cell_setting 'orthorhombic'
loop_
_space_group_symop_operation_xyz
x,y,z
-x,-y,z
x,-y,-z
-x,y,-z
-x,-y,-z
x,y,-z
-x,y,z
x,-y,z
1/2+x,1/2+y,z
1/2-x,1/2-y,z
1/2+x,1/2-y,-z
1/2-x,1/2+y,-z
1/2-x,1/2-y,-z
1/2+x,1/2+y,-z
1/2-x,1/2+y,z
1/2+x,1/2-y,z
loop_
_atom_site_type_symbol
_atom_site_label
_atom_site_fract_x
_atom_site_fract_y
_atom_site_fract_z
Si Si1 0.106066 0.162025 0.877150
Si Si2 0.889292 0.831248 0.634450
Si Si3 0.889110 0.666143 0.757691
Si Si4 0.653520 0.826174 0.000000
Si Si5 0.105342 0.822815 0.500000
O O1 0.142882 0.238941 0.815894
O O2 0.111693 0.263764 0.937047
O O3 0.000000 0.144052 0.865171
O O4 0.145096 0.000000 0.888651
O O5 0.861257 0.735663 0.692591
O O6 0.857691 0.777153 0.566816
O O7 0.000000 0.830369 0.632879
O O8 0.862815 0.000000 0.642966
O O9 0.859295 0.500000 0.763629
O O10 0.000000 0.665790 0.758257
O O11 0.750000 0.750000 0.000000
O O12 0.654529 0.000000 0.000000
O O13 0.000000 0.778871 0.500000
O O14 0.107280 0.000000 0.500000
#
# Coordination Sequence:
#
# PCOD9489952 Si02
#       5
#    16  16  16   8   8
#     4  10  20  35  55  77 100 128 164 203 242 287
#     4   8  12  19  31  47  70 104 146 189 231 276
#     4   9  16  25  38  59  86 115 150 193 238 281
#     4  12  25  40  57  77 103 131 159 194 239 290
#     4   7  10  16  27  43  65  99 144 187 226 273
#
# _framework density 21.769456000000002
#
# number of rings (size 3 to 8) (size 9 to 14) (size 15 to 20)
#    0.000    2.875    0.000    4.500    0.000    6.000 
#    0.000    0.625    0.000    3.750    0.000    0.000 
#    0.000    0.000    0.000    1.125    0.000   15.500 
#
# Total GULP energy -178536.962745 kJ/mol
# GULP energy per Si atom -5579.280086 kJ/mol
# Density = 2.171991 g / cm^3
# Si number density = 21.769456 Si / 1000 Ang^3
#
#
#
# Elastic Constant Matrix: (Units=GPa)
#
#
# Indices 1 2 3 4 5 6 
#
# 1 44.0725 8.8983 3.9711 0.0000 0.0000 0.0000
# 2 8.8983 174.3521 114.9506 0.0000 0.0000 0.0000
# 3 3.9711 114.9506 224.9923 0.0000 0.0000 0.0000
# 4 0.0000 0.0000 0.0000 376.9798 0.0000 0.0000
# 5 0.0000 0.0000 0.0000 0.0000 -79.1055 0.0000
# 6 0.0000 0.0000 0.0000 0.0000 0.0000 6.1038
#
#
#
# Elastic Compliance Matrix: (Units=1/GPa)
#
#
# Indices 1 2 3 4 5 6 
#
# 1 0.022939 -0.001363 0.000291 0.000000 0.000000 0.000000
# 2 -0.001363 0.008730 -0.004436 0.000000 0.000000 0.000000
# 3 0.000291 -0.004436 0.006706 0.000000 0.000000 0.000000
# 4 0.000000 0.000000 0.000000 0.002653 0.000000 0.000000
# 5 0.000000 0.000000 0.000000 0.000000 -0.012641 0.000000
# 6 0.000000 0.000000 0.000000 0.000000 0.000000 0.163832
#
#
# Mechanical properties :
#
#
# Convention : Reuss Voigt Hill
#
# Bulk Modulus (GPa) = 36.55043 77.67299 57.11171
# Shear Modulus (GPa) = 23.54578 81.83542 52.69060
#
# Velocity S-wave (km/s) = 3.29233 6.13787 4.92508
# Velocity P-wave (km/s) = 5.59275 9.27300 7.65726
#
# Compressibility (1/GPa) = 0.02735946
#
# Stress axis : x y z
#
# Youngs Moduli (GPa) = 43.59429 114.55038 149.12279
#
# Poissons Ratio (x) = 0.15611 -0.04346
# Poissons Ratio (y) = 0.05941 0.66152
# Poissons Ratio (z) = -0.01270 0.50815
#
# Static dielectric constant tensor:
#      x y z
#    x 2.086180 0.000000 0.000000 
#    y 0.000000 1.760660 0.000000 
#    z 0.000000 0.000000 1.857790 
# 
# From -- ./inp_files/63246.got.cif
#   From: 2010.05.17/outbox.cif.g08.bks.cpg/sg65_32_cif.got.tgz:63246.got - 2010.06.03 17:01:31.
