data_PCOD9489950
_publ_section_title
;
Structure prediction by ZEFSAII (Michael W. Deem and Ramdas Pophale) SiO2 
 PCOD9489950
Probable space group: C M M M
;
_chemical_formula_sum "Si O2"
_cell_formula_units_Z 72
_cell_length_a 14.998797
_cell_length_b 8.817294
_cell_length_c 24.928959
_cell_angle_alpha 90.000000
_cell_angle_beta 90.000000
_cell_angle_gamma 90.000000
_cell_volume 3296.824983
_symmetry_space_group_name_H-M "C M M M"
_symmetry_group_IT_number 65
_symmetry_cell_setting 'orthorhombic'
loop_
_space_group_symop_operation_xyz
x,y,z
-x,-y,z
x,-y,-z
-x,y,-z
-x,-y,-z
x,y,-z
-x,y,z
x,-y,z
1/2+x,1/2+y,z
1/2-x,1/2-y,z
1/2+x,1/2-y,-z
1/2-x,1/2+y,-z
1/2-x,1/2-y,-z
1/2+x,1/2+y,-z
1/2-x,1/2+y,z
1/2+x,1/2-y,z
loop_
_atom_site_type_symbol
_atom_site_label
_atom_site_fract_x
_atom_site_fract_y
_atom_site_fract_z
Si Si1 0.850854 0.817361 0.674071
Si Si2 0.651236 0.820000 0.781715
Si Si3 0.105165 0.168262 0.108328
Si Si4 0.390364 0.173938 0.000000
Si Si5 0.149802 0.816810 0.442275
O O1 0.750000 0.750000 0.672293
O O2 0.892705 0.749580 0.728056
O O3 0.890860 0.775916 0.615677
O O4 0.847822 0.000000 0.678755
O O5 0.750000 0.750000 0.782384
O O6 0.613309 0.768524 0.838605
O O7 0.652965 0.000000 0.777129
O O8 0.140635 0.243839 0.054168
O O9 0.000000 0.151918 0.098977
O O10 0.143968 0.000000 0.117654
O O11 0.500000 0.173971 0.000000
O O12 0.361893 0.000000 0.000000
O O13 0.108896 0.771866 0.500000
O O14 0.250000 0.750000 0.442513
O O15 0.154971 0.000000 0.442042
#
# Coordination Sequence:
#
# PCOD9489950 Si02
#       5
#    16  16  16   8  16
#     4   9  15  24  38  56  82 116 153 190 231 279
#     4  11  21  33  49  69  97 130 164 199 238 284
#     4  10  20  35  55  77 100 126 158 195 235 279
#     4   9  17  31  52  77 102 127 156 189 229 277
#     4   8  13  20  31  49  74 106 144 185 227 271
#
# _framework density 21.839195
#
# number of rings (size 3 to 8) (size 9 to 14) (size 15 to 20)
#    0.000    2.556    0.000    5.000    0.000    3.556 
#    0.000    0.556    0.000    0.000    0.000    0.000 
#    0.000    0.889    0.000   10.222    0.000    6.667 
#
# Total GULP energy -200687.732498 kJ/mol
# GULP energy per Si atom -5574.659236 kJ/mol
# Density = 2.178949 g / cm^3
# Si number density = 21.839195 Si / 1000 Ang^3
#
#
#
# Elastic Constant Matrix: (Units=GPa)
#
#
# Indices 1 2 3 4 5 6 
#
# 1 42.7056 6.9771 13.2592 0.0000 0.0000 0.0000
# 2 6.9771 137.1867 87.4410 0.0000 0.0000 0.0000
# 3 13.2592 87.4410 261.3783 0.0000 0.0000 0.0000
# 4 0.0000 0.0000 0.0000 -6.9116 0.0000 0.0000
# 5 0.0000 0.0000 0.0000 0.0000 195.4767 0.0000
# 6 0.0000 0.0000 0.0000 0.0000 0.0000 5.8315
#
#
#
# Elastic Compliance Matrix: (Units=1/GPa)
#
#
# Indices 1 2 3 4 5 6 
#
# 1 0.023825 -0.000561 -0.001021 0.000000 0.000000 0.000000
# 2 -0.000561 0.009278 -0.003075 0.000000 0.000000 0.000000
# 3 -0.001021 -0.003075 0.004907 0.000000 0.000000 0.000000
# 4 0.000000 0.000000 0.000000 -0.144683 0.000000 0.000000
# 5 0.000000 0.000000 0.000000 0.000000 0.005116 0.000000
# 6 0.000000 0.000000 0.000000 0.000000 0.000000 0.171482
#
#
# Mechanical properties :
#
#
# Convention : Reuss Voigt Hill
#
# Bulk Modulus (GPa) = 34.84958 72.95835 53.90396
# Shear Modulus (GPa) = 56.30450 61.11888 58.71169
#
# Velocity S-wave (km/s) = 5.08305 5.29591 5.19057
# Velocity P-wave (km/s) = 7.10224 8.41873 7.78835
#
# Compressibility (1/GPa) = 0.02869475
#
# Stress axis : x y z
#
# Youngs Moduli (GPa) = 41.97314 107.78072 203.81104
#
# Poissons Ratio (x) = 0.06046 0.20808
# Poissons Ratio (y) = 0.02355 0.62680
# Poissons Ratio (z) = 0.04285 0.33147
#
# Static dielectric constant tensor:
#      x y z
#    x 1.822310 0.000000 0.000000 
#    y 0.000000 1.753210 0.000000 
#    z 0.000000 0.000000 1.882310 
# 
# From -- ./inp_files/59542.got.cif
#   From: 2010.05.17/outbox.cif.g08.bks.cpg/sg65_30_cif.got.tgz:59542.got - 2010.06.03 17:01:31.
