data_PCOD9489910
_publ_section_title
;
Structure prediction by ZEFSAII (Michael W. Deem and Ramdas Pophale) SiO2 
 PCOD9489910
Probable space group: C M M M
;
_chemical_formula_sum "Si O2"
_cell_formula_units_Z 104
_cell_length_a 20.006113
_cell_length_b 8.285473
_cell_length_c 35.656531
_cell_angle_alpha 90.000000
_cell_angle_beta 90.000000
_cell_angle_gamma 90.000000
_cell_volume 5910.430469
_symmetry_space_group_name_H-M "C M M M"
_symmetry_group_IT_number 65
_symmetry_cell_setting 'orthorhombic'
loop_
_space_group_symop_operation_xyz
x,y,z
-x,-y,z
x,-y,-z
-x,y,-z
-x,-y,-z
x,y,-z
-x,y,z
x,-y,z
1/2+x,1/2+y,z
1/2-x,1/2-y,z
1/2+x,1/2-y,-z
1/2-x,1/2+y,-z
1/2-x,1/2-y,-z
1/2+x,1/2+y,-z
1/2-x,1/2+y,z
1/2+x,1/2-y,z
loop_
_atom_site_type_symbol
_atom_site_label
_atom_site_fract_x
_atom_site_fract_y
_atom_site_fract_z
Si Si1 0.824801 0.806852 0.752925
Si Si2 0.919021 0.500000 0.957164
Si Si3 0.674953 0.807077 0.457603
Si Si4 0.423623 0.307368 0.393092
Si Si5 0.080295 0.190707 0.906612
Si Si6 0.824485 0.806762 0.162400
Si Si7 0.923656 0.307367 0.688596
O O1 0.750000 0.750000 0.743495
O O2 0.839435 0.746300 0.795395
O O3 0.877130 0.748336 0.722312
O O4 0.825873 0.000000 0.753358
O O5 0.900741 0.667874 0.936120
O O6 0.000000 0.500000 0.958021
O O7 0.894614 0.500000 0.000000
O O8 0.658838 0.748977 0.500000
O O9 0.750000 0.750000 0.448803
O O10 0.623174 0.748577 0.426674
O O11 0.674424 0.000000 0.457982
O O12 0.500000 0.246283 0.397759
O O13 0.425264 0.500000 0.392929
O O14 0.399446 0.250309 0.352219
O O15 0.120291 0.232518 0.868631
O O16 0.000000 0.199017 0.901153
O O17 0.094971 0.000000 0.916515
O O18 0.750000 0.750000 0.151820
O O19 0.822487 0.000000 0.164444
O O20 0.925209 0.500000 0.688271
O O21 0.000000 0.246349 0.693256
#
# Coordination Sequence:
#
# PCOD9489910 Si02
#       7
#    16   8  16  16  16  16  16
#     4  10  20  35  54  77 107 138 177 221 262 315
#     4   9  18  32  52  80 108 138 177 221 273 323
#     4  10  21  37  57  81 109 139 172 214 262 311
#     4  10  21  37  57  80 106 138 176 215 259 314
#     4   9  18  33  52  78 108 138 178 223 268 321
#     4   9  19  33  52  77 103 139 176 214 265 317
#     4  10  21  37  55  77 106 139 176 218 265 314
#
# _framework density 17.59601
#
# number of rings (size 3 to 8) (size 9 to 14) (size 15 to 20)
#    0.000    2.385    0.000    1.846    1.077    5.231 
#    0.000    7.692    0.000    0.462    0.000    0.000 
#    0.000    0.000    0.000    0.000    0.000    0.000 
#
# Total GULP energy -289917.086950 kJ/mol
# GULP energy per Si atom -5575.328595 kJ/mol
# Density = 1.755596 g / cm^3
# Si number density = 17.596010 Si / 1000 Ang^3
#
#
#
# Elastic Constant Matrix: (Units=GPa)
#
#
# Indices 1 2 3 4 5 6 
#
# 1 69.0169 34.1511 86.8639 0.0000 0.0000 0.0000
# 2 34.1511 65.1182 54.8873 0.0000 0.0000 0.0000
# 3 86.8639 54.8873 148.9020 0.0000 0.0000 0.0000
# 4 0.0000 0.0000 0.0000 29.6416 0.0000 0.0000
# 5 0.0000 0.0000 0.0000 0.0000 71.1889 0.0000
# 6 0.0000 0.0000 0.0000 0.0000 0.0000 23.8039
#
#
#
# Elastic Compliance Matrix: (Units=1/GPa)
#
#
# Indices 1 2 3 4 5 6 
#
# 1 0.054817 -0.002604 -0.031019 0.000000 0.000000 0.000000
# 2 -0.002604 0.022402 -0.006739 0.000000 0.000000 0.000000
# 3 -0.031019 -0.006739 0.027295 0.000000 0.000000 0.000000
# 4 0.000000 0.000000 0.000000 0.033736 0.000000 0.000000
# 5 0.000000 0.000000 0.000000 0.000000 0.014047 0.000000
# 6 0.000000 0.000000 0.000000 0.000000 0.000000 0.042010
#
#
# Mechanical properties :
#
#
# Convention : Reuss Voigt Hill
#
# Bulk Modulus (GPa) = 42.03059 70.53797 56.28428
# Shear Modulus (GPa) = 17.67029 32.06922 24.86975
#
# Velocity S-wave (km/s) = 3.17238 4.27374 3.76357
# Velocity P-wave (km/s) = 6.11203 8.03291 7.13739
#
# Compressibility (1/GPa) = 0.02379219
#
# Stress axis : x y z
#
# Youngs Moduli (GPa) = 18.24244 44.63825 36.63674
#
# Poissons Ratio (x) = 0.11622 1.13642
# Poissons Ratio (y) = 0.04750 0.24689
# Poissons Ratio (z) = 0.56586 0.30081
#
# Static dielectric constant tensor:
#      x y z
#    x 1.579480 0.000000 0.000000 
#    y 0.000000 1.607460 0.000000 
#    z 0.000000 0.000000 1.598760 
# 
# From -- ./inp_files/78264.got.cif
#   From: 2010.05.17/outbox.cif.g08.bks.cpg/sg65_40_cif.got.tgz:78264.got - 2010.06.03 17:01:31.
