data_PCOD9489026
_publ_section_title
;
Structure prediction by ZEFSAII (Michael W. Deem and Ramdas Pophale) SiO2 
 PCOD9489026
Probable space group: C M M M
;
_chemical_formula_sum "Si O2"
_cell_formula_units_Z 104
_cell_length_a 7.713077
_cell_length_b 29.360981
_cell_length_c 25.815876
_cell_angle_alpha 90.000000
_cell_angle_beta 90.000000
_cell_angle_gamma 90.000000
_cell_volume 5846.353822
_symmetry_space_group_name_H-M "C M M M"
_symmetry_group_IT_number 65
_symmetry_cell_setting 'orthorhombic'
loop_
_space_group_symop_operation_xyz
x,y,z
-x,-y,z
x,-y,-z
-x,y,-z
-x,-y,-z
x,y,-z
-x,y,z
x,-y,z
1/2+x,1/2+y,z
1/2-x,1/2-y,z
1/2+x,1/2-y,-z
1/2-x,1/2+y,-z
1/2-x,1/2-y,-z
1/2+x,1/2+y,-z
1/2-x,1/2+y,z
1/2+x,1/2-y,z
loop_
_atom_site_type_symbol
_atom_site_label
_atom_site_fract_x
_atom_site_fract_y
_atom_site_fract_z
Si Si1 0.194661 0.550922 0.437500
Si Si2 0.000000 0.051048 0.706086
Si Si3 0.000000 0.152237 0.333729
Si Si4 0.204841 0.801997 0.942479
Si Si5 0.794539 0.550908 0.207688
Si Si6 0.206119 0.643633 0.159070
Si Si7 0.291398 0.803574 0.737107
Si Si8 0.000000 0.121386 0.438623
O O1 0.186160 0.548336 0.500000
O O2 0.245115 0.500000 0.419529
O O3 0.332490 0.589863 0.427733
O O4 0.000000 0.560598 0.418185
O O5 0.000000 0.097470 0.674042
O O6 0.829137 0.053433 0.742488
O O7 0.000000 0.000000 0.682150
O O8 0.170193 0.172684 0.305854
O O9 0.000000 0.160463 0.395449
O O10 0.250000 0.750000 0.928296
O O11 0.251024 0.835690 0.896344
O O12 0.000000 0.803955 0.947056
O O13 0.280648 0.811339 0.000000
O O14 0.773711 0.500000 0.185549
O O15 0.738938 0.591800 0.170057
O O16 0.000000 0.556437 0.220672
O O17 0.264078 0.674615 0.207570
O O18 0.000000 0.643793 0.162109
O O19 0.500000 0.810374 0.729829
O O20 0.250000 0.750000 0.737555
O O21 0.000000 0.133609 0.500000
#
# Coordination Sequence:
#
# PCOD9489026 Si02
#       8
#    16   8   8  16  16  16  16   8
#     4   8  14  27  49  76 107 145 187 231 276 322
#     4  10  20  34  54  81 114 155 188 221 275 337
#     4  12  24  38  60  85 118 154 179 242 290 337
#     4  10  21  34  50  75 110 149 185 226 275 331
#     4   9  18  33  52  77 110 145 186 230 275 327
#     4  10  20  33  56  83 108 144 184 226 276 336
#     4  11  23  39  60  89 115 142 184 234 297 350
#     4  10  21  35  53  78 110 148 194 231 279 343
#
# _framework density 17.788865999999999
#
# number of rings (size 3 to 8) (size 9 to 14) (size 15 to 20)
#    0.000    2.154    2.308    1.615    2.154    4.308 
#    0.000    0.000    0.000    2.769    0.000    3.231 
#    0.000    0.000    0.000    0.000    0.000    0.000 
#
# Total GULP energy -289773.310884 kJ/mol
# GULP energy per Si atom -5572.563671 kJ/mol
# Density = 1.774838 g / cm^3
# Si number density = 17.788866 Si / 1000 Ang^3
#
#
#
# Elastic Constant Matrix: (Units=GPa)
#
#
# Indices 1 2 3 4 5 6 
#
# 1 67.9097 29.0394 37.9573 0.0000 0.0000 0.0000
# 2 29.0394 113.7136 65.0134 0.0000 0.0000 0.0000
# 3 37.9573 65.0134 101.8482 0.0000 0.0000 0.0000
# 4 0.0000 0.0000 0.0000 10.0892 0.0000 0.0000
# 5 0.0000 0.0000 0.0000 0.0000 12.4961 0.0000
# 6 0.0000 0.0000 0.0000 0.0000 0.0000 22.5636
#
#
#
# Elastic Compliance Matrix: (Units=1/GPa)
#
#
# Indices 1 2 3 4 5 6 
#
# 1 0.018711 -0.001246 -0.006178 0.000000 0.000000 0.000000
# 2 -0.001246 0.013931 -0.008428 0.000000 0.000000 0.000000
# 3 -0.006178 -0.008428 0.017501 0.000000 0.000000 0.000000
# 4 0.000000 0.000000 0.000000 0.099115 0.000000 0.000000
# 5 0.000000 0.000000 0.000000 0.000000 0.080025 0.000000
# 6 0.000000 0.000000 0.000000 0.000000 0.000000 0.044319
#
#
# Mechanical properties :
#
#
# Convention : Reuss Voigt Hill
#
# Bulk Modulus (GPa) = 54.23409 60.83242 57.53325
# Shear Modulus (GPa) = 16.05374 19.12721 17.59048
#
# Velocity S-wave (km/s) = 3.00736 3.28263 3.14801
# Velocity P-wave (km/s) = 6.52785 6.97415 6.75468
#
# Compressibility (1/GPa) = 0.01843859
#
# Stress axis : x y z
#
# Youngs Moduli (GPa) = 53.44321 71.78288 57.13983
#
# Poissons Ratio (x) = 0.08946 0.35301
# Poissons Ratio (y) = 0.06661 0.48158
# Poissons Ratio (z) = 0.33017 0.60499
#
# Static dielectric constant tensor:
#      x y z
#    x 1.633770 0.000000 0.000000 
#    y 0.000000 1.600990 0.000000 
#    z 0.000000 0.000000 1.656180 
# 
# From -- ./inp_files/68332.got.cif
#   From: 2010.05.17/outbox.cif.g08.bks.cpg/sg65_35_cif.got.tgz:68332.got - 2010.06.03 17:01:31.
