data_PCOD9489350
_publ_section_title
;
Structure prediction by ZEFSAII (Michael W. Deem and Ramdas Pophale) SiO2 
 PCOD9489350
Probable space group: C M M M
;
_chemical_formula_sum "Si O2"
_cell_formula_units_Z 104
_cell_length_a 23.764994
_cell_length_b 27.202298
_cell_length_c 7.566971
_cell_angle_alpha 90.000000
_cell_angle_beta 90.000000
_cell_angle_gamma 90.000000
_cell_volume 4891.762602
_symmetry_space_group_name_H-M "C M M M"
_symmetry_group_IT_number 65
_symmetry_cell_setting 'orthorhombic'
loop_
_space_group_symop_operation_xyz
x,y,z
-x,-y,z
x,-y,-z
-x,y,-z
-x,-y,-z
x,y,-z
-x,y,z
x,-y,z
1/2+x,1/2+y,z
1/2-x,1/2-y,z
1/2+x,1/2-y,-z
1/2-x,1/2+y,-z
1/2-x,1/2-y,-z
1/2+x,1/2+y,-z
1/2-x,1/2+y,z
1/2+x,1/2-y,z
loop_
_atom_site_type_symbol
_atom_site_label
_atom_site_fract_x
_atom_site_fract_y
_atom_site_fract_z
Si Si1 0.934063 0.554291 0.287820
Si Si2 0.436853 0.211407 0.211482
Si Si3 0.064671 0.000000 0.213053
Si Si4 0.143252 0.909665 0.295015
Si Si5 0.149714 0.364930 0.198156
Si Si6 0.937319 0.173345 0.712988
Si Si7 0.765652 0.555601 0.794449
O O1 0.927389 0.559818 0.500000
O O2 0.913101 0.500000 0.239431
O O3 0.900922 0.596148 0.191354
O O4 0.000000 0.556581 0.249742
O O5 0.500000 0.197129 0.278216
O O6 0.382863 0.181464 0.282263
O O7 0.430368 0.269395 0.243511
O O8 0.437505 0.203059 0.000000
O O9 0.097044 0.952309 0.280805
O O10 0.000000 0.000000 0.268143
O O11 0.067374 0.000000 0.000000
O O12 0.157210 0.900969 0.500000
O O13 0.112855 0.861142 0.220245
O O14 0.200413 0.929340 0.210510
O O15 0.198437 0.398808 0.283566
O O16 0.168941 0.350469 0.000000
O O17 0.937692 0.168493 0.500000
O O18 0.000000 0.158178 0.776293
O O19 0.772484 0.500000 0.719565
O O20 0.783213 0.552857 0.000000
#
# Coordination Sequence:
#
# PCOD9489350 Si02
#       7
#    16  16   8  16  16  16  16
#     4   9  18  31  46  69 102 136 172 221 279 334
#     4   9  18  33  54  81 110 139 178 228 278 329
#     4  11  23  37  57  87 119 147 176 215 268 331
#     4  11  22  37  58  83 111 145 184 226 271 321
#     4  10  20  34  53  77 104 140 185 230 274 322
#     4   9  19  36  57  81 109 140 175 218 272 330
#     4  10  21  37  55  76 108 148 188 230 275 326
#
# _framework density 21.260228999999999
#
# number of rings (size 3 to 8) (size 9 to 14) (size 15 to 20)
#    0.000    2.231    0.769    2.538    0.000    5.538 
#    0.000    4.615    0.000    4.615    0.000    0.000 
#    0.000    0.000    0.000    0.000    0.000    0.000 
#
# Total GULP energy -290102.590503 kJ/mol
# GULP energy per Si atom -5578.895971 kJ/mol
# Density = 2.121184 g / cm^3
# Si number density = 21.260229 Si / 1000 Ang^3
#
#
#
# Elastic Constant Matrix: (Units=GPa)
#
#
# Indices 1 2 3 4 5 6 
#
# 1 119.5027 61.4404 -1.2322 0.0000 0.0000 0.0000
# 2 61.4404 97.0083 -7.0217 0.0000 0.0000 0.0000
# 3 -1.2322 -7.0217 49.6872 0.0000 0.0000 0.0000
# 4 0.0000 0.0000 0.0000 16.7105 0.0000 0.0000
# 5 0.0000 0.0000 0.0000 0.0000 45.5639 0.0000
# 6 0.0000 0.0000 0.0000 0.0000 0.0000 4.0374
#
#
#
# Elastic Compliance Matrix: (Units=1/GPa)
#
#
# Indices 1 2 3 4 5 6 
#
# 1 0.012441 -0.007938 -0.000813 0.000000 0.000000 0.000000
# 2 -0.007938 0.015480 0.001991 0.000000 0.000000 0.000000
# 3 -0.000813 0.001991 0.020387 0.000000 0.000000 0.000000
# 4 0.000000 0.000000 0.000000 0.059843 0.000000 0.000000
# 5 0.000000 0.000000 0.000000 0.000000 0.021947 0.000000
# 6 0.000000 0.000000 0.000000 0.000000 0.000000 0.247684
#
#
# Mechanical properties :
#
#
# Convention : Reuss Voigt Hill
#
# Bulk Modulus (GPa) = 28.74676 41.39679 35.07178
# Shear Modulus (GPa) = 12.41005 27.46314 19.93659
#
# Velocity S-wave (km/s) = 2.41865 3.59801 3.06558
# Velocity P-wave (km/s) = 4.62067 6.06421 5.39097
#
# Compressibility (1/GPa) = 0.03478653
#
# Stress axis : x y z
#
# Youngs Moduli (GPa) = 80.37914 64.59819 49.05065
#
# Poissons Ratio (x) = 0.51281 0.03989
# Poissons Ratio (y) = 0.63808 -0.09765
# Poissons Ratio (z) = 0.06537 -0.12860
#
# Static dielectric constant tensor:
#      x y z
#    x 1.772830 0.000000 0.000000 
#    y 0.000000 1.773710 0.000000 
#    z 0.000000 0.000000 1.814630 
# 
# From -- ./inp_files/14773.got.cif
#   From: 2010.05.17/outbox.cif.g08.bks.cpg/sg65_8_cif.got.tgz:14773.got - 2010.06.03 17:01:31.
