data_PCOD9489489
_publ_section_title
;
Structure prediction by ZEFSAII (Michael W. Deem and Ramdas Pophale) SiO2 
 PCOD9489489
Probable space group: C M M M
;
_chemical_formula_sum "Si O2"
_cell_formula_units_Z 72
_cell_length_a 8.912380
_cell_length_b 29.834744
_cell_length_c 14.871195
_cell_angle_alpha 90.000000
_cell_angle_beta 90.000000
_cell_angle_gamma 90.000000
_cell_volume 3954.229570
_symmetry_space_group_name_H-M "C M M M"
_symmetry_group_IT_number 65
_symmetry_cell_setting 'orthorhombic'
loop_
_space_group_symop_operation_xyz
x,y,z
-x,-y,z
x,-y,-z
-x,y,-z
-x,-y,-z
x,y,-z
-x,y,z
x,-y,z
1/2+x,1/2+y,z
1/2-x,1/2-y,z
1/2+x,1/2-y,-z
1/2-x,1/2+y,-z
1/2-x,1/2-y,-z
1/2+x,1/2+y,-z
1/2-x,1/2+y,z
1/2+x,1/2-y,z
loop_
_atom_site_type_symbol
_atom_site_label
_atom_site_fract_x
_atom_site_fract_y
_atom_site_fract_z
Si Si1 0.321074 0.116713 0.840199
Si Si2 0.817682 0.949145 0.500000
Si Si3 0.818484 0.199969 0.500000
Si Si4 0.817045 0.448499 0.000000
Si Si5 0.819069 0.124189 0.356039
Si Si6 0.832006 0.206810 0.106566
O O1 0.500000 0.113939 0.833357
O O2 0.269511 0.078187 0.910046
O O3 0.250108 0.117766 0.741599
O O4 0.270165 0.163728 0.881790
O O5 0.774272 0.919097 0.585157
O O6 0.000000 0.950805 0.500000
O O7 0.761800 0.000000 0.500000
O O8 0.750000 0.250000 0.500000
O O9 0.776356 0.169017 0.412952
O O10 0.000000 0.203574 0.500000
O O11 0.767525 0.500000 0.000000
O O12 0.000000 0.448075 0.000000
O O13 0.000000 0.125056 0.349809
O O14 0.750000 0.250000 0.147014
O O15 0.000000 0.200120 0.143926
O O16 0.847717 0.214341 0.000000
#
# Coordination Sequence:
#
# PCOD9489489 Si02
#       6
#    16   8   8   8  16  16
#     4  11  21  35  56  80 110 148 189 230 275 328
#     4   8  15  32  58  81 103 136 175 221 282 341
#     4   9  19  36  57  79 109 146 178 216 266 322
#     4   9  20  38  56  75 106 149 192 233 280 331
#     4   9  19  35  54  80 111 140 176 224 277 330
#     4  10  20  34  54  78 106 139 178 222 267 314
#
# _framework density 18.208351
#
# number of rings (size 3 to 8) (size 9 to 14) (size 15 to 20)
#    0.000    2.444    1.111    2.667    0.000    3.556 
#    0.000    3.889    0.000    5.333    0.000    0.000 
#    0.000    0.000    0.000    0.000    0.000    0.000 
#
# Total GULP energy -200602.018878 kJ/mol
# GULP energy per Si atom -5572.278302 kJ/mol
# Density = 1.816691 g / cm^3
# Si number density = 18.208351 Si / 1000 Ang^3
#
#
#
# Elastic Constant Matrix: (Units=GPa)
#
#
# Indices 1 2 3 4 5 6 
#
# 1 29.5284 30.3699 40.7364 0.0000 0.0000 0.0000
# 2 30.3699 180.4477 73.0759 0.0000 0.0000 0.0000
# 3 40.7364 73.0759 122.8778 0.0000 0.0000 0.0000
# 4 0.0000 0.0000 0.0000 -25.7707 0.0000 0.0000
# 5 0.0000 0.0000 0.0000 0.0000 23.9292 0.0000
# 6 0.0000 0.0000 0.0000 0.0000 0.0000 22.0036
#
#
#
# Elastic Compliance Matrix: (Units=1/GPa)
#
#
# Indices 1 2 3 4 5 6 
#
# 1 0.063500 -0.002848 -0.019358 0.000000 0.000000 0.000000
# 2 -0.002848 0.007428 -0.003473 0.000000 0.000000 0.000000
# 3 -0.019358 -0.003473 0.016621 0.000000 0.000000 0.000000
# 4 0.000000 0.000000 0.000000 -0.038804 0.000000 0.000000
# 5 0.000000 0.000000 0.000000 0.000000 0.041790 0.000000
# 6 0.000000 0.000000 0.000000 0.000000 0.000000 0.045447
#
#
# Mechanical properties :
#
#
# Convention : Reuss Voigt Hill
#
# Bulk Modulus (GPa) = 27.63105 69.02427 48.32766
# Shear Modulus (GPa) = 25.07476 16.61053 20.84265
#
# Velocity S-wave (km/s) = 3.71496 3.02362 3.38698
# Velocity P-wave (km/s) = 5.79734 7.08379 6.47260
#
# Compressibility (1/GPa) = 0.03619117
#
# Stress axis : x y z
#
# Youngs Moduli (GPa) = 15.74798 134.63342 60.16442
#
# Poissons Ratio (x) = 0.38343 1.16466
# Poissons Ratio (y) = 0.04485 0.20895
# Poissons Ratio (z) = 0.30485 0.46759
#
# Static dielectric constant tensor:
#      x y z
#    x 1.632570 0.000000 0.000000 
#    y 0.000000 1.625800 0.000000 
#    z 0.000000 0.000000 1.579180 
# 
# From -- ./inp_files/36692.got.cif
#   From: 2010.05.17/outbox.cif.g08.bks.cpg/sg65_19_cif.got.tgz:36692.got - 2010.06.03 17:01:31.
