data_PCOD9489491
_publ_section_title
;
Structure prediction by ZEFSAII (Michael W. Deem and Ramdas Pophale) SiO2 
 PCOD9489491
Probable space group: C M M M
;
_chemical_formula_sum "Si O2"
_cell_formula_units_Z 80
_cell_length_a 18.462814
_cell_length_b 14.350318
_cell_length_c 15.968823
_cell_angle_alpha 90.000000
_cell_angle_beta 90.000000
_cell_angle_gamma 90.000000
_cell_volume 4230.895773
_symmetry_space_group_name_H-M "C M M M"
_symmetry_group_IT_number 65
_symmetry_cell_setting 'orthorhombic'
loop_
_space_group_symop_operation_xyz
x,y,z
-x,-y,z
x,-y,-z
-x,y,-z
-x,-y,-z
x,y,-z
-x,y,z
x,-y,z
1/2+x,1/2+y,z
1/2-x,1/2-y,z
1/2+x,1/2-y,-z
1/2-x,1/2+y,-z
1/2-x,1/2-y,-z
1/2+x,1/2+y,-z
1/2-x,1/2+y,z
1/2+x,1/2-y,z
loop_
_atom_site_type_symbol
_atom_site_label
_atom_site_fract_x
_atom_site_fract_y
_atom_site_fract_z
Si Si1 0.261785 0.613084 0.590790
Si Si2 0.182825 0.605975 0.239318
Si Si3 0.579470 0.387942 0.355947
Si Si4 0.917737 0.774704 0.183230
Si Si5 0.712328 0.648966 0.091958
O O1 0.232845 0.642973 0.500000
O O2 0.260096 0.500000 0.592554
O O3 0.217084 0.641446 0.673003
O O4 0.346400 0.639669 0.598254
O O5 0.155486 0.500000 0.250309
O O6 0.123326 0.678719 0.206694
O O7 0.246759 0.602820 0.170037
O O8 0.500000 0.366148 0.394082
O O9 0.582262 0.500000 0.346105
O O10 0.581836 0.337852 0.266473
O O11 0.870328 0.830226 0.115619
O O12 0.000000 0.757485 0.156930
O O13 0.750000 0.750000 0.087955
O O14 0.720315 0.605902 0.000000
#
# Coordination Sequence:
#
# PCOD9489491 Si02
#       5
#    16  16  16  16  16
#     4   9  17  30  51  77 103 139 184 224 267 317
#     4  10  20  35  54  78 110 143 181 225 264 313
#     4   9  17  30  49  73 103 137 172 218 272 320
#     4  10  20  34  54  78 108 143 179 218 266 322
#     4   9  18  33  54  77 102 134 172 216 266 315
#
# _framework density 18.908524
#
# number of rings (size 3 to 8) (size 9 to 14) (size 15 to 20)
#    0.000    2.600    2.000    0.000    0.000    1.600 
#    0.000    4.000    0.000    1.800    0.000   12.600 
#    0.000    0.000    0.000    0.000    0.000    0.000 
#
# Total GULP energy -222880.949989 kJ/mol
# GULP energy per Si atom -5572.023750 kJ/mol
# Density = 1.886549 g / cm^3
# Si number density = 18.908524 Si / 1000 Ang^3
#
#
#
# Elastic Constant Matrix: (Units=GPa)
#
#
# Indices 1 2 3 4 5 6 
#
# 1 93.7331 -0.1494 24.1083 0.0000 0.0000 0.0000
# 2 -0.1494 38.0145 2.9002 0.0000 0.0000 0.0000
# 3 24.1083 2.9002 104.8665 0.0000 0.0000 0.0000
# 4 0.0000 0.0000 0.0000 10.1360 0.0000 0.0000
# 5 0.0000 0.0000 0.0000 0.0000 10.5715 0.0000
# 6 0.0000 0.0000 0.0000 0.0000 0.0000 18.7570
#
#
#
# Elastic Compliance Matrix: (Units=1/GPa)
#
#
# Indices 1 2 3 4 5 6 
#
# 1 0.011341 0.000244 -0.002614 0.000000 0.000000 0.000000
# 2 0.000244 0.026367 -0.000785 0.000000 0.000000 0.000000
# 3 -0.002614 -0.000785 0.010159 0.000000 0.000000 0.000000
# 4 0.000000 0.000000 0.000000 0.098658 0.000000 0.000000
# 5 0.000000 0.000000 0.000000 0.000000 0.094594 0.000000
# 6 0.000000 0.000000 0.000000 0.000000 0.000000 0.053313
#
#
# Mechanical properties :
#
#
# Convention : Reuss Voigt Hill
#
# Bulk Modulus (GPa) = 24.06399 32.25914 28.16157
# Shear Modulus (GPa) = 15.89344 21.87656 18.88500
#
# Velocity S-wave (km/s) = 2.90236 3.40511 3.16374
# Velocity P-wave (km/s) = 4.89752 5.70591 5.31710
#
# Compressibility (1/GPa) = 0.04155586
#
# Stress axis : x y z
#
# Youngs Moduli (GPa) = 88.17313 37.92674 98.43861
#
# Poissons Ratio (x) = -0.00925 0.25733
# Poissons Ratio (y) = -0.02151 0.07730
# Poissons Ratio (z) = 0.23049 0.02978
#
# Static dielectric constant tensor:
#      x y z
#    x 1.657840 0.000000 0.000000 
#    y 0.000000 1.675160 0.000000 
#    z 0.000000 0.000000 1.681640 
# 
# From -- ./inp_files/40024.got.cif
#   From: 2010.05.17/outbox.cif.g08.bks.cpg/sg65_21_cif.got.tgz:40024.got - 2010.06.03 17:01:31.
