data_PCOD9489282
_publ_section_title
;
Structure prediction by ZEFSAII (Michael W. Deem and Ramdas Pophale) SiO2 
 PCOD9489282
Probable space group: C M M M
;
_chemical_formula_sum "Si O2"
_cell_formula_units_Z 88
_cell_length_a 8.233846
_cell_length_b 32.232044
_cell_length_c 17.470886
_cell_angle_alpha 90.000000
_cell_angle_beta 90.000000
_cell_angle_gamma 90.000000
_cell_volume 4636.662843
_symmetry_space_group_name_H-M "C M M M"
_symmetry_group_IT_number 65
_symmetry_cell_setting 'orthorhombic'
loop_
_space_group_symop_operation_xyz
x,y,z
-x,-y,z
x,-y,-z
-x,y,-z
-x,-y,-z
x,y,-z
-x,y,z
x,-y,z
1/2+x,1/2+y,z
1/2-x,1/2-y,z
1/2+x,1/2-y,-z
1/2-x,1/2+y,-z
1/2-x,1/2-y,-z
1/2+x,1/2+y,-z
1/2-x,1/2+y,z
1/2+x,1/2-y,z
loop_
_atom_site_type_symbol
_atom_site_label
_atom_site_fract_x
_atom_site_fract_y
_atom_site_fract_z
Si Si1 0.193683 0.295900 0.662233
Si Si2 0.695299 0.573889 0.500000
Si Si3 0.194077 0.170248 0.500000
Si Si4 0.195497 0.545528 0.334602
Si Si5 0.305996 0.089831 0.913756
Si Si6 0.314017 0.500000 0.093015
Si Si7 0.199252 0.373996 0.760113
O O1 0.250000 0.250000 0.683212
O O2 0.247089 0.307199 0.576358
O O3 0.254938 0.332387 0.718067
O O4 0.000000 0.296745 0.664359
O O5 0.500000 0.572740 0.500000
O O6 0.749917 0.622188 0.500000
O O7 0.758379 0.552652 0.577053
O O8 0.000000 0.170131 0.500000
O O9 0.254942 0.500000 0.309015
O O10 0.254093 0.585270 0.286820
O O11 0.000000 0.545384 0.328561
O O12 0.500000 0.094064 0.918688
O O13 0.270954 0.042917 0.885670
O O14 0.246909 0.120563 0.847799
O O15 0.239067 0.095198 0.000000
O O16 0.500000 0.500000 0.118417
O O17 0.311512 0.500000 0.000000
O O18 0.000000 0.374022 0.759318
#
# Coordination Sequence:
#
# PCOD9489282 Si02
#       7
#    16   8   8  16  16   8  16
#     4  11  22  38  59  80 105 136 171 215 265 317
#     4  11  22  35  52  73 106 140 174 220 259 301
#     4  11  22  37  56  80 107 138 174 214 261 315
#     4  10  20  34  53  74 100 141 185 218 250 303
#     4   9  17  31  53  78 103 136 179 221 258 301
#     4   9  17  29  45  71 107 142 173 208 257 311
#     4   9  19  34  54  79 105 135 172 217 263 305
#
# _framework density 18.979168999999999
#
# number of rings (size 3 to 8) (size 9 to 14) (size 15 to 20)
#    0.000    2.091    1.818    1.909    1.273    3.273 
#    0.000    2.727    0.000    0.545    0.000    0.000 
#    0.000    0.000    0.000    0.000    0.000    0.182 
#
# Total GULP energy -245640.614187 kJ/mol
# GULP energy per Si atom -5582.741232 kJ/mol
# Density = 1.893597 g / cm^3
# Si number density = 18.979169 Si / 1000 Ang^3
#
#
#
# Elastic Constant Matrix: (Units=GPa)
#
#
# Indices 1 2 3 4 5 6 
#
# 1 15.0597 15.2266 5.5670 0.0000 0.0000 0.0000
# 2 15.2266 165.8261 79.4237 0.0000 0.0000 0.0000
# 3 5.5670 79.4237 128.4410 0.0000 0.0000 0.0000
# 4 0.0000 0.0000 0.0000 0.8174 0.0000 0.0000
# 5 0.0000 0.0000 0.0000 0.0000 2.1470 0.0000
# 6 0.0000 0.0000 0.0000 0.0000 0.0000 19.3670
#
#
#
# Elastic Compliance Matrix: (Units=1/GPa)
#
#
# Indices 1 2 3 4 5 6 
#
# 1 0.073375 -0.007408 0.001401 0.000000 0.000000 0.000000
# 2 -0.007408 0.009316 -0.005440 0.000000 0.000000 0.000000
# 3 0.001401 -0.005440 0.011089 0.000000 0.000000 0.000000
# 4 0.000000 0.000000 0.000000 1.223376 0.000000 0.000000
# 5 0.000000 0.000000 0.000000 0.000000 0.465762 0.000000
# 6 0.000000 0.000000 0.000000 0.000000 0.000000 0.051634
#
#
# Mechanical properties :
#
#
# Convention : Reuss Voigt Hill
#
# Bulk Modulus (GPa) = 14.10733 56.64016 35.37374
# Shear Modulus (GPa) = 2.65806 18.40693 10.53249
#
# Velocity S-wave (km/s) = 1.18472 3.11762 2.35829
# Velocity P-wave (km/s) = 3.05297 6.54733 5.10823
#
# Compressibility (1/GPa) = 0.07088516
#
# Stress axis : x y z
#
# Youngs Moduli (GPa) = 13.62864 107.34192 90.18237
#
# Poissons Ratio (x) = 0.79524 -0.12633
# Poissons Ratio (y) = 0.10097 0.49056
# Poissons Ratio (z) = -0.01909 0.58390
#
# Static dielectric constant tensor:
#      x y z
#    x 1.656060 0.000000 0.000000 
#    y 0.000000 1.668040 0.000000 
#    z 0.000000 0.000000 1.676890 
# 
# From -- ./inp_files/50482.got.cif
#   From: 2010.05.17/outbox.cif.g08.bks.cpg/sg65_26_cif.got.tgz:50482.got - 2010.06.03 17:01:31.
