data_PCOD9489432
_publ_section_title
;
Structure prediction by ZEFSAII (Michael W. Deem and Ramdas Pophale) SiO2 
 PCOD9489432
Probable space group: C M M M
;
_chemical_formula_sum "Si O2"
_cell_formula_units_Z 104
_cell_length_a 28.301398
_cell_length_b 23.549665
_cell_length_c 8.547791
_cell_angle_alpha 90.000000
_cell_angle_beta 90.000000
_cell_angle_gamma 90.000000
_cell_volume 5697.003906
_symmetry_space_group_name_H-M "C M M M"
_symmetry_group_IT_number 65
_symmetry_cell_setting 'orthorhombic'
loop_
_space_group_symop_operation_xyz
x,y,z
-x,-y,z
x,-y,-z
-x,y,-z
-x,-y,-z
x,y,-z
-x,y,z
x,-y,z
1/2+x,1/2+y,z
1/2-x,1/2-y,z
1/2+x,1/2-y,-z
1/2-x,1/2+y,-z
1/2-x,1/2-y,-z
1/2+x,1/2+y,-z
1/2-x,1/2+y,z
1/2+x,1/2-y,z
loop_
_atom_site_type_symbol
_atom_site_label
_atom_site_fract_x
_atom_site_fract_y
_atom_site_fract_z
Si Si1 0.000000 0.568904 0.320025
Si Si2 0.445819 0.565407 0.188678
Si Si3 0.355463 0.372461 0.313065
Si Si4 0.736405 0.436780 0.309514
Si Si5 0.399843 0.067809 0.182739
Si Si6 0.804031 0.239172 0.815024
Si Si7 0.179790 0.356342 0.316246
O O1 0.952522 0.585767 0.231271
O O2 0.000000 0.500000 0.322216
O O3 0.000000 0.588237 0.500000
O O4 0.500000 0.578561 0.237422
O O5 0.435487 0.500000 0.238939
O O6 0.406145 0.608683 0.248134
O O7 0.445008 0.565940 0.000000
O O8 0.358068 0.372186 0.500000
O O9 0.316318 0.419235 0.263822
O O10 0.332710 0.312760 0.259795
O O11 0.738557 0.437102 0.500000
O O12 0.748946 0.500000 0.254912
O O13 0.773189 0.388832 0.257540
O O14 0.362512 0.100185 0.288477
O O15 0.395868 0.000000 0.206214
O O16 0.391178 0.079555 0.000000
O O17 0.750000 0.250000 0.755812
O O18 0.828816 0.298654 0.776379
O O19 0.801359 0.228912 0.000000
O O20 0.185325 0.343459 0.500000
#
# Coordination Sequence:
#
# PCOD9489432 Si02
#       7
#     8  16  16  16  16  16  16
#     4   9  17  31  53  79 105 139 183 223 264 319
#     4   9  19  37  60  87 121 158 193 233 288 351
#     4  11  21  35  58  85 115 149 192 239 283 335
#     4   9  18  31  49  78 114 146 176 219 275 329
#     4  10  20  34  53  80 114 147 180 223 278 334
#     4  11  23  39  58  79 109 148 191 232 277 334
#     4  11  21  35  56  79 109 146 188 232 276 330
#
# _framework density 18.255209000000001
#
# number of rings (size 3 to 8) (size 9 to 14) (size 15 to 20)
#    0.000    1.923    1.538    3.462    0.000    4.308 
#    0.000    0.769    1.692    3.692    0.000    0.000 
#    0.000    0.000    0.000    0.000    0.000    0.000 
#
# Total GULP energy -290163.348468 kJ/mol
# GULP energy per Si atom -5580.064394 kJ/mol
# Density = 1.821366 g / cm^3
# Si number density = 18.255209 Si / 1000 Ang^3
#
#
#
# Elastic Constant Matrix: (Units=GPa)
#
#
# Indices 1 2 3 4 5 6 
#
# 1 114.7047 41.1795 17.9783 0.0000 0.0000 0.0000
# 2 41.1795 88.5490 15.1486 0.0000 0.0000 0.0000
# 3 17.9783 15.1486 28.6642 0.0000 0.0000 0.0000
# 4 0.0000 0.0000 0.0000 21.5945 0.0000 0.0000
# 5 0.0000 0.0000 0.0000 0.0000 25.9615 0.0000
# 6 0.0000 0.0000 0.0000 0.0000 0.0000 18.1922
#
#
#
# Elastic Compliance Matrix: (Units=1/GPa)
#
#
# Indices 1 2 3 4 5 6 
#
# 1 0.010993 -0.004324 -0.004610 0.000000 0.000000 0.000000
# 2 -0.004324 0.014116 -0.004748 0.000000 0.000000 0.000000
# 3 -0.004610 -0.004748 0.040288 0.000000 0.000000 0.000000
# 4 0.000000 0.000000 0.000000 0.046308 0.000000 0.000000
# 5 0.000000 0.000000 0.000000 0.000000 0.038519 0.000000
# 6 0.000000 0.000000 0.000000 0.000000 0.000000 0.054969
#
#
# Mechanical properties :
#
#
# Convention : Reuss Voigt Hill
#
# Bulk Modulus (GPa) = 26.29303 42.28121 34.28712
# Shear Modulus (GPa) = 20.38880 23.65708 22.02294
#
# Velocity S-wave (km/s) = 3.34559 3.60378 3.47708
# Velocity P-wave (km/s) = 5.41833 6.36614 5.91126
#
# Compressibility (1/GPa) = 0.03803289
#
# Stress axis : x y z
#
# Youngs Moduli (GPa) = 90.96928 70.84078 24.82159
#
# Poissons Ratio (x) = 0.30628 0.11442
# Poissons Ratio (y) = 0.39331 0.11786
# Poissons Ratio (z) = 0.41935 0.33638
#
# Static dielectric constant tensor:
#      x y z
#    x 1.635720 0.000000 0.000000 
#    y 0.000000 1.619730 0.000000 
#    z 0.000000 0.000000 1.630550 
# 
# From -- ./inp_files/16450.got.cif
#   From: 2010.05.17/outbox.cif.g08.bks.cpg/sg65_9_cif.got.tgz:16450.got - 2010.06.03 17:01:31.
