data_PCOD9489983
_publ_section_title
;
Structure prediction by ZEFSAII (Michael W. Deem and Ramdas Pophale) SiO2 
 PCOD9489983
Probable space group: C M M M
;
_chemical_formula_sum "Si O2"
_cell_formula_units_Z 72
_cell_length_a 9.120142
_cell_length_b 17.515828
_cell_length_c 23.829885
_cell_angle_alpha 90.000000
_cell_angle_beta 90.000000
_cell_angle_gamma 90.000000
_cell_volume 3806.748793
_symmetry_space_group_name_H-M "C M M M"
_symmetry_group_IT_number 65
_symmetry_cell_setting 'orthorhombic'
loop_
_space_group_symop_operation_xyz
x,y,z
-x,-y,z
x,-y,-z
-x,y,-z
-x,-y,-z
x,y,-z
-x,y,z
x,-y,z
1/2+x,1/2+y,z
1/2-x,1/2-y,z
1/2+x,1/2-y,-z
1/2-x,1/2+y,-z
1/2-x,1/2-y,-z
1/2+x,1/2+y,-z
1/2-x,1/2+y,z
1/2+x,1/2-y,z
loop_
_atom_site_type_symbol
_atom_site_label
_atom_site_fract_x
_atom_site_fract_y
_atom_site_fract_z
Si Si1 0.830708 0.593213 0.386194
Si Si2 0.825576 0.332103 0.832244
Si Si3 0.670359 0.591897 0.064347
Si Si4 0.331093 0.592160 0.727430
Si Si5 0.169449 0.093257 0.500000
O O1 0.829865 0.500000 0.386350
O O2 0.742178 0.617623 0.330992
O O3 0.752402 0.617877 0.443586
O O4 0.000000 0.617401 0.384075
O O5 0.750000 0.250000 0.829952
O O6 0.774943 0.371358 0.890032
O O7 0.761939 0.379510 0.780002
O O8 0.000000 0.326571 0.829082
O O9 0.500000 0.612552 0.076170
O O10 0.679654 0.500000 0.067557
O O11 0.703236 0.614151 0.000000
O O12 0.500000 0.617982 0.731608
O O13 0.331634 0.500000 0.727542
O O14 0.000000 0.117105 0.500000
O O15 0.170562 0.000000 0.500000
#
# Coordination Sequence:
#
# PCOD9489983 Si02
#       5
#    16  16  16  16   8
#     4   9  16  26  42  67  99 134 173 217 265 317
#     4  12  25  39  56  79 109 144 182 224 269 317
#     4   9  19  38  63  88 114 144 177 215 262 316
#     4  10  20  35  55  78 106 140 178 221 270 324
#     4   9  15  23  37  61  96 135 172 213 266 321
#
# _framework density 18.913777
#
# number of rings (size 3 to 8) (size 9 to 14) (size 15 to 20)
#    0.000    2.111    0.000    5.000    0.000    9.333 
#    0.000    1.111    0.000    0.000    0.000    0.778 
#    0.000    0.000    0.000    0.000    0.000    0.000 
#
# Total GULP energy -201054.164939 kJ/mol
# GULP energy per Si atom -5584.837915 kJ/mol
# Density = 1.887073 g / cm^3
# Si number density = 18.913777 Si / 1000 Ang^3
#
#
#
# Elastic Constant Matrix: (Units=GPa)
#
#
# Indices 1 2 3 4 5 6 
#
# 1 205.6083 30.4423 114.8868 0.0000 0.0000 0.0000
# 2 30.4423 12.3591 27.3694 0.0000 0.0000 0.0000
# 3 114.8868 27.3694 158.2956 0.0000 0.0000 0.0000
# 4 0.0000 0.0000 0.0000 -16.8965 0.0000 0.0000
# 5 0.0000 0.0000 0.0000 0.0000 28.9453 0.0000
# 6 0.0000 0.0000 0.0000 0.0000 0.0000 16.2386
#
#
#
# Elastic Compliance Matrix: (Units=1/GPa)
#
#
# Indices 1 2 3 4 5 6 
#
# 1 0.009298 -0.012895 -0.004518 0.000000 0.000000 0.000000
# 2 -0.012895 0.149000 -0.016403 0.000000 0.000000 0.000000
# 3 -0.004518 -0.016403 0.012433 0.000000 0.000000 0.000000
# 4 0.000000 0.000000 0.000000 -0.059184 0.000000 0.000000
# 5 0.000000 0.000000 0.000000 0.000000 0.034548 0.000000
# 6 0.000000 0.000000 0.000000 0.000000 0.000000 0.061582
#
#
# Mechanical properties :
#
#
# Convention : Reuss Voigt Hill
#
# Bulk Modulus (GPa) = 9.69964 80.18444 44.94204
# Shear Modulus (GPa) = 16.14597 19.22846 17.68721
#
# Velocity S-wave (km/s) = 2.92492 3.19193 3.06134
# Velocity P-wave (km/s) = 4.06772 7.48808 6.02568
#
# Compressibility (1/GPa) = 0.10309663
#
# Stress axis : x y z
#
# Youngs Moduli (GPa) = 107.55470 6.71141 80.43337
#
# Poissons Ratio (x) = 0.08655 0.36342
# Poissons Ratio (y) = 1.38697 1.31935
# Poissons Ratio (z) = 0.48597 0.11009
#
# Static dielectric constant tensor:
#      x y z
#    x 1.632320 0.000000 0.000000 
#    y 0.000000 1.659820 0.000000 
#    z 0.000000 0.000000 1.637030 
# 
# From -- ./inp_files/64355.got.cif
#   From: 2010.05.17/outbox.cif.g08.bks.cpg/sg65_33_cif.got.tgz:64355.got - 2010.06.03 17:01:31.
