data_PCOD9489309
_publ_section_title
;
Structure prediction by ZEFSAII (Michael W. Deem and Ramdas Pophale) SiO2 
 PCOD9489309
Probable space group: C M M M
;
_chemical_formula_sum "Si O2"
_cell_formula_units_Z 88
_cell_length_a 9.258681
_cell_length_b 20.018758
_cell_length_c 28.651938
_cell_angle_alpha 90.000000
_cell_angle_beta 90.000000
_cell_angle_gamma 90.000000
_cell_volume 5310.559186
_symmetry_space_group_name_H-M "C M M M"
_symmetry_group_IT_number 65
_symmetry_cell_setting 'orthorhombic'
loop_
_space_group_symop_operation_xyz
x,y,z
-x,-y,z
x,-y,-z
-x,y,-z
-x,-y,-z
x,y,-z
-x,y,z
x,-y,z
1/2+x,1/2+y,z
1/2-x,1/2-y,z
1/2+x,1/2-y,-z
1/2-x,1/2+y,-z
1/2-x,1/2-y,-z
1/2+x,1/2+y,-z
1/2-x,1/2+y,z
1/2+x,1/2-y,z
loop_
_atom_site_type_symbol
_atom_site_label
_atom_site_fract_x
_atom_site_fract_y
_atom_site_fract_z
Si Si1 0.166762 0.418462 0.500000
Si Si2 0.827397 0.320674 0.123105
Si Si3 0.166329 0.081326 0.406891
Si Si4 0.328757 0.578835 0.945467
Si Si5 0.826856 0.421717 0.312162
Si Si6 0.172634 0.319904 0.768936
O O1 0.167977 0.500000 0.500000
O O2 0.248909 0.396682 0.453169
O O3 0.000000 0.397615 0.500000
O O4 0.750000 0.250000 0.113739
O O5 0.764322 0.375785 0.088536
O O6 0.795316 0.338431 0.177286
O O7 0.000000 0.314186 0.118023
O O8 0.246358 0.100560 0.359212
O O9 0.000000 0.103042 0.407581
O O10 0.167063 0.000000 0.407702
O O11 0.500000 0.590626 0.937871
O O12 0.302017 0.500000 0.937937
O O13 0.298309 0.593320 0.000000
O O14 0.793631 0.500000 0.303874
O O15 0.785792 0.376530 0.268078
O O16 0.000000 0.416821 0.319109
O O17 0.250000 0.250000 0.758716
O O18 0.000000 0.310580 0.765713
#
# Coordination Sequence:
#
# PCOD9489309 Si02
#       6
#     8  16  16  16  16  16
#     4   9  15  23  37  57  84 121 158 189 230 283
#     4  10  20  34  53  76 101 130 166 207 248 291
#     4   9  16  25  38  60  90 120 152 193 237 278
#     4   9  19  36  55  75 102 134 165 200 245 295
#     4   9  17  30  47  67  93 124 157 193 235 283
#     4   9  19  34  51  71  96 127 161 199 241 285
#
# _framework density 16.57076
#
# number of rings (size 3 to 8) (size 9 to 14) (size 15 to 20)
#    0.000    2.818    0.000    1.909    0.000    6.545 
#    0.000    2.727    0.000    2.182    0.000    0.636 
#    0.000    0.000    0.000    0.000    0.000    0.000 
#
# Total GULP energy -245257.383614 kJ/mol
# GULP energy per Si atom -5574.031446 kJ/mol
# Density = 1.653304 g / cm^3
# Si number density = 16.570760 Si / 1000 Ang^3
#
#
#
# Elastic Constant Matrix: (Units=GPa)
#
#
# Indices 1 2 3 4 5 6 
#
# 1 83.5552 55.2456 86.9217 0.0000 0.0000 0.0000
# 2 55.2456 62.1874 85.9197 0.0000 0.0000 0.0000
# 3 86.9217 85.9197 148.8299 0.0000 0.0000 0.0000
# 4 0.0000 0.0000 0.0000 -15.3291 0.0000 0.0000
# 5 0.0000 0.0000 0.0000 0.0000 26.1651 0.0000
# 6 0.0000 0.0000 0.0000 0.0000 0.0000 23.6058
#
#
#
# Elastic Compliance Matrix: (Units=1/GPa)
#
#
# Indices 1 2 3 4 5 6 
#
# 1 0.032519 -0.013088 -0.011436 0.000000 0.000000 0.000000
# 2 -0.013088 0.084722 -0.041266 0.000000 0.000000 0.000000
# 3 -0.011436 -0.041266 0.037221 0.000000 0.000000 0.000000
# 4 0.000000 0.000000 0.000000 -0.065235 0.000000 0.000000
# 5 0.000000 0.000000 0.000000 0.000000 0.038219 0.000000
# 6 0.000000 0.000000 0.000000 0.000000 0.000000 0.042363
#
#
# Mechanical properties :
#
#
# Convention : Reuss Voigt Hill
#
# Bulk Modulus (GPa) = 43.70484 83.41629 63.56056
# Shear Modulus (GPa) = 16.18041 11.32073 13.75057
#
# Velocity S-wave (km/s) = 3.12820 2.61660 2.88377
# Velocity P-wave (km/s) = 6.28327 7.71865 7.03765
#
# Compressibility (1/GPa) = 0.02288076
#
# Stress axis : x y z
#
# Youngs Moduli (GPa) = 30.75117 11.80337 26.86649
#
# Poissons Ratio (x) = 0.15449 0.30725
# Poissons Ratio (y) = 0.40248 1.10867
# Poissons Ratio (z) = 0.35168 0.48708
#
# Static dielectric constant tensor:
#      x y z
#    x 1.551720 0.000000 0.000000 
#    y 0.000000 1.528420 0.000000 
#    z 0.000000 0.000000 1.548320 
# 
# From -- ./inp_files/70938.got.cif
#   From: 2010.05.17/outbox.cif.g08.bks.cpg/sg65_36_cif.got.tgz:70938.got - 2010.06.03 17:01:31.
