data_PCOD9489876
_publ_section_title
;
Structure prediction by ZEFSAII (Michael W. Deem and Ramdas Pophale) SiO2 
 PCOD9489876
Probable space group: C M M M
;
_chemical_formula_sum "Si O2"
_cell_formula_units_Z 104
_cell_length_a 28.620248
_cell_length_b 7.714607
_cell_length_c 21.571915
_cell_angle_alpha 90.000000
_cell_angle_beta 90.000000
_cell_angle_gamma 90.000000
_cell_volume 4762.948658
_symmetry_space_group_name_H-M "C M M M"
_symmetry_group_IT_number 65
_symmetry_cell_setting 'orthorhombic'
loop_
_space_group_symop_operation_xyz
x,y,z
-x,-y,z
x,-y,-z
-x,y,-z
-x,-y,-z
x,y,-z
-x,y,z
x,-y,z
1/2+x,1/2+y,z
1/2-x,1/2-y,z
1/2+x,1/2-y,-z
1/2-x,1/2+y,-z
1/2-x,1/2-y,-z
1/2+x,1/2+y,-z
1/2-x,1/2+y,z
1/2+x,1/2-y,z
loop_
_atom_site_type_symbol
_atom_site_label
_atom_site_fract_x
_atom_site_fract_y
_atom_site_fract_z
Si Si1 0.500000 0.288844 0.572301
Si Si2 0.095858 0.211781 0.360297
Si Si3 0.449491 0.799540 0.906552
Si Si4 0.553783 0.702756 0.767016
Si Si5 0.197076 0.203847 0.194930
Si Si6 0.149806 0.708665 0.934454
Si Si7 0.196379 0.208942 0.664333
O O1 0.500000 0.500000 0.578341
O O2 0.500000 0.245083 0.500000
O O3 0.549679 0.229654 0.601946
O O4 0.085626 0.262132 0.289020
O O5 0.149685 0.265739 0.373502
O O6 0.094818 0.000000 0.363273
O O7 0.500000 0.719069 0.919899
O O8 0.443027 0.796766 0.832161
O O9 0.403025 0.721121 0.933879
O O10 0.451438 0.000000 0.926200
O O11 0.500000 0.714089 0.745313
O O12 0.563908 0.500000 0.779118
O O13 0.250000 0.250000 0.179690
O O14 0.169435 0.252825 0.133352
O O15 0.189934 0.276389 0.264577
O O16 0.190443 0.000000 0.201897
O O17 0.148559 0.500000 0.936552
O O18 0.172731 0.766504 0.000000
O O19 0.250000 0.250000 0.644794
O O20 0.194431 0.000000 0.665265
#
# Coordination Sequence:
#
# PCOD9489876 Si02
#       7
#     8  16  16  16  16  16  16
#     4   9  16  26  44  74 109 141 172 205 242 280
#     4   9  15  26  44  69 101 134 165 202 244 290
#     4   9  18  31  46  66  93 122 155 199 243 287
#     4   9  15  25  44  68  93 120 151 191 248 307
#     4  10  20  35  54  74  95 120 153 195 246 298
#     4  10  21  35  49  66  90 123 162 200 241 292
#     4   9  18  31  49  73 101 129 161 201 249 300
#
# _framework density 21.835213
#
# number of rings (size 3 to 8) (size 9 to 14) (size 15 to 20)
#    0.000    2.692    0.769    1.385    0.000    3.385 
#    0.000    2.308    0.000    0.462    0.000    3.231 
#    0.000    4.308    0.000    0.000    0.000    0.000 
#
# Total GULP energy -289602.082034 kJ/mol
# GULP energy per Si atom -5569.270808 kJ/mol
# Density = 2.178551 g / cm^3
# Si number density = 21.835213 Si / 1000 Ang^3
#
#
#
# Elastic Constant Matrix: (Units=GPa)
#
#
# Indices 1 2 3 4 5 6 
#
# 1 181.2752 6.2899 62.6780 0.0000 0.0000 0.0000
# 2 6.2899 34.5017 0.7005 0.0000 0.0000 0.0000
# 3 62.6780 0.7005 51.2903 0.0000 0.0000 0.0000
# 4 0.0000 0.0000 0.0000 0.2480 0.0000 0.0000
# 5 0.0000 0.0000 0.0000 0.0000 4.0351 0.0000
# 6 0.0000 0.0000 0.0000 0.0000 0.0000 5.3606
#
#
#
# Elastic Compliance Matrix: (Units=1/GPa)
#
#
# Indices 1 2 3 4 5 6 
#
# 1 0.009632 -0.001517 -0.011749 0.000000 0.000000 0.000000
# 2 -0.001517 0.029231 0.001455 0.000000 0.000000 0.000000
# 3 -0.011749 0.001455 0.033835 0.000000 0.000000 0.000000
# 4 0.000000 0.000000 0.000000 4.032569 0.000000 0.000000
# 5 0.000000 0.000000 0.000000 0.000000 0.247823 0.000000
# 6 0.000000 0.000000 0.000000 0.000000 0.000000 0.186546
#
#
# Mechanical properties :
#
#
# Convention : Reuss Voigt Hill
#
# Bulk Modulus (GPa) = 20.37724 45.15602 32.76663
# Shear Modulus (GPa) = 1.09179 15.08867 8.09023
#
# Velocity S-wave (km/s) = 0.70788 2.63159 1.92696
# Velocity P-wave (km/s) = 3.16555 5.47347 4.47100
#
# Compressibility (1/GPa) = 0.04907436
#
# Stress axis : x y z
#
# Youngs Moduli (GPa) = 103.82516 34.21007 29.55530
#
# Poissons Ratio (x) = 0.05191 0.34725
# Poissons Ratio (y) = 0.15754 -0.04300
# Poissons Ratio (z) = 1.21987 -0.04978
#
# Static dielectric constant tensor:
#      x y z
#    x 1.860620 0.000000 0.000000 
#    y 0.000000 1.818680 0.000000 
#    z 0.000000 0.000000 1.794610 
# 
# From -- ./inp_files/71792.got.cif
#   From: 2010.05.17/outbox.cif.g08.bks.cpg/sg65_36_cif.got.tgz:71792.got - 2010.06.03 17:01:31.
