data_PCOD9489278
_publ_section_title
;
Structure prediction by ZEFSAII (Michael W. Deem and Ramdas Pophale) SiO2 
 PCOD9489278
Probable space group: C M M M
;
_chemical_formula_sum "Si O2"
_cell_formula_units_Z 104
_cell_length_a 30.605010
_cell_length_b 9.016202
_cell_length_c 23.119330
_cell_angle_alpha 90.000000
_cell_angle_beta 90.000000
_cell_angle_gamma 90.000000
_cell_volume 6379.569938
_symmetry_space_group_name_H-M "C M M M"
_symmetry_group_IT_number 65
_symmetry_cell_setting 'orthorhombic'
loop_
_space_group_symop_operation_xyz
x,y,z
-x,-y,z
x,-y,-z
-x,y,-z
-x,-y,-z
x,y,-z
-x,y,z
x,-y,z
1/2+x,1/2+y,z
1/2-x,1/2-y,z
1/2+x,1/2-y,-z
1/2-x,1/2+y,-z
1/2-x,1/2-y,-z
1/2+x,1/2+y,-z
1/2-x,1/2+y,z
1/2+x,1/2-y,z
loop_
_atom_site_type_symbol
_atom_site_label
_atom_site_fract_x
_atom_site_fract_y
_atom_site_fract_z
Si Si1 0.082910 0.676532 0.146368
Si Si2 0.612093 0.176275 0.726461
Si Si3 0.703707 0.173737 0.000000
Si Si4 0.204063 0.177284 0.761048
Si Si5 0.947058 0.169798 0.500000
Si Si6 0.329410 0.672660 0.887449
Si Si7 0.500000 0.178943 0.933026
Si Si8 0.449005 0.821044 0.620212
O O1 0.092773 0.500000 0.136258
O O2 0.081960 0.693605 0.215958
O O3 0.121636 0.784903 0.128830
O O4 0.041774 0.716100 0.106549
O O5 0.659004 0.256639 0.734337
O O6 0.583626 0.225016 0.671432
O O7 0.621081 0.000000 0.721409
O O8 0.750000 0.250000 0.000000
O O9 0.681132 0.228017 0.942007
O O10 0.707875 0.000000 0.000000
O O11 0.250000 0.250000 0.741677
O O12 0.198834 0.205243 0.830163
O O13 0.205134 0.000000 0.752228
O O14 0.934714 0.252844 0.558951
O O15 0.000000 0.169021 0.500000
O O16 0.931841 0.000000 0.500000
O O17 0.324111 0.500000 0.901807
O O18 0.500000 0.000000 0.937397
O O19 0.500000 0.234748 0.000000
O O20 0.500000 0.778869 0.631291
O O21 0.448096 0.000000 0.616593
#
# Coordination Sequence:
#
# PCOD9489278 Si02
#       8
#    16  16   8  16   8  16   8  16
#     4   9  18  32  50  71  97 129 166 209 250 295
#     4   9  18  31  49  75 103 133 170 210 253 297
#     4  12  24  36  52  73  94 117 148 188 241 304
#     4  10  20  34  53  73  98 129 163 204 251 301
#     4   9  17  29  45  69 102 139 176 211 251 297
#     4  10  21  36  52  71  96 124 155 197 247 301
#     4   9  18  30  47  71  97 126 168 211 249 296
#     4   9  17  29  48  73 104 140 177 213 249 290
#
# _framework density 16.302040000000002
#
# number of rings (size 3 to 8) (size 9 to 14) (size 15 to 20)
#    0.000    2.462    0.000    2.308    2.154    4.615 
#    0.000    0.385    0.000    0.462    0.000    0.538 
#    0.000    0.000    0.000    0.000    0.000    0.000 
#
# Total GULP energy -289646.230127 kJ/mol
# GULP energy per Si atom -5570.119810 kJ/mol
# Density = 1.626494 g / cm^3
# Si number density = 16.302040 Si / 1000 Ang^3
#
#
#
# Elastic Constant Matrix: (Units=GPa)
#
#
# Indices 1 2 3 4 5 6 
#
# 1 91.0729 32.9665 62.7707 0.0000 0.0000 0.0000
# 2 32.9665 48.8142 49.9713 0.0000 0.0000 0.0000
# 3 62.7707 49.9713 125.7065 0.0000 0.0000 0.0000
# 4 0.0000 0.0000 0.0000 18.0009 0.0000 0.0000
# 5 0.0000 0.0000 0.0000 0.0000 11.3601 0.0000
# 6 0.0000 0.0000 0.0000 0.0000 0.0000 20.5435
#
#
#
# Elastic Compliance Matrix: (Units=1/GPa)
#
#
# Indices 1 2 3 4 5 6 
#
# 1 0.017388 -0.004813 -0.006769 0.000000 0.000000 0.000000
# 2 -0.004813 0.035875 -0.011858 0.000000 0.000000 0.000000
# 3 -0.006769 -0.011858 0.016049 0.000000 0.000000 0.000000
# 4 0.000000 0.000000 0.000000 0.055553 0.000000 0.000000
# 5 0.000000 0.000000 0.000000 0.000000 0.088028 0.000000
# 6 0.000000 0.000000 0.000000 0.000000 0.000000 0.048677
#
#
# Mechanical properties :
#
#
# Convention : Reuss Voigt Hill
#
# Bulk Modulus (GPa) = 44.57966 61.89009 53.23488
# Shear Modulus (GPa) = 15.82638 17.97323 16.89981
#
# Velocity S-wave (km/s) = 3.11918 3.32402 3.22323
# Velocity P-wave (km/s) = 6.35436 7.26493 6.82484
#
# Compressibility (1/GPa) = 0.02243175
#
# Stress axis : x y z
#
# Youngs Moduli (GPa) = 57.51046 27.87424 62.30918
#
# Poissons Ratio (x) = 0.13417 0.42179
# Poissons Ratio (y) = 0.27682 0.73885
# Poissons Ratio (z) = 0.38930 0.33053
#
# Static dielectric constant tensor:
#      x y z
#    x 1.533370 0.000000 0.000000 
#    y 0.000000 1.545230 0.000000 
#    z 0.000000 0.000000 1.526340 
# 
# From -- ./inp_files/66473.got.cif
#   From: 2010.05.17/outbox.cif.g08.bks.cpg/sg65_34_cif.got.tgz:66473.got - 2010.06.03 17:01:31.
