data_PCOD9489070
_publ_section_title
;
Structure prediction by ZEFSAII (Michael W. Deem and Ramdas Pophale) SiO2 
 PCOD9489070
Probable space group: C M M M
;
_chemical_formula_sum "Si O2"
_cell_formula_units_Z 56
_cell_length_a 31.791838
_cell_length_b 13.280886
_cell_length_c 7.738266
_cell_angle_alpha 90.000000
_cell_angle_beta 90.000000
_cell_angle_gamma 90.000000
_cell_volume 3267.279892
_symmetry_space_group_name_H-M "C M M M"
_symmetry_group_IT_number 65
_symmetry_cell_setting 'orthorhombic'
loop_
_space_group_symop_operation_xyz
x,y,z
-x,-y,z
x,-y,-z
-x,y,-z
-x,-y,-z
x,y,-z
-x,y,z
x,-y,z
1/2+x,1/2+y,z
1/2-x,1/2-y,z
1/2+x,1/2-y,-z
1/2-x,1/2+y,-z
1/2-x,1/2-y,-z
1/2+x,1/2+y,-z
1/2-x,1/2+y,z
1/2+x,1/2-y,z
loop_
_atom_site_type_symbol
_atom_site_label
_atom_site_fract_x
_atom_site_fract_y
_atom_site_fract_z
Si Si1 0.850986 0.883713 0.296804
Si Si2 0.703187 0.293953 0.000000
Si Si3 0.409285 0.806094 0.301986
Si Si4 0.358002 0.893167 0.000000
Si Si5 0.000000 0.619087 0.208486
O O1 0.839521 0.873773 0.500000
O O2 0.889372 0.804867 0.265317
O O3 0.863100 0.000000 0.265936
O O4 0.812618 0.854777 0.169451
O O5 0.750000 0.250000 0.000000
O O6 0.674777 0.195110 0.000000
O O7 0.398845 0.829771 0.500000
O O8 0.458663 0.823037 0.274213
O O9 0.386931 0.879637 0.167332
O O10 0.336363 0.000000 0.000000
O O11 0.000000 0.500000 0.261315
O O12 0.000000 0.620484 0.000000
#
# Coordination Sequence:
#
# PCOD9489070 Si02
#       5
#    16   8  16   8   8
#     4   9  19  37  59  80 105 140 179 218 262 312
#     4  10  21  35  55  81 108 135 170 214 262 318
#     4  10  20  34  53  76 103 138 178 217 259 309
#     4  10  20  34  50  72 104 136 169 213 258 308
#     4  11  21  33  50  74 108 144 177 218 265 310
#
# _framework density 17.13964
#
# number of rings (size 3 to 8) (size 9 to 14) (size 15 to 20)
#    0.000    2.143    1.429    1.714    0.000    4.571 
#    0.000    0.714    0.000    4.286    0.000    0.000 
#    0.000    0.000    0.000    0.000    0.000    0.000 
#
# Total GULP energy -155992.571409 kJ/mol
# GULP energy per Si atom -5571.163265 kJ/mol
# Density = 1.710063 g / cm^3
# Si number density = 17.139640 Si / 1000 Ang^3
#
#
#
# Elastic Constant Matrix: (Units=GPa)
#
#
# Indices 1 2 3 4 5 6 
#
# 1 100.6547 30.9674 37.5457 0.0000 0.0000 0.0000
# 2 30.9674 108.8494 49.8207 0.0000 0.0000 0.0000
# 3 37.5457 49.8207 95.1426 0.0000 0.0000 0.0000
# 4 0.0000 0.0000 0.0000 -41.7177 0.0000 0.0000
# 5 0.0000 0.0000 0.0000 0.0000 15.9602 0.0000
# 6 0.0000 0.0000 0.0000 0.0000 0.0000 12.1044
#
#
#
# Elastic Compliance Matrix: (Units=1/GPa)
#
#
# Indices 1 2 3 4 5 6 
#
# 1 0.011863 -0.001621 -0.003833 0.000000 0.000000 0.000000
# 2 -0.001621 0.012304 -0.005804 0.000000 0.000000 0.000000
# 3 -0.003833 -0.005804 0.015062 0.000000 0.000000 0.000000
# 4 0.000000 0.000000 0.000000 -0.023971 0.000000 0.000000
# 5 0.000000 0.000000 0.000000 0.000000 0.062656 0.000000
# 6 0.000000 0.000000 0.000000 0.000000 0.000000 0.082615
#
#
# Mechanical properties :
#
#
# Convention : Reuss Voigt Hill
#
# Bulk Modulus (GPa) = 59.82479 60.14603 59.98541
# Shear Modulus (GPa) = 26.50891 9.69024 18.09958
#
# Velocity S-wave (km/s) = 3.93701 2.38033 3.25315
# Velocity P-wave (km/s) = 7.45968 6.53625 7.01318
#
# Compressibility (1/GPa) = 0.01671548
#
# Stress axis : x y z
#
# Youngs Moduli (GPa) = 84.29348 81.27177 66.39204
#
# Poissons Ratio (x) = 0.13172 0.25447
# Poissons Ratio (y) = 0.13662 0.38531
# Poissons Ratio (z) = 0.32308 0.47166
#
# Static dielectric constant tensor:
#      x y z
#    x 1.582570 0.000000 0.000000 
#    y 0.000000 1.578220 0.000000 
#    z 0.000000 0.000000 1.613640 
# 
# From -- ./inp_files/4774.got.cif
#   From: 2010.05.17/outbox.cif.g08.bks.cpg/sg65_3_cif.got.tgz:4774.got - 2010.06.03 17:01:31.
