data_PCOD9489267
_publ_section_title
;
Structure prediction by ZEFSAII (Michael W. Deem and Ramdas Pophale) SiO2 
 PCOD9489267
Probable space group: C M M M
;
_chemical_formula_sum "Si O2"
_cell_formula_units_Z 80
_cell_length_a 7.993769
_cell_length_b 27.692988
_cell_length_c 20.199610
_cell_angle_alpha 90.000000
_cell_angle_beta 90.000000
_cell_angle_gamma 90.000000
_cell_volume 4471.614915
_symmetry_space_group_name_H-M "C M M M"
_symmetry_group_IT_number 65
_symmetry_cell_setting 'orthorhombic'
loop_
_space_group_symop_operation_xyz
x,y,z
-x,-y,z
x,-y,-z
-x,y,-z
-x,-y,-z
x,y,-z
-x,y,z
x,-y,z
1/2+x,1/2+y,z
1/2-x,1/2-y,z
1/2+x,1/2-y,-z
1/2-x,1/2+y,-z
1/2-x,1/2-y,-z
1/2+x,1/2+y,-z
1/2-x,1/2+y,z
1/2+x,1/2-y,z
loop_
_atom_site_type_symbol
_atom_site_label
_atom_site_fract_x
_atom_site_fract_y
_atom_site_fract_z
Si Si1 0.194835 0.695680 0.723166
Si Si2 0.298677 0.552968 0.194877
Si Si3 0.192437 0.097318 0.338695
Si Si4 0.801475 0.694319 0.000000
Si Si5 0.800724 0.152959 0.140539
Si Si6 0.500000 0.942649 0.579015
O O1 0.250000 0.750000 0.707519
O O2 0.289676 0.653230 0.683829
O O3 0.223326 0.685645 0.801412
O O4 0.000000 0.689901 0.708485
O O5 0.500000 0.551048 0.185642
O O6 0.229834 0.500000 0.179848
O O7 0.272857 0.566957 0.271507
O O8 0.237172 0.598338 0.152464
O O9 0.334138 0.081856 0.390219
O O10 0.000000 0.088158 0.359325
O O11 0.750000 0.750000 0.000000
O O12 0.734746 0.670608 0.067159
O O13 0.000000 0.690548 0.000000
O O14 0.000000 0.153694 0.152178
O O15 0.500000 0.937510 0.500000
O O16 0.500000 0.000000 0.594913
#
# Coordination Sequence:
#
# PCOD9489267 Si02
#       6
#    16  16  16   8  16   8
#     4  11  20  34  57  88 118 149 190 242 293 345
#     4   8  15  30  55  82 108 140 181 229 278 330
#     4  10  20  37  59  88 121 156 195 241 292 343
#     4  12  24  38  53  68  97 141 182 229 287 348
#     4  10  20  34  52  78 110 141 186 232 284 342
#     4  11  24  40  60  90 124 159 199 239 284 345
#
# _framework density 17.890628
#
# number of rings (size 3 to 8) (size 9 to 14) (size 15 to 20)
#    0.000    1.900    1.000    5.700    0.000    1.600 
#    0.000    1.500    0.000    3.600    0.000    0.000 
#    0.000    0.000    0.000    0.000    0.000    0.000 
#
# Total GULP energy -223262.861865 kJ/mol
# GULP energy per Si atom -5581.571547 kJ/mol
# Density = 1.784991 g / cm^3
# Si number density = 17.890628 Si / 1000 Ang^3
#
#
#
# Elastic Constant Matrix: (Units=GPa)
#
#
# Indices 1 2 3 4 5 6 
#
# 1 84.8775 21.6002 30.8696 0.0000 0.0000 0.0000
# 2 21.6002 127.6250 47.3218 0.0000 0.0000 0.0000
# 3 30.8696 47.3218 80.3836 0.0000 0.0000 0.0000
# 4 0.0000 0.0000 0.0000 -80.8076 0.0000 0.0000
# 5 0.0000 0.0000 0.0000 0.0000 25.3818 0.0000
# 6 0.0000 0.0000 0.0000 0.0000 0.0000 15.5512
#
#
#
# Elastic Compliance Matrix: (Units=1/GPa)
#
#
# Indices 1 2 3 4 5 6 
#
# 1 0.013716 -0.000471 -0.004990 0.000000 0.000000 0.000000
# 2 -0.000471 0.010040 -0.005729 0.000000 0.000000 0.000000
# 3 -0.004990 -0.005729 0.017730 0.000000 0.000000 0.000000
# 4 0.000000 0.000000 0.000000 -0.012375 0.000000 0.000000
# 5 0.000000 0.000000 0.000000 0.000000 0.039398 0.000000
# 6 0.000000 0.000000 0.000000 0.000000 0.000000 0.064304
#
#
# Mechanical properties :
#
#
# Convention : Reuss Voigt Hill
#
# Bulk Modulus (GPa) = 52.34427 54.71881 53.53154
# Shear Modulus (GPa) = 30.94789 4.89806 17.92297
#
# Velocity S-wave (km/s) = 4.16364 1.65642 3.16857
# Velocity P-wave (km/s) = 7.24127 5.85746 6.58581
#
# Compressibility (1/GPa) = 0.01910429
#
# Stress axis : x y z
#
# Youngs Moduli (GPa) = 72.90502 99.60579 56.40298
#
# Poissons Ratio (x) = 0.04694 0.28146
# Poissons Ratio (y) = 0.03435 0.32315
# Poissons Ratio (z) = 0.36380 0.57068
#
# Static dielectric constant tensor:
#      x y z
#    x 1.641790 0.000000 0.000000 
#    y 0.000000 1.634090 0.000000 
#    z 0.000000 0.000000 1.598890 
# 
# From -- ./inp_files/49916.got.cif
#   From: 2010.05.17/outbox.cif.g08.bks.cpg/sg65_25_cif.got.tgz:49916.got - 2010.06.03 17:01:31.
