data_PCOD9489487
_publ_section_title
;
Structure prediction by ZEFSAII (Michael W. Deem and Ramdas Pophale) SiO2 
 PCOD9489487
Probable space group: C M M M
;
_chemical_formula_sum "Si O2"
_cell_formula_units_Z 104
_cell_length_a 8.872930
_cell_length_b 27.955531
_cell_length_c 21.673833
_cell_angle_alpha 90.000000
_cell_angle_beta 90.000000
_cell_angle_gamma 90.000000
_cell_volume 5376.139434
_symmetry_space_group_name_H-M "C M M M"
_symmetry_group_IT_number 65
_symmetry_cell_setting 'orthorhombic'
loop_
_space_group_symop_operation_xyz
x,y,z
-x,-y,z
x,-y,-z
-x,y,-z
-x,-y,-z
x,y,-z
-x,y,z
x,-y,z
1/2+x,1/2+y,z
1/2-x,1/2-y,z
1/2+x,1/2-y,-z
1/2-x,1/2+y,-z
1/2-x,1/2-y,-z
1/2+x,1/2+y,-z
1/2-x,1/2+y,z
1/2+x,1/2-y,z
loop_
_atom_site_type_symbol
_atom_site_label
_atom_site_fract_x
_atom_site_fract_y
_atom_site_fract_z
Si Si1 0.179748 0.848964 0.070193
Si Si2 0.180069 0.106886 0.624538
Si Si3 0.820422 0.401140 0.750433
Si Si4 0.820318 0.698511 0.572029
Si Si5 0.680487 0.199255 0.188346
Si Si6 0.181186 0.554559 0.117988
Si Si7 0.183549 0.945670 0.500000
O O1 0.260166 0.815734 0.120610
O O2 0.237163 0.903303 0.080986
O O3 0.000000 0.847151 0.079752
O O4 0.213474 0.834662 0.000000
O O5 0.237140 0.084754 0.688164
O O6 0.249469 0.159345 0.616303
O O7 0.232192 0.079205 0.563173
O O8 0.000000 0.109138 0.624341
O O9 0.778456 0.346566 0.769396
O O10 0.787642 0.433876 0.809893
O O11 0.000000 0.402301 0.740309
O O12 0.783798 0.686802 0.500000
O O13 0.750000 0.750000 0.584597
O O14 0.000000 0.699797 0.578142
O O15 0.500000 0.202692 0.187488
O O16 0.750000 0.250000 0.207243
O O17 0.223449 0.500000 0.102605
O O18 0.000000 0.559427 0.109458
O O19 0.000000 0.944526 0.500000
O O20 0.233545 0.000000 0.500000
#
# Coordination Sequence:
#
# PCOD9489487 Si02
#       7
#    16  16  16  16  16  16   8
#     4  10  21  36  55  83 118 152 188 231 276 325
#     4  11  21  35  57  81 109 144 182 225 275 329
#     4   9  20  37  55  79 111 144 183 229 276 328
#     4  10  20  34  54  78 106 137 171 213 263 321
#     4  10  21  38  60  83 112 150 189 232 276 325
#     4   9  19  37  59  81 109 147 187 231 283 335
#     4   9  20  38  56  77 108 143 180 223 270 325
#
# _framework density 19.344736000000001
#
# number of rings (size 3 to 8) (size 9 to 14) (size 15 to 20)
#    0.000    2.231    0.769    2.769    0.000    7.077 
#    0.000    3.077    0.000    3.231    0.000    0.000 
#    0.000    0.000    0.000    0.000    0.000    0.000 
#
# Total GULP energy -290346.877239 kJ/mol
# GULP energy per Si atom -5583.593793 kJ/mol
# Density = 1.930071 g / cm^3
# Si number density = 19.344736 Si / 1000 Ang^3
#
#
#
# Elastic Constant Matrix: (Units=GPa)
#
#
# Indices 1 2 3 4 5 6 
#
# 1 24.2586 0.9323 19.2882 0.0000 0.0000 0.0000
# 2 0.9323 42.3484 -11.2109 0.0000 0.0000 0.0000
# 3 19.2882 -11.2109 68.4839 0.0000 0.0000 0.0000
# 4 0.0000 0.0000 0.0000 4.7371 0.0000 0.0000
# 5 0.0000 0.0000 0.0000 0.0000 31.1580 0.0000
# 6 0.0000 0.0000 0.0000 0.0000 0.0000 22.0461
#
#
#
# Elastic Compliance Matrix: (Units=1/GPa)
#
#
# Indices 1 2 3 4 5 6 
#
# 1 0.054309 -0.005482 -0.016193 0.000000 0.000000 0.000000
# 2 -0.005482 0.025237 0.005675 0.000000 0.000000 0.000000
# 3 -0.016193 0.005675 0.020092 0.000000 0.000000 0.000000
# 4 0.000000 0.000000 0.000000 0.211099 0.000000 0.000000
# 5 0.000000 0.000000 0.000000 0.000000 0.032094 0.000000
# 6 0.000000 0.000000 0.000000 0.000000 0.000000 0.045359
#
#
# Mechanical properties :
#
#
# Convention : Reuss Voigt Hill
#
# Bulk Modulus (GPa) = 14.78492 17.01224 15.89858
# Shear Modulus (GPa) = 11.29341 19.99367 15.64354
#
# Velocity S-wave (km/s) = 2.41881 3.21837 2.84680
# Velocity P-wave (km/s) = 3.93196 4.75646 4.36372
#
# Compressibility (1/GPa) = 0.06763649
#
# Stress axis : x y z
#
# Youngs Moduli (GPa) = 18.41331 39.62466 49.77148
#
# Poissons Ratio (x) = 0.21724 0.80596
# Poissons Ratio (y) = 0.10095 -0.28247
# Poissons Ratio (z) = 0.29817 -0.22489
#
# Static dielectric constant tensor:
#      x y z
#    x 1.645120 0.000000 0.000000 
#    y 0.000000 1.669270 0.000000 
#    z 0.000000 0.000000 1.690740 
# 
# From -- ./inp_files/60387.got.cif
#   From: 2010.05.17/outbox.cif.g08.bks.cpg/sg65_31_cif.got.tgz:60387.got - 2010.06.03 17:01:31.
