data_PCOD9489223
_publ_section_title
;
Structure prediction by ZEFSAII (Michael W. Deem and Ramdas Pophale) SiO2 
 PCOD9489223
Probable space group: C M M M
;
_chemical_formula_sum "Si O2"
_cell_formula_units_Z 104
_cell_length_a 19.806308
_cell_length_b 8.971833
_cell_length_c 34.092123
_cell_angle_alpha 90.000000
_cell_angle_beta 90.000000
_cell_angle_gamma 90.000000
_cell_volume 6058.132337
_symmetry_space_group_name_H-M "C M M M"
_symmetry_group_IT_number 65
_symmetry_cell_setting 'orthorhombic'
loop_
_space_group_symop_operation_xyz
x,y,z
-x,-y,z
x,-y,-z
-x,y,-z
-x,-y,-z
x,y,-z
-x,y,z
x,-y,z
1/2+x,1/2+y,z
1/2-x,1/2-y,z
1/2+x,1/2-y,-z
1/2-x,1/2+y,-z
1/2-x,1/2-y,-z
1/2+x,1/2+y,-z
1/2-x,1/2+y,z
1/2+x,1/2-y,z
loop_
_atom_site_type_symbol
_atom_site_label
_atom_site_fract_x
_atom_site_fract_y
_atom_site_fract_z
Si Si1 0.176815 0.679631 0.955441
Si Si2 0.080237 0.677244 0.277415
Si Si3 0.677229 0.321421 0.659248
Si Si4 0.417947 0.671598 0.196029
Si Si5 0.578949 0.179390 0.114804
Si Si6 0.677729 0.320905 0.431676
Si Si7 0.922786 0.181767 0.500000
O O1 0.182362 0.500000 0.954038
O O2 0.250000 0.750000 0.948089
O O3 0.123575 0.725494 0.922353
O O4 0.156161 0.720330 0.000000
O O5 0.090168 0.500000 0.278715
O O6 0.121814 0.756134 0.311602
O O7 0.102467 0.740181 0.235035
O O8 0.000000 0.707196 0.281618
O O9 0.680688 0.500000 0.662816
O O10 0.750000 0.250000 0.668321
O O11 0.661942 0.284247 0.613649
O O12 0.500000 0.674606 0.195592
O O13 0.396309 0.500000 0.198168
O O14 0.396704 0.746854 0.155282
O O15 0.500000 0.217910 0.108857
O O16 0.582659 0.000000 0.118787
O O17 0.684058 0.500000 0.434424
O O18 0.750000 0.250000 0.441780
O O19 0.619708 0.272547 0.461710
O O20 0.000000 0.234081 0.500000
O O21 0.924600 0.000000 0.500000
#
# Coordination Sequence:
#
# PCOD9489223 Si02
#       7
#    16  16  16  16  16  16   8
#     4   9  18  32  49  69  95 128 162 196 238 288
#     4  10  20  34  53  76 102 133 168 206 250 300
#     4  10  20  34  52  75 103 134 170 211 254 299
#     4   9  17  30  49  73 100 129 162 201 246 296
#     4   9  17  30  49  72  97 125 160 203 246 288
#     4   9  18  32  52  74  97 131 169 205 245 293
#     4   9  17  30  49  75 104 131 164 206 248 289
#
# _framework density 17.167006000000001
#
# number of rings (size 3 to 8) (size 9 to 14) (size 15 to 20)
#    0.000    2.692    0.000    1.615    0.000    4.923 
#    0.000    3.846    0.000    2.769    0.000    4.308 
#    0.000    0.000    0.000    0.000    0.000    0.000 
#
# Total GULP energy -289936.980162 kJ/mol
# GULP energy per Si atom -5575.711157 kJ/mol
# Density = 1.712793 g / cm^3
# Si number density = 17.167006 Si / 1000 Ang^3
#
#
#
# Elastic Constant Matrix: (Units=GPa)
#
#
# Indices 1 2 3 4 5 6 
#
# 1 93.8284 44.8652 100.1373 0.0000 0.0000 0.0000
# 2 44.8652 44.4063 56.8165 0.0000 0.0000 0.0000
# 3 100.1373 56.8165 154.4185 0.0000 0.0000 0.0000
# 4 0.0000 0.0000 0.0000 20.4459 0.0000 0.0000
# 5 0.0000 0.0000 0.0000 0.0000 368.1457 0.0000
# 6 0.0000 0.0000 0.0000 0.0000 0.0000 25.6643
#
#
#
# Elastic Compliance Matrix: (Units=1/GPa)
#
#
# Indices 1 2 3 4 5 6 
#
# 1 0.038235 -0.013049 -0.019993 0.000000 0.000000 0.000000
# 2 -0.013049 0.047004 -0.008832 0.000000 0.000000 0.000000
# 3 -0.019993 -0.008832 0.022691 0.000000 0.000000 0.000000
# 4 0.000000 0.000000 0.000000 0.048910 0.000000 0.000000
# 5 0.000000 0.000000 0.000000 0.000000 0.002716 0.000000
# 6 0.000000 0.000000 0.000000 0.000000 0.000000 0.038965
#
#
# Mechanical properties :
#
#
# Convention : Reuss Voigt Hill
#
# Bulk Modulus (GPa) = 41.35626 77.36569 59.36097
# Shear Modulus (GPa) = 17.22170 88.90679 53.06424
#
# Velocity S-wave (km/s) = 3.17075 7.20429 5.56576
# Velocity P-wave (km/s) = 6.12762 10.69424 8.71534
#
# Compressibility (1/GPa) = 0.02418014
#
# Stress axis : x y z
#
# Youngs Moduli (GPa) = 26.15395 21.27464 44.07033
#
# Poissons Ratio (x) = 0.27762 0.88111
# Poissons Ratio (y) = 0.34129 0.38925
# Poissons Ratio (z) = 0.52291 0.18791
#
# Static dielectric constant tensor:
#      x y z
#    x 1.556580 0.000000 0.000000 
#    y 0.000000 1.574520 0.000000 
#    z 0.000000 0.000000 1.578650 
# 
# From -- ./inp_files/78265.got.cif
#   From: 2010.05.17/outbox.cif.g08.bks.cpg/sg65_40_cif.got.tgz:78265.got - 2010.06.03 17:01:31.
