data_PCOD9489976
_publ_section_title
;
Structure prediction by ZEFSAII (Michael W. Deem and Ramdas Pophale) SiO2 
 PCOD9489976
Probable space group: C M M M
;
_chemical_formula_sum "Si O2"
_cell_formula_units_Z 80
_cell_length_a 8.897758
_cell_length_b 18.970992
_cell_length_c 26.604434
_cell_angle_alpha 90.000000
_cell_angle_beta 90.000000
_cell_angle_gamma 90.000000
_cell_volume 4490.809725
_symmetry_space_group_name_H-M "C M M M"
_symmetry_group_IT_number 65
_symmetry_cell_setting 'orthorhombic'
loop_
_space_group_symop_operation_xyz
x,y,z
-x,-y,z
x,-y,-z
-x,y,-z
-x,-y,-z
x,y,-z
-x,y,z
x,-y,z
1/2+x,1/2+y,z
1/2-x,1/2-y,z
1/2+x,1/2-y,-z
1/2-x,1/2+y,-z
1/2-x,1/2-y,-z
1/2+x,1/2+y,-z
1/2-x,1/2+y,z
1/2+x,1/2-y,z
loop_
_atom_site_type_symbol
_atom_site_label
_atom_site_fract_x
_atom_site_fract_y
_atom_site_fract_z
Si Si1 0.680866 0.917783 0.603701
Si Si2 0.680873 0.173214 0.301297
Si Si3 0.681419 0.417771 0.098368
Si Si4 0.319616 0.827817 0.812850
Si Si5 0.181241 0.827922 0.000000
Si Si6 0.824581 0.914437 0.500000
O O1 0.500000 0.913870 0.600252
O O2 0.730653 0.876996 0.653533
O O3 0.749075 0.889469 0.551662
O O4 0.722242 0.000000 0.608471
O O5 0.500000 0.177799 0.303285
O O6 0.750000 0.250000 0.308633
O O7 0.719521 0.150135 0.244458
O O8 0.500000 0.414364 0.102697
O O9 0.722851 0.500000 0.093059
O O10 0.754885 0.381877 0.146808
O O11 0.724874 0.372330 0.049386
O O12 0.500000 0.823323 0.817085
O O13 0.250000 0.750000 0.821227
O O14 0.250000 0.750000 0.000000
O O15 0.000000 0.821836 0.000000
O O16 0.000000 0.897836 0.500000
O O17 0.807428 0.000000 0.500000
#
# Coordination Sequence:
#
# PCOD9489976 Si02
#       6
#    16  16  16  16   8   8
#     4   9  17  31  51  72  95 127 166 204 245 297
#     4   9  19  34  52  74 101 133 167 206 251 299
#     4  10  21  37  56  79 108 140 174 215 262 308
#     4  10  20  35  55  78 105 138 175 214 257 308
#     4  10  21  37  57  79 105 140 179 216 256 306
#     4   9  17  29  46  71 100 127 159 203 252 297
#
# _framework density 17.814160000000001
#
# number of rings (size 3 to 8) (size 9 to 14) (size 15 to 20)
#    0.000    2.500    0.000    1.800    0.000    7.600 
#    0.000    2.500    0.000    4.200    0.000    0.000 
#    0.000    0.000    0.000    0.000    0.000    0.000 
#
# Total GULP energy -223120.529929 kJ/mol
# GULP energy per Si atom -5578.013248 kJ/mol
# Density = 1.777361 g / cm^3
# Si number density = 17.814160 Si / 1000 Ang^3
#
#
#
# Elastic Constant Matrix: (Units=GPa)
#
#
# Indices 1 2 3 4 5 6 
#
# 1 18.5463 36.4113 50.7130 0.0000 0.0000 0.0000
# 2 36.4113 111.4935 112.4486 0.0000 0.0000 0.0000
# 3 50.7130 112.4486 199.4663 0.0000 0.0000 0.0000
# 4 0.0000 0.0000 0.0000 39.1785 0.0000 0.0000
# 5 0.0000 0.0000 0.0000 0.0000 22.3154 0.0000
# 6 0.0000 0.0000 0.0000 0.0000 0.0000 25.6280
#
#
#
# Elastic Compliance Matrix: (Units=1/GPa)
#
#
# Indices 1 2 3 4 5 6 
#
# 1 0.228263 -0.037120 -0.037108 0.000000 0.000000 0.000000
# 2 -0.037120 0.026826 -0.005686 0.000000 0.000000 0.000000
# 3 -0.037108 -0.005686 0.017653 0.000000 0.000000 0.000000
# 4 0.000000 0.000000 0.000000 0.025524 0.000000 0.000000
# 5 0.000000 0.000000 0.000000 0.000000 0.044812 0.000000
# 6 0.000000 0.000000 0.000000 0.000000 0.000000 0.039020
#
#
# Mechanical properties :
#
#
# Convention : Reuss Voigt Hill
#
# Bulk Modulus (GPa) = 8.85621 80.96134 44.90877
# Shear Modulus (GPa) = 8.62718 26.08659 17.35689
#
# Velocity S-wave (km/s) = 2.20304 3.83087 3.12481
# Velocity P-wave (km/s) = 3.38429 8.06931 6.18737
#
# Compressibility (1/GPa) = 0.11291512
#
# Stress axis : x y z
#
# Youngs Moduli (GPa) = 4.38091 37.27734 56.64701
#
# Poissons Ratio (x) = 1.38372 2.10207
# Poissons Ratio (y) = 0.16262 0.32208
# Poissons Ratio (z) = 0.16257 0.21195
#
# Static dielectric constant tensor:
#      x y z
#    x 1.597610 0.000000 0.000000 
#    y 0.000000 1.580160 0.000000 
#    z 0.000000 0.000000 1.613550 
# 
# From -- ./inp_files/72963.got.cif
#   From: 2010.05.17/outbox.cif.g08.bks.cpg/sg65_37_cif.got.tgz:72963.got - 2010.06.03 17:01:31.
