data_PCOD9489528
_publ_section_title
;
Structure prediction by ZEFSAII (Michael W. Deem and Ramdas Pophale) SiO2 
 PCOD9489528
Probable space group: C M M M
;
_chemical_formula_sum "Si O2"
_cell_formula_units_Z 72
_cell_length_a 8.784176
_cell_length_b 29.680099
_cell_length_c 14.857896
_cell_angle_alpha 90.000000
_cell_angle_beta 90.000000
_cell_angle_gamma 90.000000
_cell_volume 3873.679525
_symmetry_space_group_name_H-M "C M M M"
_symmetry_group_IT_number 65
_symmetry_cell_setting 'orthorhombic'
loop_
_space_group_symop_operation_xyz
x,y,z
-x,-y,z
x,-y,-z
-x,y,-z
-x,-y,-z
x,y,-z
-x,y,z
x,-y,z
1/2+x,1/2+y,z
1/2-x,1/2-y,z
1/2+x,1/2-y,-z
1/2-x,1/2+y,-z
1/2-x,1/2-y,-z
1/2+x,1/2+y,-z
1/2-x,1/2+y,z
1/2+x,1/2-y,z
loop_
_atom_site_type_symbol
_atom_site_label
_atom_site_fract_x
_atom_site_fract_y
_atom_site_fract_z
Si Si1 0.185625 0.551818 0.500000
Si Si2 0.819462 0.384839 0.336381
Si Si3 0.817287 0.552249 0.000000
Si Si4 0.182222 0.121390 0.138818
Si Si5 0.316509 0.699346 0.000000
Si Si6 0.671347 0.294410 0.392882
O O1 0.234526 0.500000 0.500000
O O2 0.233799 0.578132 0.409520
O O3 0.000000 0.552830 0.500000
O O4 0.738319 0.383686 0.240330
O O5 0.779135 0.336655 0.378220
O O6 0.000000 0.390290 0.323815
O O7 0.752680 0.579813 0.084204
O O8 0.771220 0.500000 0.000000
O O9 0.000000 0.554284 0.000000
O O10 0.227266 0.167926 0.086545
O O11 0.000000 0.119325 0.134259
O O12 0.250000 0.750000 0.000000
O O13 0.500000 0.703172 0.000000
O O14 0.656995 0.288139 0.500000
O O15 0.500000 0.301794 0.356772
O O16 0.750000 0.250000 0.353651
#
# Coordination Sequence:
#
# PCOD9489528 Si02
#       6
#     8  16   8  16   8  16
#     4   9  20  38  58  81 112 151 196 247 298 345
#     4  11  21  36  59  85 116 154 198 245 294 348
#     4  10  21  39  63  89 114 144 188 240 296 357
#     4  10  22  39  58  86 121 154 192 237 292 354
#     4   9  20  38  60  84 115 152 188 232 281 342
#     4  10  20  34  54  79 110 147 190 237 286 339
#
# _framework density 18.586978999999999
#
# number of rings (size 3 to 8) (size 9 to 14) (size 15 to 20)
#    0.000    2.000    1.111    3.000    0.000    6.222 
#    0.000    4.444    0.000    4.667    0.000    0.000 
#    0.000    0.000    0.000    0.000    0.000    0.000 
#
# Total GULP energy -200791.988382 kJ/mol
# GULP energy per Si atom -5577.555233 kJ/mol
# Density = 1.854467 g / cm^3
# Si number density = 18.586979 Si / 1000 Ang^3
#
#
#
# Elastic Constant Matrix: (Units=GPa)
#
#
# Indices 1 2 3 4 5 6 
#
# 1 50.1012 34.7688 33.7310 0.0000 0.0000 0.0000
# 2 34.7688 178.7123 69.8785 0.0000 0.0000 0.0000
# 3 33.7310 69.8785 117.0810 0.0000 0.0000 0.0000
# 4 0.0000 0.0000 0.0000 -16.3217 0.0000 0.0000
# 5 0.0000 0.0000 0.0000 0.0000 32.5120 0.0000
# 6 0.0000 0.0000 0.0000 0.0000 0.0000 24.9593
#
#
#
# Elastic Compliance Matrix: (Units=1/GPa)
#
#
# Indices 1 2 3 4 5 6 
#
# 1 0.025760 -0.002752 -0.005779 0.000000 0.000000 0.000000
# 2 -0.002752 0.007593 -0.003739 0.000000 0.000000 0.000000
# 3 -0.005779 -0.003739 0.012438 0.000000 0.000000 0.000000
# 4 0.000000 0.000000 0.000000 -0.061268 0.000000 0.000000
# 5 0.000000 0.000000 0.000000 0.000000 0.030758 0.000000
# 6 0.000000 0.000000 0.000000 0.000000 0.000000 0.040065
#
#
# Mechanical properties :
#
#
# Convention : Reuss Voigt Hill
#
# Bulk Modulus (GPa) = 47.05696 69.18344 58.12020
# Shear Modulus (GPa) = 57.49179 22.06435 39.77807
#
# Velocity S-wave (km/s) = 5.56762 3.44915 4.63114
# Velocity P-wave (km/s) = 8.16721 7.29139 7.74170
#
# Compressibility (1/GPa) = 0.02125084
#
# Stress axis : x y z
#
# Youngs Moduli (GPa) = 38.81957 131.70096 80.40179
#
# Poissons Ratio (x) = 0.36245 0.46464
# Poissons Ratio (y) = 0.10683 0.30061
# Poissons Ratio (z) = 0.22434 0.49242
#
# Static dielectric constant tensor:
#      x y z
#    x 1.646800 0.000000 0.000000 
#    y 0.000000 1.630230 0.000000 
#    z 0.000000 0.000000 1.630770 
# 
# From -- ./inp_files/36685.got.cif
#   From: 2010.05.17/outbox.cif.g08.bks.cpg/sg65_19_cif.got.tgz:36685.got - 2010.06.03 17:01:31.
