data_PCOD9489038
_publ_section_title
;
Structure prediction by ZEFSAII (Michael W. Deem and Ramdas Pophale) SiO2 
 PCOD9489038
Probable space group: C M M M
;
_chemical_formula_sum "Si O2"
_cell_formula_units_Z 88
_cell_length_a 18.448754
_cell_length_b 28.397666
_cell_length_c 9.593422
_cell_angle_alpha 90.000000
_cell_angle_beta 90.000000
_cell_angle_gamma 90.000000
_cell_volume 5026.008696
_symmetry_space_group_name_H-M "C M M M"
_symmetry_group_IT_number 65
_symmetry_cell_setting 'orthorhombic'
loop_
_space_group_symop_operation_xyz
x,y,z
-x,-y,z
x,-y,-z
-x,y,-z
-x,-y,-z
x,y,-z
-x,y,z
x,-y,z
1/2+x,1/2+y,z
1/2-x,1/2-y,z
1/2+x,1/2-y,-z
1/2-x,1/2+y,-z
1/2-x,1/2-y,-z
1/2+x,1/2+y,-z
1/2-x,1/2+y,z
1/2+x,1/2-y,z
loop_
_atom_site_type_symbol
_atom_site_label
_atom_site_fract_x
_atom_site_fract_y
_atom_site_fract_z
Si Si1 0.918217 0.750874 0.666424
Si Si2 0.500000 0.554627 0.330449
Si Si3 0.659277 0.443153 0.338578
Si Si4 0.282380 0.893622 0.835781
Si Si5 0.914630 0.359480 0.666473
Si Si6 0.301018 0.704374 0.155421
O O1 0.915245 0.753792 0.500000
O O2 0.902505 0.695987 0.701507
O O3 0.862842 0.786801 0.733229
O O4 0.000000 0.760769 0.712302
O O5 0.500000 0.500000 0.284070
O O6 0.500000 0.554403 0.500000
O O7 0.420967 0.574670 0.290725
O O8 0.670894 0.428074 0.500000
O O9 0.655578 0.500000 0.339295
O O10 0.724729 0.426903 0.241520
O O11 0.359021 0.890254 0.756013
O O12 0.246185 0.841937 0.823502
O O13 0.290686 0.904543 0.000000
O O14 0.901781 0.365015 0.500000
O O15 0.000000 0.369302 0.691769
O O16 0.250000 0.750000 0.162207
O O17 0.333032 0.702288 0.000000
#
# Coordination Sequence:
#
# PCOD9489038 Si02
#       6
#    16   8  16  16  16  16
#     4   9  18  32  50  72  96 127 172 220 259 295
#     4   7  12  28  55  81 101 127 167 209 249 299
#     4   9  18  35  59  82 104 133 170 213 260 308
#     4  11  22  34  51  77 107 139 174 211 255 307
#     4   9  18  33  53  76 101 131 172 219 261 305
#     4  10  20  34  48  68 102 141 175 206 245 299
#
# _framework density 17.508922999999999
#
# number of rings (size 3 to 8) (size 9 to 14) (size 15 to 20)
#    0.000    2.636    1.818    2.727    0.000    2.909 
#    1.636    2.273    0.000    2.182    0.000    3.818 
#    0.000    0.000    0.000    0.000    0.000    0.000 
#
# Total GULP energy -245117.416111 kJ/mol
# GULP energy per Si atom -5570.850366 kJ/mol
# Density = 1.746907 g / cm^3
# Si number density = 17.508923 Si / 1000 Ang^3
#
#
#
# Elastic Constant Matrix: (Units=GPa)
#
#
# Indices 1 2 3 4 5 6 
#
# 1 115.4175 13.1793 68.4074 0.0000 0.0000 0.0000
# 2 13.1793 17.8012 16.5873 0.0000 0.0000 0.0000
# 3 68.4074 16.5873 64.7089 0.0000 0.0000 0.0000
# 4 0.0000 0.0000 0.0000 17.3746 0.0000 0.0000
# 5 0.0000 0.0000 0.0000 0.0000 139.2063 0.0000
# 6 0.0000 0.0000 0.0000 0.0000 0.0000 24.9025
#
#
#
# Elastic Compliance Matrix: (Units=1/GPa)
#
#
# Indices 1 2 3 4 5 6 
#
# 1 0.023981 0.007710 -0.027328 0.000000 0.000000 0.000000
# 2 0.007710 0.076283 -0.027705 0.000000 0.000000 0.000000
# 3 -0.027328 -0.027705 0.051445 0.000000 0.000000 0.000000
# 4 0.000000 0.000000 0.000000 0.057555 0.000000 0.000000
# 5 0.000000 0.000000 0.000000 0.000000 0.007184 0.000000
# 6 0.000000 0.000000 0.000000 0.000000 0.000000 0.040157
#
#
# Mechanical properties :
#
#
# Convention : Reuss Voigt Hill
#
# Bulk Modulus (GPa) = 17.52413 43.80839 30.66626
# Shear Modulus (GPa) = 13.50358 42.94692 28.22525
#
# Velocity S-wave (km/s) = 2.78013 4.95801 4.01939
# Velocity P-wave (km/s) = 4.50954 7.60597 6.25247
#
# Compressibility (1/GPa) = 0.05706417
#
# Stress axis : x y z
#
# Youngs Moduli (GPa) = 41.69975 13.10900 19.43808
#
# Poissons Ratio (x) = -0.10107 0.53120
# Poissons Ratio (y) = -0.32150 0.53853
# Poissons Ratio (z) = 1.13957 0.36318
#
# Static dielectric constant tensor:
#      x y z
#    x 1.611850 0.000000 0.000000 
#    y 0.000000 1.597150 0.000000 
#    z 0.000000 0.000000 1.593300 
# 
# From -- ./inp_files/9999.got.cif
#   From: 2010.05.17/outbox.cif.g08.bks.cpg/sg65_5_cif.got.tgz:9999.got - 2010.06.03 17:01:31.
