data_PCOD9489001
_publ_section_title
;
Structure prediction by ZEFSAII (Michael W. Deem and Ramdas Pophale) SiO2 
 PCOD9489001
Probable space group: C M M M
;
_chemical_formula_sum "Si O2"
_cell_formula_units_Z 88
_cell_length_a 31.360020
_cell_length_b 17.295500
_cell_length_c 8.520275
_cell_angle_alpha 90.000000
_cell_angle_beta 90.000000
_cell_angle_gamma 90.000000
_cell_volume 4621.288321
_symmetry_space_group_name_H-M "C M M M"
_symmetry_group_IT_number 65
_symmetry_cell_setting 'orthorhombic'
loop_
_space_group_symop_operation_xyz
x,y,z
-x,-y,z
x,-y,-z
-x,y,-z
-x,-y,-z
x,y,-z
-x,y,z
x,-y,z
1/2+x,1/2+y,z
1/2-x,1/2-y,z
1/2+x,1/2-y,-z
1/2-x,1/2+y,-z
1/2-x,1/2-y,-z
1/2+x,1/2+y,-z
1/2-x,1/2+y,z
1/2+x,1/2-y,z
loop_
_atom_site_type_symbol
_atom_site_label
_atom_site_fract_x
_atom_site_fract_y
_atom_site_fract_z
Si Si1 0.124060 0.307996 0.810508
Si Si2 0.949934 0.000000 0.311776
Si Si3 0.200590 0.410053 0.686266
Si Si4 0.953351 0.589007 0.808702
Si Si5 0.709242 0.592115 0.176621
Si Si6 0.614435 0.630248 0.190407
O O1 0.167360 0.348379 0.754168
O O2 0.085585 0.361101 0.751442
O O3 0.112920 0.220335 0.765575
O O4 0.125205 0.308993 0.000000
O O5 0.922615 0.925334 0.254785
O O6 0.950286 0.000000 0.500000
O O7 0.000000 0.000000 0.258810
O O8 0.196158 0.411966 0.500000
O O9 0.193466 0.500000 0.743544
O O10 0.248688 0.384768 0.729795
O O11 0.948970 0.500000 0.761293
O O12 0.000000 0.617624 0.760068
O O13 0.952561 0.590234 0.000000
O O14 0.712376 0.500000 0.164203
O O15 0.662226 0.606784 0.242996
O O16 0.710983 0.625937 0.000000
O O17 0.613224 0.622710 0.000000
#
# Coordination Sequence:
#
# PCOD9489001 Si02
#       6
#    16   8  16  16  16  16
#     4  10  20  33  54  83 113 143 181 232 289 340
#     4  11  25  43  63  87 115 151 193 235 288 353
#     4  10  21  35  52  78 113 153 194 230 271 329
#     4   8  14  26  46  73 104 137 174 216 263 320
#     4   9  17  33  56  77 104 142 186 232 282 338
#     4  10  21  38  60  86 111 141 185 238 291 342
#
# _framework density 19.042308999999999
#
# number of rings (size 3 to 8) (size 9 to 14) (size 15 to 20)
#    0.000    2.455    0.909    1.909    0.000    5.455 
#    0.000    5.455    0.000    0.545    0.000    2.545 
#    0.000    0.000    0.000    0.000    0.000    0.000 
#
# Total GULP energy -245173.444768 kJ/mol
# GULP energy per Si atom -5572.123745 kJ/mol
# Density = 1.899897 g / cm^3
# Si number density = 19.042309 Si / 1000 Ang^3
#
#
#
# Elastic Constant Matrix: (Units=GPa)
#
#
# Indices 1 2 3 4 5 6 
#
# 1 192.4586 93.4250 26.4792 0.0000 0.0000 0.0000
# 2 93.4250 89.8898 27.1686 0.0000 0.0000 0.0000
# 3 26.4792 27.1686 19.0781 0.0000 0.0000 0.0000
# 4 0.0000 0.0000 0.0000 15.0656 0.0000 0.0000
# 5 0.0000 0.0000 0.0000 0.0000 11.3169 0.0000
# 6 0.0000 0.0000 0.0000 0.0000 0.0000 26.5988
#
#
#
# Elastic Compliance Matrix: (Units=1/GPa)
#
#
# Indices 1 2 3 4 5 6 
#
# 1 0.010518 -0.011446 0.001701 0.000000 0.000000 0.000000
# 2 -0.011446 0.031987 -0.029666 0.000000 0.000000 0.000000
# 3 0.001701 -0.029666 0.092301 0.000000 0.000000 0.000000
# 4 0.000000 0.000000 0.000000 0.066377 0.000000 0.000000
# 5 0.000000 0.000000 0.000000 0.000000 0.088363 0.000000
# 6 0.000000 0.000000 0.000000 0.000000 0.000000 0.037596
#
#
# Mechanical properties :
#
#
# Convention : Reuss Voigt Hill
#
# Bulk Modulus (GPa) = 17.86174 66.17468 42.01821
# Shear Modulus (GPa) = 11.77513 20.88650 16.33082
#
# Velocity S-wave (km/s) = 2.48940 3.31546 2.93167
# Velocity P-wave (km/s) = 4.20276 7.03443 5.79424
#
# Compressibility (1/GPa) = 0.05598557
#
# Stress axis : x y z
#
# Youngs Moduli (GPa) = 95.07487 31.26259 10.83415
#
# Poissons Ratio (x) = 0.35783 -0.01843
# Poissons Ratio (y) = 1.08822 0.32140
# Poissons Ratio (z) = -0.16177 0.92743
#
# Static dielectric constant tensor:
#      x y z
#    x 1.665540 0.000000 0.000000 
#    y 0.000000 1.669920 0.000000 
#    z 0.000000 0.000000 1.672370 
# 
# From -- ./inp_files/18335.got.cif
#   From: 2010.05.17/outbox.cif.g08.bks.cpg/sg65_10_cif.got.tgz:18335.got - 2010.06.03 17:01:31.
