data_PCOD9489387
_publ_section_title
;
Structure prediction by ZEFSAII (Michael W. Deem and Ramdas Pophale) SiO2 
 PCOD9489387
Probable space group: C M M M
;
_chemical_formula_sum "Si O2"
_cell_formula_units_Z 88
_cell_length_a 29.897190
_cell_length_b 8.133355
_cell_length_c 18.180607
_cell_angle_alpha 90.000000
_cell_angle_beta 90.000000
_cell_angle_gamma 90.000000
_cell_volume 4420.877479
_symmetry_space_group_name_H-M "C M M M"
_symmetry_group_IT_number 65
_symmetry_cell_setting 'orthorhombic'
loop_
_space_group_symop_operation_xyz
x,y,z
-x,-y,z
x,-y,-z
-x,y,-z
-x,-y,-z
x,y,-z
-x,y,z
x,-y,z
1/2+x,1/2+y,z
1/2-x,1/2-y,z
1/2+x,1/2-y,-z
1/2-x,1/2+y,-z
1/2-x,1/2-y,-z
1/2+x,1/2+y,-z
1/2-x,1/2+y,z
1/2+x,1/2-y,z
loop_
_atom_site_type_symbol
_atom_site_label
_atom_site_fract_x
_atom_site_fract_y
_atom_site_fract_z
Si Si1 0.856929 0.697926 0.857045
Si Si2 0.452036 0.305862 0.410655
Si Si3 0.854915 0.801586 0.416065
Si Si4 0.199711 0.303939 0.280167
Si Si5 0.198289 0.698708 0.000000
Si Si6 0.950112 0.801797 0.085086
O O1 0.854335 0.500000 0.856971
O O2 0.833870 0.760245 0.782713
O O3 0.908487 0.744458 0.867181
O O4 0.828282 0.756982 0.927555
O O5 0.451428 0.298393 0.500000
O O6 0.500000 0.234234 0.386179
O O7 0.452748 0.500000 0.391362
O O8 0.403673 0.238052 0.388322
O O9 0.847440 0.744764 0.500000
O O10 0.816854 0.753848 0.359575
O O11 0.857879 0.000000 0.418526
O O12 0.198251 0.500000 0.279066
O O13 0.250000 0.250000 0.264279
O O14 0.250000 0.750000 0.000000
O O15 0.197055 0.500000 0.000000
O O16 0.000000 0.747220 0.108076
O O17 0.950216 0.000000 0.084948
O O18 0.943261 0.747736 0.000000
#
# Coordination Sequence:
#
# PCOD9489387 Si02
#       6
#    16  16  16  16   8  16
#     4  10  21  37  56  80 110 144 183 225 271 327
#     4   7  10  20  43  75 105 130 161 204 251 302
#     4   9  18  34  57  83 109 141 183 228 276 331
#     4  11  24  40  57  78 106 141 181 229 284 336
#     4  10  20  34  53  78 105 135 178 225 267 318
#     4   9  18  33  55  85 117 148 185 226 267 314
#
# _framework density 19.905549000000001
#
# number of rings (size 3 to 8) (size 9 to 14) (size 15 to 20)
#    0.000    2.727    0.909    3.273    0.000    3.273 
#    0.000    1.818    0.000    3.818    0.000    2.545 
#    0.000    0.000    0.000    0.000    0.000    0.000 
#
# Total GULP energy -245310.016905 kJ/mol
# GULP energy per Si atom -5575.227657 kJ/mol
# Density = 1.986024 g / cm^3
# Si number density = 19.905549 Si / 1000 Ang^3
#
#
#
# Elastic Constant Matrix: (Units=GPa)
#
#
# Indices 1 2 3 4 5 6 
#
# 1 165.4279 8.1110 68.7483 0.0000 0.0000 0.0000
# 2 8.1110 11.5361 13.9015 0.0000 0.0000 0.0000
# 3 68.7483 13.9015 91.2899 0.0000 0.0000 0.0000
# 4 0.0000 0.0000 0.0000 14.6178 0.0000 0.0000
# 5 0.0000 0.0000 0.0000 0.0000 34.5812 0.0000
# 6 0.0000 0.0000 0.0000 0.0000 0.0000 17.7022
#
#
#
# Elastic Compliance Matrix: (Units=1/GPa)
#
#
# Indices 1 2 3 4 5 6 
#
# 1 0.008844 0.002214 -0.006998 0.000000 0.000000 0.000000
# 2 0.002214 0.106721 -0.017919 0.000000 0.000000 0.000000
# 3 -0.006998 -0.017919 0.018953 0.000000 0.000000 0.000000
# 4 0.000000 0.000000 0.000000 0.068410 0.000000 0.000000
# 5 0.000000 0.000000 0.000000 0.000000 0.028917 0.000000
# 6 0.000000 0.000000 0.000000 0.000000 0.000000 0.056490
#
#
# Mechanical properties :
#
#
# Convention : Reuss Voigt Hill
#
# Bulk Modulus (GPa) = 11.22168 49.97505 30.59836
# Shear Modulus (GPa) = 13.75725 25.21310 19.48517
#
# Velocity S-wave (km/s) = 2.63178 3.56284 3.13210
# Velocity P-wave (km/s) = 3.85807 6.48735 5.33716
#
# Compressibility (1/GPa) = 0.08911325
#
# Stress axis : x y z
#
# Youngs Moduli (GPa) = 113.06490 9.37024 52.76328
#
# Poissons Ratio (x) = -0.02075 0.36922
# Poissons Ratio (y) = -0.25033 0.94545
# Poissons Ratio (z) = 0.79120 0.16790
#
# Static dielectric constant tensor:
#      x y z
#    x 1.738320 0.000000 0.000000 
#    y 0.000000 1.710970 0.000000 
#    z 0.000000 0.000000 1.701270 
# 
# From -- ./inp_files/57984.got.cif
#   From: 2010.05.17/outbox.cif.g08.bks.cpg/sg65_29_cif.got.tgz:57984.got - 2010.06.03 17:01:31.
