data_PCOD9489537
_publ_section_title
;
Structure prediction by ZEFSAII (Michael W. Deem and Ramdas Pophale) SiO2 
 PCOD9489537
Probable space group: C M M M
;
_chemical_formula_sum "Si O2"
_cell_formula_units_Z 80
_cell_length_a 8.928679
_cell_length_b 19.820891
_cell_length_c 26.392233
_cell_angle_alpha 90.000000
_cell_angle_beta 90.000000
_cell_angle_gamma 90.000000
_cell_volume 4670.748893
_symmetry_space_group_name_H-M "C M M M"
_symmetry_group_IT_number 65
_symmetry_cell_setting 'orthorhombic'
loop_
_space_group_symop_operation_xyz
x,y,z
-x,-y,z
x,-y,-z
-x,y,-z
-x,-y,-z
x,y,-z
-x,y,z
x,-y,z
1/2+x,1/2+y,z
1/2-x,1/2-y,z
1/2+x,1/2-y,-z
1/2-x,1/2+y,-z
1/2-x,1/2-y,-z
1/2+x,1/2+y,-z
1/2-x,1/2+y,z
1/2+x,1/2-y,z
loop_
_atom_site_type_symbol
_atom_site_label
_atom_site_fract_x
_atom_site_fract_y
_atom_site_fract_z
Si Si1 0.320954 0.676570 0.811308
Si Si2 0.178639 0.579974 0.894202
Si Si3 0.181354 0.420511 0.611065
Si Si4 0.825575 0.581916 0.500000
Si Si5 0.172447 0.918058 0.000000
Si Si6 0.821133 0.823282 0.306211
O O1 0.500000 0.680017 0.817192
O O2 0.250000 0.750000 0.821145
O O3 0.252572 0.622507 0.849513
O O4 0.287731 0.659122 0.752530
O O5 0.210992 0.500000 0.888168
O O6 0.000000 0.588475 0.894055
O O7 0.244723 0.602407 0.948495
O O8 0.215777 0.500000 0.617019
O O9 0.236510 0.397837 0.554849
O O10 0.252930 0.376807 0.655138
O O11 0.000000 0.414357 0.611998
O O12 0.823993 0.500000 0.500000
O O13 0.000000 0.602379 0.500000
O O14 0.000000 0.895748 0.000000
O O15 0.173577 0.000000 0.000000
O O16 0.750000 0.750000 0.315960
O O17 0.000000 0.819666 0.311788
#
# Coordination Sequence:
#
# PCOD9489537 Si02
#       6
#    16  16  16   8   8  16
#     4  10  21  37  55  74 100 135 172 211 257 306
#     4  10  20  34  54  80 108 137 171 210 250 297
#     4   9  17  31  53  78 103 132 167 207 251 301
#     4   7  12  26  48  73 100 131 165 201 246 299
#     4   9  17  31  52  77 106 139 172 207 251 299
#     4  10  21  36  53  73 100 134 171 211 255 304
#
# _framework density 17.127875
#
# number of rings (size 3 to 8) (size 9 to 14) (size 15 to 20)
#    0.000    2.600    0.000    3.300    0.000    6.000 
#    0.000    5.500    0.000    1.800    0.000    0.000 
#    0.000    0.000    0.000    0.000    0.000    0.000 
#
# Total GULP energy -223010.159931 kJ/mol
# GULP energy per Si atom -5575.253998 kJ/mol
# Density = 1.708889 g / cm^3
# Si number density = 17.127875 Si / 1000 Ang^3
#
#
#
# Elastic Constant Matrix: (Units=GPa)
#
#
# Indices 1 2 3 4 5 6 
#
# 1 70.0160 56.5012 81.2390 0.0000 0.0000 0.0000
# 2 56.5012 74.8773 100.0668 0.0000 0.0000 0.0000
# 3 81.2390 100.0668 177.0254 0.0000 0.0000 0.0000
# 4 0.0000 0.0000 0.0000 -56.6053 0.0000 0.0000
# 5 0.0000 0.0000 0.0000 0.0000 30.6026 0.0000
# 6 0.0000 0.0000 0.0000 0.0000 0.0000 29.9624
#
#
#
# Elastic Compliance Matrix: (Units=1/GPa)
#
#
# Indices 1 2 3 4 5 6 
#
# 1 0.037562 -0.021700 -0.004971 0.000000 0.000000 0.000000
# 2 -0.021700 0.067143 -0.027995 0.000000 0.000000 0.000000
# 3 -0.004971 -0.027995 0.023755 0.000000 0.000000 0.000000
# 4 0.000000 0.000000 0.000000 -0.017666 0.000000 0.000000
# 5 0.000000 0.000000 0.000000 0.000000 0.032677 0.000000
# 6 0.000000 0.000000 0.000000 0.000000 0.000000 0.033375
#
#
# Mechanical properties :
#
#
# Convention : Reuss Voigt Hill
#
# Bulk Modulus (GPa) = 52.28264 88.61475 70.44870
# Shear Modulus (GPa) = 17.09084 6.39938 11.74511
#
# Velocity S-wave (km/s) = 3.16228 1.93503 2.62149
# Velocity P-wave (km/s) = 6.62756 7.53936 7.09812
#
# Compressibility (1/GPa) = 0.01912681
#
# Stress axis : x y z
#
# Youngs Moduli (GPa) = 26.62273 14.89365 42.09598
#
# Poissons Ratio (x) = 0.32319 0.20928
# Poissons Ratio (y) = 0.57771 1.17849
# Poissons Ratio (z) = 0.13235 0.41695
#
# Static dielectric constant tensor:
#      x y z
#    x 1.571740 0.000000 0.000000 
#    y 0.000000 1.547570 0.000000 
#    z 0.000000 0.000000 1.586030 
# 
# From -- ./inp_files/67348.got.cif
#   From: 2010.05.17/outbox.cif.g08.bks.cpg/sg65_34_cif.got.tgz:67348.got - 2010.06.03 17:01:31.
