data_PCOD9489652
_publ_section_title
;
Structure prediction by ZEFSAII (Michael W. Deem and Ramdas Pophale) SiO2 
 PCOD9489652
Probable space group: C M M M
;
_chemical_formula_sum "Si O2"
_cell_formula_units_Z 104
_cell_length_a 19.742555
_cell_length_b 18.175789
_cell_length_c 16.221464
_cell_angle_alpha 90.000000
_cell_angle_beta 90.000000
_cell_angle_gamma 90.000000
_cell_volume 5820.853594
_symmetry_space_group_name_H-M "C M M M"
_symmetry_group_IT_number 65
_symmetry_cell_setting 'orthorhombic'
loop_
_space_group_symop_operation_xyz
x,y,z
-x,-y,z
x,-y,-z
-x,y,-z
-x,-y,-z
x,y,-z
-x,y,z
x,-y,z
1/2+x,1/2+y,z
1/2-x,1/2-y,z
1/2+x,1/2-y,-z
1/2-x,1/2+y,-z
1/2-x,1/2-y,-z
1/2+x,1/2+y,-z
1/2-x,1/2+y,z
1/2+x,1/2-y,z
loop_
_atom_site_type_symbol
_atom_site_label
_atom_site_fract_x
_atom_site_fract_y
_atom_site_fract_z
Si Si1 0.077740 0.851346 0.323694
Si Si2 0.722762 0.833897 0.591083
Si Si3 0.424326 0.087834 0.174792
Si Si4 0.786568 0.589445 0.091266
Si Si5 0.076177 0.322175 0.656115
Si Si6 0.292061 0.587839 0.253781
Si Si7 0.417784 0.584118 0.500000
O O1 0.079679 0.763504 0.318714
O O2 0.130295 0.887863 0.262079
O O3 0.100490 0.874550 0.416088
O O4 0.000000 0.875803 0.312326
O O5 0.742237 0.862046 0.500000
O O6 0.750000 0.750000 0.597197
O O7 0.641198 0.835555 0.599486
O O8 0.753129 0.877630 0.668192
O O9 0.500000 0.103255 0.142796
O O10 0.363801 0.109109 0.114247
O O11 0.416935 0.128541 0.262053
O O12 0.419053 0.000000 0.188760
O O13 0.783098 0.500000 0.089789
O O14 0.740635 0.613804 0.167883
O O15 0.767882 0.615925 0.000000
O O16 0.000000 0.334524 0.621211
O O17 0.286455 0.500000 0.258180
O O18 0.393099 0.500000 0.500000
O O19 0.500000 0.582069 0.500000
#
# Coordination Sequence:
#
# PCOD9489652 Si02
#       7
#    16  16  16  16  16  16   8
#     4  10  21  35  53  79 109 144 183 223 275 331
#     4  11  23  37  53  77 110 148 188 226 264 320
#     4   9  17  31  53  80 108 139 178 224 274 325
#     4   9  18  33  54  81 108 135 176 229 282 332
#     4  10  20  34  55  79 108 148 187 223 266 324
#     4  11  22  36  57  81 109 144 180 228 280 326
#     4   9  18  32  50  75 107 137 176 231 275 313
#
# _framework density 17.866795
#
# number of rings (size 3 to 8) (size 9 to 14) (size 15 to 20)
#    0.000    2.077    3.077    0.462    2.154    1.846 
#    0.000    1.538    0.000    4.615    0.000    7.538 
#    0.000    0.000    0.000    0.000    0.000    0.000 
#
# Total GULP energy -290052.643546 kJ/mol
# GULP energy per Si atom -5577.935453 kJ/mol
# Density = 1.782613 g / cm^3
# Si number density = 17.866795 Si / 1000 Ang^3
#
#
#
# Elastic Constant Matrix: (Units=GPa)
#
#
# Indices 1 2 3 4 5 6 
#
# 1 121.6004 16.9724 72.9233 0.0000 0.0000 0.0000
# 2 16.9724 31.5952 26.5607 0.0000 0.0000 0.0000
# 3 72.9233 26.5607 132.1921 0.0000 0.0000 0.0000
# 4 0.0000 0.0000 0.0000 -35.7965 0.0000 0.0000
# 5 0.0000 0.0000 0.0000 0.0000 17.7996 0.0000
# 6 0.0000 0.0000 0.0000 0.0000 0.0000 19.7220
#
#
#
# Elastic Compliance Matrix: (Units=1/GPa)
#
#
# Indices 1 2 3 4 5 6 
#
# 1 0.012320 -0.001089 -0.006578 0.000000 0.000000 0.000000
# 2 -0.001089 0.038179 -0.007071 0.000000 0.000000 0.000000
# 3 -0.006578 -0.007071 0.012614 0.000000 0.000000 0.000000
# 4 0.000000 0.000000 0.000000 -0.027936 0.000000 0.000000
# 5 0.000000 0.000000 0.000000 0.000000 0.056181 0.000000
# 6 0.000000 0.000000 0.000000 0.000000 0.000000 0.050705
#
#
# Mechanical properties :
#
#
# Convention : Reuss Voigt Hill
#
# Bulk Modulus (GPa) = 29.72699 57.58895 43.65797
# Shear Modulus (GPa) = 27.35976 11.60712 19.48344
#
# Velocity S-wave (km/s) = 3.91745 2.55158 3.30583
# Velocity P-wave (km/s) = 6.09394 6.40181 6.24977
#
# Compressibility (1/GPa) = 0.03363947
#
# Stress axis : x y z
#
# Youngs Moduli (GPa) = 81.16747 26.19233 79.27724
#
# Poissons Ratio (x) = 0.02851 0.52146
# Poissons Ratio (y) = 0.08836 0.56054
# Poissons Ratio (z) = 0.53389 0.18520
#
# Static dielectric constant tensor:
#      x y z
#    x 1.659610 0.000000 0.000000 
#    y 0.000000 1.600810 0.000000 
#    z 0.000000 0.000000 1.592870 
# 
# From -- ./inp_files/44426.got.cif
#   From: 2010.05.17/outbox.cif.g08.bks.cpg/sg65_23_cif.got.tgz:44426.got - 2010.06.03 17:01:31.
