data_PCOD9489035
_publ_section_title
;
Structure prediction by ZEFSAII (Michael W. Deem and Ramdas Pophale) SiO2 
 PCOD9489035
Probable space group: C M M M
;
_chemical_formula_sum "Si O2"
_cell_formula_units_Z 88
_cell_length_a 20.420769
_cell_length_b 31.185161
_cell_length_c 8.895749
_cell_angle_alpha 90.000000
_cell_angle_beta 90.000000
_cell_angle_gamma 90.000000
_cell_volume 5665.035081
_symmetry_space_group_name_H-M "C M M M"
_symmetry_group_IT_number 65
_symmetry_cell_setting 'orthorhombic'
loop_
_space_group_symop_operation_xyz
x,y,z
-x,-y,z
x,-y,-z
-x,y,-z
-x,-y,-z
x,y,-z
-x,y,z
x,-y,z
1/2+x,1/2+y,z
1/2-x,1/2-y,z
1/2+x,1/2-y,-z
1/2-x,1/2+y,-z
1/2-x,1/2-y,-z
1/2+x,1/2+y,-z
1/2-x,1/2+y,z
1/2+x,1/2-y,z
loop_
_atom_site_type_symbol
_atom_site_label
_atom_site_fract_x
_atom_site_fract_y
_atom_site_fract_z
Si Si1 0.500000 0.947940 0.827710
Si Si2 0.790276 0.207477 0.318701
Si Si3 0.072544 0.773402 0.823198
Si Si4 0.574020 0.170071 0.175141
Si Si5 0.801180 0.370118 0.321961
Si Si6 0.854860 0.450586 0.818233
O O1 0.428476 0.937611 0.762937
O O2 0.500000 0.000000 0.834424
O O3 0.500000 0.932147 0.000000
O O4 0.789810 0.208413 0.500000
O O5 0.750000 0.250000 0.267220
O O6 0.864360 0.209166 0.261527
O O7 0.753045 0.164242 0.269770
O O8 0.074729 0.721610 0.812878
O O9 0.000000 0.786891 0.768710
O O10 0.077106 0.784032 0.000000
O O11 0.500000 0.155429 0.209778
O O12 0.629572 0.151558 0.280319
O O13 0.587896 0.159117 0.000000
O O14 0.795060 0.375531 0.500000
O O15 0.803717 0.416256 0.243044
O O16 0.842596 0.500000 0.774325
O O17 0.856587 0.449318 0.000000
#
# Coordination Sequence:
#
# PCOD9489035 Si02
#       6
#     8  16  16  16  16  16
#     4   7  12  26  47  65  81 109 149 191 233 275
#     4  10  20  34  47  65  97 132 161 189 228 280
#     4   9  18  32  50  71  92 118 158 204 240 271
#     4   9  18  31  45  63  89 122 160 197 235 280
#     4  11  22  32  45  67  94 124 158 198 237 274
#     4   9  18  33  50  66  87 118 156 196 240 286
#
# _framework density 15.533884
#
# number of rings (size 3 to 8) (size 9 to 14) (size 15 to 20)
#    0.000    2.636    1.818    2.727    1.273    2.909 
#    0.000    1.818    0.000    1.636    0.000    0.000 
#    0.000    0.727    0.000    8.000    0.000    5.818 
#
# Total GULP energy -245228.659699 kJ/mol
# GULP energy per Si atom -5573.378630 kJ/mol
# Density = 1.549853 g / cm^3
# Si number density = 15.533884 Si / 1000 Ang^3
#
#
#
# Elastic Constant Matrix: (Units=GPa)
#
#
# Indices 1 2 3 4 5 6 
#
# 1 98.6738 56.4070 19.4192 0.0000 0.0000 0.0000
# 2 56.4070 95.5867 24.3697 0.0000 0.0000 0.0000
# 3 19.4192 24.3697 10.2409 0.0000 0.0000 0.0000
# 4 0.0000 0.0000 0.0000 20.7925 0.0000 0.0000
# 5 0.0000 0.0000 0.0000 0.0000 34.2298 0.0000
# 6 0.0000 0.0000 0.0000 0.0000 0.0000 29.7963
#
#
#
# Elastic Compliance Matrix: (Units=1/GPa)
#
#
# Indices 1 2 3 4 5 6 
#
# 1 0.016925 -0.004590 -0.021170 0.000000 0.000000 0.000000
# 2 -0.004590 0.027844 -0.057554 0.000000 0.000000 0.000000
# 3 -0.021170 -0.057554 0.274750 0.000000 0.000000 0.000000
# 4 0.000000 0.000000 0.000000 0.048094 0.000000 0.000000
# 5 0.000000 0.000000 0.000000 0.000000 0.029214 0.000000
# 6 0.000000 0.000000 0.000000 0.000000 0.000000 0.033561
#
#
# Mechanical properties :
#
#
# Convention : Reuss Voigt Hill
#
# Bulk Modulus (GPa) = 6.54068 44.98814 25.76441
# Shear Modulus (GPa) = 7.71627 23.91742 15.81684
#
# Velocity S-wave (km/s) = 2.23118 3.92815 3.19441
# Velocity P-wave (km/s) = 3.29504 7.04258 5.49797
#
# Compressibility (1/GPa) = 0.15288919
#
# Stress axis : x y z
#
# Youngs Moduli (GPa) = 59.08504 35.91464 3.63967
#
# Poissons Ratio (x) = 0.16485 0.07705
# Poissons Ratio (y) = 0.27121 0.20948
# Poissons Ratio (z) = 1.25086 2.06704
#
# Static dielectric constant tensor:
#      x y z
#    x 1.516400 0.000000 0.000000 
#    y 0.000000 1.548630 0.000000 
#    z 0.000000 0.000000 1.524690 
# 
# From -- ./inp_files/10149.got.cif
#   From: 2010.05.17/outbox.cif.g08.bks.cpg/sg65_6_cif.got.tgz:10149.got - 2010.06.03 17:01:31.
