data_PCOD9489972
_publ_section_title
;
Structure prediction by ZEFSAII (Michael W. Deem and Ramdas Pophale) SiO2 
 PCOD9489972
Probable space group: C M M M
;
_chemical_formula_sum "Si O2"
_cell_formula_units_Z 72
_cell_length_a 14.514392
_cell_length_b 9.255251
_cell_length_c 23.981829
_cell_angle_alpha 90.000000
_cell_angle_beta 90.000000
_cell_angle_gamma 90.000000
_cell_volume 3221.583196
_symmetry_space_group_name_H-M "C M M M"
_symmetry_group_IT_number 65
_symmetry_cell_setting 'orthorhombic'
loop_
_space_group_symop_operation_xyz
x,y,z
-x,-y,z
x,-y,-z
-x,y,-z
-x,-y,-z
x,y,-z
-x,y,z
x,-y,z
1/2+x,1/2+y,z
1/2-x,1/2-y,z
1/2+x,1/2-y,-z
1/2-x,1/2+y,-z
1/2-x,1/2-y,-z
1/2+x,1/2+y,-z
1/2-x,1/2+y,z
1/2+x,1/2-y,z
loop_
_atom_site_type_symbol
_atom_site_label
_atom_site_fract_x
_atom_site_fract_y
_atom_site_fract_z
Si Si1 0.892499 0.338790 0.610863
Si Si2 0.387376 0.164276 0.828476
Si Si3 0.887660 0.833197 0.937734
Si Si4 0.387068 0.664923 0.717927
Si Si5 0.651937 0.326756 0.500000
O O1 0.852362 0.500000 0.600543
O O2 0.854874 0.258634 0.665198
O O3 0.889477 0.237220 0.556787
O O4 0.000000 0.358432 0.622851
O O5 0.500000 0.162185 0.828678
O O6 0.357800 0.233073 0.887022
O O7 0.360189 0.261313 0.775930
O O8 0.355605 0.000000 0.822197
O O9 0.000000 0.833112 0.937136
O O10 0.859369 0.000000 0.929374
O O11 0.859908 0.786187 0.000000
O O12 0.500000 0.661786 0.717030
O O13 0.355321 0.500000 0.713998
O O14 0.652055 0.500000 0.500000
O O15 0.750000 0.250000 0.500000
#
# Coordination Sequence:
#
# PCOD9489972 Si02
#       5
#    16  16  16  16   8
#     4  10  20  35  55  78 103 129 160 200 244 288
#     4   9  15  21  30  46  69  97 131 175 225 271
#     4   8  13  20  28  38  56  87 128 172 217 266
#     4   9  16  26  41  61  84 111 145 185 229 276
#     4  12  25  40  57  77 103 133 165 198 237 286
#
# _framework density 22.349260000000001
#
# number of rings (size 3 to 8) (size 9 to 14) (size 15 to 20)
#    0.000    2.667    0.000    4.000    0.000    8.444 
#    0.000    2.222    0.000    0.000    0.000    0.000 
#    0.000    0.000    0.000    0.000    0.000    1.111 
#
# Total GULP energy -201105.430314 kJ/mol
# GULP energy per Si atom -5586.261953 kJ/mol
# Density = 2.229839 g / cm^3
# Si number density = 22.349260 Si / 1000 Ang^3
#
#
#
# Elastic Constant Matrix: (Units=GPa)
#
#
# Indices 1 2 3 4 5 6 
#
# 1 54.5309 10.2845 -1.0470 0.0000 0.0000 0.0000
# 2 10.2845 221.9223 128.9517 0.0000 0.0000 0.0000
# 3 -1.0470 128.9517 199.2080 0.0000 0.0000 0.0000
# 4 0.0000 0.0000 0.0000 42.8012 0.0000 0.0000
# 5 0.0000 0.0000 0.0000 0.0000 -184.4353 0.0000
# 6 0.0000 0.0000 0.0000 0.0000 0.0000 5.2240
#
#
#
# Elastic Compliance Matrix: (Units=1/GPa)
#
#
# Indices 1 2 3 4 5 6 
#
# 1 0.018637 -0.001476 0.001053 0.000000 0.000000 0.000000
# 2 -0.001476 0.007340 -0.004759 0.000000 0.000000 0.000000
# 3 0.001053 -0.004759 0.008106 0.000000 0.000000 0.000000
# 4 0.000000 0.000000 0.000000 0.023364 0.000000 0.000000
# 5 0.000000 0.000000 0.000000 0.000000 -0.005422 0.000000
# 6 0.000000 0.000000 0.000000 0.000000 0.000000 0.191425
#
#
# Mechanical properties :
#
#
# Convention : Reuss Voigt Hill
#
# Bulk Modulus (GPa) = 42.15911 83.55995 62.85953
# Shear Modulus (GPa) = 19.10446 -4.78389 7.16028
#
# Velocity S-wave (km/s) = 2.92689 -1.46464 1.79186
# Velocity P-wave (km/s) = 5.50699 5.88296 5.69808
#
# Compressibility (1/GPa) = 0.02371967
#
# Stress axis : x y z
#
# Youngs Moduli (GPa) = 53.65739 136.24502 123.36592
#
# Poissons Ratio (x) = 0.20105 -0.12993
# Poissons Ratio (y) = 0.07918 0.58709
# Poissons Ratio (z) = -0.05651 0.64838
#
# Static dielectric constant tensor:
#      x y z
#    x 2.315430 0.000000 0.000000 
#    y 0.000000 1.777370 0.000000 
#    z 0.000000 0.000000 1.837200 
# 
# From -- ./inp_files/66977.got.cif
#   From: 2010.05.17/outbox.cif.g08.bks.cpg/sg65_34_cif.got.tgz:66977.got - 2010.06.03 17:01:31.
