data_PCOD9489682
_publ_section_title
;
Structure prediction by ZEFSAII (Michael W. Deem and Ramdas Pophale) SiO2 
 PCOD9489682
Probable space group: C M M M
;
_chemical_formula_sum "Si O2"
_cell_formula_units_Z 64
_cell_length_a 14.866912
_cell_length_b 8.169232
_cell_length_c 24.031223
_cell_angle_alpha 90.000000
_cell_angle_beta 90.000000
_cell_angle_gamma 90.000000
_cell_volume 2918.622151
_symmetry_space_group_name_H-M "C M M M"
_symmetry_group_IT_number 65
_symmetry_cell_setting 'orthorhombic'
loop_
_space_group_symop_operation_xyz
x,y,z
-x,-y,z
x,-y,-z
-x,y,-z
-x,-y,-z
x,y,-z
-x,y,z
x,-y,z
1/2+x,1/2+y,z
1/2-x,1/2-y,z
1/2+x,1/2-y,-z
1/2-x,1/2+y,-z
1/2-x,1/2-y,-z
1/2+x,1/2+y,-z
1/2-x,1/2+y,z
1/2+x,1/2-y,z
loop_
_atom_site_type_symbol
_atom_site_label
_atom_site_fract_x
_atom_site_fract_y
_atom_site_fract_z
Si Si1 0.110353 0.000000 0.064876
Si Si2 0.147222 0.194182 0.757230
Si Si3 0.895850 0.322666 0.874895
Si Si4 0.105215 0.816451 0.370009
Si Si5 0.110468 0.500000 0.564664
O O1 0.143874 0.835602 0.094941
O O2 0.000000 0.000000 0.069959
O O3 0.132249 0.000000 0.000000
O O4 0.250000 0.250000 0.756002
O O5 0.104985 0.288619 0.808923
O O6 0.110043 0.224289 0.695588
O O7 0.138182 0.000000 0.767856
O O8 0.853903 0.500000 0.886398
O O9 0.000000 0.330947 0.892715
O O10 0.143123 0.664963 0.404804
O O11 0.000000 0.827685 0.385061
O O12 0.144301 0.000000 0.377928
O O13 0.134692 0.500000 0.500000
O O14 0.000000 0.500000 0.568184
#
# Coordination Sequence:
#
# PCOD9489682 Si02
#       5
#     8  16  16  16   8
#     4   9  18  34  55  80 110 142 179 222 264 311
#     4  11  22  35  53  81 111 145 178 221 272 324
#     4  10  20  34  55  83 111 142 178 220 268 319
#     4   9  19  34  53  79 108 139 174 218 267 318
#     4   9  18  32  53  80 106 136 175 218 264 313
#
# _framework density 21.928156000000001
#
# number of rings (size 3 to 8) (size 9 to 14) (size 15 to 20)
#    0.000    2.250    1.250    1.500    3.500    2.000 
#    0.000    5.000    0.000    1.500    0.000    0.000 
#    0.000    0.000    0.000    0.000    0.000    0.000 
#
# Total GULP energy -178688.792052 kJ/mol
# GULP energy per Si atom -5584.024752 kJ/mol
# Density = 2.187825 g / cm^3
# Si number density = 21.928156 Si / 1000 Ang^3
#
#
#
# Elastic Constant Matrix: (Units=GPa)
#
#
# Indices 1 2 3 4 5 6 
#
# 1 38.5406 13.2373 -9.8441 0.0000 0.0000 0.0000
# 2 13.2373 224.0518 122.2925 0.0000 0.0000 0.0000
# 3 -9.8441 122.2925 120.3481 0.0000 0.0000 0.0000
# 4 0.0000 0.0000 0.0000 0.6867 0.0000 0.0000
# 5 0.0000 0.0000 0.0000 0.0000 -54.0443 0.0000
# 6 0.0000 0.0000 0.0000 0.0000 0.0000 12.9927
#
#
#
# Elastic Compliance Matrix: (Units=1/GPa)
#
#
# Indices 1 2 3 4 5 6 
#
# 1 0.030938 -0.007206 0.009853 0.000000 0.000000 0.000000
# 2 -0.007206 0.011700 -0.012478 0.000000 0.000000 0.000000
# 3 0.009853 -0.012478 0.021795 0.000000 0.000000 0.000000
# 4 0.000000 0.000000 0.000000 1.456319 0.000000 0.000000
# 5 0.000000 0.000000 0.000000 0.000000 -0.018503 0.000000
# 6 0.000000 0.000000 0.000000 0.000000 0.000000 0.076967
#
#
# Mechanical properties :
#
#
# Convention : Reuss Voigt Hill
#
# Bulk Modulus (GPa) = 22.33609 70.47910 46.40759
# Shear Modulus (GPa) = 3.09827 9.07734 6.08781
#
# Velocity S-wave (km/s) = 1.18995 2.03680 1.66802
# Velocity P-wave (km/s) = 3.47795 6.14346 4.99191
#
# Compressibility (1/GPa) = 0.04477060
#
# Stress axis : x y z
#
# Youngs Moduli (GPa) = 32.32254 85.47038 45.88178
#
# Poissons Ratio (x) = 0.61588 -0.45206
# Poissons Ratio (y) = 0.23291 0.57253
# Poissons Ratio (z) = -0.31847 1.06653
#
# Static dielectric constant tensor:
#      x y z
#    x 1.807150 0.000000 0.000000 
#    y 0.000000 1.833410 0.000000 
#    z 0.000000 0.000000 1.745240 
# 
# From -- ./inp_files/63240.got.cif
#   From: 2010.05.17/outbox.cif.g08.bks.cpg/sg65_32_cif.got.tgz:63240.got - 2010.06.03 17:01:31.
