data_PCOD9489587
_publ_section_title
;
Structure prediction by ZEFSAII (Michael W. Deem and Ramdas Pophale) SiO2 
 PCOD9489587
Probable space group: C M M M
;
_chemical_formula_sum "Si O2"
_cell_formula_units_Z 88
_cell_length_a 8.935402
_cell_length_b 18.687172
_cell_length_c 29.345525
_cell_angle_alpha 90.000000
_cell_angle_beta 90.000000
_cell_angle_gamma 90.000000
_cell_volume 4900.039292
_symmetry_space_group_name_H-M "C M M M"
_symmetry_group_IT_number 65
_symmetry_cell_setting 'orthorhombic'
loop_
_space_group_symop_operation_xyz
x,y,z
-x,-y,z
x,-y,-z
-x,y,-z
-x,-y,-z
x,y,-z
-x,y,z
x,-y,z
1/2+x,1/2+y,z
1/2-x,1/2-y,z
1/2+x,1/2-y,-z
1/2-x,1/2+y,-z
1/2-x,1/2-y,-z
1/2+x,1/2+y,-z
1/2-x,1/2+y,z
1/2+x,1/2-y,z
loop_
_atom_site_type_symbol
_atom_site_label
_atom_site_fract_x
_atom_site_fract_y
_atom_site_fract_z
Si Si1 0.173032 0.913031 0.233809
Si Si2 0.178751 0.328561 0.949057
Si Si3 0.681877 0.582174 0.500000
Si Si4 0.820066 0.171248 0.589489
Si Si5 0.177476 0.585072 0.672129
Si Si6 0.819802 0.915827 0.132950
O O1 0.270477 0.892418 0.277261
O O2 0.225067 0.889195 0.183620
O O3 0.000000 0.891199 0.240561
O O4 0.173511 0.000000 0.231945
O O5 0.250000 0.250000 0.946121
O O6 0.243882 0.375272 0.908385
O O7 0.000000 0.323451 0.945271
O O8 0.214340 0.357215 0.000000
O O9 0.735086 0.500000 0.500000
O O10 0.500000 0.579980 0.500000
O O11 0.726820 0.625132 0.454802
O O12 0.750000 0.250000 0.587392
O O13 0.763589 0.129835 0.634126
O O14 0.000000 0.176299 0.589901
O O15 0.211083 0.500000 0.667075
O O16 0.000000 0.594585 0.667151
O O17 0.000000 0.908715 0.130457
O O18 0.784192 0.000000 0.129938
#
# Coordination Sequence:
#
# PCOD9489587 Si02
#       6
#    16  16   8  16  16  16
#     4   8  15  30  52  77 105 138 175 214 259 310
#     4  10  21  36  53  73 100 136 176 217 262 314
#     4   9  19  36  59  85 108 137 180 221 260 314
#     4  11  22  37  57  80 111 146 179 219 266 314
#     4  10  20  34  54  81 110 140 178 220 261 310
#     4   9  18  33  54  80 108 137 171 213 261 313
#
# _framework density 17.959040000000002
#
# number of rings (size 3 to 8) (size 9 to 14) (size 15 to 20)
#    0.000    2.455    0.000    3.545    0.000    4.364 
#    0.000    5.909    0.000    7.636    0.000    0.000 
#    0.000    0.000    0.000    0.000    0.000    0.000 
#
# Total GULP energy -245457.255562 kJ/mol
# GULP energy per Si atom -5578.573990 kJ/mol
# Density = 1.791816 g / cm^3
# Si number density = 17.959040 Si / 1000 Ang^3
#
#
#
# Elastic Constant Matrix: (Units=GPa)
#
#
# Indices 1 2 3 4 5 6 
#
# 1 51.5473 48.2012 65.4412 0.0000 0.0000 0.0000
# 2 48.2012 82.2886 84.8789 0.0000 0.0000 0.0000
# 3 65.4412 84.8789 195.7959 0.0000 0.0000 0.0000
# 4 0.0000 0.0000 0.0000 -53.4678 0.0000 0.0000
# 5 0.0000 0.0000 0.0000 0.0000 24.4912 0.0000
# 6 0.0000 0.0000 0.0000 0.0000 0.0000 25.7516
#
#
#
# Elastic Compliance Matrix: (Units=1/GPa)
#
#
# Indices 1 2 3 4 5 6 
#
# 1 0.047553 -0.020730 -0.006907 0.000000 0.000000 0.000000
# 2 -0.020730 0.031018 -0.006518 0.000000 0.000000 0.000000
# 3 -0.006907 -0.006518 0.010242 0.000000 0.000000 0.000000
# 4 0.000000 0.000000 0.000000 -0.018703 0.000000 0.000000
# 5 0.000000 0.000000 0.000000 0.000000 0.040831 0.000000
# 6 0.000000 0.000000 0.000000 0.000000 0.000000 0.038833
#
#
# Mechanical properties :
#
#
# Convention : Reuss Voigt Hill
#
# Bulk Modulus (GPa) = 48.77452 80.74159 64.75805
# Shear Modulus (GPa) = 22.23037 8.09569 15.16303
#
# Velocity S-wave (km/s) = 3.52211 2.12548 2.90886
# Velocity P-wave (km/s) = 6.61499 7.14702 6.88614
#
# Compressibility (1/GPa) = 0.02050251
#
# Stress axis : x y z
#
# Youngs Moduli (GPa) = 21.02929 32.23908 97.64165
#
# Poissons Ratio (x) = 0.66831 0.67442
# Poissons Ratio (y) = 0.43593 0.63643
# Poissons Ratio (z) = 0.14525 0.21014
#
# Static dielectric constant tensor:
#      x y z
#    x 1.597760 0.000000 0.000000 
#    y 0.000000 1.590870 0.000000 
#    z 0.000000 0.000000 1.618150 
# 
# From -- ./inp_files/67535.got.cif
#   From: 2010.05.17/outbox.cif.g08.bks.cpg/sg65_34_cif.got.tgz:67535.got - 2010.06.03 17:01:31.
