data_PCOD9489628
_publ_section_title
;
Structure prediction by ZEFSAII (Michael W. Deem and Ramdas Pophale) SiO2 
 PCOD9489628
Probable space group: C M M M
;
_chemical_formula_sum "Si O2"
_cell_formula_units_Z 96
_cell_length_a 15.293616
_cell_length_b 22.411236
_cell_length_c 15.020188
_cell_angle_alpha 90.000000
_cell_angle_beta 90.000000
_cell_angle_gamma 90.000000
_cell_volume 5148.151976
_symmetry_space_group_name_H-M "C M M M"
_symmetry_group_IT_number 65
_symmetry_cell_setting 'orthorhombic'
loop_
_space_group_symop_operation_xyz
x,y,z
-x,-y,z
x,-y,-z
-x,y,-z
-x,-y,-z
x,y,-z
-x,y,z
x,-y,z
1/2+x,1/2+y,z
1/2-x,1/2-y,z
1/2+x,1/2-y,-z
1/2-x,1/2+y,-z
1/2-x,1/2-y,-z
1/2+x,1/2+y,-z
1/2-x,1/2+y,z
1/2+x,1/2-y,z
loop_
_atom_site_type_symbol
_atom_site_label
_atom_site_fract_x
_atom_site_fract_y
_atom_site_fract_z
Si Si1 0.899092 0.626784 0.606349
Si Si2 0.604912 0.301473 0.900386
Si Si3 0.093220 0.160500 0.593045
Si Si4 0.896254 0.067314 0.177054
Si Si5 0.148511 0.257777 0.278594
Si Si6 0.723594 0.565713 0.352968
O O1 0.883815 0.639564 0.500000
O O2 0.885788 0.683360 0.672251
O O3 0.825832 0.580683 0.640840
O O4 0.000000 0.606897 0.613541
O O5 0.500000 0.295643 0.899663
O O6 0.622094 0.371614 0.876954
O O7 0.639103 0.255014 0.826285
O O8 0.637269 0.289027 0.000000
O O9 0.096119 0.195893 0.500000
O O10 0.098523 0.203275 0.675932
O O11 0.173068 0.116363 0.594645
O O12 0.000000 0.127963 0.595683
O O13 0.826184 0.068357 0.257579
O O14 0.000000 0.071197 0.204161
O O15 0.887931 0.000000 0.135728
O O16 0.250000 0.250000 0.302210
O O17 0.708385 0.500000 0.388985
#
# Coordination Sequence:
#
# PCOD9489628 Si02
#       6
#    16  16  16  16  16  16
#     4  11  24  40  58  80 109 151 200 243 281 326
#     4  10  20  34  54  82 115 148 183 228 283 340
#     4  11  22  35  55  83 114 148 184 225 277 337
#     4   9  17  32  55  82 115 155 193 227 271 333
#     4  12  22  37  59  81 111 148 187 238 284 335
#     4  11  22  37  57  81 112 149 189 234 282 330
#
# _framework density 18.647468
#
# number of rings (size 3 to 8) (size 9 to 14) (size 15 to 20)
#    0.000    1.333    3.333    3.000    0.000    5.333 
#    0.000    3.333    0.000    0.000    0.000    0.000 
#    0.000    0.000    0.000   12.167    0.000    0.333 
#
# Total GULP energy -267328.313986 kJ/mol
# GULP energy per Si atom -5569.339875 kJ/mol
# Density = 1.860503 g / cm^3
# Si number density = 18.647468 Si / 1000 Ang^3
#
#
#
# Elastic Constant Matrix: (Units=GPa)
#
#
# Indices 1 2 3 4 5 6 
#
# 1 105.6993 -2.2248 12.8382 0.0000 0.0000 0.0000
# 2 -2.2248 33.5149 15.7491 0.0000 0.0000 0.0000
# 3 12.8382 15.7491 98.2518 0.0000 0.0000 0.0000
# 4 0.0000 0.0000 0.0000 -37.0904 0.0000 0.0000
# 5 0.0000 0.0000 0.0000 0.0000 33.3613 0.0000
# 6 0.0000 0.0000 0.0000 0.0000 0.0000 5.3990
#
#
#
# Elastic Compliance Matrix: (Units=1/GPa)
#
#
# Indices 1 2 3 4 5 6 
#
# 1 0.009668 0.001336 -0.001478 0.000000 0.000000 0.000000
# 2 0.001336 0.032453 -0.005377 0.000000 0.000000 0.000000
# 3 -0.001478 -0.005377 0.011233 0.000000 0.000000 0.000000
# 4 0.000000 0.000000 0.000000 -0.026961 0.000000 0.000000
# 5 0.000000 0.000000 0.000000 0.000000 0.029975 0.000000
# 6 0.000000 0.000000 0.000000 0.000000 0.000000 0.185218
#
#
# Mechanical properties :
#
#
# Convention : Reuss Voigt Hill
#
# Bulk Modulus (GPa) = 23.63060 32.24344 27.93702
# Shear Modulus (GPa) = 18.74570 14.40755 16.57662
#
# Velocity S-wave (km/s) = 3.17404 2.78263 2.98476
# Velocity P-wave (km/s) = 5.11199 5.25858 5.18580
#
# Compressibility (1/GPa) = 0.04231801
#
# Stress axis : x y z
#
# Youngs Moduli (GPa) = 103.42991 30.81413 89.02491
#
# Poissons Ratio (x) = -0.04117 0.13153
# Poissons Ratio (y) = -0.13819 0.47864
# Poissons Ratio (z) = 0.15282 0.16567
#
# Static dielectric constant tensor:
#      x y z
#    x 1.663730 0.000000 0.000000 
#    y 0.000000 1.660750 0.000000 
#    z 0.000000 0.000000 1.681970 
# 
# From -- ./inp_files/40316.got.cif
#   From: 2010.05.17/outbox.cif.g08.bks.cpg/sg65_21_cif.got.tgz:40316.got - 2010.06.03 17:01:31.
